0:0
     RDKit          3D

 36 37  0  0  0  0  0  0  0  0999 V2000
   59.1364   35.2235   44.3898 H   0  0  0  0  0  0  0  0  0  0  0  0
   59.0330   34.3010   44.9800 C   0  0  0  0  0  0  0  0  0  0  0  0
   58.2770   33.3140   44.4800 C   0  0  0  0  0  0  0  0  0  0  0  0
   58.2824   33.1262   43.3962 H   0  0  0  0  0  0  0  0  0  0  0  0
   57.4230   32.4600   45.3710 C   0  0  0  0  0  0  0  0  0  0  0  0
   56.4536   32.2848   44.8815 H   0  0  0  0  0  0  0  0  0  0  0  0
   57.2794   32.9824   46.3283 H   0  0  0  0  0  0  0  0  0  0  0  0
   58.0890   31.1330   45.6390 C   0  0  0  0  0  0  0  0  0  0  0  0
   59.3990   31.1030   46.1440 C   0  0  0  0  0  0  0  0  0  0  0  0
   59.9246   32.0457   46.3564 H   0  0  0  0  0  0  0  0  0  0  0  0
   60.0380   29.8850   46.3780 C   0  0  0  0  0  0  0  0  0  0  0  0
   61.0576   29.8707   46.7906 H   0  0  0  0  0  0  0  0  0  0  0  0
   59.3870   28.6850   46.0900 C   0  0  0  0  0  0  0  0  0  0  0  0
   59.8948   27.7283   46.2821 H   0  0  0  0  0  0  0  0  0  0  0  0
   58.0890   28.6900   45.5570 C   0  0  0  0  0  0  0  0  0  0  0  0
   57.4200   27.3800   45.2440 C   0  0  0  0  0  0  0  0  0  0  0  0
   57.1587   26.8684   46.1821 H   0  0  0  0  0  0  0  0  0  0  0  0
   56.5061   27.5652   44.6605 H   0  0  0  0  0  0  0  0  0  0  0  0
   58.1058   26.7482   44.6605 H   0  0  0  0  0  0  0  0  0  0  0  0
   57.4250   29.9200   45.3540 C   0  0  0  0  0  0  0  0  0  0  0  0
   56.1220   29.9510   44.8480 O   0  0  0  0  0  0  0  0  0  0  0  0
   55.8600   29.8810   43.4520 C   0  0  0  0  0  0  0  0  0  0  0  0
   54.8089   29.6002   43.2898 H   0  0  0  0  0  0  0  0  0  0  0  0
   56.0524   30.8621   42.9932 H   0  0  0  0  0  0  0  0  0  0  0  0
   56.5161   29.1266   42.9932 H   0  0  0  0  0  0  0  0  0  0  0  0
   59.7390   34.2230   46.2830 C   0  0  0  0  0  0  0  0  0  0  0  0
   61.1090   33.9020   46.3870 C   0  0  0  0  0  0  0  0  0  0  0  0
   61.6923   33.6909   45.4786 H   0  0  0  0  0  0  0  0  0  0  0  0
   61.7290   33.8510   47.6400 C   0  0  0  0  0  0  0  0  0  0  0  0
   62.7959   33.5937   47.7138 H   0  0  0  0  0  0  0  0  0  0  0  0
   60.9970   34.1260   48.7980 C   0  0  0  0  0  0  0  0  0  0  0  0
   61.4858   34.0803   49.7824 H   0  0  0  0  0  0  0  0  0  0  0  0
   59.6440   34.4590   48.7040 C   0  0  0  0  0  0  0  0  0  0  0  0
   59.0688   34.6801   49.6152 H   0  0  0  0  0  0  0  0  0  0  0  0
   59.0190   34.5120   47.4550 C   0  0  0  0  0  0  0  0  0  0  0  0
   57.9548   34.7821   47.3887 H   0  0  0  0  0  0  0  0  0  0  0  0
  1  2  1  0
  2  3  2  0
  3  4  1  0
  3  5  1  0
  5  6  1  0
  5  7  1  0
  5  8  1  0
  8  9  2  0
  9 10  1  0
  9 11  1  0
 11 12  1  0
 11 13  2  0
 13 14  1  0
 13 15  1  0
 15 16  1  0
 16 17  1  0
 16 18  1  0
 16 19  1  0
 15 20  2  0
 20 21  1  0
 21 22  1  0
 22 23  1  0
 22 24  1  0
 22 25  1  0
  2 26  1  0
 26 27  2  0
 27 28  1  0
 27 29  1  0
 29 30  1  0
 29 31  2  0
 31 32  1  0
 31 33  1  0
 33 34  1  0
 33 35  2  0
 35 36  1  0
 20  8  1  0
 35 26  1  0
M  END
>  <UniqueID>  (1) 
1

>  <SMILES>  (1) 
COc1c(C)cccc1C/C=C/c1ccccc1

>  <Energy>  (1) 
42.02237179572135

>  <Genealogy>  (1) 
COc1c(C)cccc1C/C=C/c1ccccc1 (cis-trans isomerization)
COc1c(C)cccc1C/C=C/c1ccccc1 (3D coordinates assigned)
COc1c(C)cccc1C/C=C/c1ccccc1 (optimized conformer: 42.02237179572135 kcal/mol)

>  <smiles>  (1) 
COc1c(C)cccc1CC=Cc1ccccc1

>  <score_type>  (1) 
oracle

>  <origin>  (1) 
adg

>  <m_score__min__energy>  (1) 
-6.9000000000000004

>  <m_primary>  (1) 
energy

$$$$
1:0
     RDKit          3D

 45 48  0  0  0  0  0  0  0  0999 V2000
   55.1660   29.3410   44.8970 N   0  0  0  0  0  0  0  0  0  0  0  0
   56.5870   29.6340   43.9580 S   0  0  0  0  0  0  0  0  0  0  0  0
   57.4290   28.3880   43.9560 O   0  0  0  0  0  0  0  0  0  0  0  0
   56.1990   29.9760   42.5480 O   0  0  0  0  0  0  0  0  0  0  0  0
   57.4960   30.9700   44.6560 C   0  0  0  0  0  0  0  0  0  0  0  0
   58.0910   30.8390   45.9180 C   0  0  0  0  0  0  0  0  0  0  0  0
   58.8200   31.8990   46.4650 C   0  0  0  0  0  0  0  0  0  0  0  0
   58.9800   33.0960   45.7430 C   0  0  0  0  0  0  0  0  0  0  0  0
   59.6990   34.2130   46.2870 N   0  0  0  0  0  0  0  0  0  0  0  0
   60.4410   34.2120   47.5110 C   0  0  0  0  0  0  0  0  0  0  0  0
   59.9020   34.6890   48.5440 O   0  0  0  0  0  0  0  0  0  0  0  0
   61.8000   33.7380   47.5450 N   0  0  0  0  0  0  0  0  0  0  0  0
   62.5390   33.3790   48.7700 C   0  0  2  0  0  0  0  0  0  0  0  0
   63.9920   32.9740   48.3890 C   0  0  0  0  0  0  0  0  0  0  0  0
   64.7940   32.5910   49.6510 C   0  0  1  0  0  0  0  0  0  0  0  0
   64.8420   33.7970   50.6120 C   0  0  0  0  0  0  0  0  0  0  0  0
   63.4060   34.1980   51.0100 C   0  0  2  0  0  0  0  0  0  0  0  0
   62.7150   33.0050   51.7090 C   0  0  0  0  0  0  0  0  0  0  0  0
   62.6690   31.7960   50.7500 C   0  0  2  0  0  0  0  0  0  0  0  0
   64.1060   31.4000   50.3520 C   0  0  0  0  0  0  0  0  0  0  0  0
   61.8680   32.1710   49.4830 C   0  0  0  0  0  0  0  0  0  0  0  0
   62.6080   34.5860   49.7450 C   0  0  0  0  0  0  0  0  0  0  0  0
   58.3670   33.2280   44.4920 C   0  0  0  0  0  0  0  0  0  0  0  0
   57.6380   32.1680   43.9450 C   0  0  0  0  0  0  0  0  0  0  0  0
   55.4100   28.6120   45.6030 H   0  0  0  0  0  0  0  0  0  0  0  0
   57.9841   29.8994   46.4798 H   0  0  0  0  0  0  0  0  0  0  0  0
   59.2702   31.7969   47.4635 H   0  0  0  0  0  0  0  0  0  0  0  0
   62.2780   33.6130   46.6240 H   0  0  0  0  0  0  0  0  0  0  0  0
   63.9604   32.1132   47.7049 H   0  0  0  0  0  0  0  0  0  0  0  0
   64.4834   33.8283   47.9004 H   0  0  0  0  0  0  0  0  0  0  0  0
   65.8182   32.3078   49.3666 H   0  0  0  0  0  0  0  0  0  0  0  0
   65.4094   33.5242   51.5140 H   0  0  0  0  0  0  0  0  0  0  0  0
   65.3328   34.6445   50.1111 H   0  0  0  0  0  0  0  0  0  0  0  0
   63.4422   35.0565   51.6967 H   0  0  0  0  0  0  0  0  0  0  0  0
   63.2800   32.7335   52.6129 H   0  0  0  0  0  0  0  0  0  0  0  0
   61.6892   33.2894   51.9863 H   0  0  0  0  0  0  0  0  0  0  0  0
   62.1810   30.9484   51.2534 H   0  0  0  0  0  0  0  0  0  0  0  0
   64.6741   31.1276   51.2537 H   0  0  0  0  0  0  0  0  0  0  0  0
   64.0723   30.5410   49.6657 H   0  0  0  0  0  0  0  0  0  0  0  0
   61.8448   31.3104   48.7983 H   0  0  0  0  0  0  0  0  0  0  0  0
   60.8424   32.4450   49.7712 H   0  0  0  0  0  0  0  0  0  0  0  0
   61.5881   34.8801   50.0335 H   0  0  0  0  0  0  0  0  0  0  0  0
   63.1108   35.4265   49.2443 H   0  0  0  0  0  0  0  0  0  0  0  0
   58.4594   34.1722   43.9353 H   0  0  0  0  0  0  0  0  0  0  0  0
   57.1746   32.2753   42.9532 H   0  0  0  0  0  0  0  0  0  0  0  0
  1  2  1  0
  2  3  2  0
  2  4  2  0
  2  5  1  0
  5  6  2  0
  6  7  1  0
  7  8  2  0
  8  9  1  0
  9 10  1  0
 10 11  2  0
 10 12  1  0
 13 12  1  6
 13 14  1  0
 14 15  1  0
 15 16  1  0
 16 17  1  0
 17 18  1  0
 18 19  1  0
 19 20  1  0
 19 21  1  0
 17 22  1  0
  8 23  1  0
 23 24  2  0
 24  5  1  0
 21 13  1  0
 22 13  1  0
 20 15  1  0
  1 25  1  0
  6 26  1  0
  7 27  1  0
 12 28  1  0
 14 29  1  0
 14 30  1  0
 15 31  1  6
 16 32  1  0
 16 33  1  0
 17 34  1  1
 18 35  1  0
 18 36  1  0
 19 37  1  1
 20 38  1  0
 20 39  1  0
 21 40  1  0
 21 41  1  0
 22 42  1  0
 22 43  1  0
 23 44  1  0
 24 45  1  0
M  CHG  2   1  -1   9  -1
M  END
>  <UniqueID>  (2) 
2

>  <SMILES>  (2) 
[NH-]S(=O)(=O)c1ccc([N-]C(=O)NC23CC4CC(CC(C4)C2)C3)cc1

>  <Energy>  (2) 
48.63433208252613

>  <Genealogy>  (2) 
[NH-]S(=O)(=O)c1ccc([N-]C(=O)NC23CC4CC(CC(C4)C2)C3)cc1 (protonated)
[NH-]S(=O)(=O)c1ccc([N-]C(=O)NC23CC4CC(CC(C4)C2)C3)cc1 (3D coordinates assigned)
[NH-]S(=O)(=O)c1ccc([N-]C(=O)NC23CC4CC(CC(C4)C2)C3)cc1 (nonaromatic ring conformer: 48.63433208252613 kcal/mol)

>  <smiles>  (2) 
NS(=O)(=O)c1ccc(NC(=O)NC23CC4CC(CC(C4)C2)C3)cc1

>  <score_type>  (2) 
oracle

>  <origin>  (2) 
adg

>  <m_score__min__energy>  (2) 
-12.07

>  <m_primary>  (2) 
energy

$$$$
2:0
     RDKit          3D

 30 32  0  0  0  0  0  0  0  0999 V2000
   65.1900   33.6810   49.6710 F   0  0  0  0  0  0  0  0  0  0  0  0
   64.1860   33.0120   49.0520 C   0  0  0  0  0  0  0  0  0  0  0  0
   63.5520   31.9470   49.7000 C   0  0  0  0  0  0  0  0  0  0  0  0
   62.5170   31.2560   49.0620 C   0  0  0  0  0  0  0  0  0  0  0  0
   62.1130   31.6300   47.7730 C   0  0  0  0  0  0  0  0  0  0  0  0
   61.0470   30.9210   47.1160 C   0  0  0  0  0  0  0  0  0  0  0  0
   60.1540   30.3240   46.5670 C   0  0  0  0  0  0  0  0  0  0  0  0
   59.0900   29.6150   45.9120 C   0  0  0  0  0  0  0  0  0  0  0  0
   58.7160   28.3420   46.3490 C   0  0  0  0  0  0  0  0  0  0  0  0
   57.6720   27.6800   45.6830 C   0  0  0  0  0  0  0  0  0  0  0  0
   57.2280   26.3290   46.0990 C   0  0  0  0  0  0  0  0  0  0  0  0
   58.0270   25.2280   46.3610 C   0  0  0  0  0  0  0  0  0  0  0  0
   57.1630   24.2120   46.7080 C   0  0  0  0  0  0  0  0  0  0  0  0
   55.8940   24.7470   46.6400 C   0  0  0  0  0  0  0  0  0  0  0  0
   55.9660   26.0070   46.2760 O   0  0  0  0  0  0  0  0  0  0  0  0
   57.0570   28.3000   44.6330 N   0  0  0  0  0  0  0  0  0  0  0  0
   57.4400   29.5390   44.2250 C   0  0  0  0  0  0  0  0  0  0  0  0
   56.6340   30.3140   42.8740 Cl  0  0  0  0  0  0  0  0  0  0  0  0
   58.4480   30.1870   44.8630 N   0  0  0  0  0  0  0  0  0  0  0  0
   62.7490   32.6980   47.1260 C   0  0  0  0  0  0  0  0  0  0  0  0
   63.7850   33.3870   47.7660 C   0  0  0  0  0  0  0  0  0  0  0  0
   63.8676   31.6528   50.7119 H   0  0  0  0  0  0  0  0  0  0  0  0
   62.0194   30.4181   49.5723 H   0  0  0  0  0  0  0  0  0  0  0  0
   59.2293   27.8674   47.1983 H   0  0  0  0  0  0  0  0  0  0  0  0
   59.1243   25.1756   46.3039 H   0  0  0  0  0  0  0  0  0  0  0  0
   57.4317   23.1816   46.9837 H   0  0  0  0  0  0  0  0  0  0  0  0
   54.9636   24.2019   46.8574 H   0  0  0  0  0  0  0  0  0  0  0  0
   56.2780   27.8230   44.1250 H   0  0  0  0  0  0  0  0  0  0  0  0
   62.4337   32.9947   46.1148 H   0  0  0  0  0  0  0  0  0  0  0  0
   64.2845   34.2245   47.2570 H   0  0  0  0  0  0  0  0  0  0  0  0
  1  2  1  0
  2  3  2  0
  3  4  1  0
  4  5  2  0
  5  6  1  0
  6  7  3  0
  7  8  1  0
  8  9  2  0
  9 10  1  0
 10 11  1  0
 11 12  2  0
 12 13  1  0
 13 14  2  0
 14 15  1  0
 10 16  2  0
 16 17  1  0
 17 18  1  0
 17 19  2  0
  5 20  1  0
 20 21  2  0
 21  2  1  0
 19  8  1  0
 15 11  1  0
  3 22  1  0
  4 23  1  0
  9 24  1  0
 12 25  1  0
 13 26  1  0
 14 27  1  0
 16 28  1  0
 20 29  1  0
 21 30  1  0
M  CHG  1  16   1
M  END
>  <UniqueID>  (3) 
3

>  <SMILES>  (3) 
Fc1ccc(C#Cc2cc(-c3ccco3)[nH+]c(Cl)n2)cc1

>  <Energy>  (3) 
55.974126607364276

>  <Genealogy>  (3) 
Fc1ccc(C#Cc2cc(-c3ccco3)[nH+]c(Cl)n2)cc1 (protonated)
Fc1ccc(C#Cc2cc(-c3ccco3)[nH+]c(Cl)n2)cc1 (3D coordinates assigned)
Fc1ccc(C#Cc2cc(-c3ccco3)[nH+]c(Cl)n2)cc1 (optimized conformer: 55.974126607364276 kcal/mol)

>  <smiles>  (3) 
Fc1ccc(C#Cc2cc(-c3ccco3)nc(Cl)n2)cc1

>  <score_type>  (3) 
oracle

>  <origin>  (3) 
adg

>  <m_score__min__energy>  (3) 
-5.4299999999999997

>  <m_primary>  (3) 
energy

$$$$
3:0
     RDKit          3D

 41 42  0  0  0  0  0  0  0  0999 V2000
   56.6100   30.3020   43.4730 C   0  0  0  0  0  0  0  0  0  0  0  0
   56.4730   30.9810   44.7160 O   0  0  0  0  0  0  0  0  0  0  0  0
   57.4340   31.8520   45.2530 C   0  0  0  0  0  0  0  0  0  0  0  0
   57.2810   33.2520   45.2310 C   0  0  0  0  0  0  0  0  0  0  0  0
   58.2660   34.0770   45.7810 C   0  0  0  0  0  0  0  0  0  0  0  0
   59.4140   33.5190   46.3730 C   0  0  0  0  0  0  0  0  0  0  0  0
   60.4510   34.3500   46.9270 N   0  0  0  0  0  0  0  0  0  0  0  0
   61.5890   33.8360   47.6400 C   0  0  0  0  0  0  0  0  0  0  0  0
   62.8240   33.7220   46.9840 C   0  0  0  0  0  0  0  0  0  0  0  0
   63.9450   33.2340   47.6560 C   0  0  0  0  0  0  0  0  0  0  0  0
   63.8540   32.8470   49.0020 C   0  0  0  0  0  0  0  0  0  0  0  0
   65.0110   32.3350   49.6900 N   0  0  0  0  0  0  0  0  0  0  0  0
   66.1210   32.8950   49.5740 O   0  0  0  0  0  0  0  0  0  0  0  0
   64.9120   31.2160   50.4860 O   0  0  0  0  0  0  0  0  0  0  0  0
   62.6200   32.9690   49.6640 C   0  0  0  0  0  0  0  0  0  0  0  0
   61.4900   33.4760   49.0010 C   0  0  0  0  0  0  0  0  0  0  0  0
   59.9430   33.5820   49.8590 S   0  0  0  0  0  0  0  0  0  0  0  0
   59.3020   34.9230   49.6300 O   0  0  0  0  0  0  0  0  0  0  0  0
   59.0300   32.5140   49.3260 O   0  0  0  0  0  0  0  0  0  0  0  0
   60.1350   33.3300   51.5690 N   0  0  0  0  0  0  0  0  0  0  0  0
   59.3520   33.8250   52.4890 C   0  0  0  0  0  0  0  0  0  0  0  0
   59.2910   33.2710   53.8100 N   0  0  0  0  0  0  0  0  0  0  0  0
   58.5110   34.9400   52.1730 N   0  0  0  0  0  0  0  0  0  0  0  0
   59.5700   32.1260   46.3760 C   0  0  0  0  0  0  0  0  0  0  0  0
   58.5850   31.3010   45.8260 C   0  0  0  0  0  0  0  0  0  0  0  0
   56.8245   29.2390   43.6576 H   0  0  0  0  0  0  0  0  0  0  0  0
   55.6753   30.3934   42.9003 H   0  0  0  0  0  0  0  0  0  0  0  0
   57.4361   30.7487   42.9003 H   0  0  0  0  0  0  0  0  0  0  0  0
   56.3826   33.6978   44.7791 H   0  0  0  0  0  0  0  0  0  0  0  0
   58.1429   35.1697   45.7509 H   0  0  0  0  0  0  0  0  0  0  0  0
   60.3950   35.3790   46.7640 H   0  0  0  0  0  0  0  0  0  0  0  0
   62.9093   34.0205   45.9287 H   0  0  0  0  0  0  0  0  0  0  0  0
   64.9063   33.1520   47.1276 H   0  0  0  0  0  0  0  0  0  0  0  0
   62.5379   32.6628   50.7173 H   0  0  0  0  0  0  0  0  0  0  0  0
   60.9200   32.7030   51.8560 H   0  0  0  0  0  0  0  0  0  0  0  0
   58.6900   33.7230   54.5340 H   0  0  0  0  0  0  0  0  0  0  0  0
   59.7700   32.3850   54.0770 H   0  0  0  0  0  0  0  0  0  0  0  0
   58.5210   35.3690   51.2210 H   0  0  0  0  0  0  0  0  0  0  0  0
   57.8720   35.3410   52.8930 H   0  0  0  0  0  0  0  0  0  0  0  0
   60.4743   31.6789   46.8145 H   0  0  0  0  0  0  0  0  0  0  0  0
   58.7160   30.2090   45.8439 H   0  0  0  0  0  0  0  0  0  0  0  0
  1  2  1  0
  2  3  1  0
  3  4  2  0
  4  5  1  0
  5  6  2  0
  6  7  1  0
  7  8  1  0
  8  9  2  0
  9 10  1  0
 10 11  2  0
 11 12  1  0
 12 13  2  0
 12 14  1  0
 11 15  1  0
 15 16  2  0
 16 17  1  0
 17 18  2  0
 17 19  2  0
 17 20  1  0
 20 21  2  3
 21 22  1  0
 21 23  1  0
  6 24  1  0
 24 25  2  0
 25  3  1  0
 16  8  1  0
  1 26  1  0
  1 27  1  0
  1 28  1  0
  4 29  1  0
  5 30  1  0
  7 31  1  0
  9 32  1  0
 10 33  1  0
 15 34  1  0
 20 35  1  0
 22 36  1  0
 22 37  1  0
 23 38  1  0
 23 39  1  0
 24 40  1  0
 25 41  1  0
M  CHG  3  12   1  14  -1  20   1
M  END
>  <UniqueID>  (4) 
4

>  <SMILES>  (4) 
COc1ccc(Nc2ccc([N+](=O)[O-])cc2S(=O)(=O)[NH+]=C(N)N)cc1

>  <Energy>  (4) 
50.812294463886985

>  <Genealogy>  (4) 
COc1ccc(Nc2ccc([N+](=O)[O-])cc2S(=O)(=O)[NH+]=C(N)N)cc1 (protonated)
COc1ccc(Nc2ccc([N+](=O)[O-])cc2S(=O)(=O)[NH+]=C(N)N)cc1 (3D coordinates assigned)
COc1ccc(Nc2ccc([N+](=O)[O-])cc2S(=O)(=O)[NH+]=C(N)N)cc1 (optimized conformer: 50.812294463886985 kcal/mol)

>  <smiles>  (4) 
COc1ccc(Nc2ccc([N+](=O)[O-])cc2S(=O)(=O)N=C(N)N)cc1

>  <score_type>  (4) 
oracle

>  <origin>  (4) 
adg

>  <m_score__min__energy>  (4) 
-5.7800000000000002

>  <m_primary>  (4) 
energy

$$$$
4:0
     RDKit          3D

 29 30  0  0  0  0  0  0  0  0999 V2000
   60.2652   35.4074   47.1322 H   0  0  0  0  0  0  0  0  0  0  0  0
   59.6650   34.7010   46.5400 C   0  0  0  0  0  0  0  0  0  0  0  0
   59.3400   33.4880   47.0560 N   0  0  0  0  0  0  0  0  0  0  0  0
   58.6120   32.5700   46.3600 C   0  0  0  0  0  0  0  0  0  0  0  0
   58.2560   31.3470   47.0130 N   0  0  0  0  0  0  0  0  0  0  0  0
   57.6790   30.6390   46.5070 H   0  0  0  0  0  0  0  0  0  0  0  0
   58.6620   31.0670   47.9310 H   0  0  0  0  0  0  0  0  0  0  0  0
   58.1860   32.8730   45.0430 C   0  0  0  0  0  0  0  0  0  0  0  0
   57.4700   31.9030   44.1840 C   0  0  0  0  0  0  0  0  0  0  0  0
   57.5550   31.9870   42.9290 O   0  0  0  0  0  0  0  0  0  0  0  0
   56.6770   30.8730   44.7950 N   0  0  0  0  0  0  0  0  0  0  0  0
   56.2310   29.7870   44.2280 C   0  0  0  0  0  0  0  0  0  0  0  0
   55.8980   29.8160   42.8410 N   0  0  0  0  0  0  0  0  0  0  0  0
   55.5430   28.9560   42.3660 H   0  0  0  0  0  0  0  0  0  0  0  0
   56.0070   30.6930   42.2850 H   0  0  0  0  0  0  0  0  0  0  0  0
   56.0660   28.5630   44.9570 N   0  0  0  0  0  0  0  0  0  0  0  0
   55.1480   28.0710   44.8750 H   0  0  0  0  0  0  0  0  0  0  0  0
   57.1650   27.8550   45.5540 C   0  0  0  0  0  0  0  0  0  0  0  0
   57.0460   26.6190   46.1880 C   0  0  0  0  0  0  0  0  0  0  0  0
   56.1203   26.0366   46.3057 H   0  0  0  0  0  0  0  0  0  0  0  0
   58.5710   26.1790   46.7400 S   0  0  0  0  0  0  0  0  0  0  0  0
   59.3870   27.5420   46.1930 C   0  0  0  0  0  0  0  0  0  0  0  0
   60.4618   27.7429   46.3134 H   0  0  0  0  0  0  0  0  0  0  0  0
   58.4690   28.3700   45.5630 C   0  0  0  0  0  0  0  0  0  0  0  0
   58.7384   29.3373   45.1139 H   0  0  0  0  0  0  0  0  0  0  0  0
   58.4980   34.1360   44.5150 C   0  0  0  0  0  0  0  0  0  0  0  0
   58.1555   34.4056   43.5050 H   0  0  0  0  0  0  0  0  0  0  0  0
   59.2390   35.0510   45.2620 C   0  0  0  0  0  0  0  0  0  0  0  0
   59.4843   36.0391   44.8456 H   0  0  0  0  0  0  0  0  0  0  0  0
  1  2  1  0
  2  3  2  0
  3  4  1  0
  4  5  1  0
  5  6  1  0
  5  7  1  0
  4  8  2  0
  8  9  1  0
  9 10  2  0
  9 11  1  0
 11 12  2  0
 12 13  1  0
 13 14  1  0
 13 15  1  0
 12 16  1  0
 16 17  1  0
 16 18  1  0
 18 19  2  0
 19 20  1  0
 19 21  1  0
 21 22  1  0
 22 23  1  0
 22 24  2  0
 24 25  1  0
  8 26  1  0
 26 27  1  0
 26 28  2  0
 28 29  1  0
 28  2  1  0
 24 18  1  0
M  END
>  <UniqueID>  (5) 
5

>  <SMILES>  (5) 
N/C(=N/C(=O)c1cccnc1N)Nc1ccsc1

>  <Energy>  (5) 
67.22791284085936

>  <Genealogy>  (5) 
N/C(=N/C(=O)c1cccnc1N)Nc1ccsc1 (cis-trans isomerization)
N/C(=N/C(=O)c1cccnc1N)Nc1ccsc1 (3D coordinates assigned)
N/C(=N/C(=O)c1cccnc1N)Nc1ccsc1 (optimized conformer: 67.22791284085936 kcal/mol)

>  <smiles>  (5) 
NC(=NC(=O)c1cccnc1N)Nc1ccsc1

>  <score_type>  (5) 
oracle

>  <origin>  (5) 
adg

>  <m_score__min__energy>  (5) 
-6.9299999999999997

>  <m_primary>  (5) 
energy

$$$$
5:0
     RDKit          3D

 26 28  0  0  1  0  0  0  0  0999 V2000
   57.7680   26.1530   43.7870 C   0  0  0  0  0  0  0  0  0  0  0  0
   57.5270   26.8790   45.0160 N   0  0  0  0  0  0  0  0  0  0  0  0
   57.2200   28.1150   44.9460 C   0  0  0  0  0  0  0  0  0  0  0  0
   56.0460   28.7520   44.8790 N   0  0  0  0  0  0  0  0  0  0  0  0
   56.0710   30.0280   44.8170 N   0  0  0  0  0  0  0  0  0  0  0  0
   57.0540   30.7650   44.8110 C   0  0  0  0  0  0  0  0  0  0  0  0
   57.4370   32.4970   44.7360 S   0  0  0  0  0  0  0  0  0  0  0  0
   58.8210   32.9240   45.7840 C   0  0  0  0  0  0  0  0  0  0  0  0
   59.9560   33.0740   45.7800 N   0  0  0  0  0  0  0  0  0  0  0  0
   60.7880   33.4090   46.7480 C   0  0  0  0  0  0  0  0  0  0  0  0
   62.1780   33.5840   46.7100 C   0  0  0  0  0  0  0  0  0  0  0  0
   62.8440   33.9370   47.8410 C   0  0  0  0  0  0  0  0  0  0  0  0
   62.2530   34.1480   49.0730 C   0  0  0  0  0  0  0  0  0  0  0  0
   62.9810   34.5200   50.2460 C   0  0  0  0  0  0  0  0  0  0  0  0
   63.5560   34.8110   51.2030 N   0  0  0  0  0  0  0  0  0  0  0  0
   60.8740   33.9760   49.1120 C   0  0  0  0  0  0  0  0  0  0  0  0
   60.1870   33.6110   47.9500 C   0  0  0  0  0  0  0  0  0  0  0  0
   58.4750   33.3130   47.6390 S   0  0  0  0  0  0  0  0  0  0  0  0
   58.4430   29.4750   44.9170 S   0  0  0  0  0  0  0  0  0  0  0  0
   58.1064   25.1335   44.0237 H   0  0  0  0  0  0  0  0  0  0  0  0
   56.8379   26.1040   43.2017 H   0  0  0  0  0  0  0  0  0  0  0  0
   58.5428   26.6699   43.2017 H   0  0  0  0  0  0  0  0  0  0  0  0
   55.1350   28.1870   44.8790 H   0  0  0  0  0  0  0  0  0  0  0  0
   62.7277   33.4363   45.7687 H   0  0  0  0  0  0  0  0  0  0  0  0
   63.9344   34.0643   47.7710 H   0  0  0  0  0  0  0  0  0  0  0  0
   60.3253   34.1265   50.0534 H   0  0  0  0  0  0  0  0  0  0  0  0
  1  2  1  0
  2  3  2  0
  3  4  1  0
  4  5  1  0
  5  6  2  0
  6  7  1  0
  7  8  1  0
  8  9  2  0
  9 10  1  0
 10 11  2  0
 11 12  1  0
 12 13  2  0
 13 14  1  0
 14 15  3  0
 13 16  1  0
 16 17  2  0
 17 18  1  0
  6 19  1  0
 19  3  1  0
 18  8  1  0
 17 10  1  0
  1 20  1  0
  1 21  1  0
  1 22  1  0
  4 23  1  0
 11 24  1  0
 12 25  1  0
 16 26  1  0
M  END
>  <smiles>  (6) 
CN=c1[nH]nc(Sc2nc3ccc(C#N)cc3s2)s1

>  <score_type>  (6) 
oracle

>  <origin>  (6) 
adg

>  <m_score__min__energy>  (6) 
-7.2800000000000002

>  <m_primary>  (6) 
energy

$$$$
6:0
     RDKit          3D

 63 67  0  0  1  0  0  0  0  0999 V2000
   57.7710   27.0710   42.9330 N   0  0  0  0  0  0  0  0  0  0  0  0
   58.1230   27.7380   43.9200 C   0  0  0  0  0  0  0  0  0  0  0  0
   58.2750   29.0900   43.7270 N   0  0  0  0  0  0  0  0  0  0  0  0
   58.6250   29.9240   44.7140 C   0  0  0  0  0  0  0  0  0  0  0  0
   58.8490   29.4780   45.9630 N   0  0  0  0  0  0  0  0  0  0  0  0
   58.7170   28.1620   46.2190 C   0  0  0  0  0  0  0  0  0  0  0  0
   58.3570   27.3050   45.2010 C   0  0  0  0  0  0  0  0  0  0  0  0
   58.3020   26.0590   45.7630 C   0  0  0  0  0  0  0  0  0  0  0  0
   57.9840   24.7570   45.2330 C   0  0  0  0  0  0  0  0  0  0  0  0
   58.7230   23.6150   45.3290 C   0  0  0  0  0  0  0  0  0  0  0  0
   58.3440   22.4140   44.7940 C   0  0  0  0  0  0  0  0  0  0  0  0
   57.1550   22.2920   44.1060 C   0  0  0  0  0  0  0  0  0  0  0  0
   56.7450   21.0950   43.5540 O   0  0  0  0  0  0  0  0  0  0  0  0
   56.3860   23.4400   43.9960 C   0  0  0  0  0  0  0  0  0  0  0  0
   56.7710   24.6500   44.5370 C   0  0  0  0  0  0  0  0  0  0  0  0
   58.6250   26.2290   47.0780 N   0  0  0  0  0  0  0  0  0  0  0  0
   58.8750   27.4920   47.3540 N   0  0  0  0  0  0  0  0  0  0  0  0
   59.2490   28.0610   48.6330 C   0  0  2  0  0  0  0  0  0  0  0  0
   58.6300   29.4340   48.7860 C   0  0  0  0  0  0  0  0  0  0  0  0
   59.0930   30.0280   50.1220 C   0  0  0  0  0  0  0  0  0  0  0  0
   60.5770   30.1570   50.2170 C   0  0  2  0  0  0  0  0  0  0  0  0
   61.0650   31.4430   50.6100 N   0  0  0  0  0  0  0  0  0  0  0  0
   61.6210   32.1230   49.4830 C   0  0  0  0  0  0  0  0  0  0  0  0
   60.5510   32.7170   48.5880 C   0  0  0  0  0  0  0  0  0  0  0  0
   60.4110   34.1940   48.7710 C   0  0  0  0  0  0  0  0  0  0  0  0
   59.2970   34.6890   47.8770 C   0  0  0  0  0  0  0  0  0  0  0  0
   58.6430   33.5800   47.0990 C   0  0  0  0  0  0  0  0  0  0  0  0
   59.6120   32.7400   46.3260 C   0  0  0  0  0  0  0  0  0  0  0  0
   60.7910   32.3050   47.1720 C   0  0  0  0  0  0  0  0  0  0  0  0
   61.1670   29.6440   48.9210 C   0  0  0  0  0  0  0  0  0  0  0  0
   60.7210   28.1840   48.8170 C   0  0  0  0  0  0  0  0  0  0  0  0
   56.9670   26.7060   42.5010 H   0  0  0  0  0  0  0  0  0  0  0  0
   58.1170   29.5010   42.7840 H   0  0  0  0  0  0  0  0  0  0  0  0
   58.7317   30.9975   44.4988 H   0  0  0  0  0  0  0  0  0  0  0  0
   59.6805   23.6621   45.8685 H   0  0  0  0  0  0  0  0  0  0  0  0
   58.9952   21.5356   44.9141 H   0  0  0  0  0  0  0  0  0  0  0  0
   57.3970   20.3140   43.6720 H   0  0  0  0  0  0  0  0  0  0  0  0
   55.4297   23.3844   43.4553 H   0  0  0  0  0  0  0  0  0  0  0  0
   56.1248   25.5327   44.4220 H   0  0  0  0  0  0  0  0  0  0  0  0
   58.8743   27.3661   49.3990 H   0  0  0  0  0  0  0  0  0  0  0  0
   58.9549   30.0822   47.9588 H   0  0  0  0  0  0  0  0  0  0  0  0
   57.5328   29.3581   48.7663 H   0  0  0  0  0  0  0  0  0  0  0  0
   58.6459   31.0265   50.2359 H   0  0  0  0  0  0  0  0  0  0  0  0
   58.7696   29.3415   50.9183 H   0  0  0  0  0  0  0  0  0  0  0  0
   60.9207   29.5387   51.0593 H   0  0  0  0  0  0  0  0  0  0  0  0
   61.6960   31.3990   51.4300 H   0  0  0  0  0  0  0  0  0  0  0  0
   62.2714   32.9335   49.8437 H   0  0  0  0  0  0  0  0  0  0  0  0
   62.1874   31.3889   48.8911 H   0  0  0  0  0  0  0  0  0  0  0  0
   59.5728   32.3112   48.8855 H   0  0  0  0  0  0  0  0  0  0  0  0
   60.1694   34.4158   49.8210 H   0  0  0  0  0  0  0  0  0  0  0  0
   61.3540   34.6956   48.5079 H   0  0  0  0  0  0  0  0  0  0  0  0
   58.5350   35.1779   48.5017 H   0  0  0  0  0  0  0  0  0  0  0  0
   59.7379   35.3891   47.1522 H   0  0  0  0  0  0  0  0  0  0  0  0
   58.1048   32.9302   47.8047 H   0  0  0  0  0  0  0  0  0  0  0  0
   57.9692   34.0513   46.3684 H   0  0  0  0  0  0  0  0  0  0  0  0
   59.0900   31.8444   45.9579 H   0  0  0  0  0  0  0  0  0  0  0  0
   59.9980   33.3474   45.4941 H   0  0  0  0  0  0  0  0  0  0  0  0
   60.8995   31.2116   47.1192 H   0  0  0  0  0  0  0  0  0  0  0  0
   61.7114   32.7772   46.7981 H   0  0  0  0  0  0  0  0  0  0  0  0
   60.7844   30.2243   48.0684 H   0  0  0  0  0  0  0  0  0  0  0  0
   62.2629   29.7374   48.9069 H   0  0  0  0  0  0  0  0  0  0  0  0
   61.2262   27.7190   47.9576 H   0  0  0  0  0  0  0  0  0  0  0  0
   60.9886   27.6798   49.7573 H   0  0  0  0  0  0  0  0  0  0  0  0
  1  2  2  3
  2  3  1  0
  3  4  1  0
  4  5  2  0
  5  6  1  0
  6  7  2  0
  7  8  1  0
  8  9  1  0
  9 10  2  0
 10 11  1  0
 11 12  2  0
 12 13  1  0
 12 14  1  0
 14 15  2  0
  8 16  2  0
 16 17  1  0
 17 18  1  0
 18 19  1  0
 19 20  1  0
 20 21  1  0
 21 22  1  0
 22 23  1  0
 23 24  1  0
 24 25  1  0
 25 26  1  0
 26 27  1  0
 27 28  1  0
 28 29  1  0
 21 30  1  0
 30 31  1  0
  7  2  1  0
 15  9  1  0
 31 18  1  0
 17  6  1  0
 29 24  1  0
  1 32  1  0
  3 33  1  0
  4 34  1  0
 10 35  1  0
 11 36  1  0
 13 37  1  0
 14 38  1  0
 15 39  1  0
 18 40  1  1
 19 41  1  0
 19 42  1  0
 20 43  1  0
 20 44  1  0
 21 45  1  1
 22 46  1  0
 23 47  1  0
 23 48  1  0
 24 49  1  0
 25 50  1  0
 25 51  1  0
 26 52  1  0
 26 53  1  0
 27 54  1  0
 27 55  1  0
 28 56  1  0
 28 57  1  0
 29 58  1  0
 29 59  1  0
 30 60  1  0
 30 61  1  0
 31 62  1  0
 31 63  1  0
M  END
>  <smiles>  (7) 
N=c1[nH]cnc2c1c(-c1ccc(O)cc1)nn2C1CCC(NCC2CCCCC2)CC1

>  <score_type>  (7) 
oracle

>  <origin>  (7) 
adg

>  <m_score__min__energy>  (7) 
-9.3399999999999999

>  <m_primary>  (7) 
energy

$$$$
7:0
     RDKit          3D

 31 33  0  0  0  0  0  0  0  0999 V2000
   55.5200   29.3510   42.6410 F   0  0  0  0  0  0  0  0  0  0  0  0
   56.2730   30.2650   43.3000 C   0  0  0  0  0  0  0  0  0  0  0  0
   57.0420   31.1910   42.6000 C   0  0  0  0  0  0  0  0  0  0  0  0
   57.7860   32.0960   43.2870 N   0  0  0  0  0  0  0  0  0  0  0  0
   57.7860   32.0990   44.6520 C   0  0  0  0  0  0  0  0  0  0  0  0
   58.5690   33.0510   45.3950 N   0  0  0  0  0  0  0  0  0  0  0  0
   58.7120   34.4530   45.0390 C   0  0  0  0  0  0  0  0  0  0  0  0
   59.7470   35.0260   45.9990 C   0  0  0  0  0  0  0  0  0  0  0  0
   59.8400   34.0180   47.1510 C   0  0  2  0  0  0  0  0  0  0  0  0
   61.2270   33.9110   47.7420 C   0  0  0  0  0  0  0  0  0  0  0  0
   62.3260   33.4790   46.9770 C   0  0  0  0  0  0  0  0  0  0  0  0
   63.5870   33.3990   47.5700 C   0  0  0  0  0  0  0  0  0  0  0  0
   63.7480   33.7460   48.9120 C   0  0  0  0  0  0  0  0  0  0  0  0
   62.6380   34.1700   49.6440 C   0  0  0  0  0  0  0  0  0  0  0  0
   61.4170   34.2420   49.0500 N   0  0  0  0  0  0  0  0  0  0  0  0
   59.3140   32.6940   46.5910 C   0  0  0  0  0  0  0  0  0  0  0  0
   57.0260   31.1840   45.3150 N   0  0  0  0  0  0  0  0  0  0  0  0
   56.2890   30.2900   44.6550 N   0  0  0  0  0  0  0  0  0  0  0  0
   57.0469   31.1896   41.5000 H   0  0  0  0  0  0  0  0  0  0  0  0
   58.3510   32.7870   42.7470 H   0  0  0  0  0  0  0  0  0  0  0  0
   59.0594   34.5501   43.9998 H   0  0  0  0  0  0  0  0  0  0  0  0
   57.7535   34.9876   45.1135 H   0  0  0  0  0  0  0  0  0  0  0  0
   60.7210   35.1281   45.4980 H   0  0  0  0  0  0  0  0  0  0  0  0
   59.4630   36.0273   46.3550 H   0  0  0  0  0  0  0  0  0  0  0  0
   59.2339   34.3467   48.0081 H   0  0  0  0  0  0  0  0  0  0  0  0
   62.1924   33.2064   45.9197 H   0  0  0  0  0  0  0  0  0  0  0  0
   64.4526   33.0629   46.9803 H   0  0  0  0  0  0  0  0  0  0  0  0
   64.7382   33.6860   49.3873 H   0  0  0  0  0  0  0  0  0  0  0  0
   62.7510   34.4463   50.7027 H   0  0  0  0  0  0  0  0  0  0  0  0
   60.1490   32.0237   46.3388 H   0  0  0  0  0  0  0  0  0  0  0  0
   58.6865   32.1611   47.3206 H   0  0  0  0  0  0  0  0  0  0  0  0
  1  2  1  0
  2  3  2  0
  3  4  1  0
  4  5  2  0
  5  6  1  0
  6  7  1  0
  7  8  1  0
  8  9  1  0
  9 10  1  0
 10 11  2  0
 11 12  1  0
 12 13  2  0
 13 14  1  0
 14 15  2  0
  9 16  1  0
  5 17  1  0
 17 18  2  0
 18  2  1  0
 16  6  1  0
 15 10  1  0
  3 19  1  0
  4 20  1  0
  7 21  1  0
  7 22  1  0
  8 23  1  0
  8 24  1  0
  9 25  1  1
 11 26  1  0
 12 27  1  0
 13 28  1  0
 14 29  1  0
 16 30  1  0
 16 31  1  0
M  CHG  1   4   1
M  END
>  <UniqueID>  (8) 
6

>  <SMILES>  (8) 
Fc1c[nH+]c(N2CC[C@H](c3ccccn3)C2)nn1

>  <Energy>  (8) 
36.46911488525514

>  <Genealogy>  (8) 
Fc1c[nH+]c(N2CCC(c3ccccn3)C2)nn1 (protonated)
Fc1c[nH+]c(N2CC[C@H](c3ccccn3)C2)nn1 (chirality)
Fc1c[nH+]c(N2CC[C@H](c3ccccn3)C2)nn1 (3D coordinates assigned)
Fc1c[nH+]c(N2CC[C@H](c3ccccn3)C2)nn1 (nonaromatic ring conformer: 36.46911488525514 kcal/mol)

>  <smiles>  (8) 
Fc1cnc(N2CCC(c3ccccn3)C2)nn1

>  <score_type>  (8) 
oracle

>  <origin>  (8) 
adg

>  <m_score__min__energy>  (8) 
-5.9000000000000004

>  <m_primary>  (8) 
energy

$$$$
8:0
     RDKit          3D

 36 38  0  0  0  0  0  0  0  0999 V2000
   59.2090   31.4810   49.5630 O   0  0  0  0  0  0  0  0  0  0  0  0
   59.7320   32.2800   48.7390 C   0  0  0  0  0  0  0  0  0  0  0  0
   60.0810   31.8020   47.4340 N   0  0  0  0  0  0  0  0  0  0  0  0
   61.3760   31.1270   47.2520 C   0  0  0  0  0  0  0  0  0  0  0  0
   62.4040   31.6210   48.2500 C   0  0  0  0  0  0  0  0  0  0  0  0
   62.5440   30.9450   49.4790 C   0  0  0  0  0  0  0  0  0  0  0  0
   61.7870   29.8560   49.7600 F   0  0  0  0  0  0  0  0  0  0  0  0
   63.4630   31.3920   50.4320 C   0  0  0  0  0  0  0  0  0  0  0  0
   64.2490   32.5150   50.1760 C   0  0  0  0  0  0  0  0  0  0  0  0
   64.1200   33.1970   48.9650 C   0  0  0  0  0  0  0  0  0  0  0  0
   63.2040   32.7620   48.0000 C   0  0  0  0  0  0  0  0  0  0  0  0
   63.1040   33.6780   46.5000 Cl  0  0  0  0  0  0  0  0  0  0  0  0
   59.3520   32.2920   46.2870 C   0  0  0  0  0  0  0  0  0  0  0  0
   58.7770   31.3620   45.4000 C   0  0  0  0  0  0  0  0  0  0  0  0
   58.0640   31.7860   44.2790 C   0  0  0  0  0  0  0  0  0  0  0  0
   57.9030   33.1440   44.0280 C   0  0  0  0  0  0  0  0  0  0  0  0
   58.4530   34.0860   44.8980 C   0  0  0  0  0  0  0  0  0  0  0  0
   59.1930   33.6840   46.0260 C   0  0  0  0  0  0  0  0  0  0  0  0
   59.7040   34.7840   46.9420 C   0  0  0  0  0  0  0  0  0  0  0  0
   59.2930   34.6320   48.4230 C   0  0  0  0  0  0  0  0  0  0  0  0
   60.0870   33.6180   49.1390 N   0  0  1  0  0  0  0  0  0  0  0  0
   59.9020   33.8260   50.8700 Cl  0  0  0  0  0  0  0  0  0  0  0  0
   61.2371   30.0443   47.3879 H   0  0  0  0  0  0  0  0  0  0  0  0
   61.7426   31.3502   46.2392 H   0  0  0  0  0  0  0  0  0  0  0  0
   63.5667   30.8563   51.3871 H   0  0  0  0  0  0  0  0  0  0  0  0
   64.9712   32.8636   50.9289 H   0  0  0  0  0  0  0  0  0  0  0  0
   64.7424   34.0823   48.7676 H   0  0  0  0  0  0  0  0  0  0  0  0
   58.8918   30.2854   45.5940 H   0  0  0  0  0  0  0  0  0  0  0  0
   57.6284   31.0451   43.5925 H   0  0  0  0  0  0  0  0  0  0  0  0
   57.3413   33.4762   43.1424 H   0  0  0  0  0  0  0  0  0  0  0  0
   58.3063   35.1580   44.6996 H   0  0  0  0  0  0  0  0  0  0  0  0
   60.8028   34.7905   46.8901 H   0  0  0  0  0  0  0  0  0  0  0  0
   59.2490   35.7206   46.5874 H   0  0  0  0  0  0  0  0  0  0  0  0
   59.4271   35.6013   48.9254 H   0  0  0  0  0  0  0  0  0  0  0  0
   58.2438   34.3020   48.4414 H   0  0  0  0  0  0  0  0  0  0  0  0
   61.0960   33.7650   48.9120 H   0  0  0  0  0  0  0  0  0  0  0  0
  1  2  2  0
  2  3  1  0
  3  4  1  0
  4  5  1  0
  5  6  2  0
  6  7  1  0
  6  8  1  0
  8  9  2  0
  9 10  1  0
 10 11  2  0
 11 12  1  0
  3 13  1  0
 13 14  2  0
 14 15  1  0
 15 16  2  0
 16 17  1  0
 17 18  2  0
 18 19  1  0
 19 20  1  0
 20 21  1  0
 21 22  1  0
 21  2  1  0
 11  5  1  0
 18 13  1  0
  4 23  1  0
  4 24  1  0
  8 25  1  0
  9 26  1  0
 10 27  1  0
 14 28  1  0
 15 29  1  0
 16 30  1  0
 17 31  1  0
 19 32  1  0
 19 33  1  0
 20 34  1  0
 20 35  1  0
 21 36  1  1
M  CHG  1  21   1
M  END
>  <UniqueID>  (9) 
7

>  <SMILES>  (9) 
O=C1N(Cc2c(F)cccc2Cl)c2ccccc2CC[N@H+]1Cl

>  <Energy>  (9) 
61.544975344522186

>  <Genealogy>  (9) 
O=C1N(Cc2c(F)cccc2Cl)c2ccccc2CC[NH+]1Cl (protonated)
O=C1N(Cc2c(F)cccc2Cl)c2ccccc2CC[N@H+]1Cl (chirality)
O=C1N(Cc2c(F)cccc2Cl)c2ccccc2CC[N@H+]1Cl (3D coordinates assigned)
O=C1N(Cc2c(F)cccc2Cl)c2ccccc2CC[N@H+]1Cl (nonaromatic ring conformer: 61.544975344522186 kcal/mol)

>  <smiles>  (9) 
O=C1N(Cl)CCc2ccccc2N1Cc1c(F)cccc1Cl

>  <score_type>  (9) 
oracle

>  <origin>  (9) 
adg

>  <m_score__min__energy>  (9) 
-4.0899999999999999

>  <m_primary>  (9) 
energy

$$$$
9:0
     RDKit          3D

 23 24  0  0  0  0  0  0  0  0999 V2000
   58.1380   32.4200   42.4510 C   0  0  0  0  0  0  0  0  0  0  0  0
   57.5040   32.4390   43.7720 N   0  0  0  0  0  0  0  0  0  0  0  0
   57.3490   33.7130   44.4880 C   0  0  0  0  0  0  0  0  0  0  0  0
   58.3540   33.8100   45.5930 C   0  0  0  0  0  0  0  0  0  0  0  0
   59.6460   34.3070   45.4800 C   0  0  0  0  0  0  0  0  0  0  0  0
   60.3670   34.2450   46.6780 C   0  0  0  0  0  0  0  0  0  0  0  0
   59.6500   33.6920   47.7320 C   0  0  0  0  0  0  0  0  0  0  0  0
   58.1180   33.2800   47.1720 S   0  0  0  0  0  0  0  0  0  0  0  0
   57.0700   31.2270   44.3590 N   0  0  0  0  0  0  0  0  0  0  0  0
   57.7000   30.4950   45.2960 C   0  0  0  0  0  0  0  0  0  0  0  0
   56.9810   29.4020   45.6110 N   0  0  0  0  0  0  0  0  0  0  0  0
   55.8810   29.4290   44.8700 N   0  0  0  0  0  0  0  0  0  0  0  0
   55.9390   30.5400   44.1100 C   0  0  0  0  0  0  0  0  0  0  0  0
   59.2311   32.3872   42.5694 H   0  0  0  0  0  0  0  0  0  0  0  0
   57.8025   31.5315   41.8960 H   0  0  0  0  0  0  0  0  0  0  0  0
   57.8563   33.3270   41.8960 H   0  0  0  0  0  0  0  0  0  0  0  0
   57.5001   34.5456   43.7852 H   0  0  0  0  0  0  0  0  0  0  0  0
   56.3374   33.7630   44.9172 H   0  0  0  0  0  0  0  0  0  0  0  0
   60.0606   34.7087   44.5437 H   0  0  0  0  0  0  0  0  0  0  0  0
   61.4034   34.6005   46.7759 H   0  0  0  0  0  0  0  0  0  0  0  0
   60.0208   33.5482   48.7576 H   0  0  0  0  0  0  0  0  0  0  0  0
   58.6707   30.7547   45.7436 H   0  0  0  0  0  0  0  0  0  0  0  0
   55.1687   30.8439   43.3860 H   0  0  0  0  0  0  0  0  0  0  0  0
  1  2  1  0
  2  3  1  0
  3  4  1  0
  4  5  2  0
  5  6  1  0
  6  7  2  0
  7  8  1  0
  2  9  1  0
  9 10  1  0
 10 11  2  0
 11 12  1  0
 12 13  2  0
  8  4  1  0
 13  9  1  0
  1 14  1  0
  1 15  1  0
  1 16  1  0
  3 17  1  0
  3 18  1  0
  5 19  1  0
  6 20  1  0
  7 21  1  0
 10 22  1  0
 13 23  1  0
M  END
>  <UniqueID>  (10) 
8

>  <SMILES>  (10) 
CN(Cc1cccs1)n1cnnc1

>  <Energy>  (10) 
81.68225275038314

>  <Genealogy>  (10) 
CN(Cc1cccs1)n1cnnc1 (3D coordinates assigned)
CN(Cc1cccs1)n1cnnc1 (optimized conformer: 81.68225275038314 kcal/mol)

>  <smiles>  (10) 
CN(Cc1cccs1)n1cnnc1

>  <score_type>  (10) 
oracle

>  <origin>  (10) 
adg

>  <m_score__min__energy>  (10) 
-5.0199999999999996

>  <m_primary>  (10) 
energy

$$$$
10:0
     RDKit          3D

 33 35  0  0  0  0  0  0  0  0999 V2000
   55.3660   29.2350   44.7410 N   0  0  0  0  0  0  0  0  0  0  0  0
   56.5010   29.5870   43.9380 C   0  0  0  0  0  0  0  0  0  0  0  0
   57.2270   28.5450   43.2790 N   0  0  0  0  0  0  0  0  0  0  0  0
   56.8540   30.8330   43.7560 N   0  0  0  0  0  0  0  0  0  0  0  0
   57.5590   31.6350   44.7160 C   0  0  0  0  0  0  0  0  0  0  0  0
   57.0060   32.8290   45.2050 C   0  0  0  0  0  0  0  0  0  0  0  0
   57.6820   33.5720   46.1770 C   0  0  0  0  0  0  0  0  0  0  0  0
   58.9070   33.1210   46.6870 C   0  0  0  0  0  0  0  0  0  0  0  0
   59.4550   31.9100   46.2240 C   0  0  0  0  0  0  0  0  0  0  0  0
   58.7680   31.1690   45.2500 C   0  0  0  0  0  0  0  0  0  0  0  0
   60.7600   31.3740   46.7620 C   0  0  0  0  0  0  0  0  0  0  0  0
   61.4350   32.2590   47.7830 C   0  0  0  0  0  0  0  0  0  0  0  0
   62.6700   31.8610   48.3200 C   0  0  0  0  0  0  0  0  0  0  0  0
   63.3160   32.6530   49.2730 C   0  0  0  0  0  0  0  0  0  0  0  0
   62.7340   33.8490   49.6990 C   0  0  0  0  0  0  0  0  0  0  0  0
   61.5060   34.2560   49.1730 C   0  0  0  0  0  0  0  0  0  0  0  0
   60.8500   33.4660   48.2150 C   0  0  0  0  0  0  0  0  0  0  0  0
   59.5910   33.8920   47.6800 N   0  0  0  0  0  0  0  0  0  0  0  0
   54.6690   29.9410   45.0620 H   0  0  0  0  0  0  0  0  0  0  0  0
   55.1560   28.2290   44.9300 H   0  0  0  0  0  0  0  0  0  0  0  0
   58.0530   28.7610   42.6770 H   0  0  0  0  0  0  0  0  0  0  0  0
   56.9440   27.5470   43.3960 H   0  0  0  0  0  0  0  0  0  0  0  0
   56.5970   31.3000   42.8570 H   0  0  0  0  0  0  0  0  0  0  0  0
   56.0370   33.1813   44.8218 H   0  0  0  0  0  0  0  0  0  0  0  0
   57.2505   34.5152   46.5434 H   0  0  0  0  0  0  0  0  0  0  0  0
   59.1832   30.2117   44.9018 H   0  0  0  0  0  0  0  0  0  0  0  0
   60.5620   30.3992   47.2316 H   0  0  0  0  0  0  0  0  0  0  0  0
   61.4461   31.3112   45.9045 H   0  0  0  0  0  0  0  0  0  0  0  0
   63.1320   30.9195   47.9882 H   0  0  0  0  0  0  0  0  0  0  0  0
   64.2836   32.3342   49.6879 H   0  0  0  0  0  0  0  0  0  0  0  0
   63.2434   34.4711   50.4497 H   0  0  0  0  0  0  0  0  0  0  0  0
   61.0509   35.1989   49.5103 H   0  0  0  0  0  0  0  0  0  0  0  0
   59.1680   34.7880   48.0160 H   0  0  0  0  0  0  0  0  0  0  0  0
  1  2  1  0
  2  3  1  0
  2  4  2  3
  4  5  1  0
  5  6  2  0
  6  7  1  0
  7  8  2  0
  8  9  1  0
  9 10  2  0
  9 11  1  0
 11 12  1  0
 12 13  2  0
 13 14  1  0
 14 15  2  0
 15 16  1  0
 16 17  2  0
 17 18  1  0
 10  5  1  0
 17 12  1  0
 18  8  1  0
  1 19  1  0
  1 20  1  0
  3 21  1  0
  3 22  1  0
  4 23  1  0
  6 24  1  0
  7 25  1  0
 10 26  1  0
 11 27  1  0
 11 28  1  0
 13 29  1  0
 14 30  1  0
 15 31  1  0
 16 32  1  0
 18 33  1  0
M  CHG  1   4   1
M  END
>  <UniqueID>  (11) 
9

>  <SMILES>  (11) 
NC(N)=[NH+]c1ccc2c(c1)Cc1ccccc1N2

>  <Energy>  (11) 
42.97097177834485

>  <Genealogy>  (11) 
NC(N)=[NH+]c1ccc2c(c1)Cc1ccccc1N2 (protonated)
NC(N)=[NH+]c1ccc2c(c1)Cc1ccccc1N2 (3D coordinates assigned)
NC(N)=[NH+]c1ccc2c(c1)Cc1ccccc1N2 (nonaromatic ring conformer: 42.97097177834485 kcal/mol)

>  <smiles>  (11) 
NC(N)=Nc1ccc2c(c1)Cc1ccccc1N2

>  <score_type>  (11) 
oracle

>  <origin>  (11) 
adg

>  <m_score__min__energy>  (11) 
-6.3200000000000003

>  <m_primary>  (11) 
energy

$$$$
11:0
     RDKit          3D

 65 68  0  0  0  0  0  0  0  0999 V2000
   65.0450   30.0120   51.6850 C   0  0  0  0  0  0  0  0  0  0  0  0
   64.0740   30.2340   52.8450 C   0  0  0  0  0  0  0  0  0  0  0  0
   63.0850   31.3830   52.5830 C   0  0  0  0  0  0  0  0  0  0  0  0
   62.2910   31.1750   51.3100 C   0  0  0  0  0  0  0  0  0  0  0  0
   61.8310   29.9170   51.0810 N   0  0  0  0  0  0  0  0  0  0  0  0
   61.0530   29.6160   50.0180 C   0  0  0  0  0  0  0  0  0  0  0  0
   60.6210   28.3030   49.8180 C   0  0  0  0  0  0  0  0  0  0  0  0
   59.7970   27.9920   48.7340 C   0  0  0  0  0  0  0  0  0  0  0  0
   59.3700   29.0010   47.8510 C   0  0  0  0  0  0  0  0  0  0  0  0
   58.5150   28.7180   46.7280 N   0  0  0  0  0  0  0  0  0  0  0  0
   58.2210   27.4040   46.2250 C   0  0  0  0  0  0  0  0  0  0  0  0
   58.5310   26.3750   46.8830 O   0  0  0  0  0  0  0  0  0  0  0  0
   57.4490   27.2480   44.9470 C   0  0  0  0  0  0  0  0  0  0  0  0
   58.1000   28.0250   43.7960 C   0  0  0  0  0  0  0  0  0  0  0  0
   58.3160   29.4260   44.1460 N   0  0  0  0  0  0  0  0  0  0  0  0
   57.3100   30.4140   44.4150 C   0  0  0  0  0  0  0  0  0  0  0  0
   56.2850   30.0610   45.0570 O   0  0  0  0  0  0  0  0  0  0  0  0
   57.3900   31.8210   43.8800 C   0  0  0  0  0  0  0  0  0  0  0  0
   57.9720   32.7560   44.9090 C   0  0  0  0  0  0  0  0  0  0  0  0
   57.6860   32.5800   46.2720 C   0  0  0  0  0  0  0  0  0  0  0  0
   58.1930   33.4740   47.2190 C   0  0  0  0  0  0  0  0  0  0  0  0
   58.9870   34.5490   46.8130 C   0  0  0  0  0  0  0  0  0  0  0  0
   59.2690   34.7350   45.4570 C   0  0  0  0  0  0  0  0  0  0  0  0
   58.7640   33.8450   44.5070 C   0  0  0  0  0  0  0  0  0  0  0  0
   59.8350   30.3130   48.0410 C   0  0  0  0  0  0  0  0  0  0  0  0
   60.6800   30.6280   49.1240 C   0  0  0  0  0  0  0  0  0  0  0  0
   61.1690   31.9260   49.3440 C   0  0  0  0  0  0  0  0  0  0  0  0
   60.8530   32.8470   48.5390 O   0  0  0  0  0  0  0  0  0  0  0  0
   61.9900   32.1930   50.4210 N   0  0  0  0  0  0  0  0  0  0  0  0
   62.5540   33.5540   50.5820 C   0  0  0  0  0  0  0  0  0  0  0  0
   64.0580   33.5280   50.6610 C   0  0  0  0  0  0  0  0  0  0  0  0
   64.8030   32.7710   49.7410 C   0  0  0  0  0  0  0  0  0  0  0  0
   66.1980   32.7420   49.8190 C   0  0  0  0  0  0  0  0  0  0  0  0
   66.8600   33.4790   50.8050 C   0  0  0  0  0  0  0  0  0  0  0  0
   68.6090   33.4360   50.9050 Cl  0  0  0  0  0  0  0  0  0  0  0  0
   66.1270   34.2540   51.7070 C   0  0  0  0  0  0  0  0  0  0  0  0
   64.7320   34.2840   51.6330 C   0  0  0  0  0  0  0  0  0  0  0  0
   66.0449   29.7834   52.0824 H   0  0  0  0  0  0  0  0  0  0  0  0
   64.6942   29.1709   51.0690 H   0  0  0  0  0  0  0  0  0  0  0  0
   65.0945   30.9220   51.0690 H   0  0  0  0  0  0  0  0  0  0  0  0
   63.5023   29.3083   53.0069 H   0  0  0  0  0  0  0  0  0  0  0  0
   64.6702   30.5052   53.7287 H   0  0  0  0  0  0  0  0  0  0  0  0
   62.3860   31.4488   53.4298 H   0  0  0  0  0  0  0  0  0  0  0  0
   63.6663   32.3101   52.4709 H   0  0  0  0  0  0  0  0  0  0  0  0
   60.9306   27.5115   50.5163 H   0  0  0  0  0  0  0  0  0  0  0  0
   59.4798   26.9517   48.5695 H   0  0  0  0  0  0  0  0  0  0  0  0
   58.0080   29.5200   46.2920 H   0  0  0  0  0  0  0  0  0  0  0  0
   57.4107   26.1813   44.6810 H   0  0  0  0  0  0  0  0  0  0  0  0
   56.4373   27.6500   45.1048 H   0  0  0  0  0  0  0  0  0  0  0  0
   59.0695   27.5634   43.5574 H   0  0  0  0  0  0  0  0  0  0  0  0
   57.4226   27.9878   42.9301 H   0  0  0  0  0  0  0  0  0  0  0  0
   58.0279   31.8297   42.9839 H   0  0  0  0  0  0  0  0  0  0  0  0
   56.3736   32.1607   43.6318 H   0  0  0  0  0  0  0  0  0  0  0  0
   57.0604   31.7352   46.5959 H   0  0  0  0  0  0  0  0  0  0  0  0
   57.9664   33.3308   48.2858 H   0  0  0  0  0  0  0  0  0  0  0  0
   59.3900   35.2486   47.5600 H   0  0  0  0  0  0  0  0  0  0  0  0
   59.8903   35.5846   45.1373 H   0  0  0  0  0  0  0  0  0  0  0  0
   58.9868   33.9968   43.4405 H   0  0  0  0  0  0  0  0  0  0  0  0
   59.5362   31.1033   47.3366 H   0  0  0  0  0  0  0  0  0  0  0  0
   62.2528   34.1688   49.7210 H   0  0  0  0  0  0  0  0  0  0  0  0
   62.1685   33.9760   51.5218 H   0  0  0  0  0  0  0  0  0  0  0  0
   64.2862   32.1990   48.9563 H   0  0  0  0  0  0  0  0  0  0  0  0
   66.7758   32.1384   49.1035 H   0  0  0  0  0  0  0  0  0  0  0  0
   66.6488   34.8416   52.4767 H   0  0  0  0  0  0  0  0  0  0  0  0
   64.1594   34.9028   52.3396 H   0  0  0  0  0  0  0  0  0  0  0  0
  1  2  1  0
  2  3  1  0
  3  4  1  0
  4  5  2  0
  5  6  1  0
  6  7  2  0
  7  8  1  0
  8  9  2  0
  9 10  1  0
 10 11  1  0
 11 12  2  0
 11 13  1  0
 13 14  1  0
 14 15  1  0
 15 16  1  0
 16 17  2  0
 16 18  1  0
 18 19  1  0
 19 20  2  0
 20 21  1  0
 21 22  2  0
 22 23  1  0
 23 24  2  0
  9 25  1  0
 25 26  2  0
 26 27  1  0
 27 28  2  0
 27 29  1  0
 29 30  1  0
 30 31  1  0
 31 32  2  0
 32 33  1  0
 33 34  2  0
 34 35  1  0
 34 36  1  0
 36 37  2  0
 29  4  1  0
 37 31  1  0
 26  6  1  0
 24 19  1  0
  1 38  1  0
  1 39  1  0
  1 40  1  0
  2 41  1  0
  2 42  1  0
  3 43  1  0
  3 44  1  0
  7 45  1  0
  8 46  1  0
 10 47  1  0
 13 48  1  0
 13 49  1  0
 14 50  1  0
 14 51  1  0
 18 52  1  0
 18 53  1  0
 20 54  1  0
 21 55  1  0
 22 56  1  0
 23 57  1  0
 24 58  1  0
 25 59  1  0
 30 60  1  0
 30 61  1  0
 32 62  1  0
 33 63  1  0
 36 64  1  0
 37 65  1  0
M  CHG  1  15  -1
M  END
>  <UniqueID>  (12) 
10

>  <SMILES>  (12) 
CCCc1nc2ccc(NC(=O)CC[N-]C(=O)Cc3ccccc3)cc2c(=O)n1Cc1ccc(Cl)cc1

>  <Energy>  (12) 
72.16513921850938

>  <Genealogy>  (12) 
CCCc1nc2ccc(NC(=O)CC[N-]C(=O)Cc3ccccc3)cc2c(=O)n1Cc1ccc(Cl)cc1 (protonated)
CCCc1nc2ccc(NC(=O)CC[N-]C(=O)Cc3ccccc3)cc2c(=O)n1Cc1ccc(Cl)cc1 (3D coordinates assigned)
CCCc1nc2ccc(NC(=O)CC[N-]C(=O)Cc3ccccc3)cc2c(=O)n1Cc1ccc(Cl)cc1 (optimized conformer: 72.16513921850938 kcal/mol)

>  <smiles>  (12) 
CCCc1nc2ccc(NC(=O)CCNC(=O)Cc3ccccc3)cc2c(=O)n1Cc1ccc(Cl)cc1

>  <score_type>  (12) 
oracle

>  <origin>  (12) 
adg

>  <m_score__min__energy>  (12) 
-10.369999999999999

>  <m_primary>  (12) 
energy

$$$$
12:0
     RDKit          3D

 42 45  0  0  0  0  0  0  0  0999 V2000
   62.6390   33.4440   47.1330 C   0  0  0  0  0  0  0  0  0  0  0  0
   62.8550   32.1160   47.5050 C   0  0  0  0  0  0  0  0  0  0  0  0
   61.8050   31.1930   47.4620 C   0  0  0  0  0  0  0  0  0  0  0  0
   60.5210   31.5960   47.0500 C   0  0  0  0  0  0  0  0  0  0  0  0
   60.3050   32.9470   46.7180 C   0  0  0  0  0  0  0  0  0  0  0  0
   61.3640   33.8610   46.7410 C   0  0  0  0  0  0  0  0  0  0  0  0
   58.6390   33.5200   46.3940 S   0  0  0  0  0  0  0  0  0  0  0  0
   58.2540   32.1420   45.3150 C   0  0  0  0  0  0  0  0  0  0  0  0
   57.5640   32.3660   44.1190 C   0  0  0  0  0  0  0  0  0  0  0  0
   57.1510   31.2840   43.3380 C   0  0  0  0  0  0  0  0  0  0  0  0
   57.4270   29.9790   43.7510 C   0  0  0  0  0  0  0  0  0  0  0  0
   58.1420   29.7490   44.9300 C   0  0  0  0  0  0  0  0  0  0  0  0
   58.5740   30.8310   45.7200 C   0  0  0  0  0  0  0  0  0  0  0  0
   59.4600   30.6330   46.8470 N   0  0  0  0  0  0  0  0  0  0  0  0
   59.2320   29.5540   47.8210 C   0  0  0  0  0  0  0  0  0  0  0  0
   60.3500   28.4920   47.7810 C   0  0  0  0  0  0  0  0  0  0  0  0
   60.1540   27.5140   46.6170 C   0  0  0  0  0  0  0  0  0  0  0  0
   59.3760   26.3510   47.0470 N   0  0  0  0  0  0  0  0  0  0  0  0
   58.1240   26.0940   46.7880 C   0  0  0  0  0  0  0  0  0  0  0  0
   57.2530   27.0410   46.2090 C   0  0  0  0  0  0  0  0  0  0  0  0
   55.9120   26.7050   45.9980 C   0  0  0  0  0  0  0  0  0  0  0  0
   55.4550   25.4710   46.3380 N   0  0  0  0  0  0  0  0  0  0  0  0
   56.2750   24.5340   46.8830 C   0  0  0  0  0  0  0  0  0  0  0  0
   57.6200   24.8300   47.1170 C   0  0  0  0  0  0  0  0  0  0  0  0
   63.4721   34.1621   47.1484 H   0  0  0  0  0  0  0  0  0  0  0  0
   63.8544   31.7943   47.8331 H   0  0  0  0  0  0  0  0  0  0  0  0
   61.9836   30.1470   47.7516 H   0  0  0  0  0  0  0  0  0  0  0  0
   61.1930   34.9081   46.4505 H   0  0  0  0  0  0  0  0  0  0  0  0
   57.3467   33.3940   43.7936 H   0  0  0  0  0  0  0  0  0  0  0  0
   56.6083   31.4600   42.3975 H   0  0  0  0  0  0  0  0  0  0  0  0
   57.0803   29.1283   43.1460 H   0  0  0  0  0  0  0  0  0  0  0  0
   58.3679   28.7185   45.2416 H   0  0  0  0  0  0  0  0  0  0  0  0
   59.1922   29.9895   48.8303 H   0  0  0  0  0  0  0  0  0  0  0  0
   58.2843   29.0588   47.5630 H   0  0  0  0  0  0  0  0  0  0  0  0
   61.3196   28.9979   47.6634 H   0  0  0  0  0  0  0  0  0  0  0  0
   60.3177   27.9212   48.7207 H   0  0  0  0  0  0  0  0  0  0  0  0
   59.6205   28.0246   45.8017 H   0  0  0  0  0  0  0  0  0  0  0  0
   61.1406   27.1724   46.2707 H   0  0  0  0  0  0  0  0  0  0  0  0
   57.6260   28.0363   45.9256 H   0  0  0  0  0  0  0  0  0  0  0  0
   55.2251   27.4415   45.5556 H   0  0  0  0  0  0  0  0  0  0  0  0
   55.8787   23.5406   47.1403 H   0  0  0  0  0  0  0  0  0  0  0  0
   58.2822   24.0710   47.5591 H   0  0  0  0  0  0  0  0  0  0  0  0
  1  2  2  0
  2  3  1  0
  3  4  2  0
  4  5  1  0
  5  6  2  0
  5  7  1  0
  7  8  1  0
  8  9  2  0
  9 10  1  0
 10 11  2  0
 11 12  1  0
 12 13  2  0
 13 14  1  0
 14 15  1  0
 15 16  1  0
 16 17  1  0
 17 18  1  0
 18 19  2  3
 19 20  1  0
 20 21  2  0
 21 22  1  0
 22 23  1  0
 23 24  2  0
  6  1  1  0
 13  8  1  0
 24 19  1  0
 14  4  1  0
  1 25  1  0
  2 26  1  0
  3 27  1  0
  6 28  1  0
  9 29  1  0
 10 30  1  0
 11 31  1  0
 12 32  1  0
 15 33  1  0
 15 34  1  0
 16 35  1  0
 16 36  1  0
 17 37  1  0
 17 38  1  0
 20 39  1  0
 21 40  1  0
 23 41  1  0
 24 42  1  0
M  CHG  1  22  -1
M  END
>  <UniqueID>  (13) 
11

>  <SMILES>  (13) 
c1ccc2c(c1)Sc1ccccc1N2CCCN=c1cc[n-]cc1

>  <Energy>  (13) 
66.5043335394998

>  <Genealogy>  (13) 
c1ccc2c(c1)Sc1ccccc1N2CCCN=c1cc[n-]cc1 (protonated)
c1ccc2c(c1)Sc1ccccc1N2CCCN=c1cc[n-]cc1 (3D coordinates assigned)
c1ccc2c(c1)Sc1ccccc1N2CCCN=c1cc[n-]cc1 (nonaromatic ring conformer: 66.5043335394998 kcal/mol)

>  <smiles>  (13) 
c1ccc2c(c1)Sc1ccccc1N2CCCN=c1cc[nH]cc1

>  <score_type>  (13) 
oracle

>  <origin>  (13) 
adg

>  <m_score__min__energy>  (13) 
-9.7200000000000006

>  <m_primary>  (13) 
energy

$$$$
13:0
     RDKit          3D

 39 40  0  0  0  0  0  0  0  0999 V2000
   60.4188   35.3981   47.2892 H   0  0  0  0  0  0  0  0  0  0  0  0
   60.5690   34.3180   47.1450 C   0  0  0  0  0  0  0  0  0  0  0  0
   61.7350   33.7930   47.5690 C   0  0  0  0  0  0  0  0  0  0  0  0
   62.8640   33.8310   46.6720 C   0  0  0  0  0  0  0  0  0  0  0  0
   63.7710   33.8610   45.9530 N   0  0  0  0  0  0  0  0  0  0  0  0
   61.9160   33.1400   48.8930 C   0  0  0  0  0  0  0  0  0  0  0  0
   62.6200   33.9890   50.1070 S   0  0  0  0  0  0  0  0  0  0  0  0
   61.4240   31.8180   49.1730 N   0  0  0  0  0  0  0  0  0  0  0  0
   61.2010   31.5740   50.1630 H   0  0  0  0  0  0  0  0  0  0  0  0
   61.2220   30.8090   48.1740 C   0  0  0  0  0  0  0  0  0  0  0  0
   61.8260   30.8840   47.0690 O   0  0  0  0  0  0  0  0  0  0  0  0
   60.2910   29.7470   48.4280 N   0  0  0  0  0  0  0  0  0  0  0  0
   59.7000   29.8250   49.2880 H   0  0  0  0  0  0  0  0  0  0  0  0
   59.9400   28.7410   47.4650 C   0  0  0  0  0  0  0  0  0  0  0  0
   59.7310   29.0610   46.1110 C   0  0  0  0  0  0  0  0  0  0  0  0
   59.8285   30.1033   45.7733 H   0  0  0  0  0  0  0  0  0  0  0  0
   59.4000   28.0600   45.1930 C   0  0  0  0  0  0  0  0  0  0  0  0
   59.2274   28.3179   44.1377 H   0  0  0  0  0  0  0  0  0  0  0  0
   59.2880   26.7320   45.6140 C   0  0  0  0  0  0  0  0  0  0  0  0
   59.0210   25.9467   44.8915 H   0  0  0  0  0  0  0  0  0  0  0  0
   59.5150   26.4020   46.9520 C   0  0  0  0  0  0  0  0  0  0  0  0
   59.4309   25.3561   47.2820 H   0  0  0  0  0  0  0  0  0  0  0  0
   59.8490   27.4000   47.8720 C   0  0  0  0  0  0  0  0  0  0  0  0
   60.0418   27.1332   48.9216 H   0  0  0  0  0  0  0  0  0  0  0  0
   59.4740   33.5590   46.5010 C   0  0  0  0  0  0  0  0  0  0  0  0
   58.8020   32.5210   47.1680 C   0  0  0  0  0  0  0  0  0  0  0  0
   59.0690   32.2742   48.2062 H   0  0  0  0  0  0  0  0  0  0  0  0
   57.7950   31.8000   46.5180 C   0  0  0  0  0  0  0  0  0  0  0  0
   57.2851   30.9779   47.0416 H   0  0  0  0  0  0  0  0  0  0  0  0
   57.4310   32.1220   45.1960 C   0  0  0  0  0  0  0  0  0  0  0  0
   56.4410   31.4180   44.4960 O   0  0  0  0  0  0  0  0  0  0  0  0
   56.7040   30.4770   43.4610 C   0  0  0  0  0  0  0  0  0  0  0  0
   56.9747   29.5083   43.9063 H   0  0  0  0  0  0  0  0  0  0  0  0
   55.8053   30.3560   42.8384 H   0  0  0  0  0  0  0  0  0  0  0  0
   57.5353   30.8395   42.8384 H   0  0  0  0  0  0  0  0  0  0  0  0
   58.0750   33.1830   44.5510 C   0  0  0  0  0  0  0  0  0  0  0  0
   57.7865   33.4530   43.5244 H   0  0  0  0  0  0  0  0  0  0  0  0
   59.0820   33.9030   45.2000 C   0  0  0  0  0  0  0  0  0  0  0  0
   59.5698   34.7447   44.6866 H   0  0  0  0  0  0  0  0  0  0  0  0
  1  2  1  0
  2  3  2  0
  3  4  1  0
  4  5  3  0
  3  6  1  0
  6  7  2  0
  6  8  1  0
  8  9  1  0
  8 10  1  0
 10 11  2  0
 10 12  1  0
 12 13  1  0
 12 14  1  0
 14 15  2  0
 15 16  1  0
 15 17  1  0
 17 18  1  0
 17 19  2  0
 19 20  1  0
 19 21  1  0
 21 22  1  0
 21 23  2  0
 23 24  1  0
  2 25  1  0
 25 26  2  0
 26 27  1  0
 26 28  1  0
 28 29  1  0
 28 30  2  0
 30 31  1  0
 31 32  1  0
 32 33  1  0
 32 34  1  0
 32 35  1  0
 30 36  1  0
 36 37  1  0
 36 38  2  0
 38 39  1  0
 23 14  1  0
 38 25  1  0
M  END
>  <UniqueID>  (14) 
12

>  <SMILES>  (14) 
COc1ccc(/C=C(/C#N)C(=S)NC(=O)Nc2ccccc2)cc1

>  <Energy>  (14) 
50.05667475033029

>  <Genealogy>  (14) 
COc1ccc(/C=C(/C#N)C(=S)NC(=O)Nc2ccccc2)cc1 (cis-trans isomerization)
COc1ccc(/C=C(/C#N)C(=S)NC(=O)Nc2ccccc2)cc1 (3D coordinates assigned)
COc1ccc(/C=C(/C#N)C(=S)NC(=O)Nc2ccccc2)cc1 (optimized conformer: 50.05667475033029 kcal/mol)

>  <smiles>  (14) 
COc1ccc(C=C(C#N)C(=S)NC(=O)Nc2ccccc2)cc1

>  <score_type>  (14) 
oracle

>  <origin>  (14) 
adg

>  <m_score__min__energy>  (14) 
-7.0499999999999998

>  <m_primary>  (14) 
energy

$$$$
14:0
     RDKit          3D

 44 46  0  0  0  0  0  0  0  0999 V2000
   59.7180   33.8000   50.4860 C   0  0  0  0  0  0  0  0  0  0  0  0
   60.1930   34.3270   49.2530 O   0  0  0  0  0  0  0  0  0  0  0  0
   61.3930   33.9460   48.6290 C   0  0  0  0  0  0  0  0  0  0  0  0
   62.5380   33.6080   49.3800 C   0  0  0  0  0  0  0  0  0  0  0  0
   63.7130   33.2140   48.7380 C   0  0  0  0  0  0  0  0  0  0  0  0
   63.7600   33.1390   47.3470 C   0  0  0  0  0  0  0  0  0  0  0  0
   62.6350   33.4720   46.5910 C   0  0  0  0  0  0  0  0  0  0  0  0
   61.4530   33.9030   47.2180 C   0  0  0  0  0  0  0  0  0  0  0  0
   60.2560   34.2960   46.3700 C   0  0  0  0  0  0  0  0  0  0  0  0
   58.9340   33.8460   46.8900 N   0  0  0  0  0  0  0  0  0  0  0  0
   57.7780   34.2260   46.0380 C   0  0  0  0  0  0  0  0  0  0  0  0
   57.4650   33.2240   44.9040 C   0  0  0  0  0  0  0  0  0  0  0  0
   58.3220   32.0320   44.9810 N   0  0  0  0  0  0  0  0  0  0  0  0
   58.0590   31.0520   43.9060 C   0  0  0  0  0  0  0  0  0  0  0  0
   57.8900   29.6400   44.4010 C   0  0  0  0  0  0  0  0  0  0  0  0
   58.8930   28.6830   44.5000 C   0  0  0  0  0  0  0  0  0  0  0  0
   58.4360   27.4540   44.9890 C   0  0  0  0  0  0  0  0  0  0  0  0
   57.0760   27.4360   45.2690 C   0  0  0  0  0  0  0  0  0  0  0  0
   56.4410   28.9510   44.9090 S   0  0  0  0  0  0  0  0  0  0  0  0
   58.2880   31.4520   46.3280 C   0  0  0  0  0  0  0  0  0  0  0  0
   58.9030   32.4290   47.3480 C   0  0  0  0  0  0  0  0  0  0  0  0
   60.1974   34.3319   51.3210 H   0  0  0  0  0  0  0  0  0  0  0  0
   58.6275   33.9316   50.5452 H   0  0  0  0  0  0  0  0  0  0  0  0
   59.9618   32.7290   50.5452 H   0  0  0  0  0  0  0  0  0  0  0  0
   62.5047   33.6552   50.4785 H   0  0  0  0  0  0  0  0  0  0  0  0
   64.6043   32.9620   49.3314 H   0  0  0  0  0  0  0  0  0  0  0  0
   64.6842   32.8172   46.8448 H   0  0  0  0  0  0  0  0  0  0  0  0
   62.6737   33.3965   45.4943 H   0  0  0  0  0  0  0  0  0  0  0  0
   60.2369   35.3934   46.2963 H   0  0  0  0  0  0  0  0  0  0  0  0
   60.3901   33.7924   45.4013 H   0  0  0  0  0  0  0  0  0  0  0  0
   58.8150   34.4140   47.7640 H   0  0  0  0  0  0  0  0  0  0  0  0
   56.8889   34.3073   46.6806 H   0  0  0  0  0  0  0  0  0  0  0  0
   58.0443   35.1766   45.5528 H   0  0  0  0  0  0  0  0  0  0  0  0
   56.4130   32.9126   44.9835 H   0  0  0  0  0  0  0  0  0  0  0  0
   57.6564   33.7229   43.9425 H   0  0  0  0  0  0  0  0  0  0  0  0
   57.1379   31.3491   43.3832 H   0  0  0  0  0  0  0  0  0  0  0  0
   58.9379   31.0573   43.2446 H   0  0  0  0  0  0  0  0  0  0  0  0
   59.9403   28.8725   44.2220 H   0  0  0  0  0  0  0  0  0  0  0  0
   59.0924   26.5839   45.1376 H   0  0  0  0  0  0  0  0  0  0  0  0
   56.5105   26.5772   45.6597 H   0  0  0  0  0  0  0  0  0  0  0  0
   57.2444   31.2453   46.6076 H   0  0  0  0  0  0  0  0  0  0  0  0
   58.8712   30.5193   46.3302 H   0  0  0  0  0  0  0  0  0  0  0  0
   58.3124   32.3782   48.2746 H   0  0  0  0  0  0  0  0  0  0  0  0
   59.9485   32.1195   47.4934 H   0  0  0  0  0  0  0  0  0  0  0  0
  1  2  1  0
  2  3  1  0
  3  4  2  0
  4  5  1  0
  5  6  2  0
  6  7  1  0
  7  8  2  0
  8  9  1  0
  9 10  1  0
 10 11  1  0
 11 12  1  0
 12 13  1  0
 13 14  1  0
 14 15  1  0
 15 16  2  0
 16 17  1  0
 17 18  2  0
 18 19  1  0
 13 20  1  0
 20 21  1  0
  8  3  1  0
 21 10  1  0
 19 15  1  0
  1 22  1  0
  1 23  1  0
  1 24  1  0
  4 25  1  0
  5 26  1  0
  6 27  1  0
  7 28  1  0
  9 29  1  0
  9 30  1  0
 10 31  1  0
 11 32  1  0
 11 33  1  0
 12 34  1  0
 12 35  1  0
 14 36  1  0
 14 37  1  0
 16 38  1  0
 17 39  1  0
 18 40  1  0
 20 41  1  0
 20 42  1  0
 21 43  1  0
 21 44  1  0
M  CHG  1  10   1
M  END
>  <UniqueID>  (15) 
13

>  <SMILES>  (15) 
COc1ccccc1C[NH+]1CCN(Cc2cccs2)CC1

>  <Energy>  (15) 
87.27066290748306

>  <Genealogy>  (15) 
COc1ccccc1C[NH+]1CCN(Cc2cccs2)CC1 (protonated)
COc1ccccc1C[NH+]1CCN(Cc2cccs2)CC1 (3D coordinates assigned)
COc1ccccc1C[NH+]1CCN(Cc2cccs2)CC1 (nonaromatic ring conformer: 87.27066290748306 kcal/mol)

>  <smiles>  (15) 
COc1ccccc1CN1CCN(Cc2cccs2)CC1

>  <score_type>  (15) 
oracle

>  <origin>  (15) 
adg

>  <m_score__min__energy>  (15) 
-5.7199999999999998

>  <m_primary>  (15) 
energy

$$$$
15:0
     RDKit          3D

 40 42  0  0  0  0  0  0  0  0999 V2000
   58.1540   31.4790   43.3830 C   0  0  0  0  0  0  0  0  0  0  0  0
   57.1570   31.4880   44.8570 S   0  0  0  0  0  0  0  0  0  0  0  0
   57.8400   30.6490   45.9000 O   0  0  0  0  0  0  0  0  0  0  0  0
   55.8260   30.8710   44.5260 O   0  0  0  0  0  0  0  0  0  0  0  0
   56.9570   33.1470   45.3870 N   0  0  0  0  0  0  0  0  0  0  0  0
   57.6220   34.1410   44.5320 C   0  0  0  0  0  0  0  0  0  0  0  0
   59.1130   34.2840   44.8430 C   0  0  0  0  0  0  0  0  0  0  0  0
   59.3590   34.6280   46.3220 C   0  0  2  0  0  0  0  0  0  0  0  0
   60.8210   34.3600   46.6920 C   0  0  0  0  0  0  0  0  0  0  0  0
   60.8380   33.0060   47.2270 N   0  0  0  0  0  0  0  0  0  0  0  0
   62.0410   32.3680   47.6880 C   0  0  0  0  0  0  0  0  0  0  0  0
   62.4450   31.3190   47.1170 O   0  0  0  0  0  0  0  0  0  0  0  0
   62.8260   32.9200   48.8120 C   0  0  0  0  0  0  0  0  0  0  0  0
   62.2840   33.8980   49.6610 C   0  0  0  0  0  0  0  0  0  0  0  0
   63.0160   34.3830   50.7000 N   0  0  0  0  0  0  0  0  0  0  0  0
   64.2770   33.9440   50.9550 C   0  0  0  0  0  0  0  0  0  0  0  0
   64.8490   32.9580   50.1480 C   0  0  0  0  0  0  0  0  0  0  0  0
   66.6150   32.3230   50.5070 Br  0  0  0  0  0  0  0  0  0  0  0  0
   64.1170   32.4390   49.0780 C   0  0  0  0  0  0  0  0  0  0  0  0
   59.4960   32.5030   47.4970 C   0  0  0  0  0  0  0  0  0  0  0  0
   58.5820   33.7040   47.2680 C   0  0  2  0  0  0  0  0  0  0  0  0
   57.1380   33.3720   46.8330 C   0  0  0  0  0  0  0  0  0  0  0  0
   59.2184   31.4694   43.6604 H   0  0  0  0  0  0  0  0  0  0  0  0
   57.9218   30.5829   42.7888 H   0  0  0  0  0  0  0  0  0  0  0  0
   57.9380   32.3791   42.7888 H   0  0  0  0  0  0  0  0  0  0  0  0
   57.5094   33.8335   43.4819 H   0  0  0  0  0  0  0  0  0  0  0  0
   57.1477   35.1148   44.7238 H   0  0  0  0  0  0  0  0  0  0  0  0
   59.6178   33.3349   44.6097 H   0  0  0  0  0  0  0  0  0  0  0  0
   59.5122   35.1058   44.2304 H   0  0  0  0  0  0  0  0  0  0  0  0
   59.0564   35.6800   46.4304 H   0  0  0  0  0  0  0  0  0  0  0  0
   61.4633   34.4310   45.8018 H   0  0  0  0  0  0  0  0  0  0  0  0
   61.2022   35.0934   47.4178 H   0  0  0  0  0  0  0  0  0  0  0  0
   61.2649   34.2730   49.4856 H   0  0  0  0  0  0  0  0  0  0  0  0
   64.8466   34.3651   51.7965 H   0  0  0  0  0  0  0  0  0  0  0  0
   64.5525   31.6530   48.4436 H   0  0  0  0  0  0  0  0  0  0  0  0
   59.2419   31.6845   46.8075 H   0  0  0  0  0  0  0  0  0  0  0  0
   59.4004   32.0935   48.5135 H   0  0  0  0  0  0  0  0  0  0  0  0
   58.3656   34.2117   48.2195 H   0  0  0  0  0  0  0  0  0  0  0  0
   56.8238   32.4601   47.3618 H   0  0  0  0  0  0  0  0  0  0  0  0
   56.5315   34.2547   47.0842 H   0  0  0  0  0  0  0  0  0  0  0  0
  1  2  1  0
  2  3  2  0
  2  4  2  0
  2  5  1  0
  5  6  1  0
  6  7  1  0
  7  8  1  0
  8  9  1  0
  9 10  1  0
 10 11  1  0
 11 12  2  0
 11 13  1  0
 13 14  2  0
 14 15  1  0
 15 16  2  0
 16 17  1  0
 17 18  1  0
 17 19  2  0
 10 20  1  0
 20 21  1  0
 21 22  1  0
 22  5  1  0
 21  8  1  0
 19 13  1  0
  1 23  1  0
  1 24  1  0
  1 25  1  0
  6 26  1  0
  6 27  1  0
  7 28  1  0
  7 29  1  0
  8 30  1  6
  9 31  1  0
  9 32  1  0
 14 33  1  0
 16 34  1  0
 19 35  1  0
 20 36  1  0
 20 37  1  0
 21 38  1  1
 22 39  1  0
 22 40  1  0
M  END
>  <UniqueID>  (16) 
14

>  <SMILES>  (16) 
CS(=O)(=O)N1CC[C@@H]2CN(C(=O)c3cncc(Br)c3)C[C@@H]2C1

>  <Energy>  (16) 
50.640277384378834

>  <Genealogy>  (16) 
CS(=O)(=O)N1CC[C@@H]2CN(C(=O)c3cncc(Br)c3)C[C@@H]2C1 (chirality)
CS(=O)(=O)N1CC[C@@H]2CN(C(=O)c3cncc(Br)c3)C[C@@H]2C1 (3D coordinates assigned)
CS(=O)(=O)N1CC[C@@H]2CN(C(=O)c3cncc(Br)c3)C[C@@H]2C1 (nonaromatic ring conformer: 50.640277384378834 kcal/mol)

>  <smiles>  (16) 
CS(=O)(=O)N1CCC2CN(C(=O)c3cncc(Br)c3)CC2C1

>  <score_type>  (16) 
oracle

>  <origin>  (16) 
adg

>  <m_score__min__energy>  (16) 
-8.8399999999999999

>  <m_primary>  (16) 
energy

$$$$
16:0
     RDKit          3D

 37 40  0  0  0  0  0  0  0  0999 V2000
   62.0933   29.9905   49.4311 H   0  0  0  0  0  0  0  0  0  0  0  0
   61.5170   30.3950   48.5860 C   0  0  0  0  0  0  0  0  0  0  0  0
   61.7720   31.6480   48.1280 N   0  0  0  0  0  0  0  0  0  0  0  0
   61.0820   32.1710   47.0760 C   0  0  0  0  0  0  0  0  0  0  0  0
   61.3300   33.3710   46.6420 N   0  0  0  0  0  0  0  0  0  0  0  0
   60.4650   34.5310   46.8530 C   0  0  0  0  0  0  0  0  0  0  0  0
   60.3931   34.7379   47.9310 H   0  0  0  0  0  0  0  0  0  0  0  0
   60.8961   35.3969   46.3292 H   0  0  0  0  0  0  0  0  0  0  0  0
   59.0950   34.2680   46.3090 C   0  0  0  0  0  0  0  0  0  0  0  0
   57.8620   33.4710   47.1300 S   0  0  0  0  0  0  0  0  0  0  0  0
   56.7430   33.5270   45.8760 C   0  0  0  0  0  0  0  0  0  0  0  0
   55.7193   33.1258   45.9079 H   0  0  0  0  0  0  0  0  0  0  0  0
   57.3330   34.1670   44.7920 C   0  0  0  0  0  0  0  0  0  0  0  0
   56.8143   34.3339   43.8364 H   0  0  0  0  0  0  0  0  0  0  0  0
   58.6490   34.5790   45.0310 C   0  0  0  0  0  0  0  0  0  0  0  0
   59.2672   35.0965   44.2827 H   0  0  0  0  0  0  0  0  0  0  0  0
   60.1210   31.4300   46.4670 N   0  0  0  0  0  0  0  0  0  0  0  0
   59.8350   30.1710   46.8870 C   0  0  0  0  0  0  0  0  0  0  0  0
   60.5230   29.6200   47.9840 C   0  0  0  0  0  0  0  0  0  0  0  0
   60.2930   28.1770   48.4070 C   0  0  0  0  0  0  0  0  0  0  0  0
   61.0024   27.5377   47.8610 H   0  0  0  0  0  0  0  0  0  0  0  0
   60.4415   28.1336   49.4961 H   0  0  0  0  0  0  0  0  0  0  0  0
   58.8580   27.6670   48.1250 C   0  0  0  0  0  0  0  0  0  0  0  0
   58.8654   26.5673   48.0993 H   0  0  0  0  0  0  0  0  0  0  0  0
   58.1938   28.0289   48.9236 H   0  0  0  0  0  0  0  0  0  0  0  0
   58.3520   28.1860   46.8090 C   0  0  0  0  0  0  0  0  0  0  0  0
   57.2820   27.7940   46.0180 C   0  0  0  0  0  0  0  0  0  0  0  0
   56.4050   26.6300   46.2120 C   0  0  0  0  0  0  0  0  0  0  0  0
   55.1710   26.7300   45.9770 O   0  0  0  0  0  0  0  0  0  0  0  0
   56.9160   25.4200   46.6590 O   0  0  0  0  0  0  0  0  0  0  0  0
   57.1130   28.6970   45.0250 N   0  0  0  0  0  0  0  0  0  0  0  0
   58.0260   29.6470   45.1750 N   0  0  0  0  0  0  0  0  0  0  0  0
   58.1210   30.8150   44.3090 C   0  0  0  0  0  0  0  0  0  0  0  0
   58.1949   31.7232   44.9251 H   0  0  0  0  0  0  0  0  0  0  0  0
   59.0151   30.7289   43.6741 H   0  0  0  0  0  0  0  0  0  0  0  0
   57.2247   30.8746   43.6741 H   0  0  0  0  0  0  0  0  0  0  0  0
   58.7760   29.3670   46.2610 C   0  0  0  0  0  0  0  0  0  0  0  0
  1  2  1  0
  2  3  2  0
  3  4  1  0
  4  5  2  0
  5  6  1  0
  6  7  1  0
  6  8  1  0
  6  9  1  0
  9 10  1  0
 10 11  1  0
 11 12  1  0
 11 13  2  0
 13 14  1  0
 13 15  1  0
 15 16  1  0
  4 17  1  0
 17 18  1  0
 18 19  2  0
 19 20  1  0
 20 21  1  0
 20 22  1  0
 20 23  1  0
 23 24  1  0
 23 25  1  0
 23 26  1  0
 26 27  1  0
 27 28  1  0
 28 29  2  0
 28 30  1  0
 27 31  2  0
 31 32  1  0
 32 33  1  0
 33 34  1  0
 33 35  1  0
 33 36  1  0
 32 37  1  0
 19  2  1  0
 37 26  2  0
 15  9  2  0
 37 18  1  0
M  CHG  2  17  -1  30  -1
M  END
>  <UniqueID>  (17) 
15

>  <SMILES>  (17) 
Cn1nc(C(=O)[O-])c2c1-c1[n-]/c(=N/Cc3cccs3)ncc1CC2

>  <Energy>  (17) 
102.18918041096369

>  <Genealogy>  (17) 
Cn1nc(C(=O)[O-])c2c1-c1[n-]c(=NCc3cccs3)ncc1CC2 (protonated)
Cn1nc(C(=O)[O-])c2c1-c1[n-]/c(=N/Cc3cccs3)ncc1CC2 (cis-trans isomerization)
Cn1nc(C(=O)[O-])c2c1-c1[n-]/c(=N/Cc3cccs3)ncc1CC2 (3D coordinates assigned)
Cn1nc(C(=O)[O-])c2c1-c1[n-]/c(=N/Cc3cccs3)ncc1CC2 (nonaromatic ring conformer: 102.18918041096369 kcal/mol)

>  <smiles>  (17) 
Cn1nc(C(=O)O)c2c1-c1[nH]c(=NCc3cccs3)ncc1CC2

>  <score_type>  (17) 
oracle

>  <origin>  (17) 
adg

>  <m_score__min__energy>  (17) 
-10.630000000000001

>  <m_primary>  (17) 
energy

$$$$
17:0
     RDKit          3D

 41 42  0  0  0  0  0  0  0  0999 V2000
   59.2329   35.4903   45.4690 H   0  0  0  0  0  0  0  0  0  0  0  0
   58.6760   34.5580   45.2940 C   0  0  0  0  0  0  0  0  0  0  0  0
   58.8800   33.8320   44.1160 C   0  0  0  0  0  0  0  0  0  0  0  0
   59.6057   34.1875   43.3697 H   0  0  0  0  0  0  0  0  0  0  0  0
   58.1620   32.6550   43.8870 C   0  0  0  0  0  0  0  0  0  0  0  0
   58.3363   32.0795   42.9659 H   0  0  0  0  0  0  0  0  0  0  0  0
   57.2220   32.2030   44.8220 C   0  0  0  0  0  0  0  0  0  0  0  0
   56.5230   30.9740   44.5640 N   0  0  0  0  0  0  0  0  0  0  0  0
   56.8370   29.7930   45.0120 C   0  0  0  0  0  0  0  0  0  0  0  0
   55.8960   28.8280   45.1850 N   0  0  0  0  0  0  0  0  0  0  0  0
   56.2520   27.5900   45.6200 C   0  0  0  0  0  0  0  0  0  0  0  0
   55.2950   26.5860   45.7970 O   0  0  0  0  0  0  0  0  0  0  0  0
   55.5680   25.1960   45.6290 C   0  0  0  0  0  0  0  0  0  0  0  0
   56.1674   25.0525   44.7179 H   0  0  0  0  0  0  0  0  0  0  0  0
   54.6144   24.6541   45.5453 H   0  0  0  0  0  0  0  0  0  0  0  0
   56.3390   24.6540   46.8270 C   0  0  0  0  0  0  0  0  0  0  0  0
   55.8576   24.9924   47.7564 H   0  0  0  0  0  0  0  0  0  0  0  0
   56.3414   23.5545   46.7946 H   0  0  0  0  0  0  0  0  0  0  0  0
   57.3744   25.0240   46.7946 H   0  0  0  0  0  0  0  0  0  0  0  0
   57.5560   27.3180   45.8730 N   0  0  0  0  0  0  0  0  0  0  0  0
   58.5090   28.2720   45.6960 C   0  0  0  0  0  0  0  0  0  0  0  0
   59.8980   27.9770   45.9700 N   0  0  0  0  0  0  0  0  0  0  0  0
   60.2590   26.7940   46.7660 C   0  0  0  0  0  0  0  0  0  0  0  0
   61.3417   26.8057   46.9597 H   0  0  0  0  0  0  0  0  0  0  0  0
   59.7016   26.8218   47.7139 H   0  0  0  0  0  0  0  0  0  0  0  0
   59.8970   25.5120   46.0210 C   0  0  0  0  0  0  0  0  0  0  0  0
   59.6725   24.7169   46.7472 H   0  0  0  0  0  0  0  0  0  0  0  0
   59.0145   25.6917   45.3894 H   0  0  0  0  0  0  0  0  0  0  0  0
   60.7432   25.2035   45.3894 H   0  0  0  0  0  0  0  0  0  0  0  0
   60.9510   28.9010   45.5190 C   0  0  0  0  0  0  0  0  0  0  0  0
   61.9195   28.3797   45.5348 H   0  0  0  0  0  0  0  0  0  0  0  0
   60.7137   29.2358   44.4984 H   0  0  0  0  0  0  0  0  0  0  0  0
   61.0250   30.1220   46.4300 C   0  0  0  0  0  0  0  0  0  0  0  0
   61.0053   29.7972   47.4808 H   0  0  0  0  0  0  0  0  0  0  0  0
   61.9580   30.6704   46.2331 H   0  0  0  0  0  0  0  0  0  0  0  0
   60.1650   30.7790   46.2331 H   0  0  0  0  0  0  0  0  0  0  0  0
   58.1390   29.5060   45.2630 N   0  0  0  0  0  0  0  0  0  0  0  0
   57.0470   32.9200   46.0210 C   0  0  0  0  0  0  0  0  0  0  0  0
   56.3432   32.5518   46.7820 H   0  0  0  0  0  0  0  0  0  0  0  0
   57.7650   34.0990   46.2480 C   0  0  0  0  0  0  0  0  0  0  0  0
   57.6119   34.6651   47.1787 H   0  0  0  0  0  0  0  0  0  0  0  0
  1  2  1  0
  2  3  2  0
  3  4  1  0
  3  5  1  0
  5  6  1  0
  5  7  2  0
  7  8  1  0
  8  9  2  0
  9 10  1  0
 10 11  2  0
 11 12  1  0
 12 13  1  0
 13 14  1  0
 13 15  1  0
 13 16  1  0
 16 17  1  0
 16 18  1  0
 16 19  1  0
 11 20  1  0
 20 21  1  0
 21 22  1  0
 22 23  1  0
 23 24  1  0
 23 25  1  0
 23 26  1  0
 26 27  1  0
 26 28  1  0
 26 29  1  0
 22 30  1  0
 30 31  1  0
 30 32  1  0
 30 33  1  0
 33 34  1  0
 33 35  1  0
 33 36  1  0
 21 37  2  0
  7 38  1  0
 38 39  1  0
 38 40  2  0
 40 41  1  0
 40  2  1  0
 37  9  1  0
M  CHG  1  20  -1
M  END
>  <UniqueID>  (18) 
16

>  <SMILES>  (18) 
CCOc1n/c(=N\c2ccccc2)nc(N(CC)CC)[n-]1

>  <Energy>  (18) 
36.29880107181771

>  <Genealogy>  (18) 
CCOc1nc(=Nc2ccccc2)nc(N(CC)CC)[n-]1 (protonated)
CCOc1n/c(=N\c2ccccc2)nc(N(CC)CC)[n-]1 (cis-trans isomerization)
CCOc1n/c(=N\c2ccccc2)nc(N(CC)CC)[n-]1 (3D coordinates assigned)
CCOc1n/c(=N\c2ccccc2)nc(N(CC)CC)[n-]1 (optimized conformer: 36.29880107181771 kcal/mol)

>  <smiles>  (18) 
CCOc1nc(=Nc2ccccc2)nc(N(CC)CC)[nH]1

>  <score_type>  (18) 
oracle

>  <origin>  (18) 
adg

>  <m_score__min__energy>  (18) 
-7.7300000000000004

>  <m_primary>  (18) 
energy

$$$$
18:0
     RDKit          3D

 59 61  0  0  0  0  0  0  0  0999 V2000
   59.2150   27.1490   45.2580 C   0  0  0  0  0  0  0  0  0  0  0  0
   58.6890   28.5790   45.0340 C   0  0  1  0  0  0  0  0  0  0  0  0
   57.1730   28.6330   44.8440 C   0  0  0  0  0  0  0  0  0  0  0  0
   56.4420   27.9320   45.6000 O   0  0  0  0  0  0  0  0  0  0  0  0
   56.5410   29.4210   43.8140 N   0  0  0  0  0  0  0  0  0  0  0  0
   56.6390   28.9810   42.4180 C   0  0  0  0  0  0  0  0  0  0  0  0
   56.2380   30.8340   44.0920 C   0  0  0  0  0  0  0  0  0  0  0  0
   57.4240   31.5450   44.6830 C   0  0  0  0  0  0  0  0  0  0  0  0
   58.4720   31.6600   43.9900 O   0  0  0  0  0  0  0  0  0  0  0  0
   57.4290   32.1180   46.0020 N   0  0  0  0  0  0  0  0  0  0  0  0
   58.4260   32.7890   46.7960 C   0  0  0  0  0  0  0  0  0  0  0  0
   59.3440   33.6020   46.1120 C   0  0  0  0  0  0  0  0  0  0  0  0
   60.3270   34.3120   46.8060 C   0  0  0  0  0  0  0  0  0  0  0  0
   60.4050   34.2190   48.1980 C   0  0  0  0  0  0  0  0  0  0  0  0
   61.3610   34.9050   48.8720 F   0  0  0  0  0  0  0  0  0  0  0  0
   59.4870   33.4280   48.8950 C   0  0  0  0  0  0  0  0  0  0  0  0
   58.4990   32.7200   48.2040 C   0  0  0  0  0  0  0  0  0  0  0  0
   59.1980   29.5340   46.0690 N   0  0  0  0  0  0  0  0  0  0  0  0
   58.5930   29.2850   47.4150 C   0  0  0  0  0  0  0  0  0  0  0  0
   59.6370   29.0870   48.5250 C   0  0  0  0  0  0  0  0  0  0  0  0
   60.5720   30.2260   48.5400 N   0  0  0  0  0  0  0  0  0  0  0  0
   61.5520   30.1830   49.6490 C   0  0  0  0  0  0  0  0  0  0  0  0
   62.3580   31.4580   49.8090 C   0  0  0  0  0  0  0  0  0  0  0  0
   62.0650   32.3540   50.8520 C   0  0  0  0  0  0  0  0  0  0  0  0
   62.7710   33.5550   50.9740 C   0  0  0  0  0  0  0  0  0  0  0  0
   63.7680   33.8760   50.0510 C   0  0  0  0  0  0  0  0  0  0  0  0
   64.0720   32.9900   49.0160 C   0  0  0  0  0  0  0  0  0  0  0  0
   63.3660   31.7910   48.8870 C   0  0  0  0  0  0  0  0  0  0  0  0
   61.1580   30.5600   47.2200 C   0  0  0  0  0  0  0  0  0  0  0  0
   60.6790   29.6280   46.0980 C   0  0  0  0  0  0  0  0  0  0  0  0
   59.2882   26.9501   46.3374 H   0  0  0  0  0  0  0  0  0  0  0  0
   58.5233   26.4277   44.7983 H   0  0  0  0  0  0  0  0  0  0  0  0
   60.2092   27.0478   44.7983 H   0  0  0  0  0  0  0  0  0  0  0  0
   59.1061   28.9226   44.0759 H   0  0  0  0  0  0  0  0  0  0  0  0
   56.8780   27.9077   42.3878 H   0  0  0  0  0  0  0  0  0  0  0  0
   55.6796   29.1574   41.9097 H   0  0  0  0  0  0  0  0  0  0  0  0
   57.4329   29.5479   41.9097 H   0  0  0  0  0  0  0  0  0  0  0  0
   55.9551   31.3307   43.1522 H   0  0  0  0  0  0  0  0  0  0  0  0
   55.4135   30.8740   44.8191 H   0  0  0  0  0  0  0  0  0  0  0  0
   59.2886   33.6809   45.0162 H   0  0  0  0  0  0  0  0  0  0  0  0
   61.0397   34.9444   46.2564 H   0  0  0  0  0  0  0  0  0  0  0  0
   59.5422   33.3623   49.9917 H   0  0  0  0  0  0  0  0  0  0  0  0
   57.7751   32.1063   48.7602 H   0  0  0  0  0  0  0  0  0  0  0  0
   58.8600   30.4840   45.7780 H   0  0  0  0  0  0  0  0  0  0  0  0
   57.9624   30.1468   47.6789 H   0  0  0  0  0  0  0  0  0  0  0  0
   58.0135   28.3528   47.3436 H   0  0  0  0  0  0  0  0  0  0  0  0
   59.1276   29.0199   49.4976 H   0  0  0  0  0  0  0  0  0  0  0  0
   60.1974   28.1596   48.3352 H   0  0  0  0  0  0  0  0  0  0  0  0
   61.0062   29.9988   50.5861 H   0  0  0  0  0  0  0  0  0  0  0  0
   62.2672   29.3818   49.4112 H   0  0  0  0  0  0  0  0  0  0  0  0
   61.2750   32.1087   51.5771 H   0  0  0  0  0  0  0  0  0  0  0  0
   62.5407   34.2470   51.7975 H   0  0  0  0  0  0  0  0  0  0  0  0
   64.3139   34.8269   50.1393 H   0  0  0  0  0  0  0  0  0  0  0  0
   64.8697   33.2364   48.2998 H   0  0  0  0  0  0  0  0  0  0  0  0
   63.6000   31.1043   48.0601 H   0  0  0  0  0  0  0  0  0  0  0  0
   60.8768   31.5918   46.9626 H   0  0  0  0  0  0  0  0  0  0  0  0
   62.2482   30.4404   47.3042 H   0  0  0  0  0  0  0  0  0  0  0  0
   61.0320   30.0191   45.1324 H   0  0  0  0  0  0  0  0  0  0  0  0
   61.0866   28.6234   46.2840 H   0  0  0  0  0  0  0  0  0  0  0  0
  1  2  1  0
  2  3  1  0
  3  4  2  0
  3  5  1  0
  5  6  1  0
  5  7  1  0
  7  8  1  0
  8  9  2  0
  8 10  1  0
 10 11  1  0
 11 12  2  0
 12 13  1  0
 13 14  2  0
 14 15  1  0
 14 16  1  0
 16 17  2  0
  2 18  1  0
 18 19  1  0
 19 20  1  0
 20 21  1  0
 21 22  1  0
 22 23  1  0
 23 24  2  0
 24 25  1  0
 25 26  2  0
 26 27  1  0
 27 28  2  0
 21 29  1  0
 29 30  1  0
 17 11  1  0
 30 18  1  0
 28 23  1  0
  1 31  1  0
  1 32  1  0
  1 33  1  0
  2 34  1  6
  6 35  1  0
  6 36  1  0
  6 37  1  0
  7 38  1  0
  7 39  1  0
 12 40  1  0
 13 41  1  0
 16 42  1  0
 17 43  1  0
 18 44  1  0
 19 45  1  0
 19 46  1  0
 20 47  1  0
 20 48  1  0
 22 49  1  0
 22 50  1  0
 24 51  1  0
 25 52  1  0
 26 53  1  0
 27 54  1  0
 28 55  1  0
 29 56  1  0
 29 57  1  0
 30 58  1  0
 30 59  1  0
M  CHG  2  10  -1  18   1
M  END
>  <UniqueID>  (19) 
17

>  <SMILES>  (19) 
C[C@@H](C(=O)N(C)CC(=O)[N-]c1ccc(F)cc1)[NH+]1CCN(Cc2ccccc2)CC1

>  <Energy>  (19) 
89.26615224840992

>  <Genealogy>  (19) 
CC(C(=O)N(C)CC(=O)[N-]c1ccc(F)cc1)[NH+]1CCN(Cc2ccccc2)CC1 (protonated)
C[C@@H](C(=O)N(C)CC(=O)[N-]c1ccc(F)cc1)[NH+]1CCN(Cc2ccccc2)CC1 (chirality)
C[C@@H](C(=O)N(C)CC(=O)[N-]c1ccc(F)cc1)[NH+]1CCN(Cc2ccccc2)CC1 (3D coordinates assigned)
C[C@@H](C(=O)N(C)CC(=O)[N-]c1ccc(F)cc1)[NH+]1CCN(Cc2ccccc2)CC1 (nonaromatic ring conformer: 89.26615224840992 kcal/mol)

>  <smiles>  (19) 
CC(C(=O)N(C)CC(=O)Nc1ccc(F)cc1)N1CCN(Cc2ccccc2)CC1

>  <score_type>  (19) 
oracle

>  <origin>  (19) 
adg

>  <m_score__min__energy>  (19) 
-8.7899999999999991

>  <m_primary>  (19) 
energy

$$$$
19:0
     RDKit          3D

 63 68  0  0  0  0  0  0  0  0999 V2000
   50.6253   28.6062   51.6558 H   0  0  0  0  0  0  0  0  0  0  0  0
   51.5030   29.1610   52.0190 C   0  0  0  0  0  0  0  0  0  0  0  0
   52.2880   28.9150   53.4840 S   0  0  0  0  0  0  0  0  0  0  0  0
   53.4340   30.1210   53.1870 C   0  0  0  0  0  0  0  0  0  0  0  0
   54.3750   30.4990   54.0000 N   0  0  0  0  0  0  0  0  0  0  0  0
   55.5660   29.7550   54.2940 C   0  0  0  0  0  0  0  0  0  0  0  0
   55.6060   29.0620   55.3490 O   0  0  0  0  0  0  0  0  0  0  0  0
   56.7660   29.8360   53.4290 C   0  0  0  0  0  0  0  0  0  0  0  0
   56.8680   30.8440   52.4410 C   0  0  0  0  0  0  0  0  0  0  0  0
   56.0392   31.5554   52.3110 H   0  0  0  0  0  0  0  0  0  0  0  0
   58.0120   30.9570   51.6170 C   0  0  0  0  0  0  0  0  0  0  0  0
   58.0520   32.0500   50.5890 C   0  0  0  0  0  0  0  0  0  0  0  0
   58.0877   33.0268   51.0936 H   0  0  0  0  0  0  0  0  0  0  0  0
   58.9463   31.9293   49.9600 H   0  0  0  0  0  0  0  0  0  0  0  0
   57.1512   31.9949   49.9600 H   0  0  0  0  0  0  0  0  0  0  0  0
   59.0430   30.0040   51.8080 C   0  0  0  0  0  0  0  0  0  0  0  0
   58.9240   29.0240   52.7630 C   0  0  0  0  0  0  0  0  0  0  0  0
   59.9930   28.2130   52.7600 N   0  0  0  0  0  0  0  0  0  0  0  0
   60.7680   28.7270   51.7770 C   0  0  0  0  0  0  0  0  0  0  0  0
   62.0870   28.1180   51.4110 C   0  0  0  0  0  0  0  0  0  0  0  0
   62.6398   27.8628   52.3271 H   0  0  0  0  0  0  0  0  0  0  0  0
   61.9183   27.2066   50.8186 H   0  0  0  0  0  0  0  0  0  0  0  0
   62.6713   28.8375   50.8186 H   0  0  0  0  0  0  0  0  0  0  0  0
   60.2320   29.8270   51.1760 N   0  0  0  0  0  0  0  0  0  0  0  0
   60.8590   30.6040   50.0940 C   0  0  0  0  0  0  0  0  0  0  0  0
   60.8263   31.6708   50.3602 H   0  0  0  0  0  0  0  0  0  0  0  0
   61.8939   30.2486   49.9816 H   0  0  0  0  0  0  0  0  0  0  0  0
   60.1600   30.4130   48.7700 C   0  0  0  0  0  0  0  0  0  0  0  0
   59.1890   29.4120   48.5870 C   0  0  0  0  0  0  0  0  0  0  0  0
   58.9354   28.7370   49.4177 H   0  0  0  0  0  0  0  0  0  0  0  0
   58.5450   29.2710   47.3550 C   0  0  0  0  0  0  0  0  0  0  0  0
   57.7779   28.4936   47.2238 H   0  0  0  0  0  0  0  0  0  0  0  0
   58.8730   30.1180   46.2830 C   0  0  0  0  0  0  0  0  0  0  0  0
   58.1640   29.9950   44.9920 C   0  0  0  0  0  0  0  0  0  0  0  0
   58.0610   28.7210   44.4080 C   0  0  0  0  0  0  0  0  0  0  0  0
   58.5649   27.8635   44.8779 H   0  0  0  0  0  0  0  0  0  0  0  0
   57.3250   28.5340   43.2370 C   0  0  0  0  0  0  0  0  0  0  0  0
   57.2522   27.5325   42.7878 H   0  0  0  0  0  0  0  0  0  0  0  0
   56.6820   29.6150   42.6360 C   0  0  0  0  0  0  0  0  0  0  0  0
   56.0916   29.4628   41.7204 H   0  0  0  0  0  0  0  0  0  0  0  0
   56.7860   30.8900   43.1940 C   0  0  0  0  0  0  0  0  0  0  0  0
   56.2734   31.7372   42.7149 H   0  0  0  0  0  0  0  0  0  0  0  0
   57.5390   31.1030   44.3620 C   0  0  0  0  0  0  0  0  0  0  0  0
   57.6620   32.4880   44.8740 C   0  0  0  0  0  0  0  0  0  0  0  0
   57.0480   32.9420   45.9840 N   0  0  0  0  0  0  0  0  0  0  0  0
   57.3750   34.2230   46.0580 N   0  0  0  0  0  0  0  0  0  0  0  0
   58.1480   34.5530   45.0330 N   0  0  0  0  0  0  0  0  0  0  0  0
   58.3380   33.4870   44.2790 N   0  0  0  0  0  0  0  0  0  0  0  0
   58.8730   33.4740   43.3830 H   0  0  0  0  0  0  0  0  0  0  0  0
   59.8840   31.0760   46.4460 C   0  0  0  0  0  0  0  0  0  0  0  0
   60.1738   31.7168   45.6002 H   0  0  0  0  0  0  0  0  0  0  0  0
   60.5240   31.2190   47.6790 C   0  0  0  0  0  0  0  0  0  0  0  0
   61.3198   31.9692   47.7967 H   0  0  0  0  0  0  0  0  0  0  0  0
   57.8170   28.9170   53.5970 C   0  0  0  0  0  0  0  0  0  0  0  0
   57.7646   28.1341   54.3680 H   0  0  0  0  0  0  0  0  0  0  0  0
   53.2280   30.7210   51.9950 N   0  0  0  0  0  0  0  0  0  0  0  0
   52.1570   30.1900   51.3440 C   0  0  0  0  0  0  0  0  0  0  0  0
   51.7510   30.6560   49.9790 C   0  0  0  0  0  0  0  0  0  0  0  0
   52.6495   30.7811   49.3569 H   0  0  0  0  0  0  0  0  0  0  0  0
   51.0817   29.9066   49.5313 H   0  0  0  0  0  0  0  0  0  0  0  0
   51.0270   31.9610   50.0660 C   0  0  0  0  0  0  0  0  0  0  0  0
   50.4070   32.4100   49.0670 O   0  0  0  0  0  0  0  0  0  0  0  0
   51.0270   32.6800   51.2570 O   0  0  0  0  0  0  0  0  0  0  0  0
  1  2  1  0
  2  3  1  0
  3  4  1  0
  4  5  2  0
  5  6  1  0
  6  7  2  0
  6  8  1  0
  8  9  2  0
  9 10  1  0
  9 11  1  0
 11 12  1  0
 12 13  1  0
 12 14  1  0
 12 15  1  0
 11 16  2  0
 16 17  1  0
 17 18  1  0
 18 19  2  0
 19 20  1  0
 20 21  1  0
 20 22  1  0
 20 23  1  0
 19 24  1  0
 24 25  1  0
 25 26  1  0
 25 27  1  0
 25 28  1  0
 28 29  2  0
 29 30  1  0
 29 31  1  0
 31 32  1  0
 31 33  2  0
 33 34  1  0
 34 35  2  0
 35 36  1  0
 35 37  1  0
 37 38  1  0
 37 39  2  0
 39 40  1  0
 39 41  1  0
 41 42  1  0
 41 43  2  0
 43 44  1  0
 44 45  2  0
 45 46  1  0
 46 47  1  0
 47 48  2  0
 48 49  1  0
 33 50  1  0
 50 51  1  0
 50 52  2  0
 52 53  1  0
 17 54  2  0
 54 55  1  0
  4 56  1  0
 56 57  1  0
 57 58  1  0
 58 59  1  0
 58 60  1  0
 58 61  1  0
 61 62  2  0
 61 63  1  0
 57  2  2  0
 54  8  1  0
 24 16  1  0
 52 28  1  0
 43 34  1  0
 48 44  1  0
M  CHG  4  46  -1  48   1  56  -1  63  -1
M  END
>  <UniqueID>  (20) 
18

>  <SMILES>  (20) 
Cc1cc(C(=O)/N=c2/[n-]c(CC(=O)[O-])cs2)cc2nc(C)n(Cc3ccc(-c4ccccc4-c4n[n-]n[nH+]4)cc3)c12

>  <Energy>  (20) 
195.0577701587343

>  <Genealogy>  (20) 
Cc1cc(C(=O)N=c2[n-]c(CC(=O)[O-])cs2)cc2nc(C)n(Cc3ccc(-c4ccccc4-c4n[n-]n[nH+]4)cc3)c12 (protonated)
Cc1cc(C(=O)/N=c2/[n-]c(CC(=O)[O-])cs2)cc2nc(C)n(Cc3ccc(-c4ccccc4-c4n[n-]n[nH+]4)cc3)c12 (cis-trans isomerization)
Cc1cc(C(=O)/N=c2/[n-]c(CC(=O)[O-])cs2)cc2nc(C)n(Cc3ccc(-c4ccccc4-c4n[n-]n[nH+]4)cc3)c12 (3D coordinates assigned)
Cc1cc(C(=O)/N=c2/[n-]c(CC(=O)[O-])cs2)cc2nc(C)n(Cc3ccc(-c4ccccc4-c4n[n-]n[nH+]4)cc3)c12 (optimized conformer: 195.0577701587343 kcal/mol)

>  <smiles>  (20) 
Cc1cc(C(=O)N=c2[nH]c(CC(=O)O)cs2)cc2nc(C)n(Cc3ccc(-c4ccccc4-c4nn[nH]n4)cc3)c12

>  <score_type>  (20) 
oracle

>  <origin>  (20) 
adg

>  <m_score__min__energy>  (20) 
-15.06

>  <m_primary>  (20) 
energy

$$$$
20:0
     RDKit          3D

 38 40  0  0  0  0  0  0  0  0999 V2000
   59.6110   33.6230   48.9240 C   0  0  0  0  0  0  0  0  0  0  0  0
   59.3400   33.7680   47.4560 C   0  0  0  0  0  0  0  0  0  0  0  0
   59.6070   34.9780   46.7980 C   0  0  0  0  0  0  0  0  0  0  0  0
   59.3230   35.1160   45.4360 C   0  0  0  0  0  0  0  0  0  0  0  0
   58.7640   34.0530   44.7250 C   0  0  0  0  0  0  0  0  0  0  0  0
   58.4770   32.8450   45.3760 C   0  0  0  0  0  0  0  0  0  0  0  0
   57.7550   31.5000   44.4960 S   0  0  0  0  0  0  0  0  0  0  0  0
   56.2860   31.3870   44.7940 O   0  0  0  0  0  0  0  0  0  0  0  0
   57.9360   31.7310   43.0230 O   0  0  0  0  0  0  0  0  0  0  0  0
   58.5420   30.0190   44.9410 N   0  0  0  0  0  0  0  0  0  0  0  0
   57.8690   28.8150   45.3330 C   0  0  0  0  0  0  0  0  0  0  0  0
   58.6250   27.7500   45.8300 C   0  0  0  0  0  0  0  0  0  0  0  0
   58.0000   26.5650   46.2240 C   0  0  0  0  0  0  0  0  0  0  0  0
   56.5970   26.4570   46.1350 C   0  0  0  0  0  0  0  0  0  0  0  0
   55.9480   25.3810   46.4840 N   0  0  0  0  0  0  0  0  0  0  0  0
   55.3240   24.4170   45.6220 C   0  0  0  0  0  0  0  0  0  0  0  0
   54.0690   24.3170   45.6290 O   0  0  0  0  0  0  0  0  0  0  0  0
   56.1220   23.4770   44.8140 C   0  0  0  0  0  0  0  0  0  0  0  0
   57.4740   23.2310   44.9590 C   0  0  0  0  0  0  0  0  0  0  0  0
   57.7830   22.2910   44.0010 C   0  0  0  0  0  0  0  0  0  0  0  0
   56.6080   22.0270   43.3260 C   0  0  0  0  0  0  0  0  0  0  0  0
   55.6360   22.7490   43.8340 O   0  0  0  0  0  0  0  0  0  0  0  0
   55.8880   27.5000   45.6250 N   0  0  0  0  0  0  0  0  0  0  0  0
   56.4790   28.6590   45.2260 C   0  0  0  0  0  0  0  0  0  0  0  0
   58.7610   32.7080   46.7420 C   0  0  0  0  0  0  0  0  0  0  0  0
   58.7822   34.0664   49.4954 H   0  0  0  0  0  0  0  0  0  0  0  0
   59.7010   32.5562   49.1766 H   0  0  0  0  0  0  0  0  0  0  0  0
   60.5485   34.1400   49.1766 H   0  0  0  0  0  0  0  0  0  0  0  0
   60.0412   35.8210   47.3556 H   0  0  0  0  0  0  0  0  0  0  0  0
   59.5407   36.0647   44.9235 H   0  0  0  0  0  0  0  0  0  0  0  0
   58.5483   34.1632   43.6520 H   0  0  0  0  0  0  0  0  0  0  0  0
   59.7178   27.8456   45.9113 H   0  0  0  0  0  0  0  0  0  0  0  0
   58.5978   25.7221   46.6010 H   0  0  0  0  0  0  0  0  0  0  0  0
   58.1595   23.6897   45.6868 H   0  0  0  0  0  0  0  0  0  0  0  0
   58.7686   21.8408   43.8116 H   0  0  0  0  0  0  0  0  0  0  0  0
   56.5022   21.3197   42.4902 H   0  0  0  0  0  0  0  0  0  0  0  0
   55.8651   29.4758   44.8185 H   0  0  0  0  0  0  0  0  0  0  0  0
   58.5286   31.7642   47.2569 H   0  0  0  0  0  0  0  0  0  0  0  0
  1  2  1  0
  2  3  2  0
  3  4  1  0
  4  5  2  0
  5  6  1  0
  6  7  1  0
  7  8  2  0
  7  9  2  0
  7 10  1  0
 10 11  1  0
 11 12  1  0
 12 13  2  0
 13 14  1  0
 14 15  2  3
 15 16  1  0
 16 17  2  0
 16 18  1  0
 18 19  2  0
 19 20  1  0
 20 21  2  0
 21 22  1  0
 14 23  1  0
 23 24  1  0
  6 25  2  0
 25  2  1  0
 24 11  2  0
 22 18  1  0
  1 26  1  0
  1 27  1  0
  1 28  1  0
  3 29  1  0
  4 30  1  0
  5 31  1  0
 12 32  1  0
 13 33  1  0
 19 34  1  0
 20 35  1  0
 21 36  1  0
 24 37  1  0
 25 38  1  0
M  CHG  2  10  -1  23  -1
M  END
>  <UniqueID>  (21) 
19

>  <SMILES>  (21) 
Cc1cccc(S(=O)(=O)[N-]c2ccc(=NC(=O)c3ccco3)[n-]c2)c1

>  <Energy>  (21) 
77.76180536656808

>  <Genealogy>  (21) 
Cc1cccc(S(=O)(=O)[N-]c2ccc(=NC(=O)c3ccco3)[n-]c2)c1 (protonated)
Cc1cccc(S(=O)(=O)[N-]c2ccc(=NC(=O)c3ccco3)[n-]c2)c1 (3D coordinates assigned)
Cc1cccc(S(=O)(=O)[N-]c2ccc(=NC(=O)c3ccco3)[n-]c2)c1 (optimized conformer: 77.76180536656808 kcal/mol)

>  <smiles>  (21) 
Cc1cccc(S(=O)(=O)Nc2ccc(=NC(=O)c3ccco3)[nH]c2)c1

>  <score_type>  (21) 
oracle

>  <origin>  (21) 
adg

>  <m_score__min__energy>  (21) 
-11.869999999999999

>  <m_primary>  (21) 
energy

$$$$
21:0
     RDKit          3D

 29 32  0  0  0  0  0  0  0  0999 V2000
   58.5770   32.8200   44.1140 H   0  0  0  0  0  0  0  0  0  0  0  0
   58.2950   31.9260   43.6500 N   0  0  0  0  0  0  0  0  0  0  0  0
   57.5020   31.0610   44.2040 C   0  0  0  0  0  0  0  0  0  0  0  0
   56.2680   30.7880   43.5930 C   0  0  0  0  0  0  0  0  0  0  0  0
   55.9032   31.4311   42.7785 H   0  0  0  0  0  0  0  0  0  0  0  0
   55.5080   29.7060   44.0170 C   0  0  0  0  0  0  0  0  0  0  0  0
   54.5184   29.5207   43.5740 H   0  0  0  0  0  0  0  0  0  0  0  0
   55.9870   28.8790   44.9770 N   0  0  0  0  0  0  0  0  0  0  0  0
   57.1620   29.1190   45.6160 C   0  0  0  0  0  0  0  0  0  0  0  0
   57.6470   28.1620   46.5030 C   0  0  0  0  0  0  0  0  0  0  0  0
   57.0449   27.2699   46.7303 H   0  0  0  0  0  0  0  0  0  0  0  0
   58.8870   28.3300   47.1010 C   0  0  0  0  0  0  0  0  0  0  0  0
   59.3164   27.5221   47.7116 H   0  0  0  0  0  0  0  0  0  0  0  0
   59.5900   29.5220   46.9290 C   0  0  0  0  0  0  0  0  0  0  0  0
   61.0730   29.7170   47.7030 S   0  0  0  0  0  0  0  0  0  0  0  0
   61.7000   31.2590   47.4920 C   0  0  0  0  0  0  0  0  0  0  0  0
   60.9090   32.2140   46.8200 C   0  0  0  0  0  0  0  0  0  0  0  0
   61.4260   33.5250   46.7310 C   0  0  0  0  0  0  0  0  0  0  0  0
   60.8385   34.3080   46.2292 H   0  0  0  0  0  0  0  0  0  0  0  0
   62.6730   33.8390   47.2720 C   0  0  0  0  0  0  0  0  0  0  0  0
   63.0708   34.8614   47.1912 H   0  0  0  0  0  0  0  0  0  0  0  0
   63.4100   32.8480   47.9150 C   0  0  0  0  0  0  0  0  0  0  0  0
   64.3965   33.0858   48.3396 H   0  0  0  0  0  0  0  0  0  0  0  0
   62.9130   31.5880   48.0190 N   0  0  0  0  0  0  0  0  0  0  0  0
   63.4760   30.8660   48.5210 H   0  0  0  0  0  0  0  0  0  0  0  0
   59.6260   31.9100   46.2640 C   0  0  0  0  0  0  0  0  0  0  0  0
   58.9070   32.8890   45.9230 O   0  0  0  0  0  0  0  0  0  0  0  0
   59.0730   30.5860   46.1450 C   0  0  0  0  0  0  0  0  0  0  0  0
   57.9130   30.2980   45.3390 C   0  0  0  0  0  0  0  0  0  0  0  0
  1  2  1  0
  2  3  2  0
  3  4  1  0
  4  5  1  0
  4  6  2  0
  6  7  1  0
  6  8  1  0
  8  9  1  0
  9 10  2  0
 10 11  1  0
 10 12  1  0
 12 13  1  0
 12 14  2  0
 14 15  1  0
 15 16  1  0
 16 17  2  0
 17 18  1  0
 18 19  1  0
 18 20  2  0
 20 21  1  0
 20 22  1  0
 22 23  1  0
 22 24  2  0
 24 25  1  0
 17 26  1  0
 26 27  2  0
 26 28  1  0
 28 29  2  0
 29  3  1  0
 29  9  1  0
 28 14  1  0
 24 16  1  0
M  CHG  2   8  -1  24   1
M  END
>  <UniqueID>  (22) 
20

>  <SMILES>  (22) 
[H]/N=c1\cc[n-]c2ccc3sc4[nH+]cccc4c(=O)c3c12

>  <Energy>  (22) 
69.56447954990846

>  <Genealogy>  (22) 
N=c1cc[n-]c2ccc3sc4[nH+]cccc4c(=O)c3c12 (protonated)
[H]/N=c1\cc[n-]c2ccc3sc4[nH+]cccc4c(=O)c3c12 (cis-trans isomerization)
[H]/N=c1\cc[n-]c2ccc3sc4[nH+]cccc4c(=O)c3c12 (3D coordinates assigned)
[H]/N=c1\cc[n-]c2ccc3sc4[nH+]cccc4c(=O)c3c12 (optimized conformer: 69.56447954990846 kcal/mol)

>  <smiles>  (22) 
N=c1cc[nH]c2ccc3sc4ncccc4c(=O)c3c12

>  <score_type>  (22) 
oracle

>  <origin>  (22) 
adg

>  <m_score__min__energy>  (22) 
-6.96

>  <m_primary>  (22) 
energy

$$$$
22:0
     RDKit          3D

 52 55  0  0  1  0  0  0  0  0999 V2000
   56.2690   30.0650   43.1520 C   0  0  0  0  0  0  0  0  0  0  0  0
   57.0320   30.3930   44.4180 C   0  0  0  0  0  0  0  0  0  0  0  0
   56.6510   31.6760   44.8800 O   0  0  0  0  0  0  0  0  0  0  0  0
   57.5320   32.6300   45.3270 C   0  0  0  0  0  0  0  0  0  0  0  0
   57.9330   33.6610   44.5080 C   0  0  0  0  0  0  0  0  0  0  0  0
   58.8100   34.6510   44.8830 C   0  0  0  0  0  0  0  0  0  0  0  0
   59.3100   34.5940   46.1650 C   0  0  0  0  0  0  0  0  0  0  0  0
   58.9510   33.5900   47.0380 C   0  0  0  0  0  0  0  0  0  0  0  0
   59.6050   33.5590   48.7080 S   0  0  0  0  0  0  0  0  0  0  0  0
   59.3150   34.9500   49.1180 O   0  0  0  0  0  0  0  0  0  0  0  0
   61.0280   33.2200   48.4130 O   0  0  0  0  0  0  0  0  0  0  0  0
   58.6490   32.3220   49.3570 N   0  0  0  0  0  0  0  0  0  0  0  0
   59.0890   31.1640   49.5950 C   0  0  0  0  0  0  0  0  0  0  0  0
   59.2420   30.6900   50.8650 N   0  0  0  0  0  0  0  0  0  0  0  0
   59.7120   29.4570   50.7970 N   0  0  0  0  0  0  0  0  0  0  0  0
   59.8690   29.1250   49.5060 C   0  0  0  0  0  0  0  0  0  0  0  0
   59.4770   30.1990   48.6910 C   0  0  0  0  0  0  0  0  0  0  0  0
   59.5290   30.1170   47.2670 C   0  0  0  0  0  0  0  0  0  0  0  0
   60.6940   29.1790   46.8550 C   0  0  0  0  0  0  0  0  0  0  0  0
   60.4100   27.9030   47.4580 N   0  0  0  0  0  0  0  0  0  0  0  0
   60.1800   26.6790   46.7310 C   0  0  0  0  0  0  0  0  0  0  0  0
   58.7440   26.3900   46.5050 C   0  0  0  0  0  0  0  0  0  0  0  0
   58.1370   25.2090   46.8850 C   0  0  0  0  0  0  0  0  0  0  0  0
   56.7860   25.0440   46.6260 C   0  0  0  0  0  0  0  0  0  0  0  0
   56.0240   26.0170   46.0000 C   0  0  0  0  0  0  0  0  0  0  0  0
   56.6480   27.2010   45.6250 C   0  0  0  0  0  0  0  0  0  0  0  0
   57.9900   27.3770   45.8770 C   0  0  0  0  0  0  0  0  0  0  0  0
   60.3700   27.8810   48.9030 C   0  0  0  0  0  0  0  0  0  0  0  0
   60.7300   26.8880   49.5640 O   0  0  0  0  0  0  0  0  0  0  0  0
   58.0690   32.6240   46.6080 C   0  0  0  0  0  0  0  0  0  0  0  0
   55.2876   29.6431   43.4143 H   0  0  0  0  0  0  0  0  0  0  0  0
   56.1278   30.9819   42.5610 H   0  0  0  0  0  0  0  0  0  0  0  0
   56.8373   29.3317   42.5610 H   0  0  0  0  0  0  0  0  0  0  0  0
   56.8027   29.6427   45.1890 H   0  0  0  0  0  0  0  0  0  0  0  0
   58.1117   30.3848   44.2078 H   0  0  0  0  0  0  0  0  0  0  0  0
   57.5252   33.6950   43.4870 H   0  0  0  0  0  0  0  0  0  0  0  0
   59.0998   35.4539   44.1892 H   0  0  0  0  0  0  0  0  0  0  0  0
   60.0139   35.3698   46.5007 H   0  0  0  0  0  0  0  0  0  0  0  0
   59.0370   31.1720   51.7670 H   0  0  0  0  0  0  0  0  0  0  0  0
   59.9330   28.8320   51.5940 H   0  0  0  0  0  0  0  0  0  0  0  0
   58.5791   29.7137   46.8863 H   0  0  0  0  0  0  0  0  0  0  0  0
   59.6925   31.1191   46.8437 H   0  0  0  0  0  0  0  0  0  0  0  0
   60.7379   29.0827   45.7601 H   0  0  0  0  0  0  0  0  0  0  0  0
   61.6653   29.5739   47.1875 H   0  0  0  0  0  0  0  0  0  0  0  0
   60.6785   26.7551   45.7534 H   0  0  0  0  0  0  0  0  0  0  0  0
   60.5846   25.8579   47.3410 H   0  0  0  0  0  0  0  0  0  0  0  0
   58.7142   24.4159   47.3829 H   0  0  0  0  0  0  0  0  0  0  0  0
   56.3000   24.1048   46.9289 H   0  0  0  0  0  0  0  0  0  0  0  0
   54.9534   25.8568   45.8049 H   0  0  0  0  0  0  0  0  0  0  0  0
   56.0713   27.9951   45.1283 H   0  0  0  0  0  0  0  0  0  0  0  0
   58.4761   28.3167   45.5759 H   0  0  0  0  0  0  0  0  0  0  0  0
   57.7801   31.8209   47.3020 H   0  0  0  0  0  0  0  0  0  0  0  0
  1  2  1  0
  2  3  1  0
  3  4  1  0
  4  5  2  0
  5  6  1  0
  6  7  2  0
  7  8  1  0
  8  9  1  0
  9 10  2  0
  9 11  2  0
  9 12  1  0
 12 13  2  0
 13 14  1  0
 14 15  1  0
 15 16  1  0
 16 17  2  0
 17 18  1  0
 18 19  1  0
 19 20  1  0
 20 21  1  0
 21 22  1  0
 22 23  2  0
 23 24  1  0
 24 25  2  0
 25 26  1  0
 26 27  2  0
 20 28  1  0
 28 29  2  0
  8 30  2  0
 30  4  1  0
 17 13  1  0
 27 22  1  0
 28 16  1  0
  1 31  1  0
  1 32  1  0
  1 33  1  0
  2 34  1  0
  2 35  1  0
  5 36  1  0
  6 37  1  0
  7 38  1  0
 14 39  1  0
 15 40  1  0
 18 41  1  0
 18 42  1  0
 19 43  1  0
 19 44  1  0
 21 45  1  0
 21 46  1  0
 23 47  1  0
 24 48  1  0
 25 49  1  0
 26 50  1  0
 27 51  1  0
 30 52  1  0
M  END
>  <smiles>  (23) 
CCOc1cccc(S(=O)(=O)N=c2[nH][nH]c3c2CCN(Cc2ccccc2)C3=O)c1

>  <score_type>  (23) 
oracle

>  <origin>  (23) 
adg

>  <m_score__min__energy>  (23) 
-9.3900000000000006

>  <m_primary>  (23) 
energy

$$$$
23:0
     RDKit          3D

 31 32  0  0  0  0  0  0  0  0999 V2000
   55.4370   29.7050   43.4910 C   0  0  0  0  0  0  0  0  0  0  0  0
   55.5200   29.2670   44.8770 N   0  0  0  0  0  0  0  0  0  0  0  0
   56.4390   28.2770   45.3490 C   0  0  0  0  0  0  0  0  0  0  0  0
   56.0050   27.1410   45.6720 O   0  0  0  0  0  0  0  0  0  0  0  0
   57.8840   28.5570   45.4580 C   0  0  0  0  0  0  0  0  0  0  0  0
   58.7620   27.4790   45.6500 C   0  0  0  0  0  0  0  0  0  0  0  0
   60.1360   27.6950   45.7670 C   0  0  0  0  0  0  0  0  0  0  0  0
   60.6480   28.9900   45.6920 C   0  0  0  0  0  0  0  0  0  0  0  0
   59.7880   30.0730   45.5010 C   0  0  0  0  0  0  0  0  0  0  0  0
   58.3980   29.8780   45.3840 C   0  0  0  0  0  0  0  0  0  0  0  0
   57.5380   31.0150   45.1340 N   0  0  0  0  0  0  0  0  0  0  0  0
   58.1520   32.2270   45.6260 C   0  0  0  0  0  0  0  0  0  0  0  0
   58.5970   33.2150   44.7280 C   0  0  0  0  0  0  0  0  0  0  0  0
   59.1750   34.3960   45.2040 C   0  0  0  0  0  0  0  0  0  0  0  0
   59.3240   34.5980   46.5780 C   0  0  0  0  0  0  0  0  0  0  0  0
   58.8980   33.6180   47.4790 C   0  0  0  0  0  0  0  0  0  0  0  0
   58.3200   32.4360   47.0080 C   0  0  0  0  0  0  0  0  0  0  0  0
   55.2323   30.7853   43.4595 H   0  0  0  0  0  0  0  0  0  0  0  0
   56.3904   29.4975   42.9832 H   0  0  0  0  0  0  0  0  0  0  0  0
   54.6256   29.1631   42.9832 H   0  0  0  0  0  0  0  0  0  0  0  0
   58.3639   26.4552   45.7088 H   0  0  0  0  0  0  0  0  0  0  0  0
   60.8154   26.8432   45.9184 H   0  0  0  0  0  0  0  0  0  0  0  0
   61.7312   29.1584   45.7835 H   0  0  0  0  0  0  0  0  0  0  0  0
   60.2009   31.0908   45.4412 H   0  0  0  0  0  0  0  0  0  0  0  0
   56.6160   30.8910   45.6140 H   0  0  0  0  0  0  0  0  0  0  0  0
   57.3270   31.0850   44.1120 H   0  0  0  0  0  0  0  0  0  0  0  0
   58.4895   33.0572   43.6447 H   0  0  0  0  0  0  0  0  0  0  0  0
   59.5127   35.1668   44.4956 H   0  0  0  0  0  0  0  0  0  0  0  0
   59.7767   35.5285   46.9511 H   0  0  0  0  0  0  0  0  0  0  0  0
   59.0179   33.7774   48.5608 H   0  0  0  0  0  0  0  0  0  0  0  0
   57.9944   31.6645   47.7213 H   0  0  0  0  0  0  0  0  0  0  0  0
  1  2  1  0
  2  3  1  0
  3  4  2  0
  3  5  1  0
  5  6  2  0
  6  7  1  0
  7  8  2  0
  8  9  1  0
  9 10  2  0
 10 11  1  0
 11 12  1  0
 12 13  2  0
 13 14  1  0
 14 15  2  0
 15 16  1  0
 16 17  2  0
 10  5  1  0
 17 12  1  0
  1 18  1  0
  1 19  1  0
  1 20  1  0
  6 21  1  0
  7 22  1  0
  8 23  1  0
  9 24  1  0
 11 25  1  0
 11 26  1  0
 13 27  1  0
 14 28  1  0
 15 29  1  0
 16 30  1  0
 17 31  1  0
M  CHG  2   2  -1  11   1
M  END
>  <UniqueID>  (24) 
21

>  <SMILES>  (24) 
C[N-]C(=O)c1ccccc1[NH2+]c1ccccc1

>  <Energy>  (24) 
38.16188766050864

>  <Genealogy>  (24) 
C[N-]C(=O)c1ccccc1[NH2+]c1ccccc1 (protonated)
C[N-]C(=O)c1ccccc1[NH2+]c1ccccc1 (3D coordinates assigned)
C[N-]C(=O)c1ccccc1[NH2+]c1ccccc1 (optimized conformer: 38.16188766050864 kcal/mol)

>  <smiles>  (24) 
CNC(=O)c1ccccc1Nc1ccccc1

>  <score_type>  (24) 
oracle

>  <origin>  (24) 
adg

>  <m_score__min__energy>  (24) 
-7.3600000000000003

>  <m_primary>  (24) 
energy

$$$$
24:0
     RDKit          3D

 31 33  0  0  0  0  0  0  0  0999 V2000
   60.5946   28.6531   43.6069 H   0  0  0  0  0  0  0  0  0  0  0  0
   60.0840   28.5630   44.5770 C   0  0  0  0  0  0  0  0  0  0  0  0
   60.6190   29.1450   45.6830 N   0  0  0  0  0  0  0  0  0  0  0  0
   60.0180   29.0570   46.8990 C   0  0  0  0  0  0  0  0  0  0  0  0
   60.7750   29.8370   48.3220 S   0  0  0  0  0  0  0  0  0  0  0  0
   60.4410   31.4860   47.7040 C   0  0  0  0  0  0  0  0  0  0  0  0
   61.1950   32.5700   48.1590 C   0  0  0  0  0  0  0  0  0  0  0  0
   61.9967   32.4114   48.8953 H   0  0  0  0  0  0  0  0  0  0  0  0
   60.9320   33.8550   47.6800 C   0  0  0  0  0  0  0  0  0  0  0  0
   61.5273   34.7057   48.0431 H   0  0  0  0  0  0  0  0  0  0  0  0
   59.9160   34.0680   46.7410 C   0  0  0  0  0  0  0  0  0  0  0  0
   59.6760   35.7060   46.1390 Cl  0  0  0  0  0  0  0  0  0  0  0  0
   59.1510   32.9760   46.2720 C   0  0  0  0  0  0  0  0  0  0  0  0
   58.0530   33.1560   45.2920 C   0  0  0  0  0  0  0  0  0  0  0  0
   58.0920   34.1280   44.4920 O   0  0  0  0  0  0  0  0  0  0  0  0
   56.8850   32.3200   45.2980 N   0  0  0  0  0  0  0  0  0  0  0  0
   56.6370   31.3310   44.4900 C   0  0  0  0  0  0  0  0  0  0  0  0
   55.8800   30.2790   44.8580 N   0  0  0  0  0  0  0  0  0  0  0  0
   55.7240   29.3890   43.8410 C   0  0  0  0  0  0  0  0  0  0  0  0
   55.1449   28.4606   43.9538 H   0  0  0  0  0  0  0  0  0  0  0  0
   56.3490   29.7370   42.6490 C   0  0  0  0  0  0  0  0  0  0  0  0
   56.3378   29.1502   41.7187 H   0  0  0  0  0  0  0  0  0  0  0  0
   57.1250   31.2110   42.8770 S   0  0  0  0  0  0  0  0  0  0  0  0
   59.4240   31.6880   46.7650 C   0  0  0  0  0  0  0  0  0  0  0  0
   58.8326   30.8315   46.4092 H   0  0  0  0  0  0  0  0  0  0  0  0
   58.8150   28.3560   47.0340 C   0  0  0  0  0  0  0  0  0  0  0  0
   58.3205   28.2840   48.0139 H   0  0  0  0  0  0  0  0  0  0  0  0
   58.2490   27.7490   45.9120 C   0  0  0  0  0  0  0  0  0  0  0  0
   57.3046   27.1925   46.0036 H   0  0  0  0  0  0  0  0  0  0  0  0
   58.8850   27.8500   44.6720 C   0  0  0  0  0  0  0  0  0  0  0  0
   58.1860   27.0930   43.2530 Cl  0  0  0  0  0  0  0  0  0  0  0  0
  1  2  1  0
  2  3  2  0
  3  4  1  0
  4  5  1  0
  5  6  1  0
  6  7  2  0
  7  8  1  0
  7  9  1  0
  9 10  1  0
  9 11  2  0
 11 12  1  0
 11 13  1  0
 13 14  1  0
 14 15  2  0
 14 16  1  0
 16 17  2  0
 17 18  1  0
 18 19  1  0
 19 20  1  0
 19 21  2  0
 21 22  1  0
 21 23  1  0
 13 24  2  0
 24 25  1  0
  4 26  2  0
 26 27  1  0
 26 28  1  0
 28 29  1  0
 28 30  2  0
 30 31  1  0
 30  2  1  0
 24  6  1  0
 23 17  1  0
M  CHG  1  18  -1
M  END
>  <UniqueID>  (25) 
22

>  <SMILES>  (25) 
O=C(/N=c1/[n-]ccs1)c1cc(Sc2ccc(Cl)cn2)ccc1Cl

>  <Energy>  (25) 
70.62607342665503

>  <Genealogy>  (25) 
O=C(N=c1[n-]ccs1)c1cc(Sc2ccc(Cl)cn2)ccc1Cl (protonated)
O=C(/N=c1/[n-]ccs1)c1cc(Sc2ccc(Cl)cn2)ccc1Cl (cis-trans isomerization)
O=C(/N=c1/[n-]ccs1)c1cc(Sc2ccc(Cl)cn2)ccc1Cl (3D coordinates assigned)
O=C(/N=c1/[n-]ccs1)c1cc(Sc2ccc(Cl)cn2)ccc1Cl (optimized conformer: 70.62607342665503 kcal/mol)

>  <smiles>  (25) 
O=C(N=c1[nH]ccs1)c1cc(Sc2ccc(Cl)cn2)ccc1Cl

>  <score_type>  (25) 
oracle

>  <origin>  (25) 
adg

>  <m_score__min__energy>  (25) 
-10.31

>  <m_primary>  (25) 
energy

$$$$
25:0
     RDKit          3D

 37 39  0  0  0  0  0  0  0  0999 V2000
   55.7440   26.9290   45.9170 O   0  0  0  0  0  0  0  0  0  0  0  0
   56.4070   27.9330   45.5410 C   0  0  0  0  0  0  0  0  0  0  0  0
   55.7680   29.0160   44.8540 N   0  0  0  0  0  0  0  0  0  0  0  0
   56.4160   30.0780   44.1410 C   0  0  0  0  0  0  0  0  0  0  0  0
   56.4230   30.1400   42.7350 C   0  0  0  0  0  0  0  0  0  0  0  0
   57.0500   31.2040   42.0820 C   0  0  0  0  0  0  0  0  0  0  0  0
   57.6650   32.2180   42.8190 C   0  0  0  0  0  0  0  0  0  0  0  0
   57.6470   32.1770   44.2180 C   0  0  0  0  0  0  0  0  0  0  0  0
   58.4220   33.4500   45.1560 S   0  0  0  0  0  0  0  0  0  0  0  0
   57.3790   34.4500   45.5660 O   0  0  0  0  0  0  0  0  0  0  0  0
   59.4750   34.1450   44.3390 O   0  0  0  0  0  0  0  0  0  0  0  0
   59.1610   32.7790   46.5770 N   0  0  0  0  0  0  0  0  0  0  0  0
   60.5820   32.7190   46.7920 C   0  0  0  0  0  0  0  0  0  0  0  0
   61.3630   33.8550   46.5240 C   0  0  0  0  0  0  0  0  0  0  0  0
   62.7460   33.8310   46.7290 C   0  0  0  0  0  0  0  0  0  0  0  0
   63.3630   32.6720   47.2020 C   0  0  0  0  0  0  0  0  0  0  0  0
   62.6000   31.5330   47.4670 C   0  0  0  0  0  0  0  0  0  0  0  0
   61.2170   31.5510   47.2610 C   0  0  0  0  0  0  0  0  0  0  0  0
   57.0100   31.1140   44.8740 C   0  0  0  0  0  0  0  0  0  0  0  0
   57.8590   27.9650   45.7610 C   0  0  0  0  0  0  0  0  0  0  0  0
   58.8370   27.9840   44.7730 C   0  0  0  0  0  0  0  0  0  0  0  0
   60.1400   28.0150   45.2860 C   0  0  0  0  0  0  0  0  0  0  0  0
   60.1920   28.0210   46.6750 C   0  0  0  0  0  0  0  0  0  0  0  0
   58.6170   27.9890   47.2630 S   0  0  0  0  0  0  0  0  0  0  0  0
   55.9334   29.3485   42.1486 H   0  0  0  0  0  0  0  0  0  0  0  0
   57.0592   31.2431   40.9827 H   0  0  0  0  0  0  0  0  0  0  0  0
   58.1640   33.0496   42.2999 H   0  0  0  0  0  0  0  0  0  0  0  0
   58.5240   32.3260   47.2710 H   0  0  0  0  0  0  0  0  0  0  0  0
   60.8828   34.7712   46.1497 H   0  0  0  0  0  0  0  0  0  0  0  0
   63.3484   34.7267   46.5172 H   0  0  0  0  0  0  0  0  0  0  0  0
   64.4506   32.6558   47.3661 H   0  0  0  0  0  0  0  0  0  0  0  0
   63.0878   30.6198   47.8385 H   0  0  0  0  0  0  0  0  0  0  0  0
   60.6215   30.6491   47.4660 H   0  0  0  0  0  0  0  0  0  0  0  0
   56.9763   31.0932   45.9733 H   0  0  0  0  0  0  0  0  0  0  0  0
   58.6103   27.9755   43.6966 H   0  0  0  0  0  0  0  0  0  0  0  0
   61.0372   28.0329   44.6499 H   0  0  0  0  0  0  0  0  0  0  0  0
   61.1070   28.0429   47.2852 H   0  0  0  0  0  0  0  0  0  0  0  0
  1  2  2  0
  2  3  1  0
  3  4  1  0
  4  5  2  0
  5  6  1  0
  6  7  2  0
  7  8  1  0
  8  9  1  0
  9 10  2  0
  9 11  2  0
  9 12  1  0
 12 13  1  0
 13 14  2  0
 14 15  1  0
 15 16  2  0
 16 17  1  0
 17 18  2  0
  8 19  2  0
  2 20  1  0
 20 21  2  0
 21 22  1  0
 22 23  2  0
 23 24  1  0
 19  4  1  0
 24 20  1  0
 18 13  1  0
  5 25  1  0
  6 26  1  0
  7 27  1  0
 12 28  1  0
 14 29  1  0
 15 30  1  0
 16 31  1  0
 17 32  1  0
 18 33  1  0
 19 34  1  0
 21 35  1  0
 22 36  1  0
 23 37  1  0
M  CHG  1   3  -1
M  END
>  <UniqueID>  (26) 
23

>  <SMILES>  (26) 
O=C([N-]c1cccc(S(=O)(=O)Nc2ccccc2)c1)c1cccs1

>  <Energy>  (26) 
70.7126788216245

>  <Genealogy>  (26) 
O=C([N-]c1cccc(S(=O)(=O)Nc2ccccc2)c1)c1cccs1 (protonated)
O=C([N-]c1cccc(S(=O)(=O)Nc2ccccc2)c1)c1cccs1 (3D coordinates assigned)
O=C([N-]c1cccc(S(=O)(=O)Nc2ccccc2)c1)c1cccs1 (optimized conformer: 70.7126788216245 kcal/mol)

>  <smiles>  (26) 
O=C(Nc1cccc(S(=O)(=O)Nc2ccccc2)c1)c1cccs1

>  <score_type>  (26) 
oracle

>  <origin>  (26) 
adg

>  <m_score__min__energy>  (26) 
-10.890000000000001

>  <m_primary>  (26) 
energy

$$$$
26:0
     RDKit          3D

 35 37  0  0  0  0  0  0  0  0999 V2000
   60.1420   34.3530   47.5070 C   0  0  0  0  0  0  0  0  0  0  0  0
   58.7730   34.5560   46.8610 C   0  0  0  0  0  0  0  0  0  0  0  0
   58.9690   34.5600   45.3510 C   0  0  0  0  0  0  0  0  0  0  0  0
   57.6210   33.5880   44.6250 S   0  0  0  0  0  0  0  0  0  0  0  0
   57.7760   31.9010   45.1940 C   0  0  0  0  0  0  0  0  0  0  0  0
   56.9160   30.9270   44.8270 N   0  0  0  0  0  0  0  0  0  0  0  0
   57.0660   29.6470   45.2830 C   0  0  0  0  0  0  0  0  0  0  0  0
   56.2510   28.7070   44.9370 N   0  0  0  0  0  0  0  0  0  0  0  0
   58.1100   29.3380   46.1340 C   0  0  0  0  0  0  0  0  0  0  0  0
   58.5640   28.2040   46.7730 C   0  0  0  0  0  0  0  0  0  0  0  0
   59.6590   28.5770   47.4750 N   0  0  0  0  0  0  0  0  0  0  0  0
   59.9130   29.8580   47.3160 N   0  0  0  0  0  0  0  0  0  0  0  0
   61.0170   30.5390   47.9400 C   0  0  0  0  0  0  0  0  0  0  0  0
   61.2110   30.4900   49.3160 C   0  0  0  0  0  0  0  0  0  0  0  0
   62.2990   31.1760   49.8170 C   0  0  0  0  0  0  0  0  0  0  0  0
   63.1700   31.8820   49.0240 C   0  0  0  0  0  0  0  0  0  0  0  0
   64.2470   32.5600   49.5240 F   0  0  0  0  0  0  0  0  0  0  0  0
   62.9740   31.9260   47.6640 C   0  0  0  0  0  0  0  0  0  0  0  0
   61.8960   31.2530   47.1230 C   0  0  0  0  0  0  0  0  0  0  0  0
   58.9780   30.3510   46.4960 C   0  0  0  0  0  0  0  0  0  0  0  0
   58.7870   31.5950   46.0190 N   0  0  0  0  0  0  0  0  0  0  0  0
   60.0367   34.3686   48.6018 H   0  0  0  0  0  0  0  0  0  0  0  0
   60.5559   33.3837   47.1922 H   0  0  0  0  0  0  0  0  0  0  0  0
   60.8194   35.1605   47.1922 H   0  0  0  0  0  0  0  0  0  0  0  0
   58.0978   33.7367   47.1489 H   0  0  0  0  0  0  0  0  0  0  0  0
   58.3271   35.5049   47.1939 H   0  0  0  0  0  0  0  0  0  0  0  0
   58.9356   35.5916   44.9705 H   0  0  0  0  0  0  0  0  0  0  0  0
   59.9452   34.1281   45.0855 H   0  0  0  0  0  0  0  0  0  0  0  0
   56.5080   28.1400   44.1010 H   0  0  0  0  0  0  0  0  0  0  0  0
   58.1240   27.1971   46.7223 H   0  0  0  0  0  0  0  0  0  0  0  0
   60.5296   29.9310   49.9742 H   0  0  0  0  0  0  0  0  0  0  0  0
   62.4767   31.1562   50.9024 H   0  0  0  0  0  0  0  0  0  0  0  0
   63.6642   32.4878   47.0175 H   0  0  0  0  0  0  0  0  0  0  0  0
   61.7280   31.2798   46.0362 H   0  0  0  0  0  0  0  0  0  0  0  0
   59.4480   32.3450   46.3020 H   0  0  0  0  0  0  0  0  0  0  0  0
  1  2  1  0
  2  3  1  0
  3  4  1  0
  4  5  1  0
  5  6  2  0
  6  7  1  0
  7  8  2  3
  7  9  1  0
  9 10  1  0
 10 11  2  0
 11 12  1  0
 12 13  1  0
 13 14  2  0
 14 15  1  0
 15 16  2  0
 16 17  1  0
 16 18  1  0
 18 19  2  0
 12 20  1  0
 20 21  1  0
 21  5  1  0
 20  9  2  0
 19 13  1  0
  1 22  1  0
  1 23  1  0
  1 24  1  0
  2 25  1  0
  2 26  1  0
  3 27  1  0
  3 28  1  0
  8 29  1  0
 10 30  1  0
 14 31  1  0
 15 32  1  0
 18 33  1  0
 19 34  1  0
 21 35  1  0
M  END
>  <smiles>  (27) 
CCCSc1nc(=N)c2cnn(-c3ccc(F)cc3)c2[nH]1

>  <score_type>  (27) 
oracle

>  <origin>  (27) 
adg

>  <m_score__min__energy>  (27) 
-6.4800000000000004

>  <m_primary>  (27) 
energy

$$$$
27:0
     RDKit          3D

 38 39  0  0  0  0  0  0  0  0999 V2000
   57.0470   28.5710   45.5940 C   0  0  0  0  0  0  0  0  0  0  0  0
   56.4210   29.8010   45.2440 O   0  0  0  0  0  0  0  0  0  0  0  0
   56.8610   30.6580   44.2220 C   0  0  0  0  0  0  0  0  0  0  0  0
   56.5730   30.4010   42.8670 C   0  0  0  0  0  0  0  0  0  0  0  0
   57.0280   31.2650   41.8700 C   0  0  0  0  0  0  0  0  0  0  0  0
   57.7690   32.3940   42.2090 C   0  0  0  0  0  0  0  0  0  0  0  0
   58.0600   32.6650   43.5460 C   0  0  0  0  0  0  0  0  0  0  0  0
   57.6150   31.8030   44.5680 C   0  0  0  0  0  0  0  0  0  0  0  0
   57.9180   32.0650   45.9540 N   0  0  0  0  0  0  0  0  0  0  0  0
   58.9970   33.3120   46.4970 S   0  0  0  0  0  0  0  0  0  0  0  0
   58.2810   34.1820   47.4910 O   0  0  0  0  0  0  0  0  0  0  0  0
   59.4020   34.1490   45.3160 O   0  0  0  0  0  0  0  0  0  0  0  0
   60.4140   32.6050   47.2850 C   0  0  0  0  0  0  0  0  0  0  0  0
   61.6430   33.2790   47.2210 C   0  0  0  0  0  0  0  0  0  0  0  0
   62.7820   32.7460   47.8400 C   0  0  0  0  0  0  0  0  0  0  0  0
   64.0770   33.5020   47.8120 C   0  0  0  0  0  0  0  0  0  0  0  0
   62.6820   31.5400   48.5430 C   0  0  0  0  0  0  0  0  0  0  0  0
   61.4680   30.8530   48.5960 C   0  0  0  0  0  0  0  0  0  0  0  0
   60.3230   31.3740   47.9620 C   0  0  0  0  0  0  0  0  0  0  0  0
   59.0930   30.6950   47.9860 O   0  0  0  0  0  0  0  0  0  0  0  0
   58.9040   29.3800   48.4960 C   0  0  0  0  0  0  0  0  0  0  0  0
   57.0926   28.4815   46.6894 H   0  0  0  0  0  0  0  0  0  0  0  0
   56.4656   27.7333   45.1815 H   0  0  0  0  0  0  0  0  0  0  0  0
   58.0665   28.5480   45.1815 H   0  0  0  0  0  0  0  0  0  0  0  0
   55.9851   29.5126   42.5929 H   0  0  0  0  0  0  0  0  0  0  0  0
   56.8009   31.0537   40.8146 H   0  0  0  0  0  0  0  0  0  0  0  0
   58.1256   33.0735   41.4209 H   0  0  0  0  0  0  0  0  0  0  0  0
   58.6430   33.5610   43.8053 H   0  0  0  0  0  0  0  0  0  0  0  0
   57.5120   31.4530   46.6960 H   0  0  0  0  0  0  0  0  0  0  0  0
   61.7132   34.2343   46.6802 H   0  0  0  0  0  0  0  0  0  0  0  0
   64.4103   33.6966   48.8421 H   0  0  0  0  0  0  0  0  0  0  0  0
   64.8381   32.9063   47.2867 H   0  0  0  0  0  0  0  0  0  0  0  0
   63.9324   34.4576   47.2867 H   0  0  0  0  0  0  0  0  0  0  0  0
   63.5648   31.1313   49.0565 H   0  0  0  0  0  0  0  0  0  0  0  0
   61.4049   29.8973   49.1371 H   0  0  0  0  0  0  0  0  0  0  0  0
   58.9082   29.4091   49.5956 H   0  0  0  0  0  0  0  0  0  0  0  0
   57.9399   28.9850   48.1433 H   0  0  0  0  0  0  0  0  0  0  0  0
   59.7179   28.7294   48.1433 H   0  0  0  0  0  0  0  0  0  0  0  0
  1  2  1  0
  2  3  1  0
  3  4  2  0
  4  5  1  0
  5  6  2  0
  6  7  1  0
  7  8  2  0
  8  9  1  0
  9 10  1  0
 10 11  2  0
 10 12  2  0
 10 13  1  0
 13 14  2  0
 14 15  1  0
 15 16  1  0
 15 17  2  0
 17 18  1  0
 18 19  2  0
 19 20  1  0
 20 21  1  0
  8  3  1  0
 19 13  1  0
  1 22  1  0
  1 23  1  0
  1 24  1  0
  4 25  1  0
  5 26  1  0
  6 27  1  0
  7 28  1  0
  9 29  1  0
 14 30  1  0
 16 31  1  0
 16 32  1  0
 16 33  1  0
 17 34  1  0
 18 35  1  0
 21 36  1  0
 21 37  1  0
 21 38  1  0
M  END
>  <UniqueID>  (28) 
24

>  <SMILES>  (28) 
COc1ccccc1NS(=O)(=O)c1cc(C)ccc1OC

>  <Energy>  (28) 
40.39321363080789

>  <Genealogy>  (28) 
COc1ccccc1NS(=O)(=O)c1cc(C)ccc1OC (3D coordinates assigned)
COc1ccccc1NS(=O)(=O)c1cc(C)ccc1OC (optimized conformer: 40.39321363080789 kcal/mol)

>  <smiles>  (28) 
COc1ccccc1NS(=O)(=O)c1cc(C)ccc1OC

>  <score_type>  (28) 
oracle

>  <origin>  (28) 
adg

>  <m_score__min__energy>  (28) 
-7.4400000000000004

>  <m_primary>  (28) 
energy

$$$$
28:0
     RDKit          3D

 31 31  0  0  0  0  0  0  0  0999 V2000
   60.4620   34.2150   46.3900 C   0  0  0  0  0  0  0  0  0  0  0  0
   59.2130   34.5180   46.0240 C   0  0  0  0  0  0  0  0  0  0  0  0
   58.0220   33.8210   46.6240 C   0  0  0  0  0  0  0  0  0  0  0  0
   57.0440   33.3280   45.5520 C   0  0  0  0  0  0  0  0  0  0  0  0
   57.2670   31.9100   45.2620 N   0  0  0  0  0  0  0  0  0  0  0  0
   57.8110   31.4020   44.0280 C   0  0  0  0  0  0  0  0  0  0  0  0
   57.7880   32.3060   42.6580 S   0  0  0  0  0  0  0  0  0  0  0  0
   58.2260   30.0300   43.9350 N   0  0  0  0  0  0  0  0  0  0  0  0
   58.6660   29.2550   45.0650 C   0  0  0  0  0  0  0  0  0  0  0  0
   59.1760   29.8990   46.2070 C   0  0  0  0  0  0  0  0  0  0  0  0
   59.6410   29.1560   47.2930 C   0  0  0  0  0  0  0  0  0  0  0  0
   59.6180   27.7620   47.2480 C   0  0  0  0  0  0  0  0  0  0  0  0
   59.1290   27.1070   46.1160 C   0  0  0  0  0  0  0  0  0  0  0  0
   58.6450   27.8410   45.0190 C   0  0  0  0  0  0  0  0  0  0  0  0
   58.1250   27.1110   43.8110 C   0  0  0  0  0  0  0  0  0  0  0  0
   61.3123   34.7424   45.9330 H   0  0  0  0  0  0  0  0  0  0  0  0
   60.6398   33.4382   47.1483 H   0  0  0  0  0  0  0  0  0  0  0  0
   59.0513   35.2971   45.2645 H   0  0  0  0  0  0  0  0  0  0  0  0
   58.3731   32.9576   47.2082 H   0  0  0  0  0  0  0  0  0  0  0  0
   57.4912   34.5437   47.2611 H   0  0  0  0  0  0  0  0  0  0  0  0
   56.0138   33.4654   45.9122 H   0  0  0  0  0  0  0  0  0  0  0  0
   57.2063   33.9075   44.6312 H   0  0  0  0  0  0  0  0  0  0  0  0
   57.0170   31.2280   46.0120 H   0  0  0  0  0  0  0  0  0  0  0  0
   58.2260   29.5800   42.9920 H   0  0  0  0  0  0  0  0  0  0  0  0
   59.2086   30.9979   46.2443 H   0  0  0  0  0  0  0  0  0  0  0  0
   60.0262   29.6704   48.1858 H   0  0  0  0  0  0  0  0  0  0  0  0
   59.9854   27.1783   48.1049 H   0  0  0  0  0  0  0  0  0  0  0  0
   59.1224   26.0075   46.0823 H   0  0  0  0  0  0  0  0  0  0  0  0
   57.5150   26.2547   44.1345 H   0  0  0  0  0  0  0  0  0  0  0  0
   57.5083   27.7933   43.2076 H   0  0  0  0  0  0  0  0  0  0  0  0
   58.9714   26.7511   43.2076 H   0  0  0  0  0  0  0  0  0  0  0  0
  1  2  2  0
  2  3  1  0
  3  4  1  0
  4  5  1  0
  5  6  1  0
  6  7  2  0
  6  8  1  0
  8  9  1  0
  9 10  2  0
 10 11  1  0
 11 12  2  0
 12 13  1  0
 13 14  2  0
 14 15  1  0
 14  9  1  0
  1 16  1  0
  1 17  1  0
  2 18  1  0
  3 19  1  0
  3 20  1  0
  4 21  1  0
  4 22  1  0
  5 23  1  0
  8 24  1  0
 10 25  1  0
 11 26  1  0
 12 27  1  0
 13 28  1  0
 15 29  1  0
 15 30  1  0
 15 31  1  0
M  END
>  <UniqueID>  (29) 
25

>  <SMILES>  (29) 
C=CCCNC(=S)Nc1ccccc1C

>  <Energy>  (29) 
28.103716584745843

>  <Genealogy>  (29) 
C=CCCNC(=S)Nc1ccccc1C (3D coordinates assigned)
C=CCCNC(=S)Nc1ccccc1C (optimized conformer: 28.103716584745843 kcal/mol)

>  <smiles>  (29) 
C=CCCNC(=S)Nc1ccccc1C

>  <score_type>  (29) 
oracle

>  <origin>  (29) 
adg

>  <m_score__min__energy>  (29) 
-5.8099999999999996

>  <m_primary>  (29) 
energy

$$$$
29:0
     RDKit          3D

 32 34  0  0  0  0  0  0  0  0999 V2000
   56.3170   30.0840   43.4380 C   0  0  0  0  0  0  0  0  0  0  0  0
   56.2980   31.0340   44.4990 O   0  0  0  0  0  0  0  0  0  0  0  0
   57.4240   31.4070   45.2470 C   0  0  0  0  0  0  0  0  0  0  0  0
   57.7250   32.7490   45.5410 C   0  0  0  0  0  0  0  0  0  0  0  0
   58.8600   33.0710   46.2900 C   0  0  0  0  0  0  0  0  0  0  0  0
   59.7170   32.0600   46.7620 C   0  0  0  0  0  0  0  0  0  0  0  0
   60.9230   32.3880   47.5570 C   0  0  0  0  0  0  0  0  0  0  0  0
   60.9060   33.2410   48.6130 N   0  0  0  0  0  0  0  0  0  0  0  0
   62.1390   33.3690   49.1670 C   0  0  0  0  0  0  0  0  0  0  0  0
   62.4290   34.1770   50.2660 C   0  0  0  0  0  0  0  0  0  0  0  0
   63.7500   34.2200   50.7420 C   0  0  0  0  0  0  0  0  0  0  0  0
   64.7700   33.4620   50.1260 C   0  0  0  0  0  0  0  0  0  0  0  0
   66.0680   33.5470   50.6480 O   0  0  0  0  0  0  0  0  0  0  0  0
   67.0670   32.5460   50.4810 C   0  0  0  0  0  0  0  0  0  0  0  0
   64.4560   32.6480   49.0130 C   0  0  0  0  0  0  0  0  0  0  0  0
   63.1390   32.6260   48.5630 C   0  0  0  0  0  0  0  0  0  0  0  0
   62.4810   31.7660   47.2830 S   0  0  0  0  0  0  0  0  0  0  0  0
   59.4100   30.7190   46.4650 C   0  0  0  0  0  0  0  0  0  0  0  0
   58.2750   30.4000   45.7150 C   0  0  0  0  0  0  0  0  0  0  0  0
   56.3373   29.0670   43.8567 H   0  0  0  0  0  0  0  0  0  0  0  0
   55.4162   30.2077   42.8189 H   0  0  0  0  0  0  0  0  0  0  0  0
   57.2121   30.2436   42.8189 H   0  0  0  0  0  0  0  0  0  0  0  0
   57.0632   33.5498   45.1793 H   0  0  0  0  0  0  0  0  0  0  0  0
   59.0854   34.1244   46.5125 H   0  0  0  0  0  0  0  0  0  0  0  0
   61.6388   34.7691   50.7507 H   0  0  0  0  0  0  0  0  0  0  0  0
   63.9936   34.8536   51.6076 H   0  0  0  0  0  0  0  0  0  0  0  0
   67.4101   32.2022   51.4679 H   0  0  0  0  0  0  0  0  0  0  0  0
   66.6456   31.6969   49.9230 H   0  0  0  0  0  0  0  0  0  0  0  0
   67.9170   32.9658   49.9230 H   0  0  0  0  0  0  0  0  0  0  0  0
   65.2323   32.0479   48.5159 H   0  0  0  0  0  0  0  0  0  0  0  0
   60.0688   29.9156   46.8262 H   0  0  0  0  0  0  0  0  0  0  0  0
   58.0485   29.3473   45.4904 H   0  0  0  0  0  0  0  0  0  0  0  0
  1  2  1  0
  2  3  1  0
  3  4  2  0
  4  5  1  0
  5  6  2  0
  6  7  1  0
  7  8  2  0
  8  9  1  0
  9 10  2  0
 10 11  1  0
 11 12  2  0
 12 13  1  0
 13 14  1  0
 12 15  1  0
 15 16  2  0
 16 17  1  0
  6 18  1  0
 18 19  2  0
 19  3  1  0
 17  7  1  0
 16  9  1  0
  1 20  1  0
  1 21  1  0
  1 22  1  0
  4 23  1  0
  5 24  1  0
 10 25  1  0
 11 26  1  0
 14 27  1  0
 14 28  1  0
 14 29  1  0
 15 30  1  0
 18 31  1  0
 19 32  1  0
M  END
>  <UniqueID>  (30) 
26

>  <SMILES>  (30) 
COc1ccc(-c2nc3ccc(OC)cc3s2)cc1

>  <Energy>  (30) 
68.566112117434

>  <Genealogy>  (30) 
COc1ccc(-c2nc3ccc(OC)cc3s2)cc1 (3D coordinates assigned)
COc1ccc(-c2nc3ccc(OC)cc3s2)cc1 (optimized conformer: 68.566112117434 kcal/mol)

>  <smiles>  (30) 
COc1ccc(-c2nc3ccc(OC)cc3s2)cc1

>  <score_type>  (30) 
oracle

>  <origin>  (30) 
adg

>  <m_score__min__energy>  (30) 
-5.9000000000000004

>  <m_primary>  (30) 
energy

$$$$
30:0
     RDKit          3D

 35 37  0  0  0  0  0  0  0  0999 V2000
   57.0350   31.1790   42.4150 C   0  0  0  0  0  0  0  0  0  0  0  0
   56.5560   30.0220   43.0310 C   0  0  0  0  0  0  0  0  0  0  0  0
   56.6880   29.8510   44.4210 C   0  0  0  0  0  0  0  0  0  0  0  0
   56.2000   28.6730   45.0940 N   0  0  0  0  0  0  0  0  0  0  0  0
   57.0680   27.5930   45.5840 C   0  0  2  0  0  0  0  0  0  0  0  0
   57.8830   28.0360   46.8340 C   0  0  0  0  0  0  0  0  0  0  0  0
   59.2470   27.3480   46.8440 C   0  0  0  0  0  0  0  0  0  0  0  0
   60.0110   27.6510   45.5450 C   0  0  0  0  0  0  0  0  0  0  0  0
   59.0500   27.8740   44.3650 C   0  0  0  0  0  0  0  0  0  0  0  0
   57.8800   27.0980   44.5220 O   0  0  0  0  0  0  0  0  0  0  0  0
   57.3040   30.8650   45.1760 C   0  0  0  0  0  0  0  0  0  0  0  0
   57.7910   32.0340   44.5620 C   0  0  0  0  0  0  0  0  0  0  0  0
   58.4440   33.0970   45.3680 C   0  0  0  0  0  0  0  0  0  0  0  0
   58.4660   33.1070   46.7760 C   0  0  0  0  0  0  0  0  0  0  0  0
   59.1300   34.1970   47.3190 C   0  0  0  0  0  0  0  0  0  0  0  0
   59.6910   35.1490   46.0570 S   0  0  0  0  0  0  0  0  0  0  0  0
   59.1020   34.1920   44.8090 C   0  0  0  0  0  0  0  0  0  0  0  0
   57.6480   32.1780   43.1700 C   0  0  0  0  0  0  0  0  0  0  0  0
   56.9283   31.3035   41.3273 H   0  0  0  0  0  0  0  0  0  0  0  0
   56.0729   29.2400   42.4267 H   0  0  0  0  0  0  0  0  0  0  0  0
   55.1680   28.5960   45.2440 H   0  0  0  0  0  0  0  0  0  0  0  0
   56.4422   26.7559   45.9269 H   0  0  0  0  0  0  0  0  0  0  0  0
   58.0260   29.1263   46.8071 H   0  0  0  0  0  0  0  0  0  0  0  0
   57.3308   27.7525   47.7421 H   0  0  0  0  0  0  0  0  0  0  0  0
   59.8309   27.7139   47.7014 H   0  0  0  0  0  0  0  0  0  0  0  0
   59.0973   26.2612   46.9240 H   0  0  0  0  0  0  0  0  0  0  0  0
   60.6162   28.5581   45.6895 H   0  0  0  0  0  0  0  0  0  0  0  0
   60.6503   26.7870   45.3110 H   0  0  0  0  0  0  0  0  0  0  0  0
   58.7745   28.9380   44.3195 H   0  0  0  0  0  0  0  0  0  0  0  0
   59.5541   27.5708   43.4355 H   0  0  0  0  0  0  0  0  0  0  0  0
   57.4069   30.7425   46.2643 H   0  0  0  0  0  0  0  0  0  0  0  0
   57.9992   32.3221   47.3892 H   0  0  0  0  0  0  0  0  0  0  0  0
   59.2653   34.4017   48.3913 H   0  0  0  0  0  0  0  0  0  0  0  0
   59.2159   34.3944   43.7338 H   0  0  0  0  0  0  0  0  0  0  0  0
   58.0225   33.0854   42.6736 H   0  0  0  0  0  0  0  0  0  0  0  0
  1  2  2  0
  2  3  1  0
  3  4  1  0
  4  5  1  0
  5  6  1  0
  6  7  1  0
  7  8  1  0
  8  9  1  0
  9 10  1  0
  3 11  2  0
 11 12  1  0
 12 13  1  0
 13 14  1  0
 14 15  2  0
 15 16  1  0
 16 17  1  0
 12 18  2  0
 18  1  1  0
 10  5  1  0
 17 13  2  0
  1 19  1  0
  2 20  1  0
  4 21  1  0
  5 22  1  1
  6 23  1  0
  6 24  1  0
  7 25  1  0
  7 26  1  0
  8 27  1  0
  8 28  1  0
  9 29  1  0
  9 30  1  0
 11 31  1  0
 14 32  1  0
 15 33  1  0
 17 34  1  0
 18 35  1  0
M  END
>  <UniqueID>  (31) 
27

>  <SMILES>  (31) 
c1cc(N[C@@H]2CCCCO2)cc(-c2ccsc2)c1

>  <Energy>  (31) 
72.43930546352321

>  <Genealogy>  (31) 
c1cc(N[C@@H]2CCCCO2)cc(-c2ccsc2)c1 (chirality)
c1cc(N[C@@H]2CCCCO2)cc(-c2ccsc2)c1 (3D coordinates assigned)
c1cc(N[C@@H]2CCCCO2)cc(-c2ccsc2)c1 (nonaromatic ring conformer: 72.43930546352321 kcal/mol)

>  <smiles>  (31) 
c1cc(NC2CCCCO2)cc(-c2ccsc2)c1

>  <score_type>  (31) 
oracle

>  <origin>  (31) 
adg

>  <m_score__min__energy>  (31) 
-7.9000000000000004

>  <m_primary>  (31) 
energy

$$$$
31:0
     RDKit          3D

 27 29  0  0  0  0  0  0  0  0999 V2000
   55.1460   29.4540   44.6790 O   0  0  0  0  0  0  0  0  0  0  0  0
   56.3430   29.1040   44.8500 C   0  0  0  0  0  0  0  0  0  0  0  0
   56.7390   27.9620   45.6010 N   0  0  0  0  0  0  0  0  0  0  0  0
   58.0330   27.9980   45.5330 C   0  0  0  0  0  0  0  0  0  0  0  0
   58.8910   27.0800   46.1390 C   0  0  0  0  0  0  0  0  0  0  0  0
   60.2770   27.2640   45.9930 C   0  0  0  0  0  0  0  0  0  0  0  0
   60.7800   28.3530   45.2540 C   0  0  0  0  0  0  0  0  0  0  0  0
   59.9040   29.2690   44.6480 C   0  0  0  0  0  0  0  0  0  0  0  0
   58.5280   29.0690   44.7990 C   0  0  0  0  0  0  0  0  0  0  0  0
   57.5170   29.7910   44.3320 C   0  0  0  0  0  0  0  0  0  0  0  0
   57.5600   31.0890   43.5820 C   0  0  0  0  0  0  0  0  0  0  0  0
   57.7990   32.2250   44.5320 C   0  0  0  0  0  0  0  0  0  0  0  0
   58.4960   33.3710   44.1230 C   0  0  0  0  0  0  0  0  0  0  0  0
   58.7350   34.3920   45.0450 C   0  0  0  0  0  0  0  0  0  0  0  0
   58.2860   34.2610   46.3600 C   0  0  0  0  0  0  0  0  0  0  0  0
   57.6040   33.1020   46.7360 C   0  0  0  0  0  0  0  0  0  0  0  0
   57.3820   32.1170   45.8240 N   0  0  0  0  0  0  0  0  0  0  0  0
   58.4928   26.2330   46.7169 H   0  0  0  0  0  0  0  0  0  0  0  0
   60.9742   26.5523   46.4593 H   0  0  0  0  0  0  0  0  0  0  0  0
   61.8669   28.4870   45.1507 H   0  0  0  0  0  0  0  0  0  0  0  0
   60.2903   30.1213   44.0698 H   0  0  0  0  0  0  0  0  0  0  0  0
   58.3739   31.0554   42.8428 H   0  0  0  0  0  0  0  0  0  0  0  0
   56.5976   31.2424   43.0719 H   0  0  0  0  0  0  0  0  0  0  0  0
   58.8510   33.4647   43.0861 H   0  0  0  0  0  0  0  0  0  0  0  0
   59.2763   35.2982   44.7354 H   0  0  0  0  0  0  0  0  0  0  0  0
   58.4674   35.0618   47.0920 H   0  0  0  0  0  0  0  0  0  0  0  0
   57.2462   32.9853   47.7696 H   0  0  0  0  0  0  0  0  0  0  0  0
  1  2  2  0
  2  3  1  0
  3  4  2  0
  4  5  1  0
  5  6  2  0
  6  7  1  0
  7  8  2  0
  8  9  1  0
  9 10  2  0
 10 11  1  0
 11 12  1  0
 12 13  2  0
 13 14  1  0
 14 15  2  0
 15 16  1  0
 16 17  2  0
 10  2  1  0
 17 12  1  0
  9  4  1  0
  5 18  1  0
  6 19  1  0
  7 20  1  0
  8 21  1  0
 11 22  1  0
 11 23  1  0
 13 24  1  0
 14 25  1  0
 15 26  1  0
 16 27  1  0
M  END
>  <UniqueID>  (32) 
28

>  <SMILES>  (32) 
O=C1N=c2ccccc2=C1Cc1ccccn1

>  <Energy>  (32) 
60.678985620722585

>  <Genealogy>  (32) 
O=C1N=c2ccccc2=C1Cc1ccccn1 (3D coordinates assigned)
O=C1N=c2ccccc2=C1Cc1ccccn1 (nonaromatic ring conformer: 60.678985620722585 kcal/mol)

>  <smiles>  (32) 
O=C1N=c2ccccc2=C1Cc1ccccn1

>  <score_type>  (32) 
oracle

>  <origin>  (32) 
adg

>  <m_score__min__energy>  (32) 
-7.29

>  <m_primary>  (32) 
energy

$$$$
32:0
     RDKit          3D

 36 38  0  0  0  0  0  0  0  0999 V2000
   56.9720   21.7530   43.2350 C   0  0  0  0  0  0  0  0  0  0  0  0
   56.1530   23.0320   43.0890 C   0  0  0  0  0  0  0  0  0  0  0  0
   56.6150   24.1020   44.0870 C   0  0  0  0  0  0  0  0  0  0  0  0
   55.9810   23.9030   45.4630 C   0  0  0  0  0  0  0  0  0  0  0  0
   55.5670   25.1580   45.9970 O   0  0  0  0  0  0  0  0  0  0  0  0
   56.4350   26.2440   46.1330 C   0  0  0  0  0  0  0  0  0  0  0  0
   57.6630   26.0820   46.8170 C   0  0  0  0  0  0  0  0  0  0  0  0
   58.5170   27.1400   46.9590 N   0  0  0  0  0  0  0  0  0  0  0  0
   58.1490   28.3270   46.4240 C   0  0  0  0  0  0  0  0  0  0  0  0
   58.8450   29.4810   46.4710 N   0  0  0  0  0  0  0  0  0  0  0  0
   58.0870   30.3710   45.8240 N   0  0  0  0  0  0  0  0  0  0  0  0
   58.4510   31.7520   45.6390 C   0  0  0  0  0  0  0  0  0  0  0  0
   59.0580   32.4810   46.6790 C   0  0  0  0  0  0  0  0  0  0  0  0
   59.3960   33.8250   46.4980 C   0  0  0  0  0  0  0  0  0  0  0  0
   59.1290   34.4580   45.2820 C   0  0  0  0  0  0  0  0  0  0  0  0
   58.5190   33.7480   44.2460 C   0  0  0  0  0  0  0  0  0  0  0  0
   58.1760   32.4030   44.4200 C   0  0  0  0  0  0  0  0  0  0  0  0
   57.5990   31.7330   43.3900 F   0  0  0  0  0  0  0  0  0  0  0  0
   56.9580   29.7400   45.4120 C   0  0  0  0  0  0  0  0  0  0  0  0
   55.9950   30.2850   44.8070 O   0  0  0  0  0  0  0  0  0  0  0  0
   56.9910   28.4570   45.7800 N   0  0  0  0  0  0  0  0  0  0  0  0
   56.1180   27.4700   45.6170 N   0  0  0  0  0  0  0  0  0  0  0  0
   57.1153   21.5292   44.3024 H   0  0  0  0  0  0  0  0  0  0  0  0
   56.4392   20.9195   42.7539 H   0  0  0  0  0  0  0  0  0  0  0  0
   57.9519   21.8882   42.7539 H   0  0  0  0  0  0  0  0  0  0  0  0
   56.2717   23.4196   42.0664 H   0  0  0  0  0  0  0  0  0  0  0  0
   55.0982   22.7962   43.2936 H   0  0  0  0  0  0  0  0  0  0  0  0
   57.7090   24.0472   44.1873 H   0  0  0  0  0  0  0  0  0  0  0  0
   56.3029   25.0850   43.7046 H   0  0  0  0  0  0  0  0  0  0  0  0
   55.1072   23.2415   45.3689 H   0  0  0  0  0  0  0  0  0  0  0  0
   56.7216   23.4505   46.1389 H   0  0  0  0  0  0  0  0  0  0  0  0
   57.9315   25.1010   47.2361 H   0  0  0  0  0  0  0  0  0  0  0  0
   59.2677   31.9896   47.6405 H   0  0  0  0  0  0  0  0  0  0  0  0
   59.8734   34.3856   47.3152 H   0  0  0  0  0  0  0  0  0  0  0  0
   59.3990   35.5149   45.1406 H   0  0  0  0  0  0  0  0  0  0  0  0
   58.3073   34.2481   43.2894 H   0  0  0  0  0  0  0  0  0  0  0  0
  1  2  1  0
  2  3  1  0
  3  4  1  0
  4  5  1  0
  5  6  1  0
  6  7  1  0
  7  8  2  0
  8  9  1  0
  9 10  2  0
 10 11  1  0
 11 12  1  0
 12 13  2  0
 13 14  1  0
 14 15  2  0
 15 16  1  0
 16 17  2  0
 17 18  1  0
 11 19  1  0
 19 20  2  0
 19 21  1  0
 21 22  1  0
 22  6  2  0
 21  9  1  0
 17 12  1  0
  1 23  1  0
  1 24  1  0
  1 25  1  0
  2 26  1  0
  2 27  1  0
  3 28  1  0
  3 29  1  0
  4 30  1  0
  4 31  1  0
  7 32  1  0
 13 33  1  0
 14 34  1  0
 15 35  1  0
 16 36  1  0
M  END
>  <UniqueID>  (33) 
29

>  <SMILES>  (33) 
CCCCOc1cnc2nn(-c3ccccc3F)c(=O)n2n1

>  <Energy>  (33) 
82.96023344199084

>  <Genealogy>  (33) 
CCCCOc1cnc2nn(-c3ccccc3F)c(=O)n2n1 (3D coordinates assigned)
CCCCOc1cnc2nn(-c3ccccc3F)c(=O)n2n1 (optimized conformer: 82.96023344199084 kcal/mol)

>  <smiles>  (33) 
CCCCOc1cnc2nn(-c3ccccc3F)c(=O)n2n1

>  <score_type>  (33) 
oracle

>  <origin>  (33) 
adg

>  <m_score__min__energy>  (33) 
-6.7599999999999998

>  <m_primary>  (33) 
energy

$$$$
33:0
     RDKit          3D

 50 53  0  0  0  0  0  0  0  0999 V2000
   57.0780   33.8400   46.3460 C   0  0  0  0  0  0  0  0  0  0  0  0
   58.0850   32.7360   46.1940 C   0  0  0  0  0  0  0  0  0  0  0  0
   59.2930   32.7840   46.9020 C   0  0  0  0  0  0  0  0  0  0  0  0
   60.2080   31.7370   46.8000 C   0  0  0  0  0  0  0  0  0  0  0  0
   59.9280   30.6320   45.9920 C   0  0  0  0  0  0  0  0  0  0  0  0
   58.7100   30.5510   45.2830 C   0  0  0  0  0  0  0  0  0  0  0  0
   57.7870   31.6140   45.4050 C   0  0  0  0  0  0  0  0  0  0  0  0
   58.4290   29.3600   44.5020 N   0  0  0  0  0  0  0  0  0  0  0  0
   57.1570   29.1560   43.7870 C   0  0  0  0  0  0  0  0  0  0  0  0
   56.0270   28.9630   44.7640 C   0  0  0  0  0  0  0  0  0  0  0  0
   55.1450   29.8540   44.8730 O   0  0  0  0  0  0  0  0  0  0  0  0
   55.9580   27.8160   45.6210 N   0  0  0  0  0  0  0  0  0  0  0  0
   57.0530   27.2270   46.3360 C   0  0  0  0  0  0  0  0  0  0  0  0
   57.8710   28.0020   47.1760 C   0  0  0  0  0  0  0  0  0  0  0  0
   58.9540   27.4180   47.8390 C   0  0  0  0  0  0  0  0  0  0  0  0
   59.2380   26.0620   47.6590 C   0  0  0  0  0  0  0  0  0  0  0  0
   58.4420   25.2890   46.8100 C   0  0  0  0  0  0  0  0  0  0  0  0
   57.3560   25.8670   46.1390 C   0  0  0  0  0  0  0  0  0  0  0  0
   56.5420   25.0520   45.2870 N   0  0  0  0  0  0  0  0  0  0  0  0
   55.1310   24.8580   45.6200 C   0  0  0  0  0  0  0  0  0  0  0  0
   54.6210   23.5690   44.9690 C   0  0  0  0  0  0  0  0  0  0  0  0
   54.9180   23.5540   43.5850 O   0  0  0  0  0  0  0  0  0  0  0  0
   56.3200   23.5130   43.3960 C   0  0  0  0  0  0  0  0  0  0  0  0
   56.9780   24.7960   43.9140 C   0  0  0  0  0  0  0  0  0  0  0  0
   59.4100   28.3030   44.4890 C   0  0  0  0  0  0  0  0  0  0  0  0
   59.1120   27.1520   44.0710 O   0  0  0  0  0  0  0  0  0  0  0  0
   60.8200   28.5900   44.9040 C   0  0  0  0  0  0  0  0  0  0  0  0
   60.8590   29.5910   45.9190 O   0  0  0  0  0  0  0  0  0  0  0  0
   56.9029   34.0320   47.4149 H   0  0  0  0  0  0  0  0  0  0  0  0
   57.4604   34.7535   45.8672 H   0  0  0  0  0  0  0  0  0  0  0  0
   56.1332   33.5430   45.8672 H   0  0  0  0  0  0  0  0  0  0  0  0
   59.5203   33.6505   47.5404 H   0  0  0  0  0  0  0  0  0  0  0  0
   61.1548   31.7811   47.3583 H   0  0  0  0  0  0  0  0  0  0  0  0
   56.8241   31.5616   44.8757 H   0  0  0  0  0  0  0  0  0  0  0  0
   56.9482   30.0365   43.1615 H   0  0  0  0  0  0  0  0  0  0  0  0
   57.2421   28.2564   43.1597 H   0  0  0  0  0  0  0  0  0  0  0  0
   57.6580   29.0726   47.3122 H   0  0  0  0  0  0  0  0  0  0  0  0
   59.5840   28.0272   48.5038 H   0  0  0  0  0  0  0  0  0  0  0  0
   60.0879   25.6032   48.1855 H   0  0  0  0  0  0  0  0  0  0  0  0
   58.6687   24.2221   46.6677 H   0  0  0  0  0  0  0  0  0  0  0  0
   55.0194   24.7854   46.7119 H   0  0  0  0  0  0  0  0  0  0  0  0
   54.5470   25.7117   45.2456 H   0  0  0  0  0  0  0  0  0  0  0  0
   55.1037   22.7060   45.4509 H   0  0  0  0  0  0  0  0  0  0  0  0
   53.5296   23.5173   45.0963 H   0  0  0  0  0  0  0  0  0  0  0  0
   56.7321   22.6511   43.9413 H   0  0  0  0  0  0  0  0  0  0  0  0
   56.5275   23.4208   42.3197 H   0  0  0  0  0  0  0  0  0  0  0  0
   58.0717   24.6807   43.8928 H   0  0  0  0  0  0  0  0  0  0  0  0
   56.6841   25.6411   43.2741 H   0  0  0  0  0  0  0  0  0  0  0  0
   61.2763   27.6670   45.2910 H   0  0  0  0  0  0  0  0  0  0  0  0
   61.3760   28.9562   44.0283 H   0  0  0  0  0  0  0  0  0  0  0  0
  1  2  1  0
  2  3  2  0
  3  4  1  0
  4  5  2  0
  5  6  1  0
  6  7  2  0
  6  8  1  0
  8  9  1  0
  9 10  1  0
 10 11  2  0
 10 12  1  0
 12 13  1  0
 13 14  2  0
 14 15  1  0
 15 16  2  0
 16 17  1  0
 17 18  2  0
 18 19  1  0
 19 20  1  0
 20 21  1  0
 21 22  1  0
 22 23  1  0
 23 24  1  0
  8 25  1  0
 25 26  2  0
 25 27  1  0
 27 28  1  0
  7  2  1  0
 18 13  1  0
 24 19  1  0
 28  5  1  0
  1 29  1  0
  1 30  1  0
  1 31  1  0
  3 32  1  0
  4 33  1  0
  7 34  1  0
  9 35  1  0
  9 36  1  0
 14 37  1  0
 15 38  1  0
 16 39  1  0
 17 40  1  0
 20 41  1  0
 20 42  1  0
 21 43  1  0
 21 44  1  0
 23 45  1  0
 23 46  1  0
 24 47  1  0
 24 48  1  0
 27 49  1  0
 27 50  1  0
M  CHG  1  12  -1
M  END
>  <UniqueID>  (34) 
30

>  <SMILES>  (34) 
Cc1ccc2c(c1)N(CC(=O)[N-]c1ccccc1N1CCOCC1)C(=O)CO2

>  <Energy>  (34) 
67.94519436131498

>  <Genealogy>  (34) 
Cc1ccc2c(c1)N(CC(=O)[N-]c1ccccc1N1CCOCC1)C(=O)CO2 (protonated)
Cc1ccc2c(c1)N(CC(=O)[N-]c1ccccc1N1CCOCC1)C(=O)CO2 (3D coordinates assigned)
Cc1ccc2c(c1)N(CC(=O)[N-]c1ccccc1N1CCOCC1)C(=O)CO2 (nonaromatic ring conformer: 67.94519436131498 kcal/mol)

>  <smiles>  (34) 
Cc1ccc2c(c1)N(CC(=O)Nc1ccccc1N1CCOCC1)C(=O)CO2

>  <score_type>  (34) 
oracle

>  <origin>  (34) 
adg

>  <m_score__min__energy>  (34) 
-9.2599999999999998

>  <m_primary>  (34) 
energy

$$$$
34:0
     RDKit          3D

 32 33  0  0  0  0  0  0  0  0999 V2000
   56.8648   26.1299   46.7341 H   0  0  0  0  0  0  0  0  0  0  0  0
   57.0260   27.1290   46.3030 C   0  0  0  0  0  0  0  0  0  0  0  0
   56.1500   27.8280   45.6170 O   0  0  0  0  0  0  0  0  0  0  0  0
   56.7370   28.9520   45.2690 C   0  0  0  0  0  0  0  0  0  0  0  0
   56.1220   29.8710   44.5820 N   0  0  0  0  0  0  0  0  0  0  0  0
   56.5950   30.5580   43.4130 C   0  0  0  0  0  0  0  0  0  0  0  0
   56.3020   30.1570   42.2540 O   0  0  0  0  0  0  0  0  0  0  0  0
   57.3800   31.8280   43.5790 C   0  0  1  0  0  0  0  0  0  0  0  0
   56.6768   32.6438   43.8026 H   0  0  0  0  0  0  0  0  0  0  0  0
   58.3120   31.7020   44.6550 O   0  0  0  0  0  0  0  0  0  0  0  0
   58.6640   32.7270   45.5480 C   0  0  0  0  0  0  0  0  0  0  0  0
   59.1260   33.9870   45.1170 C   0  0  0  0  0  0  0  0  0  0  0  0
   59.2227   34.1966   44.0415 H   0  0  0  0  0  0  0  0  0  0  0  0
   59.4620   34.9720   46.0520 C   0  0  0  0  0  0  0  0  0  0  0  0
   59.8216   35.9540   45.7108 H   0  0  0  0  0  0  0  0  0  0  0  0
   59.3410   34.7090   47.4200 C   0  0  0  0  0  0  0  0  0  0  0  0
   59.6035   35.4847   48.1544 H   0  0  0  0  0  0  0  0  0  0  0  0
   58.8870   33.4620   47.8540 C   0  0  0  0  0  0  0  0  0  0  0  0
   58.7942   33.2555   48.9305 H   0  0  0  0  0  0  0  0  0  0  0  0
   58.5500   32.4750   46.9220 C   0  0  0  0  0  0  0  0  0  0  0  0
   58.1931   31.4944   47.2698 H   0  0  0  0  0  0  0  0  0  0  0  0
   58.1410   32.1400   42.2940 C   0  0  0  0  0  0  0  0  0  0  0  0
   59.1321   32.5463   42.5443 H   0  0  0  0  0  0  0  0  0  0  0  0
   58.2605   31.2183   41.7056 H   0  0  0  0  0  0  0  0  0  0  0  0
   57.5791   32.8803   41.7056 H   0  0  0  0  0  0  0  0  0  0  0  0
   58.0090   29.0290   45.7200 N   0  0  0  0  0  0  0  0  0  0  0  0
   58.7090   29.7950   45.6210 H   0  0  0  0  0  0  0  0  0  0  0  0
   58.1830   27.8730   46.3850 C   0  0  0  0  0  0  0  0  0  0  0  0
   59.4630   27.4500   47.0280 C   0  0  0  0  0  0  0  0  0  0  0  0
   59.3533   27.4863   48.1219 H   0  0  0  0  0  0  0  0  0  0  0  0
   59.7074   26.4233   46.7178 H   0  0  0  0  0  0  0  0  0  0  0  0
   60.2710   28.1289   46.7178 H   0  0  0  0  0  0  0  0  0  0  0  0
  1  2  1  0
  2  3  1  0
  3  4  1  0
  4  5  2  0
  5  6  1  0
  6  7  2  0
  6  8  1  0
  8  9  1  1
  8 10  1  0
 10 11  1  0
 11 12  2  0
 12 13  1  0
 12 14  1  0
 14 15  1  0
 14 16  2  0
 16 17  1  0
 16 18  1  0
 18 19  1  0
 18 20  2  0
 20 21  1  0
  8 22  1  0
 22 23  1  0
 22 24  1  0
 22 25  1  0
  4 26  1  0
 26 27  1  0
 26 28  1  0
 28 29  1  0
 29 30  1  0
 29 31  1  0
 29 32  1  0
 28  2  2  0
 20 11  1  0
M  END
>  <UniqueID>  (35) 
31

>  <SMILES>  (35) 
Cc1co/c(=N/C(=O)[C@H](C)Oc2ccccc2)[nH]1

>  <Energy>  (35) 
63.284560941816565

>  <Genealogy>  (35) 
Cc1coc(=NC(=O)[C@H](C)Oc2ccccc2)[nH]1 (chirality)
Cc1co/c(=N/C(=O)[C@H](C)Oc2ccccc2)[nH]1 (cis-trans isomerization)
Cc1co/c(=N/C(=O)[C@H](C)Oc2ccccc2)[nH]1 (3D coordinates assigned)
Cc1co/c(=N/C(=O)[C@H](C)Oc2ccccc2)[nH]1 (optimized conformer: 63.284560941816565 kcal/mol)

>  <smiles>  (35) 
Cc1coc(=NC(=O)C(C)Oc2ccccc2)[nH]1

>  <score_type>  (35) 
oracle

>  <origin>  (35) 
adg

>  <m_score__min__energy>  (35) 
-7.0499999999999998

>  <m_primary>  (35) 
energy

$$$$
35:0
     RDKit          3D

 33 34  0  0  0  0  0  0  0  0999 V2000
   55.5589   31.5243   44.3758 H   0  0  0  0  0  0  0  0  0  0  0  0
   56.5990   31.1870   44.4960 C   0  0  0  0  0  0  0  0  0  0  0  0
   56.9460   30.0110   43.9500 C   0  0  0  0  0  0  0  0  0  0  0  0
   57.0381   29.9366   42.8564 H   0  0  0  0  0  0  0  0  0  0  0  0
   57.2010   28.8450   44.7530 N   0  0  0  0  0  0  0  0  0  0  0  0
   56.1380   28.1690   45.2020 N   0  0  0  0  0  0  0  0  0  0  0  0
   56.2620   27.0480   45.9600 C   0  0  0  0  0  0  0  0  0  0  0  0
   55.2340   26.4490   46.3670 O   0  0  0  0  0  0  0  0  0  0  0  0
   57.5300   26.5720   46.2800 C   0  0  0  0  0  0  0  0  0  0  0  0
   57.6484   25.6742   46.9045 H   0  0  0  0  0  0  0  0  0  0  0  0
   58.6450   27.2490   45.7980 C   0  0  0  0  0  0  0  0  0  0  0  0
   59.6571   26.8878   46.0330 H   0  0  0  0  0  0  0  0  0  0  0  0
   58.4700   28.3900   45.0140 C   0  0  0  0  0  0  0  0  0  0  0  0
   59.4830   28.9700   44.5360 O   0  0  0  0  0  0  0  0  0  0  0  0
   57.5310   32.0610   45.2520 C   0  0  0  0  0  0  0  0  0  0  0  0
   57.4150   33.4630   45.2650 C   0  0  0  0  0  0  0  0  0  0  0  0
   56.6117   33.9500   44.6927 H   0  0  0  0  0  0  0  0  0  0  0  0
   58.3120   34.2400   45.9990 C   0  0  0  0  0  0  0  0  0  0  0  0
   58.2145   35.3357   45.9951 H   0  0  0  0  0  0  0  0  0  0  0  0
   59.3400   33.6340   46.7440 C   0  0  0  0  0  0  0  0  0  0  0  0
   60.2610   34.3840   47.4920 O   0  0  0  0  0  0  0  0  0  0  0  0
   60.4460   34.2640   48.9000 C   0  0  0  0  0  0  0  0  0  0  0  0
   59.6340   34.7907   49.4227 H   0  0  0  0  0  0  0  0  0  0  0  0
   60.4346   33.2008   49.1820 H   0  0  0  0  0  0  0  0  0  0  0  0
   61.4122   34.7078   49.1820 H   0  0  0  0  0  0  0  0  0  0  0  0
   59.4570   32.2370   46.7500 C   0  0  0  0  0  0  0  0  0  0  0  0
   60.4900   31.6600   47.5080 O   0  0  0  0  0  0  0  0  0  0  0  0
   60.7950   30.2690   47.5290 C   0  0  0  0  0  0  0  0  0  0  0  0
   60.8702   29.9258   48.5714 H   0  0  0  0  0  0  0  0  0  0  0  0
   59.9979   29.7110   47.0159 H   0  0  0  0  0  0  0  0  0  0  0  0
   61.7525   30.0958   47.0159 H   0  0  0  0  0  0  0  0  0  0  0  0
   58.5480   31.4570   46.0080 C   0  0  0  0  0  0  0  0  0  0  0  0
   58.6364   30.3606   46.0213 H   0  0  0  0  0  0  0  0  0  0  0  0
  1  2  1  0
  2  3  2  0
  3  4  1  0
  3  5  1  0
  5  6  1  0
  6  7  1  0
  7  8  2  0
  7  9  1  0
  9 10  1  0
  9 11  2  0
 11 12  1  0
 11 13  1  0
 13 14  2  0
  2 15  1  0
 15 16  2  0
 16 17  1  0
 16 18  1  0
 18 19  1  0
 18 20  2  0
 20 21  1  0
 21 22  1  0
 22 23  1  0
 22 24  1  0
 22 25  1  0
 20 26  1  0
 26 27  1  0
 27 28  1  0
 28 29  1  0
 28 30  1  0
 28 31  1  0
 26 32  2  0
 32 33  1  0
 13  5  1  0
 32 15  1  0
M  CHG  1   6  -1
M  END
>  <UniqueID>  (36) 
32

>  <SMILES>  (36) 
COc1ccc(/C=C/n2[n-]c(=O)ccc2=O)cc1OC

>  <Energy>  (36) 
42.06121651808989

>  <Genealogy>  (36) 
COc1ccc(C=Cn2[n-]c(=O)ccc2=O)cc1OC (protonated)
COc1ccc(/C=C/n2[n-]c(=O)ccc2=O)cc1OC (cis-trans isomerization)
COc1ccc(/C=C/n2[n-]c(=O)ccc2=O)cc1OC (3D coordinates assigned)
COc1ccc(/C=C/n2[n-]c(=O)ccc2=O)cc1OC (optimized conformer: 42.06121651808989 kcal/mol)

>  <smiles>  (36) 
COc1ccc(C=Cn2[nH]c(=O)ccc2=O)cc1OC

>  <score_type>  (36) 
oracle

>  <origin>  (36) 
adg

>  <m_score__min__energy>  (36) 
-8.2100000000000009

>  <m_primary>  (36) 
energy

$$$$
36:0
     RDKit          3D

 48 51  0  0  0  0  0  0  0  0999 V2000
   55.8650   19.5260   44.5080 C   0  0  0  0  0  0  0  0  0  0  0  0
   55.8990   20.6870   43.6820 O   0  0  0  0  0  0  0  0  0  0  0  0
   56.2700   21.9650   44.1260 C   0  0  0  0  0  0  0  0  0  0  0  0
   56.3600   22.1880   45.5060 C   0  0  0  0  0  0  0  0  0  0  0  0
   56.7080   23.4480   46.0000 C   0  0  0  0  0  0  0  0  0  0  0  0
   56.9870   24.5070   45.1170 C   0  0  0  0  0  0  0  0  0  0  0  0
   57.3400   25.8060   45.6290 N   0  0  0  0  0  0  0  0  0  0  0  0
   56.4990   26.8070   45.9730 C   0  0  0  0  0  0  0  0  0  0  0  0
   55.1110   26.7110   45.9450 O   0  0  0  0  0  0  0  0  0  0  0  0
   57.1940   27.9370   46.3610 C   0  0  0  0  0  0  0  0  0  0  0  0
   58.5300   27.6160   46.2210 C   0  0  0  0  0  0  0  0  0  0  0  0
   59.9280   28.7020   46.5030 S   0  0  0  0  0  0  0  0  0  0  0  0
   59.0910   30.1590   45.8460 C   0  0  0  0  0  0  0  0  0  0  0  0
   58.7650   30.1460   44.4810 C   0  0  0  0  0  0  0  0  0  0  0  0
   58.1390   31.2430   43.8860 C   0  0  0  0  0  0  0  0  0  0  0  0
   57.8160   32.3600   44.6530 C   0  0  0  0  0  0  0  0  0  0  0  0
   58.1100   32.3800   46.0170 C   0  0  0  0  0  0  0  0  0  0  0  0
   58.7400   31.2860   46.6340 C   0  0  0  0  0  0  0  0  0  0  0  0
   59.0770   31.4000   48.3740 S   0  0  0  0  0  0  0  0  0  0  0  0
   58.7440   30.0970   49.0490 O   0  0  0  0  0  0  0  0  0  0  0  0
   58.2050   32.4710   48.9710 O   0  0  0  0  0  0  0  0  0  0  0  0
   60.7630   31.8180   48.6770 C   0  0  0  0  0  0  0  0  0  0  0  0
   61.4560   31.1860   49.7240 C   0  0  0  0  0  0  0  0  0  0  0  0
   62.8010   31.4870   49.9590 C   0  0  0  0  0  0  0  0  0  0  0  0
   63.4580   32.4310   49.1620 C   0  0  0  0  0  0  0  0  0  0  0  0
   65.1310   32.8390   49.4990 Cl  0  0  0  0  0  0  0  0  0  0  0  0
   62.7710   33.0690   48.1200 C   0  0  0  0  0  0  0  0  0  0  0  0
   61.4250   32.7680   47.8830 C   0  0  0  0  0  0  0  0  0  0  0  0
   58.5830   26.3030   45.8040 C   0  0  0  0  0  0  0  0  0  0  0  0
   59.7540   25.5830   45.6000 O   0  0  0  0  0  0  0  0  0  0  0  0
   56.8980   24.2820   43.7320 C   0  0  0  0  0  0  0  0  0  0  0  0
   56.5440   23.0230   43.2380 C   0  0  0  0  0  0  0  0  0  0  0  0
   55.8738   19.8281   45.5657 H   0  0  0  0  0  0  0  0  0  0  0  0
   54.9497   18.9532   44.2979 H   0  0  0  0  0  0  0  0  0  0  0  0
   56.7452   18.9006   44.2979 H   0  0  0  0  0  0  0  0  0  0  0  0
   56.1551   21.3648   46.2063 H   0  0  0  0  0  0  0  0  0  0  0  0
   56.7641   23.6128   47.0861 H   0  0  0  0  0  0  0  0  0  0  0  0
   56.7717   28.8915   46.7083 H   0  0  0  0  0  0  0  0  0  0  0  0
   59.0054   29.2614   43.8730 H   0  0  0  0  0  0  0  0  0  0  0  0
   57.9010   31.2252   42.8122 H   0  0  0  0  0  0  0  0  0  0  0  0
   57.3288   33.2271   44.1831 H   0  0  0  0  0  0  0  0  0  0  0  0
   57.8452   33.2633   46.6167 H   0  0  0  0  0  0  0  0  0  0  0  0
   60.9388   30.4527   50.3601 H   0  0  0  0  0  0  0  0  0  0  0  0
   63.3433   30.9811   50.7714 H   0  0  0  0  0  0  0  0  0  0  0  0
   63.2895   33.8058   47.4890 H   0  0  0  0  0  0  0  0  0  0  0  0
   60.8839   33.2774   47.0720 H   0  0  0  0  0  0  0  0  0  0  0  0
   57.1086   25.1034   43.0313 H   0  0  0  0  0  0  0  0  0  0  0  0
   56.4793   22.8583   42.1523 H   0  0  0  0  0  0  0  0  0  0  0  0
  1  2  1  0
  2  3  1  0
  3  4  2  0
  4  5  1  0
  5  6  2  0
  6  7  1  0
  7  8  1  0
  8  9  1  0
  8 10  2  0
 10 11  1  0
 11 12  1  0
 12 13  1  0
 13 14  2  0
 14 15  1  0
 15 16  2  0
 16 17  1  0
 17 18  2  0
 18 19  1  0
 19 20  2  0
 19 21  2  0
 19 22  1  0
 22 23  2  0
 23 24  1  0
 24 25  2  0
 25 26  1  0
 25 27  1  0
 27 28  2  0
 11 29  2  0
 29 30  1  0
  6 31  1  0
 31 32  2  0
 32  3  1  0
 29  7  1  0
 18 13  1  0
 28 22  1  0
  1 33  1  0
  1 34  1  0
  1 35  1  0
  4 36  1  0
  5 37  1  0
 10 38  1  0
 14 39  1  0
 15 40  1  0
 16 41  1  0
 17 42  1  0
 23 43  1  0
 24 44  1  0
 27 45  1  0
 28 46  1  0
 31 47  1  0
 32 48  1  0
M  CHG  2   9  -1  30  -1
M  END
>  <UniqueID>  (37) 
33

>  <SMILES>  (37) 
COc1ccc(-n2c([O-])cc(Sc3ccccc3S(=O)(=O)c3ccc(Cl)cc3)c2[O-])cc1

>  <Energy>  (37) 
82.93236051129092

>  <Genealogy>  (37) 
COc1ccc(-n2c([O-])cc(Sc3ccccc3S(=O)(=O)c3ccc(Cl)cc3)c2[O-])cc1 (protonated)
COc1ccc(-n2c([O-])cc(Sc3ccccc3S(=O)(=O)c3ccc(Cl)cc3)c2[O-])cc1 (3D coordinates assigned)
COc1ccc(-n2c([O-])cc(Sc3ccccc3S(=O)(=O)c3ccc(Cl)cc3)c2[O-])cc1 (optimized conformer: 82.93236051129092 kcal/mol)

>  <smiles>  (37) 
COc1ccc(-n2c(O)cc(Sc3ccccc3S(=O)(=O)c3ccc(Cl)cc3)c2O)cc1

>  <score_type>  (37) 
oracle

>  <origin>  (37) 
adg

>  <m_score__min__energy>  (37) 
-13.470000000000001

>  <m_primary>  (37) 
energy

$$$$
37:0
     RDKit          3D

 38 40  0  0  0  0  0  0  0  0999 V2000
   59.3390   33.6380   49.5800 O   0  0  0  0  0  0  0  0  0  0  0  0
   59.8980   33.5230   48.4540 C   0  0  0  0  0  0  0  0  0  0  0  0
   59.1090   33.7180   47.2120 C   0  0  0  0  0  0  0  0  0  0  0  0
   57.7640   33.3000   47.1270 C   0  0  0  0  0  0  0  0  0  0  0  0
   57.0250   33.5280   45.9650 C   0  0  0  0  0  0  0  0  0  0  0  0
   57.6130   34.1690   44.8740 C   0  0  0  0  0  0  0  0  0  0  0  0
   58.9410   34.5950   44.9470 C   0  0  0  0  0  0  0  0  0  0  0  0
   59.6860   34.3700   46.1040 C   0  0  0  0  0  0  0  0  0  0  0  0
   61.3330   33.1760   48.4190 C   0  0  0  0  0  0  0  0  0  0  0  0
   62.2780   34.2080   48.3170 C   0  0  0  0  0  0  0  0  0  0  0  0
   63.6410   33.9130   48.2360 C   0  0  0  0  0  0  0  0  0  0  0  0
   64.0710   32.5870   48.2550 C   0  0  0  0  0  0  0  0  0  0  0  0
   63.1390   31.5510   48.3480 C   0  0  0  0  0  0  0  0  0  0  0  0
   61.7620   31.8300   48.4310 C   0  0  0  0  0  0  0  0  0  0  0  0
   60.8030   30.7560   48.4830 N   0  0  0  0  0  0  0  0  0  0  0  0
   60.9240   29.5380   47.6810 C   0  0  0  0  0  0  0  0  0  0  0  0
   59.8310   29.4890   46.6570 C   0  0  0  0  0  0  0  0  0  0  0  0
   60.0000   29.2200   45.3010 C   0  0  0  0  0  0  0  0  0  0  0  0
   58.8250   29.3670   44.5590 C   0  0  0  0  0  0  0  0  0  0  0  0
   57.7460   29.7650   45.3390 C   0  0  0  0  0  0  0  0  0  0  0  0
   56.4200   30.0010   44.8550 N   0  0  0  0  0  0  0  0  0  0  0  0
   56.0830   31.1410   44.4710 O   0  0  0  0  0  0  0  0  0  0  0  0
   55.4930   28.9810   44.8480 O   0  0  0  0  0  0  0  0  0  0  0  0
   58.2290   29.9240   46.9430 S   0  0  0  0  0  0  0  0  0  0  0  0
   57.2948   32.7912   47.9820 H   0  0  0  0  0  0  0  0  0  0  0  0
   55.9761   33.2014   45.9092 H   0  0  0  0  0  0  0  0  0  0  0  0
   57.0306   34.3388   43.9564 H   0  0  0  0  0  0  0  0  0  0  0  0
   59.4003   35.1092   44.0899 H   0  0  0  0  0  0  0  0  0  0  0  0
   60.7329   34.7043   46.1522 H   0  0  0  0  0  0  0  0  0  0  0  0
   61.9436   35.2558   48.3007 H   0  0  0  0  0  0  0  0  0  0  0  0
   64.3758   34.7278   48.1571 H   0  0  0  0  0  0  0  0  0  0  0  0
   65.1450   32.3566   48.1967 H   0  0  0  0  0  0  0  0  0  0  0  0
   63.4846   30.5067   48.3565 H   0  0  0  0  0  0  0  0  0  0  0  0
   59.9040   30.9020   48.9900 H   0  0  0  0  0  0  0  0  0  0  0  0
   61.8997   29.5315   47.1732 H   0  0  0  0  0  0  0  0  0  0  0  0
   60.8412   28.6614   48.3403 H   0  0  0  0  0  0  0  0  0  0  0  0
   60.9619   28.9217   44.8585 H   0  0  0  0  0  0  0  0  0  0  0  0
   58.7612   29.1873   43.4757 H   0  0  0  0  0  0  0  0  0  0  0  0
  1  2  2  0
  2  3  1  0
  3  4  2  0
  4  5  1  0
  5  6  2  0
  6  7  1  0
  7  8  2  0
  2  9  1  0
  9 10  2  0
 10 11  1  0
 11 12  2  0
 12 13  1  0
 13 14  2  0
 14 15  1  0
 15 16  1  0
 16 17  1  0
 17 18  2  0
 18 19  1  0
 19 20  2  0
 20 21  1  0
 21 22  2  0
 21 23  1  0
 20 24  1  0
  8  3  1  0
 14  9  1  0
 24 17  1  0
  4 25  1  0
  5 26  1  0
  6 27  1  0
  7 28  1  0
  8 29  1  0
 10 30  1  0
 11 31  1  0
 12 32  1  0
 13 33  1  0
 15 34  1  0
 16 35  1  0
 16 36  1  0
 18 37  1  0
 19 38  1  0
M  CHG  2  21   1  23  -1
M  END
>  <UniqueID>  (38) 
34

>  <SMILES>  (38) 
O=C(c1ccccc1)c1ccccc1NCc1ccc([N+](=O)[O-])s1

>  <Energy>  (38) 
73.80418301648194

>  <Genealogy>  (38) 
O=C(c1ccccc1)c1ccccc1NCc1ccc([N+](=O)[O-])s1 (3D coordinates assigned)
O=C(c1ccccc1)c1ccccc1NCc1ccc([N+](=O)[O-])s1 (optimized conformer: 73.80418301648194 kcal/mol)

>  <smiles>  (38) 
O=C(c1ccccc1)c1ccccc1NCc1ccc([N+](=O)[O-])s1

>  <score_type>  (38) 
oracle

>  <origin>  (38) 
adg

>  <m_score__min__energy>  (38) 
-8.8000000000000007

>  <m_primary>  (38) 
energy

$$$$
38:0
     RDKit          3D

 47 50  0  0  1  0  0  0  0  0999 V2000
   59.5610   28.5160   48.5380 C   0  0  0  0  0  0  0  0  0  0  0  0
   60.5300   29.5710   48.4040 N   0  0  0  0  0  0  0  0  0  0  0  0
   60.1890   30.9720   48.5680 C   0  0  0  0  0  0  0  0  0  0  0  0
   59.0300   31.3460   48.8500 O   0  0  0  0  0  0  0  0  0  0  0  0
   61.3150   31.8850   48.3660 C   0  0  0  0  0  0  0  0  0  0  0  0
   62.5770   31.2750   48.4120 C   0  0  0  0  0  0  0  0  0  0  0  0
   63.7460   31.9530   48.2520 C   0  0  0  0  0  0  0  0  0  0  0  0
   63.6890   33.3020   48.0370 C   0  0  0  0  0  0  0  0  0  0  0  0
   62.4730   33.9060   47.9930 C   0  0  0  0  0  0  0  0  0  0  0  0
   57.0150   31.1720   44.6570 C   0  0  0  0  0  0  0  0  0  0  0  0
   60.1120   34.0460   48.0580 N   0  0  0  0  0  0  0  0  0  0  0  0
   59.4470   34.0180   46.9200 C   0  0  0  0  0  0  0  0  0  0  0  0
   59.7240   35.0090   46.0330 N   0  0  0  0  0  0  0  0  0  0  0  0
   59.0520   35.1510   44.8710 C   0  0  0  0  0  0  0  0  0  0  0  0
   58.0480   34.2160   44.6180 C   0  0  0  0  0  0  0  0  0  0  0  0
   57.7900   33.2040   45.5630 C   0  0  0  0  0  0  0  0  0  0  0  0
   56.8280   32.4180   45.2470 N   0  0  0  0  0  0  0  0  0  0  0  0
   61.2510   33.1950   48.1590 C   0  0  0  0  0  0  0  0  0  0  0  0
   56.3130   30.5930   43.6450 C   0  0  0  0  0  0  0  0  0  0  0  0
   56.6620   29.3190   43.2340 C   0  0  0  0  0  0  0  0  0  0  0  0
   57.6880   28.5840   43.7840 C   0  0  0  0  0  0  0  0  0  0  0  0
   58.3990   29.1620   44.8080 C   0  0  0  0  0  0  0  0  0  0  0  0
   59.3730   28.2500   45.2230 C   0  0  0  0  0  0  0  0  0  0  0  0
   59.2300   27.1640   44.4570 N   0  0  0  0  0  0  0  0  0  0  0  0
   58.2330   27.3720   43.6100 N   0  0  0  0  0  0  0  0  0  0  0  0
   57.7760   26.4090   42.6080 C   0  0  0  0  0  0  0  0  0  0  0  0
   58.0630   30.4110   45.2170 C   0  0  0  0  0  0  0  0  0  0  0  0
   58.4910   33.1120   46.7050 N   0  0  0  0  0  0  0  0  0  0  0  0
   59.3794   28.3183   49.6047 H   0  0  0  0  0  0  0  0  0  0  0  0
   58.6199   28.8191   48.0559 H   0  0  0  0  0  0  0  0  0  0  0  0
   59.9428   27.6040   48.0559 H   0  0  0  0  0  0  0  0  0  0  0  0
   61.5170   29.2960   48.1830 H   0  0  0  0  0  0  0  0  0  0  0  0
   62.6245   30.1900   48.5868 H   0  0  0  0  0  0  0  0  0  0  0  0
   64.7122   31.4290   48.2946 H   0  0  0  0  0  0  0  0  0  0  0  0
   64.6105   33.8873   47.9022 H   0  0  0  0  0  0  0  0  0  0  0  0
   62.4308   34.9917   47.8216 H   0  0  0  0  0  0  0  0  0  0  0  0
   60.4760   35.7120   46.2070 H   0  0  0  0  0  0  0  0  0  0  0  0
   59.2834   35.9598   44.1622 H   0  0  0  0  0  0  0  0  0  0  0  0
   57.4627   34.2687   43.6881 H   0  0  0  0  0  0  0  0  0  0  0  0
   55.4824   31.1288   43.1622 H   0  0  0  0  0  0  0  0  0  0  0  0
   56.0833   28.8646   42.4163 H   0  0  0  0  0  0  0  0  0  0  0  0
   60.1128   28.3971   46.0236 H   0  0  0  0  0  0  0  0  0  0  0  0
   57.3569   25.5259   43.1125 H   0  0  0  0  0  0  0  0  0  0  0  0
   57.0023   26.8736   41.9790 H   0  0  0  0  0  0  0  0  0  0  0  0
   58.6251   26.1034   41.9790 H   0  0  0  0  0  0  0  0  0  0  0  0
   58.6440   30.8587   46.0367 H   0  0  0  0  0  0  0  0  0  0  0  0
   58.2380   32.3360   47.3470 H   0  0  0  0  0  0  0  0  0  0  0  0
  1  2  1  0
  2  3  1  0
  3  4  2  0
  3  5  1  0
  5  6  2  0
  6  7  1  0
  7  8  2  0
  8  9  1  0
  9 10  2  0
 10 11  1  0
 11 12  2  0
 12 13  1  0
 13 14  1  0
 14 15  2  0
 15 16  1  0
 16 17  2  0
 17 18  1  0
 18 19  2  0
 19 20  1  0
 20 21  2  0
 21 22  1  0
 22 23  1  0
 23 24  2  0
 24 25  1  0
 25 26  1  0
 22 27  2  0
 16 28  1  0
 10  5  1  0
 28 12  1  0
 27 18  1  0
 25 21  1  0
  1 29  1  0
  1 30  1  0
  1 31  1  0
  2 32  1  0
  6 33  1  0
  7 34  1  0
  8 35  1  0
  9 36  1  0
 13 37  1  0
 14 38  1  0
 15 39  1  0
 19 40  1  0
 20 41  1  0
 23 42  1  0
 26 43  1  0
 26 44  1  0
 26 45  1  0
 27 46  1  0
 28 47  1  0
M  END
>  <smiles>  (39) 
CNC(=O)c1ccccc1N=c1[nH]ccc(=Nc2ccc3c(cnn3C)c2)[nH]1

>  <score_type>  (39) 
oracle

>  <origin>  (39) 
adg

>  <m_score__min__energy>  (39) 
-9.1500000000000004

>  <m_primary>  (39) 
energy

$$$$
39:0
     RDKit          3D

 49 51  0  0  0  0  0  0  0  0999 V2000
   57.8130   32.0350   43.1890 C   0  0  0  0  0  0  0  0  0  0  0  0
   57.2070   31.5720   44.3920 O   0  0  0  0  0  0  0  0  0  0  0  0
   57.7050   30.5220   45.1820 C   0  0  0  0  0  0  0  0  0  0  0  0
   58.9310   30.6230   45.8600 C   0  0  0  0  0  0  0  0  0  0  0  0
   59.3930   29.5710   46.6560 C   0  0  0  0  0  0  0  0  0  0  0  0
   60.7560   29.6550   47.2930 C   0  0  0  0  0  0  0  0  0  0  0  0
   60.7390   30.6400   48.3240 O   0  0  0  0  0  0  0  0  0  0  0  0
   61.7570   30.7670   49.2680 C   0  0  0  0  0  0  0  0  0  0  0  0
   61.8860   29.9110   50.1810 O   0  0  0  0  0  0  0  0  0  0  0  0
   62.7040   31.8880   49.1760 C   0  0  0  0  0  0  0  0  0  0  0  0
   62.4490   33.0700   48.4500 C   0  0  0  0  0  0  0  0  0  0  0  0
   61.1890   33.3470   47.7400 C   0  0  0  0  0  0  0  0  0  0  0  0
   59.9750   33.3840   48.4410 C   0  0  0  0  0  0  0  0  0  0  0  0
   58.7840   33.6520   47.7610 C   0  0  0  0  0  0  0  0  0  0  0  0
   58.8010   33.8900   46.3770 C   0  0  0  0  0  0  0  0  0  0  0  0
   57.3080   34.2310   45.5220 Cl  0  0  0  0  0  0  0  0  0  0  0  0
   60.0110   33.8530   45.6760 C   0  0  0  0  0  0  0  0  0  0  0  0
   61.2020   33.5780   46.3560 C   0  0  0  0  0  0  0  0  0  0  0  0
   63.4480   34.0330   48.5780 C   0  0  0  0  0  0  0  0  0  0  0  0
   64.6490   33.4280   49.5860 S   0  0  0  0  0  0  0  0  0  0  0  0
   63.9100   31.9480   49.8740 C   0  0  0  0  0  0  0  0  0  0  0  0
   64.4630   30.9180   50.6980 N   0  0  0  0  0  0  0  0  0  0  0  0
   58.6310   28.4010   46.7640 C   0  0  0  0  0  0  0  0  0  0  0  0
   57.4060   28.2680   46.0800 C   0  0  0  0  0  0  0  0  0  0  0  0
   56.6480   27.0910   46.1870 O   0  0  0  0  0  0  0  0  0  0  0  0
   57.0120   25.8260   45.6330 C   0  0  0  0  0  0  0  0  0  0  0  0
   56.9430   29.3430   45.2750 C   0  0  0  0  0  0  0  0  0  0  0  0
   55.7350   29.3090   44.5500 O   0  0  0  0  0  0  0  0  0  0  0  0
   55.5460   29.7070   43.1970 C   0  0  0  0  0  0  0  0  0  0  0  0
   58.6650   32.6860   43.4346 H   0  0  0  0  0  0  0  0  0  0  0  0
   58.1663   31.1746   42.6017 H   0  0  0  0  0  0  0  0  0  0  0  0
   57.0757   32.6020   42.6017 H   0  0  0  0  0  0  0  0  0  0  0  0
   59.5331   31.5385   45.7636 H   0  0  0  0  0  0  0  0  0  0  0  0
   61.0203   28.6779   47.7237 H   0  0  0  0  0  0  0  0  0  0  0  0
   61.4998   29.9336   46.5320 H   0  0  0  0  0  0  0  0  0  0  0  0
   59.9603   33.2021   49.5258 H   0  0  0  0  0  0  0  0  0  0  0  0
   57.8315   33.6766   48.3107 H   0  0  0  0  0  0  0  0  0  0  0  0
   60.0258   34.0398   44.5921 H   0  0  0  0  0  0  0  0  0  0  0  0
   62.1526   33.5427   45.8036 H   0  0  0  0  0  0  0  0  0  0  0  0
   63.4502   35.0234   48.0994 H   0  0  0  0  0  0  0  0  0  0  0  0
   63.8920   30.1020   51.0060 H   0  0  0  0  0  0  0  0  0  0  0  0
   65.4710   30.9550   50.9710 H   0  0  0  0  0  0  0  0  0  0  0  0
   58.9939   27.5738   47.3918 H   0  0  0  0  0  0  0  0  0  0  0  0
   57.2167   25.1146   46.4466 H   0  0  0  0  0  0  0  0  0  0  0  0
   56.1867   25.4462   45.0128 H   0  0  0  0  0  0  0  0  0  0  0  0
   57.9130   25.9429   45.0128 H   0  0  0  0  0  0  0  0  0  0  0  0
   55.0743   30.7003   43.1695 H   0  0  0  0  0  0  0  0  0  0  0  0
   56.5201   29.7494   42.6878 H   0  0  0  0  0  0  0  0  0  0  0  0
   54.8975   28.9789   42.6878 H   0  0  0  0  0  0  0  0  0  0  0  0
  1  2  1  0
  2  3  1  0
  3  4  2  0
  4  5  1  0
  5  6  1  0
  6  7  1  0
  7  8  1  0
  8  9  2  0
  8 10  1  0
 10 11  1  0
 11 12  1  0
 12 13  2  0
 13 14  1  0
 14 15  2  0
 15 16  1  0
 15 17  1  0
 17 18  2  0
 11 19  2  0
 19 20  1  0
 20 21  1  0
 21 22  1  0
  5 23  2  0
 23 24  1  0
 24 25  1  0
 25 26  1  0
 24 27  2  0
 27 28  1  0
 28 29  1  0
 27  3  1  0
 21 10  2  0
 18 12  1  0
  1 30  1  0
  1 31  1  0
  1 32  1  0
  4 33  1  0
  6 34  1  0
  6 35  1  0
 13 36  1  0
 14 37  1  0
 17 38  1  0
 18 39  1  0
 19 40  1  0
 22 41  1  0
 22 42  1  0
 23 43  1  0
 26 44  1  0
 26 45  1  0
 26 46  1  0
 29 47  1  0
 29 48  1  0
 29 49  1  0
M  END
>  <UniqueID>  (40) 
35

>  <SMILES>  (40) 
COc1cc(COC(=O)c2c(-c3ccc(Cl)cc3)csc2N)cc(OC)c1OC

>  <Energy>  (40) 
84.67692988143945

>  <Genealogy>  (40) 
COc1cc(COC(=O)c2c(-c3ccc(Cl)cc3)csc2N)cc(OC)c1OC (3D coordinates assigned)
COc1cc(COC(=O)c2c(-c3ccc(Cl)cc3)csc2N)cc(OC)c1OC (optimized conformer: 84.67692988143945 kcal/mol)

>  <smiles>  (40) 
COc1cc(COC(=O)c2c(-c3ccc(Cl)cc3)csc2N)cc(OC)c1OC

>  <score_type>  (40) 
oracle

>  <origin>  (40) 
adg

>  <m_score__min__energy>  (40) 
-8.7200000000000006

>  <m_primary>  (40) 
energy

$$$$
40:0
     RDKit          3D

 35 36  0  0  0  0  0  0  0  0999 V2000
   58.8480   32.6120   48.1880 C   0  0  0  0  0  0  0  0  0  0  0  0
   58.9540   31.2210   47.5670 C   0  0  0  0  0  0  0  0  0  0  0  0
   59.7280   30.2490   48.4620 C   0  0  0  0  0  0  0  0  0  0  0  0
   60.9660   29.8090   47.8040 N   0  0  0  0  0  0  0  0  0  0  0  0
   60.9730   30.1610   46.3720 C   0  0  0  0  0  0  0  0  0  0  0  0
   60.7960   28.9050   45.5110 C   0  0  0  0  0  0  0  0  0  0  0  0
   59.4040   28.3190   45.6360 C   0  0  0  0  0  0  0  0  0  0  0  0
   59.2580   27.1020   46.3250 C   0  0  0  0  0  0  0  0  0  0  0  0
   58.0010   26.5300   46.5120 C   0  0  0  0  0  0  0  0  0  0  0  0
   56.8560   27.1620   46.0200 C   0  0  0  0  0  0  0  0  0  0  0  0
   55.5990   26.5880   46.2130 O   0  0  0  0  0  0  0  0  0  0  0  0
   56.9710   28.3760   45.3330 C   0  0  0  0  0  0  0  0  0  0  0  0
   55.8510   28.9880   44.8580 N   0  0  0  0  0  0  0  0  0  0  0  0
   55.9030   30.1670   44.1880 C   0  0  0  0  0  0  0  0  0  0  0  0
   57.1290   30.7900   43.9650 C   0  0  0  0  0  0  0  0  0  0  0  0
   58.2990   30.1940   44.4360 C   0  0  0  0  0  0  0  0  0  0  0  0
   58.2450   28.9700   45.1320 C   0  0  0  0  0  0  0  0  0  0  0  0
   58.8546   32.5255   49.2846 H   0  0  0  0  0  0  0  0  0  0  0  0
   59.7021   33.2245   47.8634 H   0  0  0  0  0  0  0  0  0  0  0  0
   57.9110   33.0880   47.8634 H   0  0  0  0  0  0  0  0  0  0  0  0
   57.9401   30.8255   47.4072 H   0  0  0  0  0  0  0  0  0  0  0  0
   59.4998   31.3147   46.6165 H   0  0  0  0  0  0  0  0  0  0  0  0
   59.9807   30.7519   49.4071 H   0  0  0  0  0  0  0  0  0  0  0  0
   59.0980   29.3681   48.6544 H   0  0  0  0  0  0  0  0  0  0  0  0
   61.7670   30.3000   48.2680 H   0  0  0  0  0  0  0  0  0  0  0  0
   60.1488   30.8600   46.1668 H   0  0  0  0  0  0  0  0  0  0  0  0
   61.9371   30.6295   46.1249 H   0  0  0  0  0  0  0  0  0  0  0  0
   60.9767   29.1683   44.4584 H   0  0  0  0  0  0  0  0  0  0  0  0
   61.5141   28.1496   45.8626 H   0  0  0  0  0  0  0  0  0  0  0  0
   60.1491   26.5939   46.7223 H   0  0  0  0  0  0  0  0  0  0  0  0
   57.9096   25.5751   47.0503 H   0  0  0  0  0  0  0  0  0  0  0  0
   54.7470   27.0920   45.9980 H   0  0  0  0  0  0  0  0  0  0  0  0
   54.9760   30.6313   43.8205 H   0  0  0  0  0  0  0  0  0  0  0  0
   57.1741   31.7452   43.4213 H   0  0  0  0  0  0  0  0  0  0  0  0
   59.2694   30.6824   44.2631 H   0  0  0  0  0  0  0  0  0  0  0  0
  1  2  1  0
  2  3  1  0
  3  4  1  0
  4  5  1  0
  5  6  1  0
  6  7  1  0
  7  8  2  0
  8  9  1  0
  9 10  2  0
 10 11  1  0
 10 12  1  0
 12 13  2  0
 13 14  1  0
 14 15  2  0
 15 16  1  0
 16 17  2  0
 17  7  1  0
 17 12  1  0
  1 18  1  0
  1 19  1  0
  1 20  1  0
  2 21  1  0
  2 22  1  0
  3 23  1  0
  3 24  1  0
  4 25  1  0
  5 26  1  0
  5 27  1  0
  6 28  1  0
  6 29  1  0
  8 30  1  0
  9 31  1  0
 11 32  1  0
 14 33  1  0
 15 34  1  0
 16 35  1  0
M  END
>  <UniqueID>  (41) 
36

>  <SMILES>  (41) 
CCCNCCc1ccc(O)c2ncccc12

>  <Energy>  (41) 
32.319113299951404

>  <Genealogy>  (41) 
CCCNCCc1ccc(O)c2ncccc12 (3D coordinates assigned)
CCCNCCc1ccc(O)c2ncccc12 (optimized conformer: 32.319113299951404 kcal/mol)

>  <smiles>  (41) 
CCCNCCc1ccc(O)c2ncccc12

>  <score_type>  (41) 
oracle

>  <origin>  (41) 
adg

>  <m_score__min__energy>  (41) 
-6.79

>  <m_primary>  (41) 
energy

$$$$
41:0
     RDKit          3D

 32 34  0  0  0  0  0  0  0  0999 V2000
   54.7770   29.6430   43.4910 O   0  0  0  0  0  0  0  0  0  0  0  0
   55.7830   29.8300   44.2070 N   0  0  0  0  0  0  0  0  0  0  0  0
   56.0370   28.9490   45.2340 O   0  0  0  0  0  0  0  0  0  0  0  0
   56.6620   30.9440   43.9650 C   0  0  0  0  0  0  0  0  0  0  0  0
   57.1830   31.1680   42.6790 C   0  0  0  0  0  0  0  0  0  0  0  0
   58.0420   32.2440   42.4420 C   0  0  0  0  0  0  0  0  0  0  0  0
   58.3860   33.1120   43.4800 C   0  0  0  0  0  0  0  0  0  0  0  0
   57.8650   32.9150   44.7690 C   0  0  0  0  0  0  0  0  0  0  0  0
   58.2570   33.8290   45.9060 C   0  0  1  0  0  0  0  0  0  0  0  0
   59.1940   33.1410   46.9150 C   0  0  0  0  0  0  0  0  0  0  0  0
   60.4080   34.0150   46.8550 C   0  0  0  0  0  0  0  0  0  0  0  0
   61.6460   33.8110   47.6460 C   0  0  0  0  0  0  0  0  0  0  0  0
   61.6510   34.0150   49.0380 C   0  0  0  0  0  0  0  0  0  0  0  0
   62.8210   33.8210   49.7790 C   0  0  0  0  0  0  0  0  0  0  0  0
   63.9980   33.4230   49.1410 C   0  0  0  0  0  0  0  0  0  0  0  0
   65.1310   33.2360   49.8610 F   0  0  0  0  0  0  0  0  0  0  0  0
   64.0070   33.2180   47.7590 C   0  0  0  0  0  0  0  0  0  0  0  0
   62.8390   33.4100   47.0130 C   0  0  0  0  0  0  0  0  0  0  0  0
   60.2680   34.9850   46.0190 N   0  0  0  0  0  0  0  0  0  0  0  0
   59.0310   34.9190   45.4330 O   0  0  0  0  0  0  0  0  0  0  0  0
   57.0130   31.8230   45.0060 C   0  0  0  0  0  0  0  0  0  0  0  0
   56.9128   30.4921   41.8543 H   0  0  0  0  0  0  0  0  0  0  0  0
   58.4490   32.4080   41.4333 H   0  0  0  0  0  0  0  0  0  0  0  0
   59.0678   33.9534   43.2873 H   0  0  0  0  0  0  0  0  0  0  0  0
   57.3038   34.1308   46.3647 H   0  0  0  0  0  0  0  0  0  0  0  0
   58.7573   33.1317   47.9245 H   0  0  0  0  0  0  0  0  0  0  0  0
   59.3954   32.0843   46.6853 H   0  0  0  0  0  0  0  0  0  0  0  0
   60.7280   34.3294   49.5471 H   0  0  0  0  0  0  0  0  0  0  0  0
   62.8143   33.9823   50.8671 H   0  0  0  0  0  0  0  0  0  0  0  0
   64.9341   32.9051   47.2565 H   0  0  0  0  0  0  0  0  0  0  0  0
   62.8523   33.2468   45.9253 H   0  0  0  0  0  0  0  0  0  0  0  0
   56.6157   31.6533   46.0176 H   0  0  0  0  0  0  0  0  0  0  0  0
  1  2  2  0
  2  3  1  0
  2  4  1  0
  4  5  2  0
  5  6  1  0
  6  7  2  0
  7  8  1  0
  8  9  1  0
  9 10  1  0
 10 11  1  0
 11 12  1  0
 12 13  2  0
 13 14  1  0
 14 15  2  0
 15 16  1  0
 15 17  1  0
 17 18  2  0
 11 19  2  0
 19 20  1  0
  8 21  2  0
 21  4  1  0
 20  9  1  0
 18 12  1  0
  5 22  1  0
  6 23  1  0
  7 24  1  0
  9 25  1  1
 10 26  1  0
 10 27  1  0
 13 28  1  0
 14 29  1  0
 17 30  1  0
 18 31  1  0
 21 32  1  0
M  CHG  2   2   1   3  -1
M  END
>  <UniqueID>  (42) 
37

>  <SMILES>  (42) 
O=[N+]([O-])c1cccc([C@H]2CC(c3ccc(F)cc3)=NO2)c1

>  <Energy>  (42) 
49.74915561916329

>  <Genealogy>  (42) 
O=[N+]([O-])c1cccc([C@H]2CC(c3ccc(F)cc3)=NO2)c1 (chirality)
O=[N+]([O-])c1cccc([C@H]2CC(c3ccc(F)cc3)=NO2)c1 (3D coordinates assigned)
O=[N+]([O-])c1cccc([C@H]2CC(c3ccc(F)cc3)=NO2)c1 (nonaromatic ring conformer: 49.74915561916329 kcal/mol)

>  <smiles>  (42) 
O=[N+]([O-])c1cccc(C2CC(c3ccc(F)cc3)=NO2)c1

>  <score_type>  (42) 
oracle

>  <origin>  (42) 
adg

>  <m_score__min__energy>  (42) 
-8.4600000000000009

>  <m_primary>  (42) 
energy

$$$$
42:0
     RDKit          3D

 31 32  0  0  1  0  0  0  0  0999 V2000
   57.3470   31.4030   42.5160 C   0  0  0  0  0  0  0  0  0  0  0  0
   56.3540   30.4200   43.1030 C   0  0  0  0  0  0  0  0  0  0  0  0
   56.2980   30.3670   44.4990 N   0  0  0  0  0  0  0  0  0  0  0  0
   57.1260   29.8140   45.2640 C   0  0  0  0  0  0  0  0  0  0  0  0
   57.0490   28.4550   45.3660 N   0  0  0  0  0  0  0  0  0  0  0  0
   57.8890   27.8300   46.1990 C   0  0  0  0  0  0  0  0  0  0  0  0
   57.8510   26.3310   46.3550 C   0  0  0  0  0  0  0  0  0  0  0  0
   58.8080   28.4680   46.9440 N   0  0  0  0  0  0  0  0  0  0  0  0
   58.8710   29.7970   46.8300 C   0  0  0  0  0  0  0  0  0  0  0  0
   58.0300   30.5260   45.9810 C   0  0  0  0  0  0  0  0  0  0  0  0
   58.2830   31.9460   45.9230 C   0  0  0  0  0  0  0  0  0  0  0  0
   59.5510   32.4540   46.2830 C   0  0  0  0  0  0  0  0  0  0  0  0
   59.8490   33.7890   46.1460 C   0  0  0  0  0  0  0  0  0  0  0  0
   58.9260   34.6810   45.6540 C   0  0  0  0  0  0  0  0  0  0  0  0
   57.6980   34.2200   45.3000 C   0  0  0  0  0  0  0  0  0  0  0  0
   57.4050   32.8960   45.4370 C   0  0  0  0  0  0  0  0  0  0  0  0
   57.8727   31.9234   43.3301 H   0  0  0  0  0  0  0  0  0  0  0  0
   58.0764   30.8612   41.8959 H   0  0  0  0  0  0  0  0  0  0  0  0
   56.8126   32.1378   41.8959 H   0  0  0  0  0  0  0  0  0  0  0  0
   55.3534   30.6923   42.7359 H   0  0  0  0  0  0  0  0  0  0  0  0
   56.6954   29.4250   42.7814 H   0  0  0  0  0  0  0  0  0  0  0  0
   57.8445   26.0737   47.4245 H   0  0  0  0  0  0  0  0  0  0  0  0
   56.9425   25.9355   45.8772 H   0  0  0  0  0  0  0  0  0  0  0  0
   58.7383   25.8900   45.8772 H   0  0  0  0  0  0  0  0  0  0  0  0
   59.4660   27.9540   47.6010 H   0  0  0  0  0  0  0  0  0  0  0  0
   59.6155   30.3421   47.4288 H   0  0  0  0  0  0  0  0  0  0  0  0
   60.3141   31.7686   46.6803 H   0  0  0  0  0  0  0  0  0  0  0  0
   60.8465   34.1509   46.4360 H   0  0  0  0  0  0  0  0  0  0  0  0
   59.1767   35.7469   45.5490 H   0  0  0  0  0  0  0  0  0  0  0  0
   56.9419   34.9138   44.9037 H   0  0  0  0  0  0  0  0  0  0  0  0
   56.4003   32.5605   45.1402 H   0  0  0  0  0  0  0  0  0  0  0  0
  1  2  1  0
  2  3  1  0
  3  4  2  0
  4  5  1  0
  5  6  2  0
  6  7  1  0
  6  8  1  0
  8  9  1  0
  9 10  2  0
 10 11  1  0
 11 12  2  0
 12 13  1  0
 13 14  2  0
 14 15  1  0
 15 16  2  0
 10  4  1  0
 16 11  1  0
  1 17  1  0
  1 18  1  0
  1 19  1  0
  2 20  1  0
  2 21  1  0
  7 22  1  0
  7 23  1  0
  7 24  1  0
  8 25  1  0
  9 26  1  0
 12 27  1  0
 13 28  1  0
 14 29  1  0
 15 30  1  0
 16 31  1  0
M  END
>  <smiles>  (43) 
CCN=c1nc(C)[nH]cc1-c1ccccc1

>  <score_type>  (43) 
oracle

>  <origin>  (43) 
adg

>  <m_score__min__energy>  (43) 
-5.9699999999999998

>  <m_primary>  (43) 
energy

$$$$
43:0
     RDKit          3D

 59 63  0  0  0  0  0  0  0  0999 V2000
   61.2060   28.6010   50.4700 C   0  0  0  0  0  0  0  0  0  0  0  0
   61.5090   27.2580   51.5980 S   0  0  0  0  0  0  0  0  0  0  0  0
   60.3710   27.1770   52.5780 O   0  0  0  0  0  0  0  0  0  0  0  0
   61.6160   25.9720   50.8230 O   0  0  0  0  0  0  0  0  0  0  0  0
   62.9930   27.5640   52.4420 N   0  0  0  0  0  0  0  0  0  0  0  0
   63.8560   28.6890   52.2230 C   0  0  0  0  0  0  0  0  0  0  0  0
   63.3440   29.9760   52.4340 C   0  0  0  0  0  0  0  0  0  0  0  0
   64.1570   31.1010   52.2630 C   0  0  0  0  0  0  0  0  0  0  0  0
   65.4960   30.9510   51.8750 C   0  0  0  0  0  0  0  0  0  0  0  0
   66.5450   32.3590   51.7080 S   0  0  0  0  0  0  0  0  0  0  0  0
   67.0680   32.7710   53.0570 O   0  0  0  0  0  0  0  0  0  0  0  0
   67.7240   32.0190   50.8350 O   0  0  0  0  0  0  0  0  0  0  0  0
   65.6560   33.6400   50.9350 N   0  0  0  0  0  0  0  0  0  0  0  0
   64.4720   33.5000   50.1370 C   0  0  0  0  0  0  0  0  0  0  0  0
   63.2760   34.1800   50.4310 C   0  0  0  0  0  0  0  0  0  0  0  0
   62.1650   34.0470   49.5940 C   0  0  0  0  0  0  0  0  0  0  0  0
   62.2230   33.2250   48.4570 C   0  0  0  0  0  0  0  0  0  0  0  0
   61.0440   33.0940   47.5800 C   0  0  0  0  0  0  0  0  0  0  0  0
   60.1860   32.0370   47.6250 N   0  0  0  0  0  0  0  0  0  0  0  0
   59.2950   32.3580   46.6700 C   0  0  0  0  0  0  0  0  0  0  0  0
   58.1740   31.6360   46.2690 C   0  0  0  0  0  0  0  0  0  0  0  0
   57.3860   32.1710   45.2230 C   0  0  0  0  0  0  0  0  0  0  0  0
   56.2250   31.4890   44.7340 N   0  0  0  0  0  0  0  0  0  0  0  0
   56.2430   29.9660   43.9030 S   0  0  0  0  0  0  0  0  0  0  0  0
   54.8850   29.3380   44.0490 O   0  0  0  0  0  0  0  0  0  0  0  0
   56.5260   30.1410   42.4370 O   0  0  0  0  0  0  0  0  0  0  0  0
   57.4660   28.9300   44.6410 C   0  0  0  0  0  0  0  0  0  0  0  0
   57.0950   27.9040   45.5240 C   0  0  0  0  0  0  0  0  0  0  0  0
   58.0740   27.1320   46.1560 C   0  0  0  0  0  0  0  0  0  0  0  0
   59.4300   27.3790   45.9130 C   0  0  0  0  0  0  0  0  0  0  0  0
   60.7680   26.3470   46.8120 Br  0  0  0  0  0  0  0  0  0  0  0  0
   59.8040   28.3950   45.0240 C   0  0  0  0  0  0  0  0  0  0  0  0
   58.8250   29.1650   44.3860 C   0  0  0  0  0  0  0  0  0  0  0  0
   57.7660   33.3920   44.6110 C   0  0  0  0  0  0  0  0  0  0  0  0
   58.8980   34.1010   45.0570 C   0  0  0  0  0  0  0  0  0  0  0  0
   59.6340   33.5430   46.0950 C   0  0  0  0  0  0  0  0  0  0  0  0
   60.7150   33.9960   46.6680 O   0  0  0  0  0  0  0  0  0  0  0  0
   63.4180   32.5510   48.1620 C   0  0  0  0  0  0  0  0  0  0  0  0
   64.5360   32.7000   48.9880 C   0  0  0  0  0  0  0  0  0  0  0  0
   66.0080   29.6670   51.6450 C   0  0  0  0  0  0  0  0  0  0  0  0
   65.1950   28.5400   51.8190 C   0  0  0  0  0  0  0  0  0  0  0  0
   60.9989   29.5188   51.0398 H   0  0  0  0  0  0  0  0  0  0  0  0
   62.0920   28.7548   49.8365 H   0  0  0  0  0  0  0  0  0  0  0  0
   60.3398   28.3594   49.8365 H   0  0  0  0  0  0  0  0  0  0  0  0
   62.2940   30.1026   52.7366 H   0  0  0  0  0  0  0  0  0  0  0  0
   63.7448   32.1065   52.4334 H   0  0  0  0  0  0  0  0  0  0  0  0
   63.2152   34.8194   51.3240 H   0  0  0  0  0  0  0  0  0  0  0  0
   61.2376   34.5905   49.8276 H   0  0  0  0  0  0  0  0  0  0  0  0
   57.9101   30.6822   46.7492 H   0  0  0  0  0  0  0  0  0  0  0  0
   56.0306   27.7068   45.7193 H   0  0  0  0  0  0  0  0  0  0  0  0
   57.7779   26.3282   46.8461 H   0  0  0  0  0  0  0  0  0  0  0  0
   60.8689   28.5878   44.8271 H   0  0  0  0  0  0  0  0  0  0  0  0
   59.1221   29.9568   43.6826 H   0  0  0  0  0  0  0  0  0  0  0  0
   57.1692   33.7905   43.7774 H   0  0  0  0  0  0  0  0  0  0  0  0
   59.1882   35.0592   44.6014 H   0  0  0  0  0  0  0  0  0  0  0  0
   63.4753   31.9018   47.2759 H   0  0  0  0  0  0  0  0  0  0  0  0
   65.4741   32.1849   48.7339 H   0  0  0  0  0  0  0  0  0  0  0  0
   67.0536   29.5437   51.3262 H   0  0  0  0  0  0  0  0  0  0  0  0
   65.6049   27.5352   51.6392 H   0  0  0  0  0  0  0  0  0  0  0  0
  1  2  1  0
  2  3  2  0
  2  4  2  0
  2  5  1  0
  5  6  1  0
  6  7  2  0
  7  8  1  0
  8  9  2  0
  9 10  1  0
 10 11  2  0
 10 12  2  0
 10 13  1  0
 13 14  1  0
 14 15  2  0
 15 16  1  0
 16 17  2  0
 17 18  1  0
 18 19  2  0
 19 20  1  0
 20 21  2  0
 21 22  1  0
 22 23  1  0
 23 24  1  0
 24 25  2  0
 24 26  2  0
 24 27  1  0
 27 28  2  0
 28 29  1  0
 29 30  2  0
 30 31  1  0
 30 32  1  0
 32 33  2  0
 22 34  2  0
 34 35  1  0
 35 36  2  0
 36 37  1  0
 17 38  1  0
 38 39  2  0
  9 40  1  0
 40 41  2  0
 41  6  1  0
 39 14  1  0
 37 18  1  0
 36 20  1  0
 33 27  1  0
  1 42  1  0
  1 43  1  0
  1 44  1  0
  7 45  1  0
  8 46  1  0
 15 47  1  0
 16 48  1  0
 21 49  1  0
 28 50  1  0
 29 51  1  0
 32 52  1  0
 33 53  1  0
 34 54  1  0
 35 55  1  0
 38 56  1  0
 39 57  1  0
 40 58  1  0
 41 59  1  0
M  CHG  3   5  -1  13  -1  23  -1
M  END
>  <UniqueID>  (44) 
38

>  <SMILES>  (44) 
CS(=O)(=O)[N-]c1ccc(S(=O)(=O)[N-]c2ccc(-c3nc4cc([N-]S(=O)(=O)c5ccc(Br)cc5)ccc4o3)cc2)cc1

>  <Energy>  (44) 
116.95331534470145

>  <Genealogy>  (44) 
CS(=O)(=O)[N-]c1ccc(S(=O)(=O)[N-]c2ccc(-c3nc4cc([N-]S(=O)(=O)c5ccc(Br)cc5)ccc4o3)cc2)cc1 (protonated)
CS(=O)(=O)[N-]c1ccc(S(=O)(=O)[N-]c2ccc(-c3nc4cc([N-]S(=O)(=O)c5ccc(Br)cc5)ccc4o3)cc2)cc1 (3D coordinates assigned)
CS(=O)(=O)[N-]c1ccc(S(=O)(=O)[N-]c2ccc(-c3nc4cc([N-]S(=O)(=O)c5ccc(Br)cc5)ccc4o3)cc2)cc1 (optimized conformer: 116.95331534470145 kcal/mol)

>  <smiles>  (44) 
CS(=O)(=O)Nc1ccc(S(=O)(=O)Nc2ccc(-c3nc4cc(NS(=O)(=O)c5ccc(Br)cc5)ccc4o3)cc2)cc1

>  <score_type>  (44) 
oracle

>  <origin>  (44) 
adg

>  <m_score__min__energy>  (44) 
-12.720000000000001

>  <m_primary>  (44) 
energy

$$$$
44:0
     RDKit          3D

 49 52  0  0  0  0  0  0  0  0999 V2000
   59.3290   33.6471   50.7457 H   0  0  0  0  0  0  0  0  0  0  0  0
   59.4380   33.1630   49.7640 C   0  0  0  0  0  0  0  0  0  0  0  0
   59.7500   34.0030   48.5880 C   0  0  0  0  0  0  0  0  0  0  0  0
   60.5550   34.9600   48.7370 O   0  0  0  0  0  0  0  0  0  0  0  0
   59.1460   33.7730   47.2540 C   0  0  0  0  0  0  0  0  0  0  0  0
   57.8270   33.3010   47.1270 C   0  0  0  0  0  0  0  0  0  0  0  0
   57.2291   33.1043   48.0291 H   0  0  0  0  0  0  0  0  0  0  0  0
   57.2700   33.0800   45.8660 C   0  0  0  0  0  0  0  0  0  0  0  0
   56.2428   32.6958   45.7805 H   0  0  0  0  0  0  0  0  0  0  0  0
   58.0180   33.3470   44.7030 C   0  0  0  0  0  0  0  0  0  0  0  0
   57.5060   33.1380   43.4140 O   0  0  0  0  0  0  0  0  0  0  0  0
   57.8020   32.0010   42.6070 C   0  0  0  0  0  0  0  0  0  0  0  0
   58.0261   31.1403   43.2543 H   0  0  0  0  0  0  0  0  0  0  0  0
   56.9350   31.7664   41.9720 H   0  0  0  0  0  0  0  0  0  0  0  0
   58.6734   32.2189   41.9720 H   0  0  0  0  0  0  0  0  0  0  0  0
   59.3210   33.8420   44.8290 C   0  0  0  0  0  0  0  0  0  0  0  0
   59.9103   34.0622   43.9267 H   0  0  0  0  0  0  0  0  0  0  0  0
   59.8800   34.0590   46.0920 C   0  0  0  0  0  0  0  0  0  0  0  0
   60.9022   34.4566   46.1758 H   0  0  0  0  0  0  0  0  0  0  0  0
   59.2830   31.8360   49.6800 C   0  0  0  0  0  0  0  0  0  0  0  0
   58.9088   31.2926   50.5602 H   0  0  0  0  0  0  0  0  0  0  0  0
   59.5930   31.0710   48.4560 C   0  0  0  0  0  0  0  0  0  0  0  0
   60.8150   30.9890   47.8000 C   0  0  0  0  0  0  0  0  0  0  0  0
   62.0500   31.7480   48.0890 C   0  0  0  0  0  0  0  0  0  0  0  0
   62.7060   31.5710   49.3190 C   0  0  0  0  0  0  0  0  0  0  0  0
   62.2949   30.8732   50.0633 H   0  0  0  0  0  0  0  0  0  0  0  0
   63.8790   32.2780   49.6010 C   0  0  0  0  0  0  0  0  0  0  0  0
   64.3822   32.1425   50.5697 H   0  0  0  0  0  0  0  0  0  0  0  0
   64.4130   33.1560   48.6550 C   0  0  0  0  0  0  0  0  0  0  0  0
   65.3315   33.7170   48.8824 H   0  0  0  0  0  0  0  0  0  0  0  0
   63.7810   33.3220   47.4200 C   0  0  0  0  0  0  0  0  0  0  0  0
   64.2052   34.0094   46.6733 H   0  0  0  0  0  0  0  0  0  0  0  0
   62.6100   32.6150   47.1330 C   0  0  0  0  0  0  0  0  0  0  0  0
   62.1235   32.7372   46.1540 H   0  0  0  0  0  0  0  0  0  0  0  0
   60.7270   30.0790   46.8100 N   0  0  0  0  0  0  0  0  0  0  0  0
   59.4930   29.5930   46.8050 N   0  0  0  0  0  0  0  0  0  0  0  0
   59.0440   28.5770   45.8850 C   0  0  0  0  0  0  0  0  0  0  0  0
   59.0490   27.2130   46.2400 C   0  0  0  0  0  0  0  0  0  0  0  0
   59.4041   26.9094   47.2359 H   0  0  0  0  0  0  0  0  0  0  0  0
   58.6060   26.2430   45.3360 C   0  0  0  0  0  0  0  0  0  0  0  0
   58.6174   25.1808   45.6218 H   0  0  0  0  0  0  0  0  0  0  0  0
   58.1490   26.6190   44.0710 C   0  0  0  0  0  0  0  0  0  0  0  0
   57.8035   25.8536   43.3605 H   0  0  0  0  0  0  0  0  0  0  0  0
   58.1310   27.9670   43.7090 C   0  0  0  0  0  0  0  0  0  0  0  0
   57.7690   28.2632   42.7134 H   0  0  0  0  0  0  0  0  0  0  0  0
   58.5720   28.9410   44.6090 C   0  0  0  0  0  0  0  0  0  0  0  0
   58.5502   30.0016   44.3181 H   0  0  0  0  0  0  0  0  0  0  0  0
   58.7780   30.1710   47.7940 C   0  0  0  0  0  0  0  0  0  0  0  0
   57.7249   29.9613   48.0328 H   0  0  0  0  0  0  0  0  0  0  0  0
  1  2  1  0
  2  3  1  0
  3  4  2  0
  3  5  1  0
  5  6  2  0
  6  7  1  0
  6  8  1  0
  8  9  1  0
  8 10  2  0
 10 11  1  0
 11 12  1  0
 12 13  1  0
 12 14  1  0
 12 15  1  0
 10 16  1  0
 16 17  1  0
 16 18  2  0
 18 19  1  0
  2 20  2  0
 20 21  1  0
 20 22  1  0
 22 23  1  0
 23 24  1  0
 24 25  2  0
 25 26  1  0
 25 27  1  0
 27 28  1  0
 27 29  2  0
 29 30  1  0
 29 31  1  0
 31 32  1  0
 31 33  2  0
 33 34  1  0
 23 35  2  0
 35 36  1  0
 36 37  1  0
 37 38  2  0
 38 39  1  0
 38 40  1  0
 40 41  1  0
 40 42  2  0
 42 43  1  0
 42 44  1  0
 44 45  1  0
 44 46  2  0
 46 47  1  0
 36 48  1  0
 48 49  1  0
 18  5  1  0
 48 22  2  0
 33 24  1  0
 46 37  1  0
M  END
>  <UniqueID>  (45) 
39

>  <SMILES>  (45) 
COc1ccc(C(=O)/C=C/c2cn(-c3ccccc3)nc2-c2ccccc2)cc1

>  <Energy>  (45) 
93.91943112652157

>  <Genealogy>  (45) 
COc1ccc(C(=O)/C=C/c2cn(-c3ccccc3)nc2-c2ccccc2)cc1 (cis-trans isomerization)
COc1ccc(C(=O)/C=C/c2cn(-c3ccccc3)nc2-c2ccccc2)cc1 (3D coordinates assigned)
COc1ccc(C(=O)/C=C/c2cn(-c3ccccc3)nc2-c2ccccc2)cc1 (optimized conformer: 93.91943112652157 kcal/mol)

>  <smiles>  (45) 
COc1ccc(C(=O)C=Cc2cn(-c3ccccc3)nc2-c2ccccc2)cc1

>  <score_type>  (45) 
oracle

>  <origin>  (45) 
adg

>  <m_score__min__energy>  (45) 
-8.3800000000000008

>  <m_primary>  (45) 
energy

$$$$
45:0
     RDKit          3D

 61 65  0  0  0  0  0  0  0  0999 V2000
   59.3570   33.3210   49.4980 C   0  0  0  0  0  0  0  0  0  0  0  0
   59.9690   32.0700   49.9780 N   0  0  0  0  0  0  0  0  0  0  0  0
   58.9980   30.9660   49.8870 C   0  0  0  0  0  0  0  0  0  0  0  0
   59.6280   29.6470   50.3740 C   0  0  0  0  0  0  0  0  0  0  0  0
   60.8990   29.3330   49.6830 N   0  0  0  0  0  0  0  0  0  0  0  0
   60.7030   28.7990   48.3170 C   0  0  0  0  0  0  0  0  0  0  0  0
   59.6350   27.7040   48.3200 C   0  0  0  0  0  0  0  0  0  0  0  0
   59.1070   27.5100   46.9700 N   0  0  0  0  0  0  0  0  0  0  0  0
   58.3310   28.5080   46.2820 C   0  0  0  0  0  0  0  0  0  0  0  0
   58.7750   29.8400   46.2570 C   0  0  0  0  0  0  0  0  0  0  0  0
   57.9790   30.8430   45.6730 C   0  0  0  0  0  0  0  0  0  0  0  0
   58.3960   32.2330   45.6290 N   0  0  0  0  0  0  0  0  0  0  0  0
   59.6190   32.6650   46.3300 C   0  0  0  0  0  0  0  0  0  0  0  0
   59.8560   34.1780   46.2610 C   0  0  0  0  0  0  0  0  0  0  0  0
   59.4940   34.6930   45.0010 O   0  0  0  0  0  0  0  0  0  0  0  0
   58.0960   34.5990   44.8640 C   0  0  0  0  0  0  0  0  0  0  0  0
   57.6670   33.1380   44.7220 C   0  0  0  0  0  0  0  0  0  0  0  0
   56.7800   30.4880   45.1360 N   0  0  0  0  0  0  0  0  0  0  0  0
   56.3180   29.2120   45.1300 C   0  0  0  0  0  0  0  0  0  0  0  0
   55.2050   28.9710   44.5900 O   0  0  0  0  0  0  0  0  0  0  0  0
   57.0850   28.1770   45.7000 C   0  0  0  0  0  0  0  0  0  0  0  0
   56.6150   26.7690   45.6370 C   0  0  0  0  0  0  0  0  0  0  0  0
   55.3440   26.4000   45.9550 N   0  0  0  0  0  0  0  0  0  0  0  0
   55.3700   25.0710   45.7820 C   0  0  0  0  0  0  0  0  0  0  0  0
   54.3290   24.1660   45.9710 C   0  0  0  0  0  0  0  0  0  0  0  0
   54.5960   22.8050   45.7330 C   0  0  0  0  0  0  0  0  0  0  0  0
   55.8840   22.3910   45.3190 C   0  0  0  0  0  0  0  0  0  0  0  0
   56.9120   23.3360   45.1400 C   0  0  0  0  0  0  0  0  0  0  0  0
   56.6090   24.6750   45.3840 C   0  0  0  0  0  0  0  0  0  0  0  0
   57.4250   25.7330   45.2870 N   0  0  0  0  0  0  0  0  0  0  0  0
   61.8260   30.4820   49.7220 C   0  0  0  0  0  0  0  0  0  0  0  0
   61.1690   31.7580   49.1830 C   0  0  0  0  0  0  0  0  0  0  0  0
   59.0562   33.9359   50.3590 H   0  0  0  0  0  0  0  0  0  0  0  0
   60.0857   33.8753   48.8883 H   0  0  0  0  0  0  0  0  0  0  0  0
   58.4721   33.0859   48.8883 H   0  0  0  0  0  0  0  0  0  0  0  0
   58.1238   31.2012   50.5118 H   0  0  0  0  0  0  0  0  0  0  0  0
   58.6944   30.8469   48.8364 H   0  0  0  0  0  0  0  0  0  0  0  0
   59.8246   29.7281   51.4532 H   0  0  0  0  0  0  0  0  0  0  0  0
   58.9185   28.8367   50.1501 H   0  0  0  0  0  0  0  0  0  0  0  0
   60.3838   29.6146   47.6515 H   0  0  0  0  0  0  0  0  0  0  0  0
   61.6519   28.3705   47.9621 H   0  0  0  0  0  0  0  0  0  0  0  0
   60.0805   26.7629   48.6747 H   0  0  0  0  0  0  0  0  0  0  0  0
   58.8137   28.0054   48.9868 H   0  0  0  0  0  0  0  0  0  0  0  0
   59.1950   26.5650   46.5330 H   0  0  0  0  0  0  0  0  0  0  0  0
   59.7494   30.1006   46.6959 H   0  0  0  0  0  0  0  0  0  0  0  0
   59.5371   32.3724   47.3872 H   0  0  0  0  0  0  0  0  0  0  0  0
   60.4697   32.1791   45.8298 H   0  0  0  0  0  0  0  0  0  0  0  0
   59.2527   34.6715   47.0372 H   0  0  0  0  0  0  0  0  0  0  0  0
   60.9270   34.3706   46.4216 H   0  0  0  0  0  0  0  0  0  0  0  0
   57.6155   35.0322   45.7536 H   0  0  0  0  0  0  0  0  0  0  0  0
   57.7900   35.1482   43.9613 H   0  0  0  0  0  0  0  0  0  0  0  0
   56.5920   33.0652   44.9436 H   0  0  0  0  0  0  0  0  0  0  0  0
   57.8959   32.8264   43.6922 H   0  0  0  0  0  0  0  0  0  0  0  0
   53.3332   24.5029   46.2949 H   0  0  0  0  0  0  0  0  0  0  0  0
   53.7991   22.0591   45.8696 H   0  0  0  0  0  0  0  0  0  0  0  0
   56.0833   21.3248   45.1360 H   0  0  0  0  0  0  0  0  0  0  0  0
   57.9184   23.0290   44.8191 H   0  0  0  0  0  0  0  0  0  0  0  0
   62.1377   30.6536   50.7629 H   0  0  0  0  0  0  0  0  0  0  0  0
   62.6917   30.2464   49.0855 H   0  0  0  0  0  0  0  0  0  0  0  0
   61.8811   32.5935   49.2519 H   0  0  0  0  0  0  0  0  0  0  0  0
   60.8813   31.6048   48.1324 H   0  0  0  0  0  0  0  0  0  0  0  0
  1  2  1  0
  2  3  1  0
  3  4  1  0
  4  5  1  0
  5  6  1  0
  6  7  1  0
  7  8  1  0
  8  9  1  0
  9 10  1  0
 10 11  2  0
 11 12  1  0
 12 13  1  0
 13 14  1  0
 14 15  1  0
 15 16  1  0
 16 17  1  0
 11 18  1  0
 18 19  1  0
 19 20  2  0
 19 21  1  0
 21 22  1  0
 22 23  2  0
 23 24  1  0
 24 25  2  0
 25 26  1  0
 26 27  2  0
 27 28  1  0
 28 29  2  0
 29 30  1  0
  5 31  1  0
 31 32  1  0
 32  2  1  0
 21  9  2  0
 30 22  1  0
 17 12  1  0
 29 24  1  0
  1 33  1  0
  1 34  1  0
  1 35  1  0
  3 36  1  0
  3 37  1  0
  4 38  1  0
  4 39  1  0
  6 40  1  0
  6 41  1  0
  7 42  1  0
  7 43  1  0
  8 44  1  0
 10 45  1  0
 13 46  1  0
 13 47  1  0
 14 48  1  0
 14 49  1  0
 16 50  1  0
 16 51  1  0
 17 52  1  0
 17 53  1  0
 25 54  1  0
 26 55  1  0
 27 56  1  0
 28 57  1  0
 31 58  1  0
 31 59  1  0
 32 60  1  0
 32 61  1  0
M  CHG  2  18  -1  30  -1
M  END
>  <UniqueID>  (46) 
40

>  <SMILES>  (46) 
CN1CCN(CCNc2cc(N3CCOCC3)[n-]c(=O)c2-c2nc3ccccc3[n-]2)CC1

>  <Energy>  (46) 
114.84918393560082

>  <Genealogy>  (46) 
CN1CCN(CCNc2cc(N3CCOCC3)[n-]c(=O)c2-c2nc3ccccc3[n-]2)CC1 (protonated)
CN1CCN(CCNc2cc(N3CCOCC3)[n-]c(=O)c2-c2nc3ccccc3[n-]2)CC1 (3D coordinates assigned)
CN1CCN(CCNc2cc(N3CCOCC3)[n-]c(=O)c2-c2nc3ccccc3[n-]2)CC1 (nonaromatic ring conformer: 114.84918393560082 kcal/mol)

>  <smiles>  (46) 
CN1CCN(CCNc2cc(N3CCOCC3)[nH]c(=O)c2-c2nc3ccccc3[nH]2)CC1

>  <score_type>  (46) 
oracle

>  <origin>  (46) 
adg

>  <m_score__min__energy>  (46) 
-11.42

>  <m_primary>  (46) 
energy

$$$$
46:0
     RDKit          3D

 29 31  0  0  0  0  0  0  0  0999 V2000
   56.6940   34.2080   45.2480 C   0  0  0  0  0  0  0  0  0  0  0  0
   58.0560   34.0500   45.8570 C   0  0  0  0  0  0  0  0  0  0  0  0
   59.0930   34.9260   45.5060 C   0  0  0  0  0  0  0  0  0  0  0  0
   60.3720   34.7560   46.0440 C   0  0  0  0  0  0  0  0  0  0  0  0
   60.6330   33.7060   46.9390 C   0  0  0  0  0  0  0  0  0  0  0  0
   61.9500   33.5170   47.4820 N   0  0  0  0  0  0  0  0  0  0  0  0
   63.0740   33.2020   46.7860 C   0  0  0  0  0  0  0  0  0  0  0  0
   64.1650   33.1040   47.5820 N   0  0  0  0  0  0  0  0  0  0  0  0
   63.7040   33.3570   48.8180 C   0  0  0  0  0  0  0  0  0  0  0  0
   64.4120   33.3500   50.0170 C   0  0  0  0  0  0  0  0  0  0  0  0
   63.6920   33.6020   51.2000 C   0  0  0  0  0  0  0  0  0  0  0  0
   62.3000   33.8380   51.1540 C   0  0  0  0  0  0  0  0  0  0  0  0
   61.6130   33.8340   49.9250 C   0  0  0  0  0  0  0  0  0  0  0  0
   62.3610   33.6060   48.7650 C   0  0  0  0  0  0  0  0  0  0  0  0
   59.6030   32.8100   47.2610 C   0  0  0  0  0  0  0  0  0  0  0  0
   58.3230   32.9790   46.7230 C   0  0  0  0  0  0  0  0  0  0  0  0
   55.9430   34.2951   46.0470 H   0  0  0  0  0  0  0  0  0  0  0  0
   56.6737   35.1145   44.6253 H   0  0  0  0  0  0  0  0  0  0  0  0
   56.4667   33.3302   44.6253 H   0  0  0  0  0  0  0  0  0  0  0  0
   58.8993   35.7506   44.8042 H   0  0  0  0  0  0  0  0  0  0  0  0
   61.1791   35.4492   45.7644 H   0  0  0  0  0  0  0  0  0  0  0  0
   63.0951   33.0443   45.6976 H   0  0  0  0  0  0  0  0  0  0  0  0
   65.1430   32.8720   47.2970 H   0  0  0  0  0  0  0  0  0  0  0  0
   65.4943   33.1547   50.0389 H   0  0  0  0  0  0  0  0  0  0  0  0
   64.2168   33.6152   52.1667 H   0  0  0  0  0  0  0  0  0  0  0  0
   61.7479   34.0266   52.0865 H   0  0  0  0  0  0  0  0  0  0  0  0
   60.5272   34.0040   49.8786 H   0  0  0  0  0  0  0  0  0  0  0  0
   59.8032   31.9689   47.9411 H   0  0  0  0  0  0  0  0  0  0  0  0
   57.5226   32.2695   46.9799 H   0  0  0  0  0  0  0  0  0  0  0  0
  1  2  1  0
  2  3  2  0
  3  4  1  0
  4  5  2  0
  5  6  1  0
  6  7  1  0
  7  8  2  0
  8  9  1  0
  9 10  2  0
 10 11  1  0
 11 12  2  0
 12 13  1  0
 13 14  2  0
  5 15  1  0
 15 16  2  0
 16  2  1  0
 14  6  1  0
 14  9  1  0
  1 17  1  0
  1 18  1  0
  1 19  1  0
  3 20  1  0
  4 21  1  0
  7 22  1  0
  8 23  1  0
 10 24  1  0
 11 25  1  0
 12 26  1  0
 13 27  1  0
 15 28  1  0
 16 29  1  0
M  CHG  1   8   1
M  END
>  <UniqueID>  (47) 
41

>  <SMILES>  (47) 
Cc1ccc(-n2c[nH+]c3ccccc32)cc1

>  <Energy>  (47) 
74.93121470650627

>  <Genealogy>  (47) 
Cc1ccc(-n2c[nH+]c3ccccc32)cc1 (protonated)
Cc1ccc(-n2c[nH+]c3ccccc32)cc1 (3D coordinates assigned)
Cc1ccc(-n2c[nH+]c3ccccc32)cc1 (optimized conformer: 74.93121470650627 kcal/mol)

>  <smiles>  (47) 
Cc1ccc(-n2cnc3ccccc32)cc1

>  <score_type>  (47) 
oracle

>  <origin>  (47) 
adg

>  <m_score__min__energy>  (47) 
-4.9100000000000001

>  <m_primary>  (47) 
energy

$$$$
47:0
     RDKit          3D

 37 39  0  0  0  0  0  0  0  0999 V2000
   51.3960   32.6970   50.1140 O   0  0  0  0  0  0  0  0  0  0  0  0
   51.3020   32.2680   51.2940 C   0  0  0  0  0  0  0  0  0  0  0  0
   50.2530   32.7100   52.0910 O   0  0  0  0  0  0  0  0  0  0  0  0
   52.2940   31.3050   51.8250 C   0  0  0  0  0  0  0  0  0  0  0  0
   51.8760   30.0880   52.3910 C   0  0  0  0  0  0  0  0  0  0  0  0
   52.8140   29.1810   52.8880 C   0  0  0  0  0  0  0  0  0  0  0  0
   54.1770   29.4750   52.8260 C   0  0  0  0  0  0  0  0  0  0  0  0
   54.6200   30.6860   52.2660 C   0  0  0  0  0  0  0  0  0  0  0  0
   56.0710   30.9990   52.2030 C   0  0  0  0  0  0  0  0  0  0  0  0
   57.0140   29.9770   51.9990 C   0  0  0  0  0  0  0  0  0  0  0  0
   58.3790   30.2710   51.9390 C   0  0  0  0  0  0  0  0  0  0  0  0
   58.8280   31.5930   52.0980 C   0  0  0  0  0  0  0  0  0  0  0  0
   60.2180   31.9420   52.0210 N   0  0  0  0  0  0  0  0  0  0  0  0
   60.9040   32.4760   50.8810 C   0  0  0  0  0  0  0  0  0  0  0  0
   62.1470   32.6880   50.9320 O   0  0  0  0  0  0  0  0  0  0  0  0
   60.1450   32.8310   49.6580 C   0  0  0  0  0  0  0  0  0  0  0  0
   60.1520   34.1520   49.1710 C   0  0  0  0  0  0  0  0  0  0  0  0
   59.4370   34.4870   48.0170 C   0  0  0  0  0  0  0  0  0  0  0  0
   58.7090   33.5080   47.3350 C   0  0  0  0  0  0  0  0  0  0  0  0
   57.8130   33.9300   45.8870 Cl  0  0  0  0  0  0  0  0  0  0  0  0
   58.6950   32.1930   47.8080 C   0  0  0  0  0  0  0  0  0  0  0  0
   59.4090   31.8540   48.9620 C   0  0  0  0  0  0  0  0  0  0  0  0
   57.8890   32.6160   52.2750 C   0  0  0  0  0  0  0  0  0  0  0  0
   56.5230   32.3240   52.3360 C   0  0  0  0  0  0  0  0  0  0  0  0
   53.6680   31.5960   51.7670 C   0  0  0  0  0  0  0  0  0  0  0  0
   50.8036   29.8488   52.4426 H   0  0  0  0  0  0  0  0  0  0  0  0
   52.4776   28.2315   53.3299 H   0  0  0  0  0  0  0  0  0  0  0  0
   54.9096   28.7542   53.2180 H   0  0  0  0  0  0  0  0  0  0  0  0
   56.6748   28.9368   51.8856 H   0  0  0  0  0  0  0  0  0  0  0  0
   59.1056   29.4634   51.7664 H   0  0  0  0  0  0  0  0  0  0  0  0
   60.7244   34.9265   49.7025 H   0  0  0  0  0  0  0  0  0  0  0  0
   59.4475   35.5223   47.6454 H   0  0  0  0  0  0  0  0  0  0  0  0
   58.1212   31.4229   47.2716 H   0  0  0  0  0  0  0  0  0  0  0  0
   59.3952   30.8168   49.3280 H   0  0  0  0  0  0  0  0  0  0  0  0
   58.2286   33.6582   52.3669 H   0  0  0  0  0  0  0  0  0  0  0  0
   55.7970   33.1361   52.4890 H   0  0  0  0  0  0  0  0  0  0  0  0
   54.0038   32.5463   51.3264 H   0  0  0  0  0  0  0  0  0  0  0  0
  1  2  2  0
  2  3  1  0
  2  4  1  0
  4  5  2  0
  5  6  1  0
  6  7  2  0
  7  8  1  0
  8  9  1  0
  9 10  2  0
 10 11  1  0
 11 12  2  0
 12 13  1  0
 13 14  1  0
 14 15  2  0
 14 16  1  0
 16 17  2  0
 17 18  1  0
 18 19  2  0
 19 20  1  0
 19 21  1  0
 21 22  2  0
 12 23  1  0
 23 24  2  0
  8 25  2  0
 25  4  1  0
 24  9  1  0
 22 16  1  0
  5 26  1  0
  6 27  1  0
  7 28  1  0
 10 29  1  0
 11 30  1  0
 17 31  1  0
 18 32  1  0
 21 33  1  0
 22 34  1  0
 23 35  1  0
 24 36  1  0
 25 37  1  0
M  CHG  2   3  -1  13  -1
M  END
>  <UniqueID>  (48) 
42

>  <SMILES>  (48) 
O=C([O-])c1cccc(-c2ccc([N-]C(=O)c3ccc(Cl)cc3)cc2)c1

>  <Energy>  (48) 
50.39938277553342

>  <Genealogy>  (48) 
O=C([O-])c1cccc(-c2ccc([N-]C(=O)c3ccc(Cl)cc3)cc2)c1 (protonated)
O=C([O-])c1cccc(-c2ccc([N-]C(=O)c3ccc(Cl)cc3)cc2)c1 (3D coordinates assigned)
O=C([O-])c1cccc(-c2ccc([N-]C(=O)c3ccc(Cl)cc3)cc2)c1 (optimized conformer: 50.39938277553342 kcal/mol)

>  <smiles>  (48) 
O=C(O)c1cccc(-c2ccc(NC(=O)c3ccc(Cl)cc3)cc2)c1

>  <score_type>  (48) 
oracle

>  <origin>  (48) 
adg

>  <m_score__min__energy>  (48) 
-12.26

>  <m_primary>  (48) 
energy

$$$$
48:0
     RDKit          3D

 42 43  0  0  0  0  0  0  0  0999 V2000
   56.6320   22.1580   43.1390 C   0  0  0  0  0  0  0  0  0  0  0  0
   56.1610   23.5950   43.3580 C   0  0  0  0  0  0  0  0  0  0  0  0
   55.8090   23.8740   44.8360 C   0  0  0  0  0  0  0  0  0  0  0  0
   56.7890   24.8430   45.5240 C   0  0  0  0  0  0  0  0  0  0  0  0
   57.9170   25.3570   44.6030 C   0  0  0  0  0  0  0  0  0  0  0  0
   58.8780   26.3410   45.2910 C   0  0  0  0  0  0  0  0  0  0  0  0
   58.3890   27.7640   45.2350 C   0  0  0  0  0  0  0  0  0  0  0  0
   59.3010   28.8310   45.2540 C   0  0  0  0  0  0  0  0  0  0  0  0
   58.8410   30.1500   45.2370 C   0  0  0  0  0  0  0  0  0  0  0  0
   57.4690   30.4230   45.1910 C   0  0  0  0  0  0  0  0  0  0  0  0
   57.0530   31.7580   45.1520 O   0  0  0  0  0  0  0  0  0  0  0  0
   57.8500   32.8520   45.5240 C   0  0  0  0  0  0  0  0  0  0  0  0
   58.4270   33.7190   44.5740 C   0  0  0  0  0  0  0  0  0  0  0  0
   59.2170   34.7940   44.9920 C   0  0  0  0  0  0  0  0  0  0  0  0
   59.4420   35.0110   46.3540 C   0  0  0  0  0  0  0  0  0  0  0  0
   58.8800   34.1490   47.3010 C   0  0  0  0  0  0  0  0  0  0  0  0
   58.0900   33.0730   46.8870 C   0  0  0  0  0  0  0  0  0  0  0  0
   56.5460   29.3560   45.2070 C   0  0  0  0  0  0  0  0  0  0  0  0
   55.1700   29.5770   45.2500 O   0  0  0  0  0  0  0  0  0  0  0  0
   57.0130   28.0360   45.2080 C   0  0  0  0  0  0  0  0  0  0  0  0
   56.7913   21.6719   44.1128 H   0  0  0  0  0  0  0  0  0  0  0  0
   55.8684   21.6041   42.5733 H   0  0  0  0  0  0  0  0  0  0  0  0
   57.5753   22.1635   42.5733 H   0  0  0  0  0  0  0  0  0  0  0  0
   56.9628   24.2817   43.0489 H   0  0  0  0  0  0  0  0  0  0  0  0
   55.2509   23.7474   42.7592 H   0  0  0  0  0  0  0  0  0  0  0  0
   54.7999   24.3098   44.8782 H   0  0  0  0  0  0  0  0  0  0  0  0
   55.8695   22.9151   45.3716 H   0  0  0  0  0  0  0  0  0  0  0  0
   56.2188   25.7100   45.8890 H   0  0  0  0  0  0  0  0  0  0  0  0
   57.2734   24.2812   46.3363 H   0  0  0  0  0  0  0  0  0  0  0  0
   58.4988   24.4924   44.2511 H   0  0  0  0  0  0  0  0  0  0  0  0
   57.4347   25.9026   43.7786 H   0  0  0  0  0  0  0  0  0  0  0  0
   58.9872   26.0474   46.3455 H   0  0  0  0  0  0  0  0  0  0  0  0
   59.8380   26.2977   44.7558 H   0  0  0  0  0  0  0  0  0  0  0  0
   60.3817   28.6278   45.2824 H   0  0  0  0  0  0  0  0  0  0  0  0
   59.5624   30.9801   45.2599 H   0  0  0  0  0  0  0  0  0  0  0  0
   58.2552   33.5492   43.5008 H   0  0  0  0  0  0  0  0  0  0  0  0
   59.6623   35.4702   44.2474 H   0  0  0  0  0  0  0  0  0  0  0  0
   60.0609   35.8595   46.6811 H   0  0  0  0  0  0  0  0  0  0  0  0
   59.0599   34.3180   48.3729 H   0  0  0  0  0  0  0  0  0  0  0  0
   57.6538   32.3953   47.6357 H   0  0  0  0  0  0  0  0  0  0  0  0
   54.7660   30.4320   45.6090 H   0  0  0  0  0  0  0  0  0  0  0  0
   56.2938   27.2040   45.1874 H   0  0  0  0  0  0  0  0  0  0  0  0
  1  2  1  0
  2  3  1  0
  3  4  1  0
  4  5  1  0
  5  6  1  0
  6  7  1  0
  7  8  2  0
  8  9  1  0
  9 10  2  0
 10 11  1  0
 11 12  1  0
 12 13  2  0
 13 14  1  0
 14 15  2  0
 15 16  1  0
 16 17  2  0
 10 18  1  0
 18 19  1  0
 18 20  2  0
 20  7  1  0
 17 12  1  0
  1 21  1  0
  1 22  1  0
  1 23  1  0
  2 24  1  0
  2 25  1  0
  3 26  1  0
  3 27  1  0
  4 28  1  0
  4 29  1  0
  5 30  1  0
  5 31  1  0
  6 32  1  0
  6 33  1  0
  8 34  1  0
  9 35  1  0
 13 36  1  0
 14 37  1  0
 15 38  1  0
 16 39  1  0
 17 40  1  0
 19 41  1  0
 20 42  1  0
M  END
>  <UniqueID>  (49) 
43

>  <SMILES>  (49) 
CCCCCCc1ccc(Oc2ccccc2)c(O)c1

>  <Energy>  (49) 
44.52421591621925

>  <Genealogy>  (49) 
CCCCCCc1ccc(Oc2ccccc2)c(O)c1 (3D coordinates assigned)
CCCCCCc1ccc(Oc2ccccc2)c(O)c1 (optimized conformer: 44.52421591621925 kcal/mol)

>  <smiles>  (49) 
CCCCCCc1ccc(Oc2ccccc2)c(O)c1

>  <score_type>  (49) 
oracle

>  <origin>  (49) 
adg

>  <m_score__min__energy>  (49) 
-7.7199999999999998

>  <m_primary>  (49) 
energy

$$$$
49:0
     RDKit          3D

 33 34  0  0  0  0  0  0  0  0999 V2000
   56.3850   30.4110   43.8930 C   0  0  0  0  0  0  0  0  0  0  0  0
   57.2250   31.5780   43.5910 N   0  0  0  0  0  0  0  0  0  0  0  0
   57.4370   31.9540   42.1870 C   0  0  0  0  0  0  0  0  0  0  0  0
   57.8360   32.3450   44.6610 C   0  0  0  0  0  0  0  0  0  0  0  0
   58.1550   31.7400   45.8950 C   0  0  0  0  0  0  0  0  0  0  0  0
   58.7440   32.4800   46.9240 C   0  0  0  0  0  0  0  0  0  0  0  0
   59.0240   33.8440   46.7510 C   0  0  0  0  0  0  0  0  0  0  0  0
   59.6620   34.5980   47.8020 N   0  0  0  0  0  0  0  0  0  0  0  0
   61.0490   34.2160   47.8970 C   0  0  0  0  0  0  0  0  0  0  0  0
   61.6920   34.1710   49.1470 C   0  0  0  0  0  0  0  0  0  0  0  0
   63.0290   33.7730   49.2410 C   0  0  0  0  0  0  0  0  0  0  0  0
   63.7330   33.4090   48.0890 C   0  0  0  0  0  0  0  0  0  0  0  0
   63.1020   33.4420   46.8430 C   0  0  0  0  0  0  0  0  0  0  0  0
   61.7650   33.8400   46.7450 C   0  0  0  0  0  0  0  0  0  0  0  0
   58.7180   34.4520   45.5240 C   0  0  0  0  0  0  0  0  0  0  0  0
   58.1290   33.7150   44.4940 C   0  0  0  0  0  0  0  0  0  0  0  0
   56.2999   30.2928   44.9833 H   0  0  0  0  0  0  0  0  0  0  0  0
   55.3842   30.5579   43.4609 H   0  0  0  0  0  0  0  0  0  0  0  0
   56.8420   29.5086   43.4609 H   0  0  0  0  0  0  0  0  0  0  0  0
   57.9768   32.9114   42.1413 H   0  0  0  0  0  0  0  0  0  0  0  0
   58.0288   31.1750   41.6841 H   0  0  0  0  0  0  0  0  0  0  0  0
   56.4641   32.0572   41.6841 H   0  0  0  0  0  0  0  0  0  0  0  0
   57.9375   30.6728   46.0491 H   0  0  0  0  0  0  0  0  0  0  0  0
   58.9900   31.9892   47.8772 H   0  0  0  0  0  0  0  0  0  0  0  0
   59.1780   34.4250   48.7150 H   0  0  0  0  0  0  0  0  0  0  0  0
   59.5820   35.6240   47.6090 H   0  0  0  0  0  0  0  0  0  0  0  0
   61.1397   34.4506   50.0562 H   0  0  0  0  0  0  0  0  0  0  0  0
   63.5272   33.7462   50.2214 H   0  0  0  0  0  0  0  0  0  0  0  0
   64.7850   33.0963   48.1639 H   0  0  0  0  0  0  0  0  0  0  0  0
   63.6574   33.1546   45.9381 H   0  0  0  0  0  0  0  0  0  0  0  0
   61.2704   33.8593   45.7627 H   0  0  0  0  0  0  0  0  0  0  0  0
   58.9438   35.5178   45.3720 H   0  0  0  0  0  0  0  0  0  0  0  0
   57.8906   34.2090   43.5405 H   0  0  0  0  0  0  0  0  0  0  0  0
  1  2  1  0
  2  3  1  0
  2  4  1  0
  4  5  2  0
  5  6  1  0
  6  7  2  0
  7  8  1  0
  8  9  1  0
  9 10  2  0
 10 11  1  0
 11 12  2  0
 12 13  1  0
 13 14  2  0
  7 15  1  0
 15 16  2  0
 16  4  1  0
 14  9  1  0
  1 17  1  0
  1 18  1  0
  1 19  1  0
  3 20  1  0
  3 21  1  0
  3 22  1  0
  5 23  1  0
  6 24  1  0
  8 25  1  0
  8 26  1  0
 10 27  1  0
 11 28  1  0
 12 29  1  0
 13 30  1  0
 14 31  1  0
 15 32  1  0
 16 33  1  0
M  CHG  1   8   1
M  END
>  <UniqueID>  (50) 
44

>  <SMILES>  (50) 
CN(C)c1ccc([NH2+]c2ccccc2)cc1

>  <Energy>  (50) 
36.404068951515285

>  <Genealogy>  (50) 
CN(C)c1ccc([NH2+]c2ccccc2)cc1 (protonated)
CN(C)c1ccc([NH2+]c2ccccc2)cc1 (3D coordinates assigned)
CN(C)c1ccc([NH2+]c2ccccc2)cc1 (optimized conformer: 36.404068951515285 kcal/mol)

>  <smiles>  (50) 
CN(C)c1ccc(Nc2ccccc2)cc1

>  <score_type>  (50) 
oracle

>  <origin>  (50) 
adg

>  <m_score__min__energy>  (50) 
-4.5999999999999996

>  <m_primary>  (50) 
energy

$$$$
50:0
     RDKit          3D

 30 31  0  0  0  0  0  0  0  0999 V2000
   60.0190   36.3290   45.6500 N   0  0  0  0  0  0  0  0  0  0  0  0
   59.5110   35.2890   45.6440 C   0  0  0  0  0  0  0  0  0  0  0  0
   58.8790   33.9950   45.6360 C   0  0  0  0  0  0  0  0  0  0  0  0
   58.2270   33.5410   44.4820 C   0  0  0  0  0  0  0  0  0  0  0  0
   57.6140   32.2840   44.4730 C   0  0  0  0  0  0  0  0  0  0  0  0
   57.6330   31.4800   45.6240 C   0  0  0  0  0  0  0  0  0  0  0  0
   57.0310   30.1820   45.6360 N   0  0  0  0  0  0  0  0  0  0  0  0
   56.3870   29.5380   44.5280 C   0  0  0  0  0  0  0  0  0  0  0  0
   55.1440   29.3450   44.5790 O   0  0  0  0  0  0  0  0  0  0  0  0
   57.1310   29.1540   43.2770 C   0  0  0  0  0  0  0  0  0  0  0  0
   57.9680   27.5380   43.4530 S   0  0  0  0  0  0  0  0  0  0  0  0
   58.8940   27.9980   44.9200 C   0  0  0  0  0  0  0  0  0  0  0  0
   58.5810   27.4200   46.1580 C   0  0  0  0  0  0  0  0  0  0  0  0
   59.3000   27.7820   47.3010 C   0  0  0  0  0  0  0  0  0  0  0  0
   60.3280   28.7260   47.2130 C   0  0  0  0  0  0  0  0  0  0  0  0
   60.6350   29.3110   45.9800 C   0  0  0  0  0  0  0  0  0  0  0  0
   59.9170   28.9510   44.8350 C   0  0  0  0  0  0  0  0  0  0  0  0
   58.3140   31.9260   46.7640 C   0  0  0  0  0  0  0  0  0  0  0  0
   58.9260   33.1830   46.7750 C   0  0  0  0  0  0  0  0  0  0  0  0
   58.1972   34.1736   43.5826 H   0  0  0  0  0  0  0  0  0  0  0  0
   57.1152   31.9239   43.5611 H   0  0  0  0  0  0  0  0  0  0  0  0
   56.4173   29.0961   42.4420 H   0  0  0  0  0  0  0  0  0  0  0  0
   57.8995   29.9181   43.0884 H   0  0  0  0  0  0  0  0  0  0  0  0
   57.7692   26.6812   46.2302 H   0  0  0  0  0  0  0  0  0  0  0  0
   59.0568   27.3237   48.2709 H   0  0  0  0  0  0  0  0  0  0  0  0
   60.8947   29.0083   48.1126 H   0  0  0  0  0  0  0  0  0  0  0  0
   61.4422   30.0551   45.9109 H   0  0  0  0  0  0  0  0  0  0  0  0
   60.1558   29.4165   43.8674 H   0  0  0  0  0  0  0  0  0  0  0  0
   58.3675   31.2837   47.6554 H   0  0  0  0  0  0  0  0  0  0  0  0
   59.4447   33.5340   47.6793 H   0  0  0  0  0  0  0  0  0  0  0  0
  1  2  3  0
  2  3  1  0
  3  4  2  0
  4  5  1  0
  5  6  2  0
  6  7  1  0
  7  8  1  0
  8  9  2  0
  8 10  1  0
 10 11  1  0
 11 12  1  0
 12 13  2  0
 13 14  1  0
 14 15  2  0
 15 16  1  0
 16 17  2  0
  6 18  1  0
 18 19  2  0
 19  3  1  0
 17 12  1  0
  4 20  1  0
  5 21  1  0
 10 22  1  0
 10 23  1  0
 13 24  1  0
 14 25  1  0
 15 26  1  0
 16 27  1  0
 17 28  1  0
 18 29  1  0
 19 30  1  0
M  CHG  1   7  -1
M  END
>  <UniqueID>  (51) 
45

>  <SMILES>  (51) 
N#Cc1ccc([N-]C(=O)CSc2ccccc2)cc1

>  <Energy>  (51) 
30.422406311192763

>  <Genealogy>  (51) 
N#Cc1ccc([N-]C(=O)CSc2ccccc2)cc1 (protonated)
N#Cc1ccc([N-]C(=O)CSc2ccccc2)cc1 (3D coordinates assigned)
N#Cc1ccc([N-]C(=O)CSc2ccccc2)cc1 (optimized conformer: 30.422406311192763 kcal/mol)

>  <smiles>  (51) 
N#Cc1ccc(NC(=O)CSc2ccccc2)cc1

>  <score_type>  (51) 
oracle

>  <origin>  (51) 
adg

>  <m_score__min__energy>  (51) 
-8.8300000000000001

>  <m_primary>  (51) 
energy

$$$$
51:0
     RDKit          3D

 34 36  0  0  0  0  0  0  0  0999 V2000
   58.3789   32.1830   42.6045 H   0  0  0  0  0  0  0  0  0  0  0  0
   57.8320   32.2250   43.5580 C   0  0  0  0  0  0  0  0  0  0  0  0
   57.7600   33.4160   44.1740 C   0  0  0  0  0  0  0  0  0  0  0  0
   57.2020   34.2154   43.6645 H   0  0  0  0  0  0  0  0  0  0  0  0
   58.3690   33.7400   45.4800 C   0  0  0  0  0  0  0  0  0  0  0  0
   58.0010   32.9980   46.6140 C   0  0  0  0  0  0  0  0  0  0  0  0
   57.2383   32.2099   46.5292 H   0  0  0  0  0  0  0  0  0  0  0  0
   58.6000   33.2570   47.8500 C   0  0  0  0  0  0  0  0  0  0  0  0
   58.2959   32.6841   48.7384 H   0  0  0  0  0  0  0  0  0  0  0  0
   59.5850   34.2430   47.9590 C   0  0  0  0  0  0  0  0  0  0  0  0
   60.0499   34.4506   48.9341 H   0  0  0  0  0  0  0  0  0  0  0  0
   59.9790   34.9650   46.8290 C   0  0  0  0  0  0  0  0  0  0  0  0
   60.7592   35.7357   46.9141 H   0  0  0  0  0  0  0  0  0  0  0  0
   59.3830   34.7090   45.5910 C   0  0  0  0  0  0  0  0  0  0  0  0
   59.7078   35.2670   44.7004 H   0  0  0  0  0  0  0  0  0  0  0  0
   57.2390   30.9680   44.0530 C   0  0  0  0  0  0  0  0  0  0  0  0
   55.9750   30.8390   44.5040 N   0  0  0  0  0  0  0  0  0  0  0  0
   55.8840   29.6050   44.8960 O   0  0  0  0  0  0  0  0  0  0  0  0
   57.0300   28.9970   44.7130 C   0  0  0  0  0  0  0  0  0  0  0  0
   57.2850   27.5840   45.0530 C   0  0  0  0  0  0  0  0  0  0  0  0
   57.7840   26.6930   44.0870 C   0  0  0  0  0  0  0  0  0  0  0  0
   57.9884   27.0506   43.0670 H   0  0  0  0  0  0  0  0  0  0  0  0
   58.0220   25.3550   44.4150 C   0  0  0  0  0  0  0  0  0  0  0  0
   58.4215   24.6680   43.6545 H   0  0  0  0  0  0  0  0  0  0  0  0
   57.7540   24.8840   45.7090 C   0  0  0  0  0  0  0  0  0  0  0  0
   58.0480   23.4580   46.0700 C   0  0  0  0  0  0  0  0  0  0  0  0
   58.0695   23.3539   47.1649 H   0  0  0  0  0  0  0  0  0  0  0  0
   57.2654   22.8059   45.6549 H   0  0  0  0  0  0  0  0  0  0  0  0
   59.0247   23.1686   45.6549 H   0  0  0  0  0  0  0  0  0  0  0  0
   57.2730   25.7760   46.6790 C   0  0  0  0  0  0  0  0  0  0  0  0
   57.0829   25.4204   47.7024 H   0  0  0  0  0  0  0  0  0  0  0  0
   57.0340   27.1130   46.3530 C   0  0  0  0  0  0  0  0  0  0  0  0
   56.6469   27.8015   47.1186 H   0  0  0  0  0  0  0  0  0  0  0  0
   57.9480   29.8280   44.1810 N   0  0  0  0  0  0  0  0  0  0  0  0
  1  2  1  0
  2  3  2  0
  3  4  1  0
  3  5  1  0
  5  6  2  0
  6  7  1  0
  6  8  1  0
  8  9  1  0
  8 10  2  0
 10 11  1  0
 10 12  1  0
 12 13  1  0
 12 14  2  0
 14 15  1  0
  2 16  1  0
 16 17  2  0
 17 18  1  0
 18 19  1  0
 19 20  1  0
 20 21  2  0
 21 22  1  0
 21 23  1  0
 23 24  1  0
 23 25  2  0
 25 26  1  0
 26 27  1  0
 26 28  1  0
 26 29  1  0
 25 30  1  0
 30 31  1  0
 30 32  2  0
 32 33  1  0
 19 34  2  0
 14  5  1  0
 34 16  1  0
 32 20  1  0
M  END
>  <UniqueID>  (52) 
46

>  <SMILES>  (52) 
Cc1ccc(-c2nc(/C=C\c3ccccc3)no2)cc1

>  <Energy>  (52) 
76.21353805025583

>  <Genealogy>  (52) 
Cc1ccc(-c2nc(/C=C\c3ccccc3)no2)cc1 (cis-trans isomerization)
Cc1ccc(-c2nc(/C=C\c3ccccc3)no2)cc1 (3D coordinates assigned)
Cc1ccc(-c2nc(/C=C\c3ccccc3)no2)cc1 (optimized conformer: 76.21353805025583 kcal/mol)

>  <smiles>  (52) 
Cc1ccc(-c2nc(C=Cc3ccccc3)no2)cc1

>  <score_type>  (52) 
oracle

>  <origin>  (52) 
adg

>  <m_score__min__energy>  (52) 
-8.1099999999999994

>  <m_primary>  (52) 
energy

$$$$
52:0
     RDKit          3D

 47 50  0  0  0  0  0  0  0  0999 V2000
   59.7010   34.3760   48.7480 C   0  0  0  0  0  0  0  0  0  0  0  0
   59.0990   33.7660   47.5160 C   0  0  0  0  0  0  0  0  0  0  0  0
   58.5140   34.5820   46.5380 C   0  0  0  0  0  0  0  0  0  0  0  0
   57.9220   34.0120   45.4090 C   0  0  0  0  0  0  0  0  0  0  0  0
   57.8960   32.6240   45.2540 C   0  0  0  0  0  0  0  0  0  0  0  0
   58.4610   31.7880   46.2340 C   0  0  0  0  0  0  0  0  0  0  0  0
   58.4260   30.3570   46.0790 N   0  0  0  0  0  0  0  0  0  0  0  0
   59.4420   29.5540   46.3970 N   0  0  0  0  0  0  0  0  0  0  0  0
   59.0100   28.3190   46.1070 C   0  0  0  0  0  0  0  0  0  0  0  0
   59.6740   27.1070   46.2460 C   0  0  0  0  0  0  0  0  0  0  0  0
   58.9840   25.9310   45.8690 C   0  0  0  0  0  0  0  0  0  0  0  0
   59.6710   24.5990   45.9940 C   0  0  0  0  0  0  0  0  0  0  0  0
   57.6580   26.0250   45.3410 C   0  0  0  0  0  0  0  0  0  0  0  0
   56.9520   24.8490   44.9240 N   0  0  0  0  0  0  0  0  0  0  0  0
   56.9710   24.4390   43.5200 C   0  0  0  0  0  0  0  0  0  0  0  0
   57.0000   22.9100   43.4530 C   0  0  0  0  0  0  0  0  0  0  0  0
   55.8730   22.2740   44.1850 N   0  0  0  0  0  0  0  0  0  0  0  0
   56.2940   21.0060   44.8010 C   0  0  0  0  0  0  0  0  0  0  0  0
   55.1820   23.1470   45.1670 C   0  0  0  0  0  0  0  0  0  0  0  0
   56.1360   24.1110   45.8890 C   0  0  0  0  0  0  0  0  0  0  0  0
   57.0270   27.2820   45.2250 C   0  0  0  0  0  0  0  0  0  0  0  0
   57.7450   28.4020   45.6230 C   0  0  0  0  0  0  0  0  0  0  0  0
   57.3740   29.6900   45.6030 N   0  0  0  0  0  0  0  0  0  0  0  0
   59.0560   32.3700   47.3680 C   0  0  0  0  0  0  0  0  0  0  0  0
   59.2501   33.9191   49.6412 H   0  0  0  0  0  0  0  0  0  0  0  0
   60.7863   34.1971   48.7529 H   0  0  0  0  0  0  0  0  0  0  0  0
   59.5078   35.4589   48.7529 H   0  0  0  0  0  0  0  0  0  0  0  0
   58.5213   35.6752   46.6602 H   0  0  0  0  0  0  0  0  0  0  0  0
   57.4747   34.6581   44.6393 H   0  0  0  0  0  0  0  0  0  0  0  0
   57.4310   32.1822   44.3604 H   0  0  0  0  0  0  0  0  0  0  0  0
   60.7016   27.0631   46.6360 H   0  0  0  0  0  0  0  0  0  0  0  0
   59.7990   24.3509   47.0580 H   0  0  0  0  0  0  0  0  0  0  0  0
   59.0600   23.8242   45.5077 H   0  0  0  0  0  0  0  0  0  0  0  0
   60.6565   24.6476   45.5077 H   0  0  0  0  0  0  0  0  0  0  0  0
   56.0698   24.8143   43.0130 H   0  0  0  0  0  0  0  0  0  0  0  0
   57.8607   24.8519   43.0221 H   0  0  0  0  0  0  0  0  0  0  0  0
   56.9490   22.6045   42.3975 H   0  0  0  0  0  0  0  0  0  0  0  0
   57.9325   22.5777   43.9326 H   0  0  0  0  0  0  0  0  0  0  0  0
   56.2621   21.1021   45.8963 H   0  0  0  0  0  0  0  0  0  0  0  0
   55.6149   20.2009   44.4836 H   0  0  0  0  0  0  0  0  0  0  0  0
   57.3197   20.7669   44.4836 H   0  0  0  0  0  0  0  0  0  0  0  0
   54.4216   23.7385   44.6360 H   0  0  0  0  0  0  0  0  0  0  0  0
   54.7346   22.4936   45.9305 H   0  0  0  0  0  0  0  0  0  0  0  0
   55.5468   24.8242   46.4841 H   0  0  0  0  0  0  0  0  0  0  0  0
   56.8013   23.5276   46.5424 H   0  0  0  0  0  0  0  0  0  0  0  0
   56.0030   27.3714   44.8333 H   0  0  0  0  0  0  0  0  0  0  0  0
   59.4916   31.7258   48.1460 H   0  0  0  0  0  0  0  0  0  0  0  0
  1  2  1  0
  2  3  2  0
  3  4  1  0
  4  5  2  0
  5  6  1  0
  6  7  1  0
  7  8  1  0
  8  9  2  0
  9 10  1  0
 10 11  2  0
 11 12  1  0
 11 13  1  0
 13 14  1  0
 14 15  1  0
 15 16  1  0
 16 17  1  0
 17 18  1  0
 17 19  1  0
 19 20  1  0
 13 21  2  0
 21 22  1  0
 22 23  2  0
  6 24  2  0
 24  2  1  0
 23  7  1  0
 22  9  1  0
 20 14  1  0
  1 25  1  0
  1 26  1  0
  1 27  1  0
  3 28  1  0
  4 29  1  0
  5 30  1  0
 10 31  1  0
 12 32  1  0
 12 33  1  0
 12 34  1  0
 15 35  1  0
 15 36  1  0
 16 37  1  0
 16 38  1  0
 18 39  1  0
 18 40  1  0
 18 41  1  0
 19 42  1  0
 19 43  1  0
 20 44  1  0
 20 45  1  0
 21 46  1  0
 24 47  1  0
M  END
>  <UniqueID>  (53) 
47

>  <SMILES>  (53) 
Cc1cccc(-n2nc3cc(C)c(N4CCN(C)CC4)cc3n2)c1

>  <Energy>  (53) 
104.35254646791344

>  <Genealogy>  (53) 
Cc1cccc(-n2nc3cc(C)c(N4CCN(C)CC4)cc3n2)c1 (3D coordinates assigned)
Cc1cccc(-n2nc3cc(C)c(N4CCN(C)CC4)cc3n2)c1 (nonaromatic ring conformer: 104.35254646791344 kcal/mol)

>  <smiles>  (53) 
Cc1cccc(-n2nc3cc(C)c(N4CCN(C)CC4)cc3n2)c1

>  <score_type>  (53) 
oracle

>  <origin>  (53) 
adg

>  <m_score__min__energy>  (53) 
-7.9199999999999999

>  <m_primary>  (53) 
energy

$$$$
53:0
     RDKit          3D

 31 33  0  0  1  0  0  0  0  0999 V2000
   55.4080   26.4130   46.0370 O   0  0  0  0  0  0  0  0  0  0  0  0
   56.6040   26.1430   45.6840 C   0  0  0  0  0  0  0  0  0  0  0  0
   57.5200   27.2340   45.7620 N   0  0  0  0  0  0  0  0  0  0  0  0
   57.2350   28.4080   45.3330 C   0  0  0  0  0  0  0  0  0  0  0  0
   56.0310   28.9850   45.0750 N   0  0  0  0  0  0  0  0  0  0  0  0
   56.1290   30.2030   44.6470 N   0  0  0  0  0  0  0  0  0  0  0  0
   57.0140   30.8890   44.4440 C   0  0  0  0  0  0  0  0  0  0  0  0
   57.4310   32.2670   43.9760 C   0  0  0  0  0  0  0  0  0  0  0  0
   58.1300   32.8700   45.1210 C   0  0  0  0  0  0  0  0  0  0  0  0
   57.8030   32.4380   46.4000 C   0  0  0  0  0  0  0  0  0  0  0  0
   58.4030   32.9400   47.5350 C   0  0  0  0  0  0  0  0  0  0  0  0
   59.3670   33.9120   47.3550 C   0  0  0  0  0  0  0  0  0  0  0  0
   60.1690   34.5930   48.7730 Cl  0  0  0  0  0  0  0  0  0  0  0  0
   59.7410   34.3880   46.1170 C   0  0  0  0  0  0  0  0  0  0  0  0
   59.1060   33.8510   44.9950 C   0  0  0  0  0  0  0  0  0  0  0  0
   58.4480   29.6980   44.9300 S   0  0  0  0  0  0  0  0  0  0  0  0
   56.9700   24.8160   45.2430 C   0  0  0  0  0  0  0  0  0  0  0  0
   56.5450   24.2670   44.0360 C   0  0  0  0  0  0  0  0  0  0  0  0
   57.0750   23.0060   43.9390 C   0  0  0  0  0  0  0  0  0  0  0  0
   57.8110   22.8290   45.1000 C   0  0  0  0  0  0  0  0  0  0  0  0
   57.7190   23.9040   45.8200 O   0  0  0  0  0  0  0  0  0  0  0  0
   55.1470   28.4350   45.2310 H   0  0  0  0  0  0  0  0  0  0  0  0
   58.1042   32.1923   43.1093 H   0  0  0  0  0  0  0  0  0  0  0  0
   56.5684   32.8707   43.6575 H   0  0  0  0  0  0  0  0  0  0  0  0
   57.0318   31.6616   46.5120 H   0  0  0  0  0  0  0  0  0  0  0  0
   58.1265   32.5827   48.5379 H   0  0  0  0  0  0  0  0  0  0  0  0
   60.5135   35.1646   46.0160 H   0  0  0  0  0  0  0  0  0  0  0  0
   59.3835   34.2112   43.9934 H   0  0  0  0  0  0  0  0  0  0  0  0
   55.8992   24.7574   43.2928 H   0  0  0  0  0  0  0  0  0  0  0  0
   56.9440   22.2883   43.1157 H   0  0  0  0  0  0  0  0  0  0  0  0
   58.3794   21.9258   45.3668 H   0  0  0  0  0  0  0  0  0  0  0  0
  1  2  2  0
  2  3  1  0
  3  4  2  0
  4  5  1  0
  5  6  1  0
  6  7  2  0
  7  8  1  0
  8  9  1  0
  9 10  2  0
 10 11  1  0
 11 12  2  0
 12 13  1  0
 12 14  1  0
 14 15  2  0
  7 16  1  0
  2 17  1  0
 17 18  2  0
 18 19  1  0
 19 20  2  0
 20 21  1  0
 16  4  1  0
 21 17  1  0
 15  9  1  0
  5 22  1  0
  8 23  1  0
  8 24  1  0
 10 25  1  0
 11 26  1  0
 14 27  1  0
 15 28  1  0
 18 29  1  0
 19 30  1  0
 20 31  1  0
M  END
>  <smiles>  (54) 
O=C(N=c1[nH]nc(Cc2ccc(Cl)cc2)s1)c1ccco1

>  <score_type>  (54) 
oracle

>  <origin>  (54) 
adg

>  <m_score__min__energy>  (54) 
-8.5999999999999996

>  <m_primary>  (54) 
energy

$$$$
54:0
     RDKit          3D

 47 51  0  0  0  0  0  0  0  0999 V2000
   55.8630   28.2180   45.2540 O   0  0  0  0  0  0  0  0  0  0  0  0
   56.1430   27.0610   45.6640 C   0  0  0  0  0  0  0  0  0  0  0  0
   55.1440   26.2870   46.2420 O   0  0  0  0  0  0  0  0  0  0  0  0
   57.5340   26.4810   45.4870 C   0  0  2  0  0  0  0  0  0  0  0  0
   57.4410   24.9790   45.2360 C   0  0  0  0  0  0  0  0  0  0  0  0
   57.8340   24.0420   46.2180 C   0  0  0  0  0  0  0  0  0  0  0  0
   57.7860   22.6690   45.9560 C   0  0  0  0  0  0  0  0  0  0  0  0
   57.3620   22.2080   44.7100 C   0  0  0  0  0  0  0  0  0  0  0  0
   57.0020   23.1190   43.7150 C   0  0  0  0  0  0  0  0  0  0  0  0
   57.0470   24.4920   43.9690 C   0  0  0  0  0  0  0  0  0  0  0  0
   58.3060   26.7450   46.7090 N   0  0  0  0  0  0  0  0  0  0  0  0
   58.8350   27.8930   47.0360 C   0  0  0  0  0  0  0  0  0  0  0  0
   59.5870   27.9800   48.3110 C   0  0  0  0  0  0  0  0  0  0  0  0
   60.4060   26.9120   48.7230 C   0  0  0  0  0  0  0  0  0  0  0  0
   61.1210   26.9910   49.9220 C   0  0  0  0  0  0  0  0  0  0  0  0
   61.0360   28.1390   50.7140 C   0  0  0  0  0  0  0  0  0  0  0  0
   60.2400   29.2120   50.3050 C   0  0  0  0  0  0  0  0  0  0  0  0
   59.5230   29.1380   49.1070 C   0  0  0  0  0  0  0  0  0  0  0  0
   58.6920   29.0700   46.1330 C   0  0  0  0  0  0  0  0  0  0  0  0
   58.6660   30.3790   46.6400 C   0  0  0  0  0  0  0  0  0  0  0  0
   58.4220   31.4620   45.7860 C   0  0  0  0  0  0  0  0  0  0  0  0
   58.3980   32.7740   46.2770 C   0  0  0  0  0  0  0  0  0  0  0  0
   58.1480   33.8390   45.4110 C   0  0  0  0  0  0  0  0  0  0  0  0
   57.9170   33.6050   44.0530 C   0  0  0  0  0  0  0  0  0  0  0  0
   57.9340   32.2950   43.5370 C   0  0  0  0  0  0  0  0  0  0  0  0
   57.6810   32.0410   42.0660 C   0  0  0  0  0  0  0  0  0  0  0  0
   57.0210   30.8400   41.8570 F   0  0  0  0  0  0  0  0  0  0  0  0
   58.8890   32.0030   41.3910 F   0  0  0  0  0  0  0  0  0  0  0  0
   56.9040   33.0610   41.5460 F   0  0  0  0  0  0  0  0  0  0  0  0
   58.1830   31.2180   44.4150 C   0  0  0  0  0  0  0  0  0  0  0  0
   58.1950   29.9380   43.9550 N   0  0  0  0  0  0  0  0  0  0  0  0
   58.4480   28.8760   44.7640 C   0  0  0  0  0  0  0  0  0  0  0  0
   58.4270   27.2240   44.0630 S   0  0  0  0  0  0  0  0  0  0  0  0
   58.1816   24.3965   47.1996 H   0  0  0  0  0  0  0  0  0  0  0  0
   58.0834   21.9511   46.7346 H   0  0  0  0  0  0  0  0  0  0  0  0
   57.3112   21.1273   44.5112 H   0  0  0  0  0  0  0  0  0  0  0  0
   56.6819   22.7544   42.7278 H   0  0  0  0  0  0  0  0  0  0  0  0
   56.7729   25.2016   43.1745 H   0  0  0  0  0  0  0  0  0  0  0  0
   60.4840   26.0101   48.0982 H   0  0  0  0  0  0  0  0  0  0  0  0
   61.7513   26.1482   50.2422 H   0  0  0  0  0  0  0  0  0  0  0  0
   61.5956   28.1980   51.6592 H   0  0  0  0  0  0  0  0  0  0  0  0
   60.1773   30.1171   50.9270 H   0  0  0  0  0  0  0  0  0  0  0  0
   58.9057   29.9897   48.7853 H   0  0  0  0  0  0  0  0  0  0  0  0
   58.8379   30.5547   47.7122 H   0  0  0  0  0  0  0  0  0  0  0  0
   58.5763   32.9645   47.3456 H   0  0  0  0  0  0  0  0  0  0  0  0
   58.1327   34.8681   45.7993 H   0  0  0  0  0  0  0  0  0  0  0  0
   57.7199   34.4527   43.3803 H   0  0  0  0  0  0  0  0  0  0  0  0
  1  2  2  0
  2  3  1  0
  4  2  1  1
  4  5  1  0
  5  6  2  0
  6  7  1  0
  7  8  2  0
  8  9  1  0
  9 10  2  0
  4 11  1  0
 11 12  2  0
 12 13  1  0
 13 14  2  0
 14 15  1  0
 15 16  2  0
 16 17  1  0
 17 18  2  0
 12 19  1  0
 19 20  2  0
 20 21  1  0
 21 22  2  0
 22 23  1  0
 23 24  2  0
 24 25  1  0
 25 26  1  0
 26 27  1  0
 26 28  1  0
 26 29  1  0
 25 30  2  0
 30 31  1  0
 31 32  2  0
 32 33  1  0
 33  4  1  0
 10  5  1  0
 18 13  1  0
 32 19  1  0
 30 21  1  0
  6 34  1  0
  7 35  1  0
  8 36  1  0
  9 37  1  0
 10 38  1  0
 14 39  1  0
 15 40  1  0
 16 41  1  0
 17 42  1  0
 18 43  1  0
 20 44  1  0
 22 45  1  0
 23 46  1  0
 24 47  1  0
M  CHG  1   3  -1
M  END
>  <UniqueID>  (55) 
48

>  <SMILES>  (55) 
O=C([O-])[C@]1(c2ccccc2)N=C(c2ccccc2)c2cc3cccc(C(F)(F)F)c3nc2S1

>  <Energy>  (55) 
74.1512044277899

>  <Genealogy>  (55) 
O=C([O-])C1(c2ccccc2)N=C(c2ccccc2)c2cc3cccc(C(F)(F)F)c3nc2S1 (protonated)
O=C([O-])[C@]1(c2ccccc2)N=C(c2ccccc2)c2cc3cccc(C(F)(F)F)c3nc2S1 (chirality)
O=C([O-])[C@]1(c2ccccc2)N=C(c2ccccc2)c2cc3cccc(C(F)(F)F)c3nc2S1 (3D coordinates assigned)
O=C([O-])[C@]1(c2ccccc2)N=C(c2ccccc2)c2cc3cccc(C(F)(F)F)c3nc2S1 (nonaromatic ring conformer: 74.1512044277899 kcal/mol)

>  <smiles>  (55) 
O=C(O)C1(c2ccccc2)N=C(c2ccccc2)c2cc3cccc(C(F)(F)F)c3nc2S1

>  <score_type>  (55) 
oracle

>  <origin>  (55) 
adg

>  <m_score__min__energy>  (55) 
-12.25

>  <m_primary>  (55) 
energy

$$$$
55:0
     RDKit          3D

 40 42  0  0  0  0  0  0  0  0999 V2000
   57.7190   32.3400   41.8790 C   0  0  0  0  0  0  0  0  0  0  0  0
   57.8320   32.0970   43.3560 C   0  0  0  0  0  0  0  0  0  0  0  0
   57.7880   33.1740   44.2510 C   0  0  0  0  0  0  0  0  0  0  0  0
   57.9310   32.9600   45.6340 C   0  0  0  0  0  0  0  0  0  0  0  0
   57.8960   34.0490   46.5800 N   0  0  0  0  0  0  0  0  0  0  0  0
   59.0100   34.9630   46.8330 C   0  0  0  0  0  0  0  0  0  0  0  0
   60.2190   34.2080   47.3210 C   0  0  0  0  0  0  0  0  0  0  0  0
   61.2300   33.8330   46.4270 C   0  0  0  0  0  0  0  0  0  0  0  0
   62.3450   33.1290   46.8860 C   0  0  0  0  0  0  0  0  0  0  0  0
   62.4340   32.7980   48.2400 C   0  0  0  0  0  0  0  0  0  0  0  0
   61.4410   33.1570   49.0980 N   0  0  0  0  0  0  0  0  0  0  0  0
   60.3450   33.8450   48.6710 C   0  0  0  0  0  0  0  0  0  0  0  0
   58.1170   31.6520   46.1070 C   0  0  0  0  0  0  0  0  0  0  0  0
   58.1810   30.5640   45.2200 C   0  0  0  0  0  0  0  0  0  0  0  0
   58.3940   29.1860   45.7320 C   0  0  0  0  0  0  0  0  0  0  0  0
   57.4030   28.2000   45.5710 C   0  0  0  0  0  0  0  0  0  0  0  0
   57.6070   26.9040   46.0530 C   0  0  0  0  0  0  0  0  0  0  0  0
   58.8010   26.5770   46.7010 C   0  0  0  0  0  0  0  0  0  0  0  0
   59.7930   27.5460   46.8660 C   0  0  0  0  0  0  0  0  0  0  0  0
   59.5940   28.8440   46.3840 C   0  0  0  0  0  0  0  0  0  0  0  0
   58.0450   30.7990   43.8410 C   0  0  0  0  0  0  0  0  0  0  0  0
   57.2611   33.3246   41.7034 H   0  0  0  0  0  0  0  0  0  0  0  0
   58.7209   32.3154   41.4256 H   0  0  0  0  0  0  0  0  0  0  0  0
   57.0921   31.5580   41.4256 H   0  0  0  0  0  0  0  0  0  0  0  0
   57.6405   34.1950   43.8692 H   0  0  0  0  0  0  0  0  0  0  0  0
   57.0370   34.1730   47.1620 H   0  0  0  0  0  0  0  0  0  0  0  0
   59.2646   35.4885   45.9008 H   0  0  0  0  0  0  0  0  0  0  0  0
   58.7071   35.6834   47.6071 H   0  0  0  0  0  0  0  0  0  0  0  0
   61.1454   34.0935   45.3617 H   0  0  0  0  0  0  0  0  0  0  0  0
   63.1446   32.8382   46.1888 H   0  0  0  0  0  0  0  0  0  0  0  0
   63.3089   32.2458   48.6135 H   0  0  0  0  0  0  0  0  0  0  0  0
   61.5200   32.9000   50.1070 H   0  0  0  0  0  0  0  0  0  0  0  0
   59.5557   34.1170   49.3873 H   0  0  0  0  0  0  0  0  0  0  0  0
   58.2142   31.4757   47.1884 H   0  0  0  0  0  0  0  0  0  0  0  0
   56.4607   28.4511   45.0620 H   0  0  0  0  0  0  0  0  0  0  0  0
   56.8263   26.1402   45.9220 H   0  0  0  0  0  0  0  0  0  0  0  0
   58.9595   25.5569   47.0809 H   0  0  0  0  0  0  0  0  0  0  0  0
   60.7328   27.2880   47.3761 H   0  0  0  0  0  0  0  0  0  0  0  0
   60.3800   29.6022   46.5152 H   0  0  0  0  0  0  0  0  0  0  0  0
   58.1062   29.9569   43.1359 H   0  0  0  0  0  0  0  0  0  0  0  0
  1  2  1  0
  2  3  2  0
  3  4  1  0
  4  5  1  0
  5  6  1  0
  6  7  1  0
  7  8  2  0
  8  9  1  0
  9 10  2  0
 10 11  1  0
 11 12  2  0
  4 13  2  0
 13 14  1  0
 14 15  1  0
 15 16  2  0
 16 17  1  0
 17 18  2  0
 18 19  1  0
 19 20  2  0
 14 21  2  0
 21  2  1  0
 12  7  1  0
 20 15  1  0
  1 22  1  0
  1 23  1  0
  1 24  1  0
  3 25  1  0
  5 26  1  0
  6 27  1  0
  6 28  1  0
  8 29  1  0
  9 30  1  0
 10 31  1  0
 11 32  1  0
 12 33  1  0
 13 34  1  0
 16 35  1  0
 17 36  1  0
 18 37  1  0
 19 38  1  0
 20 39  1  0
 21 40  1  0
M  CHG  1  11   1
M  END
>  <UniqueID>  (56) 
49

>  <SMILES>  (56) 
Cc1cc(NCc2ccc[nH+]c2)cc(-c2ccccc2)c1

>  <Energy>  (56) 
46.04200889210611

>  <Genealogy>  (56) 
Cc1cc(NCc2ccc[nH+]c2)cc(-c2ccccc2)c1 (protonated)
Cc1cc(NCc2ccc[nH+]c2)cc(-c2ccccc2)c1 (3D coordinates assigned)
Cc1cc(NCc2ccc[nH+]c2)cc(-c2ccccc2)c1 (optimized conformer: 46.04200889210611 kcal/mol)

>  <smiles>  (56) 
Cc1cc(NCc2cccnc2)cc(-c2ccccc2)c1

>  <score_type>  (56) 
oracle

>  <origin>  (56) 
adg

>  <m_score__min__energy>  (56) 
-6.8700000000000001

>  <m_primary>  (56) 
energy

$$$$
56:0
     RDKit          3D

 30 31  0  0  0  0  0  0  0  0999 V2000
   59.6490   28.5130   46.0480 C   0  0  0  0  0  0  0  0  0  0  0  0
   58.5850   29.4110   45.5040 C   0  0  0  0  0  0  0  0  0  0  0  0
   58.9030   30.6950   45.0510 C   0  0  0  0  0  0  0  0  0  0  0  0
   57.8780   31.4970   44.5460 C   0  0  0  0  0  0  0  0  0  0  0  0
   58.2260   33.1690   44.0010 S   0  0  0  0  0  0  0  0  0  0  0  0
   57.8830   33.9430   45.6220 C   0  0  0  0  0  0  0  0  0  0  0  0
   58.8660   33.4810   46.6630 C   0  0  0  0  0  0  0  0  0  0  0  0
   58.4070   32.9810   47.8910 C   0  0  0  0  0  0  0  0  0  0  0  0
   59.3160   32.6140   48.8850 C   0  0  0  0  0  0  0  0  0  0  0  0
   60.6900   32.7400   48.6620 C   0  0  0  0  0  0  0  0  0  0  0  0
   61.1700   33.2150   47.4290 C   0  0  0  0  0  0  0  0  0  0  0  0
   62.6480   33.4090   47.2040 C   0  0  0  0  0  0  0  0  0  0  0  0
   63.2060   34.1330   48.2440 F   0  0  0  0  0  0  0  0  0  0  0  0
   62.8810   34.0960   46.0250 F   0  0  0  0  0  0  0  0  0  0  0  0
   63.2650   32.1740   47.1340 F   0  0  0  0  0  0  0  0  0  0  0  0
   60.2470   33.6020   46.4400 C   0  0  0  0  0  0  0  0  0  0  0  0
   56.6110   31.0110   44.4750 N   0  0  0  0  0  0  0  0  0  0  0  0
   56.3220   29.7530   44.9000 C   0  0  0  0  0  0  0  0  0  0  0  0
   55.1440   29.3200   44.8230 O   0  0  0  0  0  0  0  0  0  0  0  0
   57.3040   28.9640   45.4090 N   0  0  0  0  0  0  0  0  0  0  0  0
   59.6216   28.5362   47.1474 H   0  0  0  0  0  0  0  0  0  0  0  0
   59.4749   27.4846   45.6985 H   0  0  0  0  0  0  0  0  0  0  0  0
   60.6335   28.8574   45.6985 H   0  0  0  0  0  0  0  0  0  0  0  0
   59.9381   31.0651   45.0916 H   0  0  0  0  0  0  0  0  0  0  0  0
   57.9548   35.0359   45.5204 H   0  0  0  0  0  0  0  0  0  0  0  0
   56.8723   33.6494   45.9419 H   0  0  0  0  0  0  0  0  0  0  0  0
   57.3268   32.8778   48.0712 H   0  0  0  0  0  0  0  0  0  0  0  0
   58.9498   32.2246   49.8464 H   0  0  0  0  0  0  0  0  0  0  0  0
   61.4001   32.4658   49.4561 H   0  0  0  0  0  0  0  0  0  0  0  0
   60.6109   34.0033   45.4827 H   0  0  0  0  0  0  0  0  0  0  0  0
  1  2  1  0
  2  3  1  0
  3  4  2  0
  4  5  1  0
  5  6  1  0
  6  7  1  0
  7  8  2  0
  8  9  1  0
  9 10  2  0
 10 11  1  0
 11 12  1  0
 12 13  1  0
 12 14  1  0
 12 15  1  0
 11 16  2  0
  4 17  1  0
 17 18  1  0
 18 19  2  0
 18 20  1  0
 20  2  2  0
 16  7  1  0
  1 21  1  0
  1 22  1  0
  1 23  1  0
  3 24  1  0
  6 25  1  0
  6 26  1  0
  8 27  1  0
  9 28  1  0
 10 29  1  0
 16 30  1  0
M  CHG  1  17  -1
M  END
>  <UniqueID>  (57) 
50

>  <SMILES>  (57) 
Cc1cc(SCc2cccc(C(F)(F)F)c2)[n-]c(=O)n1

>  <Energy>  (57) 
24.581448835301934

>  <Genealogy>  (57) 
Cc1cc(SCc2cccc(C(F)(F)F)c2)[n-]c(=O)n1 (protonated)
Cc1cc(SCc2cccc(C(F)(F)F)c2)[n-]c(=O)n1 (3D coordinates assigned)
Cc1cc(SCc2cccc(C(F)(F)F)c2)[n-]c(=O)n1 (optimized conformer: 24.581448835301934 kcal/mol)

>  <smiles>  (57) 
Cc1cc(SCc2cccc(C(F)(F)F)c2)[nH]c(=O)n1

>  <score_type>  (57) 
oracle

>  <origin>  (57) 
adg

>  <m_score__min__energy>  (57) 
-8.8300000000000001

>  <m_primary>  (57) 
energy

$$$$
57:0
     RDKit          3D

 41 43  0  0  0  0  0  0  0  0999 V2000
   59.0460   35.4810   47.1450 O   0  0  0  0  0  0  0  0  0  0  0  0
   58.7940   34.4850   46.4170 C   0  0  0  0  0  0  0  0  0  0  0  0
   58.8880   34.5850   45.0340 C   0  0  0  0  0  0  0  0  0  0  0  0
   58.6030   33.4570   44.2650 C   0  0  0  0  0  0  0  0  0  0  0  0
   58.2510   32.2760   44.8580 N   0  0  0  0  0  0  0  0  0  0  0  0
   57.9310   31.1190   43.9960 C   0  0  2  0  0  0  0  0  0  0  0  0
   56.4220   30.8960   43.9000 C   0  0  0  0  0  0  0  0  0  0  0  0
   56.2640   29.3960   44.0650 C   0  0  2  0  0  0  0  0  0  0  0  0
   55.5670   29.0820   45.2490 O   0  0  0  0  0  0  0  0  0  0  0  0
   57.7120   28.8830   44.0620 C   0  0  2  0  0  0  0  0  0  0  0  0
   57.9710   27.6350   44.9310 C   0  0  0  0  0  0  0  0  0  0  0  0
   58.2870   28.0010   46.3240 N   0  0  0  0  0  0  0  0  0  0  0  0
   59.7110   27.7850   46.6410 C   0  0  0  0  0  0  0  0  0  0  0  0
   60.3540   29.0150   47.2440 C   0  0  0  0  0  0  0  0  0  0  0  0
   60.6400   30.1210   46.4290 C   0  0  0  0  0  0  0  0  0  0  0  0
   61.2530   31.2530   46.9660 C   0  0  0  0  0  0  0  0  0  0  0  0
   61.5800   31.2720   48.3220 C   0  0  0  0  0  0  0  0  0  0  0  0
   61.3020   30.1970   49.1050 N   0  0  0  0  0  0  0  0  0  0  0  0
   60.7070   29.0790   48.6100 C   0  0  0  0  0  0  0  0  0  0  0  0
   60.3890   27.7480   49.7150 Cl  0  0  0  0  0  0  0  0  0  0  0  0
   58.5360   29.9420   44.4850 O   0  0  0  0  0  0  0  0  0  0  0  0
   58.1490   32.2160   46.2280 C   0  0  0  0  0  0  0  0  0  0  0  0
   57.7970   31.1520   46.8050 O   0  0  0  0  0  0  0  0  0  0  0  0
   58.4250   33.3100   46.9840 N   0  0  0  0  0  0  0  0  0  0  0  0
   59.1805   35.5320   44.5569 H   0  0  0  0  0  0  0  0  0  0  0  0
   58.6620   33.5179   43.1683 H   0  0  0  0  0  0  0  0  0  0  0  0
   58.3258   31.3468   42.9949 H   0  0  0  0  0  0  0  0  0  0  0  0
   55.8949   31.4355   44.7006 H   0  0  0  0  0  0  0  0  0  0  0  0
   55.9976   31.2660   42.9550 H   0  0  0  0  0  0  0  0  0  0  0  0
   55.6636   28.9264   43.2719 H   0  0  0  0  0  0  0  0  0  0  0  0
   55.8390   29.7280   45.9500 H   0  0  0  0  0  0  0  0  0  0  0  0
   57.9359   28.5542   43.0365 H   0  0  0  0  0  0  0  0  0  0  0  0
   57.0718   27.0015   44.9233 H   0  0  0  0  0  0  0  0  0  0  0  0
   58.8338   27.0964   44.5121 H   0  0  0  0  0  0  0  0  0  0  0  0
   58.0810   29.0160   46.4700 H   0  0  0  0  0  0  0  0  0  0  0  0
   57.6880   27.4490   46.9790 H   0  0  0  0  0  0  0  0  0  0  0  0
   59.7926   26.9547   47.3580 H   0  0  0  0  0  0  0  0  0  0  0  0
   60.2355   27.5551   45.7018 H   0  0  0  0  0  0  0  0  0  0  0  0
   60.3793   30.0951   45.3607 H   0  0  0  0  0  0  0  0  0  0  0  0
   61.4760   32.1206   46.3277 H   0  0  0  0  0  0  0  0  0  0  0  0
   62.0636   32.1586   48.7579 H   0  0  0  0  0  0  0  0  0  0  0  0
  1  2  2  0
  2  3  1  0
  3  4  2  0
  4  5  1  0
  5  6  1  0
  6  7  1  0
  7  8  1  0
  8  9  1  0
  8 10  1  0
 10 11  1  0
 11 12  1  0
 12 13  1  0
 13 14  1  0
 14 15  2  0
 15 16  1  0
 16 17  2  0
 17 18  1  0
 18 19  2  0
 19 20  1  0
 10 21  1  0
  5 22  1  0
 22 23  2  0
 22 24  1  0
 24  2  1  0
 21  6  1  0
 19 14  1  0
  3 25  1  0
  4 26  1  0
  6 27  1  6
  7 28  1  0
  7 29  1  0
  8 30  1  6
  9 31  1  0
 10 32  1  6
 11 33  1  0
 11 34  1  0
 12 35  1  0
 12 36  1  0
 13 37  1  0
 13 38  1  0
 15 39  1  0
 16 40  1  0
 17 41  1  0
M  CHG  2  12   1  24  -1
M  END
>  <UniqueID>  (58) 
51

>  <SMILES>  (58) 
O=c1ccn([C@@H]2C[C@H](O)C(C[NH2+]Cc3cccnc3Cl)O2)c(=O)[n-]1

>  <Energy>  (58) 
51.302989159626726

>  <Genealogy>  (58) 
O=c1ccn(C2CC(O)C(C[NH2+]Cc3cccnc3Cl)O2)c(=O)[n-]1 (protonated)
O=c1ccn([C@@H]2C[C@H](O)C(C[NH2+]Cc3cccnc3Cl)O2)c(=O)[n-]1 (chirality)
O=c1ccn([C@@H]2C[C@H](O)C(C[NH2+]Cc3cccnc3Cl)O2)c(=O)[n-]1 (3D coordinates assigned)
O=c1ccn([C@@H]2C[C@H](O)C(C[NH2+]Cc3cccnc3Cl)O2)c(=O)[n-]1 (nonaromatic ring conformer: 51.302989159626726 kcal/mol)

>  <smiles>  (58) 
O=c1ccn(C2CC(O)C(CNCc3cccnc3Cl)O2)c(=O)[nH]1

>  <score_type>  (58) 
oracle

>  <origin>  (58) 
adg

>  <m_score__min__energy>  (58) 
-8.1300000000000008

>  <m_primary>  (58) 
energy

$$$$
58:0
     RDKit          3D

 56 59  0  0  0  0  0  0  0  0999 V2000
   65.8700   32.5910   50.1190 C   0  0  0  0  0  0  0  0  0  0  0  0
   65.1650   33.1110   48.9980 O   0  0  0  0  0  0  0  0  0  0  0  0
   63.8660   32.7160   48.6290 C   0  0  0  0  0  0  0  0  0  0  0  0
   63.2560   33.1340   47.4320 C   0  0  0  0  0  0  0  0  0  0  0  0
   61.9550   32.7270   47.1250 C   0  0  0  0  0  0  0  0  0  0  0  0
   61.2290   31.9180   48.0190 C   0  0  0  0  0  0  0  0  0  0  0  0
   59.8050   31.4660   47.7460 C   0  0  2  0  0  0  0  0  0  0  0  0
   59.2450   32.0470   46.5430 C   0  0  1  0  0  0  0  0  0  0  0  0
   58.6590   31.0340   45.5790 C   0  0  0  0  0  0  0  0  0  0  0  0
   57.5890   31.4110   44.7480 C   0  0  0  0  0  0  0  0  0  0  0  0
   57.0520   30.5090   43.8220 C   0  0  0  0  0  0  0  0  0  0  0  0
   57.5820   29.2210   43.7090 C   0  0  0  0  0  0  0  0  0  0  0  0
   58.6500   28.8330   44.5250 C   0  0  0  0  0  0  0  0  0  0  0  0
   59.1850   29.7290   45.4580 C   0  0  0  0  0  0  0  0  0  0  0  0
   58.2180   32.7210   47.3990 C   0  0  0  0  0  0  0  0  0  0  0  0
   57.2520   33.4990   47.1810 O   0  0  0  0  0  0  0  0  0  0  0  0
   58.8150   32.0980   48.6050 N   0  0  0  0  0  0  0  0  0  0  0  0
   58.4870   32.0520   50.0000 C   0  0  0  0  0  0  0  0  0  0  0  0
   58.8740   33.0880   50.8470 C   0  0  0  0  0  0  0  0  0  0  0  0
   58.5810   33.0500   52.2240 C   0  0  0  0  0  0  0  0  0  0  0  0
   58.9240   34.1160   53.0660 O   0  0  0  0  0  0  0  0  0  0  0  0
   59.7740   34.0180   54.2040 C   0  0  0  0  0  0  0  0  0  0  0  0
   57.9200   31.9140   52.7570 C   0  0  0  0  0  0  0  0  0  0  0  0
   57.6430   31.7470   54.1270 O   0  0  0  0  0  0  0  0  0  0  0  0
   58.2820   30.8320   55.0060 C   0  0  0  0  0  0  0  0  0  0  0  0
   57.5060   30.8850   51.8970 C   0  0  0  0  0  0  0  0  0  0  0  0
   56.8310   29.7870   52.4540 O   0  0  0  0  0  0  0  0  0  0  0  0
   55.4630   29.7950   52.8470 C   0  0  0  0  0  0  0  0  0  0  0  0
   57.7840   30.9610   50.5210 C   0  0  0  0  0  0  0  0  0  0  0  0
   61.8530   31.4840   49.1960 C   0  0  0  0  0  0  0  0  0  0  0  0
   63.1590   31.8780   49.4940 C   0  0  0  0  0  0  0  0  0  0  0  0
   65.3941   32.9420   51.0465 H   0  0  0  0  0  0  0  0  0  0  0  0
   65.8474   31.4917   50.0886 H   0  0  0  0  0  0  0  0  0  0  0  0
   66.9136   32.9373   50.0886 H   0  0  0  0  0  0  0  0  0  0  0  0
   63.8055   33.7838   46.7350 H   0  0  0  0  0  0  0  0  0  0  0  0
   61.4945   33.0415   46.1768 H   0  0  0  0  0  0  0  0  0  0  0  0
   59.9296   30.3746   47.8042 H   0  0  0  0  0  0  0  0  0  0  0  0
   59.8735   32.6143   45.8407 H   0  0  0  0  0  0  0  0  0  0  0  0
   57.1698   32.4250   44.8265 H   0  0  0  0  0  0  0  0  0  0  0  0
   56.2112   30.8147   43.1820 H   0  0  0  0  0  0  0  0  0  0  0  0
   57.1603   28.5136   42.9798 H   0  0  0  0  0  0  0  0  0  0  0  0
   59.0706   27.8208   44.4332 H   0  0  0  0  0  0  0  0  0  0  0  0
   60.0203   29.4146   46.1009 H   0  0  0  0  0  0  0  0  0  0  0  0
   59.4176   33.9502   50.4334 H   0  0  0  0  0  0  0  0  0  0  0  0
   59.1694   34.0877   55.1203 H   0  0  0  0  0  0  0  0  0  0  0  0
   60.3018   33.0531   54.1854 H   0  0  0  0  0  0  0  0  0  0  0  0
   60.5075   34.8375   54.1854 H   0  0  0  0  0  0  0  0  0  0  0  0
   58.0795   31.1219   56.0476 H   0  0  0  0  0  0  0  0  0  0  0  0
   57.8943   29.8185   54.8255 H   0  0  0  0  0  0  0  0  0  0  0  0
   59.3670   30.8470   54.8255 H   0  0  0  0  0  0  0  0  0  0  0  0
   55.3969   29.7954   53.9450 H   0  0  0  0  0  0  0  0  0  0  0  0
   54.9727   30.6960   52.4499 H   0  0  0  0  0  0  0  0  0  0  0  0
   54.9622   28.8998   52.4499 H   0  0  0  0  0  0  0  0  0  0  0  0
   57.4465   30.1574   49.8500 H   0  0  0  0  0  0  0  0  0  0  0  0
   61.3094   30.8273   49.8912 H   0  0  0  0  0  0  0  0  0  0  0  0
   63.6361   31.5245   50.4200 H   0  0  0  0  0  0  0  0  0  0  0  0
  1  2  1  0
  2  3  1  0
  3  4  2  0
  4  5  1  0
  5  6  2  0
  6  7  1  0
  7  8  1  0
  8  9  1  0
  9 10  2  0
 10 11  1  0
 11 12  2  0
 12 13  1  0
 13 14  2  0
  8 15  1  0
 15 16  2  0
 15 17  1  0
 17 18  1  0
 18 19  2  0
 19 20  1  0
 20 21  1  0
 21 22  1  0
 20 23  2  0
 23 24  1  0
 24 25  1  0
 23 26  1  0
 26 27  1  0
 27 28  1  0
 26 29  2  0
  6 30  1  0
 30 31  2  0
 31  3  1  0
 17  7  1  0
 29 18  1  0
 14  9  1  0
  1 32  1  0
  1 33  1  0
  1 34  1  0
  4 35  1  0
  5 36  1  0
  7 37  1  6
  8 38  1  6
 10 39  1  0
 11 40  1  0
 12 41  1  0
 13 42  1  0
 14 43  1  0
 19 44  1  0
 22 45  1  0
 22 46  1  0
 22 47  1  0
 25 48  1  0
 25 49  1  0
 25 50  1  0
 28 51  1  0
 28 52  1  0
 28 53  1  0
 29 54  1  0
 30 55  1  0
 31 56  1  0
M  END
>  <UniqueID>  (59) 
52

>  <SMILES>  (59) 
COc1ccc([C@@H]2[C@@H](c3ccccc3)C(=O)N2c2cc(OC)c(OC)c(OC)c2)cc1

>  <Energy>  (59) 
95.16253789569501

>  <Genealogy>  (59) 
COc1ccc([C@@H]2[C@@H](c3ccccc3)C(=O)N2c2cc(OC)c(OC)c(OC)c2)cc1 (chirality)
COc1ccc([C@@H]2[C@@H](c3ccccc3)C(=O)N2c2cc(OC)c(OC)c(OC)c2)cc1 (3D coordinates assigned)
COc1ccc([C@@H]2[C@@H](c3ccccc3)C(=O)N2c2cc(OC)c(OC)c(OC)c2)cc1 (nonaromatic ring conformer: 95.16253789569501 kcal/mol)

>  <smiles>  (59) 
COc1ccc(C2C(c3ccccc3)C(=O)N2c2cc(OC)c(OC)c(OC)c2)cc1

>  <score_type>  (59) 
oracle

>  <origin>  (59) 
adg

>  <m_score__min__energy>  (59) 
-7.04

>  <m_primary>  (59) 
energy

$$$$
59:0
     RDKit          3D

 21 22  0  0  0  0  0  0  0  0999 V2000
   57.3930   32.6920   40.4600 C   0  0  0  0  0  0  0  0  0  0  0  0
   58.1630   32.5320   41.6480 O   0  0  0  0  0  0  0  0  0  0  0  0
   57.6680   32.0060   42.8520 C   0  0  0  0  0  0  0  0  0  0  0  0
   56.8520   30.8630   42.8850 C   0  0  0  0  0  0  0  0  0  0  0  0
   56.3900   30.3860   44.1150 C   0  0  0  0  0  0  0  0  0  0  0  0
   55.6590   29.3620   44.1570 O   0  0  0  0  0  0  0  0  0  0  0  0
   56.7160   31.0050   45.2450 O   0  0  0  0  0  0  0  0  0  0  0  0
   57.4830   32.0900   45.2700 C   0  0  0  0  0  0  0  0  0  0  0  0
   57.7890   32.6940   46.4940 C   0  0  0  0  0  0  0  0  0  0  0  0
   58.5960   33.8350   46.5330 C   0  0  0  0  0  0  0  0  0  0  0  0
   59.1010   34.3780   45.3480 C   0  0  0  0  0  0  0  0  0  0  0  0
   58.8020   33.7840   44.1180 C   0  0  0  0  0  0  0  0  0  0  0  0
   57.9920   32.6350   44.0670 C   0  0  0  0  0  0  0  0  0  0  0  0
   56.3481   32.9091   40.7267 H   0  0  0  0  0  0  0  0  0  0  0  0
   57.8009   33.5246   39.8680 H   0  0  0  0  0  0  0  0  0  0  0  0
   57.4355   31.7659   39.8680 H   0  0  0  0  0  0  0  0  0  0  0  0
   56.5792   30.3483   41.9519 H   0  0  0  0  0  0  0  0  0  0  0  0
   57.3935   32.2699   47.4287 H   0  0  0  0  0  0  0  0  0  0  0  0
   58.8340   34.3063   47.4980 H   0  0  0  0  0  0  0  0  0  0  0  0
   59.7358   35.2757   45.3833 H   0  0  0  0  0  0  0  0  0  0  0  0
   59.2010   34.2160   43.1884 H   0  0  0  0  0  0  0  0  0  0  0  0
  1  2  1  0
  2  3  1  0
  3  4  2  0
  4  5  1  0
  5  6  2  0
  5  7  1  0
  7  8  1  0
  8  9  2  0
  9 10  1  0
 10 11  2  0
 11 12  1  0
 12 13  2  0
 13  3  1  0
 13  8  1  0
  1 14  1  0
  1 15  1  0
  1 16  1  0
  4 17  1  0
  9 18  1  0
 10 19  1  0
 11 20  1  0
 12 21  1  0
M  END
>  <UniqueID>  (60) 
53

>  <SMILES>  (60) 
COc1cc(=O)oc2ccccc12

>  <Energy>  (60) 
25.779043533751

>  <Genealogy>  (60) 
COc1cc(=O)oc2ccccc12 (3D coordinates assigned)
COc1cc(=O)oc2ccccc12 (optimized conformer: 25.779043533751 kcal/mol)

>  <smiles>  (60) 
COc1cc(=O)oc2ccccc12

>  <score_type>  (60) 
oracle

>  <origin>  (60) 
adg

>  <m_score__min__energy>  (60) 
-5.7300000000000004

>  <m_primary>  (60) 
energy

$$$$
60:0
     RDKit          3D

 39 41  0  0  0  0  0  0  0  0999 V2000
   59.2210   34.4140   44.5360 C   0  0  0  0  0  0  0  0  0  0  0  0
   58.0520   33.6160   44.6830 O   0  0  0  0  0  0  0  0  0  0  0  0
   57.8310   32.4580   43.9320 C   0  0  0  0  0  0  0  0  0  0  0  0
   57.9080   32.4920   42.6740 O   0  0  0  0  0  0  0  0  0  0  0  0
   57.4890   31.2030   44.6250 C   0  0  0  0  0  0  0  0  0  0  0  0
   56.3940   30.4110   44.3310 C   0  0  0  0  0  0  0  0  0  0  0  0
   56.4630   29.3390   45.1910 C   0  0  0  0  0  0  0  0  0  0  0  0
   55.5240   28.3160   45.2530 O   0  0  0  0  0  0  0  0  0  0  0  0
   57.5530   29.4140   45.9850 N   0  0  0  0  0  0  0  0  0  0  0  0
   57.8730   28.5040   47.0920 C   0  0  0  0  0  0  0  0  0  0  0  0
   57.9590   27.0780   46.6130 C   0  0  0  0  0  0  0  0  0  0  0  0
   59.1740   26.5600   46.1330 C   0  0  0  0  0  0  0  0  0  0  0  0
   59.2490   25.2360   45.6890 C   0  0  0  0  0  0  0  0  0  0  0  0
   58.1130   24.4220   45.7160 C   0  0  0  0  0  0  0  0  0  0  0  0
   56.9010   24.9310   46.1890 C   0  0  0  0  0  0  0  0  0  0  0  0
   56.8220   26.2540   46.6340 C   0  0  0  0  0  0  0  0  0  0  0  0
   58.1800   30.5690   45.6560 C   0  0  0  0  0  0  0  0  0  0  0  0
   59.3650   31.1030   46.3580 C   0  0  0  0  0  0  0  0  0  0  0  0
   60.4960   30.2940   46.5380 C   0  0  0  0  0  0  0  0  0  0  0  0
   61.6140   30.8150   47.1910 C   0  0  0  0  0  0  0  0  0  0  0  0
   61.5960   32.1290   47.6560 C   0  0  0  0  0  0  0  0  0  0  0  0
   60.4540   32.9080   47.4590 C   0  0  0  0  0  0  0  0  0  0  0  0
   59.3700   32.3870   46.8210 N   0  0  0  0  0  0  0  0  0  0  0  0
   59.6107   34.6800   45.5297 H   0  0  0  0  0  0  0  0  0  0  0  0
   59.9843   33.8476   43.9824 H   0  0  0  0  0  0  0  0  0  0  0  0
   58.9716   35.3312   43.9824 H   0  0  0  0  0  0  0  0  0  0  0  0
   55.6257   30.5993   43.5667 H   0  0  0  0  0  0  0  0  0  0  0  0
   58.8396   28.7954   47.5289 H   0  0  0  0  0  0  0  0  0  0  0  0
   57.0730   28.5728   47.8439 H   0  0  0  0  0  0  0  0  0  0  0  0
   60.0694   27.1984   46.1064 H   0  0  0  0  0  0  0  0  0  0  0  0
   60.2035   24.8345   45.3179 H   0  0  0  0  0  0  0  0  0  0  0  0
   58.1733   23.3812   45.3650 H   0  0  0  0  0  0  0  0  0  0  0  0
   56.0075   24.2898   46.2113 H   0  0  0  0  0  0  0  0  0  0  0  0
   55.8647   26.6514   47.0023 H   0  0  0  0  0  0  0  0  0  0  0  0
   60.5020   29.2581   46.1679 H   0  0  0  0  0  0  0  0  0  0  0  0
   62.5073   30.1902   47.3384 H   0  0  0  0  0  0  0  0  0  0  0  0
   62.4722   32.5478   48.1727 H   0  0  0  0  0  0  0  0  0  0  0  0
   60.4301   33.9466   47.8207 H   0  0  0  0  0  0  0  0  0  0  0  0
   58.5260   32.9890   46.6960 H   0  0  0  0  0  0  0  0  0  0  0  0
  1  2  1  0
  2  3  1  0
  3  4  2  0
  3  5  1  0
  5  6  1  0
  6  7  2  0
  7  8  1  0
  7  9  1  0
  9 10  1  0
 10 11  1  0
 11 12  2  0
 12 13  1  0
 13 14  2  0
 14 15  1  0
 15 16  2  0
  9 17  1  0
 17 18  1  0
 18 19  2  0
 19 20  1  0
 20 21  2  0
 21 22  1  0
 22 23  2  0
 17  5  2  0
 23 18  1  0
 16 11  1  0
  1 24  1  0
  1 25  1  0
  1 26  1  0
  6 27  1  0
 10 28  1  0
 10 29  1  0
 12 30  1  0
 13 31  1  0
 14 32  1  0
 15 33  1  0
 16 34  1  0
 19 35  1  0
 20 36  1  0
 21 37  1  0
 22 38  1  0
 23 39  1  0
M  CHG  2   8  -1  23   1
M  END
>  <UniqueID>  (61) 
54

>  <SMILES>  (61) 
COC(=O)c1cc([O-])n(Cc2ccccc2)c1-c1cccc[nH+]1

>  <Energy>  (61) 
73.08902294528384

>  <Genealogy>  (61) 
COC(=O)c1cc([O-])n(Cc2ccccc2)c1-c1cccc[nH+]1 (protonated)
COC(=O)c1cc([O-])n(Cc2ccccc2)c1-c1cccc[nH+]1 (3D coordinates assigned)
COC(=O)c1cc([O-])n(Cc2ccccc2)c1-c1cccc[nH+]1 (optimized conformer: 73.08902294528384 kcal/mol)

>  <smiles>  (61) 
COC(=O)c1cc(O)n(Cc2ccccc2)c1-c1ccccn1

>  <score_type>  (61) 
oracle

>  <origin>  (61) 
adg

>  <m_score__min__energy>  (61) 
-7.9800000000000004

>  <m_primary>  (61) 
energy

$$$$
61:0
     RDKit          3D

 46 48  0  0  0  0  0  0  0  0999 V2000
   58.7390   34.0430   52.5140 C   0  0  0  0  0  0  0  0  0  0  0  0
   59.7870   33.8980   51.5620 O   0  0  0  0  0  0  0  0  0  0  0  0
   59.6010   33.4760   50.2370 C   0  0  0  0  0  0  0  0  0  0  0  0
   58.9580   32.2530   50.0130 C   0  0  0  0  0  0  0  0  0  0  0  0
   58.7420   31.7920   48.7110 C   0  0  0  0  0  0  0  0  0  0  0  0
   59.1840   32.5380   47.6100 C   0  0  0  0  0  0  0  0  0  0  0  0
   58.9170   32.0610   46.2810 N   0  0  0  0  0  0  0  0  0  0  0  0
   57.9910   32.6810   45.3750 C   0  0  0  0  0  0  0  0  0  0  0  0
   57.5430   33.8380   45.6060 O   0  0  0  0  0  0  0  0  0  0  0  0
   57.5510   31.9600   44.1370 C   0  0  0  0  0  0  0  0  0  0  0  0
   56.8650   30.7220   44.4990 N   0  0  0  0  0  0  0  0  0  0  0  0
   55.5520   30.5570   44.4590 N   0  0  0  0  0  0  0  0  0  0  0  0
   55.2240   29.3400   44.8760 N   0  0  0  0  0  0  0  0  0  0  0  0
   56.3680   28.6980   45.2040 C   0  0  0  0  0  0  0  0  0  0  0  0
   56.3950   27.3210   45.7320 C   0  0  0  0  0  0  0  0  0  0  0  0
   57.4950   26.7070   45.7860 O   0  0  0  0  0  0  0  0  0  0  0  0
   55.1950   26.6720   46.1590 N   0  0  0  0  0  0  0  0  0  0  0  0
   54.7510   25.3960   45.6170 C   0  0  0  0  0  0  0  0  0  0  0  0
   55.9410   24.5080   45.3930 C   0  0  0  0  0  0  0  0  0  0  0  0
   56.6710   24.0140   46.4880 C   0  0  0  0  0  0  0  0  0  0  0  0
   57.7660   23.1680   46.2810 C   0  0  0  0  0  0  0  0  0  0  0  0
   58.1320   22.8010   44.9830 C   0  0  0  0  0  0  0  0  0  0  0  0
   59.1940   21.9820   44.7830 F   0  0  0  0  0  0  0  0  0  0  0  0
   57.3990   23.2750   43.8890 C   0  0  0  0  0  0  0  0  0  0  0  0
   56.3040   24.1200   44.0920 C   0  0  0  0  0  0  0  0  0  0  0  0
   57.4070   29.5830   44.9630 C   0  0  0  0  0  0  0  0  0  0  0  0
   58.6810   29.3970   45.1220 N   0  0  0  0  0  0  0  0  0  0  0  0
   59.8170   33.7730   47.8320 C   0  0  0  0  0  0  0  0  0  0  0  0
   60.0310   34.2360   49.1340 C   0  0  0  0  0  0  0  0  0  0  0  0
   59.1562   33.9853   53.5302 H   0  0  0  0  0  0  0  0  0  0  0  0
   58.2485   35.0176   52.3738 H   0  0  0  0  0  0  0  0  0  0  0  0
   58.0023   33.2382   52.3738 H   0  0  0  0  0  0  0  0  0  0  0  0
   58.6199   31.6497   50.8684 H   0  0  0  0  0  0  0  0  0  0  0  0
   58.2212   30.8366   48.5495 H   0  0  0  0  0  0  0  0  0  0  0  0
   59.4810   31.2530   45.9290 H   0  0  0  0  0  0  0  0  0  0  0  0
   56.8657   32.6027   43.5649 H   0  0  0  0  0  0  0  0  0  0  0  0
   58.4332   31.7194   43.5256 H   0  0  0  0  0  0  0  0  0  0  0  0
   54.0627   24.9150   46.3276 H   0  0  0  0  0  0  0  0  0  0  0  0
   54.2323   25.5632   44.6615 H   0  0  0  0  0  0  0  0  0  0  0  0
   56.3803   24.2936   47.5114 H   0  0  0  0  0  0  0  0  0  0  0  0
   58.3395   22.7913   47.1408 H   0  0  0  0  0  0  0  0  0  0  0  0
   57.6849   22.9822   42.8680 H   0  0  0  0  0  0  0  0  0  0  0  0
   55.7244   24.4825   43.2302 H   0  0  0  0  0  0  0  0  0  0  0  0
   59.1050   28.4840   45.3870 H   0  0  0  0  0  0  0  0  0  0  0  0
   60.1464   34.3796   46.9756 H   0  0  0  0  0  0  0  0  0  0  0  0
   60.5378   35.1987   49.2965 H   0  0  0  0  0  0  0  0  0  0  0  0
  1  2  1  0
  2  3  1  0
  3  4  2  0
  4  5  1  0
  5  6  2  0
  6  7  1  0
  7  8  1  0
  8  9  2  0
  8 10  1  0
 10 11  1  0
 11 12  1  0
 12 13  1  0
 13 14  2  0
 14 15  1  0
 15 16  2  0
 15 17  1  0
 17 18  1  0
 18 19  1  0
 19 20  2  0
 20 21  1  0
 21 22  2  0
 22 23  1  0
 22 24  1  0
 24 25  2  0
 14 26  1  0
 26 27  2  3
  6 28  1  0
 28 29  2  0
 29  3  1  0
 26 11  1  0
 25 19  1  0
  1 30  1  0
  1 31  1  0
  1 32  1  0
  4 33  1  0
  5 34  1  0
  7 35  1  0
 10 36  1  0
 10 37  1  0
 18 38  1  0
 18 39  1  0
 20 40  1  0
 21 41  1  0
 24 42  1  0
 25 43  1  0
 27 44  1  0
 28 45  1  0
 29 46  1  0
M  CHG  2  12  -1  17  -1
M  END
>  <UniqueID>  (62) 
55

>  <SMILES>  (62) 
COc1ccc(NC(=O)Cn2[n-]nc(C(=O)[N-]Cc3ccc(F)cc3)c2=N)cc1

>  <Energy>  (62) 
85.53356293230412

>  <Genealogy>  (62) 
COc1ccc(NC(=O)Cn2[n-]nc(C(=O)[N-]Cc3ccc(F)cc3)c2=N)cc1 (protonated)
COc1ccc(NC(=O)Cn2[n-]nc(C(=O)[N-]Cc3ccc(F)cc3)c2=N)cc1 (3D coordinates assigned)
COc1ccc(NC(=O)Cn2[n-]nc(C(=O)[N-]Cc3ccc(F)cc3)c2=N)cc1 (optimized conformer: 85.53356293230412 kcal/mol)

>  <smiles>  (62) 
COc1ccc(NC(=O)Cn2[nH]nc(C(=O)NCc3ccc(F)cc3)c2=N)cc1

>  <score_type>  (62) 
oracle

>  <origin>  (62) 
adg

>  <m_score__min__energy>  (62) 
-10.51

>  <m_primary>  (62) 
energy

$$$$
62:0
     RDKit          3D

 39 40  0  0  0  0  0  0  0  0999 V2000
   62.6270   33.9680   50.7770 C   0  0  0  0  0  0  0  0  0  0  0  0
   62.1600   32.9270   49.9280 O   0  0  0  0  0  0  0  0  0  0  0  0
   61.5540   33.2060   48.7000 C   0  0  0  0  0  0  0  0  0  0  0  0
   62.3550   33.4720   47.5750 C   0  0  0  0  0  0  0  0  0  0  0  0
   63.8540   33.4710   47.6700 C   0  0  0  0  0  0  0  0  0  0  0  0
   61.7350   33.8020   46.3680 C   0  0  0  0  0  0  0  0  0  0  0  0
   60.3820   33.8330   46.2780 N   0  0  0  0  0  0  0  0  0  0  0  0
   59.5720   33.5500   47.3330 C   0  0  0  0  0  0  0  0  0  0  0  0
   58.0770   33.6110   47.1070 C   0  0  0  0  0  0  0  0  0  0  0  0
   57.7090   33.2390   45.7260 N   0  0  0  0  0  0  0  0  0  0  0  0
   57.0360   34.2270   44.8730 C   0  0  0  0  0  0  0  0  0  0  0  0
   57.7090   31.8570   45.2910 C   0  0  0  0  0  0  0  0  0  0  0  0
   58.8390   31.0280   45.4410 C   0  0  0  0  0  0  0  0  0  0  0  0
   58.7900   29.7040   44.9910 C   0  0  0  0  0  0  0  0  0  0  0  0
   59.9400   28.8480   45.1360 C   0  0  0  0  0  0  0  0  0  0  0  0
   60.8630   28.1610   45.2540 N   0  0  0  0  0  0  0  0  0  0  0  0
   57.6270   29.2160   44.3900 C   0  0  0  0  0  0  0  0  0  0  0  0
   56.5310   30.0640   44.2430 C   0  0  0  0  0  0  0  0  0  0  0  0
   56.5970   31.3470   44.6870 N   0  0  0  0  0  0  0  0  0  0  0  0
   60.1460   33.2150   48.5840 C   0  0  0  0  0  0  0  0  0  0  0  0
   59.2790   32.8990   49.7760 C   0  0  0  0  0  0  0  0  0  0  0  0
   62.4940   33.6715   51.8279 H   0  0  0  0  0  0  0  0  0  0  0  0
   63.6936   34.1512   50.5799 H   0  0  0  0  0  0  0  0  0  0  0  0
   62.0546   34.8864   50.5799 H   0  0  0  0  0  0  0  0  0  0  0  0
   64.1543   33.4708   48.7282 H   0  0  0  0  0  0  0  0  0  0  0  0
   64.2521   32.5726   47.1757 H   0  0  0  0  0  0  0  0  0  0  0  0
   64.2533   34.3689   47.1757 H   0  0  0  0  0  0  0  0  0  0  0  0
   62.3474   34.0381   45.4853 H   0  0  0  0  0  0  0  0  0  0  0  0
   57.5841   32.9178   47.8045 H   0  0  0  0  0  0  0  0  0  0  0  0
   57.7503   34.6475   47.2774 H   0  0  0  0  0  0  0  0  0  0  0  0
   56.5288   34.9715   45.5042 H   0  0  0  0  0  0  0  0  0  0  0  0
   57.7798   34.7304   44.2379 H   0  0  0  0  0  0  0  0  0  0  0  0
   56.2952   33.7191   44.2379 H   0  0  0  0  0  0  0  0  0  0  0  0
   59.7541   31.4196   45.9091 H   0  0  0  0  0  0  0  0  0  0  0  0
   57.5771   28.1753   44.0372 H   0  0  0  0  0  0  0  0  0  0  0  0
   55.6108   29.6944   43.7668 H   0  0  0  0  0  0  0  0  0  0  0  0
   59.8386   33.1030   50.7008 H   0  0  0  0  0  0  0  0  0  0  0  0
   58.3753   33.5256   49.7485 H   0  0  0  0  0  0  0  0  0  0  0  0
   58.9904   31.8379   49.7485 H   0  0  0  0  0  0  0  0  0  0  0  0
  1  2  1  0
  2  3  1  0
  3  4  2  0
  4  5  1  0
  4  6  1  0
  6  7  2  0
  7  8  1  0
  8  9  1  0
  9 10  1  0
 10 11  1  0
 10 12  1  0
 12 13  2  0
 13 14  1  0
 14 15  1  0
 15 16  3  0
 14 17  2  0
 17 18  1  0
 18 19  2  0
  8 20  2  0
 20 21  1  0
 20  3  1  0
 19 12  1  0
  1 22  1  0
  1 23  1  0
  1 24  1  0
  5 25  1  0
  5 26  1  0
  5 27  1  0
  6 28  1  0
  9 29  1  0
  9 30  1  0
 11 31  1  0
 11 32  1  0
 11 33  1  0
 13 34  1  0
 17 35  1  0
 18 36  1  0
 21 37  1  0
 21 38  1  0
 21 39  1  0
M  END
>  <UniqueID>  (63) 
56

>  <SMILES>  (63) 
COc1c(C)cnc(CN(C)c2cc(C#N)ccn2)c1C

>  <Energy>  (63) 
49.59639732609189

>  <Genealogy>  (63) 
COc1c(C)cnc(CN(C)c2cc(C#N)ccn2)c1C (3D coordinates assigned)
COc1c(C)cnc(CN(C)c2cc(C#N)ccn2)c1C (optimized conformer: 49.59639732609189 kcal/mol)

>  <smiles>  (63) 
COc1c(C)cnc(CN(C)c2cc(C#N)ccn2)c1C

>  <score_type>  (63) 
oracle

>  <origin>  (63) 
adg

>  <m_score__min__energy>  (63) 
-6.4100000000000001

>  <m_primary>  (63) 
energy

$$$$
63:0
     RDKit          3D

 31 33  0  0  0  0  0  0  0  0999 V2000
   59.7237   27.4870   45.9244 H   0  0  0  0  0  0  0  0  0  0  0  0
   58.6280   27.5300   45.8370 C   0  0  0  0  0  0  0  0  0  0  0  0
   58.0240   28.6740   45.4190 N   0  0  0  0  0  0  0  0  0  0  0  0
   56.6720   28.7490   45.3050 C   0  0  0  0  0  0  0  0  0  0  0  0
   56.1250   29.8590   44.9060 N   0  0  0  0  0  0  0  0  0  0  0  0
   56.7890   30.8500   44.1060 C   0  0  0  0  0  0  0  0  0  0  0  0
   56.7100   30.7370   42.7120 C   0  0  0  0  0  0  0  0  0  0  0  0
   56.1193   29.9239   42.2648 H   0  0  0  0  0  0  0  0  0  0  0  0
   57.3720   31.6440   41.8850 C   0  0  0  0  0  0  0  0  0  0  0  0
   57.3063   31.5371   40.7922 H   0  0  0  0  0  0  0  0  0  0  0  0
   58.1170   32.6860   42.4370 C   0  0  0  0  0  0  0  0  0  0  0  0
   58.6524   33.3863   41.7790 H   0  0  0  0  0  0  0  0  0  0  0  0
   58.1850   32.8430   43.8290 C   0  0  0  0  0  0  0  0  0  0  0  0
   58.9160   33.9080   44.3820 C   0  0  0  0  0  0  0  0  0  0  0  0
   59.4542   34.6048   43.7226 H   0  0  0  0  0  0  0  0  0  0  0  0
   58.9610   34.0840   45.7650 C   0  0  0  0  0  0  0  0  0  0  0  0
   59.5423   34.9140   46.1930 H   0  0  0  0  0  0  0  0  0  0  0  0
   58.2720   33.2120   46.6070 C   0  0  0  0  0  0  0  0  0  0  0  0
   58.3038   33.3628   47.6961 H   0  0  0  0  0  0  0  0  0  0  0  0
   57.5410   32.1470   46.0730 C   0  0  0  0  0  0  0  0  0  0  0  0
   56.9902   31.4714   46.7440 H   0  0  0  0  0  0  0  0  0  0  0  0
   57.5050   31.9330   44.6800 C   0  0  0  0  0  0  0  0  0  0  0  0
   55.9080   27.6650   45.6200 N   0  0  0  0  0  0  0  0  0  0  0  0
   56.4720   26.5000   46.0360 C   0  0  0  0  0  0  0  0  0  0  0  0
   55.6780   25.3910   46.3410 O   0  0  0  0  0  0  0  0  0  0  0  0
   55.4800   24.3160   45.4300 C   0  0  0  0  0  0  0  0  0  0  0  0
   55.3087   23.3860   45.9919 H   0  0  0  0  0  0  0  0  0  0  0  0
   54.6058   24.5282   44.7969 H   0  0  0  0  0  0  0  0  0  0  0  0
   56.3724   24.2028   44.7969 H   0  0  0  0  0  0  0  0  0  0  0  0
   57.8590   26.4110   46.1550 C   0  0  0  0  0  0  0  0  0  0  0  0
   58.3356   25.4787   46.4922 H   0  0  0  0  0  0  0  0  0  0  0  0
  1  2  1  0
  2  3  1  0
  3  4  1  0
  4  5  2  0
  5  6  1  0
  6  7  2  0
  7  8  1  0
  7  9  1  0
  9 10  1  0
  9 11  2  0
 11 12  1  0
 11 13  1  0
 13 14  2  0
 14 15  1  0
 14 16  1  0
 16 17  1  0
 16 18  2  0
 18 19  1  0
 18 20  1  0
 20 21  1  0
 20 22  2  0
  4 23  1  0
 23 24  2  0
 24 25  1  0
 25 26  1  0
 26 27  1  0
 26 28  1  0
 26 29  1  0
 24 30  1  0
 30 31  1  0
 30  2  2  0
 22  6  1  0
 22 13  1  0
M  CHG  1   3  -1
M  END
>  <UniqueID>  (64) 
57

>  <SMILES>  (64) 
COc1cc[n-]/c(=N/c2cccc3ccccc23)n1

>  <Energy>  (64) 
44.44536016548786

>  <Genealogy>  (64) 
COc1cc[n-]c(=Nc2cccc3ccccc23)n1 (protonated)
COc1cc[n-]/c(=N/c2cccc3ccccc23)n1 (cis-trans isomerization)
COc1cc[n-]/c(=N/c2cccc3ccccc23)n1 (3D coordinates assigned)
COc1cc[n-]/c(=N/c2cccc3ccccc23)n1 (optimized conformer: 44.44536016548786 kcal/mol)

>  <smiles>  (64) 
COc1cc[nH]c(=Nc2cccc3ccccc23)n1

>  <score_type>  (64) 
oracle

>  <origin>  (64) 
adg

>  <m_score__min__energy>  (64) 
-9.2599999999999998

>  <m_primary>  (64) 
energy

$$$$
64:0
     RDKit          3D

 59 61  0  0  0  0  0  0  0  0999 V2000
   54.0930   29.7540   52.4740 C   0  0  0  0  0  0  0  0  0  0  0  0
   55.5230   30.1740   52.3570 C   0  0  0  0  0  0  0  0  0  0  0  0
   56.4290   29.2980   52.3580 O   0  0  0  0  0  0  0  0  0  0  0  0
   55.8520   31.5690   52.2520 N   0  0  0  0  0  0  0  0  0  0  0  0
   57.1570   32.0580   51.9020 C   0  0  0  0  0  0  0  0  0  0  0  0
   58.0210   31.2480   51.1530 C   0  0  0  0  0  0  0  0  0  0  0  0
   59.3020   31.6960   50.8160 C   0  0  0  0  0  0  0  0  0  0  0  0
   59.7360   32.9630   51.2270 C   0  0  0  0  0  0  0  0  0  0  0  0
   61.0610   33.3900   50.8940 N   0  0  0  0  0  0  0  0  0  0  0  0
   61.5640   33.6260   49.5710 C   0  0  0  0  0  0  0  0  0  0  0  0
   62.1120   34.7350   49.3390 O   0  0  0  0  0  0  0  0  0  0  0  0
   61.6150   32.5090   48.5340 C   0  0  2  0  0  0  0  0  0  0  0  0
   63.0420   31.9030   48.4530 C   0  0  0  0  0  0  0  0  0  0  0  0
   63.7710   32.2440   47.1450 C   0  0  0  0  0  0  0  0  0  0  0  0
   63.4800   33.6830   46.7260 C   0  0  0  0  0  0  0  0  0  0  0  0
   61.9760   33.8920   46.4710 C   0  0  0  0  0  0  0  0  0  0  0  0
   61.1370   32.9080   47.1870 N   0  0  0  0  0  0  0  0  0  0  0  0
   59.4450   33.3460   47.1440 S   0  0  0  0  0  0  0  0  0  0  0  0
   59.2980   34.7920   46.7610 O   0  0  0  0  0  0  0  0  0  0  0  0
   58.8350   33.1790   48.5080 O   0  0  0  0  0  0  0  0  0  0  0  0
   58.6030   32.2470   46.0090 C   0  0  0  0  0  0  0  0  0  0  0  0
   58.5200   30.8420   46.2370 C   0  0  0  0  0  0  0  0  0  0  0  0
   59.1030   30.1740   47.4560 C   0  0  0  0  0  0  0  0  0  0  0  0
   57.8810   30.0210   45.2910 C   0  0  0  0  0  0  0  0  0  0  0  0
   57.2890   30.5620   44.1490 C   0  0  0  0  0  0  0  0  0  0  0  0
   56.6440   29.6580   43.1380 C   0  0  0  0  0  0  0  0  0  0  0  0
   57.3510   31.9380   43.9280 C   0  0  0  0  0  0  0  0  0  0  0  0
   57.9740   32.7910   44.8530 C   0  0  0  0  0  0  0  0  0  0  0  0
   57.9860   34.2680   44.5480 C   0  0  0  0  0  0  0  0  0  0  0  0
   58.9010   33.7490   52.0320 C   0  0  0  0  0  0  0  0  0  0  0  0
   57.6170   33.3050   52.3630 C   0  0  0  0  0  0  0  0  0  0  0  0
   53.8202   29.6739   53.5366 H   0  0  0  0  0  0  0  0  0  0  0  0
   53.4502   30.5013   51.9857 H   0  0  0  0  0  0  0  0  0  0  0  0
   53.9564   28.7778   51.9857 H   0  0  0  0  0  0  0  0  0  0  0  0
   55.1200   32.2640   52.5270 H   0  0  0  0  0  0  0  0  0  0  0  0
   57.6887   30.2512   50.8274 H   0  0  0  0  0  0  0  0  0  0  0  0
   59.9709   31.0517   50.2265 H   0  0  0  0  0  0  0  0  0  0  0  0
   60.9081   31.7428   48.8850 H   0  0  0  0  0  0  0  0  0  0  0  0
   63.6346   32.2905   49.2948 H   0  0  0  0  0  0  0  0  0  0  0  0
   62.9351   30.8089   48.4919 H   0  0  0  0  0  0  0  0  0  0  0  0
   64.8543   32.1227   47.2929 H   0  0  0  0  0  0  0  0  0  0  0  0
   63.4162   31.5662   46.3546 H   0  0  0  0  0  0  0  0  0  0  0  0
   63.8068   34.3634   47.5262 H   0  0  0  0  0  0  0  0  0  0  0  0
   64.0252   33.8928   45.7939 H   0  0  0  0  0  0  0  0  0  0  0  0
   61.6986   34.9022   46.8066 H   0  0  0  0  0  0  0  0  0  0  0  0
   61.7988   33.7601   45.3934 H   0  0  0  0  0  0  0  0  0  0  0  0
   58.6933   30.6434   48.3626 H   0  0  0  0  0  0  0  0  0  0  0  0
   58.8439   29.1050   47.4475 H   0  0  0  0  0  0  0  0  0  0  0  0
   60.1972   30.2861   47.4475 H   0  0  0  0  0  0  0  0  0  0  0  0
   57.8472   28.9337   45.4540 H   0  0  0  0  0  0  0  0  0  0  0  0
   56.0810   28.8690   43.6581 H   0  0  0  0  0  0  0  0  0  0  0  0
   55.9581   30.2431   42.5077 H   0  0  0  0  0  0  0  0  0  0  0  0
   57.4204   29.1998   42.5077 H   0  0  0  0  0  0  0  0  0  0  0  0
   56.9052   32.3609   43.0156 H   0  0  0  0  0  0  0  0  0  0  0  0
   57.9906   34.8368   45.4895 H   0  0  0  0  0  0  0  0  0  0  0  0
   58.8862   34.5149   43.9660 H   0  0  0  0  0  0  0  0  0  0  0  0
   57.0900   34.5295   43.9660 H   0  0  0  0  0  0  0  0  0  0  0  0
   59.2573   34.7203   52.4055 H   0  0  0  0  0  0  0  0  0  0  0  0
   56.9639   33.9334   52.9864 H   0  0  0  0  0  0  0  0  0  0  0  0
  1  2  1  0
  2  3  2  0
  2  4  1  0
  4  5  1  0
  5  6  2  0
  6  7  1  0
  7  8  2  0
  8  9  1  0
  9 10  1  0
 10 11  2  0
 10 12  1  0
 12 13  1  0
 13 14  1  0
 14 15  1  0
 15 16  1  0
 16 17  1  0
 17 18  1  0
 18 19  2  0
 18 20  2  0
 18 21  1  0
 21 22  2  0
 22 23  1  0
 22 24  1  0
 24 25  2  0
 25 26  1  0
 25 27  1  0
 27 28  2  0
 28 29  1  0
  8 30  1  0
 30 31  2  0
 31  5  1  0
 17 12  1  0
 28 21  1  0
  1 32  1  0
  1 33  1  0
  1 34  1  0
  4 35  1  0
  6 36  1  0
  7 37  1  0
 12 38  1  1
 13 39  1  0
 13 40  1  0
 14 41  1  0
 14 42  1  0
 15 43  1  0
 15 44  1  0
 16 45  1  0
 16 46  1  0
 23 47  1  0
 23 48  1  0
 23 49  1  0
 24 50  1  0
 26 51  1  0
 26 52  1  0
 26 53  1  0
 27 54  1  0
 29 55  1  0
 29 56  1  0
 29 57  1  0
 30 58  1  0
 31 59  1  0
M  CHG  1   9  -1
M  END
>  <UniqueID>  (65) 
58

>  <SMILES>  (65) 
CC(=O)Nc1ccc([N-]C(=O)[C@@H]2CCCCN2S(=O)(=O)c2c(C)cc(C)cc2C)cc1

>  <Energy>  (65) 
81.19140128187729

>  <Genealogy>  (65) 
CC(=O)Nc1ccc([N-]C(=O)C2CCCCN2S(=O)(=O)c2c(C)cc(C)cc2C)cc1 (protonated)
CC(=O)Nc1ccc([N-]C(=O)[C@@H]2CCCCN2S(=O)(=O)c2c(C)cc(C)cc2C)cc1 (chirality)
CC(=O)Nc1ccc([N-]C(=O)[C@@H]2CCCCN2S(=O)(=O)c2c(C)cc(C)cc2C)cc1 (3D coordinates assigned)
CC(=O)Nc1ccc([N-]C(=O)[C@@H]2CCCCN2S(=O)(=O)c2c(C)cc(C)cc2C)cc1 (nonaromatic ring conformer: 81.19140128187729 kcal/mol)

>  <smiles>  (65) 
CC(=O)Nc1ccc(NC(=O)C2CCCCN2S(=O)(=O)c2c(C)cc(C)cc2C)cc1

>  <score_type>  (65) 
oracle

>  <origin>  (65) 
adg

>  <m_score__min__energy>  (65) 
-10.550000000000001

>  <m_primary>  (65) 
energy

$$$$
65:0
     RDKit          3D

 35 37  0  0  1  0  0  0  0  0999 V2000
   55.1630   26.6750   46.0090 O   0  0  0  0  0  0  0  0  0  0  0  0
   55.7120   25.4240   45.6610 C   0  0  0  0  0  0  0  0  0  0  0  0
   56.6870   25.0600   46.7240 C   0  0  0  0  0  0  0  0  0  0  0  0
   58.0800   25.5740   46.4730 C   0  0  0  0  0  0  0  0  0  0  0  0
   58.1330   26.6970   45.4950 C   0  0  0  0  0  0  0  0  0  0  0  0
   57.8580   27.9520   46.1540 N   0  0  0  0  0  0  0  0  0  0  0  0
   57.3830   28.9990   45.5790 C   0  0  0  0  0  0  0  0  0  0  0  0
   56.3520   28.8560   44.7250 N   0  0  0  0  0  0  0  0  0  0  0  0
   55.8830   29.9710   44.1430 C   0  0  0  0  0  0  0  0  0  0  0  0
   56.4030   31.1990   44.3850 N   0  0  0  0  0  0  0  0  0  0  0  0
   57.4420   31.3550   45.2440 C   0  0  0  0  0  0  0  0  0  0  0  0
   57.9490   30.2260   45.8590 C   0  0  0  0  0  0  0  0  0  0  0  0
   58.9820   30.5790   46.6800 N   0  0  0  0  0  0  0  0  0  0  0  0
   59.1190   31.9280   46.5760 C   0  0  0  0  0  0  0  0  0  0  0  0
   59.9920   32.8130   47.1750 C   0  0  0  0  0  0  0  0  0  0  0  0
   59.9190   34.1590   46.8920 C   0  0  0  0  0  0  0  0  0  0  0  0
   58.9680   34.6560   46.0030 C   0  0  0  0  0  0  0  0  0  0  0  0
   58.0910   33.7590   45.4020 C   0  0  0  0  0  0  0  0  0  0  0  0
   58.1810   32.4290   45.6970 C   0  0  0  0  0  0  0  0  0  0  0  0
   55.8250   27.2370   46.5090 H   0  0  0  0  0  0  0  0  0  0  0  0
   54.9167   24.6663   45.6037 H   0  0  0  0  0  0  0  0  0  0  0  0
   56.2055   25.4738   44.6792 H   0  0  0  0  0  0  0  0  0  0  0  0
   56.3308   25.4753   47.6783 H   0  0  0  0  0  0  0  0  0  0  0  0
   56.7487   23.9618   46.7396 H   0  0  0  0  0  0  0  0  0  0  0  0
   58.4991   25.9241   47.4279 H   0  0  0  0  0  0  0  0  0  0  0  0
   58.6583   24.7431   46.0426 H   0  0  0  0  0  0  0  0  0  0  0  0
   59.1350   26.7369   45.0430 H   0  0  0  0  0  0  0  0  0  0  0  0
   57.3737   26.5287   44.7170 H   0  0  0  0  0  0  0  0  0  0  0  0
   55.9600   27.9210   44.5440 H   0  0  0  0  0  0  0  0  0  0  0  0
   55.0413   29.8844   43.4401 H   0  0  0  0  0  0  0  0  0  0  0  0
   59.5650   29.9370   47.2810 H   0  0  0  0  0  0  0  0  0  0  0  0
   60.7493   32.4420   47.8814 H   0  0  0  0  0  0  0  0  0  0  0  0
   60.6226   34.8527   47.3755 H   0  0  0  0  0  0  0  0  0  0  0  0
   58.9121   35.7321   45.7817 H   0  0  0  0  0  0  0  0  0  0  0  0
   57.3301   34.1188   44.6938 H   0  0  0  0  0  0  0  0  0  0  0  0
  1  2  1  0
  2  3  1  0
  3  4  1  0
  4  5  1  0
  5  6  1  0
  6  7  2  0
  7  8  1  0
  8  9  1  0
  9 10  2  0
 10 11  1  0
 11 12  2  0
 12 13  1  0
 13 14  1  0
 14 15  2  0
 15 16  1  0
 16 17  2  0
 17 18  1  0
 18 19  2  0
 12  7  1  0
 19 14  1  0
 19 11  1  0
  1 20  1  0
  2 21  1  0
  2 22  1  0
  3 23  1  0
  3 24  1  0
  4 25  1  0
  4 26  1  0
  5 27  1  0
  5 28  1  0
  8 29  1  0
  9 30  1  0
 13 31  1  0
 15 32  1  0
 16 33  1  0
 17 34  1  0
 18 35  1  0
M  END
>  <smiles>  (66) 
OCCCCN=c1[nH]cnc2c1[nH]c1ccccc12

>  <score_type>  (66) 
oracle

>  <origin>  (66) 
adg

>  <m_score__min__energy>  (66) 
-7.6100000000000003

>  <m_primary>  (66) 
energy

$$$$
66:0
     RDKit          3D

 42 45  0  0  0  0  0  0  0  0999 V2000
   57.2730   34.5970   44.5160 O   0  0  0  0  0  0  0  0  0  0  0  0
   57.6210   33.5100   45.0540 C   0  0  0  0  0  0  0  0  0  0  0  0
   57.2940   32.2420   44.3700 C   0  0  0  0  0  0  0  0  0  0  0  0
   57.6010   31.9320   43.0590 C   0  0  0  0  0  0  0  0  0  0  0  0
   57.1000   30.6640   42.8480 C   0  0  0  0  0  0  0  0  0  0  0  0
   56.5180   30.2800   44.0380 C   0  0  0  0  0  0  0  0  0  0  0  0
   56.6480   31.2400   44.9230 O   0  0  0  0  0  0  0  0  0  0  0  0
   58.3050   33.5330   46.3230 N   0  0  0  0  0  0  0  0  0  0  0  0
   59.5280   34.3370   46.4750 C   0  0  0  0  0  0  0  0  0  0  0  0
   59.6730   34.8250   47.9220 C   0  0  0  0  0  0  0  0  0  0  0  0
   59.6610   33.6700   48.9450 C   0  0  0  0  0  0  0  0  0  0  0  0
   58.9780   32.3910   48.4160 C   0  0  1  0  0  0  0  0  0  0  0  0
   58.5700   31.4730   49.5470 C   0  0  0  0  0  0  0  0  0  0  0  0
   58.0040   31.8780   50.7400 C   0  0  0  0  0  0  0  0  0  0  0  0
   57.7640   30.8020   51.5120 N   0  0  0  0  0  0  0  0  0  0  0  0
   58.1450   29.7160   50.8580 N   0  0  0  0  0  0  0  0  0  0  0  0
   58.6240   30.0890   49.6570 C   0  0  0  0  0  0  0  0  0  0  0  0
   59.1600   29.1330   48.6820 C   0  0  0  0  0  0  0  0  0  0  0  0
   58.9570   29.3330   47.3100 C   0  0  0  0  0  0  0  0  0  0  0  0
   59.5130   28.4340   46.3980 C   0  0  0  0  0  0  0  0  0  0  0  0
   60.2570   27.3470   46.8600 C   0  0  0  0  0  0  0  0  0  0  0  0
   60.4290   27.1710   48.2350 C   0  0  0  0  0  0  0  0  0  0  0  0
   59.8790   28.0560   49.1130 N   0  0  0  0  0  0  0  0  0  0  0  0
   57.8250   32.7170   47.4490 C   0  0  0  0  0  0  0  0  0  0  0  0
   58.1341   32.5647   42.3341 H   0  0  0  0  0  0  0  0  0  0  0  0
   57.1538   30.0779   41.9187 H   0  0  0  0  0  0  0  0  0  0  0  0
   56.0205   29.3156   44.2178 H   0  0  0  0  0  0  0  0  0  0  0  0
   60.4009   33.7218   46.2111 H   0  0  0  0  0  0  0  0  0  0  0  0
   59.4649   35.2105   45.8093 H   0  0  0  0  0  0  0  0  0  0  0  0
   60.6247   35.3684   48.0162 H   0  0  0  0  0  0  0  0  0  0  0  0
   58.8110   35.4720   48.1419 H   0  0  0  0  0  0  0  0  0  0  0  0
   60.7008   33.4267   49.2086 H   0  0  0  0  0  0  0  0  0  0  0  0
   59.0812   34.0122   49.8149 H   0  0  0  0  0  0  0  0  0  0  0  0
   59.7178   31.8342   47.8222 H   0  0  0  0  0  0  0  0  0  0  0  0
   57.7834   32.9196   51.0166 H   0  0  0  0  0  0  0  0  0  0  0  0
   58.3655   30.1898   46.9551 H   0  0  0  0  0  0  0  0  0  0  0  0
   59.3652   28.5819   45.3181 H   0  0  0  0  0  0  0  0  0  0  0  0
   60.7032   26.6364   46.1487 H   0  0  0  0  0  0  0  0  0  0  0  0
   61.0101   26.3156   48.6100 H   0  0  0  0  0  0  0  0  0  0  0  0
   60.0320   27.9080   50.1360 H   0  0  0  0  0  0  0  0  0  0  0  0
   57.4033   31.7782   47.0606 H   0  0  0  0  0  0  0  0  0  0  0  0
   57.0562   33.2843   47.9941 H   0  0  0  0  0  0  0  0  0  0  0  0
  1  2  2  0
  2  3  1  0
  3  4  2  0
  4  5  1  0
  5  6  2  0
  6  7  1  0
  2  8  1  0
  8  9  1  0
  9 10  1  0
 10 11  1  0
 11 12  1  0
 12 13  1  0
 13 14  1  0
 14 15  2  0
 15 16  1  0
 16 17  1  0
 17 18  1  0
 18 19  2  0
 19 20  1  0
 20 21  2  0
 21 22  1  0
 22 23  2  0
 12 24  1  0
  7  3  1  0
 24  8  1  0
 17 13  2  0
 23 18  1  0
  4 25  1  0
  5 26  1  0
  6 27  1  0
  9 28  1  0
  9 29  1  0
 10 30  1  0
 10 31  1  0
 11 32  1  0
 11 33  1  0
 12 34  1  6
 14 35  1  0
 19 36  1  0
 20 37  1  0
 21 38  1  0
 22 39  1  0
 23 40  1  0
 24 41  1  0
 24 42  1  0
M  CHG  2  16  -1  23   1
M  END
>  <UniqueID>  (67) 
59

>  <SMILES>  (67) 
O=C(c1ccco1)N1CCC[C@@H](c2cn[n-]c2-c2cccc[nH+]2)C1

>  <Energy>  (67) 
110.57171718448522

>  <Genealogy>  (67) 
O=C(c1ccco1)N1CCCC(c2cn[n-]c2-c2cccc[nH+]2)C1 (protonated)
O=C(c1ccco1)N1CCC[C@@H](c2cn[n-]c2-c2cccc[nH+]2)C1 (chirality)
O=C(c1ccco1)N1CCC[C@@H](c2cn[n-]c2-c2cccc[nH+]2)C1 (3D coordinates assigned)
O=C(c1ccco1)N1CCC[C@@H](c2cn[n-]c2-c2cccc[nH+]2)C1 (nonaromatic ring conformer: 110.57171718448522 kcal/mol)

>  <smiles>  (67) 
O=C(c1ccco1)N1CCCC(c2cn[nH]c2-c2ccccn2)C1

>  <score_type>  (67) 
oracle

>  <origin>  (67) 
adg

>  <m_score__min__energy>  (67) 
-8.0099999999999998

>  <m_primary>  (67) 
energy

$$$$
67:0
     RDKit          3D

 33 34  0  0  0  0  0  0  0  0999 V2000
   57.7960   32.2980   43.1310 C   0  0  0  0  0  0  0  0  0  0  0  0
   57.4390   32.3890   44.4810 O   0  0  0  0  0  0  0  0  0  0  0  0
   58.3080   32.8800   45.4330 C   0  0  0  0  0  0  0  0  0  0  0  0
   58.2360   34.2150   45.8460 C   0  0  0  0  0  0  0  0  0  0  0  0
   59.1410   34.6310   46.8060 C   0  0  0  0  0  0  0  0  0  0  0  0
   60.0890   33.8440   47.3740 C   0  0  0  0  0  0  0  0  0  0  0  0
   60.1590   32.5160   46.9630 C   0  0  0  0  0  0  0  0  0  0  0  0
   59.2730   32.0540   46.0040 C   0  0  0  0  0  0  0  0  0  0  0  0
   59.3060   30.6540   45.5240 C   0  0  0  0  0  0  0  0  0  0  0  0
   58.9820   29.7080   46.5770 N   0  0  0  0  0  0  0  0  0  0  0  0
   58.0670   28.6330   46.4020 C   0  0  0  0  0  0  0  0  0  0  0  0
   58.2910   27.3910   46.9630 C   0  0  0  0  0  0  0  0  0  0  0  0
   57.4040   26.3640   46.7940 N   0  0  0  0  0  0  0  0  0  0  0  0
   56.2720   26.5670   46.0570 C   0  0  0  0  0  0  0  0  0  0  0  0
   55.4280   25.5890   45.8970 N   0  0  0  0  0  0  0  0  0  0  0  0
   56.0290   27.7700   45.4980 N   0  0  0  0  0  0  0  0  0  0  0  0
   56.9140   28.7990   45.6660 C   0  0  0  0  0  0  0  0  0  0  0  0
   56.5860   29.9020   45.0930 N   0  0  0  0  0  0  0  0  0  0  0  0
   58.8590   32.0270   43.0503 H   0  0  0  0  0  0  0  0  0  0  0  0
   57.1830   31.5274   42.6407 H   0  0  0  0  0  0  0  0  0  0  0  0
   57.6266   33.2680   42.6407 H   0  0  0  0  0  0  0  0  0  0  0  0
   57.4904   34.9053   45.4246 H   0  0  0  0  0  0  0  0  0  0  0  0
   59.0880   35.6797   47.1338 H   0  0  0  0  0  0  0  0  0  0  0  0
   60.7785   34.2417   48.1332 H   0  0  0  0  0  0  0  0  0  0  0  0
   60.9110   31.8398   47.3958 H   0  0  0  0  0  0  0  0  0  0  0  0
   58.5761   30.5412   44.7088 H   0  0  0  0  0  0  0  0  0  0  0  0
   60.3275   30.4386   45.1775 H   0  0  0  0  0  0  0  0  0  0  0  0
   59.4610   29.8550   47.4910 H   0  0  0  0  0  0  0  0  0  0  0  0
   59.2013   27.2245   47.5578 H   0  0  0  0  0  0  0  0  0  0  0  0
   57.5680   25.4210   47.2160 H   0  0  0  0  0  0  0  0  0  0  0  0
   54.4920   25.6430   46.3710 H   0  0  0  0  0  0  0  0  0  0  0  0
   55.1500   27.9050   44.9340 H   0  0  0  0  0  0  0  0  0  0  0  0
   56.5820   30.8450   45.4860 H   0  0  0  0  0  0  0  0  0  0  0  0
  1  2  1  0
  2  3  1  0
  3  4  2  0
  4  5  1  0
  5  6  2  0
  6  7  1  0
  7  8  2  0
  8  9  1  0
  9 10  1  0
 10 11  1  0
 11 12  2  0
 12 13  1  0
 13 14  1  0
 14 15  2  3
 14 16  1  0
 16 17  1  0
 17 18  2  3
  8  3  1  0
 17 11  1  0
  1 19  1  0
  1 20  1  0
  1 21  1  0
  4 22  1  0
  5 23  1  0
  6 24  1  0
  7 25  1  0
  9 26  1  0
  9 27  1  0
 10 28  1  0
 12 29  1  0
 13 30  1  0
 15 31  1  0
 16 32  1  0
 18 33  1  0
M  END
>  <smiles>  (68) 
COc1ccccc1CNc1c[nH]c(=N)[nH]c1=N

>  <score_type>  (68) 
oracle

>  <origin>  (68) 
adg

>  <m_score__min__energy>  (68) 
-5.9800000000000004

>  <m_primary>  (68) 
energy

$$$$
68:0
     RDKit          3D

 37 39  0  0  0  0  0  0  0  0999 V2000
   59.9430   26.1090   46.3890 C   0  0  0  0  0  0  0  0  0  0  0  0
   58.5670   26.6520   46.1070 C   0  0  0  0  0  0  0  0  0  0  0  0
   57.4530   25.8170   46.2690 C   0  0  0  0  0  0  0  0  0  0  0  0
   56.1750   26.3180   46.0110 C   0  0  0  0  0  0  0  0  0  0  0  0
   55.1690   25.5750   46.1560 O   0  0  0  0  0  0  0  0  0  0  0  0
   56.0110   27.5730   45.6140 O   0  0  0  0  0  0  0  0  0  0  0  0
   57.0300   28.4100   45.4410 C   0  0  0  0  0  0  0  0  0  0  0  0
   56.7760   29.7190   45.0190 C   0  0  0  0  0  0  0  0  0  0  0  0
   57.8350   30.6230   44.8210 C   0  0  0  0  0  0  0  0  0  0  0  0
   57.5930   31.9810   44.4170 N   0  0  0  0  0  0  0  0  0  0  0  0
   57.4050   33.0670   45.3360 C   0  0  0  0  0  0  0  0  0  0  0  0
   57.0440   32.8460   46.5240 O   0  0  0  0  0  0  0  0  0  0  0  0
   57.5710   34.4810   44.8700 C   0  0  0  0  0  0  0  0  0  0  0  0
   58.8940   34.9480   45.1330 O   0  0  0  0  0  0  0  0  0  0  0  0
   59.6810   34.5700   46.2340 C   0  0  0  0  0  0  0  0  0  0  0  0
   60.8770   33.8380   46.1040 C   0  0  0  0  0  0  0  0  0  0  0  0
   61.6150   33.5020   47.2410 C   0  0  0  0  0  0  0  0  0  0  0  0
   61.1530   33.8940   48.4980 C   0  0  0  0  0  0  0  0  0  0  0  0
   59.9940   34.5950   48.6080 N   0  0  0  0  0  0  0  0  0  0  0  0
   59.2580   34.9360   47.5160 C   0  0  0  0  0  0  0  0  0  0  0  0
   59.1470   30.2080   45.0850 C   0  0  0  0  0  0  0  0  0  0  0  0
   59.4110   28.9010   45.5040 C   0  0  0  0  0  0  0  0  0  0  0  0
   58.3580   27.9840   45.6840 C   0  0  0  0  0  0  0  0  0  0  0  0
   60.0974   26.0481   47.4764 H   0  0  0  0  0  0  0  0  0  0  0  0
   60.0387   25.1057   45.9483 H   0  0  0  0  0  0  0  0  0  0  0  0
   60.6981   26.7766   45.9483 H   0  0  0  0  0  0  0  0  0  0  0  0
   57.5842   24.7752   46.5968 H   0  0  0  0  0  0  0  0  0  0  0  0
   55.7403   30.0439   44.8407 H   0  0  0  0  0  0  0  0  0  0  0  0
   57.5140   32.1870   43.3960 H   0  0  0  0  0  0  0  0  0  0  0  0
   57.3798   34.5291   43.7878 H   0  0  0  0  0  0  0  0  0  0  0  0
   56.8572   35.1179   45.4130 H   0  0  0  0  0  0  0  0  0  0  0  0
   61.2295   33.5313   45.1082 H   0  0  0  0  0  0  0  0  0  0  0  0
   62.5520   32.9335   47.1465 H   0  0  0  0  0  0  0  0  0  0  0  0
   61.7271   33.6355   49.4000 H   0  0  0  0  0  0  0  0  0  0  0  0
   58.3240   35.5033   47.6420 H   0  0  0  0  0  0  0  0  0  0  0  0
   59.9778   30.9182   44.9612 H   0  0  0  0  0  0  0  0  0  0  0  0
   60.4479   28.5869   45.6943 H   0  0  0  0  0  0  0  0  0  0  0  0
  1  2  1  0
  2  3  2  0
  3  4  1  0
  4  5  2  0
  4  6  1  0
  6  7  1  0
  7  8  2  0
  8  9  1  0
  9 10  1  0
 10 11  1  0
 11 12  2  0
 11 13  1  0
 13 14  1  0
 14 15  1  0
 15 16  2  0
 16 17  1  0
 17 18  2  0
 18 19  1  0
 19 20  2  0
  9 21  2  0
 21 22  1  0
 22 23  2  0
 23  2  1  0
 23  7  1  0
 20 15  1  0
  1 24  1  0
  1 25  1  0
  1 26  1  0
  3 27  1  0
  8 28  1  0
 10 29  1  0
 13 30  1  0
 13 31  1  0
 16 32  1  0
 17 33  1  0
 18 34  1  0
 20 35  1  0
 21 36  1  0
 22 37  1  0
M  END
>  <UniqueID>  (69) 
60

>  <SMILES>  (69) 
Cc1cc(=O)oc2cc(NC(=O)COc3cccnc3)ccc12

>  <Energy>  (69) 
47.6410130943214

>  <Genealogy>  (69) 
Cc1cc(=O)oc2cc(NC(=O)COc3cccnc3)ccc12 (3D coordinates assigned)
Cc1cc(=O)oc2cc(NC(=O)COc3cccnc3)ccc12 (optimized conformer: 47.6410130943214 kcal/mol)

>  <smiles>  (69) 
Cc1cc(=O)oc2cc(NC(=O)COc3cccnc3)ccc12

>  <score_type>  (69) 
oracle

>  <origin>  (69) 
adg

>  <m_score__min__energy>  (69) 
-7.8399999999999999

>  <m_primary>  (69) 
energy

$$$$
69:0
     RDKit          3D

 41 44  0  0  0  0  0  0  0  0999 V2000
   60.7190   27.2110   49.4450 C   0  0  0  0  0  0  0  0  0  0  0  0
   60.3450   28.2670   48.4460 C   0  0  0  0  0  0  0  0  0  0  0  0
   60.3720   27.9830   47.0780 C   0  0  0  0  0  0  0  0  0  0  0  0
   59.9890   28.9460   46.1310 C   0  0  0  0  0  0  0  0  0  0  0  0
   60.1170   28.6030   44.6730 C   0  0  0  0  0  0  0  0  0  0  0  0
   59.5140   30.2110   46.5760 C   0  0  0  0  0  0  0  0  0  0  0  0
   59.5230   30.5070   47.9590 C   0  0  0  0  0  0  0  0  0  0  0  0
   59.9090   29.5220   48.8790 C   0  0  0  0  0  0  0  0  0  0  0  0
   59.0160   31.7710   48.4480 N   0  0  0  0  0  0  0  0  0  0  0  0
   59.1940   32.8500   47.5050 C   0  0  0  0  0  0  0  0  0  0  0  0
   59.2710   34.1760   47.9680 C   0  0  0  0  0  0  0  0  0  0  0  0
   59.3200   35.2390   47.0650 C   0  0  0  0  0  0  0  0  0  0  0  0
   59.2690   34.9930   45.6940 C   0  0  0  0  0  0  0  0  0  0  0  0
   59.1720   33.6830   45.2190 C   0  0  0  0  0  0  0  0  0  0  0  0
   59.1370   32.6010   46.1180 C   0  0  0  0  0  0  0  0  0  0  0  0
   59.0600   31.2360   45.6600 N   0  0  0  0  0  0  0  0  0  0  0  0
   58.1060   30.9090   44.6330 C   0  0  0  0  0  0  0  0  0  0  0  0
   58.1690   31.5670   43.3940 C   0  0  0  0  0  0  0  0  0  0  0  0
   57.2510   31.2620   42.3860 C   0  0  0  0  0  0  0  0  0  0  0  0
   56.2610   30.3000   42.6090 C   0  0  0  0  0  0  0  0  0  0  0  0
   56.1880   29.6440   43.8400 C   0  0  0  0  0  0  0  0  0  0  0  0
   57.1060   29.9440   44.8520 C   0  0  0  0  0  0  0  0  0  0  0  0
   56.9980   29.3210   46.0530 F   0  0  0  0  0  0  0  0  0  0  0  0
   60.5799   27.6037   50.4631 H   0  0  0  0  0  0  0  0  0  0  0  0
   60.0790   26.3279   49.3020 H   0  0  0  0  0  0  0  0  0  0  0  0
   61.7722   26.9276   49.3020 H   0  0  0  0  0  0  0  0  0  0  0  0
   60.6985   26.9892   46.7378 H   0  0  0  0  0  0  0  0  0  0  0  0
   60.4999   27.5770   44.5700 H   0  0  0  0  0  0  0  0  0  0  0  0
   59.1309   28.6765   44.1911 H   0  0  0  0  0  0  0  0  0  0  0  0
   60.8138   29.3046   44.1911 H   0  0  0  0  0  0  0  0  0  0  0  0
   59.8681   29.7401   49.9564 H   0  0  0  0  0  0  0  0  0  0  0  0
   57.9940   31.6640   48.6390 H   0  0  0  0  0  0  0  0  0  0  0  0
   59.5040   32.0140   49.3430 H   0  0  0  0  0  0  0  0  0  0  0  0
   59.2927   34.3765   49.0493 H   0  0  0  0  0  0  0  0  0  0  0  0
   59.3989   36.2717   47.4355 H   0  0  0  0  0  0  0  0  0  0  0  0
   59.3052   35.8326   44.9843 H   0  0  0  0  0  0  0  0  0  0  0  0
   59.1227   33.4961   44.1361 H   0  0  0  0  0  0  0  0  0  0  0  0
   58.9449   32.3262   43.2163 H   0  0  0  0  0  0  0  0  0  0  0  0
   57.3070   31.7788   41.4166 H   0  0  0  0  0  0  0  0  0  0  0  0
   55.5392   30.0597   41.8145 H   0  0  0  0  0  0  0  0  0  0  0  0
   55.4067   28.8896   44.0141 H   0  0  0  0  0  0  0  0  0  0  0  0
  1  2  1  0
  2  3  2  0
  3  4  1  0
  4  5  1  0
  4  6  2  0
  6  7  1  0
  7  8  2  0
  7  9  1  0
  9 10  1  0
 10 11  2  0
 11 12  1  0
 12 13  2  0
 13 14  1  0
 14 15  2  0
 15 16  1  0
 16 17  1  0
 17 18  2  0
 18 19  1  0
 19 20  2  0
 20 21  1  0
 21 22  2  0
 22 23  1  0
  8  2  1  0
 15 10  1  0
 22 17  1  0
 16  6  1  0
  1 24  1  0
  1 25  1  0
  1 26  1  0
  3 27  1  0
  5 28  1  0
  5 29  1  0
  5 30  1  0
  8 31  1  0
  9 32  1  0
  9 33  1  0
 11 34  1  0
 12 35  1  0
 13 36  1  0
 14 37  1  0
 18 38  1  0
 19 39  1  0
 20 40  1  0
 21 41  1  0
M  CHG  1   9   1
M  END
>  <UniqueID>  (70) 
61

>  <SMILES>  (70) 
Cc1cc(C)c2c(c1)[NH2+]c1ccccc1N2c1ccccc1F

>  <Energy>  (70) 
67.95347616012761

>  <Genealogy>  (70) 
Cc1cc(C)c2c(c1)[NH2+]c1ccccc1N2c1ccccc1F (protonated)
Cc1cc(C)c2c(c1)[NH2+]c1ccccc1N2c1ccccc1F (3D coordinates assigned)
Cc1cc(C)c2c(c1)[NH2+]c1ccccc1N2c1ccccc1F (nonaromatic ring conformer: 67.95347616012761 kcal/mol)

>  <smiles>  (70) 
Cc1cc(C)c2c(c1)Nc1ccccc1N2c1ccccc1F

>  <score_type>  (70) 
oracle

>  <origin>  (70) 
adg

>  <m_score__min__energy>  (70) 
-6.1900000000000004

>  <m_primary>  (70) 
energy

$$$$
70:0
     RDKit          3D

 38 40  0  0  0  0  0  0  0  0999 V2000
   56.4870   34.0150   46.4350 H   0  0  0  0  0  0  0  0  0  0  0  0
   57.0950   33.4840   47.0990 N   0  0  0  0  0  0  0  0  0  0  0  0
   58.3810   33.4430   46.9630 C   0  0  0  0  0  0  0  0  0  0  0  0
   59.2330   33.4350   48.0050 N   0  0  0  0  0  0  0  0  0  0  0  0
   58.9790   33.4660   49.0170 H   0  0  0  0  0  0  0  0  0  0  0  0
   60.4680   33.4370   47.4510 C   0  0  0  0  0  0  0  0  0  0  0  0
   61.7390   33.4570   48.2160 C   0  0  0  0  0  0  0  0  0  0  0  0
   61.7610   33.8870   49.5570 C   0  0  0  0  0  0  0  0  0  0  0  0
   60.8287   34.2144   50.0404 H   0  0  0  0  0  0  0  0  0  0  0  0
   62.9590   33.9010   50.2790 C   0  0  0  0  0  0  0  0  0  0  0  0
   62.9649   34.2373   51.3263 H   0  0  0  0  0  0  0  0  0  0  0  0
   64.1470   33.4890   49.6730 C   0  0  0  0  0  0  0  0  0  0  0  0
   65.3070   33.5040   50.3750 F   0  0  0  0  0  0  0  0  0  0  0  0
   64.1400   33.0580   48.3450 C   0  0  0  0  0  0  0  0  0  0  0  0
   65.0764   32.7309   47.8695 H   0  0  0  0  0  0  0  0  0  0  0  0
   62.9460   33.0410   47.6180 C   0  0  0  0  0  0  0  0  0  0  0  0
   62.9483   32.7006   46.5720 H   0  0  0  0  0  0  0  0  0  0  0  0
   60.3340   33.4480   46.0670 C   0  0  0  0  0  0  0  0  0  0  0  0
   61.1567   33.4776   45.3374 H   0  0  0  0  0  0  0  0  0  0  0  0
   59.0170   33.4160   45.7770 N   0  0  0  0  0  0  0  0  0  0  0  0
   58.4200   33.5730   44.5120 N   0  0  0  0  0  0  0  0  0  0  0  0
   58.0250   32.5980   43.7430 C   0  0  0  0  0  0  0  0  0  0  0  0
   58.1170   32.7297   42.6548 H   0  0  0  0  0  0  0  0  0  0  0  0
   57.4610   31.3260   44.2420 C   0  0  0  0  0  0  0  0  0  0  0  0
   56.2700   30.7990   43.7170 C   0  0  0  0  0  0  0  0  0  0  0  0
   55.7303   31.3456   42.9296 H   0  0  0  0  0  0  0  0  0  0  0  0
   55.7670   29.5850   44.1890 C   0  0  0  0  0  0  0  0  0  0  0  0
   54.8235   29.1910   43.7833 H   0  0  0  0  0  0  0  0  0  0  0  0
   56.4530   28.8650   45.1740 C   0  0  0  0  0  0  0  0  0  0  0  0
   55.9050   27.6530   45.6180 O   0  0  0  0  0  0  0  0  0  0  0  0
   56.6740   26.5220   46.0150 C   0  0  0  0  0  0  0  0  0  0  0  0
   56.7094   26.4699   47.1132 H   0  0  0  0  0  0  0  0  0  0  0  0
   56.2105   25.6063   45.6192 H   0  0  0  0  0  0  0  0  0  0  0  0
   57.6960   26.6163   45.6192 H   0  0  0  0  0  0  0  0  0  0  0  0
   57.6640   29.3780   45.6790 C   0  0  0  0  0  0  0  0  0  0  0  0
   58.2170   28.8190   46.4483 H   0  0  0  0  0  0  0  0  0  0  0  0
   58.1660   30.5940   45.2070 C   0  0  0  0  0  0  0  0  0  0  0  0
   59.1205   30.9789   45.5954 H   0  0  0  0  0  0  0  0  0  0  0  0
  1  2  1  0
  2  3  2  0
  3  4  1  0
  4  5  1  0
  4  6  1  0
  6  7  1  0
  7  8  2  0
  8  9  1  0
  8 10  1  0
 10 11  1  0
 10 12  2  0
 12 13  1  0
 12 14  1  0
 14 15  1  0
 14 16  2  0
 16 17  1  0
  6 18  2  0
 18 19  1  0
 18 20  1  0
 20 21  1  0
 21 22  2  0
 22 23  1  0
 22 24  1  0
 24 25  2  0
 25 26  1  0
 25 27  1  0
 27 28  1  0
 27 29  2  0
 29 30  1  0
 30 31  1  0
 31 32  1  0
 31 33  1  0
 31 34  1  0
 29 35  1  0
 35 36  1  0
 35 37  2  0
 37 38  1  0
 20  3  1  0
 37 24  1  0
 16  7  1  0
M  END
>  <UniqueID>  (71) 
62

>  <SMILES>  (71) 
[H]/N=c1/[nH]c(-c2ccc(F)cc2)cn1/N=C\c1ccc(OC)cc1

>  <Energy>  (71) 
84.89412497424873

>  <Genealogy>  (71) 
[H]/N=c1/[nH]c(-c2ccc(F)cc2)cn1/N=C\c1ccc(OC)cc1 (cis-trans isomerization)
[H]/N=c1/[nH]c(-c2ccc(F)cc2)cn1/N=C\c1ccc(OC)cc1 (3D coordinates assigned)
[H]/N=c1/[nH]c(-c2ccc(F)cc2)cn1/N=C\c1ccc(OC)cc1 (optimized conformer: 84.89412497424873 kcal/mol)

>  <smiles>  (71) 
COc1ccc(C=Nn2cc(-c3ccc(F)cc3)[nH]c2=N)cc1

>  <score_type>  (71) 
oracle

>  <origin>  (71) 
adg

>  <m_score__min__energy>  (71) 
-7.0899999999999999

>  <m_primary>  (71) 
energy

$$$$
71:0
     RDKit          3D

 39 41  0  0  0  0  0  0  0  0999 V2000
   59.0237   32.0132   41.5186 H   0  0  0  0  0  0  0  0  0  0  0  0
   58.0060   32.1530   41.9120 C   0  0  0  0  0  0  0  0  0  0  0  0
   57.0550   32.3240   41.1040 O   0  0  0  0  0  0  0  0  0  0  0  0
   57.7910   32.1350   43.3800 C   0  0  0  0  0  0  0  0  0  0  0  0
   57.6630   33.2600   44.1180 C   0  0  0  0  0  0  0  0  0  0  0  0
   56.9882   34.0403   43.7362 H   0  0  0  0  0  0  0  0  0  0  0  0
   58.3560   33.5280   45.3970 C   0  0  0  0  0  0  0  0  0  0  0  0
   59.2270   34.6210   45.4950 C   0  0  0  0  0  0  0  0  0  0  0  0
   59.4185   35.2483   44.6119 H   0  0  0  0  0  0  0  0  0  0  0  0
   59.8370   34.9110   46.6750 N   0  0  0  0  0  0  0  0  0  0  0  0
   59.6170   34.1730   47.7960 C   0  0  0  0  0  0  0  0  0  0  0  0
   60.2660   34.5010   48.9920 C   0  0  0  0  0  0  0  0  0  0  0  0
   60.9625   35.3518   49.0244 H   0  0  0  0  0  0  0  0  0  0  0  0
   60.0290   33.7470   50.1460 C   0  0  0  0  0  0  0  0  0  0  0  0
   60.5405   34.0054   51.0849 H   0  0  0  0  0  0  0  0  0  0  0  0
   59.1430   32.6650   50.1090 C   0  0  0  0  0  0  0  0  0  0  0  0
   58.9592   32.0757   51.0194 H   0  0  0  0  0  0  0  0  0  0  0  0
   58.4900   32.3300   48.9180 C   0  0  0  0  0  0  0  0  0  0  0  0
   57.7934   31.4791   48.8930 H   0  0  0  0  0  0  0  0  0  0  0  0
   58.7240   33.0800   47.7550 C   0  0  0  0  0  0  0  0  0  0  0  0
   58.0860   32.7700   46.5490 C   0  0  0  0  0  0  0  0  0  0  0  0
   57.3734   31.9333   46.5027 H   0  0  0  0  0  0  0  0  0  0  0  0
   57.6540   30.8100   44.0420 C   0  0  0  0  0  0  0  0  0  0  0  0
   58.7910   30.1260   44.5050 C   0  0  0  0  0  0  0  0  0  0  0  0
   59.7877   30.5723   44.3733 H   0  0  0  0  0  0  0  0  0  0  0  0
   58.6650   28.8820   45.1320 C   0  0  0  0  0  0  0  0  0  0  0  0
   59.5649   28.3512   45.4763 H   0  0  0  0  0  0  0  0  0  0  0  0
   57.4040   28.3070   45.3250 C   0  0  0  0  0  0  0  0  0  0  0  0
   57.3320   27.0530   45.9510 O   0  0  0  0  0  0  0  0  0  0  0  0
   56.3270   26.1000   45.7410 C   0  0  0  0  0  0  0  0  0  0  0  0
   55.1230   26.3510   46.0140 O   0  0  0  0  0  0  0  0  0  0  0  0
   56.7070   24.7280   45.2980 C   0  0  0  0  0  0  0  0  0  0  0  0
   56.8827   24.0936   46.1793 H   0  0  0  0  0  0  0  0  0  0  0  0
   55.8938   24.2993   44.6939 H   0  0  0  0  0  0  0  0  0  0  0  0
   57.6249   24.7788   44.6939 H   0  0  0  0  0  0  0  0  0  0  0  0
   56.2640   28.9790   44.8500 C   0  0  0  0  0  0  0  0  0  0  0  0
   55.2698   28.5246   44.9730 H   0  0  0  0  0  0  0  0  0  0  0  0
   56.3880   30.2220   44.2220 C   0  0  0  0  0  0  0  0  0  0  0  0
   55.4883   30.7449   43.8655 H   0  0  0  0  0  0  0  0  0  0  0  0
  1  2  1  0
  2  3  2  0
  2  4  1  0
  4  5  2  0
  5  6  1  0
  5  7  1  0
  7  8  2  0
  8  9  1  0
  8 10  1  0
 10 11  2  0
 11 12  1  0
 12 13  1  0
 12 14  2  0
 14 15  1  0
 14 16  1  0
 16 17  1  0
 16 18  2  0
 18 19  1  0
 18 20  1  0
 20 21  2  0
 21 22  1  0
  4 23  1  0
 23 24  2  0
 24 25  1  0
 24 26  1  0
 26 27  1  0
 26 28  2  0
 28 29  1  0
 29 30  1  0
 30 31  2  0
 30 32  1  0
 32 33  1  0
 32 34  1  0
 32 35  1  0
 28 36  1  0
 36 37  1  0
 36 38  2  0
 38 39  1  0
 21  7  1  0
 38 23  1  0
 20 11  1  0
M  END
>  <UniqueID>  (72) 
63

>  <SMILES>  (72) 
CC(=O)Oc1ccc(/C(C=O)=C/c2cnc3ccccc3c2)cc1

>  <Energy>  (72) 
61.24019273991502

>  <Genealogy>  (72) 
CC(=O)Oc1ccc(/C(C=O)=C/c2cnc3ccccc3c2)cc1 (cis-trans isomerization)
CC(=O)Oc1ccc(/C(C=O)=C/c2cnc3ccccc3c2)cc1 (3D coordinates assigned)
CC(=O)Oc1ccc(/C(C=O)=C/c2cnc3ccccc3c2)cc1 (optimized conformer: 61.24019273991502 kcal/mol)

>  <smiles>  (72) 
CC(=O)Oc1ccc(C(C=O)=Cc2cnc3ccccc3c2)cc1

>  <score_type>  (72) 
oracle

>  <origin>  (72) 
adg

>  <m_score__min__energy>  (72) 
-8.7799999999999994

>  <m_primary>  (72) 
energy

$$$$
72:0
     RDKit          3D

 63 66  0  0  0  0  0  0  0  0999 V2000
   57.4380   27.8250   46.2760 C   0  0  0  0  0  0  0  0  0  0  0  0
   57.2010   29.1290   45.5910 C   0  0  0  0  0  0  0  0  0  0  0  0
   56.1610   29.2650   44.7270 N   0  0  0  0  0  0  0  0  0  0  0  0
   55.9100   30.4530   44.1210 C   0  0  0  0  0  0  0  0  0  0  0  0
   56.7200   31.5560   44.3860 C   0  0  0  0  0  0  0  0  0  0  0  0
   57.7810   31.4090   45.2910 C   0  0  0  0  0  0  0  0  0  0  0  0
   58.6830   32.5670   45.6480 C   0  0  1  0  0  0  0  0  0  0  0  0
   58.2470   33.8650   44.9430 C   0  0  0  0  0  0  0  0  0  0  0  0
   59.2590   35.0020   45.1880 C   0  0  0  0  0  0  0  0  0  0  0  0
   59.9370   34.9360   46.5750 C   0  0  0  0  0  0  0  0  0  0  0  0
   59.0440   34.2190   47.6110 C   0  0  2  0  0  0  0  0  0  0  0  0
   59.6310   34.2410   48.9640 N   0  0  0  0  0  0  0  0  0  0  0  0
   59.2900   33.0500   49.7550 C   0  0  0  0  0  0  0  0  0  0  0  0
   59.8230   33.2070   51.1540 C   0  0  0  0  0  0  0  0  0  0  0  0
   59.1760   34.0640   52.0550 C   0  0  0  0  0  0  0  0  0  0  0  0
   59.6670   34.2170   53.3510 C   0  0  0  0  0  0  0  0  0  0  0  0
   60.8050   33.5080   53.7400 C   0  0  0  0  0  0  0  0  0  0  0  0
   61.4340   32.6890   52.8560 N   0  0  0  0  0  0  0  0  0  0  0  0
   60.9880   32.5360   51.5770 C   0  0  0  0  0  0  0  0  0  0  0  0
   61.6970   31.7090   50.6990 O   0  0  0  0  0  0  0  0  0  0  0  0
   62.3320   32.1710   49.5370 C   0  0  0  0  0  0  0  0  0  0  0  0
   61.8200   31.8820   48.2570 C   0  0  0  0  0  0  0  0  0  0  0  0
   62.4460   32.3830   47.1140 C   0  0  0  0  0  0  0  0  0  0  0  0
   63.5950   33.1640   47.2320 C   0  0  0  0  0  0  0  0  0  0  0  0
   64.1180   33.4530   48.4940 C   0  0  0  0  0  0  0  0  0  0  0  0
   63.4930   32.9650   49.6540 C   0  0  0  0  0  0  0  0  0  0  0  0
   64.0480   33.2770   50.9450 N   0  0  0  0  0  0  0  0  0  0  0  0
   64.9090   32.3090   51.6310 C   0  0  0  0  0  0  0  0  0  0  0  0
   63.8030   34.5960   51.5340 C   0  0  0  0  0  0  0  0  0  0  0  0
   58.7870   32.7530   47.1860 C   0  0  0  0  0  0  0  0  0  0  0  0
   57.9900   30.1990   45.8760 N   0  0  0  0  0  0  0  0  0  0  0  0
   57.4111   27.9730   47.3657 H   0  0  0  0  0  0  0  0  0  0  0  0
   56.6552   27.1097   45.9837 H   0  0  0  0  0  0  0  0  0  0  0  0
   58.4225   27.4309   45.9837 H   0  0  0  0  0  0  0  0  0  0  0  0
   55.0670   30.5456   43.4204 H   0  0  0  0  0  0  0  0  0  0  0  0
   56.5308   32.5221   43.8952 H   0  0  0  0  0  0  0  0  0  0  0  0
   59.6909   32.3240   45.2806 H   0  0  0  0  0  0  0  0  0  0  0  0
   58.1729   33.6780   43.8616 H   0  0  0  0  0  0  0  0  0  0  0  0
   57.2733   34.1724   45.3522 H   0  0  0  0  0  0  0  0  0  0  0  0
   60.0402   34.9452   44.4156 H   0  0  0  0  0  0  0  0  0  0  0  0
   58.6990   35.9479   45.1465 H   0  0  0  0  0  0  0  0  0  0  0  0
   60.8865   34.3884   46.4824 H   0  0  0  0  0  0  0  0  0  0  0  0
   60.1092   35.9652   46.9230 H   0  0  0  0  0  0  0  0  0  0  0  0
   58.0919   34.7689   47.6441 H   0  0  0  0  0  0  0  0  0  0  0  0
   59.3000   35.0930   49.4760 H   0  0  0  0  0  0  0  0  0  0  0  0
   58.1967   32.9339   49.7901 H   0  0  0  0  0  0  0  0  0  0  0  0
   59.7386   32.1600   49.2895 H   0  0  0  0  0  0  0  0  0  0  0  0
   58.2791   34.6169   51.7390 H   0  0  0  0  0  0  0  0  0  0  0  0
   59.1626   34.8898   54.0601 H   0  0  0  0  0  0  0  0  0  0  0  0
   61.1934   33.6123   54.7638 H   0  0  0  0  0  0  0  0  0  0  0  0
   62.2920   32.1770   53.1620 H   0  0  0  0  0  0  0  0  0  0  0  0
   60.9203   31.2570   48.1572 H   0  0  0  0  0  0  0  0  0  0  0  0
   62.0322   32.1613   46.1192 H   0  0  0  0  0  0  0  0  0  0  0  0
   64.0900   33.5529   46.3299 H   0  0  0  0  0  0  0  0  0  0  0  0
   65.0263   34.0674   48.5807 H   0  0  0  0  0  0  0  0  0  0  0  0
   64.8018   32.4295   52.7191 H   0  0  0  0  0  0  0  0  0  0  0  0
   64.6145   31.2886   51.3443 H   0  0  0  0  0  0  0  0  0  0  0  0
   65.9567   32.4825   51.3443 H   0  0  0  0  0  0  0  0  0  0  0  0
   63.8178   34.5162   52.6310 H   0  0  0  0  0  0  0  0  0  0  0  0
   64.5867   35.2951   51.2066 H   0  0  0  0  0  0  0  0  0  0  0  0
   62.8206   34.9670   51.2066 H   0  0  0  0  0  0  0  0  0  0  0  0
   59.6154   32.1318   47.5573 H   0  0  0  0  0  0  0  0  0  0  0  0
   57.8193   32.4548   47.6157 H   0  0  0  0  0  0  0  0  0  0  0  0
  1  2  1  0
  2  3  2  0
  3  4  1  0
  4  5  2  0
  5  6  1  0
  6  7  1  0
  7  8  1  0
  8  9  1  0
  9 10  1  0
 10 11  1  0
 11 12  1  0
 12 13  1  0
 13 14  1  0
 14 15  2  0
 15 16  1  0
 16 17  2  0
 17 18  1  0
 18 19  2  0
 19 20  1  0
 20 21  1  0
 21 22  2  0
 22 23  1  0
 23 24  2  0
 24 25  1  0
 25 26  2  0
 26 27  1  0
 27 28  1  0
 27 29  1  0
 11 30  1  0
  6 31  2  0
 31  2  1  0
 30  7  1  0
 19 14  1  0
 26 21  1  0
  1 32  1  0
  1 33  1  0
  1 34  1  0
  4 35  1  0
  5 36  1  0
  7 37  1  6
  8 38  1  0
  8 39  1  0
  9 40  1  0
  9 41  1  0
 10 42  1  0
 10 43  1  0
 11 44  1  1
 12 45  1  0
 13 46  1  0
 13 47  1  0
 15 48  1  0
 16 49  1  0
 17 50  1  0
 18 51  1  0
 22 52  1  0
 23 53  1  0
 24 54  1  0
 25 55  1  0
 28 56  1  0
 28 57  1  0
 28 58  1  0
 29 59  1  0
 29 60  1  0
 29 61  1  0
 30 62  1  0
 30 63  1  0
M  CHG  1  18   1
M  END
>  <UniqueID>  (73) 
64

>  <SMILES>  (73) 
Cc1nccc([C@H]2CCC[C@H](NCc3ccc[nH+]c3Oc3ccccc3N(C)C)C2)n1

>  <Energy>  (73) 
76.1149643082213

>  <Genealogy>  (73) 
Cc1nccc(C2CCCC(NCc3ccc[nH+]c3Oc3ccccc3N(C)C)C2)n1 (protonated)
Cc1nccc([C@H]2CCC[C@H](NCc3ccc[nH+]c3Oc3ccccc3N(C)C)C2)n1 (chirality)
Cc1nccc([C@H]2CCC[C@H](NCc3ccc[nH+]c3Oc3ccccc3N(C)C)C2)n1 (3D coordinates assigned)
Cc1nccc([C@H]2CCC[C@H](NCc3ccc[nH+]c3Oc3ccccc3N(C)C)C2)n1 (nonaromatic ring conformer: 76.1149643082213 kcal/mol)

>  <smiles>  (73) 
Cc1nccc(C2CCCC(NCc3cccnc3Oc3ccccc3N(C)C)C2)n1

>  <score_type>  (73) 
oracle

>  <origin>  (73) 
adg

>  <m_score__min__energy>  (73) 
-7.4400000000000004

>  <m_primary>  (73) 
energy

$$$$
73:0
     RDKit          3D

 39 41  0  0  0  0  0  0  0  0999 V2000
   63.0730   33.4370   47.1810 C   0  0  0  0  0  0  0  0  0  0  0  0
   61.6300   33.8380   47.2650 C   0  0  0  0  0  0  0  0  0  0  0  0
   61.0520   34.1400   48.5070 C   0  0  0  0  0  0  0  0  0  0  0  0
   59.6990   34.4780   48.5870 C   0  0  0  0  0  0  0  0  0  0  0  0
   58.9100   34.5040   47.4340 C   0  0  0  0  0  0  0  0  0  0  0  0
   59.4740   34.1850   46.1830 C   0  0  0  0  0  0  0  0  0  0  0  0
   58.7250   34.1880   44.9980 O   0  0  0  0  0  0  0  0  0  0  0  0
   57.4020   33.6730   44.8800 C   0  0  0  0  0  0  0  0  0  0  0  0
   57.4370   32.1880   45.0460 C   0  0  0  0  0  0  0  0  0  0  0  0
   56.3850   31.5210   44.8520 O   0  0  0  0  0  0  0  0  0  0  0  0
   58.6810   31.5300   45.3280 N   0  0  0  0  0  0  0  0  0  0  0  0
   58.7970   30.1390   45.6720 C   0  0  0  0  0  0  0  0  0  0  0  0
   59.4430   29.7790   46.8650 C   0  0  0  0  0  0  0  0  0  0  0  0
   59.5560   28.4370   47.2380 C   0  0  0  0  0  0  0  0  0  0  0  0
   59.0100   27.4320   46.4290 C   0  0  0  0  0  0  0  0  0  0  0  0
   59.1170   26.0810   46.7950 C   0  0  0  0  0  0  0  0  0  0  0  0
   58.5600   25.0890   45.9840 C   0  0  0  0  0  0  0  0  0  0  0  0
   57.8910   25.4360   44.8060 C   0  0  0  0  0  0  0  0  0  0  0  0
   57.7770   26.7770   44.4320 C   0  0  0  0  0  0  0  0  0  0  0  0
   58.3360   27.7840   45.2360 C   0  0  0  0  0  0  0  0  0  0  0  0
   58.2270   29.1350   44.8690 C   0  0  0  0  0  0  0  0  0  0  0  0
   60.8320   33.8490   46.1110 C   0  0  0  0  0  0  0  0  0  0  0  0
   63.4817   33.3234   48.1959 H   0  0  0  0  0  0  0  0  0  0  0  0
   63.1573   32.4814   46.6427 H   0  0  0  0  0  0  0  0  0  0  0  0
   63.6382   34.2121   46.6427 H   0  0  0  0  0  0  0  0  0  0  0  0
   61.6654   34.1106   49.4196 H   0  0  0  0  0  0  0  0  0  0  0  0
   59.2528   34.7247   49.5617 H   0  0  0  0  0  0  0  0  0  0  0  0
   57.8460   34.7742   47.5033 H   0  0  0  0  0  0  0  0  0  0  0  0
   56.7639   34.1155   45.6591 H   0  0  0  0  0  0  0  0  0  0  0  0
   56.9938   33.9251   43.8901 H   0  0  0  0  0  0  0  0  0  0  0  0
   59.5610   32.0770   45.1900 H   0  0  0  0  0  0  0  0  0  0  0  0
   59.8647   30.5614   47.5131 H   0  0  0  0  0  0  0  0  0  0  0  0
   60.0754   28.1689   48.1699 H   0  0  0  0  0  0  0  0  0  0  0  0
   59.6402   25.8029   47.7218 H   0  0  0  0  0  0  0  0  0  0  0  0
   58.6480   24.0313   46.2731 H   0  0  0  0  0  0  0  0  0  0  0  0
   57.4533   24.6507   44.1721 H   0  0  0  0  0  0  0  0  0  0  0  0
   57.2481   27.0451   43.5055 H   0  0  0  0  0  0  0  0  0  0  0  0
   57.6925   29.4097   43.9477 H   0  0  0  0  0  0  0  0  0  0  0  0
   61.2777   33.5909   45.1390 H   0  0  0  0  0  0  0  0  0  0  0  0
  1  2  1  0
  2  3  2  0
  3  4  1  0
  4  5  2  0
  5  6  1  0
  6  7  1  0
  7  8  1  0
  8  9  1  0
  9 10  2  0
  9 11  1  0
 11 12  1  0
 12 13  2  0
 13 14  1  0
 14 15  2  0
 15 16  1  0
 16 17  2  0
 17 18  1  0
 18 19  2  0
 19 20  1  0
 20 21  2  0
  6 22  2  0
 22  2  1  0
 21 12  1  0
 20 15  1  0
  1 23  1  0
  1 24  1  0
  1 25  1  0
  3 26  1  0
  4 27  1  0
  5 28  1  0
  8 29  1  0
  8 30  1  0
 11 31  1  0
 13 32  1  0
 14 33  1  0
 16 34  1  0
 17 35  1  0
 18 36  1  0
 19 37  1  0
 21 38  1  0
 22 39  1  0
M  END
>  <UniqueID>  (74) 
65

>  <SMILES>  (74) 
Cc1cccc(OCC(=O)Nc2ccc3ccccc3c2)c1

>  <Energy>  (74) 
45.25598719651594

>  <Genealogy>  (74) 
Cc1cccc(OCC(=O)Nc2ccc3ccccc3c2)c1 (3D coordinates assigned)
Cc1cccc(OCC(=O)Nc2ccc3ccccc3c2)c1 (optimized conformer: 45.25598719651594 kcal/mol)

>  <smiles>  (74) 
Cc1cccc(OCC(=O)Nc2ccc3ccccc3c2)c1

>  <score_type>  (74) 
oracle

>  <origin>  (74) 
adg

>  <m_score__min__energy>  (74) 
-8.1099999999999994

>  <m_primary>  (74) 
energy

$$$$
74:0
     RDKit          3D

 32 33  0  0  0  0  0  0  0  0999 V2000
   59.0860   34.9830   44.9020 C   0  0  0  0  0  0  0  0  0  0  0  0
   58.9810   34.0150   46.0530 C   0  0  0  0  0  0  0  0  0  0  0  0
   59.3500   34.4430   47.3420 C   0  0  0  0  0  0  0  0  0  0  0  0
   59.2710   33.5710   48.4290 C   0  0  0  0  0  0  0  0  0  0  0  0
   58.8190   32.2640   48.2470 C   0  0  0  0  0  0  0  0  0  0  0  0
   58.4410   31.8250   46.9780 C   0  0  0  0  0  0  0  0  0  0  0  0
   58.5050   32.6910   45.8700 C   0  0  0  0  0  0  0  0  0  0  0  0
   58.1210   32.1580   44.5080 C   0  0  0  0  0  0  0  0  0  0  0  0
   57.4630   30.8180   44.6270 C   0  0  0  0  0  0  0  0  0  0  0  0
   58.1510   29.6600   44.7530 N   0  0  0  0  0  0  0  0  0  0  0  0
   57.1850   28.7290   44.8460 C   0  0  0  0  0  0  0  0  0  0  0  0
   57.4470   27.2660   45.0390 C   0  0  0  0  0  0  0  0  0  0  0  0
   56.7480   26.7260   46.2910 C   0  0  0  0  0  0  0  0  0  0  0  0
   55.3960   26.2710   45.9770 N   0  0  0  0  0  0  0  0  0  0  0  0
   55.9510   29.3340   44.7970 C   0  0  0  0  0  0  0  0  0  0  0  0
   56.1210   30.6610   44.6580 N   0  0  0  0  0  0  0  0  0  0  0  0
   59.1969   36.0056   45.2919 H   0  0  0  0  0  0  0  0  0  0  0  0
   59.9618   34.7280   44.2872 H   0  0  0  0  0  0  0  0  0  0  0  0
   58.1759   34.9217   44.2872 H   0  0  0  0  0  0  0  0  0  0  0  0
   59.7036   35.4734   47.4941 H   0  0  0  0  0  0  0  0  0  0  0  0
   59.5658   33.9152   49.4313 H   0  0  0  0  0  0  0  0  0  0  0  0
   58.7605   31.5785   49.1053 H   0  0  0  0  0  0  0  0  0  0  0  0
   58.0894   30.7917   46.8417 H   0  0  0  0  0  0  0  0  0  0  0  0
   57.4234   32.8610   44.0293 H   0  0  0  0  0  0  0  0  0  0  0  0
   59.0326   32.0504   43.9019 H   0  0  0  0  0  0  0  0  0  0  0  0
   57.0768   26.7184   44.1597 H   0  0  0  0  0  0  0  0  0  0  0  0
   58.5308   27.1250   45.1633 H   0  0  0  0  0  0  0  0  0  0  0  0
   57.3283   25.8818   46.6918 H   0  0  0  0  0  0  0  0  0  0  0  0
   56.6833   27.5345   47.0341 H   0  0  0  0  0  0  0  0  0  0  0  0
   54.7670   27.1070   46.0050 H   0  0  0  0  0  0  0  0  0  0  0  0
   55.3850   25.9360   44.9850 H   0  0  0  0  0  0  0  0  0  0  0  0
   54.9823   28.8167   44.8611 H   0  0  0  0  0  0  0  0  0  0  0  0
  1  2  1  0
  2  3  2  0
  3  4  1  0
  4  5  2  0
  5  6  1  0
  6  7  2  0
  7  8  1  0
  8  9  1  0
  9 10  2  0
 10 11  1  0
 11 12  1  0
 12 13  1  0
 13 14  1  0
 11 15  2  0
 15 16  1  0
  7  2  1  0
 16  9  1  0
  1 17  1  0
  1 18  1  0
  1 19  1  0
  3 20  1  0
  4 21  1  0
  5 22  1  0
  6 23  1  0
  8 24  1  0
  8 25  1  0
 12 26  1  0
 12 27  1  0
 13 28  1  0
 13 29  1  0
 14 30  1  0
 14 31  1  0
 15 32  1  0
M  CHG  1  16  -1
M  END
>  <UniqueID>  (75) 
66

>  <SMILES>  (75) 
Cc1ccccc1Cc1nc(CCN)c[n-]1

>  <Energy>  (75) 
54.37410953766489

>  <Genealogy>  (75) 
Cc1ccccc1Cc1nc(CCN)c[n-]1 (protonated)
Cc1ccccc1Cc1nc(CCN)c[n-]1 (3D coordinates assigned)
Cc1ccccc1Cc1nc(CCN)c[n-]1 (optimized conformer: 54.37410953766489 kcal/mol)

>  <smiles>  (75) 
Cc1ccccc1Cc1nc(CCN)c[nH]1

>  <score_type>  (75) 
oracle

>  <origin>  (75) 
adg

>  <m_score__min__energy>  (75) 
-8.3800000000000008

>  <m_primary>  (75) 
energy

$$$$
75:0
     RDKit          3D

 35 37  0  0  0  0  0  0  0  0999 V2000
   56.2330   29.7160   44.0960 C   0  0  0  0  0  0  0  0  0  0  0  0
   56.9830   31.0060   44.0700 C   0  0  0  0  0  0  0  0  0  0  0  0
   57.6900   31.5060   42.9950 C   0  0  0  0  0  0  0  0  0  0  0  0
   58.1440   32.7430   43.3910 C   0  0  0  0  0  0  0  0  0  0  0  0
   57.6890   32.9160   44.6860 C   0  0  0  0  0  0  0  0  0  0  0  0
   57.8840   34.1430   45.5340 C   0  0  0  0  0  0  0  0  0  0  0  0
   58.9570   34.0240   46.5490 N   0  0  1  0  0  0  0  0  0  0  0  0
   58.5300   33.2430   47.7310 C   0  0  0  0  0  0  0  0  0  0  0  0
   59.5860   33.2970   48.8660 C   0  0  0  0  0  0  0  0  0  0  0  0
   61.0020   33.5250   48.3820 C   0  0  0  0  0  0  0  0  0  0  0  0
   62.0310   33.7100   49.3160 C   0  0  0  0  0  0  0  0  0  0  0  0
   63.3540   33.8760   48.8920 C   0  0  0  0  0  0  0  0  0  0  0  0
   63.6640   33.8220   47.5360 C   0  0  0  0  0  0  0  0  0  0  0  0
   62.6480   33.6540   46.5960 C   0  0  0  0  0  0  0  0  0  0  0  0
   61.3110   33.5510   47.0090 C   0  0  0  0  0  0  0  0  0  0  0  0
   60.2080   33.4610   45.9920 C   0  0  0  0  0  0  0  0  0  0  0  0
   57.0020   31.8640   45.0640 O   0  0  0  0  0  0  0  0  0  0  0  0
   56.0578   29.4147   45.1393 H   0  0  0  0  0  0  0  0  0  0  0  0
   55.2677   29.8427   43.5839 H   0  0  0  0  0  0  0  0  0  0  0  0
   56.8206   28.9398   43.5839 H   0  0  0  0  0  0  0  0  0  0  0  0
   57.8559   31.0171   42.0237 H   0  0  0  0  0  0  0  0  0  0  0  0
   58.7452   33.4492   42.7995 H   0  0  0  0  0  0  0  0  0  0  0  0
   58.1312   34.9841   44.8696 H   0  0  0  0  0  0  0  0  0  0  0  0
   56.9452   34.2935   46.0872 H   0  0  0  0  0  0  0  0  0  0  0  0
   59.1560   35.0050   46.8670 H   0  0  0  0  0  0  0  0  0  0  0  0
   57.5815   33.6545   48.1066 H   0  0  0  0  0  0  0  0  0  0  0  0
   58.4100   32.1936   47.4237 H   0  0  0  0  0  0  0  0  0  0  0  0
   59.3180   34.1169   49.5486 H   0  0  0  0  0  0  0  0  0  0  0  0
   59.5734   32.3133   49.3582 H   0  0  0  0  0  0  0  0  0  0  0  0
   61.7964   33.7248   50.3906 H   0  0  0  0  0  0  0  0  0  0  0  0
   64.1501   34.0494   49.6310 H   0  0  0  0  0  0  0  0  0  0  0  0
   64.7096   33.9118   47.2064 H   0  0  0  0  0  0  0  0  0  0  0  0
   62.8958   33.6020   45.5255 H   0  0  0  0  0  0  0  0  0  0  0  0
   60.4940   34.0277   45.0936 H   0  0  0  0  0  0  0  0  0  0  0  0
   60.0434   32.4052   45.7310 H   0  0  0  0  0  0  0  0  0  0  0  0
  1  2  1  0
  2  3  2  0
  3  4  1  0
  4  5  2  0
  5  6  1  0
  6  7  1  0
  7  8  1  0
  8  9  1  0
  9 10  1  0
 10 11  2  0
 11 12  1  0
 12 13  2  0
 13 14  1  0
 14 15  2  0
 15 16  1  0
  5 17  1  0
 17  2  1  0
 16  7  1  0
 15 10  1  0
  1 18  1  0
  1 19  1  0
  1 20  1  0
  3 21  1  0
  4 22  1  0
  6 23  1  0
  6 24  1  0
  7 25  1  1
  8 26  1  0
  8 27  1  0
  9 28  1  0
  9 29  1  0
 11 30  1  0
 12 31  1  0
 13 32  1  0
 14 33  1  0
 16 34  1  0
 16 35  1  0
M  CHG  1   7   1
M  END
>  <UniqueID>  (76) 
67

>  <SMILES>  (76) 
Cc1ccc(C[N@H+]2CCc3ccccc3C2)o1

>  <Energy>  (76) 
69.33099998098322

>  <Genealogy>  (76) 
Cc1ccc(C[NH+]2CCc3ccccc3C2)o1 (protonated)
Cc1ccc(C[N@H+]2CCc3ccccc3C2)o1 (chirality)
Cc1ccc(C[N@H+]2CCc3ccccc3C2)o1 (3D coordinates assigned)
Cc1ccc(C[N@H+]2CCc3ccccc3C2)o1 (nonaromatic ring conformer: 69.33099998098322 kcal/mol)

>  <smiles>  (76) 
Cc1ccc(CN2CCc3ccccc3C2)o1

>  <score_type>  (76) 
oracle

>  <origin>  (76) 
adg

>  <m_score__min__energy>  (76) 
-5.3799999999999999

>  <m_primary>  (76) 
energy

$$$$
76:0
     RDKit          3D

 43 45  0  0  0  0  0  0  0  0999 V2000
   59.2310   29.0210   47.5610 C   0  0  0  0  0  0  0  0  0  0  0  0
   59.4510   27.7290   46.8910 N   0  0  0  0  0  0  0  0  0  0  0  0
   58.1960   26.9890   46.6480 C   0  0  0  0  0  0  0  0  0  0  0  0
   57.3630   27.5920   45.5060 C   0  0  0  0  0  0  0  0  0  0  0  0
   58.1860   27.7060   44.2080 C   0  0  0  0  0  0  0  0  0  0  0  0
   57.3710   28.3630   43.1590 N   0  0  0  0  0  0  0  0  0  0  0  0
   56.4440   29.3910   43.6790 C   0  0  0  0  0  0  0  0  0  0  0  0
   57.1510   30.6680   44.0360 C   0  0  0  0  0  0  0  0  0  0  0  0
   57.4800   31.6780   43.1530 C   0  0  0  0  0  0  0  0  0  0  0  0
   58.0940   32.6520   43.9110 C   0  0  0  0  0  0  0  0  0  0  0  0
   58.1000   32.1740   45.2110 C   0  0  0  0  0  0  0  0  0  0  0  0
   58.6210   32.8630   46.4100 C   0  0  0  0  0  0  0  0  0  0  0  0
   58.6420   32.1570   47.6260 C   0  0  0  0  0  0  0  0  0  0  0  0
   59.1090   32.7640   48.7940 C   0  0  0  0  0  0  0  0  0  0  0  0
   59.5730   34.0790   48.7610 C   0  0  0  0  0  0  0  0  0  0  0  0
   59.5820   34.7850   47.5570 C   0  0  0  0  0  0  0  0  0  0  0  0
   59.1170   34.1890   46.3780 C   0  0  0  0  0  0  0  0  0  0  0  0
   59.2690   35.1060   44.8830 Cl  0  0  0  0  0  0  0  0  0  0  0  0
   57.5180   30.9970   45.2520 O   0  0  0  0  0  0  0  0  0  0  0  0
   59.4950   28.4730   44.4910 C   0  0  0  0  0  0  0  0  0  0  0  0
   60.2670   27.8540   45.6670 C   0  0  0  0  0  0  0  0  0  0  0  0
   59.2554   28.8775   48.6513 H   0  0  0  0  0  0  0  0  0  0  0  0
   60.0220   29.7263   47.2662 H   0  0  0  0  0  0  0  0  0  0  0  0
   58.2512   29.4248   47.2662 H   0  0  0  0  0  0  0  0  0  0  0  0
   58.4450   25.9489   46.3906 H   0  0  0  0  0  0  0  0  0  0  0  0
   57.5927   27.0479   47.5659 H   0  0  0  0  0  0  0  0  0  0  0  0
   56.4905   26.9481   45.3210 H   0  0  0  0  0  0  0  0  0  0  0  0
   57.0467   28.6023   45.8048 H   0  0  0  0  0  0  0  0  0  0  0  0
   58.4583   26.7054   43.8410 H   0  0  0  0  0  0  0  0  0  0  0  0
   58.0240   28.8530   42.5020 H   0  0  0  0  0  0  0  0  0  0  0  0
   56.8590   27.6460   42.5940 H   0  0  0  0  0  0  0  0  0  0  0  0
   55.6887   29.6081   42.9094 H   0  0  0  0  0  0  0  0  0  0  0  0
   55.9816   28.9948   44.5951 H   0  0  0  0  0  0  0  0  0  0  0  0
   57.2912   31.7004   42.0696 H   0  0  0  0  0  0  0  0  0  0  0  0
   58.4967   33.6122   43.5561 H   0  0  0  0  0  0  0  0  0  0  0  0
   58.2871   31.1163   47.6576 H   0  0  0  0  0  0  0  0  0  0  0  0
   59.1109   32.2044   49.7410 H   0  0  0  0  0  0  0  0  0  0  0  0
   59.9316   34.5593   49.6833 H   0  0  0  0  0  0  0  0  0  0  0  0
   59.9576   35.8186   47.5339 H   0  0  0  0  0  0  0  0  0  0  0  0
   60.1284   28.4430   43.5922 H   0  0  0  0  0  0  0  0  0  0  0  0
   59.2378   29.5096   44.7542 H   0  0  0  0  0  0  0  0  0  0  0  0
   60.6114   26.8520   45.3715 H   0  0  0  0  0  0  0  0  0  0  0  0
   61.1070   28.5253   45.8988 H   0  0  0  0  0  0  0  0  0  0  0  0
  1  2  1  0
  2  3  1  0
  3  4  1  0
  4  5  1  0
  5  6  1  0
  6  7  1  0
  7  8  1  0
  8  9  2  0
  9 10  1  0
 10 11  2  0
 11 12  1  0
 12 13  2  0
 13 14  1  0
 14 15  2  0
 15 16  1  0
 16 17  2  0
 17 18  1  0
 11 19  1  0
  5 20  1  0
 20 21  1  0
 21  2  1  0
 19  8  1  0
 17 12  1  0
  1 22  1  0
  1 23  1  0
  1 24  1  0
  3 25  1  0
  3 26  1  0
  4 27  1  0
  4 28  1  0
  5 29  1  0
  6 30  1  0
  6 31  1  0
  7 32  1  0
  7 33  1  0
  9 34  1  0
 10 35  1  0
 13 36  1  0
 14 37  1  0
 15 38  1  0
 16 39  1  0
 20 40  1  0
 20 41  1  0
 21 42  1  0
 21 43  1  0
M  CHG  1   6   1
M  END
>  <UniqueID>  (77) 
68

>  <SMILES>  (77) 
CN1CCC([NH2+]Cc2ccc(-c3ccccc3Cl)o2)CC1

>  <Energy>  (77) 
77.64999611096614

>  <Genealogy>  (77) 
CN1CCC([NH2+]Cc2ccc(-c3ccccc3Cl)o2)CC1 (protonated)
CN1CCC([NH2+]Cc2ccc(-c3ccccc3Cl)o2)CC1 (3D coordinates assigned)
CN1CCC([NH2+]Cc2ccc(-c3ccccc3Cl)o2)CC1 (nonaromatic ring conformer: 77.64999611096614 kcal/mol)

>  <smiles>  (77) 
CN1CCC(NCc2ccc(-c3ccccc3Cl)o2)CC1

>  <score_type>  (77) 
oracle

>  <origin>  (77) 
adg

>  <m_score__min__energy>  (77) 
-6.8799999999999999

>  <m_primary>  (77) 
energy

$$$$
77:0
     RDKit          3D

 23 24  0  0  0  0  0  0  0  0999 V2000
   58.1410   26.7500   42.4960 C   0  0  0  0  0  0  0  0  0  0  0  0
   58.1430   26.7380   43.8310 C   0  0  0  0  0  0  0  0  0  0  0  0
   57.6830   27.9270   44.6360 C   0  0  0  0  0  0  0  0  0  0  0  0
   58.0760   29.2010   44.0010 N   0  0  2  0  0  0  0  0  0  0  0  0
   59.0910   29.8650   44.7910 C   0  0  0  0  0  0  0  0  0  0  0  0
   60.2480   29.3970   44.9660 O   0  0  0  0  0  0  0  0  0  0  0  0
   58.6380   31.1420   45.3180 C   0  0  0  0  0  0  0  0  0  0  0  0
   59.2610   32.1010   46.1110 C   0  0  0  0  0  0  0  0  0  0  0  0
   58.5280   33.2580   46.4270 C   0  0  0  0  0  0  0  0  0  0  0  0
   57.2110   33.4090   45.9360 C   0  0  0  0  0  0  0  0  0  0  0  0
   56.6480   32.4380   45.1570 N   0  0  0  0  0  0  0  0  0  0  0  0
   57.3680   31.3260   44.8680 C   0  0  0  0  0  0  0  0  0  0  0  0
   57.0100   30.1780   44.0580 C   0  0  0  0  0  0  0  0  0  0  0  0
   55.9210   30.0610   43.4330 O   0  0  0  0  0  0  0  0  0  0  0  0
   58.4829   25.8661   41.9375 H   0  0  0  0  0  0  0  0  0  0  0  0
   57.7975   27.6438   41.9545 H   0  0  0  0  0  0  0  0  0  0  0  0
   58.4895   25.8366   44.3577 H   0  0  0  0  0  0  0  0  0  0  0  0
   56.5870   27.8956   44.7239 H   0  0  0  0  0  0  0  0  0  0  0  0
   58.1593   27.8759   45.6262 H   0  0  0  0  0  0  0  0  0  0  0  0
   58.4160   29.0780   43.0180 H   0  0  0  0  0  0  0  0  0  0  0  0
   60.2886   31.9589   46.4768 H   0  0  0  0  0  0  0  0  0  0  0  0
   58.9772   34.0425   47.0536 H   0  0  0  0  0  0  0  0  0  0  0  0
   56.6360   34.3137   46.1826 H   0  0  0  0  0  0  0  0  0  0  0  0
  1  2  2  0
  2  3  1  0
  3  4  1  0
  4  5  1  0
  5  6  2  0
  5  7  1  0
  7  8  2  0
  8  9  1  0
  9 10  2  0
 10 11  1  0
 11 12  2  0
 12 13  1  0
 13 14  2  0
 13  4  1  0
 12  7  1  0
  1 15  1  0
  1 16  1  0
  2 17  1  0
  3 18  1  0
  3 19  1  0
  4 20  1  6
  8 21  1  0
  9 22  1  0
 10 23  1  0
M  CHG  1   4   1
M  END
>  <UniqueID>  (78) 
69

>  <SMILES>  (78) 
C=CC[N@@H+]1C(=O)c2cccnc2C1=O

>  <Energy>  (78) 
48.94912019009934

>  <Genealogy>  (78) 
C=CC[NH+]1C(=O)c2cccnc2C1=O (protonated)
C=CC[N@@H+]1C(=O)c2cccnc2C1=O (chirality)
C=CC[N@@H+]1C(=O)c2cccnc2C1=O (3D coordinates assigned)
C=CC[N@@H+]1C(=O)c2cccnc2C1=O (nonaromatic ring conformer: 48.94912019009934 kcal/mol)

>  <smiles>  (78) 
C=CCN1C(=O)c2cccnc2C1=O

>  <score_type>  (78) 
oracle

>  <origin>  (78) 
adg

>  <m_score__min__energy>  (78) 
-4.0899999999999999

>  <m_primary>  (78) 
energy

$$$$
78:0
     RDKit          3D

 19 21  0  0  0  0  0  0  0  0999 V2000
   58.5620   30.1400   47.3410 O   0  0  0  0  0  0  0  0  0  0  0  0
   58.1310   30.8050   46.3630 C   0  0  0  0  0  0  0  0  0  0  0  0
   57.4120   30.2680   45.3010 O   0  0  0  0  0  0  0  0  0  0  0  0
   57.0730   31.2960   44.3580 C   0  0  0  0  0  0  0  0  0  0  0  0
   57.6710   32.5300   44.9690 C   0  0  0  0  0  0  0  0  0  0  0  0
   57.6600   33.8570   44.4950 C   0  0  0  0  0  0  0  0  0  0  0  0
   58.2810   34.8360   45.2320 N   0  0  0  0  0  0  0  0  0  0  0  0
   58.8910   34.5030   46.4070 C   0  0  0  0  0  0  0  0  0  0  0  0
   59.5340   35.3400   47.2340 N   0  0  0  0  0  0  0  0  0  0  0  0
   59.9720   34.5700   48.2590 C   0  0  0  0  0  0  0  0  0  0  0  0
   59.6030   33.2360   48.0790 C   0  0  0  0  0  0  0  0  0  0  0  0
   58.9140   33.2220   46.8880 C   0  0  0  0  0  0  0  0  0  0  0  0
   58.2940   32.2190   46.1580 C   0  0  0  0  0  0  0  0  0  0  0  0
   57.5156   31.0892   43.3725 H   0  0  0  0  0  0  0  0  0  0  0  0
   55.9904   31.3817   44.1827 H   0  0  0  0  0  0  0  0  0  0  0  0
   57.1606   34.1058   43.5470 H   0  0  0  0  0  0  0  0  0  0  0  0
   59.6700   36.3690   47.1150 H   0  0  0  0  0  0  0  0  0  0  0  0
   60.5435   34.9467   49.1201 H   0  0  0  0  0  0  0  0  0  0  0  0
   59.8158   32.3846   48.7422 H   0  0  0  0  0  0  0  0  0  0  0  0
  1  2  2  0
  2  3  1  0
  3  4  1  0
  4  5  1  0
  5  6  2  0
  6  7  1  0
  7  8  2  0
  8  9  1  0
  9 10  1  0
 10 11  2  0
 11 12  1  0
 12 13  2  0
 13  2  1  0
 13  5  1  0
 12  8  1  0
  4 14  1  0
  4 15  1  0
  6 16  1  0
  9 17  1  0
 10 18  1  0
 11 19  1  0
M  END
>  <UniqueID>  (79) 
70

>  <SMILES>  (79) 
O=C1OCc2cnc3[nH]ccc3c21

>  <Energy>  (79) 
81.91073366034571

>  <Genealogy>  (79) 
O=C1OCc2cnc3[nH]ccc3c21 (3D coordinates assigned)
O=C1OCc2cnc3[nH]ccc3c21 (nonaromatic ring conformer: 81.91073366034571 kcal/mol)

>  <smiles>  (79) 
O=C1OCc2cnc3[nH]ccc3c21

>  <score_type>  (79) 
oracle

>  <origin>  (79) 
adg

>  <m_score__min__energy>  (79) 
-5.0099999999999998

>  <m_primary>  (79) 
energy

$$$$
79:0
     RDKit          3D

 46 48  0  0  0  0  0  0  0  0999 V2000
   57.7720   32.2390   41.9640 C   0  0  0  0  0  0  0  0  0  0  0  0
   57.4870   31.9010   43.3590 N   0  0  0  0  0  0  0  0  0  0  0  0
   57.9040   32.7810   44.4230 C   0  0  0  0  0  0  0  0  0  0  0  0
   58.8830   33.7670   44.1950 C   0  0  0  0  0  0  0  0  0  0  0  0
   59.2850   34.6180   45.2300 C   0  0  0  0  0  0  0  0  0  0  0  0
   58.7130   34.4980   46.4980 C   0  0  0  0  0  0  0  0  0  0  0  0
   57.7390   33.5260   46.7360 C   0  0  0  0  0  0  0  0  0  0  0  0
   57.3420   32.6660   45.7080 C   0  0  0  0  0  0  0  0  0  0  0  0
   56.6530   30.4120   43.7150 S   0  0  0  0  0  0  0  0  0  0  0  0
   55.4090   30.6950   44.5110 O   0  0  0  0  0  0  0  0  0  0  0  0
   56.2720   29.7440   42.4240 O   0  0  0  0  0  0  0  0  0  0  0  0
   57.6930   29.3640   44.6750 C   0  0  0  0  0  0  0  0  0  0  0  0
   58.3170   28.2490   44.0990 C   0  0  0  0  0  0  0  0  0  0  0  0
   59.1890   27.4630   44.8580 C   0  0  0  0  0  0  0  0  0  0  0  0
   59.4490   27.7930   46.1900 C   0  0  0  0  0  0  0  0  0  0  0  0
   58.8330   28.9100   46.7710 C   0  0  0  0  0  0  0  0  0  0  0  0
   59.1040   29.2630   48.1290 N   0  0  0  0  0  0  0  0  0  0  0  0
   60.3020   29.9520   48.5140 C   0  0  0  0  0  0  0  0  0  0  0  0
   60.5590   30.2750   50.1020 S   0  0  0  0  0  0  0  0  0  0  0  0
   61.3090   30.2770   47.5390 N   0  0  0  0  0  0  0  0  0  0  0  0
   62.0450   31.5120   47.5220 C   0  0  0  0  0  0  0  0  0  0  0  0
   61.5500   32.5980   46.7850 C   0  0  0  0  0  0  0  0  0  0  0  0
   62.2330   33.8190   46.7770 C   0  0  0  0  0  0  0  0  0  0  0  0
   63.4090   33.9680   47.5160 C   0  0  0  0  0  0  0  0  0  0  0  0
   63.8990   32.8990   48.2710 C   0  0  0  0  0  0  0  0  0  0  0  0
   63.2190   31.6780   48.2800 C   0  0  0  0  0  0  0  0  0  0  0  0
   57.9390   29.6800   46.0170 C   0  0  0  0  0  0  0  0  0  0  0  0
   58.4807   33.0795   41.9278 H   0  0  0  0  0  0  0  0  0  0  0  0
   58.2114   31.3668   41.4578 H   0  0  0  0  0  0  0  0  0  0  0  0
   56.8381   32.5248   41.4578 H   0  0  0  0  0  0  0  0  0  0  0  0
   59.3344   33.8687   43.1971 H   0  0  0  0  0  0  0  0  0  0  0  0
   60.0532   35.3831   45.0445 H   0  0  0  0  0  0  0  0  0  0  0  0
   59.0297   35.1693   47.3098 H   0  0  0  0  0  0  0  0  0  0  0  0
   57.2837   33.4370   47.7334 H   0  0  0  0  0  0  0  0  0  0  0  0
   56.5843   31.8933   45.9051 H   0  0  0  0  0  0  0  0  0  0  0  0
   58.1202   27.9919   43.0477 H   0  0  0  0  0  0  0  0  0  0  0  0
   59.6709   26.5837   44.4057 H   0  0  0  0  0  0  0  0  0  0  0  0
   60.1384   27.1752   46.7842 H   0  0  0  0  0  0  0  0  0  0  0  0
   58.3180   29.2050   48.8140 H   0  0  0  0  0  0  0  0  0  0  0  0
   61.5250   29.5700   46.8030 H   0  0  0  0  0  0  0  0  0  0  0  0
   60.6188   32.4889   46.2096 H   0  0  0  0  0  0  0  0  0  0  0  0
   61.8435   34.6626   46.1882 H   0  0  0  0  0  0  0  0  0  0  0  0
   63.9490   34.9262   47.5036 H   0  0  0  0  0  0  0  0  0  0  0  0
   64.8210   33.0187   48.8589 H   0  0  0  0  0  0  0  0  0  0  0  0
   63.6036   30.8422   48.8829 H   0  0  0  0  0  0  0  0  0  0  0  0
   57.4278   30.5366   46.4806 H   0  0  0  0  0  0  0  0  0  0  0  0
  1  2  1  0
  2  3  1  0
  3  4  2  0
  4  5  1  0
  5  6  2  0
  6  7  1  0
  7  8  2  0
  2  9  1  0
  9 10  2  0
  9 11  2  0
  9 12  1  0
 12 13  2  0
 13 14  1  0
 14 15  2  0
 15 16  1  0
 16 17  1  0
 17 18  1  0
 18 19  2  0
 18 20  1  0
 20 21  1  0
 21 22  2  0
 22 23  1  0
 23 24  2  0
 24 25  1  0
 25 26  2  0
 16 27  2  0
  8  3  1  0
 27 12  1  0
 26 21  1  0
  1 28  1  0
  1 29  1  0
  1 30  1  0
  4 31  1  0
  5 32  1  0
  6 33  1  0
  7 34  1  0
  8 35  1  0
 13 36  1  0
 14 37  1  0
 15 38  1  0
 17 39  1  0
 20 40  1  0
 22 41  1  0
 23 42  1  0
 24 43  1  0
 25 44  1  0
 26 45  1  0
 27 46  1  0
M  END
>  <UniqueID>  (80) 
71

>  <SMILES>  (80) 
CN(c1ccccc1)S(=O)(=O)c1cccc(NC(=S)Nc2ccccc2)c1

>  <Energy>  (80) 
59.64469221025882

>  <Genealogy>  (80) 
CN(c1ccccc1)S(=O)(=O)c1cccc(NC(=S)Nc2ccccc2)c1 (3D coordinates assigned)
CN(c1ccccc1)S(=O)(=O)c1cccc(NC(=S)Nc2ccccc2)c1 (optimized conformer: 59.64469221025882 kcal/mol)

>  <smiles>  (80) 
CN(c1ccccc1)S(=O)(=O)c1cccc(NC(=S)Nc2ccccc2)c1

>  <score_type>  (80) 
oracle

>  <origin>  (80) 
adg

>  <m_score__min__energy>  (80) 
-10.25

>  <m_primary>  (80) 
energy

$$$$
80:0
     RDKit          3D

 42 44  0  0  0  0  0  0  0  0999 V2000
   54.7650   26.3400   45.9940 O   0  0  0  0  0  0  0  0  0  0  0  0
   55.9980   26.0830   46.0660 C   0  0  0  0  0  0  0  0  0  0  0  0
   56.4380   24.7340   46.2810 N   0  0  0  0  0  0  0  0  0  0  0  0
   56.6630   23.7360   45.2770 C   0  0  0  0  0  0  0  0  0  0  0  0
   57.6400   22.7570   45.5090 C   0  0  0  0  0  0  0  0  0  0  0  0
   57.9020   21.7770   44.5470 C   0  0  0  0  0  0  0  0  0  0  0  0
   57.1990   21.7740   43.3410 C   0  0  0  0  0  0  0  0  0  0  0  0
   56.2410   22.7600   43.0890 C   0  0  0  0  0  0  0  0  0  0  0  0
   55.9750   23.7430   44.0480 C   0  0  0  0  0  0  0  0  0  0  0  0
   56.9890   27.1810   45.9800 C   0  0  0  0  0  0  0  0  0  0  0  0
   58.1920   27.1190   46.7050 C   0  0  0  0  0  0  0  0  0  0  0  0
   59.1240   28.1560   46.6210 C   0  0  0  0  0  0  0  0  0  0  0  0
   58.8730   29.2670   45.8130 C   0  0  0  0  0  0  0  0  0  0  0  0
   59.7920   30.2630   45.7600 F   0  0  0  0  0  0  0  0  0  0  0  0
   57.6800   29.3430   45.0750 C   0  0  0  0  0  0  0  0  0  0  0  0
   57.3220   30.7270   44.0370 S   0  0  0  0  0  0  0  0  0  0  0  0
   58.6030   31.1970   43.4080 O   0  0  0  0  0  0  0  0  0  0  0  0
   56.3620   30.3450   42.9440 O   0  0  0  0  0  0  0  0  0  0  0  0
   56.6380   32.0320   44.9680 N   0  0  0  0  0  0  0  0  0  0  0  0
   57.3730   33.2820   44.7590 C   0  0  0  0  0  0  0  0  0  0  0  0
   58.2650   33.5890   45.9320 C   0  0  0  0  0  0  0  0  0  0  0  0
   58.1710   32.8370   47.1160 C   0  0  0  0  0  0  0  0  0  0  0  0
   58.9980   33.1320   48.2040 C   0  0  0  0  0  0  0  0  0  0  0  0
   59.9210   34.1770   48.1190 C   0  0  0  0  0  0  0  0  0  0  0  0
   60.0200   34.9300   46.9460 C   0  0  0  0  0  0  0  0  0  0  0  0
   59.1950   34.6390   45.8550 C   0  0  0  0  0  0  0  0  0  0  0  0
   56.7420   28.3040   45.1690 C   0  0  0  0  0  0  0  0  0  0  0  0
   58.2036   22.7602   46.4536 H   0  0  0  0  0  0  0  0  0  0  0  0
   58.6633   21.0070   44.7407 H   0  0  0  0  0  0  0  0  0  0  0  0
   57.3989   20.9961   42.5894 H   0  0  0  0  0  0  0  0  0  0  0  0
   55.6948   22.7630   42.1342 H   0  0  0  0  0  0  0  0  0  0  0  0
   55.2271   24.5229   43.8419 H   0  0  0  0  0  0  0  0  0  0  0  0
   58.4008   26.2476   47.3430 H   0  0  0  0  0  0  0  0  0  0  0  0
   60.0608   28.0972   47.1945 H   0  0  0  0  0  0  0  0  0  0  0  0
   57.9901   33.1887   43.8532 H   0  0  0  0  0  0  0  0  0  0  0  0
   56.6462   34.1004   44.6492 H   0  0  0  0  0  0  0  0  0  0  0  0
   57.4446   32.0140   47.1867 H   0  0  0  0  0  0  0  0  0  0  0  0
   58.9217   32.5404   49.1282 H   0  0  0  0  0  0  0  0  0  0  0  0
   60.5706   34.4074   48.9763 H   0  0  0  0  0  0  0  0  0  0  0  0
   60.7476   35.7524   46.8808 H   0  0  0  0  0  0  0  0  0  0  0  0
   59.2746   35.2343   44.9334 H   0  0  0  0  0  0  0  0  0  0  0  0
   55.8018   28.3681   44.6017 H   0  0  0  0  0  0  0  0  0  0  0  0
  1  2  2  0
  2  3  1  0
  3  4  1  0
  4  5  2  0
  5  6  1  0
  6  7  2  0
  7  8  1  0
  8  9  2  0
  2 10  1  0
 10 11  2  0
 11 12  1  0
 12 13  2  0
 13 14  1  0
 13 15  1  0
 15 16  1  0
 16 17  2  0
 16 18  2  0
 16 19  1  0
 19 20  1  0
 20 21  1  0
 21 22  2  0
 22 23  1  0
 23 24  2  0
 24 25  1  0
 25 26  2  0
 15 27  2  0
  9  4  1  0
 27 10  1  0
 26 21  1  0
  5 28  1  0
  6 29  1  0
  7 30  1  0
  8 31  1  0
  9 32  1  0
 11 33  1  0
 12 34  1  0
 20 35  1  0
 20 36  1  0
 22 37  1  0
 23 38  1  0
 24 39  1  0
 25 40  1  0
 26 41  1  0
 27 42  1  0
M  CHG  2   3  -1  19  -1
M  END
>  <UniqueID>  (81) 
72

>  <SMILES>  (81) 
O=C([N-]c1ccccc1)c1ccc(F)c(S(=O)(=O)[N-]Cc2ccccc2)c1

>  <Energy>  (81) 
48.79789662068824

>  <Genealogy>  (81) 
O=C([N-]c1ccccc1)c1ccc(F)c(S(=O)(=O)[N-]Cc2ccccc2)c1 (protonated)
O=C([N-]c1ccccc1)c1ccc(F)c(S(=O)(=O)[N-]Cc2ccccc2)c1 (3D coordinates assigned)
O=C([N-]c1ccccc1)c1ccc(F)c(S(=O)(=O)[N-]Cc2ccccc2)c1 (optimized conformer: 48.79789662068824 kcal/mol)

>  <smiles>  (81) 
O=C(Nc1ccccc1)c1ccc(F)c(S(=O)(=O)NCc2ccccc2)c1

>  <score_type>  (81) 
oracle

>  <origin>  (81) 
adg

>  <m_score__min__energy>  (81) 
-11.800000000000001

>  <m_primary>  (81) 
energy

$$$$
81:0
     RDKit          3D

 37 39  0  0  0  0  0  0  0  0999 V2000
   63.5670   33.8840   50.1750 C   0  0  0  0  0  0  0  0  0  0  0  0
   63.1140   33.0750   49.0050 C   0  0  0  0  0  0  0  0  0  0  0  0
   61.8150   32.7140   48.7190 C   0  0  0  0  0  0  0  0  0  0  0  0
   61.8120   32.0640   47.5350 N   0  0  0  0  0  0  0  0  0  0  0  0
   60.6710   31.5100   46.8480 C   0  0  0  0  0  0  0  0  0  0  0  0
   60.7040   30.1960   46.3460 C   0  0  0  0  0  0  0  0  0  0  0  0
   59.5950   29.6620   45.6830 C   0  0  0  0  0  0  0  0  0  0  0  0
   58.4370   30.4280   45.5150 C   0  0  0  0  0  0  0  0  0  0  0  0
   57.0340   29.7530   44.6920 S   0  0  0  0  0  0  0  0  0  0  0  0
   57.4270   29.2300   43.3380 O   0  0  0  0  0  0  0  0  0  0  0  0
   55.9990   30.8300   44.5240 O   0  0  0  0  0  0  0  0  0  0  0  0
   56.3690   28.4740   45.6150 O   0  0  0  0  0  0  0  0  0  0  0  0
   56.9360   27.1970   45.7400 C   0  0  0  0  0  0  0  0  0  0  0  0
   58.3270   26.9720   45.6820 C   0  0  0  0  0  0  0  0  0  0  0  0
   58.8380   25.6780   45.8210 C   0  0  0  0  0  0  0  0  0  0  0  0
   57.9720   24.6000   46.0140 C   0  0  0  0  0  0  0  0  0  0  0  0
   58.4710   23.3460   46.1480 F   0  0  0  0  0  0  0  0  0  0  0  0
   56.5930   24.8130   46.0700 C   0  0  0  0  0  0  0  0  0  0  0  0
   56.0770   26.1060   45.9320 C   0  0  0  0  0  0  0  0  0  0  0  0
   54.7360   26.3010   45.9900 F   0  0  0  0  0  0  0  0  0  0  0  0
   58.3970   31.7380   46.0050 C   0  0  0  0  0  0  0  0  0  0  0  0
   59.5030   32.2760   46.6680 C   0  0  0  0  0  0  0  0  0  0  0  0
   63.1000   32.0550   47.1230 C   0  0  0  0  0  0  0  0  0  0  0  0
   63.9130   32.6730   48.0010 N   0  0  0  0  0  0  0  0  0  0  0  0
   63.2811   33.3735   51.1065 H   0  0  0  0  0  0  0  0  0  0  0  0
   64.6605   33.9985   50.1403 H   0  0  0  0  0  0  0  0  0  0  0  0
   63.0932   34.8761   50.1403 H   0  0  0  0  0  0  0  0  0  0  0  0
   60.9345   32.9194   49.3455 H   0  0  0  0  0  0  0  0  0  0  0  0
   61.6090   29.5844   46.4761 H   0  0  0  0  0  0  0  0  0  0  0  0
   59.6334   28.6347   45.2917 H   0  0  0  0  0  0  0  0  0  0  0  0
   59.0127   27.8180   45.5268 H   0  0  0  0  0  0  0  0  0  0  0  0
   59.9241   25.5090   45.7782 H   0  0  0  0  0  0  0  0  0  0  0  0
   55.9116   23.9631   46.2228 H   0  0  0  0  0  0  0  0  0  0  0  0
   57.4912   32.3468   45.8677 H   0  0  0  0  0  0  0  0  0  0  0  0
   59.4611   33.3058   47.0523 H   0  0  0  0  0  0  0  0  0  0  0  0
   63.4427   31.5976   46.1831 H   0  0  0  0  0  0  0  0  0  0  0  0
   64.9440   32.8140   47.9130 H   0  0  0  0  0  0  0  0  0  0  0  0
  1  2  1  0
  2  3  2  0
  3  4  1  0
  4  5  1  0
  5  6  2  0
  6  7  1  0
  7  8  2  0
  8  9  1  0
  9 10  2  0
  9 11  2  0
  9 12  1  0
 12 13  1  0
 13 14  2  0
 14 15  1  0
 15 16  2  0
 16 17  1  0
 16 18  1  0
 18 19  2  0
 19 20  1  0
  8 21  1  0
 21 22  2  0
  4 23  1  0
 23 24  2  0
 24  2  1  0
 22  5  1  0
 19 13  1  0
  1 25  1  0
  1 26  1  0
  1 27  1  0
  3 28  1  0
  6 29  1  0
  7 30  1  0
 14 31  1  0
 15 32  1  0
 18 33  1  0
 21 34  1  0
 22 35  1  0
 23 36  1  0
 24 37  1  0
M  CHG  1  24   1
M  END
>  <UniqueID>  (82) 
73

>  <SMILES>  (82) 
Cc1cn(-c2ccc(S(=O)(=O)Oc3ccc(F)cc3F)cc2)c[nH+]1

>  <Energy>  (82) 
71.91271871037517

>  <Genealogy>  (82) 
Cc1cn(-c2ccc(S(=O)(=O)Oc3ccc(F)cc3F)cc2)c[nH+]1 (protonated)
Cc1cn(-c2ccc(S(=O)(=O)Oc3ccc(F)cc3F)cc2)c[nH+]1 (3D coordinates assigned)
Cc1cn(-c2ccc(S(=O)(=O)Oc3ccc(F)cc3F)cc2)c[nH+]1 (optimized conformer: 71.91271871037517 kcal/mol)

>  <smiles>  (82) 
Cc1cn(-c2ccc(S(=O)(=O)Oc3ccc(F)cc3F)cc2)cn1

>  <score_type>  (82) 
oracle

>  <origin>  (82) 
adg

>  <m_score__min__energy>  (82) 
-6.5

>  <m_primary>  (82) 
energy

$$$$
82:0
     RDKit          3D

 29 31  0  0  0  0  0  0  0  0999 V2000
   59.3740   34.6560   47.5170 C   0  0  0  0  0  0  0  0  0  0  0  0
   59.6490   35.1080   46.2250 C   0  0  0  0  0  0  0  0  0  0  0  0
   59.1020   34.4480   45.1190 C   0  0  0  0  0  0  0  0  0  0  0  0
   58.2650   33.3360   45.3040 C   0  0  0  0  0  0  0  0  0  0  0  0
   57.7110   32.5990   44.1180 C   0  0  0  0  0  0  0  0  0  0  0  0
   57.1780   31.3110   44.5420 N   0  0  0  0  0  0  0  0  0  0  0  0
   55.9030   30.9710   44.4710 N   0  0  0  0  0  0  0  0  0  0  0  0
   55.7710   29.7170   44.8700 N   0  0  0  0  0  0  0  0  0  0  0  0
   57.0240   29.3160   45.1750 C   0  0  0  0  0  0  0  0  0  0  0  0
   57.3790   27.9730   45.6610 C   0  0  0  0  0  0  0  0  0  0  0  0
   58.7210   27.5830   45.7970 C   0  0  0  0  0  0  0  0  0  0  0  0
   59.0170   26.3000   46.2610 C   0  0  0  0  0  0  0  0  0  0  0  0
   57.9820   25.4220   46.5850 C   0  0  0  0  0  0  0  0  0  0  0  0
   56.6590   25.8420   46.4370 C   0  0  0  0  0  0  0  0  0  0  0  0
   56.3890   27.0950   45.9830 N   0  0  0  0  0  0  0  0  0  0  0  0
   57.9190   30.3020   44.9660 N   0  0  0  0  0  0  0  0  0  0  0  0
   58.0060   32.8770   46.6060 C   0  0  0  0  0  0  0  0  0  0  0  0
   58.5550   33.5400   47.7090 C   0  0  0  0  0  0  0  0  0  0  0  0
   59.8024   35.1789   48.3848 H   0  0  0  0  0  0  0  0  0  0  0  0
   60.2968   35.9845   46.0762 H   0  0  0  0  0  0  0  0  0  0  0  0
   59.3283   34.8012   44.1021 H   0  0  0  0  0  0  0  0  0  0  0  0
   56.9068   33.1944   43.6611 H   0  0  0  0  0  0  0  0  0  0  0  0
   58.5141   32.4359   43.3843 H   0  0  0  0  0  0  0  0  0  0  0  0
   59.5311   28.2815   45.5405 H   0  0  0  0  0  0  0  0  0  0  0  0
   60.0642   25.9818   46.3710 H   0  0  0  0  0  0  0  0  0  0  0  0
   58.2062   24.4099   46.9530 H   0  0  0  0  0  0  0  0  0  0  0  0
   55.8342   25.1588   46.6878 H   0  0  0  0  0  0  0  0  0  0  0  0
   57.3693   31.9932   46.7590 H   0  0  0  0  0  0  0  0  0  0  0  0
   58.3420   33.1828   48.7274 H   0  0  0  0  0  0  0  0  0  0  0  0
  1  2  2  0
  2  3  1  0
  3  4  2  0
  4  5  1  0
  5  6  1  0
  6  7  1  0
  7  8  2  0
  8  9  1  0
  9 10  1  0
 10 11  2  0
 11 12  1  0
 12 13  2  0
 13 14  1  0
 14 15  2  0
  9 16  2  0
  4 17  1  0
 17 18  2  0
 18  1  1  0
 16  6  1  0
 15 10  1  0
  1 19  1  0
  2 20  1  0
  3 21  1  0
  5 22  1  0
  5 23  1  0
 11 24  1  0
 12 25  1  0
 13 26  1  0
 14 27  1  0
 17 28  1  0
 18 29  1  0
M  END
>  <UniqueID>  (83) 
74

>  <SMILES>  (83) 
c1ccc(Cn2nnc(-c3ccccn3)n2)cc1

>  <Energy>  (83) 
68.8339929155168

>  <Genealogy>  (83) 
c1ccc(Cn2nnc(-c3ccccn3)n2)cc1 (3D coordinates assigned)
c1ccc(Cn2nnc(-c3ccccn3)n2)cc1 (optimized conformer: 68.8339929155168 kcal/mol)

>  <smiles>  (83) 
c1ccc(Cn2nnc(-c3ccccn3)n2)cc1

>  <score_type>  (83) 
oracle

>  <origin>  (83) 
adg

>  <m_score__min__energy>  (83) 
-7.79

>  <m_primary>  (83) 
energy

$$$$
83:0
     RDKit          3D

 43 46  0  0  0  0  0  0  0  0999 V2000
   59.2440   30.3070   49.0810 C   0  0  0  0  0  0  0  0  0  0  0  0
   59.5750   31.7300   48.9330 N   0  0  0  0  0  0  0  0  0  0  0  0
   60.5550   32.3190   49.8590 C   0  0  0  0  0  0  0  0  0  0  0  0
   60.3050   33.8140   50.0420 C   0  0  0  0  0  0  0  0  0  0  0  0
   60.3410   34.5240   48.6890 C   0  0  0  0  0  0  0  0  0  0  0  0
   59.3930   33.8810   47.7110 C   0  0  0  0  0  0  0  0  0  0  0  0
   58.9090   34.6350   46.6330 C   0  0  0  0  0  0  0  0  0  0  0  0
   58.0520   34.0610   45.6960 C   0  0  0  0  0  0  0  0  0  0  0  0
   57.6600   32.7200   45.8260 C   0  0  0  0  0  0  0  0  0  0  0  0
   56.7800   32.0990   44.8780 N   0  0  0  0  0  0  0  0  0  0  0  0
   57.0780   30.9530   44.0700 C   0  0  0  0  0  0  0  0  0  0  0  0
   57.0540   31.0780   42.8170 O   0  0  0  0  0  0  0  0  0  0  0  0
   57.4770   29.6550   44.6680 C   0  0  0  0  0  0  0  0  0  0  0  0
   58.8400   29.3580   44.8510 C   0  0  0  0  0  0  0  0  0  0  0  0
   59.2350   28.1400   45.4210 C   0  0  0  0  0  0  0  0  0  0  0  0
   60.5950   27.8500   45.6170 C   0  0  0  0  0  0  0  0  0  0  0  0
   60.9780   26.6330   46.1880 C   0  0  0  0  0  0  0  0  0  0  0  0
   60.0100   25.6990   46.5650 C   0  0  0  0  0  0  0  0  0  0  0  0
   58.6540   25.9750   46.3750 C   0  0  0  0  0  0  0  0  0  0  0  0
   58.2560   27.1940   45.8030 C   0  0  0  0  0  0  0  0  0  0  0  0
   56.8990   27.4820   45.6070 C   0  0  0  0  0  0  0  0  0  0  0  0
   56.5090   28.7020   45.0440 C   0  0  0  0  0  0  0  0  0  0  0  0
   55.1520   28.9650   44.8810 O   0  0  0  0  0  0  0  0  0  0  0  0
   58.1760   31.9500   46.8740 C   0  0  0  0  0  0  0  0  0  0  0  0
   59.0510   32.5150   47.8290 C   0  0  0  0  0  0  0  0  0  0  0  0
   59.1850   30.0535   50.1498 H   0  0  0  0  0  0  0  0  0  0  0  0
   58.2747   30.1043   48.6021 H   0  0  0  0  0  0  0  0  0  0  0  0
   60.0243   29.6973   48.6021 H   0  0  0  0  0  0  0  0  0  0  0  0
   60.4735   31.8185   50.8352 H   0  0  0  0  0  0  0  0  0  0  0  0
   61.5619   32.1810   49.4381 H   0  0  0  0  0  0  0  0  0  0  0  0
   59.3184   33.9636   50.5048 H   0  0  0  0  0  0  0  0  0  0  0  0
   61.0901   34.2330   50.6885 H   0  0  0  0  0  0  0  0  0  0  0  0
   60.0534   35.5765   48.8284 H   0  0  0  0  0  0  0  0  0  0  0  0
   61.3613   34.4510   48.2844 H   0  0  0  0  0  0  0  0  0  0  0  0
   59.2080   35.6881   46.5258 H   0  0  0  0  0  0  0  0  0  0  0  0
   57.6816   34.6611   44.8518 H   0  0  0  0  0  0  0  0  0  0  0  0
   59.6028   30.0886   44.5438 H   0  0  0  0  0  0  0  0  0  0  0  0
   61.3605   28.5822   45.3205 H   0  0  0  0  0  0  0  0  0  0  0  0
   62.0443   26.4102   46.3409 H   0  0  0  0  0  0  0  0  0  0  0  0
   60.3168   24.7425   47.0132 H   0  0  0  0  0  0  0  0  0  0  0  0
   57.8963   25.2358   46.6741 H   0  0  0  0  0  0  0  0  0  0  0  0
   56.1359   26.7448   45.8974 H   0  0  0  0  0  0  0  0  0  0  0  0
   57.8965   30.8893   46.9558 H   0  0  0  0  0  0  0  0  0  0  0  0
  1  2  1  0
  2  3  1  0
  3  4  1  0
  4  5  1  0
  5  6  1  0
  6  7  2  0
  7  8  1  0
  8  9  2  0
  9 10  1  0
 10 11  1  0
 11 12  2  0
 11 13  1  0
 13 14  2  0
 14 15  1  0
 15 16  2  0
 16 17  1  0
 17 18  2  0
 18 19  1  0
 19 20  2  0
 20 21  1  0
 21 22  2  0
 22 23  1  0
  9 24  1  0
 24 25  2  0
 25  2  1  0
 25  6  1  0
 22 13  1  0
 20 15  1  0
  1 26  1  0
  1 27  1  0
  1 28  1  0
  3 29  1  0
  3 30  1  0
  4 31  1  0
  4 32  1  0
  5 33  1  0
  5 34  1  0
  7 35  1  0
  8 36  1  0
 14 37  1  0
 16 38  1  0
 17 39  1  0
 18 40  1  0
 19 41  1  0
 21 42  1  0
 24 43  1  0
M  CHG  2  10  -1  23  -1
M  END
>  <UniqueID>  (84) 
75

>  <SMILES>  (84) 
CN1CCCc2ccc([N-]C(=O)c3cc4ccccc4cc3[O-])cc21

>  <Energy>  (84) 
57.431741581072316

>  <Genealogy>  (84) 
CN1CCCc2ccc([N-]C(=O)c3cc4ccccc4cc3[O-])cc21 (protonated)
CN1CCCc2ccc([N-]C(=O)c3cc4ccccc4cc3[O-])cc21 (3D coordinates assigned)
CN1CCCc2ccc([N-]C(=O)c3cc4ccccc4cc3[O-])cc21 (nonaromatic ring conformer: 57.431741581072316 kcal/mol)

>  <smiles>  (84) 
CN1CCCc2ccc(NC(=O)c3cc4ccccc4cc3O)cc21

>  <score_type>  (84) 
oracle

>  <origin>  (84) 
adg

>  <m_score__min__energy>  (84) 
-14.130000000000001

>  <m_primary>  (84) 
energy

$$$$
84:0
     RDKit          3D

 23 25  0  0  0  0  0  0  0  0999 V2000
   59.2240   25.9650   46.0190 Cl  0  0  0  0  0  0  0  0  0  0  0  0
   58.8760   27.6790   45.8820 C   0  0  0  0  0  0  0  0  0  0  0  0
   59.8500   28.6260   46.2630 C   0  0  0  0  0  0  0  0  0  0  0  0
   59.5670   29.9960   46.1450 C   0  0  0  0  0  0  0  0  0  0  0  0
   58.3420   30.3580   45.6800 N   0  0  0  0  0  0  0  0  0  0  0  0
   57.7760   31.5530   45.4170 C   0  0  0  0  0  0  0  0  0  0  0  0
   58.3770   32.8790   45.6720 C   0  0  0  0  0  0  0  0  0  0  0  0
   58.7060   33.2540   46.9820 C   0  0  0  0  0  0  0  0  0  0  0  0
   59.2940   34.5000   47.2150 C   0  0  0  0  0  0  0  0  0  0  0  0
   59.5580   35.3350   46.1760 N   0  0  0  0  0  0  0  0  0  0  0  0
   59.2690   34.9890   44.8930 C   0  0  0  0  0  0  0  0  0  0  0  0
   58.6800   33.7530   44.6160 C   0  0  0  0  0  0  0  0  0  0  0  0
   56.5490   31.3860   44.8690 N   0  0  0  0  0  0  0  0  0  0  0  0
   56.3190   30.0790   44.7910 N   0  0  0  0  0  0  0  0  0  0  0  0
   57.4130   29.4740   45.2870 C   0  0  0  0  0  0  0  0  0  0  0  0
   57.6350   28.1030   45.3770 C   0  0  0  0  0  0  0  0  0  0  0  0
   60.8244   28.2932   46.6499 H   0  0  0  0  0  0  0  0  0  0  0  0
   60.3146   30.7543   46.4207 H   0  0  0  0  0  0  0  0  0  0  0  0
   58.5027   32.5721   47.8208 H   0  0  0  0  0  0  0  0  0  0  0  0
   59.5437   34.8056   48.2418 H   0  0  0  0  0  0  0  0  0  0  0  0
   59.4995   35.6837   44.0718 H   0  0  0  0  0  0  0  0  0  0  0  0
   58.4552   33.4666   43.5780 H   0  0  0  0  0  0  0  0  0  0  0  0
   56.8682   27.3788   45.0647 H   0  0  0  0  0  0  0  0  0  0  0  0
  1  2  1  0
  2  3  1  0
  3  4  2  0
  4  5  1  0
  5  6  1  0
  6  7  1  0
  7  8  2  0
  8  9  1  0
  9 10  2  0
 10 11  1  0
 11 12  2  0
  6 13  2  0
 13 14  1  0
 14 15  2  0
 15 16  1  0
 16  2  2  0
 15  5  1  0
 12  7  1  0
  3 17  1  0
  4 18  1  0
  8 19  1  0
  9 20  1  0
 11 21  1  0
 12 22  1  0
 16 23  1  0
M  END
>  <UniqueID>  (85) 
76

>  <SMILES>  (85) 
Clc1ccn2c(-c3ccncc3)nnc2c1

>  <Energy>  (85) 
72.51781527589925

>  <Genealogy>  (85) 
Clc1ccn2c(-c3ccncc3)nnc2c1 (3D coordinates assigned)
Clc1ccn2c(-c3ccncc3)nnc2c1 (optimized conformer: 72.51781527589925 kcal/mol)

>  <smiles>  (85) 
Clc1ccn2c(-c3ccncc3)nnc2c1

>  <score_type>  (85) 
oracle

>  <origin>  (85) 
adg

>  <m_score__min__energy>  (85) 
-6.8099999999999996

>  <m_primary>  (85) 
energy

$$$$
85:0
     RDKit          3D

 53 55  0  0  0  0  0  0  0  0999 V2000
   62.7518   30.3423   47.8653 H   0  0  0  0  0  0  0  0  0  0  0  0
   62.2480   31.3020   47.6780 C   0  0  0  0  0  0  0  0  0  0  0  0
   60.9920   31.2840   47.1890 C   0  0  0  0  0  0  0  0  0  0  0  0
   60.3270   29.9860   46.9000 C   0  0  0  0  0  0  0  0  0  0  0  0
   60.9066   29.2004   46.3931 H   0  0  0  0  0  0  0  0  0  0  0  0
   59.0540   29.7300   47.2290 C   0  0  0  0  0  0  0  0  0  0  0  0
   58.4899   30.4748   47.8097 H   0  0  0  0  0  0  0  0  0  0  0  0
   58.3780   28.4520   46.8250 C   0  0  0  0  0  0  0  0  0  0  0  0
   58.9537   27.6021   47.2203 H   0  0  0  0  0  0  0  0  0  0  0  0
   57.3570   28.4559   47.2344 H   0  0  0  0  0  0  0  0  0  0  0  0
   58.2860   28.3260   45.3000 C   0  0  0  0  0  0  0  0  0  0  0  0
   59.2951   28.4056   44.8695 H   0  0  0  0  0  0  0  0  0  0  0  0
   57.8411   27.3511   45.0518 H   0  0  0  0  0  0  0  0  0  0  0  0
   57.4160   29.4160   44.7270 C   0  0  0  0  0  0  0  0  0  0  0  0
   56.3780   29.7080   45.3070 O   0  0  0  0  0  0  0  0  0  0  0  0
   57.7990   30.1140   43.5130 N   0  0  0  0  0  0  0  0  0  0  0  0
   58.4950   29.5450   42.9720 H   0  0  0  0  0  0  0  0  0  0  0  0
   58.4010   31.4220   43.7950 C   0  0  0  0  0  0  0  0  0  0  0  0
   57.9198   31.8808   44.6713 H   0  0  0  0  0  0  0  0  0  0  0  0
   59.4739   31.3262   44.0177 H   0  0  0  0  0  0  0  0  0  0  0  0
   58.1700   32.2800   42.5590 C   0  0  0  0  0  0  0  0  0  0  0  0
   57.9009   33.3066   42.8484 H   0  0  0  0  0  0  0  0  0  0  0  0
   59.0736   32.3494   41.9355 H   0  0  0  0  0  0  0  0  0  0  0  0
   57.0190   31.6180   41.8140 C   0  0  0  0  0  0  0  0  0  0  0  0
   56.1602   32.3022   41.7479 H   0  0  0  0  0  0  0  0  0  0  0  0
   57.2991   31.3536   40.7837 H   0  0  0  0  0  0  0  0  0  0  0  0
   56.6560   30.3860   42.6340 C   0  0  0  0  0  0  0  0  0  0  0  0
   55.7546   30.5814   43.2334 H   0  0  0  0  0  0  0  0  0  0  0  0
   56.4435   29.5253   41.9828 H   0  0  0  0  0  0  0  0  0  0  0  0
   60.2340   32.5610   47.0510 C   0  0  0  0  0  0  0  0  0  0  0  0
   58.9860   32.6240   46.3980 C   0  0  0  0  0  0  0  0  0  0  0  0
   58.5655   31.7178   45.9376 H   0  0  0  0  0  0  0  0  0  0  0  0
   58.2750   33.8330   46.3300 C   0  0  0  0  0  0  0  0  0  0  0  0
   56.9590   33.9000   45.6120 C   0  0  0  0  0  0  0  0  0  0  0  0
   56.1419   33.9416   46.3472 H   0  0  0  0  0  0  0  0  0  0  0  0
   56.9309   34.8007   44.9812 H   0  0  0  0  0  0  0  0  0  0  0  0
   56.8396   33.0068   44.9812 H   0  0  0  0  0  0  0  0  0  0  0  0
   58.8270   34.9930   46.8860 C   0  0  0  0  0  0  0  0  0  0  0  0
   58.2778   35.9443   46.8273 H   0  0  0  0  0  0  0  0  0  0  0  0
   60.0730   34.9460   47.5150 C   0  0  0  0  0  0  0  0  0  0  0  0
   60.5003   35.8600   47.9533 H   0  0  0  0  0  0  0  0  0  0  0  0
   60.7810   33.7390   47.5900 C   0  0  0  0  0  0  0  0  0  0  0  0
   62.0730   33.7020   48.2070 N   0  0  0  0  0  0  0  0  0  0  0  0
   62.4400   34.5730   48.6530 H   0  0  0  0  0  0  0  0  0  0  0  0
   62.9990   32.5850   47.9820 C   0  0  0  0  0  0  0  0  0  0  0  0
   63.9080   32.9240   46.7910 C   0  0  0  0  0  0  0  0  0  0  0  0
   64.8784   33.2859   47.1617 H   0  0  0  0  0  0  0  0  0  0  0  0
   64.0621   32.0229   46.1792 H   0  0  0  0  0  0  0  0  0  0  0  0
   63.4344   33.7060   46.1792 H   0  0  0  0  0  0  0  0  0  0  0  0
   63.8490   32.3790   49.2450 C   0  0  0  0  0  0  0  0  0  0  0  0
   63.2232   32.5307   50.1369 H   0  0  0  0  0  0  0  0  0  0  0  0
   64.2546   31.3565   49.2512 H   0  0  0  0  0  0  0  0  0  0  0  0
   64.6777   33.1023   49.2512 H   0  0  0  0  0  0  0  0  0  0  0  0
  1  2  1  0
  2  3  2  0
  3  4  1  0
  4  5  1  0
  4  6  2  0
  6  7  1  0
  6  8  1  0
  8  9  1  0
  8 10  1  0
  8 11  1  0
 11 12  1  0
 11 13  1  0
 11 14  1  0
 14 15  2  0
 14 16  1  0
 16 17  1  0
 16 18  1  0
 18 19  1  0
 18 20  1  0
 18 21  1  0
 21 22  1  0
 21 23  1  0
 21 24  1  0
 24 25  1  0
 24 26  1  0
 24 27  1  0
 27 28  1  0
 27 29  1  0
  3 30  1  0
 30 31  2  0
 31 32  1  0
 31 33  1  0
 33 34  1  0
 34 35  1  0
 34 36  1  0
 34 37  1  0
 33 38  2  0
 38 39  1  0
 38 40  1  0
 40 41  1  0
 40 42  2  0
 42 43  1  0
 43 44  1  0
 43 45  1  0
 45 46  1  0
 46 47  1  0
 46 48  1  0
 46 49  1  0
 45 50  1  0
 50 51  1  0
 50 52  1  0
 50 53  1  0
 45  2  1  0
 27 16  1  0
 42 30  1  0
M  CHG  1  16   1
M  END
>  <UniqueID>  (86) 
77

>  <SMILES>  (86) 
Cc1ccc2c(c1)C(/C=C/CCC(=O)[NH+]1CCCC1)=CC(C)(C)N2

>  <Energy>  (86) 
53.113007293978605

>  <Genealogy>  (86) 
Cc1ccc2c(c1)C(C=CCCC(=O)[NH+]1CCCC1)=CC(C)(C)N2 (protonated)
Cc1ccc2c(c1)C(/C=C/CCC(=O)[NH+]1CCCC1)=CC(C)(C)N2 (cis-trans isomerization)
Cc1ccc2c(c1)C(/C=C/CCC(=O)[NH+]1CCCC1)=CC(C)(C)N2 (3D coordinates assigned)
Cc1ccc2c(c1)C(/C=C/CCC(=O)[NH+]1CCCC1)=CC(C)(C)N2 (nonaromatic ring conformer: 53.113007293978605 kcal/mol)

>  <smiles>  (86) 
Cc1ccc2c(c1)C(C=CCCC(=O)N1CCCC1)=CC(C)(C)N2

>  <score_type>  (86) 
oracle

>  <origin>  (86) 
adg

>  <m_score__min__energy>  (86) 
-7.2199999999999998

>  <m_primary>  (86) 
energy

$$$$
86:0
     RDKit          3D

 47 49  0  0  0  0  0  0  0  0999 V2000
   59.2730   35.3430   45.2970 C   0  0  0  0  0  0  0  0  0  0  0  0
   58.7580   33.6890   45.6990 S   0  0  0  0  0  0  0  0  0  0  0  0
   58.7080   32.8560   44.4490 O   0  0  0  0  0  0  0  0  0  0  0  0
   57.3850   33.7280   46.3090 O   0  0  0  0  0  0  0  0  0  0  0  0
   59.9020   32.9830   46.8350 C   0  0  0  0  0  0  0  0  0  0  0  0
   60.1260   33.5980   48.0740 C   0  0  0  0  0  0  0  0  0  0  0  0
   61.0160   33.0300   48.9900 C   0  0  0  0  0  0  0  0  0  0  0  0
   61.6940   31.8400   48.6760 C   0  0  0  0  0  0  0  0  0  0  0  0
   62.6110   31.1980   49.6860 C   0  0  0  0  0  0  0  0  0  0  0  0
   61.9070   30.9960   51.0320 C   0  0  0  0  0  0  0  0  0  0  0  0
   61.6460   29.5820   51.2830 N   0  0  0  0  0  0  0  0  0  0  0  0
   60.4050   28.9340   50.9830 C   0  0  0  0  0  0  0  0  0  0  0  0
   59.5860   28.6980   51.9130 O   0  0  0  0  0  0  0  0  0  0  0  0
   60.0860   28.5550   49.5800 C   0  0  0  0  0  0  0  0  0  0  0  0
   60.7550   27.4680   48.9880 C   0  0  0  0  0  0  0  0  0  0  0  0
   60.4910   27.1080   47.7060 N   0  0  0  0  0  0  0  0  0  0  0  0
   59.5830   27.7670   46.9440 C   0  0  0  0  0  0  0  0  0  0  0  0
   59.3470   27.3510   45.6290 C   0  0  0  0  0  0  0  0  0  0  0  0
   58.4150   28.0250   44.8370 C   0  0  0  0  0  0  0  0  0  0  0  0
   57.7140   29.1230   45.3510 C   0  0  0  0  0  0  0  0  0  0  0  0
   56.5290   29.9630   44.3550 S   0  0  0  0  0  0  0  0  0  0  0  0
   56.5000   31.6370   44.7850 N   0  0  0  0  0  0  0  0  0  0  0  0
   56.8940   29.8190   42.9030 O   0  0  0  0  0  0  0  0  0  0  0  0
   55.1660   29.3670   44.5700 O   0  0  0  0  0  0  0  0  0  0  0  0
   57.9400   29.5400   46.6700 C   0  0  0  0  0  0  0  0  0  0  0  0
   58.8780   28.8670   47.4780 C   0  0  0  0  0  0  0  0  0  0  0  0
   59.1350   29.2610   48.8070 C   0  0  0  0  0  0  0  0  0  0  0  0
   58.5080   30.2370   49.3040 O   0  0  0  0  0  0  0  0  0  0  0  0
   61.4560   31.2200   47.4400 C   0  0  0  0  0  0  0  0  0  0  0  0
   60.5660   31.7900   46.5240 C   0  0  0  0  0  0  0  0  0  0  0  0
   59.4489   35.9079   46.2244 H   0  0  0  0  0  0  0  0  0  0  0  0
   60.2019   35.3051   44.7090 H   0  0  0  0  0  0  0  0  0  0  0  0
   58.4868   35.8391   44.7090 H   0  0  0  0  0  0  0  0  0  0  0  0
   59.5999   34.5305   48.3265 H   0  0  0  0  0  0  0  0  0  0  0  0
   61.1865   33.5170   49.9615 H   0  0  0  0  0  0  0  0  0  0  0  0
   62.9371   30.2200   49.3024 H   0  0  0  0  0  0  0  0  0  0  0  0
   63.4730   31.8632   49.8427 H   0  0  0  0  0  0  0  0  0  0  0  0
   62.5470   31.3909   51.8347 H   0  0  0  0  0  0  0  0  0  0  0  0
   60.9451   31.5290   51.0060 H   0  0  0  0  0  0  0  0  0  0  0  0
   61.4993   26.9043   49.5697 H   0  0  0  0  0  0  0  0  0  0  0  0
   59.8967   26.4913   45.2183 H   0  0  0  0  0  0  0  0  0  0  0  0
   58.2307   27.6920   43.8049 H   0  0  0  0  0  0  0  0  0  0  0  0
   56.8390   32.1720   43.9540 H   0  0  0  0  0  0  0  0  0  0  0  0
   57.2100   31.7710   45.5400 H   0  0  0  0  0  0  0  0  0  0  0  0
   57.3824   30.3968   47.0763 H   0  0  0  0  0  0  0  0  0  0  0  0
   61.9719   30.2811   47.1903 H   0  0  0  0  0  0  0  0  0  0  0  0
   60.3870   31.2994   45.5559 H   0  0  0  0  0  0  0  0  0  0  0  0
  1  2  1  0
  2  3  2  0
  2  4  2  0
  2  5  1  0
  5  6  2  0
  6  7  1  0
  7  8  2  0
  8  9  1  0
  9 10  1  0
 10 11  1  0
 11 12  1  0
 12 13  2  0
 12 14  1  0
 14 15  2  0
 15 16  1  0
 16 17  1  0
 17 18  2  0
 18 19  1  0
 19 20  2  0
 20 21  1  0
 21 22  1  0
 21 23  2  0
 21 24  2  0
 20 25  1  0
 25 26  2  0
 26 27  1  0
 27 28  2  0
  8 29  1  0
 29 30  2  0
 30  5  1  0
 27 14  1  0
 26 17  1  0
  1 31  1  0
  1 32  1  0
  1 33  1  0
  6 34  1  0
  7 35  1  0
  9 36  1  0
  9 37  1  0
 10 38  1  0
 10 39  1  0
 15 40  1  0
 18 41  1  0
 19 42  1  0
 22 43  1  0
 22 44  1  0
 25 45  1  0
 29 46  1  0
 30 47  1  0
M  CHG  2  11  -1  16  -1
M  END
>  <UniqueID>  (87) 
78

>  <SMILES>  (87) 
CS(=O)(=O)c1ccc(CC[N-]C(=O)c2c[n-]c3ccc(S(N)(=O)=O)cc3c2=O)cc1

>  <Energy>  (87) 
47.77624739182379

>  <Genealogy>  (87) 
CS(=O)(=O)c1ccc(CC[N-]C(=O)c2c[n-]c3ccc(S(N)(=O)=O)cc3c2=O)cc1 (protonated)
CS(=O)(=O)c1ccc(CC[N-]C(=O)c2c[n-]c3ccc(S(N)(=O)=O)cc3c2=O)cc1 (3D coordinates assigned)
CS(=O)(=O)c1ccc(CC[N-]C(=O)c2c[n-]c3ccc(S(N)(=O)=O)cc3c2=O)cc1 (optimized conformer: 47.77624739182379 kcal/mol)

>  <smiles>  (87) 
CS(=O)(=O)c1ccc(CCNC(=O)c2c[nH]c3ccc(S(N)(=O)=O)cc3c2=O)cc1

>  <score_type>  (87) 
oracle

>  <origin>  (87) 
adg

>  <m_score__min__energy>  (87) 
-12.31

>  <m_primary>  (87) 
energy

$$$$
87:0
     RDKit          3D

 36 38  0  0  1  0  0  0  0  0999 V2000
   56.8510   25.6570   46.9210 O   0  0  0  0  0  0  0  0  0  0  0  0
   56.3610   26.5450   46.1550 C   0  0  0  0  0  0  0  0  0  0  0  0
   54.9990   26.4530   45.9160 O   0  0  0  0  0  0  0  0  0  0  0  0
   57.2050   27.5900   45.5750 C   0  0  0  0  0  0  0  0  0  0  0  0
   58.5940   27.5590   45.6830 C   0  0  0  0  0  0  0  0  0  0  0  0
   59.3330   28.5940   45.0990 C   0  0  0  0  0  0  0  0  0  0  0  0
   58.7210   29.6260   44.4300 C   0  0  0  0  0  0  0  0  0  0  0  0
   57.3300   29.6650   44.3170 C   0  0  0  0  0  0  0  0  0  0  0  0
   56.6370   30.7640   43.5990 C   0  0  0  0  0  0  0  0  0  0  0  0
   57.5040   32.3250   43.6390 S   0  0  0  0  0  0  0  0  0  0  0  0
   57.8720   32.7180   45.3390 C   0  0  0  0  0  0  0  0  0  0  0  0
   57.5190   32.6650   46.4350 N   0  0  0  0  0  0  0  0  0  0  0  0
   58.0640   33.0760   47.5350 N   0  0  0  0  0  0  0  0  0  0  0  0
   59.2290   33.6680   47.4340 C   0  0  0  0  0  0  0  0  0  0  0  0
   60.0680   34.1930   48.2110 N   0  0  0  0  0  0  0  0  0  0  0  0
   61.3800   33.7090   48.4620 C   0  0  0  0  0  0  0  0  0  0  0  0
   62.2910   34.3650   49.2670 C   0  0  0  0  0  0  0  0  0  0  0  0
   63.5590   33.8330   49.4610 C   0  0  0  0  0  0  0  0  0  0  0  0
   63.9700   32.6520   48.8740 C   0  0  0  0  0  0  0  0  0  0  0  0
   63.0210   32.0150   48.0650 C   0  0  0  0  0  0  0  0  0  0  0  0
   61.7640   32.5300   47.8650 C   0  0  0  0  0  0  0  0  0  0  0  0
   59.5370   33.6080   45.5690 S   0  0  0  0  0  0  0  0  0  0  0  0
   56.6140   28.6350   44.9010 C   0  0  0  0  0  0  0  0  0  0  0  0
   54.3580   27.1010   46.3680 H   0  0  0  0  0  0  0  0  0  0  0  0
   59.0983   26.7392   46.2155 H   0  0  0  0  0  0  0  0  0  0  0  0
   60.4301   28.5809   45.1775 H   0  0  0  0  0  0  0  0  0  0  0  0
   59.3295   30.4251   43.9814 H   0  0  0  0  0  0  0  0  0  0  0  0
   56.5130   30.4650   42.5477 H   0  0  0  0  0  0  0  0  0  0  0  0
   55.6774   30.9219   44.1130 H   0  0  0  0  0  0  0  0  0  0  0  0
   57.5820   32.9390   48.4840 H   0  0  0  0  0  0  0  0  0  0  0  0
   62.0116   35.3103   49.7551 H   0  0  0  0  0  0  0  0  0  0  0  0
   64.2648   34.3740   50.1084 H   0  0  0  0  0  0  0  0  0  0  0  0
   64.9772   32.2389   49.0318 H   0  0  0  0  0  0  0  0  0  0  0  0
   63.2919   31.0693   47.5727 H   0  0  0  0  0  0  0  0  0  0  0  0
   61.0542   31.9928   47.2187 H   0  0  0  0  0  0  0  0  0  0  0  0
   55.5169   28.6519   44.8228 H   0  0  0  0  0  0  0  0  0  0  0  0
  1  2  2  0
  2  3  1  0
  2  4  1  0
  4  5  2  0
  5  6  1  0
  6  7  2  0
  7  8  1  0
  8  9  1  0
  9 10  1  0
 10 11  1  0
 11 12  2  0
 12 13  1  0
 13 14  1  0
 14 15  2  0
 15 16  1  0
 16 17  2  0
 17 18  1  0
 18 19  2  0
 19 20  1  0
 20 21  2  0
 14 22  1  0
  8 23  2  0
 23  4  1  0
 22 11  1  0
 21 16  1  0
  3 24  1  0
  5 25  1  0
  6 26  1  0
  7 27  1  0
  9 28  1  0
  9 29  1  0
 13 30  1  0
 17 31  1  0
 18 32  1  0
 19 33  1  0
 20 34  1  0
 21 35  1  0
 23 36  1  0
M  END
>  <smiles>  (88) 
O=C(O)c1cccc(CSc2n[nH]c(=Nc3ccccc3)s2)c1

>  <score_type>  (88) 
oracle

>  <origin>  (88) 
adg

>  <m_score__min__energy>  (88) 
-9.4900000000000002

>  <m_primary>  (88) 
energy

$$$$
88:0
     RDKit          3D

 30 31  0  0  0  0  0  0  0  0999 V2000
   57.3840   34.5490   44.8840 C   0  0  0  0  0  0  0  0  0  0  0  0
   57.4210   33.9530   46.1770 O   0  0  0  0  0  0  0  0  0  0  0  0
   58.5560   33.3510   46.7480 C   0  0  0  0  0  0  0  0  0  0  0  0
   59.3010   33.9980   47.7530 C   0  0  0  0  0  0  0  0  0  0  0  0
   60.4140   33.3750   48.3220 C   0  0  0  0  0  0  0  0  0  0  0  0
   61.3500   34.2100   49.6050 S   0  0  0  0  0  0  0  0  0  0  0  0
   62.9590   33.8460   48.8370 C   0  0  0  0  0  0  0  0  0  0  0  0
   60.7940   32.1030   47.8980 C   0  0  0  0  0  0  0  0  0  0  0  0
   60.0720   31.4440   46.8990 C   0  0  0  0  0  0  0  0  0  0  0  0
   60.6670   29.8730   46.3640 Cl  0  0  0  0  0  0  0  0  0  0  0  0
   58.9420   32.0620   46.3140 C   0  0  0  0  0  0  0  0  0  0  0  0
   58.1610   31.3780   45.2570 C   0  0  0  0  0  0  0  0  0  0  0  0
   57.3620   30.3210   45.5680 N   0  0  0  0  0  0  0  0  0  0  0  0
   56.6290   29.6890   44.6160 C   0  0  0  0  0  0  0  0  0  0  0  0
   56.6820   30.1280   43.2900 C   0  0  0  0  0  0  0  0  0  0  0  0
   55.9180   29.4780   42.2700 N   0  0  0  0  0  0  0  0  0  0  0  0
   57.5030   31.2170   42.9870 C   0  0  0  0  0  0  0  0  0  0  0  0
   58.2200   31.8180   43.9710 N   0  0  0  0  0  0  0  0  0  0  0  0
   57.3161   35.6422   44.9860 H   0  0  0  0  0  0  0  0  0  0  0  0
   58.3001   34.2882   44.3337 H   0  0  0  0  0  0  0  0  0  0  0  0
   56.5072   34.1769   44.3337 H   0  0  0  0  0  0  0  0  0  0  0  0
   59.0041   35.0014   48.0923 H   0  0  0  0  0  0  0  0  0  0  0  0
   63.7101   33.6761   49.6224 H   0  0  0  0  0  0  0  0  0  0  0  0
   62.8716   32.9449   48.2121 H   0  0  0  0  0  0  0  0  0  0  0  0
   63.2679   34.6970   48.2121 H   0  0  0  0  0  0  0  0  0  0  0  0
   61.6683   31.6142   48.3527 H   0  0  0  0  0  0  0  0  0  0  0  0
   55.9943   28.8327   44.8877 H   0  0  0  0  0  0  0  0  0  0  0  0
   55.3970   28.5980   42.4750 H   0  0  0  0  0  0  0  0  0  0  0  0
   55.8690   29.8760   41.3050 H   0  0  0  0  0  0  0  0  0  0  0  0
   57.5684   31.5869   41.9531 H   0  0  0  0  0  0  0  0  0  0  0  0
  1  2  1  0
  2  3  1  0
  3  4  2  0
  4  5  1  0
  5  6  1  0
  6  7  1  0
  5  8  2  0
  8  9  1  0
  9 10  1  0
  9 11  2  0
 11 12  1  0
 12 13  2  0
 13 14  1  0
 14 15  2  0
 15 16  1  0
 15 17  1  0
 17 18  2  0
 11  3  1  0
 18 12  1  0
  1 19  1  0
  1 20  1  0
  1 21  1  0
  4 22  1  0
  7 23  1  0
  7 24  1  0
  7 25  1  0
  8 26  1  0
 14 27  1  0
 16 28  1  0
 16 29  1  0
 17 30  1  0
M  END
>  <UniqueID>  (89) 
79

>  <SMILES>  (89) 
COc1cc(SC)cc(Cl)c1-c1ncc(N)cn1

>  <Energy>  (89) 
32.515261286403266

>  <Genealogy>  (89) 
COc1cc(SC)cc(Cl)c1-c1ncc(N)cn1 (3D coordinates assigned)
COc1cc(SC)cc(Cl)c1-c1ncc(N)cn1 (optimized conformer: 32.515261286403266 kcal/mol)

>  <smiles>  (89) 
COc1cc(SC)cc(Cl)c1-c1ncc(N)cn1

>  <score_type>  (89) 
oracle

>  <origin>  (89) 
adg

>  <m_score__min__energy>  (89) 
-5.9900000000000002

>  <m_primary>  (89) 
energy

$$$$
89:0
     RDKit          3D

 30 31  0  0  0  0  0  0  0  0999 V2000
   58.7490   33.3050   45.9160 C   0  0  0  0  0  0  0  0  0  0  0  0
   58.0800   32.5540   44.8140 C   0  0  0  0  0  0  0  0  0  0  0  0
   57.3990   31.3600   44.9510 C   0  0  0  0  0  0  0  0  0  0  0  0
   57.0480   31.0230   43.6590 C   0  0  0  0  0  0  0  0  0  0  0  0
   56.3550   29.7490   43.2470 C   0  0  0  0  0  0  0  0  0  0  0  0
   57.2930   28.6210   43.1590 N   0  0  0  0  0  0  0  0  0  0  0  0
   57.6770   28.1680   44.4640 C   0  0  0  0  0  0  0  0  0  0  0  0
   58.8560   28.1510   45.1870 C   0  0  0  0  0  0  0  0  0  0  0  0
   60.2560   28.5880   44.9240 C   0  0  0  0  0  0  0  0  0  0  0  0
   58.2160   27.4910   46.2170 C   0  0  0  0  0  0  0  0  0  0  0  0
   58.5650   27.0450   47.3410 O   0  0  0  0  0  0  0  0  0  0  0  0
   57.0370   27.5140   45.5010 C   0  0  0  0  0  0  0  0  0  0  0  0
   55.8660   27.0980   45.7000 O   0  0  0  0  0  0  0  0  0  0  0  0
   57.5200   31.9700   42.8200 N   0  0  0  0  0  0  0  0  0  0  0  0
   57.4040   31.9930   41.3660 C   0  0  0  0  0  0  0  0  0  0  0  0
   58.1570   32.9000   43.5140 N   0  0  0  0  0  0  0  0  0  0  0  0
   58.4039   32.9176   46.8859 H   0  0  0  0  0  0  0  0  0  0  0  0
   59.8388   33.1781   45.8373 H   0  0  0  0  0  0  0  0  0  0  0  0
   58.4975   34.3730   45.8373 H   0  0  0  0  0  0  0  0  0  0  0  0
   57.1855   30.8053   45.8766 H   0  0  0  0  0  0  0  0  0  0  0  0
   55.5791   29.5097   43.9891 H   0  0  0  0  0  0  0  0  0  0  0  0
   55.9148   29.9060   42.2512 H   0  0  0  0  0  0  0  0  0  0  0  0
   56.8260   27.8270   42.6620 H   0  0  0  0  0  0  0  0  0  0  0  0
   58.1480   28.8960   42.6220 H   0  0  0  0  0  0  0  0  0  0  0  0
   60.7753   28.7501   45.8801 H   0  0  0  0  0  0  0  0  0  0  0  0
   60.7808   27.8109   44.3489 H   0  0  0  0  0  0  0  0  0  0  0  0
   60.2455   29.5256   44.3489 H   0  0  0  0  0  0  0  0  0  0  0  0
   56.3609   32.1998   41.0846 H   0  0  0  0  0  0  0  0  0  0  0  0
   58.0565   32.7793   40.9585 H   0  0  0  0  0  0  0  0  0  0  0  0
   57.7071   31.0173   40.9585 H   0  0  0  0  0  0  0  0  0  0  0  0
  1  2  1  0
  2  3  1  0
  3  4  2  0
  4  5  1  0
  5  6  1  0
  6  7  1  0
  7  8  2  0
  8  9  1  0
  8 10  1  0
 10 11  2  0
 10 12  1  0
 12 13  2  0
  4 14  1  0
 14 15  1  0
 14 16  1  0
 16  2  2  0
 12  7  1  0
  1 17  1  0
  1 18  1  0
  1 19  1  0
  3 20  1  0
  5 21  1  0
  5 22  1  0
  6 23  1  0
  6 24  1  0
  9 25  1  0
  9 26  1  0
  9 27  1  0
 15 28  1  0
 15 29  1  0
 15 30  1  0
M  CHG  1   6   1
M  END
>  <UniqueID>  (90) 
80

>  <SMILES>  (90) 
Cc1cc(C[NH2+]c2c(C)c(=O)c2=O)n(C)n1

>  <Energy>  (90) 
45.131648399124295

>  <Genealogy>  (90) 
Cc1cc(C[NH2+]c2c(C)c(=O)c2=O)n(C)n1 (protonated)
Cc1cc(C[NH2+]c2c(C)c(=O)c2=O)n(C)n1 (3D coordinates assigned)
Cc1cc(C[NH2+]c2c(C)c(=O)c2=O)n(C)n1 (optimized conformer: 45.131648399124295 kcal/mol)

>  <smiles>  (90) 
Cc1cc(CNc2c(C)c(=O)c2=O)n(C)n1

>  <score_type>  (90) 
oracle

>  <origin>  (90) 
adg

>  <m_score__min__energy>  (90) 
-5.0099999999999998

>  <m_primary>  (90) 
energy

$$$$
90:0
     RDKit          3D

 62 64  0  0  0  0  0  0  0  0999 V2000
   55.9420   29.7250   43.4170 C   0  0  0  0  0  0  0  0  0  0  0  0
   57.0830   30.6370   43.8580 C   0  0  0  0  0  0  0  0  0  0  0  0
   57.3720   30.4650   45.2470 O   0  0  0  0  0  0  0  0  0  0  0  0
   58.5230   30.9240   45.9120 C   0  0  0  0  0  0  0  0  0  0  0  0
   58.6370   32.2420   46.3950 C   0  0  0  0  0  0  0  0  0  0  0  0
   59.8130   32.6860   47.0290 C   0  0  0  0  0  0  0  0  0  0  0  0
   59.9240   34.0370   47.5240 N   0  0  0  0  0  0  0  0  0  0  0  0
   59.6410   35.2210   46.7180 C   0  0  0  0  0  0  0  0  0  0  0  0
   60.8830   31.7830   47.1910 C   0  0  0  0  0  0  0  0  0  0  0  0
   62.1180   32.2040   47.7890 N   0  0  0  0  0  0  0  0  0  0  0  0
   62.5790   31.5530   49.0170 C   0  0  0  0  0  0  0  0  0  0  0  0
   63.9770   32.0530   49.4070 C   0  0  0  0  0  0  0  0  0  0  0  0
   64.0930   33.5210   49.2910 N   0  0  0  0  0  0  0  0  0  0  0  0
   63.3650   34.2130   50.3680 C   0  0  0  0  0  0  0  0  0  0  0  0
   63.7420   34.0580   47.9480 C   0  0  0  0  0  0  0  0  0  0  0  0
   63.0350   33.0490   47.0230 C   0  0  0  0  0  0  0  0  0  0  0  0
   60.7610   30.4650   46.7350 C   0  0  0  0  0  0  0  0  0  0  0  0
   59.5920   30.0320   46.1000 C   0  0  0  0  0  0  0  0  0  0  0  0
   59.4840   28.3680   45.5100 S   0  0  0  0  0  0  0  0  0  0  0  0
   60.2600   27.4800   46.4420 O   0  0  0  0  0  0  0  0  0  0  0  0
   60.0660   28.2510   44.1300 O   0  0  0  0  0  0  0  0  0  0  0  0
   57.8280   27.8490   45.4680 N   0  0  0  0  0  0  0  0  0  0  0  0
   57.4380   26.4790   45.2480 C   0  0  0  0  0  0  0  0  0  0  0  0
   56.8950   25.7160   46.3010 C   0  0  0  0  0  0  0  0  0  0  0  0
   56.5380   24.3740   46.1080 C   0  0  0  0  0  0  0  0  0  0  0  0
   56.0060   23.5540   47.2470 C   0  0  0  0  0  0  0  0  0  0  0  0
   56.7230   23.7870   44.8530 C   0  0  0  0  0  0  0  0  0  0  0  0
   57.2330   24.5360   43.7930 C   0  0  0  0  0  0  0  0  0  0  0  0
   57.5930   25.8820   43.9740 C   0  0  0  0  0  0  0  0  0  0  0  0
   58.1470   26.6570   42.8090 C   0  0  0  0  0  0  0  0  0  0  0  0
   55.4337   29.3187   44.3039 H   0  0  0  0  0  0  0  0  0  0  0  0
   55.2241   30.3010   42.8146 H   0  0  0  0  0  0  0  0  0  0  0  0
   56.3456   28.8978   42.8146 H   0  0  0  0  0  0  0  0  0  0  0  0
   57.9821   30.3967   43.2716 H   0  0  0  0  0  0  0  0  0  0  0  0
   56.7800   31.6812   43.6910 H   0  0  0  0  0  0  0  0  0  0  0  0
   57.7925   32.9366   46.2748 H   0  0  0  0  0  0  0  0  0  0  0  0
   60.2340   34.2030   48.5070 H   0  0  0  0  0  0  0  0  0  0  0  0
   59.4368   36.0752   47.3803 H   0  0  0  0  0  0  0  0  0  0  0  0
   60.5100   35.4487   46.0832 H   0  0  0  0  0  0  0  0  0  0  0  0
   58.7629   35.0311   46.0832 H   0  0  0  0  0  0  0  0  0  0  0  0
   61.8749   31.7792   49.8313 H   0  0  0  0  0  0  0  0  0  0  0  0
   62.6282   30.4678   48.8438 H   0  0  0  0  0  0  0  0  0  0  0  0
   64.1804   31.7620   50.4481 H   0  0  0  0  0  0  0  0  0  0  0  0
   64.7042   31.5996   48.7173 H   0  0  0  0  0  0  0  0  0  0  0  0
   63.7335   33.8628   51.3435 H   0  0  0  0  0  0  0  0  0  0  0  0
   63.5277   35.2975   50.2825 H   0  0  0  0  0  0  0  0  0  0  0  0
   62.2901   33.9956   50.2825 H   0  0  0  0  0  0  0  0  0  0  0  0
   63.0761   34.9225   48.0866 H   0  0  0  0  0  0  0  0  0  0  0  0
   64.6909   34.3212   47.4578 H   0  0  0  0  0  0  0  0  0  0  0  0
   62.4671   33.5971   46.2568 H   0  0  0  0  0  0  0  0  0  0  0  0
   63.7943   32.4098   46.5487 H   0  0  0  0  0  0  0  0  0  0  0  0
   61.5944   29.7613   46.8777 H   0  0  0  0  0  0  0  0  0  0  0  0
   57.1060   28.6020   45.5040 H   0  0  0  0  0  0  0  0  0  0  0  0
   56.7493   26.1796   47.2878 H   0  0  0  0  0  0  0  0  0  0  0  0
   56.3044   24.0139   48.2006 H   0  0  0  0  0  0  0  0  0  0  0  0
   54.9084   23.5124   47.1876 H   0  0  0  0  0  0  0  0  0  0  0  0
   56.4153   22.5347   47.1876 H   0  0  0  0  0  0  0  0  0  0  0  0
   56.4649   22.7286   44.7007 H   0  0  0  0  0  0  0  0  0  0  0  0
   57.3547   24.0682   42.8049 H   0  0  0  0  0  0  0  0  0  0  0  0
   58.7489   27.4990   43.1817 H   0  0  0  0  0  0  0  0  0  0  0  0
   58.7792   25.9970   42.1969 H   0  0  0  0  0  0  0  0  0  0  0  0
   57.3179   27.0416   42.1969 H   0  0  0  0  0  0  0  0  0  0  0  0
  1  2  1  0
  2  3  1  0
  3  4  1  0
  4  5  2  0
  5  6  1  0
  6  7  1  0
  7  8  1  0
  6  9  2  0
  9 10  1  0
 10 11  1  0
 11 12  1  0
 12 13  1  0
 13 14  1  0
 13 15  1  0
 15 16  1  0
  9 17  1  0
 17 18  2  0
 18 19  1  0
 19 20  2  0
 19 21  2  0
 19 22  1  0
 22 23  1  0
 23 24  2  0
 24 25  1  0
 25 26  1  0
 25 27  2  0
 27 28  1  0
 28 29  2  0
 29 30  1  0
 18  4  1  0
 29 23  1  0
 16 10  1  0
  1 31  1  0
  1 32  1  0
  1 33  1  0
  2 34  1  0
  2 35  1  0
  5 36  1  0
  7 37  1  0
  8 38  1  0
  8 39  1  0
  8 40  1  0
 11 41  1  0
 11 42  1  0
 12 43  1  0
 12 44  1  0
 14 45  1  0
 14 46  1  0
 14 47  1  0
 15 48  1  0
 15 49  1  0
 16 50  1  0
 16 51  1  0
 17 52  1  0
 22 53  1  0
 24 54  1  0
 26 55  1  0
 26 56  1  0
 26 57  1  0
 27 58  1  0
 28 59  1  0
 30 60  1  0
 30 61  1  0
 30 62  1  0
M  END
>  <UniqueID>  (91) 
81

>  <SMILES>  (91) 
CCOc1cc(NC)c(N2CCN(C)CC2)cc1S(=O)(=O)Nc1cc(C)ccc1C

>  <Energy>  (91) 
72.4799283293532

>  <Genealogy>  (91) 
CCOc1cc(NC)c(N2CCN(C)CC2)cc1S(=O)(=O)Nc1cc(C)ccc1C (3D coordinates assigned)
CCOc1cc(NC)c(N2CCN(C)CC2)cc1S(=O)(=O)Nc1cc(C)ccc1C (nonaromatic ring conformer: 72.4799283293532 kcal/mol)

>  <smiles>  (91) 
CCOc1cc(NC)c(N2CCN(C)CC2)cc1S(=O)(=O)Nc1cc(C)ccc1C

>  <score_type>  (91) 
oracle

>  <origin>  (91) 
adg

>  <m_score__min__energy>  (91) 
-8.5600000000000005

>  <m_primary>  (91) 
energy

$$$$
91:0
     RDKit          3D

 40 43  0  0  1  0  0  0  0  0999 V2000
   57.4250   31.1970   44.1590 C   0  0  0  0  0  0  0  0  0  0  0  0
   57.1130   32.0570   45.2150 O   0  0  0  0  0  0  0  0  0  0  0  0
   57.4960   33.3820   45.2360 C   0  0  0  0  0  0  0  0  0  0  0  0
   57.0280   34.2650   44.4880 O   0  0  0  0  0  0  0  0  0  0  0  0
   58.4870   33.7680   46.1710 N   0  0  0  0  0  0  0  0  0  0  0  0
   58.3900   33.4440   47.6040 C   0  0  0  0  0  0  0  0  0  0  0  0
   59.2680   34.4720   48.3420 C   0  0  0  0  0  0  0  0  0  0  0  0
   60.6820   34.0370   48.0900 C   0  0  0  0  0  0  0  0  0  0  0  0
   60.8590   34.1850   46.6660 C   0  0  0  0  0  0  0  0  0  0  0  0
   62.5690   33.8330   46.3110 S   0  0  0  0  0  0  0  0  0  0  0  0
   62.9490   33.5110   47.9970 C   0  0  0  0  0  0  0  0  0  0  0  0
   64.1630   33.1610   48.4080 N   0  0  0  0  0  0  0  0  0  0  0  0
   64.3530   32.9180   49.7160 C   0  0  0  0  0  0  0  0  0  0  0  0
   63.3040   33.0420   50.5020 N   0  0  0  0  0  0  0  0  0  0  0  0
   62.0460   33.4010   50.0860 C   0  0  0  0  0  0  0  0  0  0  0  0
   61.1680   33.3540   50.8860 N   0  0  0  0  0  0  0  0  0  0  0  0
   59.9660   32.9270   51.1080 C   0  0  0  0  0  0  0  0  0  0  0  0
   59.1110   33.5970   52.0360 C   0  0  0  0  0  0  0  0  0  0  0  0
   57.8820   33.0410   52.3570 C   0  0  0  0  0  0  0  0  0  0  0  0
   57.4290   31.8580   51.8230 C   0  0  0  0  0  0  0  0  0  0  0  0
   55.8820   31.2130   52.2640 Cl  0  0  0  0  0  0  0  0  0  0  0  0
   58.2540   31.2110   50.9270 C   0  0  0  0  0  0  0  0  0  0  0  0
   59.4910   31.7030   50.5590 C   0  0  0  0  0  0  0  0  0  0  0  0
   60.2630   31.0250   49.6720 F   0  0  0  0  0  0  0  0  0  0  0  0
   61.8030   33.6790   48.7240 C   0  0  0  0  0  0  0  0  0  0  0  0
   59.6890   34.5160   45.8000 C   0  0  0  0  0  0  0  0  0  0  0  0
   57.7742   30.2345   44.5609 H   0  0  0  0  0  0  0  0  0  0  0  0
   56.5289   31.0334   43.5423 H   0  0  0  0  0  0  0  0  0  0  0  0
   58.2175   31.6460   43.5423 H   0  0  0  0  0  0  0  0  0  0  0  0
   57.3462   33.5226   47.9421 H   0  0  0  0  0  0  0  0  0  0  0  0
   58.7256   32.4158   47.8042 H   0  0  0  0  0  0  0  0  0  0  0  0
   59.0983   35.4822   47.9412 H   0  0  0  0  0  0  0  0  0  0  0  0
   59.0365   34.5133   49.4166 H   0  0  0  0  0  0  0  0  0  0  0  0
   64.9920   33.0590   47.7890 H   0  0  0  0  0  0  0  0  0  0  0  0
   65.3381   32.6292   50.1112 H   0  0  0  0  0  0  0  0  0  0  0  0
   59.4254   34.5471   52.4926 H   0  0  0  0  0  0  0  0  0  0  0  0
   57.2383   33.5722   53.0736 H   0  0  0  0  0  0  0  0  0  0  0  0
   57.9123   30.2627   50.4867 H   0  0  0  0  0  0  0  0  0  0  0  0
   59.4768   35.5916   45.8899 H   0  0  0  0  0  0  0  0  0  0  0  0
   59.9489   34.2397   44.7675 H   0  0  0  0  0  0  0  0  0  0  0  0
  1  2  1  0
  2  3  1  0
  3  4  2  0
  3  5  1  0
  5  6  1  0
  6  7  1  0
  7  8  1  0
  8  9  2  0
  9 10  1  0
 10 11  1  0
 11 12  1  0
 12 13  1  0
 13 14  2  0
 14 15  1  0
 15 16  2  0
 16 17  1  0
 17 18  2  0
 18 19  1  0
 19 20  2  0
 20 21  1  0
 20 22  1  0
 22 23  2  0
 23 24  1  0
 15 25  1  0
  9 26  1  0
 26  5  1  0
 25  8  1  0
 25 11  2  0
 23 17  1  0
  1 27  1  0
  1 28  1  0
  1 29  1  0
  6 30  1  0
  6 31  1  0
  7 32  1  0
  7 33  1  0
 12 34  1  0
 13 35  1  0
 18 36  1  0
 19 37  1  0
 22 38  1  0
 26 39  1  0
 26 40  1  0
M  END
>  <smiles>  (92) 
COC(=O)N1CCc2c(sc3[nH]cnc(=Nc4ccc(Cl)cc4F)c23)C1

>  <score_type>  (92) 
oracle

>  <origin>  (92) 
adg

>  <m_score__min__energy>  (92) 
-7.7699999999999996

>  <m_primary>  (92) 
energy

$$$$
92:0
     RDKit          3D

 47 50  0  0  0  0  0  0  0  0999 V2000
   64.5250   32.5480   49.3740 C   0  0  0  0  0  0  0  0  0  0  0  0
   63.7900   33.0840   48.2150 N   0  0  0  0  0  0  0  0  0  0  0  0
   63.1270   32.0190   47.4410 C   0  0  0  0  0  0  0  0  0  0  0  0
   61.8820   31.4460   48.1560 C   0  0  0  0  0  0  0  0  0  0  0  0
   61.1770   32.4410   49.0110 N   0  0  0  0  0  0  0  0  0  0  0  0
   59.7280   32.1480   49.1000 C   0  0  0  0  0  0  0  0  0  0  0  0
   59.2650   31.2840   47.9560 C   0  0  0  0  0  0  0  0  0  0  0  0
   59.1500   29.8990   47.9720 C   0  0  0  0  0  0  0  0  0  0  0  0
   58.7730   29.4430   46.7540 N   0  0  0  0  0  0  0  0  0  0  0  0
   58.5890   28.0620   46.4010 C   0  0  0  0  0  0  0  0  0  0  0  0
   57.3330   27.5910   45.9820 C   0  0  0  0  0  0  0  0  0  0  0  0
   57.1660   26.2500   45.6210 C   0  0  0  0  0  0  0  0  0  0  0  0
   58.2520   25.3720   45.6660 C   0  0  0  0  0  0  0  0  0  0  0  0
   59.5100   25.8360   46.0660 C   0  0  0  0  0  0  0  0  0  0  0  0
   59.6790   27.1760   46.4270 C   0  0  0  0  0  0  0  0  0  0  0  0
   58.6410   30.5330   45.9650 C   0  0  0  0  0  0  0  0  0  0  0  0
   58.2200   30.5940   44.6330 C   0  0  0  0  0  0  0  0  0  0  0  0
   58.1460   31.8560   44.0160 C   0  0  0  0  0  0  0  0  0  0  0  0
   57.6300   31.9710   42.3430 Cl  0  0  0  0  0  0  0  0  0  0  0  0
   58.4800   33.0250   44.7380 C   0  0  0  0  0  0  0  0  0  0  0  0
   58.4050   34.2410   44.1410 F   0  0  0  0  0  0  0  0  0  0  0  0
   58.8770   32.9400   46.0830 C   0  0  0  0  0  0  0  0  0  0  0  0
   58.9410   31.6750   46.6690 C   0  0  0  0  0  0  0  0  0  0  0  0
   61.3840   33.8140   48.5150 C   0  0  0  0  0  0  0  0  0  0  0  0
   62.8770   34.1960   48.5790 C   0  0  0  0  0  0  0  0  0  0  0  0
   64.0488   32.8953   50.3027 H   0  0  0  0  0  0  0  0  0  0  0  0
   64.5083   31.4486   49.3423 H   0  0  0  0  0  0  0  0  0  0  0  0
   65.5667   32.8999   49.3423 H   0  0  0  0  0  0  0  0  0  0  0  0
   62.8159   32.4318   46.4700 H   0  0  0  0  0  0  0  0  0  0  0  0
   63.8486   31.1973   47.3224 H   0  0  0  0  0  0  0  0  0  0  0  0
   61.1785   31.0826   47.3924 H   0  0  0  0  0  0  0  0  0  0  0  0
   62.2317   30.6405   48.8185 H   0  0  0  0  0  0  0  0  0  0  0  0
   61.5660   32.3940   49.9830 H   0  0  0  0  0  0  0  0  0  0  0  0
   59.5272   31.6246   50.0465 H   0  0  0  0  0  0  0  0  0  0  0  0
   59.1810   33.1013   49.0541 H   0  0  0  0  0  0  0  0  0  0  0  0
   59.3385   29.2633   48.8497 H   0  0  0  0  0  0  0  0  0  0  0  0
   56.4769   28.2804   45.9377 H   0  0  0  0  0  0  0  0  0  0  0  0
   56.1784   25.8861   45.3012 H   0  0  0  0  0  0  0  0  0  0  0  0
   58.1180   24.3164   45.3871 H   0  0  0  0  0  0  0  0  0  0  0  0
   60.3663   25.1462   46.0964 H   0  0  0  0  0  0  0  0  0  0  0  0
   60.6713   27.5388   46.7332 H   0  0  0  0  0  0  0  0  0  0  0  0
   57.9538   29.6797   44.0824 H   0  0  0  0  0  0  0  0  0  0  0  0
   59.1299   33.8436   46.6571 H   0  0  0  0  0  0  0  0  0  0  0  0
   61.0392   33.8774   47.4724 H   0  0  0  0  0  0  0  0  0  0  0  0
   60.8130   34.5092   49.1480 H   0  0  0  0  0  0  0  0  0  0  0  0
   63.0524   35.0315   47.8853 H   0  0  0  0  0  0  0  0  0  0  0  0
   63.0969   34.4660   49.6224 H   0  0  0  0  0  0  0  0  0  0  0  0
  1  2  1  0
  2  3  1  0
  3  4  1  0
  4  5  1  0
  5  6  1  0
  6  7  1  0
  7  8  2  0
  8  9  1  0
  9 10  1  0
 10 11  2  0
 11 12  1  0
 12 13  2  0
 13 14  1  0
 14 15  2  0
  9 16  1  0
 16 17  2  0
 17 18  1  0
 18 19  1  0
 18 20  2  0
 20 21  1  0
 20 22  1  0
 22 23  2  0
  5 24  1  0
 24 25  1  0
 25  2  1  0
 23  7  1  0
 15 10  1  0
 23 16  1  0
  1 26  1  0
  1 27  1  0
  1 28  1  0
  3 29  1  0
  3 30  1  0
  4 31  1  0
  4 32  1  0
  5 33  1  0
  6 34  1  0
  6 35  1  0
  8 36  1  0
 11 37  1  0
 12 38  1  0
 13 39  1  0
 14 40  1  0
 15 41  1  0
 17 42  1  0
 22 43  1  0
 24 44  1  0
 24 45  1  0
 25 46  1  0
 25 47  1  0
M  CHG  1   5   1
M  END
>  <UniqueID>  (93) 
82

>  <SMILES>  (93) 
CN1CC[NH+](Cc2cn(-c3ccccc3)c3cc(Cl)c(F)cc23)CC1

>  <Energy>  (93) 
101.44975101911714

>  <Genealogy>  (93) 
CN1CC[NH+](Cc2cn(-c3ccccc3)c3cc(Cl)c(F)cc23)CC1 (protonated)
CN1CC[NH+](Cc2cn(-c3ccccc3)c3cc(Cl)c(F)cc23)CC1 (3D coordinates assigned)
CN1CC[NH+](Cc2cn(-c3ccccc3)c3cc(Cl)c(F)cc23)CC1 (nonaromatic ring conformer: 101.44975101911714 kcal/mol)

>  <smiles>  (93) 
CN1CCN(Cc2cn(-c3ccccc3)c3cc(Cl)c(F)cc23)CC1

>  <score_type>  (93) 
oracle

>  <origin>  (93) 
adg

>  <m_score__min__energy>  (93) 
-5.9900000000000002

>  <m_primary>  (93) 
energy

$$$$
93:0
     RDKit          3D

 44 46  0  0  0  0  0  0  0  0999 V2000
   55.1590   29.3450   44.8720 O   0  0  0  0  0  0  0  0  0  0  0  0
   56.3570   29.7260   44.8020 C   0  0  0  0  0  0  0  0  0  0  0  0
   56.6280   31.0950   44.4730 N   0  0  0  0  0  0  0  0  0  0  0  0
   57.7400   31.8930   44.9910 C   0  0  2  0  0  0  0  0  0  0  0  0
   58.0410   31.5180   46.4580 C   0  0  0  0  0  0  0  0  0  0  0  0
   58.6990   32.6710   47.2470 C   0  0  0  0  0  0  0  0  0  0  0  0
   59.4500   33.5780   46.3500 N   0  0  2  0  0  0  0  0  0  0  0  0
   60.2290   34.5750   47.1240 C   0  0  0  0  0  0  0  0  0  0  0  0
   61.5400   34.0090   47.6220 C   0  0  0  0  0  0  0  0  0  0  0  0
   61.8190   33.9850   48.9990 C   0  0  0  0  0  0  0  0  0  0  0  0
   63.0370   33.4770   49.4630 C   0  0  0  0  0  0  0  0  0  0  0  0
   63.9830   32.9910   48.5570 C   0  0  0  0  0  0  0  0  0  0  0  0
   63.7130   33.0120   47.1850 C   0  0  0  0  0  0  0  0  0  0  0  0
   62.4970   33.5190   46.7180 C   0  0  0  0  0  0  0  0  0  0  0  0
   58.5290   34.2790   45.4160 C   0  0  0  0  0  0  0  0  0  0  0  0
   57.3880   33.3790   44.8840 C   0  0  0  0  0  0  0  0  0  0  0  0
   57.4330   28.7570   45.0850 C   0  0  0  0  0  0  0  0  0  0  0  0
   58.7350   28.9710   44.6040 C   0  0  0  0  0  0  0  0  0  0  0  0
   59.7470   28.0460   44.8780 C   0  0  0  0  0  0  0  0  0  0  0  0
   59.4640   26.8960   45.6200 C   0  0  0  0  0  0  0  0  0  0  0  0
   58.1640   26.6640   46.0830 C   0  0  0  0  0  0  0  0  0  0  0  0
   57.8070   25.2170   47.0060 Cl  0  0  0  0  0  0  0  0  0  0  0  0
   57.1490   27.5890   45.8100 C   0  0  0  0  0  0  0  0  0  0  0  0
   58.6407   31.6862   44.3944 H   0  0  0  0  0  0  0  0  0  0  0  0
   57.0964   31.2477   46.9527 H   0  0  0  0  0  0  0  0  0  0  0  0
   58.7503   30.6773   46.4463 H   0  0  0  0  0  0  0  0  0  0  0  0
   57.9151   33.2453   47.7624 H   0  0  0  0  0  0  0  0  0  0  0  0
   59.4043   32.2373   47.9712 H   0  0  0  0  0  0  0  0  0  0  0  0
   60.1210   33.0100   45.7790 H   0  0  0  0  0  0  0  0  0  0  0  0
   60.4386   35.4405   46.4782 H   0  0  0  0  0  0  0  0  0  0  0  0
   59.6310   34.8667   47.9999 H   0  0  0  0  0  0  0  0  0  0  0  0
   61.0766   34.3673   49.7150 H   0  0  0  0  0  0  0  0  0  0  0  0
   63.2501   33.4602   50.5420 H   0  0  0  0  0  0  0  0  0  0  0  0
   64.9404   32.5917   48.9229 H   0  0  0  0  0  0  0  0  0  0  0  0
   64.4585   32.6291   46.4725 H   0  0  0  0  0  0  0  0  0  0  0  0
   62.2886   33.5343   45.6380 H   0  0  0  0  0  0  0  0  0  0  0  0
   58.0811   35.1335   45.9444 H   0  0  0  0  0  0  0  0  0  0  0  0
   59.1260   34.5928   44.5470 H   0  0  0  0  0  0  0  0  0  0  0  0
   56.4783   33.5727   45.4713 H   0  0  0  0  0  0  0  0  0  0  0  0
   57.2308   33.6178   43.8218 H   0  0  0  0  0  0  0  0  0  0  0  0
   58.9593   29.8691   44.0098 H   0  0  0  0  0  0  0  0  0  0  0  0
   60.7679   28.2237   44.5089 H   0  0  0  0  0  0  0  0  0  0  0  0
   60.2633   26.1731   45.8401 H   0  0  0  0  0  0  0  0  0  0  0  0
   56.1252   27.3997   46.1650 H   0  0  0  0  0  0  0  0  0  0  0  0
  1  2  2  0
  2  3  1  0
  3  4  1  0
  4  5  1  0
  5  6  1  0
  6  7  1  0
  7  8  1  0
  8  9  1  0
  9 10  2  0
 10 11  1  0
 11 12  2  0
 12 13  1  0
 13 14  2  0
  7 15  1  0
 15 16  1  0
  2 17  1  0
 17 18  2  0
 18 19  1  0
 19 20  2  0
 20 21  1  0
 21 22  1  0
 21 23  2  0
 16  4  1  0
 23 17  1  0
 14  9  1  0
  4 24  1  6
  5 25  1  0
  5 26  1  0
  6 27  1  0
  6 28  1  0
  7 29  1  6
  8 30  1  0
  8 31  1  0
 10 32  1  0
 11 33  1  0
 12 34  1  0
 13 35  1  0
 14 36  1  0
 15 37  1  0
 15 38  1  0
 16 39  1  0
 16 40  1  0
 18 41  1  0
 19 42  1  0
 20 43  1  0
 23 44  1  0
M  CHG  2   3  -1   7   1
M  END
>  <UniqueID>  (94) 
83

>  <SMILES>  (94) 
O=C([N-]C1CC[NH+](Cc2ccccc2)CC1)c1cccc(Cl)c1

>  <Energy>  (94) 
55.66642103404574

>  <Genealogy>  (94) 
O=C([N-]C1CC[NH+](Cc2ccccc2)CC1)c1cccc(Cl)c1 (protonated)
O=C([N-]C1CC[NH+](Cc2ccccc2)CC1)c1cccc(Cl)c1 (3D coordinates assigned)
O=C([N-]C1CC[NH+](Cc2ccccc2)CC1)c1cccc(Cl)c1 (nonaromatic ring conformer: 55.66642103404574 kcal/mol)

>  <smiles>  (94) 
O=C(NC1CCN(Cc2ccccc2)CC1)c1cccc(Cl)c1

>  <score_type>  (94) 
oracle

>  <origin>  (94) 
adg

>  <m_score__min__energy>  (94) 
-9.0700000000000003

>  <m_primary>  (94) 
energy

$$$$
94:0
     RDKit          3D

 42 45  0  0  0  0  0  0  0  0999 V2000
   60.2530   30.4940   48.7970 C   0  0  0  0  0  0  0  0  0  0  0  0
   59.6450   31.4250   47.7990 C   0  0  0  0  0  0  0  0  0  0  0  0
   58.6350   31.0730   46.9690 N   0  0  0  0  0  0  0  0  0  0  0  0
   58.4420   32.1810   46.2220 C   0  0  0  0  0  0  0  0  0  0  0  0
   57.4980   32.3140   45.2020 C   0  0  0  0  0  0  0  0  0  0  0  0
   56.6500   31.2370   44.9030 O   0  0  0  0  0  0  0  0  0  0  0  0
   56.9720   30.1570   44.0260 C   0  0  0  0  0  0  0  0  0  0  0  0
   57.9120   29.1860   44.6920 C   0  0  0  0  0  0  0  0  0  0  0  0
   57.4080   28.1880   45.5430 C   0  0  0  0  0  0  0  0  0  0  0  0
   58.2790   27.2970   46.1760 C   0  0  0  0  0  0  0  0  0  0  0  0
   59.6570   27.4000   45.9720 C   0  0  0  0  0  0  0  0  0  0  0  0
   60.1670   28.3990   45.1380 C   0  0  0  0  0  0  0  0  0  0  0  0
   59.3000   29.2930   44.5030 C   0  0  0  0  0  0  0  0  0  0  0  0
   57.4550   33.5500   44.5180 C   0  0  0  0  0  0  0  0  0  0  0  0
   58.3370   34.5880   44.8700 C   0  0  0  0  0  0  0  0  0  0  0  0
   59.2620   34.3920   45.9030 C   0  0  0  0  0  0  0  0  0  0  0  0
   59.2740   33.1900   46.5390 N   0  0  0  0  0  0  0  0  0  0  0  0
   60.0420   32.7320   47.5430 C   0  0  0  0  0  0  0  0  0  0  0  0
   61.1940   33.4630   48.1760 C   0  0  0  0  0  0  0  0  0  0  0  0
   62.3800   33.5080   47.2060 C   0  0  0  0  0  0  0  0  0  0  0  0
   63.1990   32.2270   47.1530 C   0  0  0  0  0  0  0  0  0  0  0  0
   63.7650   33.4640   47.8330 C   0  0  0  0  0  0  0  0  0  0  0  0
   60.0234   30.8455   49.8137 H   0  0  0  0  0  0  0  0  0  0  0  0
   59.8396   29.4844   48.6560 H   0  0  0  0  0  0  0  0  0  0  0  0
   61.3436   30.4666   48.6560 H   0  0  0  0  0  0  0  0  0  0  0  0
   56.0470   29.6302   43.7486 H   0  0  0  0  0  0  0  0  0  0  0  0
   57.4644   30.5655   43.1312 H   0  0  0  0  0  0  0  0  0  0  0  0
   56.3240   28.1077   45.7116 H   0  0  0  0  0  0  0  0  0  0  0  0
   57.8787   26.5133   46.8360 H   0  0  0  0  0  0  0  0  0  0  0  0
   60.3407   26.6950   46.4676 H   0  0  0  0  0  0  0  0  0  0  0  0
   61.2526   28.4819   44.9810 H   0  0  0  0  0  0  0  0  0  0  0  0
   59.7057   30.0826   43.8534 H   0  0  0  0  0  0  0  0  0  0  0  0
   56.7282   33.7012   43.7063 H   0  0  0  0  0  0  0  0  0  0  0  0
   58.3002   35.5491   44.3363 H   0  0  0  0  0  0  0  0  0  0  0  0
   59.9613   35.1902   46.1927 H   0  0  0  0  0  0  0  0  0  0  0  0
   60.8841   34.4896   48.4209 H   0  0  0  0  0  0  0  0  0  0  0  0
   61.4964   32.9368   49.0934 H   0  0  0  0  0  0  0  0  0  0  0  0
   61.8889   34.1629   46.4712 H   0  0  0  0  0  0  0  0  0  0  0  0
   62.8988   31.3570   47.7554 H   0  0  0  0  0  0  0  0  0  0  0  0
   63.5405   31.5547   46.3522 H   0  0  0  0  0  0  0  0  0  0  0  0
   63.8743   33.4886   48.9273 H   0  0  0  0  0  0  0  0  0  0  0  0
   64.6856   34.0568   47.7276 H   0  0  0  0  0  0  0  0  0  0  0  0
  1  2  1  0
  2  3  1  0
  3  4  2  0
  4  5  1  0
  5  6  1  0
  6  7  1  0
  7  8  1  0
  8  9  2  0
  9 10  1  0
 10 11  2  0
 11 12  1  0
 12 13  2  0
  5 14  2  0
 14 15  1  0
 15 16  2  0
 16 17  1  0
 17 18  1  0
 18 19  1  0
 19 20  1  0
 20 21  1  0
 21 22  1  0
 18  2  2  0
 22 20  1  0
 17  4  1  0
 13  8  1  0
  1 23  1  0
  1 24  1  0
  1 25  1  0
  7 26  1  0
  7 27  1  0
  9 28  1  0
 10 29  1  0
 11 30  1  0
 12 31  1  0
 13 32  1  0
 14 33  1  0
 15 34  1  0
 16 35  1  0
 19 36  1  0
 19 37  1  0
 20 38  1  0
 21 39  1  0
 21 40  1  0
 22 41  1  0
 22 42  1  0
M  END
>  <UniqueID>  (95) 
84

>  <SMILES>  (95) 
Cc1nc2c(OCc3ccccc3)cccn2c1CC1CC1

>  <Energy>  (95) 
339.6892385495722

>  <Genealogy>  (95) 
Cc1nc2c(OCc3ccccc3)cccn2c1CC1CC1 (3D coordinates assigned)
Cc1nc2c(OCc3ccccc3)cccn2c1CC1CC1 (nonaromatic ring conformer: 339.6892385495722 kcal/mol)

>  <smiles>  (95) 
Cc1nc2c(OCc3ccccc3)cccn2c1CC1CC1

>  <score_type>  (95) 
oracle

>  <origin>  (95) 
adg

>  <m_score__min__energy>  (95) 
-7.6100000000000003

>  <m_primary>  (95) 
energy

$$$$
95:0
     RDKit          3D

 41 43  0  0  0  0  0  0  0  0999 V2000
   64.0540   33.3920   48.6690 C   0  0  0  0  0  0  0  0  0  0  0  0
   63.7250   32.7920   47.3670 N   0  0  0  0  0  0  0  0  0  0  0  0
   63.2300   33.8060   46.4220 C   0  0  0  0  0  0  0  0  0  0  0  0
   62.8280   31.6200   47.4800 C   0  0  0  0  0  0  0  0  0  0  0  0
   62.1600   31.4630   48.8610 C   0  0  0  0  0  0  0  0  0  0  0  0
   60.8720   30.6330   48.7510 C   0  0  0  0  0  0  0  0  0  0  0  0
   60.5000   30.4190   47.3550 N   0  0  0  0  0  0  0  0  0  0  0  0
   59.4440   30.6650   46.6120 C   0  0  0  0  0  0  0  0  0  0  0  0
   58.6480   29.5350   46.2740 C   0  0  0  0  0  0  0  0  0  0  0  0
   59.0220   28.2200   46.6420 C   0  0  0  0  0  0  0  0  0  0  0  0
   58.2130   27.1280   46.3110 C   0  0  0  0  0  0  0  0  0  0  0  0
   57.0220   27.3240   45.6140 C   0  0  0  0  0  0  0  0  0  0  0  0
   56.6340   28.6120   45.2450 C   0  0  0  0  0  0  0  0  0  0  0  0
   57.4380   29.7120   45.5690 C   0  0  0  0  0  0  0  0  0  0  0  0
   57.0380   30.9480   45.2050 N   0  0  0  0  0  0  0  0  0  0  0  0
   57.7690   32.0560   45.4670 C   0  0  0  0  0  0  0  0  0  0  0  0
   57.2710   33.2890   45.0280 C   0  0  0  0  0  0  0  0  0  0  0  0
   57.9980   34.4560   45.2330 C   0  0  0  0  0  0  0  0  0  0  0  0
   59.2350   34.3950   45.8610 C   0  0  0  0  0  0  0  0  0  0  0  0
   59.7460   33.1730   46.3060 C   0  0  0  0  0  0  0  0  0  0  0  0
   59.0150   31.9650   46.1560 C   0  0  0  0  0  0  0  0  0  0  0  0
   63.6946   32.7366   49.4760 H   0  0  0  0  0  0  0  0  0  0  0  0
   65.1442   33.5122   48.7523 H   0  0  0  0  0  0  0  0  0  0  0  0
   63.5692   34.3759   48.7523 H   0  0  0  0  0  0  0  0  0  0  0  0
   62.8146   34.6570   46.9817 H   0  0  0  0  0  0  0  0  0  0  0  0
   64.0598   34.1534   45.7890 H   0  0  0  0  0  0  0  0  0  0  0  0
   62.4456   33.3654   45.7890 H   0  0  0  0  0  0  0  0  0  0  0  0
   62.0357   31.7183   46.7233 H   0  0  0  0  0  0  0  0  0  0  0  0
   63.4543   30.7283   47.3298 H   0  0  0  0  0  0  0  0  0  0  0  0
   62.8581   30.9571   49.5442 H   0  0  0  0  0  0  0  0  0  0  0  0
   61.9050   32.4615   49.2456 H   0  0  0  0  0  0  0  0  0  0  0  0
   61.0313   29.6574   49.2336 H   0  0  0  0  0  0  0  0  0  0  0  0
   60.0593   31.1830   49.2480 H   0  0  0  0  0  0  0  0  0  0  0  0
   59.9590   28.0553   47.1942 H   0  0  0  0  0  0  0  0  0  0  0  0
   58.5176   26.1117   46.6016 H   0  0  0  0  0  0  0  0  0  0  0  0
   56.3881   26.4631   45.3550 H   0  0  0  0  0  0  0  0  0  0  0  0
   55.6924   28.7644   44.6971 H   0  0  0  0  0  0  0  0  0  0  0  0
   56.2978   33.3344   44.5174 H   0  0  0  0  0  0  0  0  0  0  0  0
   57.5951   35.4236   44.8992 H   0  0  0  0  0  0  0  0  0  0  0  0
   59.8174   35.3163   46.0094 H   0  0  0  0  0  0  0  0  0  0  0  0
   60.7367   33.1462   46.7832 H   0  0  0  0  0  0  0  0  0  0  0  0
  1  2  1  0
  2  3  1  0
  2  4  1  0
  4  5  1  0
  5  6  1  0
  6  7  1  0
  7  8  2  3
  8  9  1  0
  9 10  2  0
 10 11  1  0
 11 12  2  0
 12 13  1  0
 13 14  2  0
 14 15  1  0
 15 16  1  0
 16 17  2  0
 17 18  1  0
 18 19  2  0
 19 20  1  0
 20 21  2  0
 21  8  1  0
 14  9  1  0
 21 16  1  0
  1 22  1  0
  1 23  1  0
  1 24  1  0
  3 25  1  0
  3 26  1  0
  3 27  1  0
  4 28  1  0
  4 29  1  0
  5 30  1  0
  5 31  1  0
  6 32  1  0
  6 33  1  0
 10 34  1  0
 11 35  1  0
 12 36  1  0
 13 37  1  0
 17 38  1  0
 18 39  1  0
 19 40  1  0
 20 41  1  0
M  CHG  1  15  -1
M  END
>  <UniqueID>  (96) 
85

>  <SMILES>  (96) 
CN(C)CCCN=c1c2ccccc2[n-]c2ccccc12

>  <Energy>  (96) 
68.56479378351216

>  <Genealogy>  (96) 
CN(C)CCCN=c1c2ccccc2[n-]c2ccccc12 (protonated)
CN(C)CCCN=c1c2ccccc2[n-]c2ccccc12 (3D coordinates assigned)
CN(C)CCCN=c1c2ccccc2[n-]c2ccccc12 (optimized conformer: 68.56479378351216 kcal/mol)

>  <smiles>  (96) 
CN(C)CCCN=c1c2ccccc2[nH]c2ccccc12

>  <score_type>  (96) 
oracle

>  <origin>  (96) 
adg

>  <m_score__min__energy>  (96) 
-7.8600000000000003

>  <m_primary>  (96) 
energy

$$$$
96:0
     RDKit          3D

 36 38  0  0  0  0  0  0  0  0999 V2000
   59.5020   29.0380   49.1000 O   0  0  0  0  0  0  0  0  0  0  0  0
   59.2210   29.0680   47.8720 C   0  0  0  0  0  0  0  0  0  0  0  0
   58.1350   28.2340   47.4240 N   0  0  0  0  0  0  0  0  0  0  0  0
   57.7460   27.8910   46.0600 C   0  0  0  0  0  0  0  0  0  0  0  0
   57.6300   29.0950   45.2400 N   0  0  0  0  0  0  0  0  0  0  0  0
   56.5400   29.6420   44.6580 C   0  0  0  0  0  0  0  0  0  0  0  0
   55.2470   29.1240   44.7140 O   0  0  0  0  0  0  0  0  0  0  0  0
   56.8780   30.8090   44.0020 C   0  0  0  0  0  0  0  0  0  0  0  0
   58.2340   30.9870   44.2010 C   0  0  0  0  0  0  0  0  0  0  0  0
   58.6600   29.9070   44.9550 C   0  0  0  0  0  0  0  0  0  0  0  0
   60.0140   29.7220   45.5480 C   0  0  0  0  0  0  0  0  0  0  0  0
   59.9440   29.9740   46.9920 N   0  0  0  0  0  0  0  0  0  0  0  0
   60.5960   31.1930   47.5240 C   0  0  0  0  0  0  0  0  0  0  0  0
   59.8350   32.4760   47.1010 C   0  0  0  0  0  0  0  0  0  0  0  0
   60.7550   33.7020   46.9510 C   0  0  0  0  0  0  0  0  0  0  0  0
   61.8900   33.6810   47.9810 C   0  0  0  0  0  0  0  0  0  0  0  0
   62.7970   32.4420   47.8220 C   0  0  0  0  0  0  0  0  0  0  0  0
   62.0930   31.2450   47.1540 C   0  0  0  0  0  0  0  0  0  0  0  0
   58.5071   27.2279   45.6229 H   0  0  0  0  0  0  0  0  0  0  0  0
   56.7699   27.3845   46.0864 H   0  0  0  0  0  0  0  0  0  0  0  0
   54.7610   28.9650   45.5850 H   0  0  0  0  0  0  0  0  0  0  0  0
   56.2027   31.4660   43.4342 H   0  0  0  0  0  0  0  0  0  0  0  0
   58.8513   31.8201   43.8337 H   0  0  0  0  0  0  0  0  0  0  0  0
   60.3566   28.6920   45.3700 H   0  0  0  0  0  0  0  0  0  0  0  0
   60.7215   30.4243   45.0830 H   0  0  0  0  0  0  0  0  0  0  0  0
   60.5466   31.1449   48.6218 H   0  0  0  0  0  0  0  0  0  0  0  0
   59.3416   32.2883   46.1359 H   0  0  0  0  0  0  0  0  0  0  0  0
   59.1103   32.7049   47.8963 H   0  0  0  0  0  0  0  0  0  0  0  0
   61.1892   33.7017   45.9403 H   0  0  0  0  0  0  0  0  0  0  0  0
   60.1536   34.6077   47.1181 H   0  0  0  0  0  0  0  0  0  0  0  0
   62.5013   34.5866   47.8534 H   0  0  0  0  0  0  0  0  0  0  0  0
   61.4371   33.6424   48.9827 H   0  0  0  0  0  0  0  0  0  0  0  0
   63.6648   32.7227   47.2071 H   0  0  0  0  0  0  0  0  0  0  0  0
   63.0875   32.1224   48.8337 H   0  0  0  0  0  0  0  0  0  0  0  0
   62.1886   31.3376   46.0621 H   0  0  0  0  0  0  0  0  0  0  0  0
   62.5698   30.3202   47.5110 H   0  0  0  0  0  0  0  0  0  0  0  0
  1  2  2  0
  2  3  1  0
  3  4  1  0
  4  5  1  0
  5  6  1  0
  6  7  1  0
  6  8  2  0
  8  9  1  0
  9 10  2  0
 10 11  1  0
 11 12  1  0
 12 13  1  0
 13 14  1  0
 14 15  1  0
 15 16  1  0
 16 17  1  0
 17 18  1  0
 12  2  1  0
 18 13  1  0
 10  5  1  0
  4 19  1  0
  4 20  1  0
  7 21  1  0
  8 22  1  0
  9 23  1  0
 11 24  1  0
 11 25  1  0
 13 26  1  0
 14 27  1  0
 14 28  1  0
 15 29  1  0
 15 30  1  0
 16 31  1  0
 16 32  1  0
 17 33  1  0
 17 34  1  0
 18 35  1  0
 18 36  1  0
M  CHG  1   3  -1
M  END
>  <UniqueID>  (97) 
86

>  <SMILES>  (97) 
O=C1[N-]Cn2c(O)ccc2CN1C1CCCCC1

>  <Energy>  (97) 
71.52406543721224

>  <Genealogy>  (97) 
O=C1[N-]Cn2c(O)ccc2CN1C1CCCCC1 (protonated)
O=C1[N-]Cn2c(O)ccc2CN1C1CCCCC1 (3D coordinates assigned)
O=C1[N-]Cn2c(O)ccc2CN1C1CCCCC1 (nonaromatic ring conformer: 71.52406543721224 kcal/mol)

>  <smiles>  (97) 
O=C1NCn2c(O)ccc2CN1C1CCCCC1

>  <score_type>  (97) 
oracle

>  <origin>  (97) 
adg

>  <m_score__min__energy>  (97) 
-8.6500000000000004

>  <m_primary>  (97) 
energy

$$$$
