0:0
     RDKit          3D

 38 40  0  0  0  0  0  0  0  0999 V2000
   61.4280   31.1660   46.5980 O   0  0  0  0  0  0  0  0  0  0  0  0
   60.2730   30.6790   46.4740 C   0  0  0  0  0  0  0  0  0  0  0  0
   59.2440   31.4870   45.8850 N   0  0  0  0  0  0  0  0  0  0  0  0
   58.2480   31.0380   44.9520 C   0  0  0  0  0  0  0  0  0  0  0  0
   58.3240   31.3500   43.5830 C   0  0  0  0  0  0  0  0  0  0  0  0
   57.3350   30.8990   42.7030 C   0  0  0  0  0  0  0  0  0  0  0  0
   56.2760   30.1220   43.1780 C   0  0  0  0  0  0  0  0  0  0  0  0
   56.2070   29.7840   44.5340 C   0  0  0  0  0  0  0  0  0  0  0  0
   55.1510   28.9980   44.9920 O   0  0  0  0  0  0  0  0  0  0  0  0
   57.1980   30.2360   45.4170 C   0  0  0  0  0  0  0  0  0  0  0  0
   60.0220   29.2840   46.9010 C   0  0  0  0  0  0  0  0  0  0  0  0
   60.1550   28.9250   48.2520 C   0  0  0  0  0  0  0  0  0  0  0  0
   59.8650   27.6230   48.6670 C   0  0  0  0  0  0  0  0  0  0  0  0
   59.4410   26.6690   47.7390 C   0  0  0  0  0  0  0  0  0  0  0  0
   59.3140   27.0110   46.3830 C   0  0  0  0  0  0  0  0  0  0  0  0
   58.8820   26.0520   45.4080 N   0  0  0  0  0  0  0  0  0  0  0  0
   57.6370   26.1040   44.7010 C   0  0  0  0  0  0  0  0  0  0  0  0
   57.4260   27.0660   43.9170 O   0  0  0  0  0  0  0  0  0  0  0  0
   56.5750   25.0920   44.9250 C   0  0  0  0  0  0  0  0  0  0  0  0
   56.7620   23.7640   44.5060 C   0  0  0  0  0  0  0  0  0  0  0  0
   55.7670   22.8110   44.7230 C   0  0  0  0  0  0  0  0  0  0  0  0
   54.5880   23.1880   45.3670 C   0  0  0  0  0  0  0  0  0  0  0  0
   53.6800   22.3410   45.5710 O   0  0  0  0  0  0  0  0  0  0  0  0
   54.4200   24.4720   45.7770 N   0  0  0  0  0  0  0  0  0  0  0  0
   55.3710   25.4250   45.5780 C   0  0  0  0  0  0  0  0  0  0  0  0
   55.1300   26.7230   46.0120 O   0  0  0  0  0  0  0  0  0  0  0  0
   59.6350   28.3070   45.9660 C   0  0  0  0  0  0  0  0  0  0  0  0
   59.1637   31.9505   43.2031 H   0  0  0  0  0  0  0  0  0  0  0  0
   57.3912   31.1566   41.6351 H   0  0  0  0  0  0  0  0  0  0  0  0
   55.4952   29.7753   42.4851 H   0  0  0  0  0  0  0  0  0  0  0  0
   55.1590   27.9900   44.8900 H   0  0  0  0  0  0  0  0  0  0  0  0
   57.1506   29.9593   46.4806 H   0  0  0  0  0  0  0  0  0  0  0  0
   60.4890   29.6723   48.9868 H   0  0  0  0  0  0  0  0  0  0  0  0
   59.9708   27.3485   49.7269 H   0  0  0  0  0  0  0  0  0  0  0  0
   59.2060   25.6471   48.0713 H   0  0  0  0  0  0  0  0  0  0  0  0
   57.6973   23.4746   44.0046 H   0  0  0  0  0  0  0  0  0  0  0  0
   55.9103   21.7725   44.3898 H   0  0  0  0  0  0  0  0  0  0  0  0
   59.5844   28.5643   44.8977 H   0  0  0  0  0  0  0  0  0  0  0  0
  1  2  2  0
  2  3  1  0
  3  4  1  0
  4  5  2  0
  5  6  1  0
  6  7  2  0
  7  8  1  0
  8  9  1  0
  8 10  2  0
  2 11  1  0
 11 12  2  0
 12 13  1  0
 13 14  2  0
 14 15  1  0
 15 16  1  0
 16 17  1  0
 17 18  2  0
 17 19  1  0
 19 20  1  0
 20 21  2  0
 21 22  1  0
 22 23  2  0
 22 24  1  0
 24 25  1  0
 25 26  1  0
 15 27  2  0
 10  4  1  0
 27 11  1  0
 25 19  2  0
  5 28  1  0
  6 29  1  0
  7 30  1  0
  9 31  1  0
 10 32  1  0
 12 33  1  0
 13 34  1  0
 14 35  1  0
 20 36  1  0
 21 37  1  0
 27 38  1  0
M  CHG  4   3  -1  16  -1  24  -1  26  -1
M  END
>  <UniqueID>  (1) 
1

>  <SMILES>  (1) 
O=C([N-]c1cccc(O)c1)c1cccc([N-]C(=O)c2ccc(=O)[n-]c2[O-])c1

>  <Energy>  (1) 
55.48644938515685

>  <Genealogy>  (1) 
O=C([N-]c1cccc(O)c1)c1cccc([N-]C(=O)c2ccc(=O)[n-]c2[O-])c1 (protonated)
O=C([N-]c1cccc(O)c1)c1cccc([N-]C(=O)c2ccc(=O)[n-]c2[O-])c1 (3D coordinates assigned)
O=C([N-]c1cccc(O)c1)c1cccc([N-]C(=O)c2ccc(=O)[n-]c2[O-])c1 (optimized conformer: 55.48644938515685 kcal/mol)

>  <smiles>  (1) 
O=C(Nc1cccc(O)c1)c1cccc(NC(=O)c2ccc(=O)[nH]c2O)c1

>  <score_type>  (1) 
oracle

>  <origin>  (1) 
adg

>  <m_score__min__energy>  (1) 
-17.109999999999999

>  <m_primary>  (1) 
energy

$$$$
1:0
     RDKit          3D

 45 48  0  0  0  0  0  0  0  0999 V2000
   60.0700   27.4590   45.9490 C   0  0  0  0  0  0  0  0  0  0  0  0
   59.1220   28.1610   45.3010 C   0  0  0  0  0  0  0  0  0  0  0  0
   58.0080   27.6120   44.6490 C   0  0  0  0  0  0  0  0  0  0  0  0
   57.6890   26.3030   44.5430 C   0  0  0  0  0  0  0  0  0  0  0  0
   57.1290   25.4590   45.6230 C   0  0  0  0  0  0  0  0  0  0  0  0
   57.7220   24.3880   46.1790 N   0  0  0  0  0  0  0  0  0  0  0  0
   56.8480   24.0010   47.1330 C   0  0  0  0  0  0  0  0  0  0  0  0
   57.0550   23.0080   47.8780 O   0  0  0  0  0  0  0  0  0  0  0  0
   55.7390   24.7640   47.2280 N   0  0  0  0  0  0  0  0  0  0  0  0
   55.9350   25.6830   46.2690 C   0  0  0  0  0  0  0  0  0  0  0  0
   55.0400   26.7090   45.9910 O   0  0  0  0  0  0  0  0  0  0  0  0
   57.2790   28.6880   44.1680 C   0  0  0  0  0  0  0  0  0  0  0  0
   57.9650   29.8340   44.5160 C   0  0  0  0  0  0  0  0  0  0  0  0
   57.4630   31.1910   44.2010 C   0  0  0  0  0  0  0  0  0  0  0  0
   57.2820   31.5030   42.9930 O   0  0  0  0  0  0  0  0  0  0  0  0
   57.1590   32.1220   45.2520 N   0  0  0  0  0  0  0  0  0  0  0  0
   57.9050   33.0530   45.7840 C   0  0  0  0  0  0  0  0  0  0  0  0
   58.1140   33.1840   47.1740 C   0  0  0  0  0  0  0  0  0  0  0  0
   58.9260   34.2160   47.6540 C   0  0  0  0  0  0  0  0  0  0  0  0
   59.4980   35.0950   46.7930 N   0  0  0  0  0  0  0  0  0  0  0  0
   59.3010   35.0060   45.4520 C   0  0  0  0  0  0  0  0  0  0  0  0
   58.4970   33.9910   44.9280 C   0  0  0  0  0  0  0  0  0  0  0  0
   59.0970   29.5220   45.2020 N   0  0  0  0  0  0  0  0  0  0  0  0
   60.0200   30.4830   45.8370 C   0  0  0  0  0  0  0  0  0  0  0  0
   60.0240   30.3160   47.3360 C   0  0  0  0  0  0  0  0  0  0  0  0
   61.1630   30.6590   48.0860 C   0  0  0  0  0  0  0  0  0  0  0  0
   61.1620   30.5130   49.4770 C   0  0  0  0  0  0  0  0  0  0  0  0
   60.0220   30.0360   50.1300 C   0  0  0  0  0  0  0  0  0  0  0  0
   58.8790   29.7110   49.3950 C   0  0  0  0  0  0  0  0  0  0  0  0
   58.8760   29.8570   48.0040 C   0  0  0  0  0  0  0  0  0  0  0  0
   60.9088   27.9824   46.4312 H   0  0  0  0  0  0  0  0  0  0  0  0
   60.0060   26.3619   45.9964 H   0  0  0  0  0  0  0  0  0  0  0  0
   57.8605   25.8223   43.5686 H   0  0  0  0  0  0  0  0  0  0  0  0
   56.3308   28.6381   43.6126 H   0  0  0  0  0  0  0  0  0  0  0  0
   57.6415   32.4794   47.8742 H   0  0  0  0  0  0  0  0  0  0  0  0
   59.1021   34.3159   48.7352 H   0  0  0  0  0  0  0  0  0  0  0  0
   59.7753   35.7343   44.7777 H   0  0  0  0  0  0  0  0  0  0  0  0
   58.3286   33.9281   43.8428 H   0  0  0  0  0  0  0  0  0  0  0  0
   61.0367   30.3132   45.4531 H   0  0  0  0  0  0  0  0  0  0  0  0
   59.6842   31.5029   45.5981 H   0  0  0  0  0  0  0  0  0  0  0  0
   62.0587   31.0438   47.5764 H   0  0  0  0  0  0  0  0  0  0  0  0
   62.0592   30.7738   50.0576 H   0  0  0  0  0  0  0  0  0  0  0  0
   60.0246   29.9164   51.2235 H   0  0  0  0  0  0  0  0  0  0  0  0
   57.9810   29.3401   49.9107 H   0  0  0  0  0  0  0  0  0  0  0  0
   57.9704   29.6113   47.4300 H   0  0  0  0  0  0  0  0  0  0  0  0
  1  2  2  0
  2  3  1  0
  3  4  2  3
  4  5  1  0
  5  6  1  0
  6  7  1  0
  7  8  2  0
  7  9  1  0
  9 10  1  0
 10 11  1  0
  3 12  1  0
 12 13  2  0
 13 14  1  0
 14 15  2  0
 14 16  1  0
 16 17  2  3
 17 18  1  0
 18 19  2  0
 19 20  1  0
 20 21  1  0
 21 22  2  0
 13 23  1  0
 23 24  1  0
 24 25  1  0
 25 26  2  0
 26 27  1  0
 27 28  2  0
 28 29  1  0
 29 30  2  0
 23  2  1  0
 30 25  1  0
 10  5  2  0
 22 17  1  0
  1 31  1  0
  1 32  1  0
  4 33  1  0
 12 34  1  0
 18 35  1  0
 19 36  1  0
 21 37  1  0
 22 38  1  0
 24 39  1  0
 24 40  1  0
 26 41  1  0
 27 42  1  0
 28 43  1  0
 29 44  1  0
 30 45  1  0
M  CHG  4   6  -1   9  -1  11  -1  20  -1
M  END
>  <UniqueID>  (2) 
2

>  <SMILES>  (2) 
C=c1c(=Cc2[n-]c(=O)[n-]c2[O-])cc(C(=O)N=c2cc[n-]cc2)n1Cc1ccccc1

>  <Energy>  (2) 
124.19582737280504

>  <Genealogy>  (2) 
C=c1c(=Cc2[n-]c(=O)[n-]c2[O-])cc(C(=O)N=c2cc[n-]cc2)n1Cc1ccccc1 (protonated)
C=c1c(=Cc2[n-]c(=O)[n-]c2[O-])cc(C(=O)N=c2cc[n-]cc2)n1Cc1ccccc1 (3D coordinates assigned)
C=c1c(=Cc2[n-]c(=O)[n-]c2[O-])cc(C(=O)N=c2cc[n-]cc2)n1Cc1ccccc1 (optimized conformer: 124.19582737280504 kcal/mol)

>  <smiles>  (2) 
C=c1c(=Cc2[nH]c(=O)[nH]c2O)cc(C(=O)N=c2cc[nH]cc2)n1Cc1ccccc1

>  <score_type>  (2) 
oracle

>  <origin>  (2) 
adg

>  <m_score__min__energy>  (2) 
-16.75

>  <m_primary>  (2) 
energy

$$$$
2:0
     RDKit          3D

 52 55  0  0  0  0  0  0  0  0999 V2000
   63.8670   33.8390   49.5620 C   0  0  0  0  0  0  0  0  0  0  0  0
   64.0160   32.7680   48.5620 N   0  0  2  0  0  0  0  0  0  0  0  0
   63.4240   33.1480   47.2560 C   0  0  0  0  0  0  0  0  0  0  0  0
   62.1010   32.3740   47.0950 C   0  0  0  0  0  0  0  0  0  0  0  0
   62.1520   31.3350   48.1060 N   0  0  0  0  0  0  0  0  0  0  0  0
   61.2100   30.2510   48.2340 C   0  0  0  0  0  0  0  0  0  0  0  0
   61.1520   29.4840   49.4120 C   0  0  0  0  0  0  0  0  0  0  0  0
   60.2450   28.4250   49.5190 C   0  0  0  0  0  0  0  0  0  0  0  0
   59.3950   28.1120   48.4550 C   0  0  0  0  0  0  0  0  0  0  0  0
   59.4570   28.8500   47.2670 C   0  0  0  0  0  0  0  0  0  0  0  0
   58.4360   28.3970   45.9040 S   0  0  0  0  0  0  0  0  0  0  0  0
   59.1720   28.6760   44.6260 O   0  0  0  0  0  0  0  0  0  0  0  0
   58.0860   26.9340   45.9600 O   0  0  0  0  0  0  0  0  0  0  0  0
   56.9730   29.3260   45.9460 N   0  0  0  0  0  0  0  0  0  0  0  0
   56.2250   29.6370   44.7640 C   0  0  0  0  0  0  0  0  0  0  0  0
   55.1650   29.0100   44.4980 O   0  0  0  0  0  0  0  0  0  0  0  0
   56.6960   30.7240   43.8420 C   0  0  0  0  0  0  0  0  0  0  0  0
   56.6930   32.0110   44.5320 N   0  0  0  0  0  0  0  0  0  0  0  0
   57.8660   32.7610   44.8800 C   0  0  0  0  0  0  0  0  0  0  0  0
   58.4920   33.3620   43.9640 O   0  0  0  0  0  0  0  0  0  0  0  0
   58.3380   32.8780   46.2730 C   0  0  0  0  0  0  0  0  0  0  0  0
   59.1020   33.9360   46.7670 C   0  0  0  0  0  0  0  0  0  0  0  0
   59.2950   33.6430   48.1020 C   0  0  0  0  0  0  0  0  0  0  0  0
   59.9620   34.3540   49.1050 C   0  0  0  0  0  0  0  0  0  0  0  0
   59.9840   33.8000   50.3980 C   0  0  0  0  0  0  0  0  0  0  0  0
   59.3450   32.5640   50.6590 C   0  0  0  0  0  0  0  0  0  0  0  0
   58.6790   31.8720   49.6280 C   0  0  0  0  0  0  0  0  0  0  0  0
   58.6740   32.4460   48.3530 C   0  0  0  0  0  0  0  0  0  0  0  0
   58.0910   31.9610   47.2420 N   0  0  0  0  0  0  0  0  0  0  0  0
   60.3570   29.9200   47.1610 C   0  0  0  0  0  0  0  0  0  0  0  0
   63.2540   31.6230   48.9500 C   0  0  0  0  0  0  0  0  0  0  0  0
   63.5320   30.9450   49.9770 O   0  0  0  0  0  0  0  0  0  0  0  0
   63.9269   33.4082   50.5724 H   0  0  0  0  0  0  0  0  0  0  0  0
   64.6710   34.5781   49.4303 H   0  0  0  0  0  0  0  0  0  0  0  0
   62.8918   34.3306   49.4303 H   0  0  0  0  0  0  0  0  0  0  0  0
   65.0260   32.5090   48.4550 H   0  0  0  0  0  0  0  0  0  0  0  0
   63.2292   34.2304   47.2343 H   0  0  0  0  0  0  0  0  0  0  0  0
   64.1145   32.9032   46.4355 H   0  0  0  0  0  0  0  0  0  0  0  0
   61.2408   33.0381   47.2653 H   0  0  0  0  0  0  0  0  0  0  0  0
   61.9829   31.9613   46.0822 H   0  0  0  0  0  0  0  0  0  0  0  0
   61.8226   29.7182   50.2519 H   0  0  0  0  0  0  0  0  0  0  0  0
   60.2004   27.8349   50.4462 H   0  0  0  0  0  0  0  0  0  0  0  0
   58.6763   27.2848   48.5510 H   0  0  0  0  0  0  0  0  0  0  0  0
   57.7177   30.4958   43.5042 H   0  0  0  0  0  0  0  0  0  0  0  0
   56.0170   30.7796   42.9784 H   0  0  0  0  0  0  0  0  0  0  0  0
   59.4701   34.8123   46.2134 H   0  0  0  0  0  0  0  0  0  0  0  0
   60.4531   35.3145   48.8899 H   0  0  0  0  0  0  0  0  0  0  0  0
   60.5009   34.3305   51.2112 H   0  0  0  0  0  0  0  0  0  0  0  0
   59.3686   32.1408   51.6740 H   0  0  0  0  0  0  0  0  0  0  0  0
   58.1791   30.9111   49.8200 H   0  0  0  0  0  0  0  0  0  0  0  0
   57.5830   31.0510   47.1480 H   0  0  0  0  0  0  0  0  0  0  0  0
   60.3980   30.5070   46.2316 H   0  0  0  0  0  0  0  0  0  0  0  0
  1  2  1  0
  2  3  1  0
  3  4  1  0
  4  5  1  0
  5  6  1  0
  6  7  2  0
  7  8  1  0
  8  9  2  0
  9 10  1  0
 10 11  1  0
 11 12  2  0
 11 13  2  0
 11 14  1  0
 14 15  1  0
 15 16  2  0
 15 17  1  0
 17 18  1  0
 18 19  1  0
 19 20  2  0
 19 21  1  0
 21 22  2  0
 22 23  1  0
 23 24  2  0
 24 25  1  0
 25 26  2  0
 26 27  1  0
 27 28  2  0
 28 29  1  0
 10 30  2  0
  5 31  1  0
 31 32  2  0
 31  2  1  0
 30  6  1  0
 29 21  1  0
 28 23  1  0
  1 33  1  0
  1 34  1  0
  1 35  1  0
  2 36  1  6
  3 37  1  0
  3 38  1  0
  4 39  1  0
  4 40  1  0
  7 41  1  0
  8 42  1  0
  9 43  1  0
 17 44  1  0
 17 45  1  0
 22 46  1  0
 24 47  1  0
 25 48  1  0
 26 49  1  0
 27 50  1  0
 29 51  1  0
 30 52  1  0
M  CHG  3   2   1  14  -1  18  -1
M  END
>  <UniqueID>  (3) 
3

>  <SMILES>  (3) 
C[N@@H+]1CCN(c2cccc(S(=O)(=O)[N-]C(=O)C[N-]C(=O)c3cc4ccccc4[nH]3)c2)C1=O

>  <Energy>  (3) 
104.9199918128675

>  <Genealogy>  (3) 
C[NH+]1CCN(c2cccc(S(=O)(=O)[N-]C(=O)C[N-]C(=O)c3cc4ccccc4[nH]3)c2)C1=O (protonated)
C[N@@H+]1CCN(c2cccc(S(=O)(=O)[N-]C(=O)C[N-]C(=O)c3cc4ccccc4[nH]3)c2)C1=O (chirality)
C[N@@H+]1CCN(c2cccc(S(=O)(=O)[N-]C(=O)C[N-]C(=O)c3cc4ccccc4[nH]3)c2)C1=O (3D coordinates assigned)
C[N@@H+]1CCN(c2cccc(S(=O)(=O)[N-]C(=O)C[N-]C(=O)c3cc4ccccc4[nH]3)c2)C1=O (nonaromatic ring conformer: 104.9199918128675 kcal/mol)

>  <smiles>  (3) 
CN1CCN(c2cccc(S(=O)(=O)NC(=O)CNC(=O)c3cc4ccccc4[nH]3)c2)C1=O

>  <score_type>  (3) 
oracle

>  <origin>  (3) 
adg

>  <m_score__min__energy>  (3) 
-11.380000000000001

>  <m_primary>  (3) 
energy

$$$$
3:0
     RDKit          3D

 38 40  0  0  0  0  0  0  0  0999 V2000
   57.7470   25.5370   43.9530 C   0  0  0  0  0  0  0  0  0  0  0  0
   57.1480   24.9900   45.0100 C   0  0  0  0  0  0  0  0  0  0  0  0
   56.3810   25.7770   45.9960 C   0  0  0  0  0  0  0  0  0  0  0  0
   55.1890   25.4480   46.2330 O   0  0  0  0  0  0  0  0  0  0  0  0
   56.9520   26.8710   46.7270 N   0  0  0  0  0  0  0  0  0  0  0  0
   57.8540   27.8570   46.2070 C   0  0  0  0  0  0  0  0  0  0  0  0
   59.2330   27.6480   46.3370 C   0  0  0  0  0  0  0  0  0  0  0  0
   60.1400   28.5960   45.8530 C   0  0  0  0  0  0  0  0  0  0  0  0
   59.6740   29.7670   45.2510 C   0  0  0  0  0  0  0  0  0  0  0  0
   58.2980   30.0020   45.1380 C   0  0  0  0  0  0  0  0  0  0  0  0
   57.7210   31.4930   44.4040 S   0  0  0  0  0  0  0  0  0  0  0  0
   58.1090   31.5080   42.9520 O   0  0  0  0  0  0  0  0  0  0  0  0
   56.2250   31.5930   44.5130 O   0  0  0  0  0  0  0  0  0  0  0  0
   58.4330   32.8490   45.2140 N   0  0  0  0  0  0  0  0  0  0  0  0
   58.9440   34.0400   44.5410 C   0  0  0  0  0  0  0  0  0  0  0  0
   59.6160   34.8930   45.6470 C   0  0  0  0  0  0  0  0  0  0  0  0
   59.4600   34.0570   46.8720 C   0  0  0  0  0  0  0  0  0  0  0  0
   59.9150   34.3260   48.1630 C   0  0  0  0  0  0  0  0  0  0  0  0
   59.6620   33.3820   49.1730 C   0  0  0  0  0  0  0  0  0  0  0  0
   58.9650   32.1940   48.8740 C   0  0  0  0  0  0  0  0  0  0  0  0
   58.5170   31.9460   47.5660 C   0  0  0  0  0  0  0  0  0  0  0  0
   58.7820   32.9050   46.5830 C   0  0  0  0  0  0  0  0  0  0  0  0
   57.3890   29.0490   45.6210 C   0  0  0  0  0  0  0  0  0  0  0  0
   58.3063   24.9035   43.2488 H   0  0  0  0  0  0  0  0  0  0  0  0
   57.6823   26.6221   43.7846 H   0  0  0  0  0  0  0  0  0  0  0  0
   57.2286   23.9025   45.1546 H   0  0  0  0  0  0  0  0  0  0  0  0
   59.6044   26.7334   46.8223 H   0  0  0  0  0  0  0  0  0  0  0  0
   61.2217   28.4193   45.9465 H   0  0  0  0  0  0  0  0  0  0  0  0
   60.3901   30.5071   44.8644 H   0  0  0  0  0  0  0  0  0  0  0  0
   59.6798   33.7601   43.7727 H   0  0  0  0  0  0  0  0  0  0  0  0
   58.1411   34.5945   44.0332 H   0  0  0  0  0  0  0  0  0  0  0  0
   60.6786   35.0646   45.4204 H   0  0  0  0  0  0  0  0  0  0  0  0
   59.1682   35.8925   45.7497 H   0  0  0  0  0  0  0  0  0  0  0  0
   60.4593   35.2557   48.3854 H   0  0  0  0  0  0  0  0  0  0  0  0
   60.0089   33.5708   50.1996 H   0  0  0  0  0  0  0  0  0  0  0  0
   58.7711   31.4580   49.6682 H   0  0  0  0  0  0  0  0  0  0  0  0
   57.9723   31.0222   47.3213 H   0  0  0  0  0  0  0  0  0  0  0  0
   56.3076   29.2343   45.5413 H   0  0  0  0  0  0  0  0  0  0  0  0
  1  2  2  0
  2  3  1  0
  3  4  2  0
  3  5  1  0
  5  6  1  0
  6  7  2  0
  7  8  1  0
  8  9  2  0
  9 10  1  0
 10 11  1  0
 11 12  2  0
 11 13  2  0
 11 14  1  0
 14 15  1  0
 15 16  1  0
 16 17  1  0
 17 18  2  0
 18 19  1  0
 19 20  2  0
 20 21  1  0
 21 22  2  0
 10 23  2  0
 23  6  1  0
 22 14  1  0
 22 17  1  0
  1 24  1  0
  1 25  1  0
  2 26  1  0
  7 27  1  0
  8 28  1  0
  9 29  1  0
 15 30  1  0
 15 31  1  0
 16 32  1  0
 16 33  1  0
 18 34  1  0
 19 35  1  0
 20 36  1  0
 21 37  1  0
 23 38  1  0
M  CHG  1   5  -1
M  END
>  <UniqueID>  (4) 
4

>  <SMILES>  (4) 
C=CC(=O)[N-]c1cccc(S(=O)(=O)N2CCc3ccccc32)c1

>  <Energy>  (4) 
59.604748026718596

>  <Genealogy>  (4) 
C=CC(=O)[N-]c1cccc(S(=O)(=O)N2CCc3ccccc32)c1 (protonated)
C=CC(=O)[N-]c1cccc(S(=O)(=O)N2CCc3ccccc32)c1 (3D coordinates assigned)
C=CC(=O)[N-]c1cccc(S(=O)(=O)N2CCc3ccccc32)c1 (nonaromatic ring conformer: 59.604748026718596 kcal/mol)

>  <smiles>  (4) 
C=CC(=O)Nc1cccc(S(=O)(=O)N2CCc3ccccc32)c1

>  <score_type>  (4) 
oracle

>  <origin>  (4) 
adg

>  <m_score__min__energy>  (4) 
-10.470000000000001

>  <m_primary>  (4) 
energy

$$$$
4:0
     RDKit          3D

 47 49  0  0  1  0  0  0  0  0999 V2000
   63.6800   31.8070   46.7880 N   0  0  0  0  0  0  0  0  0  0  0  0
   63.3580   33.4480   47.1710 S   0  0  0  0  0  0  0  0  0  0  0  0
   63.7250   34.3170   45.9800 O   0  0  0  0  0  0  0  0  0  0  0  0
   64.2340   33.8260   48.3360 O   0  0  0  0  0  0  0  0  0  0  0  0
   61.6620   33.7420   47.5020 C   0  0  0  0  0  0  0  0  0  0  0  0
   61.2090   34.0740   48.7710 C   0  0  0  0  0  0  0  0  0  0  0  0
   59.8470   34.2910   48.9560 C   0  0  0  0  0  0  0  0  0  0  0  0
   58.9760   34.1740   47.8820 C   0  0  0  0  0  0  0  0  0  0  0  0
   59.4320   33.8410   46.6100 C   0  0  0  0  0  0  0  0  0  0  0  0
   58.4870   33.7370   45.5530 N   0  0  0  0  0  0  0  0  0  0  0  0
   58.2980   32.6460   44.8910 C   0  0  0  0  0  0  0  0  0  0  0  0
   57.8380   32.7740   43.5920 C   0  0  0  0  0  0  0  0  0  0  0  0
   57.6410   31.5850   42.8960 C   0  0  0  0  0  0  0  0  0  0  0  0
   57.8980   30.4080   43.4920 N   0  0  0  0  0  0  0  0  0  0  0  0
   58.3450   30.3190   44.7580 C   0  0  0  0  0  0  0  0  0  0  0  0
   58.5620   29.1520   45.2300 N   0  0  0  0  0  0  0  0  0  0  0  0
   59.7370   28.6770   45.8820 C   0  0  0  0  0  0  0  0  0  0  0  0
   60.4070   29.5890   46.8050 C   0  0  0  0  0  0  0  0  0  0  0  0
   60.9110   30.6540   46.2920 O   0  0  0  0  0  0  0  0  0  0  0  0
   60.5750   29.4540   48.2010 N   0  0  0  0  0  0  0  0  0  0  0  0
   61.3220   30.5560   48.8420 C   0  0  0  0  0  0  0  0  0  0  0  0
   61.0180   30.6370   50.2930 C   0  0  0  0  0  0  0  0  0  0  0  0
   61.1610   29.3610   50.8590 O   0  0  0  0  0  0  0  0  0  0  0  0
   60.0210   28.6620   50.4740 C   0  0  0  0  0  0  0  0  0  0  0  0
   60.0780   28.3570   48.9910 C   0  0  0  0  0  0  0  0  0  0  0  0
   58.5480   31.4550   45.4660 N   0  0  0  0  0  0  0  0  0  0  0  0
   60.7850   33.6270   46.4390 C   0  0  0  0  0  0  0  0  0  0  0  0
   64.5100   31.4360   47.2710 H   0  0  0  0  0  0  0  0  0  0  0  0
   62.8400   31.2420   47.0440 H   0  0  0  0  0  0  0  0  0  0  0  0
   61.9116   34.1637   49.6126 H   0  0  0  0  0  0  0  0  0  0  0  0
   59.4614   34.5548   49.9519 H   0  0  0  0  0  0  0  0  0  0  0  0
   57.9014   34.3483   48.0396 H   0  0  0  0  0  0  0  0  0  0  0  0
   57.6401   33.7559   43.1373 H   0  0  0  0  0  0  0  0  0  0  0  0
   57.2752   31.6085   41.8589 H   0  0  0  0  0  0  0  0  0  0  0  0
   57.7290   29.5540   42.9220 H   0  0  0  0  0  0  0  0  0  0  0  0
   59.4584   27.7775   46.4505 H   0  0  0  0  0  0  0  0  0  0  0  0
   60.4624   28.5129   45.0715 H   0  0  0  0  0  0  0  0  0  0  0  0
   62.4003   30.3830   48.7103 H   0  0  0  0  0  0  0  0  0  0  0  0
   61.0209   31.5025   48.3693 H   0  0  0  0  0  0  0  0  0  0  0  0
   61.7150   31.3363   50.7779 H   0  0  0  0  0  0  0  0  0  0  0  0
   59.9886   30.9963   50.4387 H   0  0  0  0  0  0  0  0  0  0  0  0
   59.9635   27.7194   51.0381 H   0  0  0  0  0  0  0  0  0  0  0  0
   59.1325   29.2759   50.6831 H   0  0  0  0  0  0  0  0  0  0  0  0
   60.7376   27.4901   48.8382 H   0  0  0  0  0  0  0  0  0  0  0  0
   59.0479   28.1585   48.6601 H   0  0  0  0  0  0  0  0  0  0  0  0
   58.8920   31.4050   46.4410 H   0  0  0  0  0  0  0  0  0  0  0  0
   61.1707   33.3614   45.4437 H   0  0  0  0  0  0  0  0  0  0  0  0
  1  2  1  0
  2  3  2  0
  2  4  2  0
  2  5  1  0
  5  6  2  0
  6  7  1  0
  7  8  2  0
  8  9  1  0
  9 10  1  0
 10 11  2  0
 11 12  1  0
 12 13  2  0
 13 14  1  0
 14 15  1  0
 15 16  2  0
 16 17  1  0
 17 18  1  0
 18 19  2  0
 18 20  1  0
 20 21  1  0
 21 22  1  0
 22 23  1  0
 23 24  1  0
 24 25  1  0
 15 26  1  0
  9 27  2  0
 27  5  1  0
 26 11  1  0
 25 20  1  0
  1 28  1  0
  1 29  1  0
  6 30  1  0
  7 31  1  0
  8 32  1  0
 12 33  1  0
 13 34  1  0
 14 35  1  0
 17 36  1  0
 17 37  1  0
 21 38  1  0
 21 39  1  0
 22 40  1  0
 22 41  1  0
 24 42  1  0
 24 43  1  0
 25 44  1  0
 25 45  1  0
 26 46  1  0
 27 47  1  0
M  END
>  <smiles>  (5) 
NS(=O)(=O)c1cccc(N=c2cc[nH]c(=NCC(=O)N3CCOCC3)[nH]2)c1

>  <score_type>  (5) 
oracle

>  <origin>  (5) 
adg

>  <m_score__min__energy>  (5) 
-9.4399999999999995

>  <m_primary>  (5) 
energy

$$$$
5:0
     RDKit          3D

 23 24  0  0  0  0  0  0  0  0999 V2000
   60.3812   29.1280   44.9755 H   0  0  0  0  0  0  0  0  0  0  0  0
   59.7040   28.3210   45.2920 C   0  0  0  0  0  0  0  0  0  0  0  0
   60.1159   27.3633   45.6429 H   0  0  0  0  0  0  0  0  0  0  0  0
   58.3740   28.5050   45.2500 C   0  0  0  0  0  0  0  0  0  0  0  0
   57.6100   27.4560   45.6590 N   0  0  0  0  0  0  0  0  0  0  0  0
   56.2600   27.4900   45.6290 C   0  0  0  0  0  0  0  0  0  0  0  0
   55.5960   26.4920   46.0110 O   0  0  0  0  0  0  0  0  0  0  0  0
   55.6240   28.5990   45.1950 N   0  0  0  0  0  0  0  0  0  0  0  0
   56.3060   29.6950   44.7800 C   0  0  0  0  0  0  0  0  0  0  0  0
   55.6390   30.7110   44.4530 O   0  0  0  0  0  0  0  0  0  0  0  0
   57.7330   29.6970   44.7700 C   0  0  0  0  0  0  0  0  0  0  0  0
   58.4520   30.7870   44.3700 C   0  0  0  0  0  0  0  0  0  0  0  0
   59.0366   30.6879   43.4435 H   0  0  0  0  0  0  0  0  0  0  0  0
   58.5160   32.0880   45.0690 C   0  0  0  0  0  0  0  0  0  0  0  0
   57.8420   33.1980   44.5430 C   0  0  0  0  0  0  0  0  0  0  0  0
   57.3054   33.1120   43.5866 H   0  0  0  0  0  0  0  0  0  0  0  0
   57.8500   34.3820   45.2130 N   0  0  0  0  0  0  0  0  0  0  0  0
   58.4850   34.5240   46.4060 C   0  0  0  0  0  0  0  0  0  0  0  0
   58.4799   35.4973   46.9186 H   0  0  0  0  0  0  0  0  0  0  0  0
   59.1440   33.4360   46.9820 C   0  0  0  0  0  0  0  0  0  0  0  0
   59.6537   33.5442   47.9508 H   0  0  0  0  0  0  0  0  0  0  0  0
   59.1490   32.2110   46.3160 C   0  0  0  0  0  0  0  0  0  0  0  0
   59.6487   31.3413   46.7675 H   0  0  0  0  0  0  0  0  0  0  0  0
  1  2  1  0
  2  3  1  0
  2  4  2  0
  4  5  1  0
  5  6  1  0
  6  7  2  0
  6  8  1  0
  8  9  1  0
  9 10  2  0
  9 11  1  0
 11 12  2  0
 12 13  1  0
 12 14  1  0
 14 15  2  0
 15 16  1  0
 15 17  1  0
 17 18  2  0
 18 19  1  0
 18 20  1  0
 20 21  1  0
 20 22  2  0
 22 23  1  0
 11  4  1  0
 22 14  1  0
M  CHG  2   5  -1   8  -1
M  END
>  <UniqueID>  (6) 
5

>  <SMILES>  (6) 
C=c1[n-]c(=O)[n-]c(=O)/c1=C\c1cccnc1

>  <Energy>  (6) 
46.22487257542988

>  <Genealogy>  (6) 
C=c1[n-]c(=O)[n-]c(=O)c1=Cc1cccnc1 (protonated)
C=c1[n-]c(=O)[n-]c(=O)/c1=C\c1cccnc1 (cis-trans isomerization)
C=c1[n-]c(=O)[n-]c(=O)/c1=C\c1cccnc1 (3D coordinates assigned)
C=c1[n-]c(=O)[n-]c(=O)/c1=C\c1cccnc1 (optimized conformer: 46.22487257542988 kcal/mol)

>  <smiles>  (6) 
C=c1[nH]c(=O)[nH]c(=O)c1=Cc1cccnc1

>  <score_type>  (6) 
oracle

>  <origin>  (6) 
adg

>  <m_score__min__energy>  (6) 
-11.300000000000001

>  <m_primary>  (6) 
energy

$$$$
6:0
     RDKit          3D

 44 46  0  0  0  0  0  0  0  0999 V2000
   56.7150   26.6120   45.5110 O   0  0  0  0  0  0  0  0  0  0  0  0
   56.9110   27.8490   45.6370 C   0  0  0  0  0  0  0  0  0  0  0  0
   55.8610   28.7470   45.2450 N   0  0  0  0  0  0  0  0  0  0  0  0
   55.9160   29.7550   44.1890 C   0  0  0  0  0  0  0  0  0  0  0  0
   57.2840   30.4540   44.1700 C   0  0  0  0  0  0  0  0  0  0  0  0
   57.2450   31.7450   44.8900 N   0  0  0  0  0  0  0  0  0  0  0  0
   58.0400   31.6610   46.1300 C   0  0  0  0  0  0  0  0  0  0  0  0
   57.9570   32.9910   46.9080 C   0  0  0  0  0  0  0  0  0  0  0  0
   57.3940   34.0390   46.1390 O   0  0  0  0  0  0  0  0  0  0  0  0
   58.0420   34.1120   44.8860 C   0  0  0  0  0  0  0  0  0  0  0  0
   57.7400   32.8560   44.0450 C   0  0  0  0  0  0  0  0  0  0  0  0
   58.1900   28.3010   46.2210 C   0  0  0  0  0  0  0  0  0  0  0  0
   58.3870   28.8120   47.4910 C   0  0  0  0  0  0  0  0  0  0  0  0
   59.7310   29.1250   47.5760 C   0  0  0  0  0  0  0  0  0  0  0  0
   60.4260   29.7000   48.7430 C   0  0  0  0  0  0  0  0  0  0  0  0
   61.1570   28.9630   49.4580 O   0  0  0  0  0  0  0  0  0  0  0  0
   60.3010   31.1340   49.0760 C   0  0  0  0  0  0  0  0  0  0  0  0
   61.1880   32.0730   48.5070 C   0  0  0  0  0  0  0  0  0  0  0  0
   62.4570   31.5830   47.3870 Cl  0  0  0  0  0  0  0  0  0  0  0  0
   61.0530   33.4340   48.8040 C   0  0  0  0  0  0  0  0  0  0  0  0
   60.0440   33.8710   49.6620 C   0  0  0  0  0  0  0  0  0  0  0  0
   59.1680   32.9500   50.2370 C   0  0  0  0  0  0  0  0  0  0  0  0
   59.2900   31.5850   49.9550 C   0  0  0  0  0  0  0  0  0  0  0  0
   58.1870   30.4680   50.7530 Cl  0  0  0  0  0  0  0  0  0  0  0  0
   60.2920   28.8220   46.3520 C   0  0  0  0  0  0  0  0  0  0  0  0
   59.3480   28.3280   45.5300 N   0  0  0  0  0  0  0  0  0  0  0  0
   55.7466   29.2683   43.2172 H   0  0  0  0  0  0  0  0  0  0  0  0
   55.1384   30.5089   44.3815 H   0  0  0  0  0  0  0  0  0  0  0  0
   58.0261   29.7995   44.6504 H   0  0  0  0  0  0  0  0  0  0  0  0
   57.5550   30.6520   43.1224 H   0  0  0  0  0  0  0  0  0  0  0  0
   57.6482   30.8476   46.7583 H   0  0  0  0  0  0  0  0  0  0  0  0
   59.0902   31.4625   45.8700 H   0  0  0  0  0  0  0  0  0  0  0  0
   57.3354   32.8375   47.8024 H   0  0  0  0  0  0  0  0  0  0  0  0
   58.9831   33.2865   47.1721 H   0  0  0  0  0  0  0  0  0  0  0  0
   57.6866   35.0023   44.3465 H   0  0  0  0  0  0  0  0  0  0  0  0
   59.1276   34.1754   45.0514 H   0  0  0  0  0  0  0  0  0  0  0  0
   56.9745   33.1034   43.2948 H   0  0  0  0  0  0  0  0  0  0  0  0
   58.6726   32.5323   43.5597 H   0  0  0  0  0  0  0  0  0  0  0  0
   57.6272   28.9430   48.2756 H   0  0  0  0  0  0  0  0  0  0  0  0
   61.7462   34.1627   48.3585 H   0  0  0  0  0  0  0  0  0  0  0  0
   59.9388   34.9429   49.8855 H   0  0  0  0  0  0  0  0  0  0  0  0
   58.3764   33.2991   50.9163 H   0  0  0  0  0  0  0  0  0  0  0  0
   61.3506   28.9630   46.0883 H   0  0  0  0  0  0  0  0  0  0  0  0
   59.4940   28.0200   44.5430 H   0  0  0  0  0  0  0  0  0  0  0  0
  1  2  2  0
  2  3  1  0
  3  4  1  0
  4  5  1  0
  5  6  1  0
  6  7  1  0
  7  8  1  0
  8  9  1  0
  9 10  1  0
 10 11  1  0
  2 12  1  0
 12 13  2  0
 13 14  1  0
 14 15  1  0
 15 16  2  0
 15 17  1  0
 17 18  2  0
 18 19  1  0
 18 20  1  0
 20 21  2  0
 21 22  1  0
 22 23  2  0
 23 24  1  0
 14 25  2  0
 25 26  1  0
 11  6  1  0
 26 12  1  0
 23 17  1  0
  4 27  1  0
  4 28  1  0
  5 29  1  0
  5 30  1  0
  7 31  1  0
  7 32  1  0
  8 33  1  0
  8 34  1  0
 10 35  1  0
 10 36  1  0
 11 37  1  0
 11 38  1  0
 13 39  1  0
 20 40  1  0
 21 41  1  0
 22 42  1  0
 25 43  1  0
 26 44  1  0
M  CHG  1   3  -1
M  END
>  <UniqueID>  (7) 
6

>  <SMILES>  (7) 
O=C([N-]CCN1CCOCC1)c1cc(C(=O)c2c(Cl)cccc2Cl)c[nH]1

>  <Energy>  (7) 
90.48491234126014

>  <Genealogy>  (7) 
O=C([N-]CCN1CCOCC1)c1cc(C(=O)c2c(Cl)cccc2Cl)c[nH]1 (protonated)
O=C([N-]CCN1CCOCC1)c1cc(C(=O)c2c(Cl)cccc2Cl)c[nH]1 (3D coordinates assigned)
O=C([N-]CCN1CCOCC1)c1cc(C(=O)c2c(Cl)cccc2Cl)c[nH]1 (nonaromatic ring conformer: 90.48491234126014 kcal/mol)

>  <smiles>  (7) 
O=C(NCCN1CCOCC1)c1cc(C(=O)c2c(Cl)cccc2Cl)c[nH]1

>  <score_type>  (7) 
oracle

>  <origin>  (7) 
adg

>  <m_score__min__energy>  (7) 
-11.34

>  <m_primary>  (7) 
energy

$$$$
7:0
     RDKit          3D

 44 46  0  0  0  0  0  0  0  0999 V2000
   54.4260   25.1470   45.6180 C   0  0  0  0  0  0  0  0  0  0  0  0
   55.1460   26.3350   45.9240 O   0  0  0  0  0  0  0  0  0  0  0  0
   56.5480   26.4230   46.0050 C   0  0  0  0  0  0  0  0  0  0  0  0
   57.3400   25.2920   46.2710 C   0  0  0  0  0  0  0  0  0  0  0  0
   58.7170   25.4170   46.4240 C   0  0  0  0  0  0  0  0  0  0  0  0
   59.3290   26.6630   46.3030 C   0  0  0  0  0  0  0  0  0  0  0  0
   58.5720   27.8110   46.0090 C   0  0  0  0  0  0  0  0  0  0  0  0
   59.2740   29.1180   45.8420 C   0  0  0  0  0  0  0  0  0  0  0  0
   59.4600   29.6090   44.6950 O   0  0  0  0  0  0  0  0  0  0  0  0
   59.7550   29.8270   46.9930 N   0  0  0  0  0  0  0  0  0  0  0  0
   59.5760   31.2620   47.1810 C   0  0  0  0  0  0  0  0  0  0  0  0
   60.9120   31.9480   47.1820 C   0  0  0  0  0  0  0  0  0  0  0  0
   62.0550   31.2820   47.6510 C   0  0  0  0  0  0  0  0  0  0  0  0
   63.2960   31.9240   47.5890 C   0  0  0  0  0  0  0  0  0  0  0  0
   63.3880   33.2130   47.0600 C   0  0  0  0  0  0  0  0  0  0  0  0
   62.2310   33.8440   46.5960 C   0  0  0  0  0  0  0  0  0  0  0  0
   61.0310   33.2030   46.6610 N   0  0  0  0  0  0  0  0  0  0  0  0
   57.1670   27.6830   45.8480 C   0  0  0  0  0  0  0  0  0  0  0  0
   56.3730   28.8460   45.5790 N   0  0  0  0  0  0  0  0  0  0  0  0
   56.2360   29.5970   44.0210 S   0  0  0  0  0  0  0  0  0  0  0  0
   54.7840   29.7610   43.6630 O   0  0  0  0  0  0  0  0  0  0  0  0
   56.9100   28.7510   42.9750 O   0  0  0  0  0  0  0  0  0  0  0  0
   57.0410   31.1610   44.0870 C   0  0  0  0  0  0  0  0  0  0  0  0
   57.7550   31.6330   42.9770 C   0  0  0  0  0  0  0  0  0  0  0  0
   58.4090   32.8660   43.0420 C   0  0  0  0  0  0  0  0  0  0  0  0
   58.3420   33.6140   44.2220 C   0  0  0  0  0  0  0  0  0  0  0  0
   57.6530   33.1360   45.2940 N   0  0  0  0  0  0  0  0  0  0  0  0
   57.0110   31.9360   45.2550 C   0  0  0  0  0  0  0  0  0  0  0  0
   54.1248   24.6500   46.5519 H   0  0  0  0  0  0  0  0  0  0  0  0
   53.5301   25.4017   45.0327 H   0  0  0  0  0  0  0  0  0  0  0  0
   55.0663   24.4707   45.0327 H   0  0  0  0  0  0  0  0  0  0  0  0
   56.8679   24.3024   46.3586 H   0  0  0  0  0  0  0  0  0  0  0  0
   59.3261   24.5273   46.6417 H   0  0  0  0  0  0  0  0  0  0  0  0
   60.4171   26.7496   46.4391 H   0  0  0  0  0  0  0  0  0  0  0  0
   58.9606   31.6632   46.3622 H   0  0  0  0  0  0  0  0  0  0  0  0
   59.0760   31.4415   48.1442 H   0  0  0  0  0  0  0  0  0  0  0  0
   61.9755   30.2653   48.0632 H   0  0  0  0  0  0  0  0  0  0  0  0
   64.1987   31.4140   47.9566 H   0  0  0  0  0  0  0  0  0  0  0  0
   64.3599   33.7256   47.0092 H   0  0  0  0  0  0  0  0  0  0  0  0
   62.2893   34.8597   46.1777 H   0  0  0  0  0  0  0  0  0  0  0  0
   57.8004   31.0334   42.0559 H   0  0  0  0  0  0  0  0  0  0  0  0
   58.9703   33.2442   42.1749 H   0  0  0  0  0  0  0  0  0  0  0  0
   58.8466   34.5895   44.2836 H   0  0  0  0  0  0  0  0  0  0  0  0
   56.4682   31.5742   46.1407 H   0  0  0  0  0  0  0  0  0  0  0  0
  1  2  1  0
  2  3  1  0
  3  4  2  0
  4  5  1  0
  5  6  2  0
  6  7  1  0
  7  8  1  0
  8  9  2  0
  8 10  1  0
 10 11  1  0
 11 12  1  0
 12 13  2  0
 13 14  1  0
 14 15  2  0
 15 16  1  0
 16 17  2  0
  7 18  2  0
 18 19  1  0
 19 20  1  0
 20 21  2  0
 20 22  2  0
 20 23  1  0
 23 24  2  0
 24 25  1  0
 25 26  2  0
 26 27  1  0
 27 28  2  0
 18  3  1  0
 28 23  1  0
 17 12  1  0
  1 29  1  0
  1 30  1  0
  1 31  1  0
  4 32  1  0
  5 33  1  0
  6 34  1  0
 11 35  1  0
 11 36  1  0
 13 37  1  0
 14 38  1  0
 15 39  1  0
 16 40  1  0
 24 41  1  0
 25 42  1  0
 26 43  1  0
 28 44  1  0
M  CHG  2  10  -1  19  -1
M  END
>  <UniqueID>  (8) 
7

>  <SMILES>  (8) 
COc1cccc(C(=O)[N-]Cc2ccccn2)c1[N-]S(=O)(=O)c1cccnc1

>  <Energy>  (8) 
55.49788171841205

>  <Genealogy>  (8) 
COc1cccc(C(=O)[N-]Cc2ccccn2)c1[N-]S(=O)(=O)c1cccnc1 (protonated)
COc1cccc(C(=O)[N-]Cc2ccccn2)c1[N-]S(=O)(=O)c1cccnc1 (3D coordinates assigned)
COc1cccc(C(=O)[N-]Cc2ccccn2)c1[N-]S(=O)(=O)c1cccnc1 (optimized conformer: 55.49788171841205 kcal/mol)

>  <smiles>  (8) 
COc1cccc(C(=O)NCc2ccccn2)c1NS(=O)(=O)c1cccnc1

>  <score_type>  (8) 
oracle

>  <origin>  (8) 
adg

>  <m_score__min__energy>  (8) 
-11.880000000000001

>  <m_primary>  (8) 
energy

$$$$
8:0
     RDKit          3D

 49 51  0  0  0  0  0  0  0  0999 V2000
   57.7080   22.0390   47.4760 H   0  0  0  0  0  0  0  0  0  0  0  0
   57.3440   22.8290   48.0540 N   0  0  0  0  0  0  0  0  0  0  0  0
   57.0000   23.9580   47.5220 C   0  0  0  0  0  0  0  0  0  0  0  0
   57.8070   25.0440   47.6690 N   0  0  0  0  0  0  0  0  0  0  0  0
   57.5120   26.2490   47.1110 C   0  0  0  0  0  0  0  0  0  0  0  0
   58.4300   27.3970   47.3230 C   0  0  0  0  0  0  0  0  0  0  0  0
   59.5750   27.2810   48.1340 C   0  0  0  0  0  0  0  0  0  0  0  0
   59.8093   26.3198   48.6148 H   0  0  0  0  0  0  0  0  0  0  0  0
   60.4160   28.3800   48.3320 C   0  0  0  0  0  0  0  0  0  0  0  0
   61.3045   28.2820   48.9731 H   0  0  0  0  0  0  0  0  0  0  0  0
   60.1320   29.6010   47.7190 C   0  0  0  0  0  0  0  0  0  0  0  0
   60.7920   30.4651   47.8854 H   0  0  0  0  0  0  0  0  0  0  0  0
   59.0080   29.7290   46.8920 C   0  0  0  0  0  0  0  0  0  0  0  0
   58.6840   30.9770   46.2660 N   0  0  0  0  0  0  0  0  0  0  0  0
   57.7290   31.1630   45.2130 C   0  0  0  0  0  0  0  0  0  0  0  0
   56.9630   32.1620   45.2600 O   0  0  0  0  0  0  0  0  0  0  0  0
   57.5490   30.1570   44.1080 C   0  0  0  0  0  0  0  0  0  0  0  0
   57.8374   30.6160   43.1509 H   0  0  0  0  0  0  0  0  0  0  0  0
   58.1832   29.2830   44.3176 H   0  0  0  0  0  0  0  0  0  0  0  0
   56.1230   29.7100   44.0290 C   0  0  0  0  0  0  0  0  0  0  0  0
   55.5140   29.7370   42.9260 O   0  0  0  0  0  0  0  0  0  0  0  0
   55.4440   29.2750   45.2040 N   0  0  0  0  0  0  0  0  0  0  0  0
   54.4060   29.3520   45.2840 H   0  0  0  0  0  0  0  0  0  0  0  0
   58.1470   28.6390   46.7230 C   0  0  0  0  0  0  0  0  0  0  0  0
   57.2381   28.7538   46.1141 H   0  0  0  0  0  0  0  0  0  0  0  0
   56.3290   26.3670   46.3660 C   0  0  0  0  0  0  0  0  0  0  0  0
   56.0610   27.3277   45.9020 H   0  0  0  0  0  0  0  0  0  0  0  0
   55.5170   25.2890   46.2210 N   0  0  0  0  0  0  0  0  0  0  0  0
   55.8070   24.0850   46.7820 C   0  0  0  0  0  0  0  0  0  0  0  0
   54.8410   22.9340   46.5880 C   0  0  0  0  0  0  0  0  0  0  0  0
   54.9837   22.2221   47.4143 H   0  0  0  0  0  0  0  0  0  0  0  0
   53.8317   23.3710   46.5681 H   0  0  0  0  0  0  0  0  0  0  0  0
   55.0180   22.1680   45.2520 C   0  0  0  0  0  0  0  0  0  0  0  0
   54.0748   21.6262   45.0883 H   0  0  0  0  0  0  0  0  0  0  0  0
   56.1350   21.0930   45.3340 C   0  0  0  0  0  0  0  0  0  0  0  0
   56.9887   21.5047   45.8922 H   0  0  0  0  0  0  0  0  0  0  0  0
   55.7286   20.2071   45.8439 H   0  0  0  0  0  0  0  0  0  0  0  0
   56.6060   20.6750   43.9380 C   0  0  0  0  0  0  0  0  0  0  0  0
   57.3628   19.8831   44.0388 H   0  0  0  0  0  0  0  0  0  0  0  0
   55.7331   20.3146   43.3739 H   0  0  0  0  0  0  0  0  0  0  0  0
   57.2220   21.8610   43.1680 C   0  0  0  0  0  0  0  0  0  0  0  0
   58.3039   21.8801   43.3660 H   0  0  0  0  0  0  0  0  0  0  0  0
   56.9947   21.7074   42.1027 H   0  0  0  0  0  0  0  0  0  0  0  0
   56.6290   23.2290   43.5650 C   0  0  0  0  0  0  0  0  0  0  0  0
   57.2238   23.6498   44.3891 H   0  0  0  0  0  0  0  0  0  0  0  0
   56.6588   23.8849   42.6825 H   0  0  0  0  0  0  0  0  0  0  0  0
   55.1690   23.1040   44.0190 C   0  0  0  0  0  0  0  0  0  0  0  0
   54.7931   24.1032   44.2840 H   0  0  0  0  0  0  0  0  0  0  0  0
   54.5925   22.6678   43.1899 H   0  0  0  0  0  0  0  0  0  0  0  0
  1  2  1  0
  2  3  2  0
  3  4  1  0
  4  5  1  0
  5  6  1  0
  6  7  2  0
  7  8  1  0
  7  9  1  0
  9 10  1  0
  9 11  2  0
 11 12  1  0
 11 13  1  0
 13 14  1  0
 14 15  1  0
 15 16  2  0
 15 17  1  0
 17 18  1  0
 17 19  1  0
 17 20  1  0
 20 21  2  0
 20 22  1  0
 22 23  1  0
 13 24  2  0
 24 25  1  0
  5 26  2  0
 26 27  1  0
 26 28  1  0
 28 29  2  0
 29 30  1  0
 30 31  1  0
 30 32  1  0
 30 33  1  0
 33 34  1  0
 33 35  1  0
 35 36  1  0
 35 37  1  0
 35 38  1  0
 38 39  1  0
 38 40  1  0
 38 41  1  0
 41 42  1  0
 41 43  1  0
 41 44  1  0
 44 45  1  0
 44 46  1  0
 44 47  1  0
 47 48  1  0
 47 49  1  0
 29  3  1  0
 47 33  1  0
 24  6  1  0
M  CHG  3   4  -1  14  -1  22  -1
M  END
>  <UniqueID>  (9) 
8

>  <SMILES>  (9) 
[H]/N=c1\[n-]c(-c2cccc([N-]C(=O)CC([NH-])=O)c2)cnc1CC1CCCCC1

>  <Energy>  (9) 
60.769900366361504

>  <Genealogy>  (9) 
N=c1[n-]c(-c2cccc([N-]C(=O)CC([NH-])=O)c2)cnc1CC1CCCCC1 (protonated)
[H]/N=c1\[n-]c(-c2cccc([N-]C(=O)CC([NH-])=O)c2)cnc1CC1CCCCC1 (cis-trans isomerization)
[H]/N=c1\[n-]c(-c2cccc([N-]C(=O)CC([NH-])=O)c2)cnc1CC1CCCCC1 (3D coordinates assigned)
[H]/N=c1\[n-]c(-c2cccc([N-]C(=O)CC([NH-])=O)c2)cnc1CC1CCCCC1 (nonaromatic ring conformer: 60.769900366361504 kcal/mol)

>  <smiles>  (9) 
N=c1[nH]c(-c2cccc(NC(=O)CC(N)=O)c2)cnc1CC1CCCCC1

>  <score_type>  (9) 
oracle

>  <origin>  (9) 
adg

>  <m_score__min__energy>  (9) 
-15.19

>  <m_primary>  (9) 
energy

$$$$
9:0
     RDKit          3D

 59 62  0  0  0  0  0  0  0  0999 V2000
   54.7298   28.3853   53.6576 H   0  0  0  0  0  0  0  0  0  0  0  0
   54.9010   29.1700   52.9060 C   0  0  0  0  0  0  0  0  0  0  0  0
   56.0640   29.2710   52.3450 N   0  0  0  0  0  0  0  0  0  0  0  0
   56.9220   30.7720   52.3040 S   0  0  0  0  0  0  0  0  0  0  0  0
   57.3350   31.1450   53.7000 O   0  0  0  0  0  0  0  0  0  0  0  0
   56.0250   31.8510   51.7660 O   0  0  0  0  0  0  0  0  0  0  0  0
   58.3600   30.6040   51.3000 C   0  0  0  0  0  0  0  0  0  0  0  0
   59.1150   31.7310   50.9510 C   0  0  0  0  0  0  0  0  0  0  0  0
   58.8220   32.7246   51.3211 H   0  0  0  0  0  0  0  0  0  0  0  0
   60.2390   31.5950   50.1340 C   0  0  0  0  0  0  0  0  0  0  0  0
   60.8296   32.4822   49.8618 H   0  0  0  0  0  0  0  0  0  0  0  0
   60.6160   30.3350   49.6610 C   0  0  0  0  0  0  0  0  0  0  0  0
   61.4986   30.2353   49.0121 H   0  0  0  0  0  0  0  0  0  0  0  0
   59.8720   29.1940   50.0110 C   0  0  0  0  0  0  0  0  0  0  0  0
   60.2580   27.8540   49.5090 C   0  0  0  0  0  0  0  0  0  0  0  0
   61.1090   27.1770   50.1440 O   0  0  0  0  0  0  0  0  0  0  0  0
   59.6520   27.2750   48.3440 N   0  0  0  0  0  0  0  0  0  0  0  0
   59.6720   27.8240   47.0190 C   0  0  0  0  0  0  0  0  0  0  0  0
   60.7670   27.6320   46.1570 C   0  0  0  0  0  0  0  0  0  0  0  0
   61.6406   27.0580   46.4995 H   0  0  0  0  0  0  0  0  0  0  0  0
   60.7480   28.1680   44.8680 C   0  0  0  0  0  0  0  0  0  0  0  0
   61.6114   28.0248   44.2016 H   0  0  0  0  0  0  0  0  0  0  0  0
   59.6350   28.8860   44.4220 C   0  0  0  0  0  0  0  0  0  0  0  0
   59.6273   29.3135   43.4085 H   0  0  0  0  0  0  0  0  0  0  0  0
   58.5290   29.0620   45.2640 C   0  0  0  0  0  0  0  0  0  0  0  0
   57.1140   29.9490   44.6910 S   0  0  0  0  0  0  0  0  0  0  0  0
   57.0410   29.8560   43.1920 O   0  0  0  0  0  0  0  0  0  0  0  0
   55.8730   29.3160   45.2560 O   0  0  0  0  0  0  0  0  0  0  0  0
   57.1710   31.6290   45.1690 N   0  0  0  0  0  0  0  0  0  0  0  0
   57.9930   31.7890   46.3790 C   0  0  0  0  0  0  0  0  0  0  0  0
   57.6644   31.0651   47.1393 H   0  0  0  0  0  0  0  0  0  0  0  0
   59.0476   31.6120   46.1211 H   0  0  0  0  0  0  0  0  0  0  0  0
   57.8470   33.2170   46.9400 C   0  0  0  0  0  0  0  0  0  0  0  0
   57.0964   33.2052   47.7440 H   0  0  0  0  0  0  0  0  0  0  0  0
   58.8328   33.5326   47.3121 H   0  0  0  0  0  0  0  0  0  0  0  0
   57.4060   34.2280   45.8680 C   0  0  0  0  0  0  0  0  0  0  0  0
   56.3101   34.2006   45.7775 H   0  0  0  0  0  0  0  0  0  0  0  0
   57.7438   35.2297   46.1723 H   0  0  0  0  0  0  0  0  0  0  0  0
   58.0280   33.8970   44.5100 C   0  0  0  0  0  0  0  0  0  0  0  0
   57.6401   34.6017   43.7597 H   0  0  0  0  0  0  0  0  0  0  0  0
   59.1206   33.9816   44.6053 H   0  0  0  0  0  0  0  0  0  0  0  0
   57.6960   32.4560   44.0610 C   0  0  0  0  0  0  0  0  0  0  0  0
   56.9399   32.4996   43.2633 H   0  0  0  0  0  0  0  0  0  0  0  0
   58.6279   31.9911   43.7068 H   0  0  0  0  0  0  0  0  0  0  0  0
   58.5510   28.5250   46.5590 C   0  0  0  0  0  0  0  0  0  0  0  0
   57.6805   28.6556   47.2187 H   0  0  0  0  0  0  0  0  0  0  0  0
   58.7320   29.3420   50.8210 C   0  0  0  0  0  0  0  0  0  0  0  0
   58.1281   28.4599   51.0802 H   0  0  0  0  0  0  0  0  0  0  0  0
   53.8010   30.0900   52.5540 C   0  0  0  0  0  0  0  0  0  0  0  0
   53.6060   30.5280   51.2290 C   0  0  0  0  0  0  0  0  0  0  0  0
   54.2816   30.1820   50.4328 H   0  0  0  0  0  0  0  0  0  0  0  0
   52.5580   31.4000   50.9220 C   0  0  0  0  0  0  0  0  0  0  0  0
   52.4107   31.7378   49.8856 H   0  0  0  0  0  0  0  0  0  0  0  0
   51.6960   31.8440   51.9300 C   0  0  0  0  0  0  0  0  0  0  0  0
   50.6550   32.7110   51.6230 O   0  0  0  0  0  0  0  0  0  0  0  0
   51.8820   31.4140   53.2470 C   0  0  0  0  0  0  0  0  0  0  0  0
   51.2036   31.7624   54.0397 H   0  0  0  0  0  0  0  0  0  0  0  0
   52.9300   30.5410   53.5580 C   0  0  0  0  0  0  0  0  0  0  0  0
   53.0723   30.2059   54.5960 H   0  0  0  0  0  0  0  0  0  0  0  0
  1  2  1  0
  2  3  2  0
  3  4  1  0
  4  5  2  0
  4  6  2  0
  4  7  1  0
  7  8  2  0
  8  9  1  0
  8 10  1  0
 10 11  1  0
 10 12  2  0
 12 13  1  0
 12 14  1  0
 14 15  1  0
 15 16  2  0
 15 17  1  0
 17 18  1  0
 18 19  2  0
 19 20  1  0
 19 21  1  0
 21 22  1  0
 21 23  2  0
 23 24  1  0
 23 25  1  0
 25 26  1  0
 26 27  2  0
 26 28  2  0
 26 29  1  0
 29 30  1  0
 30 31  1  0
 30 32  1  0
 30 33  1  0
 33 34  1  0
 33 35  1  0
 33 36  1  0
 36 37  1  0
 36 38  1  0
 36 39  1  0
 39 40  1  0
 39 41  1  0
 39 42  1  0
 42 43  1  0
 42 44  1  0
 25 45  2  0
 45 46  1  0
 14 47  2  0
 47 48  1  0
  2 49  1  0
 49 50  2  0
 50 51  1  0
 50 52  1  0
 52 53  1  0
 52 54  2  0
 54 55  1  0
 54 56  1  0
 56 57  1  0
 56 58  2  0
 58 59  1  0
 47  7  1  0
 58 49  1  0
 45 18  1  0
 42 29  1  0
M  CHG  2  17  -1  55  -1
M  END
>  <UniqueID>  (10) 
9

>  <SMILES>  (10) 
O=C([N-]c1cccc(S(=O)(=O)N2CCCCC2)c1)c1cccc(S(=O)(=O)/N=C/c2ccc([O-])cc2)c1

>  <Energy>  (10) 
73.31377803073553

>  <Genealogy>  (10) 
O=C([N-]c1cccc(S(=O)(=O)N2CCCCC2)c1)c1cccc(S(=O)(=O)N=Cc2ccc([O-])cc2)c1 (protonated)
O=C([N-]c1cccc(S(=O)(=O)N2CCCCC2)c1)c1cccc(S(=O)(=O)/N=C/c2ccc([O-])cc2)c1 (cis-trans isomerization)
O=C([N-]c1cccc(S(=O)(=O)N2CCCCC2)c1)c1cccc(S(=O)(=O)/N=C/c2ccc([O-])cc2)c1 (3D coordinates assigned)
O=C([N-]c1cccc(S(=O)(=O)N2CCCCC2)c1)c1cccc(S(=O)(=O)/N=C/c2ccc([O-])cc2)c1 (nonaromatic ring conformer: 73.31377803073553 kcal/mol)

>  <smiles>  (10) 
O=C(Nc1cccc(S(=O)(=O)N2CCCCC2)c1)c1cccc(S(=O)(=O)N=Cc2ccc(O)cc2)c1

>  <score_type>  (10) 
oracle

>  <origin>  (10) 
adg

>  <m_score__min__energy>  (10) 
-16.609999999999999

>  <m_primary>  (10) 
energy

$$$$
10:0
     RDKit          3D

 47 49  0  0  0  0  0  0  0  0999 V2000
   59.1370   34.7830   53.1770 C   0  0  0  0  0  0  0  0  0  0  0  0
   58.5870   33.5090   52.6180 C   0  0  0  0  0  0  0  0  0  0  0  0
   57.7400   32.6400   53.2770 C   0  0  0  0  0  0  0  0  0  0  0  0
   57.4680   31.6130   52.3850 C   0  0  0  0  0  0  0  0  0  0  0  0
   56.6480   30.3690   52.6780 C   0  0  0  0  0  0  0  0  0  0  0  0
   55.1390   30.6430   52.5110 C   0  0  0  0  0  0  0  0  0  0  0  0
   56.9310   29.9190   54.1160 C   0  0  0  0  0  0  0  0  0  0  0  0
   57.0240   29.3240   51.8120 O   0  0  0  0  0  0  0  0  0  0  0  0
   58.1350   31.8170   51.2290 N   0  0  0  0  0  0  0  0  0  0  0  0
   58.8170   32.9720   51.3610 C   0  0  0  0  0  0  0  0  0  0  0  0
   59.6430   33.5700   50.2920 C   0  0  0  0  0  0  0  0  0  0  0  0
   60.6810   34.2140   50.6020 O   0  0  0  0  0  0  0  0  0  0  0  0
   59.2830   33.4380   48.8670 C   0  0  0  0  0  0  0  0  0  0  0  0
   58.8260   32.2650   48.2700 C   0  0  0  0  0  0  0  0  0  0  0  0
   58.5720   32.6070   46.9590 C   0  0  0  0  0  0  0  0  0  0  0  0
   58.0940   31.8380   45.9010 C   0  0  0  0  0  0  0  0  0  0  0  0
   57.9120   32.4680   44.6460 C   0  0  0  0  0  0  0  0  0  0  0  0
   57.4230   31.7500   43.4990 N   0  0  0  0  0  0  0  0  0  0  0  0
   56.7490   30.1510   43.5630 S   0  0  0  0  0  0  0  0  0  0  0  0
   57.9690   28.9910   44.1420 C   0  0  0  0  0  0  0  0  0  0  0  0
   56.2460   29.7490   42.2050 O   0  0  0  0  0  0  0  0  0  0  0  0
   55.5950   30.1480   44.5260 O   0  0  0  0  0  0  0  0  0  0  0  0
   58.2320   33.8440   44.5070 C   0  0  0  0  0  0  0  0  0  0  0  0
   58.7100   34.5900   45.5990 C   0  0  0  0  0  0  0  0  0  0  0  0
   58.8680   33.9340   46.8150 C   0  0  0  0  0  0  0  0  0  0  0  0
   59.2990   34.4590   47.9740 N   0  0  0  0  0  0  0  0  0  0  0  0
   59.1182   34.7395   54.2760 H   0  0  0  0  0  0  0  0  0  0  0  0
   60.1732   34.9172   52.8330 H   0  0  0  0  0  0  0  0  0  0  0  0
   58.5240   35.6291   52.8330 H   0  0  0  0  0  0  0  0  0  0  0  0
   57.3577   32.7417   54.3034 H   0  0  0  0  0  0  0  0  0  0  0  0
   54.6699   30.7282   53.5023 H   0  0  0  0  0  0  0  0  0  0  0  0
   54.9960   31.5818   51.9558 H   0  0  0  0  0  0  0  0  0  0  0  0
   54.6751   29.8144   51.9558 H   0  0  0  0  0  0  0  0  0  0  0  0
   56.4808   30.6348   54.8195 H   0  0  0  0  0  0  0  0  0  0  0  0
   56.4973   28.9215   54.2801 H   0  0  0  0  0  0  0  0  0  0  0  0
   58.0179   29.8778   54.2801 H   0  0  0  0  0  0  0  0  0  0  0  0
   56.2210   28.7640   51.6440 H   0  0  0  0  0  0  0  0  0  0  0  0
   58.1090   31.2040   50.3840 H   0  0  0  0  0  0  0  0  0  0  0  0
   58.6961   31.2800   48.7422 H   0  0  0  0  0  0  0  0  0  0  0  0
   57.8642   30.7708   46.0364 H   0  0  0  0  0  0  0  0  0  0  0  0
   57.3790   32.2400   42.5790 H   0  0  0  0  0  0  0  0  0  0  0  0
   57.9758   28.9845   45.2420 H   0  0  0  0  0  0  0  0  0  0  0  0
   57.7236   27.9850   43.7709 H   0  0  0  0  0  0  0  0  0  0  0  0
   58.9614   29.2868   43.7709 H   0  0  0  0  0  0  0  0  0  0  0  0
   58.1041   34.3340   43.5305 H   0  0  0  0  0  0  0  0  0  0  0  0
   58.9512   35.6582   45.4947 H   0  0  0  0  0  0  0  0  0  0  0  0
   59.5520   35.4570   48.1480 H   0  0  0  0  0  0  0  0  0  0  0  0
  1  2  1  0
  2  3  1  0
  3  4  2  0
  4  5  1  0
  5  6  1  0
  5  7  1  0
  5  8  1  0
  4  9  1  0
  9 10  1  0
 10 11  1  0
 11 12  2  0
 11 13  1  0
 13 14  2  0
 14 15  1  0
 15 16  2  0
 16 17  1  0
 17 18  1  0
 18 19  1  0
 19 20  1  0
 19 21  2  0
 19 22  2  0
 17 23  2  0
 23 24  1  0
 24 25  2  0
 25 26  1  0
 10  2  2  0
 26 13  1  0
 25 15  1  0
  1 27  1  0
  1 28  1  0
  1 29  1  0
  3 30  1  0
  6 31  1  0
  6 32  1  0
  6 33  1  0
  7 34  1  0
  7 35  1  0
  7 36  1  0
  8 37  1  0
  9 38  1  0
 14 39  1  0
 16 40  1  0
 18 41  1  0
 20 42  1  0
 20 43  1  0
 20 44  1  0
 23 45  1  0
 24 46  1  0
 26 47  1  0
M  END
>  <UniqueID>  (11) 
10

>  <SMILES>  (11) 
Cc1cc(C(C)(C)O)[nH]c1C(=O)c1cc2cc(NS(C)(=O)=O)ccc2[nH]1

>  <Energy>  (11) 
104.64187306098384

>  <Genealogy>  (11) 
Cc1cc(C(C)(C)O)[nH]c1C(=O)c1cc2cc(NS(C)(=O)=O)ccc2[nH]1 (3D coordinates assigned)
Cc1cc(C(C)(C)O)[nH]c1C(=O)c1cc2cc(NS(C)(=O)=O)ccc2[nH]1 (optimized conformer: 104.64187306098384 kcal/mol)

>  <smiles>  (11) 
Cc1cc(C(C)(C)O)[nH]c1C(=O)c1cc2cc(NS(C)(=O)=O)ccc2[nH]1

>  <score_type>  (11) 
oracle

>  <origin>  (11) 
adg

>  <m_score__min__energy>  (11) 
-9.5099999999999998

>  <m_primary>  (11) 
energy

$$$$
11:0
     RDKit          3D

 34 36  0  0  0  0  0  0  0  0999 V2000
   59.8800   23.2670   45.6310 O   0  0  0  0  0  0  0  0  0  0  0  0
   59.5380   24.4280   45.9820 C   0  0  0  0  0  0  0  0  0  0  0  0
   60.5620   25.3540   46.3750 N   0  0  0  0  0  0  0  0  0  0  0  0
   60.3690   26.5940   46.7120 C   0  0  0  0  0  0  0  0  0  0  0  0
   60.3770   27.0440   47.9880 N   0  0  0  0  0  0  0  0  0  0  0  0
   60.1730   28.3860   48.0450 C   0  0  0  0  0  0  0  0  0  0  0  0
   60.0230   29.0030   46.8050 C   0  0  0  0  0  0  0  0  0  0  0  0
   59.7110   30.4480   46.5790 C   0  0  0  0  0  0  0  0  0  0  0  0
   58.5030   30.5810   45.6940 C   0  0  0  0  0  0  0  0  0  0  0  0
   58.3070   31.7460   44.9350 C   0  0  0  0  0  0  0  0  0  0  0  0
   57.1630   31.8860   44.1420 C   0  0  0  0  0  0  0  0  0  0  0  0
   56.2050   30.8680   44.1080 C   0  0  0  0  0  0  0  0  0  0  0  0
   56.3860   29.7080   44.8730 C   0  0  0  0  0  0  0  0  0  0  0  0
   55.4340   28.6910   44.8540 O   0  0  0  0  0  0  0  0  0  0  0  0
   57.5300   29.5680   45.6670 C   0  0  0  0  0  0  0  0  0  0  0  0
   60.1250   27.8300   45.6020 S   0  0  0  0  0  0  0  0  0  0  0  0
   58.1060   24.8100   45.9190 C   0  0  0  0  0  0  0  0  0  0  0  0
   57.3120   24.4080   44.8340 C   0  0  0  0  0  0  0  0  0  0  0  0
   55.9680   24.7840   44.7730 C   0  0  0  0  0  0  0  0  0  0  0  0
   55.4300   25.5730   45.7920 C   0  0  0  0  0  0  0  0  0  0  0  0
   54.2220   25.9200   45.7530 O   0  0  0  0  0  0  0  0  0  0  0  0
   56.2150   25.9700   46.8290 N   0  0  0  0  0  0  0  0  0  0  0  0
   57.5250   25.6150   46.9130 C   0  0  0  0  0  0  0  0  0  0  0  0
   60.1298   28.9407   48.9939 H   0  0  0  0  0  0  0  0  0  0  0  0
   59.5095   30.9327   47.5457 H   0  0  0  0  0  0  0  0  0  0  0  0
   60.5707   30.9310   46.0915 H   0  0  0  0  0  0  0  0  0  0  0  0
   59.0556   32.5514   44.9640 H   0  0  0  0  0  0  0  0  0  0  0  0
   57.0170   32.7980   43.5445 H   0  0  0  0  0  0  0  0  0  0  0  0
   55.3085   30.9779   43.4802 H   0  0  0  0  0  0  0  0  0  0  0  0
   55.1470   28.2180   45.7020 H   0  0  0  0  0  0  0  0  0  0  0  0
   57.6680   28.6603   46.2729 H   0  0  0  0  0  0  0  0  0  0  0  0
   57.7484   23.7962   44.0307 H   0  0  0  0  0  0  0  0  0  0  0  0
   55.3392   24.4616   43.9300 H   0  0  0  0  0  0  0  0  0  0  0  0
   58.1324   25.9596   47.7629 H   0  0  0  0  0  0  0  0  0  0  0  0
  1  2  2  0
  2  3  1  0
  3  4  2  3
  4  5  1  0
  5  6  1  0
  6  7  2  0
  7  8  1  0
  8  9  1  0
  9 10  2  0
 10 11  1  0
 11 12  2  0
 12 13  1  0
 13 14  1  0
 13 15  2  0
  7 16  1  0
  2 17  1  0
 17 18  1  0
 18 19  2  0
 19 20  1  0
 20 21  2  0
 20 22  1  0
 22 23  1  0
 16  4  1  0
 23 17  2  0
 15  9  1  0
  6 24  1  0
  8 25  1  0
  8 26  1  0
 10 27  1  0
 11 28  1  0
 12 29  1  0
 14 30  1  0
 15 31  1  0
 18 32  1  0
 19 33  1  0
 23 34  1  0
M  CHG  2   5  -1  22  -1
M  END
>  <UniqueID>  (12) 
11

>  <SMILES>  (12) 
O=C(N=c1[n-]cc(Cc2cccc(O)c2)s1)c1ccc(=O)[n-]c1

>  <Energy>  (12) 
72.87938211513594

>  <Genealogy>  (12) 
O=C(N=c1[n-]cc(Cc2cccc(O)c2)s1)c1ccc(=O)[n-]c1 (protonated)
O=C(N=c1[n-]cc(Cc2cccc(O)c2)s1)c1ccc(=O)[n-]c1 (3D coordinates assigned)
O=C(N=c1[n-]cc(Cc2cccc(O)c2)s1)c1ccc(=O)[n-]c1 (optimized conformer: 72.87938211513594 kcal/mol)

>  <smiles>  (12) 
O=C(N=c1[nH]cc(Cc2cccc(O)c2)s1)c1ccc(=O)[nH]c1

>  <score_type>  (12) 
oracle

>  <origin>  (12) 
adg

>  <m_score__min__energy>  (12) 
-11.75

>  <m_primary>  (12) 
energy

$$$$
12:0
     RDKit          3D

 62 65  0  0  0  0  0  0  0  0999 V2000
   52.5140   24.2860   45.3010 O   0  0  0  0  0  0  0  0  0  0  0  0
   53.7170   24.6590   45.3170 C   0  0  0  0  0  0  0  0  0  0  0  0
   54.0280   25.9750   45.6230 O   0  0  0  0  0  0  0  0  0  0  0  0
   54.8100   23.6850   45.0320 C   0  0  0  0  0  0  0  0  0  0  0  0
   55.4600   23.2480   46.3120 C   0  0  0  0  0  0  0  0  0  0  0  0
   55.2030   21.9600   46.8090 C   0  0  0  0  0  0  0  0  0  0  0  0
   55.7740   21.5400   48.0080 C   0  0  0  0  0  0  0  0  0  0  0  0
   56.6000   22.4050   48.7290 C   0  0  0  0  0  0  0  0  0  0  0  0
   56.8700   23.6850   48.2450 C   0  0  0  0  0  0  0  0  0  0  0  0
   56.3100   24.1160   47.0330 C   0  0  0  0  0  0  0  0  0  0  0  0
   56.5630   25.4360   46.5390 N   0  0  0  0  0  0  0  0  0  0  0  0
   58.0820   25.9530   45.8850 S   0  0  0  0  0  0  0  0  0  0  0  0
   57.8380   26.6110   44.5560 O   0  0  0  0  0  0  0  0  0  0  0  0
   58.9490   24.7460   45.6600 O   0  0  0  0  0  0  0  0  0  0  0  0
   58.8880   27.1090   46.9400 C   0  0  0  0  0  0  0  0  0  0  0  0
   58.3170   28.3610   47.1970 C   0  0  0  0  0  0  0  0  0  0  0  0
   58.9720   29.2790   48.0220 C   0  0  0  0  0  0  0  0  0  0  0  0
   60.2030   28.9510   48.6140 C   0  0  0  0  0  0  0  0  0  0  0  0
   60.8990   29.9060   49.5080 C   0  0  0  0  0  0  0  0  0  0  0  0
   61.4600   29.4620   50.5500 O   0  0  0  0  0  0  0  0  0  0  0  0
   60.9340   31.3260   49.2180 N   0  0  1  0  0  0  0  0  0  0  0  0
   62.1060   31.9420   49.8710 C   0  0  0  0  0  0  0  0  0  0  0  0
   62.0610   33.4780   49.7590 C   0  0  0  0  0  0  0  0  0  0  0  0
   61.5120   33.9760   48.3910 C   0  0  2  0  0  0  0  0  0  0  0  0
   60.0670   34.5320   48.4750 C   0  0  0  0  0  0  0  0  0  0  0  0
   59.2940   34.3000   47.2000 C   0  0  0  0  0  0  0  0  0  0  0  0
   58.2160   33.3990   47.1790 C   0  0  0  0  0  0  0  0  0  0  0  0
   57.4970   33.1920   46.0000 C   0  0  0  0  0  0  0  0  0  0  0  0
   57.8510   33.8730   44.8380 C   0  0  0  0  0  0  0  0  0  0  0  0
   58.9270   34.7650   44.8470 C   0  0  0  0  0  0  0  0  0  0  0  0
   59.6460   34.9800   46.0220 C   0  0  0  0  0  0  0  0  0  0  0  0
   61.6120   32.8730   47.3210 C   0  0  0  0  0  0  0  0  0  0  0  0
   60.9100   31.5650   47.7470 C   0  0  0  0  0  0  0  0  0  0  0  0
   60.7600   27.6890   48.3680 C   0  0  0  0  0  0  0  0  0  0  0  0
   60.1100   26.7780   47.5290 C   0  0  0  0  0  0  0  0  0  0  0  0
   54.3901   22.8071   44.5193 H   0  0  0  0  0  0  0  0  0  0  0  0
   55.5638   24.1677   44.3926 H   0  0  0  0  0  0  0  0  0  0  0  0
   54.5467   21.2785   46.2479 H   0  0  0  0  0  0  0  0  0  0  0  0
   55.5743   20.5269   48.3870 H   0  0  0  0  0  0  0  0  0  0  0  0
   57.0393   22.0757   49.6822 H   0  0  0  0  0  0  0  0  0  0  0  0
   57.5249   24.3595   48.8161 H   0  0  0  0  0  0  0  0  0  0  0  0
   57.3480   28.6234   46.7473 H   0  0  0  0  0  0  0  0  0  0  0  0
   58.5209   30.2647   48.2091 H   0  0  0  0  0  0  0  0  0  0  0  0
   60.0740   31.7640   49.6230 H   0  0  0  0  0  0  0  0  0  0  0  0
   63.0221   31.5733   49.3864 H   0  0  0  0  0  0  0  0  0  0  0  0
   62.0951   31.6693   50.9366 H   0  0  0  0  0  0  0  0  0  0  0  0
   63.0811   33.8683   49.8895 H   0  0  0  0  0  0  0  0  0  0  0  0
   61.3765   33.8431   50.5389 H   0  0  0  0  0  0  0  0  0  0  0  0
   62.1521   34.8198   48.0939 H   0  0  0  0  0  0  0  0  0  0  0  0
   59.5427   34.0331   49.3033 H   0  0  0  0  0  0  0  0  0  0  0  0
   60.1311   35.6178   48.6392 H   0  0  0  0  0  0  0  0  0  0  0  0
   57.9377   32.8552   48.0938 H   0  0  0  0  0  0  0  0  0  0  0  0
   56.6500   32.4902   45.9891 H   0  0  0  0  0  0  0  0  0  0  0  0
   57.2824   33.7085   43.9108 H   0  0  0  0  0  0  0  0  0  0  0  0
   59.2068   35.2978   43.9262 H   0  0  0  0  0  0  0  0  0  0  0  0
   60.4912   35.6840   46.0268 H   0  0  0  0  0  0  0  0  0  0  0  0
   62.6747   32.6579   47.1354 H   0  0  0  0  0  0  0  0  0  0  0  0
   61.1077   33.2414   46.4155 H   0  0  0  0  0  0  0  0  0  0  0  0
   61.4130   30.7226   47.2497 H   0  0  0  0  0  0  0  0  0  0  0  0
   59.8541   31.6552   47.4523 H   0  0  0  0  0  0  0  0  0  0  0  0
   61.7153   27.4127   48.8381 H   0  0  0  0  0  0  0  0  0  0  0  0
   60.5639   25.7955   47.3321 H   0  0  0  0  0  0  0  0  0  0  0  0
  1  2  2  0
  2  3  1  0
  2  4  1  0
  4  5  1  0
  5  6  2  0
  6  7  1  0
  7  8  2  0
  8  9  1  0
  9 10  2  0
 10 11  1  0
 11 12  1  0
 12 13  2  0
 12 14  2  0
 12 15  1  0
 15 16  2  0
 16 17  1  0
 17 18  2  0
 18 19  1  0
 19 20  2  0
 19 21  1  0
 21 22  1  0
 22 23  1  0
 23 24  1  0
 24 25  1  0
 25 26  1  0
 26 27  2  0
 27 28  1  0
 28 29  2  0
 29 30  1  0
 30 31  2  0
 24 32  1  0
 32 33  1  0
 18 34  1  0
 34 35  2  0
 10  5  1  0
 35 15  1  0
 33 21  1  0
 31 26  1  0
  4 36  1  0
  4 37  1  0
  6 38  1  0
  7 39  1  0
  8 40  1  0
  9 41  1  0
 16 42  1  0
 17 43  1  0
 21 44  1  1
 22 45  1  0
 22 46  1  0
 23 47  1  0
 23 48  1  0
 24 49  1  6
 25 50  1  0
 25 51  1  0
 27 52  1  0
 28 53  1  0
 29 54  1  0
 30 55  1  0
 31 56  1  0
 32 57  1  0
 32 58  1  0
 33 59  1  0
 33 60  1  0
 34 61  1  0
 35 62  1  0
M  CHG  3   3  -1  11  -1  21   1
M  END
>  <UniqueID>  (13) 
12

>  <SMILES>  (13) 
O=C([O-])Cc1ccccc1[N-]S(=O)(=O)c1ccc(C(=O)[NH+]2CCC(Cc3ccccc3)CC2)cc1

>  <Energy>  (13) 
83.16221639029423

>  <Genealogy>  (13) 
O=C([O-])Cc1ccccc1[N-]S(=O)(=O)c1ccc(C(=O)[NH+]2CCC(Cc3ccccc3)CC2)cc1 (protonated)
O=C([O-])Cc1ccccc1[N-]S(=O)(=O)c1ccc(C(=O)[NH+]2CCC(Cc3ccccc3)CC2)cc1 (3D coordinates assigned)
O=C([O-])Cc1ccccc1[N-]S(=O)(=O)c1ccc(C(=O)[NH+]2CCC(Cc3ccccc3)CC2)cc1 (nonaromatic ring conformer: 83.16221639029423 kcal/mol)

>  <smiles>  (13) 
O=C(O)Cc1ccccc1NS(=O)(=O)c1ccc(C(=O)N2CCC(Cc3ccccc3)CC2)cc1

>  <score_type>  (13) 
oracle

>  <origin>  (13) 
adg

>  <m_score__min__energy>  (13) 
-14.26

>  <m_primary>  (13) 
energy

$$$$
13:0
     RDKit          3D

 51 54  0  0  0  0  0  0  0  0999 V2000
   56.2550   29.7040   42.5640 C   0  0  0  0  0  0  0  0  0  0  0  0
   56.8440   29.6560   43.7600 C   0  0  0  0  0  0  0  0  0  0  0  0
   56.7750   28.5870   44.5780 N   0  0  0  0  0  0  0  0  0  0  0  0
   57.5100   28.8900   45.6720 C   0  0  0  0  0  0  0  0  0  0  0  0
   57.7100   28.0750   46.7180 C   0  0  0  0  0  0  0  0  0  0  0  0
   57.4330   26.6220   46.6870 C   0  0  0  0  0  0  0  0  0  0  0  0
   56.1660   26.1550   46.3100 C   0  0  0  0  0  0  0  0  0  0  0  0
   55.1470   27.0480   45.9960 O   0  0  0  0  0  0  0  0  0  0  0  0
   55.9210   24.8200   46.2580 N   0  0  0  0  0  0  0  0  0  0  0  0
   56.8920   23.9180   46.5520 C   0  0  0  0  0  0  0  0  0  0  0  0
   56.6390   22.6870   46.5020 O   0  0  0  0  0  0  0  0  0  0  0  0
   58.1340   24.3420   46.8940 N   0  0  0  0  0  0  0  0  0  0  0  0
   58.4310   25.6670   46.9580 C   0  0  0  0  0  0  0  0  0  0  0  0
   59.6050   26.0220   47.2440 O   0  0  0  0  0  0  0  0  0  0  0  0
   58.0620   30.1540   45.5500 C   0  0  0  0  0  0  0  0  0  0  0  0
   57.6100   30.6540   44.3440 C   0  0  0  0  0  0  0  0  0  0  0  0
   57.9810   31.9590   43.7690 C   0  0  0  0  0  0  0  0  0  0  0  0
   58.4800   31.9650   42.6100 O   0  0  0  0  0  0  0  0  0  0  0  0
   57.7370   33.2260   44.4400 N   0  0  0  0  0  0  0  0  0  0  0  0
   56.8730   33.0500   45.6410 C   0  0  0  0  0  0  0  0  0  0  0  0
   57.5940   33.2400   46.9860 C   0  0  0  0  0  0  0  0  0  0  0  0
   59.0120   32.8910   46.8820 N   0  0  0  0  0  0  0  0  0  0  0  0
   59.6590   32.0440   47.8540 C   0  0  0  0  0  0  0  0  0  0  0  0
   60.6440   31.3380   47.5020 O   0  0  0  0  0  0  0  0  0  0  0  0
   59.2090   31.9790   49.2620 C   0  0  0  0  0  0  0  0  0  0  0  0
   59.2650   33.1260   50.0720 C   0  0  0  0  0  0  0  0  0  0  0  0
   58.8280   33.0750   51.3990 C   0  0  0  0  0  0  0  0  0  0  0  0
   58.3220   31.8840   51.9250 C   0  0  0  0  0  0  0  0  0  0  0  0
   58.2460   30.7430   51.1230 C   0  0  0  0  0  0  0  0  0  0  0  0
   58.6830   30.7880   49.7950 C   0  0  0  0  0  0  0  0  0  0  0  0
   59.8180   33.5450   45.8500 C   0  0  0  0  0  0  0  0  0  0  0  0
   58.9490   34.0480   44.6810 C   0  0  0  0  0  0  0  0  0  0  0  0
   56.3476   30.6059   41.9411 H   0  0  0  0  0  0  0  0  0  0  0  0
   55.6768   28.8417   42.2007 H   0  0  0  0  0  0  0  0  0  0  0  0
   56.2800   27.6900   44.3750 H   0  0  0  0  0  0  0  0  0  0  0  0
   58.1011   28.5103   47.6494 H   0  0  0  0  0  0  0  0  0  0  0  0
   58.7259   30.6579   46.2678 H   0  0  0  0  0  0  0  0  0  0  0  0
   57.1720   33.7870   43.7570 H   0  0  0  0  0  0  0  0  0  0  0  0
   56.0547   33.7830   45.5846 H   0  0  0  0  0  0  0  0  0  0  0  0
   56.5230   32.0074   45.6212 H   0  0  0  0  0  0  0  0  0  0  0  0
   57.5054   34.2920   47.2948 H   0  0  0  0  0  0  0  0  0  0  0  0
   57.1261   32.5765   47.7281 H   0  0  0  0  0  0  0  0  0  0  0  0
   59.6546   34.0686   49.6599 H   0  0  0  0  0  0  0  0  0  0  0  0
   58.8827   33.9744   52.0300 H   0  0  0  0  0  0  0  0  0  0  0  0
   57.9834   31.8447   52.9708 H   0  0  0  0  0  0  0  0  0  0  0  0
   57.8417   29.8073   51.5365 H   0  0  0  0  0  0  0  0  0  0  0  0
   58.6151   29.8888   49.1650 H   0  0  0  0  0  0  0  0  0  0  0  0
   60.3435   34.4014   46.2977 H   0  0  0  0  0  0  0  0  0  0  0  0
   60.5316   32.8075   45.4539 H   0  0  0  0  0  0  0  0  0  0  0  0
   58.6316   35.0776   44.9026 H   0  0  0  0  0  0  0  0  0  0  0  0
   59.5657   33.9845   43.7723 H   0  0  0  0  0  0  0  0  0  0  0  0
  1  2  2  0
  2  3  1  0
  3  4  1  0
  4  5  2  3
  5  6  1  0
  6  7  2  0
  7  8  1  0
  7  9  1  0
  9 10  1  0
 10 11  2  0
 10 12  1  0
 12 13  1  0
 13 14  2  0
  4 15  1  0
 15 16  2  0
 16 17  1  0
 17 18  2  0
 17 19  1  0
 19 20  1  0
 20 21  1  0
 21 22  1  0
 22 23  1  0
 23 24  2  0
 23 25  1  0
 25 26  2  0
 26 27  1  0
 27 28  2  0
 28 29  1  0
 29 30  2  0
 22 31  1  0
 31 32  1  0
 16  2  1  0
 32 19  1  0
 13  6  1  0
 30 25  1  0
  1 33  1  0
  1 34  1  0
  3 35  1  0
  5 36  1  0
 15 37  1  0
 19 38  1  0
 20 39  1  0
 20 40  1  0
 21 41  1  0
 21 42  1  0
 26 43  1  0
 27 44  1  0
 28 45  1  0
 29 46  1  0
 30 47  1  0
 31 48  1  0
 31 49  1  0
 32 50  1  0
 32 51  1  0
M  CHG  4   8  -1   9  -1  12  -1  19   1
M  END
>  <UniqueID>  (14) 
13

>  <SMILES>  (14) 
C=c1[nH]c(=Cc2c([O-])[n-]c(=O)[n-]c2=O)cc1C(=O)[NH+]1CCN(C(=O)c2ccccc2)CC1

>  <Energy>  (14) 
114.61792386242227

>  <Genealogy>  (14) 
C=c1[nH]c(=Cc2c([O-])[n-]c(=O)[n-]c2=O)cc1C(=O)[NH+]1CCN(C(=O)c2ccccc2)CC1 (protonated)
C=c1[nH]c(=Cc2c([O-])[n-]c(=O)[n-]c2=O)cc1C(=O)[NH+]1CCN(C(=O)c2ccccc2)CC1 (3D coordinates assigned)
C=c1[nH]c(=Cc2c([O-])[n-]c(=O)[n-]c2=O)cc1C(=O)[NH+]1CCN(C(=O)c2ccccc2)CC1 (nonaromatic ring conformer: 114.61792386242227 kcal/mol)

>  <smiles>  (14) 
C=c1[nH]c(=Cc2c(O)[nH]c(=O)[nH]c2=O)cc1C(=O)N1CCN(C(=O)c2ccccc2)CC1

>  <score_type>  (14) 
oracle

>  <origin>  (14) 
adg

>  <m_score__min__energy>  (14) 
-16

>  <m_primary>  (14) 
energy

$$$$
14:0
     RDKit          3D

 48 51  0  0  0  0  0  0  0  0999 V2000
   59.7360   30.5768   45.0850 H   0  0  0  0  0  0  0  0  0  0  0  0
   58.6600   30.4220   44.9170 C   0  0  0  0  0  0  0  0  0  0  0  0
   58.0130   29.2890   45.2980 N   0  0  0  0  0  0  0  0  0  0  0  0
   56.6960   29.3400   45.0000 C   0  0  0  0  0  0  0  0  0  0  0  0
   55.9000   28.3400   45.2380 N   0  0  0  0  0  0  0  0  0  0  0  0
   56.2890   27.0200   45.6400 C   0  0  0  0  0  0  0  0  0  0  0  0
   55.4030   26.2250   46.0530 O   0  0  0  0  0  0  0  0  0  0  0  0
   57.6480   26.5730   45.5040 N   0  0  0  0  0  0  0  0  0  0  0  0
   58.3230   27.1490   44.9530 H   0  0  0  0  0  0  0  0  0  0  0  0
   58.1020   25.2830   46.0170 C   0  0  0  0  0  0  0  0  0  0  0  0
   59.1965   25.3005   46.1257 H   0  0  0  0  0  0  0  0  0  0  0  0
   57.6293   25.0996   46.9932 H   0  0  0  0  0  0  0  0  0  0  0  0
   57.7150   24.1800   45.0710 C   0  0  0  0  0  0  0  0  0  0  0  0
   56.8930   24.4440   43.9610 C   0  0  0  0  0  0  0  0  0  0  0  0
   56.5166   25.4629   43.7871 H   0  0  0  0  0  0  0  0  0  0  0  0
   56.5530   23.4150   43.0780 C   0  0  0  0  0  0  0  0  0  0  0  0
   55.9074   23.6250   42.2125 H   0  0  0  0  0  0  0  0  0  0  0  0
   57.0320   22.1200   43.2930 C   0  0  0  0  0  0  0  0  0  0  0  0
   56.7625   21.3118   42.5972 H   0  0  0  0  0  0  0  0  0  0  0  0
   57.8530   21.8510   44.3910 C   0  0  0  0  0  0  0  0  0  0  0  0
   58.2305   20.8315   44.5585 H   0  0  0  0  0  0  0  0  0  0  0  0
   58.1950   22.8770   45.2770 C   0  0  0  0  0  0  0  0  0  0  0  0
   58.8431   22.6623   46.1394 H   0  0  0  0  0  0  0  0  0  0  0  0
   56.2810   30.7840   44.2260 S   0  0  0  0  0  0  0  0  0  0  0  0
   57.8540   31.3680   44.2990 C   0  0  0  0  0  0  0  0  0  0  0  0
   58.3970   32.9530   43.6650 S   0  0  0  0  0  0  0  0  0  0  0  0
   58.0330   33.8700   45.2030 C   0  0  0  0  0  0  0  0  0  0  0  0
   56.9553   33.8068   45.4143 H   0  0  0  0  0  0  0  0  0  0  0  0
   58.3355   34.9190   45.0685 H   0  0  0  0  0  0  0  0  0  0  0  0
   58.7950   33.2940   46.3580 C   0  0  0  0  0  0  0  0  0  0  0  0
   60.1420   33.4450   46.4110 N   0  0  0  0  0  0  0  0  0  0  0  0
   60.8760   32.9730   47.4550 C   0  0  0  0  0  0  0  0  0  0  0  0
   62.2730   33.1570   47.4610 C   0  0  0  0  0  0  0  0  0  0  0  0
   62.9640   33.8660   46.3280 C   0  0  0  0  0  0  0  0  0  0  0  0
   63.6775   34.5980   46.7343 H   0  0  0  0  0  0  0  0  0  0  0  0
   63.5031   33.1323   45.7107 H   0  0  0  0  0  0  0  0  0  0  0  0
   62.2167   34.3860   45.7107 H   0  0  0  0  0  0  0  0  0  0  0  0
   63.0150   32.6690   48.5410 C   0  0  0  0  0  0  0  0  0  0  0  0
   64.1068   32.8013   48.5623 H   0  0  0  0  0  0  0  0  0  0  0  0
   62.3730   32.0160   49.5890 C   0  0  0  0  0  0  0  0  0  0  0  0
   62.9547   31.6319   50.4400 H   0  0  0  0  0  0  0  0  0  0  0  0
   60.9890   31.8510   49.5550 C   0  0  0  0  0  0  0  0  0  0  0  0
   60.4832   31.3342   50.3839 H   0  0  0  0  0  0  0  0  0  0  0  0
   60.2500   32.3250   48.5010 N   0  0  0  0  0  0  0  0  0  0  0  0
   58.8860   32.1630   48.4770 C   0  0  0  0  0  0  0  0  0  0  0  0
   58.2830   31.5780   49.4200 O   0  0  0  0  0  0  0  0  0  0  0  0
   58.1380   32.6450   47.4030 C   0  0  0  0  0  0  0  0  0  0  0  0
   57.0459   32.5151   47.3806 H   0  0  0  0  0  0  0  0  0  0  0  0
  1  2  1  0
  2  3  1  0
  3  4  1  0
  4  5  2  0
  5  6  1  0
  6  7  2  0
  6  8  1  0
  8  9  1  0
  8 10  1  0
 10 11  1  0
 10 12  1  0
 10 13  1  0
 13 14  2  0
 14 15  1  0
 14 16  1  0
 16 17  1  0
 16 18  2  0
 18 19  1  0
 18 20  1  0
 20 21  1  0
 20 22  2  0
 22 23  1  0
  4 24  1  0
 24 25  1  0
 25 26  1  0
 26 27  1  0
 27 28  1  0
 27 29  1  0
 27 30  1  0
 30 31  1  0
 31 32  2  0
 32 33  1  0
 33 34  1  0
 34 35  1  0
 34 36  1  0
 34 37  1  0
 33 38  2  0
 38 39  1  0
 38 40  1  0
 40 41  1  0
 40 42  2  0
 42 43  1  0
 42 44  1  0
 44 45  1  0
 45 46  2  0
 45 47  1  0
 47 48  1  0
 25  2  2  0
 47 30  2  0
 22 13  1  0
 44 32  1  0
M  CHG  1   3  -1
M  END
>  <UniqueID>  (15) 
14

>  <SMILES>  (15) 
Cc1cccn2c(=O)cc(CSc3c[n-]/c(=N/C(=O)NCc4ccccc4)s3)nc12

>  <Energy>  (15) 
86.61612844334815

>  <Genealogy>  (15) 
Cc1cccn2c(=O)cc(CSc3c[n-]c(=NC(=O)NCc4ccccc4)s3)nc12 (protonated)
Cc1cccn2c(=O)cc(CSc3c[n-]/c(=N/C(=O)NCc4ccccc4)s3)nc12 (cis-trans isomerization)
Cc1cccn2c(=O)cc(CSc3c[n-]/c(=N/C(=O)NCc4ccccc4)s3)nc12 (3D coordinates assigned)
Cc1cccn2c(=O)cc(CSc3c[n-]/c(=N/C(=O)NCc4ccccc4)s3)nc12 (optimized conformer: 86.61612844334815 kcal/mol)

>  <smiles>  (15) 
Cc1cccn2c(=O)cc(CSc3c[nH]c(=NC(=O)NCc4ccccc4)s3)nc12

>  <score_type>  (15) 
oracle

>  <origin>  (15) 
adg

>  <m_score__min__energy>  (15) 
-10.98

>  <m_primary>  (15) 
energy

$$$$
15:0
     RDKit          3D

 45 48  0  0  0  0  0  0  0  0999 V2000
   60.0150   28.1570   48.1330 C   0  0  0  0  0  0  0  0  0  0  0  0
   59.3470   29.0420   47.3770 C   0  0  0  0  0  0  0  0  0  0  0  0
   58.7120   28.7900   46.1510 C   0  0  0  0  0  0  0  0  0  0  0  0
   58.4220   27.6330   45.5250 C   0  0  0  0  0  0  0  0  0  0  0  0
   57.2030   26.8300   45.7270 C   0  0  0  0  0  0  0  0  0  0  0  0
   57.1830   25.5780   46.2210 N   0  0  0  0  0  0  0  0  0  0  0  0
   55.8640   25.3190   46.3550 C   0  0  0  0  0  0  0  0  0  0  0  0
   55.4300   24.2170   46.7820 O   0  0  0  0  0  0  0  0  0  0  0  0
   55.0470   26.3360   46.0060 N   0  0  0  0  0  0  0  0  0  0  0  0
   55.9130   27.2890   45.6250 C   0  0  0  0  0  0  0  0  0  0  0  0
   55.5310   28.5550   45.1990 O   0  0  0  0  0  0  0  0  0  0  0  0
   58.3550   30.0230   45.6390 C   0  0  0  0  0  0  0  0  0  0  0  0
   58.7220   30.9690   46.5730 C   0  0  0  0  0  0  0  0  0  0  0  0
   58.4660   32.4100   46.4060 C   0  0  0  0  0  0  0  0  0  0  0  0
   57.3780   32.8860   46.8370 O   0  0  0  0  0  0  0  0  0  0  0  0
   59.4060   33.2500   45.6930 N   0  0  0  0  0  0  0  0  0  0  0  0
   58.8770   33.7790   44.4290 C   0  0  0  0  0  0  0  0  0  0  0  0
   58.9220   35.2150   44.9260 C   0  0  0  0  0  0  0  0  0  0  0  0
   59.4750   34.6230   46.2130 C   0  0  0  0  0  0  0  0  0  0  0  0
   59.3130   30.3780   47.6420 N   0  0  0  0  0  0  0  0  0  0  0  0
   59.6880   31.0320   48.9070 C   0  0  0  0  0  0  0  0  0  0  0  0
   61.1100   31.5220   48.8410 C   0  0  0  0  0  0  0  0  0  0  0  0
   62.0420   31.1580   49.8270 C   0  0  0  0  0  0  0  0  0  0  0  0
   63.3560   31.6310   49.7630 C   0  0  0  0  0  0  0  0  0  0  0  0
   63.7510   32.4670   48.7150 C   0  0  0  0  0  0  0  0  0  0  0  0
   62.8300   32.8310   47.7260 C   0  0  0  0  0  0  0  0  0  0  0  0
   63.3250   33.8790   46.4100 Cl  0  0  0  0  0  0  0  0  0  0  0  0
   61.5150   32.3590   47.7870 C   0  0  0  0  0  0  0  0  0  0  0  0
   60.4724   28.4777   49.0806 H   0  0  0  0  0  0  0  0  0  0  0  0
   60.1052   27.1109   47.8050 H   0  0  0  0  0  0  0  0  0  0  0  0
   59.1586   27.2551   44.8007 H   0  0  0  0  0  0  0  0  0  0  0  0
   57.8701   30.2137   44.6702 H   0  0  0  0  0  0  0  0  0  0  0  0
   60.3510   32.8170   45.5630 H   0  0  0  0  0  0  0  0  0  0  0  0
   59.5344   33.5929   43.5669 H   0  0  0  0  0  0  0  0  0  0  0  0
   57.9282   33.3799   44.0410 H   0  0  0  0  0  0  0  0  0  0  0  0
   59.6127   35.8759   44.3817 H   0  0  0  0  0  0  0  0  0  0  0  0
   58.0473   35.8816   44.9037 H   0  0  0  0  0  0  0  0  0  0  0  0
   60.4986   34.9536   46.4432 H   0  0  0  0  0  0  0  0  0  0  0  0
   58.9756   34.8576   47.1646 H   0  0  0  0  0  0  0  0  0  0  0  0
   59.0181   31.8858   49.0865 H   0  0  0  0  0  0  0  0  0  0  0  0
   59.5984   30.3036   49.7264 H   0  0  0  0  0  0  0  0  0  0  0  0
   61.7367   30.4983   50.6526 H   0  0  0  0  0  0  0  0  0  0  0  0
   64.0807   31.3445   50.5393 H   0  0  0  0  0  0  0  0  0  0  0  0
   64.7852   32.8387   48.6675 H   0  0  0  0  0  0  0  0  0  0  0  0
   60.7943   32.6441   47.0065 H   0  0  0  0  0  0  0  0  0  0  0  0
  1  2  2  0
  2  3  1  0
  3  4  2  3
  4  5  1  0
  5  6  1  0
  6  7  1  0
  7  8  2  0
  7  9  1  0
  9 10  1  0
 10 11  1  0
  3 12  1  0
 12 13  2  0
 13 14  1  0
 14 15  2  0
 14 16  1  0
 16 17  1  0
 17 18  1  0
 18 19  1  0
 13 20  1  0
 20 21  1  0
 21 22  1  0
 22 23  2  0
 23 24  1  0
 24 25  2  0
 25 26  1  0
 26 27  1  0
 26 28  2  0
 20  2  1  0
 28 22  1  0
 10  5  2  0
 19 16  1  0
  1 29  1  0
  1 30  1  0
  4 31  1  0
 12 32  1  0
 16 33  1  0
 17 34  1  0
 17 35  1  0
 18 36  1  0
 18 37  1  0
 19 38  1  0
 19 39  1  0
 21 40  1  0
 21 41  1  0
 23 42  1  0
 24 43  1  0
 25 44  1  0
 28 45  1  0
M  CHG  4   6  -1   9  -1  11  -1  16   1
M  END
>  <UniqueID>  (16) 
15

>  <SMILES>  (16) 
C=c1c(=Cc2[n-]c(=O)[n-]c2[O-])cc(C(=O)[NH+]2CCC2)n1Cc1cccc(Cl)c1

>  <Energy>  (16) 
195.3638673951296

>  <Genealogy>  (16) 
C=c1c(=Cc2[n-]c(=O)[n-]c2[O-])cc(C(=O)[NH+]2CCC2)n1Cc1cccc(Cl)c1 (protonated)
C=c1c(=Cc2[n-]c(=O)[n-]c2[O-])cc(C(=O)[NH+]2CCC2)n1Cc1cccc(Cl)c1 (3D coordinates assigned)
C=c1c(=Cc2[n-]c(=O)[n-]c2[O-])cc(C(=O)[NH+]2CCC2)n1Cc1cccc(Cl)c1 (nonaromatic ring conformer: 195.3638673951296 kcal/mol)

>  <smiles>  (16) 
C=c1c(=Cc2[nH]c(=O)[nH]c2O)cc(C(=O)N2CCC2)n1Cc1cccc(Cl)c1

>  <score_type>  (16) 
oracle

>  <origin>  (16) 
adg

>  <m_score__min__energy>  (16) 
-15.32

>  <m_primary>  (16) 
energy

$$$$
16:0
     RDKit          3D

 47 49  0  0  0  0  0  0  0  0999 V2000
   55.5149   30.6804   45.0501 H   0  0  0  0  0  0  0  0  0  0  0  0
   56.3730   30.0170   44.8670 C   0  0  0  0  0  0  0  0  0  0  0  0
   56.2580   28.6790   45.0860 N   0  0  0  0  0  0  0  0  0  0  0  0
   57.2840   27.8120   44.8660 C   0  0  0  0  0  0  0  0  0  0  0  0
   57.0840   26.5480   45.1160 N   0  0  0  0  0  0  0  0  0  0  0  0
   56.7780   25.9240   46.3730 C   0  0  0  0  0  0  0  0  0  0  0  0
   55.6790   25.3350   46.5560 O   0  0  0  0  0  0  0  0  0  0  0  0
   57.7500   26.0320   47.5040 C   0  0  0  0  0  0  0  0  0  0  0  0
   57.2156   25.9037   48.4568 H   0  0  0  0  0  0  0  0  0  0  0  0
   58.5161   25.2499   47.3970 H   0  0  0  0  0  0  0  0  0  0  0  0
   58.3970   27.3420   47.4850 N   0  0  0  0  0  0  0  0  0  0  0  0
   57.9280   28.1070   46.9510 H   0  0  0  0  0  0  0  0  0  0  0  0
   59.5960   27.6150   48.2320 C   0  0  0  0  0  0  0  0  0  0  0  0
   60.0670   26.7300   48.9980 O   0  0  0  0  0  0  0  0  0  0  0  0
   60.2770   28.9280   48.1360 C   0  0  0  0  0  0  0  0  0  0  0  0
   60.4280   29.5820   46.8990 C   0  0  0  0  0  0  0  0  0  0  0  0
   60.0318   29.1181   45.9837 H   0  0  0  0  0  0  0  0  0  0  0  0
   61.0780   30.8170   46.8260 C   0  0  0  0  0  0  0  0  0  0  0  0
   61.1861   31.3217   45.8546 H   0  0  0  0  0  0  0  0  0  0  0  0
   61.5920   31.4150   47.9820 C   0  0  0  0  0  0  0  0  0  0  0  0
   62.3830   32.9850   47.8710 S   0  0  0  0  0  0  0  0  0  0  0  0
   63.1340   33.2780   49.1410 O   0  0  0  0  0  0  0  0  0  0  0  0
   63.3610   32.9500   46.7300 O   0  0  0  0  0  0  0  0  0  0  0  0
   61.1920   34.2310   47.5860 N   0  0  0  0  0  0  0  0  0  0  0  0
   60.7680   34.2080   46.1720 C   0  0  0  0  0  0  0  0  0  0  0  0
   61.5164   34.7345   45.5615 H   0  0  0  0  0  0  0  0  0  0  0  0
   60.6787   33.1614   45.8455 H   0  0  0  0  0  0  0  0  0  0  0  0
   59.4050   34.8970   46.0050 C   0  0  0  0  0  0  0  0  0  0  0  0
   59.5073   35.9446   46.3243 H   0  0  0  0  0  0  0  0  0  0  0  0
   59.1300   34.7979   44.9445 H   0  0  0  0  0  0  0  0  0  0  0  0
   58.3520   34.3030   46.7560 O   0  0  0  0  0  0  0  0  0  0  0  0
   58.8020   33.5310   47.8600 C   0  0  0  0  0  0  0  0  0  0  0  0
   57.9958   33.4857   48.6070 H   0  0  0  0  0  0  0  0  0  0  0  0
   59.0658   32.5343   47.4765 H   0  0  0  0  0  0  0  0  0  0  0  0
   60.0600   34.1110   48.5320 C   0  0  0  0  0  0  0  0  0  0  0  0
   59.8220   35.1090   48.9286 H   0  0  0  0  0  0  0  0  0  0  0  0
   60.3620   33.4234   49.3358 H   0  0  0  0  0  0  0  0  0  0  0  0
   61.4510   30.7680   49.2150 C   0  0  0  0  0  0  0  0  0  0  0  0
   61.8498   31.2350   50.1276 H   0  0  0  0  0  0  0  0  0  0  0  0
   60.8050   29.5300   49.2910 C   0  0  0  0  0  0  0  0  0  0  0  0
   60.7094   29.0233   50.2627 H   0  0  0  0  0  0  0  0  0  0  0  0
   58.5230   28.3200   44.4200 C   0  0  0  0  0  0  0  0  0  0  0  0
   59.3733   27.6421   44.2542 H   0  0  0  0  0  0  0  0  0  0  0  0
   58.6600   29.6910   44.1910 C   0  0  0  0  0  0  0  0  0  0  0  0
   59.6198   30.0961   43.8378 H   0  0  0  0  0  0  0  0  0  0  0  0
   57.5800   30.5470   44.4100 C   0  0  0  0  0  0  0  0  0  0  0  0
   57.7560   32.4230   44.1020 Br  0  0  0  0  0  0  0  0  0  0  0  0
  1  2  1  0
  2  3  1  0
  3  4  1  0
  4  5  2  0
  5  6  1  0
  6  7  2  0
  6  8  1  0
  8  9  1  0
  8 10  1  0
  8 11  1  0
 11 12  1  0
 11 13  1  0
 13 14  2  0
 13 15  1  0
 15 16  2  0
 16 17  1  0
 16 18  1  0
 18 19  1  0
 18 20  2  0
 20 21  1  0
 21 22  2  0
 21 23  2  0
 21 24  1  0
 24 25  1  0
 25 26  1  0
 25 27  1  0
 25 28  1  0
 28 29  1  0
 28 30  1  0
 28 31  1  0
 31 32  1  0
 32 33  1  0
 32 34  1  0
 32 35  1  0
 35 36  1  0
 35 37  1  0
 20 38  1  0
 38 39  1  0
 38 40  2  0
 40 41  1  0
  4 42  1  0
 42 43  1  0
 42 44  2  0
 44 45  1  0
 44 46  1  0
 46 47  1  0
 46  2  2  0
 40 15  1  0
 35 24  1  0
M  CHG  1   3  -1
M  END
>  <UniqueID>  (17) 
16

>  <SMILES>  (17) 
O=C(CNC(=O)c1ccc(S(=O)(=O)N2CCOCC2)cc1)/N=c1\ccc(Br)c[n-]1

>  <Energy>  (17) 
67.99396305262323

>  <Genealogy>  (17) 
O=C(CNC(=O)c1ccc(S(=O)(=O)N2CCOCC2)cc1)N=c1ccc(Br)c[n-]1 (protonated)
O=C(CNC(=O)c1ccc(S(=O)(=O)N2CCOCC2)cc1)/N=c1\ccc(Br)c[n-]1 (cis-trans isomerization)
O=C(CNC(=O)c1ccc(S(=O)(=O)N2CCOCC2)cc1)/N=c1\ccc(Br)c[n-]1 (3D coordinates assigned)
O=C(CNC(=O)c1ccc(S(=O)(=O)N2CCOCC2)cc1)/N=c1\ccc(Br)c[n-]1 (nonaromatic ring conformer: 67.99396305262323 kcal/mol)

>  <smiles>  (17) 
O=C(CNC(=O)c1ccc(S(=O)(=O)N2CCOCC2)cc1)N=c1ccc(Br)c[nH]1

>  <score_type>  (17) 
oracle

>  <origin>  (17) 
adg

>  <m_score__min__energy>  (17) 
-10.789999999999999

>  <m_primary>  (17) 
energy

$$$$
17:0
     RDKit          3D

 61 65  0  0  0  0  0  0  0  0999 V2000
   59.9020   21.8310   44.9960 N   0  0  0  0  0  0  0  0  0  0  0  0
   58.7110   22.6190   44.9340 C   0  0  0  0  0  0  0  0  0  0  0  0
   57.7170   22.3190   43.9910 C   0  0  0  0  0  0  0  0  0  0  0  0
   56.5470   23.0820   43.9360 C   0  0  0  0  0  0  0  0  0  0  0  0
   56.3640   24.1510   44.8160 C   0  0  0  0  0  0  0  0  0  0  0  0
   57.3600   24.4730   45.7540 C   0  0  0  0  0  0  0  0  0  0  0  0
   57.1520   25.6030   46.7250 C   0  0  0  0  0  0  0  0  0  0  0  0
   58.1020   26.7190   46.4290 C   0  0  0  0  0  0  0  0  0  0  0  0
   59.0260   26.5440   45.5900 O   0  0  0  0  0  0  0  0  0  0  0  0
   57.9810   27.9600   47.1350 N   0  0  0  0  0  0  0  0  0  0  0  0
   59.0460   28.8930   47.3860 C   0  0  0  0  0  0  0  0  0  0  0  0
   59.4830   29.1490   48.6960 C   0  0  0  0  0  0  0  0  0  0  0  0
   60.5380   30.0330   48.9330 C   0  0  0  0  0  0  0  0  0  0  0  0
   61.1830   30.6770   47.8640 C   0  0  0  0  0  0  0  0  0  0  0  0
   62.2580   31.6110   48.0940 N   0  0  0  0  0  0  0  0  0  0  0  0
   63.3580   31.8090   47.3400 C   0  0  0  0  0  0  0  0  0  0  0  0
   64.1290   32.7690   47.8810 N   0  0  0  0  0  0  0  0  0  0  0  0
   63.4530   33.1450   48.9810 C   0  0  0  0  0  0  0  0  0  0  0  0
   62.3090   32.4470   49.1210 N   0  0  0  0  0  0  0  0  0  0  0  0
   60.7580   30.4060   46.5530 C   0  0  0  0  0  0  0  0  0  0  0  0
   59.7120   29.5010   46.3020 C   0  0  0  0  0  0  0  0  0  0  0  0
   59.2910   29.2510   44.9050 C   0  0  0  0  0  0  0  0  0  0  0  0
   60.0350   28.5710   44.1480 O   0  0  0  0  0  0  0  0  0  0  0  0
   58.0400   29.7560   44.3990 N   0  0  0  0  0  0  0  0  0  0  0  0
   57.3430   29.1740   43.2620 C   0  0  0  0  0  0  0  0  0  0  0  0
   55.8950   29.6290   43.3900 C   0  0  0  0  0  0  0  0  0  0  0  0
   55.9210   30.8360   44.3220 C   0  0  0  0  0  0  0  0  0  0  0  0
   57.1970   30.6740   45.1540 C   0  0  2  0  0  0  0  0  0  0  0  0
   57.8980   31.9950   45.3910 C   0  0  0  0  0  0  0  0  0  0  0  0
   58.3060   32.7800   44.2990 C   0  0  0  0  0  0  0  0  0  0  0  0
   58.9450   34.0060   44.5100 C   0  0  0  0  0  0  0  0  0  0  0  0
   59.1890   34.4540   45.8120 C   0  0  0  0  0  0  0  0  0  0  0  0
   58.7890   33.6790   46.9040 C   0  0  0  0  0  0  0  0  0  0  0  0
   58.1460   32.4560   46.6990 C   0  0  0  0  0  0  0  0  0  0  0  0
   58.5290   23.6950   45.8150 C   0  0  0  0  0  0  0  0  0  0  0  0
   59.8600   20.8150   45.2320 H   0  0  0  0  0  0  0  0  0  0  0  0
   60.8350   22.2580   44.8070 H   0  0  0  0  0  0  0  0  0  0  0  0
   57.8585   21.4809   43.2927 H   0  0  0  0  0  0  0  0  0  0  0  0
   55.7684   22.8398   43.1977 H   0  0  0  0  0  0  0  0  0  0  0  0
   55.4376   24.7427   44.7749 H   0  0  0  0  0  0  0  0  0  0  0  0
   56.1194   25.9719   46.6376 H   0  0  0  0  0  0  0  0  0  0  0  0
   57.3347   25.2372   47.7462 H   0  0  0  0  0  0  0  0  0  0  0  0
   58.9901   28.6489   49.5427 H   0  0  0  0  0  0  0  0  0  0  0  0
   60.8664   30.2265   49.9648 H   0  0  0  0  0  0  0  0  0  0  0  0
   63.5916   31.2630   46.4141 H   0  0  0  0  0  0  0  0  0  0  0  0
   65.0360   33.1420   47.5240 H   0  0  0  0  0  0  0  0  0  0  0  0
   63.7916   33.9248   49.6791 H   0  0  0  0  0  0  0  0  0  0  0  0
   61.2516   30.9101   45.7091 H   0  0  0  0  0  0  0  0  0  0  0  0
   57.7773   29.5372   42.3189 H   0  0  0  0  0  0  0  0  0  0  0  0
   57.4249   28.0771   43.2534 H   0  0  0  0  0  0  0  0  0  0  0  0
   55.4941   29.9132   42.4059 H   0  0  0  0  0  0  0  0  0  0  0  0
   55.2514   28.8277   43.7822 H   0  0  0  0  0  0  0  0  0  0  0  0
   55.9546   31.7702   43.7423 H   0  0  0  0  0  0  0  0  0  0  0  0
   55.0220   30.8868   44.9539 H   0  0  0  0  0  0  0  0  0  0  0  0
   56.9657   30.2877   46.1576 H   0  0  0  0  0  0  0  0  0  0  0  0
   58.1218   32.4283   43.2731 H   0  0  0  0  0  0  0  0  0  0  0  0
   59.2560   34.6185   43.6509 H   0  0  0  0  0  0  0  0  0  0  0  0
   59.6957   35.4163   45.9767 H   0  0  0  0  0  0  0  0  0  0  0  0
   58.9810   34.0330   47.9276 H   0  0  0  0  0  0  0  0  0  0  0  0
   57.8321   31.8506   47.5621 H   0  0  0  0  0  0  0  0  0  0  0  0
   59.3053   23.9313   46.5577 H   0  0  0  0  0  0  0  0  0  0  0  0
  1  2  1  0
  2  3  2  0
  3  4  1  0
  4  5  2  0
  5  6  1  0
  6  7  1  0
  7  8  1  0
  8  9  2  0
  8 10  1  0
 10 11  1  0
 11 12  2  0
 12 13  1  0
 13 14  2  0
 14 15  1  0
 15 16  1  0
 16 17  2  0
 17 18  1  0
 18 19  2  0
 14 20  1  0
 20 21  2  0
 21 22  1  0
 22 23  2  0
 22 24  1  0
 24 25  1  0
 25 26  1  0
 26 27  1  0
 27 28  1  0
 28 29  1  0
 29 30  2  0
 30 31  1  0
 31 32  2  0
 32 33  1  0
 33 34  2  0
  6 35  2  0
 35  2  1  0
 21 11  1  0
 28 24  1  0
 34 29  1  0
 19 15  1  0
  1 36  1  0
  1 37  1  0
  3 38  1  0
  4 39  1  0
  5 40  1  0
  7 41  1  0
  7 42  1  0
 12 43  1  0
 13 44  1  0
 16 45  1  0
 17 46  1  0
 18 47  1  0
 20 48  1  0
 25 49  1  0
 25 50  1  0
 26 51  1  0
 26 52  1  0
 27 53  1  0
 27 54  1  0
 28 55  1  1
 30 56  1  0
 31 57  1  0
 32 58  1  0
 33 59  1  0
 34 60  1  0
 35 61  1  0
M  CHG  2  10  -1  17   1
M  END
>  <UniqueID>  (18) 
17

>  <SMILES>  (18) 
Nc1cccc(CC(=O)[N-]c2ccc(-n3c[nH+]cn3)cc2C(=O)N2CCC[C@@H]2c2ccccc2)c1

>  <Energy>  (18) 
109.41303363097764

>  <Genealogy>  (18) 
Nc1cccc(CC(=O)[N-]c2ccc(-n3c[nH+]cn3)cc2C(=O)N2CCCC2c2ccccc2)c1 (protonated)
Nc1cccc(CC(=O)[N-]c2ccc(-n3c[nH+]cn3)cc2C(=O)N2CCC[C@@H]2c2ccccc2)c1 (chirality)
Nc1cccc(CC(=O)[N-]c2ccc(-n3c[nH+]cn3)cc2C(=O)N2CCC[C@@H]2c2ccccc2)c1 (3D coordinates assigned)
Nc1cccc(CC(=O)[N-]c2ccc(-n3c[nH+]cn3)cc2C(=O)N2CCC[C@@H]2c2ccccc2)c1 (nonaromatic ring conformer: 109.41303363097764 kcal/mol)

>  <smiles>  (18) 
Nc1cccc(CC(=O)Nc2ccc(-n3cncn3)cc2C(=O)N2CCCC2c2ccccc2)c1

>  <score_type>  (18) 
oracle

>  <origin>  (18) 
adg

>  <m_score__min__energy>  (18) 
-10.51

>  <m_primary>  (18) 
energy

$$$$
18:0
     RDKit          3D

 39 41  0  0  0  0  0  0  0  0999 V2000
   56.3770   25.7900   47.2250 O   0  0  0  0  0  0  0  0  0  0  0  0
   57.1090   25.9290   46.2080 C   0  0  0  0  0  0  0  0  0  0  0  0
   56.8830   25.0690   45.0060 C   0  0  0  0  0  0  0  0  0  0  0  0
   55.5730   24.3230   45.1440 C   0  0  0  0  0  0  0  0  0  0  0  0
   54.3790   24.9670   45.5470 C   0  0  0  0  0  0  0  0  0  0  0  0
   54.3220   26.3320   45.8330 O   0  0  0  0  0  0  0  0  0  0  0  0
   53.2370   24.2410   45.6730 N   0  0  0  0  0  0  0  0  0  0  0  0
   53.2140   22.9060   45.4420 C   0  0  0  0  0  0  0  0  0  0  0  0
   52.1410   22.2630   45.5720 O   0  0  0  0  0  0  0  0  0  0  0  0
   54.3500   22.2600   45.0790 N   0  0  0  0  0  0  0  0  0  0  0  0
   55.5200   22.9300   44.9300 C   0  0  0  0  0  0  0  0  0  0  0  0
   56.5540   22.2890   44.5990 O   0  0  0  0  0  0  0  0  0  0  0  0
   58.1550   26.9060   46.1870 N   0  0  0  0  0  0  0  0  0  0  0  0
   58.0660   28.2260   45.6320 C   0  0  0  0  0  0  0  0  0  0  0  0
   59.1710   29.0790   45.7430 C   0  0  0  0  0  0  0  0  0  0  0  0
   59.1110   30.3840   45.2470 C   0  0  0  0  0  0  0  0  0  0  0  0
   57.9320   30.8630   44.6550 C   0  0  0  0  0  0  0  0  0  0  0  0
   57.8740   32.2610   44.1000 C   0  0  0  0  0  0  0  0  0  0  0  0
   58.3550   33.2500   45.1260 C   0  0  0  0  0  0  0  0  0  0  0  0
   59.1780   34.3210   44.7500 C   0  0  0  0  0  0  0  0  0  0  0  0
   59.6370   35.2110   45.7230 C   0  0  0  0  0  0  0  0  0  0  0  0
   59.2970   35.0310   47.0260 N   0  0  0  0  0  0  0  0  0  0  0  0
   58.5130   33.9930   47.4210 C   0  0  0  0  0  0  0  0  0  0  0  0
   58.0320   33.0810   46.4800 C   0  0  0  0  0  0  0  0  0  0  0  0
   56.8210   30.0120   44.5500 C   0  0  0  0  0  0  0  0  0  0  0  0
   56.8830   28.7060   45.0450 C   0  0  0  0  0  0  0  0  0  0  0  0
   56.8495   25.7012   44.1065 H   0  0  0  0  0  0  0  0  0  0  0  0
   57.7053   24.3433   44.9206 H   0  0  0  0  0  0  0  0  0  0  0  0
   54.3830   26.7140   46.7670 H   0  0  0  0  0  0  0  0  0  0  0  0
   60.0926   28.7193   46.2239 H   0  0  0  0  0  0  0  0  0  0  0  0
   59.9918   31.0388   45.3209 H   0  0  0  0  0  0  0  0  0  0  0  0
   58.5137   32.3239   43.2074 H   0  0  0  0  0  0  0  0  0  0  0  0
   56.8331   32.4980   43.8349 H   0  0  0  0  0  0  0  0  0  0  0  0
   59.4601   34.4591   43.6958 H   0  0  0  0  0  0  0  0  0  0  0  0
   60.2749   36.0593   45.4341 H   0  0  0  0  0  0  0  0  0  0  0  0
   58.2572   33.8716   48.4839 H   0  0  0  0  0  0  0  0  0  0  0  0
   57.4041   32.2358   46.7984 H   0  0  0  0  0  0  0  0  0  0  0  0
   55.8969   30.3743   44.0759 H   0  0  0  0  0  0  0  0  0  0  0  0
   56.0018   28.0513   44.9746 H   0  0  0  0  0  0  0  0  0  0  0  0
  1  2  2  0
  2  3  1  0
  3  4  1  0
  4  5  2  0
  5  6  1  0
  5  7  1  0
  7  8  1  0
  8  9  2  0
  8 10  1  0
 10 11  1  0
 11 12  2  0
  2 13  1  0
 13 14  1  0
 14 15  2  0
 15 16  1  0
 16 17  2  0
 17 18  1  0
 18 19  1  0
 19 20  2  0
 20 21  1  0
 21 22  2  0
 22 23  1  0
 23 24  2  0
 17 25  1  0
 25 26  2  0
 11  4  1  0
 26 14  1  0
 24 19  1  0
  3 27  1  0
  3 28  1  0
  6 29  1  0
 15 30  1  0
 16 31  1  0
 18 32  1  0
 18 33  1  0
 20 34  1  0
 21 35  1  0
 23 36  1  0
 24 37  1  0
 25 38  1  0
 26 39  1  0
M  CHG  3   7  -1  10  -1  13  -1
M  END
>  <UniqueID>  (19) 
18

>  <SMILES>  (19) 
O=C(Cc1c(O)[n-]c(=O)[n-]c1=O)[N-]c1ccc(Cc2ccncc2)cc1

>  <Energy>  (19) 
46.91988916453803

>  <Genealogy>  (19) 
O=C(Cc1c(O)[n-]c(=O)[n-]c1=O)[N-]c1ccc(Cc2ccncc2)cc1 (protonated)
O=C(Cc1c(O)[n-]c(=O)[n-]c1=O)[N-]c1ccc(Cc2ccncc2)cc1 (3D coordinates assigned)
O=C(Cc1c(O)[n-]c(=O)[n-]c1=O)[N-]c1ccc(Cc2ccncc2)cc1 (optimized conformer: 46.91988916453803 kcal/mol)

>  <smiles>  (19) 
O=C(Cc1c(O)[nH]c(=O)[nH]c1=O)Nc1ccc(Cc2ccncc2)cc1

>  <score_type>  (19) 
oracle

>  <origin>  (19) 
adg

>  <m_score__min__energy>  (19) 
-14.07

>  <m_primary>  (19) 
energy

$$$$
19:0
     RDKit          3D

 39 40  0  0  0  0  0  0  0  0999 V2000
   66.1330   33.0980   50.1240 C   0  0  0  0  0  0  0  0  0  0  0  0
   64.7090   32.9960   49.6830 C   0  0  0  0  0  0  0  0  0  0  0  0
   63.7880   33.1380   50.5330 O   0  0  0  0  0  0  0  0  0  0  0  0
   64.4030   32.8350   48.2890 N   0  0  0  0  0  0  0  0  0  0  0  0
   63.0870   32.5520   47.7820 C   0  0  0  0  0  0  0  0  0  0  0  0
   62.4580   31.3500   48.1360 C   0  0  0  0  0  0  0  0  0  0  0  0
   61.1760   31.0590   47.6660 C   0  0  0  0  0  0  0  0  0  0  0  0
   60.5040   31.9700   46.8480 C   0  0  0  0  0  0  0  0  0  0  0  0
   61.1120   33.1910   46.5000 C   0  0  0  0  0  0  0  0  0  0  0  0
   60.4830   34.1470   45.6870 O   0  0  0  0  0  0  0  0  0  0  0  0
   59.3420   34.9260   46.0500 C   0  0  0  0  0  0  0  0  0  0  0  0
   58.1350   34.0330   46.3600 C   0  0  0  0  0  0  0  0  0  0  0  0
   57.9320   33.0440   45.2920 N   0  0  0  0  0  0  0  0  0  0  0  0
   58.2470   33.3640   44.0000 C   0  0  0  0  0  0  0  0  0  0  0  0
   58.0290   32.4490   42.9710 C   0  0  0  0  0  0  0  0  0  0  0  0
   57.4830   31.2020   43.2650 C   0  0  0  0  0  0  0  0  0  0  0  0
   57.1530   30.8710   44.5870 C   0  0  0  0  0  0  0  0  0  0  0  0
   56.5660   29.5510   44.9170 C   0  0  0  0  0  0  0  0  0  0  0  0
   55.1610   29.3330   44.7950 N   0  0  0  0  0  0  0  0  0  0  0  0
   57.3020   28.6080   45.3110 O   0  0  0  0  0  0  0  0  0  0  0  0
   57.3880   31.8250   45.5940 C   0  0  0  0  0  0  0  0  0  0  0  0
   62.3940   33.4780   46.9820 C   0  0  0  0  0  0  0  0  0  0  0  0
   66.1771   33.1012   51.2231 H   0  0  0  0  0  0  0  0  0  0  0  0
   66.6993   32.2381   49.7368 H   0  0  0  0  0  0  0  0  0  0  0  0
   66.5709   34.0298   49.7368 H   0  0  0  0  0  0  0  0  0  0  0  0
   65.1660   33.0200   47.6000 H   0  0  0  0  0  0  0  0  0  0  0  0
   62.9776   30.6322   48.7878 H   0  0  0  0  0  0  0  0  0  0  0  0
   60.6937   30.1093   47.9408 H   0  0  0  0  0  0  0  0  0  0  0  0
   59.4969   31.7327   46.4746 H   0  0  0  0  0  0  0  0  0  0  0  0
   59.5845   35.5232   46.9414 H   0  0  0  0  0  0  0  0  0  0  0  0
   59.0831   35.5789   45.2034 H   0  0  0  0  0  0  0  0  0  0  0  0
   58.3095   33.5073   47.3104 H   0  0  0  0  0  0  0  0  0  0  0  0
   57.2373   34.6646   46.4321 H   0  0  0  0  0  0  0  0  0  0  0  0
   58.6756   34.3509   43.7711 H   0  0  0  0  0  0  0  0  0  0  0  0
   58.2865   32.7102   41.9339 H   0  0  0  0  0  0  0  0  0  0  0  0
   57.3102   30.4748   42.4580 H   0  0  0  0  0  0  0  0  0  0  0  0
   54.5390   29.3550   45.6340 H   0  0  0  0  0  0  0  0  0  0  0  0
   57.1313   31.5882   46.6371 H   0  0  0  0  0  0  0  0  0  0  0  0
   62.8655   34.4399   46.7320 H   0  0  0  0  0  0  0  0  0  0  0  0
  1  2  1  0
  2  3  2  0
  2  4  1  0
  4  5  1  0
  5  6  2  0
  6  7  1  0
  7  8  2  0
  8  9  1  0
  9 10  1  0
 10 11  1  0
 11 12  1  0
 12 13  1  0
 13 14  2  0
 14 15  1  0
 15 16  2  0
 16 17  1  0
 17 18  1  0
 18 19  1  0
 18 20  2  0
 17 21  2  0
  9 22  2  0
 22  5  1  0
 21 13  1  0
  1 23  1  0
  1 24  1  0
  1 25  1  0
  4 26  1  0
  6 27  1  0
  7 28  1  0
  8 29  1  0
 11 30  1  0
 11 31  1  0
 12 32  1  0
 12 33  1  0
 14 34  1  0
 15 35  1  0
 16 36  1  0
 19 37  1  0
 21 38  1  0
 22 39  1  0
M  CHG  2  13   1  19  -1
M  END
>  <UniqueID>  (20) 
19

>  <SMILES>  (20) 
CC(=O)Nc1cccc(OCC[n+]2cccc(C([NH-])=O)c2)c1

>  <Energy>  (20) 
39.12015420494188

>  <Genealogy>  (20) 
CC(=O)Nc1cccc(OCC[n+]2cccc(C([NH-])=O)c2)c1 (protonated)
CC(=O)Nc1cccc(OCC[n+]2cccc(C([NH-])=O)c2)c1 (3D coordinates assigned)
CC(=O)Nc1cccc(OCC[n+]2cccc(C([NH-])=O)c2)c1 (optimized conformer: 39.12015420494188 kcal/mol)

>  <smiles>  (20) 
CC(=O)Nc1cccc(OCC[n+]2cccc(C(N)=O)c2)c1

>  <score_type>  (20) 
oracle

>  <origin>  (20) 
adg

>  <m_score__min__energy>  (20) 
-8.9000000000000004

>  <m_primary>  (20) 
energy

$$$$
20:0
     RDKit          3D

 33 35  0  0  0  0  0  0  0  0999 V2000
   52.6030   29.4710   55.0900 O   0  0  0  0  0  0  0  0  0  0  0  0
   52.6340   29.9430   53.9230 C   0  0  0  0  0  0  0  0  0  0  0  0
   51.7620   31.1290   53.5950 C   0  0  0  0  0  0  0  0  0  0  0  0
   51.5080   31.2430   52.1210 C   0  0  0  0  0  0  0  0  0  0  0  0
   51.7650   30.2670   51.2330 N   0  0  0  0  0  0  0  0  0  0  0  0
   51.4180   30.8210   50.0510 C   0  0  0  0  0  0  0  0  0  0  0  0
   51.5210   30.2060   48.9590 O   0  0  0  0  0  0  0  0  0  0  0  0
   50.9540   32.0870   50.1330 N   0  0  0  0  0  0  0  0  0  0  0  0
   51.0180   32.3380   51.4500 C   0  0  0  0  0  0  0  0  0  0  0  0
   50.6410   33.5440   52.0270 O   0  0  0  0  0  0  0  0  0  0  0  0
   53.5310   29.3570   52.9670 N   0  0  0  0  0  0  0  0  0  0  0  0
   54.8540   29.8170   52.6730 C   0  0  0  0  0  0  0  0  0  0  0  0
   55.9660   28.9750   52.8180 C   0  0  0  0  0  0  0  0  0  0  0  0
   57.2420   29.4300   52.4760 C   0  0  0  0  0  0  0  0  0  0  0  0
   57.4240   30.7420   52.0100 C   0  0  0  0  0  0  0  0  0  0  0  0
   58.7820   31.2080   51.5630 C   0  0  0  0  0  0  0  0  0  0  0  0
   59.4160   30.1700   50.6910 C   0  0  0  0  0  0  0  0  0  0  0  0
   58.8740   29.7280   49.1570 S   0  0  0  0  0  0  0  0  0  0  0  0
   60.0270   28.5140   49.0100 C   0  0  0  0  0  0  0  0  0  0  0  0
   60.1480   27.7700   48.0030 O   0  0  0  0  0  0  0  0  0  0  0  0
   60.8160   28.4100   50.0990 N   0  0  0  0  0  0  0  0  0  0  0  0
   60.4700   29.3280   51.0390 C   0  0  0  0  0  0  0  0  0  0  0  0
   61.1290   29.4060   52.2600 O   0  0  0  0  0  0  0  0  0  0  0  0
   56.3130   31.5940   51.8990 C   0  0  0  0  0  0  0  0  0  0  0  0
   55.0390   31.1360   52.2430 C   0  0  0  0  0  0  0  0  0  0  0  0
   50.7989   31.0174   54.1147 H   0  0  0  0  0  0  0  0  0  0  0  0
   52.2852   32.0392   53.9232 H   0  0  0  0  0  0  0  0  0  0  0  0
   55.8332   27.9529   53.2023 H   0  0  0  0  0  0  0  0  0  0  0  0
   58.1074   28.7578   52.5722 H   0  0  0  0  0  0  0  0  0  0  0  0
   58.6777   32.1454   50.9970 H   0  0  0  0  0  0  0  0  0  0  0  0
   59.4161   31.3750   52.4462 H   0  0  0  0  0  0  0  0  0  0  0  0
   56.4465   32.6252   51.5400 H   0  0  0  0  0  0  0  0  0  0  0  0
   54.1766   31.8155   52.1756 H   0  0  0  0  0  0  0  0  0  0  0  0
  1  2  2  0
  2  3  1  0
  3  4  1  0
  4  5  1  0
  5  6  1  0
  6  7  2  0
  6  8  1  0
  8  9  1  0
  9 10  1  0
  2 11  1  0
 11 12  1  0
 12 13  2  0
 13 14  1  0
 14 15  2  0
 15 16  1  0
 16 17  1  0
 17 18  1  0
 18 19  1  0
 19 20  2  0
 19 21  1  0
 21 22  1  0
 22 23  1  0
 15 24  1  0
 24 25  2  0
  9  4  2  0
 25 12  1  0
 22 17  2  0
  3 26  1  0
  3 27  1  0
 13 28  1  0
 14 29  1  0
 16 30  1  0
 16 31  1  0
 24 32  1  0
 25 33  1  0
M  CHG  6   5  -1   8  -1  10  -1  11  -1  21  -1  23  -1
M  END
>  <UniqueID>  (21) 
20

>  <SMILES>  (21) 
O=C(Cc1[n-]c(=O)[n-]c1[O-])[N-]c1ccc(Cc2sc(=O)[n-]c2[O-])cc1

>  <Energy>  (21) 
95.77807221593042

>  <Genealogy>  (21) 
O=C(Cc1[n-]c(=O)[n-]c1[O-])[N-]c1ccc(Cc2sc(=O)[n-]c2[O-])cc1 (protonated)
O=C(Cc1[n-]c(=O)[n-]c1[O-])[N-]c1ccc(Cc2sc(=O)[n-]c2[O-])cc1 (3D coordinates assigned)
O=C(Cc1[n-]c(=O)[n-]c1[O-])[N-]c1ccc(Cc2sc(=O)[n-]c2[O-])cc1 (optimized conformer: 95.77807221593042 kcal/mol)

>  <smiles>  (21) 
O=C(Cc1[nH]c(=O)[nH]c1O)Nc1ccc(Cc2sc(=O)[nH]c2O)cc1

>  <score_type>  (21) 
oracle

>  <origin>  (21) 
adg

>  <m_score__min__energy>  (21) 
-18.420000000000002

>  <m_primary>  (21) 
energy

$$$$
21:0
     RDKit          3D

 51 54  0  0  0  0  0  0  0  0999 V2000
   58.8844   29.9690   46.2620 H   0  0  0  0  0  0  0  0  0  0  0  0
   59.8960   30.2370   46.6010 C   0  0  0  0  0  0  0  0  0  0  0  0
   60.6279   29.4473   46.8262 H   0  0  0  0  0  0  0  0  0  0  0  0
   60.2400   31.5380   46.7410 C   0  0  0  0  0  0  0  0  0  0  0  0
   61.5490   31.8520   47.1790 C   0  0  0  0  0  0  0  0  0  0  0  0
   62.3820   30.9300   47.4090 O   0  0  0  0  0  0  0  0  0  0  0  0
   61.9240   33.2070   47.3090 C   0  0  0  0  0  0  0  0  0  0  0  0
   63.1140   33.6300   47.7840 C   0  0  0  0  0  0  0  0  0  0  0  0
   63.7584   34.1895   47.0899 H   0  0  0  0  0  0  0  0  0  0  0  0
   63.6310   33.4110   49.1500 C   0  0  0  0  0  0  0  0  0  0  0  0
   64.8250   32.7050   49.3400 C   0  0  0  0  0  0  0  0  0  0  0  0
   65.3541   32.2754   48.4766 H   0  0  0  0  0  0  0  0  0  0  0  0
   65.3430   32.5470   50.6260 C   0  0  0  0  0  0  0  0  0  0  0  0
   66.2710   31.9779   50.7840 H   0  0  0  0  0  0  0  0  0  0  0  0
   64.6740   33.1170   51.7100 C   0  0  0  0  0  0  0  0  0  0  0  0
   65.0712   32.9918   52.7281 H   0  0  0  0  0  0  0  0  0  0  0  0
   63.5300   33.8280   51.5090 N   0  0  0  0  0  0  0  0  0  0  0  0
   63.0470   34.2600   52.3290 H   0  0  0  0  0  0  0  0  0  0  0  0
   63.0060   33.9950   50.2650 C   0  0  0  0  0  0  0  0  0  0  0  0
   62.0900   34.5891   50.1312 H   0  0  0  0  0  0  0  0  0  0  0  0
   61.0440   34.1540   46.9120 N   0  0  0  0  0  0  0  0  0  0  0  0
   59.7940   33.8630   46.4870 C   0  0  0  0  0  0  0  0  0  0  0  0
   59.0410   34.8170   46.1490 O   0  0  0  0  0  0  0  0  0  0  0  0
   59.3500   32.5610   46.4520 N   0  0  0  0  0  0  0  0  0  0  0  0
   57.9260   32.2940   46.1180 C   0  0  0  0  0  0  0  0  0  0  0  0
   57.5833   31.4215   46.6936 H   0  0  0  0  0  0  0  0  0  0  0  0
   57.3422   33.1909   46.3723 H   0  0  0  0  0  0  0  0  0  0  0  0
   57.7350   32.0120   44.6390 C   0  0  0  0  0  0  0  0  0  0  0  0
   58.2560   32.9160   43.6960 C   0  0  0  0  0  0  0  0  0  0  0  0
   58.7991   33.8087   44.0397 H   0  0  0  0  0  0  0  0  0  0  0  0
   58.0910   32.6920   42.3300 C   0  0  0  0  0  0  0  0  0  0  0  0
   58.5201   33.3966   41.6024 H   0  0  0  0  0  0  0  0  0  0  0  0
   57.3840   31.5780   41.8850 C   0  0  0  0  0  0  0  0  0  0  0  0
   57.2585   31.4026   40.8064 H   0  0  0  0  0  0  0  0  0  0  0  0
   56.8340   30.6830   42.8050 C   0  0  0  0  0  0  0  0  0  0  0  0
   56.2639   29.8132   42.4466 H   0  0  0  0  0  0  0  0  0  0  0  0
   57.0040   30.8860   44.1900 C   0  0  0  0  0  0  0  0  0  0  0  0
   56.4510   30.0130   45.1440 O   0  0  0  0  0  0  0  0  0  0  0  0
   56.2860   28.6000   45.0140 C   0  0  0  0  0  0  0  0  0  0  0  0
   55.2422   28.3388   45.2425 H   0  0  0  0  0  0  0  0  0  0  0  0
   56.5426   28.3144   43.9832 H   0  0  0  0  0  0  0  0  0  0  0  0
   57.2110   27.8400   45.9700 C   0  0  0  0  0  0  0  0  0  0  0  0
   58.2171   27.7948   45.5276 H   0  0  0  0  0  0  0  0  0  0  0  0
   57.2182   28.3774   46.9298 H   0  0  0  0  0  0  0  0  0  0  0  0
   56.7360   26.4440   46.2300 C   0  0  0  0  0  0  0  0  0  0  0  0
   55.4770   26.0250   46.0120 N   0  0  0  0  0  0  0  0  0  0  0  0
   55.5140   24.7190   46.3520 C   0  0  0  0  0  0  0  0  0  0  0  0
   54.6362   24.0584   46.2958 H   0  0  0  0  0  0  0  0  0  0  0  0
   56.7270   24.2990   46.7670 N   0  0  0  0  0  0  0  0  0  0  0  0
   57.4980   25.3960   46.6890 C   0  0  0  0  0  0  0  0  0  0  0  0
   58.5654   25.4474   46.9499 H   0  0  0  0  0  0  0  0  0  0  0  0
  1  2  1  0
  2  3  1  0
  2  4  2  0
  4  5  1  0
  5  6  2  0
  5  7  1  0
  7  8  2  0
  8  9  1  0
  8 10  1  0
 10 11  2  0
 11 12  1  0
 11 13  1  0
 13 14  1  0
 13 15  2  0
 15 16  1  0
 15 17  1  0
 17 18  1  0
 17 19  2  0
 19 20  1  0
  7 21  1  0
 21 22  1  0
 22 23  2  0
 22 24  1  0
 24 25  1  0
 25 26  1  0
 25 27  1  0
 25 28  1  0
 28 29  2  0
 29 30  1  0
 29 31  1  0
 31 32  1  0
 31 33  2  0
 33 34  1  0
 33 35  1  0
 35 36  1  0
 35 37  2  0
 37 38  1  0
 38 39  1  0
 39 40  1  0
 39 41  1  0
 39 42  1  0
 42 43  1  0
 42 44  1  0
 42 45  1  0
 45 46  1  0
 46 47  2  0
 47 48  1  0
 47 49  1  0
 49 50  1  0
 50 51  1  0
 24  4  1  0
 37 28  1  0
 50 45  2  0
 19 10  1  0
M  CHG  3  17   1  21  -1  49  -1
M  END
>  <UniqueID>  (22) 
21

>  <SMILES>  (22) 
C=c1c(=O)/c(=C\c2ccc[nH+]c2)[n-]c(=O)n1Cc1ccccc1OCCc1c[n-]cn1

>  <Energy>  (22) 
101.82731461559351

>  <Genealogy>  (22) 
C=c1c(=O)c(=Cc2ccc[nH+]c2)[n-]c(=O)n1Cc1ccccc1OCCc1c[n-]cn1 (protonated)
C=c1c(=O)/c(=C\c2ccc[nH+]c2)[n-]c(=O)n1Cc1ccccc1OCCc1c[n-]cn1 (cis-trans isomerization)
C=c1c(=O)/c(=C\c2ccc[nH+]c2)[n-]c(=O)n1Cc1ccccc1OCCc1c[n-]cn1 (3D coordinates assigned)
C=c1c(=O)/c(=C\c2ccc[nH+]c2)[n-]c(=O)n1Cc1ccccc1OCCc1c[n-]cn1 (optimized conformer: 101.82731461559351 kcal/mol)

>  <smiles>  (22) 
C=c1c(=O)c(=Cc2cccnc2)[nH]c(=O)n1Cc1ccccc1OCCc1c[nH]cn1

>  <score_type>  (22) 
oracle

>  <origin>  (22) 
adg

>  <m_score__min__energy>  (22) 
-10.65

>  <m_primary>  (22) 
energy

$$$$
22:0
     RDKit          3D

 87 91  0  0  0  0  0  0  0  0999 V2000
   56.0520   24.4390   44.6350 C   0  0  0  0  0  0  0  0  0  0  0  0
   56.2210   25.5020   46.0570 S   0  0  0  0  0  0  0  0  0  0  0  0
   55.1550   26.5590   46.0040 O   0  0  0  0  0  0  0  0  0  0  0  0
   56.0260   24.6830   47.3000 O   0  0  0  0  0  0  0  0  0  0  0  0
   57.7960   26.2620   46.1110 N   0  0  0  0  0  0  0  0  0  0  0  0
   57.8780   27.2250   47.2310 C   0  0  0  0  0  0  0  0  0  0  0  0
   58.9410   28.2900   46.9840 C   0  0  0  0  0  0  0  0  0  0  0  0
   58.5760   29.0320   45.7750 N   0  0  0  0  0  0  0  0  0  0  0  0
   58.5180   30.4690   45.8000 C   0  0  0  0  0  0  0  0  0  0  0  0
   59.5990   31.1980   46.3210 C   0  0  0  0  0  0  0  0  0  0  0  0
   59.5920   32.6040   46.3080 C   0  0  0  0  0  0  0  0  0  0  0  0
   60.7740   33.3740   46.7590 C   0  0  0  0  0  0  0  0  0  0  0  0
   61.5690   33.8430   45.8990 O   0  0  0  0  0  0  0  0  0  0  0  0
   61.0520   33.5390   48.1620 N   0  0  0  0  0  0  0  0  0  0  0  0
   62.3020   34.1210   48.6680 C   0  0  2  0  0  0  0  0  0  0  0  0
   63.5290   33.2230   48.3340 C   0  0  0  0  0  0  0  0  0  0  0  0
   64.0080   32.3050   49.4450 C   0  0  0  0  0  0  0  0  0  0  0  0
   65.3370   32.3740   49.8990 C   0  0  0  0  0  0  0  0  0  0  0  0
   65.7880   31.5240   50.9150 C   0  0  0  0  0  0  0  0  0  0  0  0
   64.9250   30.5760   51.4680 C   0  0  0  0  0  0  0  0  0  0  0  0
   63.6220   30.4550   50.9820 C   0  0  0  0  0  0  0  0  0  0  0  0
   63.1700   31.2990   49.9640 C   0  0  0  0  0  0  0  0  0  0  0  0
   62.1680   34.5770   50.1550 C   0  0  2  0  0  0  0  0  0  0  0  0
   63.4570   34.6850   50.7050 O   0  0  0  0  0  0  0  0  0  0  0  0
   61.3120   33.6770   51.0790 C   0  0  0  0  0  0  0  0  0  0  0  0
   59.8760   33.7940   50.7770 N   0  0  0  0  0  0  0  0  0  0  0  0
   59.0270   32.5800   50.8890 C   0  0  0  0  0  0  0  0  0  0  0  0
   57.9680   32.8210   52.0020 C   0  0  0  0  0  0  0  0  0  0  0  0
   57.8660   31.7510   53.1110 C   0  0  0  0  0  0  0  0  0  0  0  0
   56.6490   30.8870   52.9070 C   0  0  0  0  0  0  0  0  0  0  0  0
   55.5840   31.3360   52.1060 C   0  0  0  0  0  0  0  0  0  0  0  0
   54.4710   30.5160   51.8920 C   0  0  0  0  0  0  0  0  0  0  0  0
   54.4130   29.2440   52.4730 C   0  0  0  0  0  0  0  0  0  0  0  0
   55.4710   28.7890   53.2650 C   0  0  0  0  0  0  0  0  0  0  0  0
   56.5840   29.6060   53.4850 C   0  0  0  0  0  0  0  0  0  0  0  0
   58.4830   32.0010   49.5630 C   0  0  0  0  0  0  0  0  0  0  0  0
   59.3030   30.7350   49.7890 C   0  0  0  0  0  0  0  0  0  0  0  0
   59.8420   31.2930   51.1040 C   0  0  0  0  0  0  0  0  0  0  0  0
   58.4560   33.2740   45.8200 C   0  0  0  0  0  0  0  0  0  0  0  0
   57.3710   32.5520   45.3150 C   0  0  0  0  0  0  0  0  0  0  0  0
   57.4040   31.1540   45.2870 C   0  0  0  0  0  0  0  0  0  0  0  0
   56.3370   30.4580   44.7300 O   0  0  0  0  0  0  0  0  0  0  0  0
   58.0270   28.3030   44.6250 C   0  0  0  0  0  0  0  0  0  0  0  0
   58.2140   26.7820   44.7860 C   0  0  0  0  0  0  0  0  0  0  0  0
   55.8874   23.4038   44.9686 H   0  0  0  0  0  0  0  0  0  0  0  0
   55.1952   24.7698   44.0297 H   0  0  0  0  0  0  0  0  0  0  0  0
   56.9692   24.4878   44.0297 H   0  0  0  0  0  0  0  0  0  0  0  0
   56.9015   27.7172   47.3499 H   0  0  0  0  0  0  0  0  0  0  0  0
   58.1538   26.6703   48.1400 H   0  0  0  0  0  0  0  0  0  0  0  0
   58.9863   28.9765   47.8423 H   0  0  0  0  0  0  0  0  0  0  0  0
   59.9270   27.8192   46.8567 H   0  0  0  0  0  0  0  0  0  0  0  0
   60.4617   30.6628   46.7444 H   0  0  0  0  0  0  0  0  0  0  0  0
   60.4550   33.0160   48.8330 H   0  0  0  0  0  0  0  0  0  0  0  0
   62.5064   35.0569   48.1273 H   0  0  0  0  0  0  0  0  0  0  0  0
   63.2609   32.5951   47.4715 H   0  0  0  0  0  0  0  0  0  0  0  0
   64.3608   33.9178   48.1459 H   0  0  0  0  0  0  0  0  0  0  0  0
   66.0286   33.1029   49.4513 H   0  0  0  0  0  0  0  0  0  0  0  0
   66.8233   31.6028   51.2783 H   0  0  0  0  0  0  0  0  0  0  0  0
   65.2711   29.9258   52.2850 H   0  0  0  0  0  0  0  0  0  0  0  0
   62.9489   29.6929   51.4017 H   0  0  0  0  0  0  0  0  0  0  0  0
   62.1522   31.1767   49.5651 H   0  0  0  0  0  0  0  0  0  0  0  0
   61.6274   35.5341   50.1122 H   0  0  0  0  0  0  0  0  0  0  0  0
   63.4680   34.1400   51.5330 H   0  0  0  0  0  0  0  0  0  0  0  0
   61.6207   32.6301   50.9421 H   0  0  0  0  0  0  0  0  0  0  0  0
   61.4711   34.0030   52.1175 H   0  0  0  0  0  0  0  0  0  0  0  0
   59.4720   34.5090   51.4280 H   0  0  0  0  0  0  0  0  0  0  0  0
   58.2063   33.7797   52.4858 H   0  0  0  0  0  0  0  0  0  0  0  0
   56.9971   32.7932   51.4857 H   0  0  0  0  0  0  0  0  0  0  0  0
   58.7659   31.1188   53.0866 H   0  0  0  0  0  0  0  0  0  0  0  0
   57.7813   32.2571   54.0840 H   0  0  0  0  0  0  0  0  0  0  0  0
   55.6262   32.3346   51.6465 H   0  0  0  0  0  0  0  0  0  0  0  0
   53.6396   30.8717   51.2657 H   0  0  0  0  0  0  0  0  0  0  0  0
   53.5350   28.6026   52.3064 H   0  0  0  0  0  0  0  0  0  0  0  0
   55.4279   27.7866   53.7159 H   0  0  0  0  0  0  0  0  0  0  0  0
   57.4124   29.2457   54.1127 H   0  0  0  0  0  0  0  0  0  0  0  0
   57.3952   31.8376   49.5557 H   0  0  0  0  0  0  0  0  0  0  0  0
   58.5762   32.5680   48.6250 H   0  0  0  0  0  0  0  0  0  0  0  0
   58.6957   29.8254   49.9062 H   0  0  0  0  0  0  0  0  0  0  0  0
   60.0004   30.3861   49.0131 H   0  0  0  0  0  0  0  0  0  0  0  0
   59.5451   30.7161   51.9923 H   0  0  0  0  0  0  0  0  0  0  0  0
   60.9257   31.3431   51.2859 H   0  0  0  0  0  0  0  0  0  0  0  0
   58.4211   34.3733   45.8358 H   0  0  0  0  0  0  0  0  0  0  0  0
   56.4865   33.0861   44.9376 H   0  0  0  0  0  0  0  0  0  0  0  0
   56.9530   28.5250   44.5394 H   0  0  0  0  0  0  0  0  0  0  0  0
   58.5640   28.6253   43.7207 H   0  0  0  0  0  0  0  0  0  0  0  0
   57.6186   26.2760   44.0118 H   0  0  0  0  0  0  0  0  0  0  0  0
   59.2911   26.5807   44.6892 H   0  0  0  0  0  0  0  0  0  0  0  0
  1  2  1  0
  2  3  2  0
  2  4  2  0
  2  5  1  0
  5  6  1  0
  6  7  1  0
  7  8  1  0
  8  9  1  0
  9 10  2  0
 10 11  1  0
 11 12  1  0
 12 13  2  0
 12 14  1  0
 14 15  1  0
 15 16  1  0
 16 17  1  0
 17 18  2  0
 18 19  1  0
 19 20  2  0
 20 21  1  0
 21 22  2  0
 15 23  1  0
 23 24  1  0
 23 25  1  0
 25 26  1  0
 26 27  1  0
 27 28  1  0
 28 29  1  0
 29 30  1  0
 30 31  2  0
 31 32  1  0
 32 33  2  0
 33 34  1  0
 34 35  2  0
 27 36  1  0
 36 37  1  0
 37 38  1  0
 11 39  2  0
 39 40  1  0
 40 41  2  0
 41 42  1  0
  8 43  1  0
 43 44  1  0
 44  5  1  0
 41  9  1  0
 22 17  1  0
 38 27  1  0
 35 30  1  0
  1 45  1  0
  1 46  1  0
  1 47  1  0
  6 48  1  0
  6 49  1  0
  7 50  1  0
  7 51  1  0
 10 52  1  0
 14 53  1  0
 15 54  1  6
 16 55  1  0
 16 56  1  0
 18 57  1  0
 19 58  1  0
 20 59  1  0
 21 60  1  0
 22 61  1  0
 23 62  1  6
 24 63  1  0
 25 64  1  0
 25 65  1  0
 26 66  1  0
 28 67  1  0
 28 68  1  0
 29 69  1  0
 29 70  1  0
 31 71  1  0
 32 72  1  0
 33 73  1  0
 34 74  1  0
 35 75  1  0
 36 76  1  0
 36 77  1  0
 37 78  1  0
 37 79  1  0
 38 80  1  0
 38 81  1  0
 39 82  1  0
 40 83  1  0
 43 84  1  0
 43 85  1  0
 44 86  1  0
 44 87  1  0
M  CHG  1  42  -1
M  END
>  <UniqueID>  (23) 
22

>  <SMILES>  (23) 
CS(=O)(=O)N1CCN(c2cc(C(=O)N[C@H](Cc3ccccc3)[C@H](O)CNC3(CCc4ccccc4)CCC3)ccc2[O-])CC1

>  <Energy>  (23) 
163.50421058031975

>  <Genealogy>  (23) 
CS(=O)(=O)N1CCN(c2cc(C(=O)NC(Cc3ccccc3)C(O)CNC3(CCc4ccccc4)CCC3)ccc2[O-])CC1 (protonated)
CS(=O)(=O)N1CCN(c2cc(C(=O)N[C@H](Cc3ccccc3)[C@H](O)CNC3(CCc4ccccc4)CCC3)ccc2[O-])CC1 (chirality)
CS(=O)(=O)N1CCN(c2cc(C(=O)N[C@H](Cc3ccccc3)[C@H](O)CNC3(CCc4ccccc4)CCC3)ccc2[O-])CC1 (3D coordinates assigned)
CS(=O)(=O)N1CCN(c2cc(C(=O)N[C@H](Cc3ccccc3)[C@H](O)CNC3(CCc4ccccc4)CCC3)ccc2[O-])CC1 (nonaromatic ring conformer: 163.50421058031975 kcal/mol)

>  <smiles>  (23) 
CS(=O)(=O)N1CCN(c2cc(C(=O)NC(Cc3ccccc3)C(O)CNC3(CCc4ccccc4)CCC3)ccc2O)CC1

>  <score_type>  (23) 
oracle

>  <origin>  (23) 
adg

>  <m_score__min__energy>  (23) 
-11.74

>  <m_primary>  (23) 
energy

$$$$
23:0
     RDKit          3D

 61 64  0  0  0  0  0  0  0  0999 V2000
   58.7925   31.5411   52.5798 H   0  0  0  0  0  0  0  0  0  0  0  0
   56.8900   30.9480   51.9140 C   0  0  0  0  0  0  0  0  0  0  0  0
   58.1930   31.1850   51.7290 C   0  0  0  0  0  0  0  0  0  0  0  0
   57.2110   28.6160   52.5880 F   0  0  0  0  0  0  0  0  0  0  0  0
   55.2480   29.7180   53.2360 C   0  0  0  0  0  0  0  0  0  0  0  0
   55.1826   29.1703   54.1877 H   0  0  0  0  0  0  0  0  0  0  0  0
   56.4210   29.7220   52.5900 C   0  0  0  0  0  0  0  0  0  0  0  0
   56.1527   31.6813   51.5553 H   0  0  0  0  0  0  0  0  0  0  0  0
   58.8550   30.9870   50.4290 C   0  0  0  0  0  0  0  0  0  0  0  0
   58.4920   30.0250   49.7000 O   0  0  0  0  0  0  0  0  0  0  0  0
   59.8740   31.8880   49.9760 N   0  0  0  0  0  0  0  0  0  0  0  0
   59.9300   32.4370   48.6540 C   0  0  0  0  0  0  0  0  0  0  0  0
   58.8390   32.2310   47.8000 C   0  0  0  0  0  0  0  0  0  0  0  0
   57.9421   31.7182   48.1777 H   0  0  0  0  0  0  0  0  0  0  0  0
   58.8770   32.6710   46.4690 C   0  0  0  0  0  0  0  0  0  0  0  0
   57.7420   32.4130   45.5580 C   0  0  0  0  0  0  0  0  0  0  0  0
   56.7620   33.2080   45.5690 O   0  0  0  0  0  0  0  0  0  0  0  0
   57.7290   31.2760   44.6690 N   0  0  0  0  0  0  0  0  0  0  0  0
   57.0380   31.3350   43.3780 C   0  0  0  0  0  0  0  0  0  0  0  0
   56.3722   32.2104   43.3566 H   0  0  0  0  0  0  0  0  0  0  0  0
   57.7762   31.4204   42.5670 H   0  0  0  0  0  0  0  0  0  0  0  0
   56.2140   30.0610   43.1910 C   0  0  0  0  0  0  0  0  0  0  0  0
   55.4095   30.0380   43.9408 H   0  0  0  0  0  0  0  0  0  0  0  0
   55.7898   30.0599   42.1761 H   0  0  0  0  0  0  0  0  0  0  0  0
   57.0270   28.9120   43.3460 O   0  0  0  0  0  0  0  0  0  0  0  0
   57.5080   28.8340   44.6770 C   0  0  0  0  0  0  0  0  0  0  0  0
   56.6521   28.8305   45.3680 H   0  0  0  0  0  0  0  0  0  0  0  0
   58.0950   27.9096   44.7811 H   0  0  0  0  0  0  0  0  0  0  0  0
   58.4160   30.0260   45.0110 C   0  0  0  0  0  0  0  0  0  0  0  0
   58.6500   30.0186   46.0858 H   0  0  0  0  0  0  0  0  0  0  0  0
   59.3481   29.9500   44.4318 H   0  0  0  0  0  0  0  0  0  0  0  0
   60.0220   33.3250   45.9940 C   0  0  0  0  0  0  0  0  0  0  0  0
   60.0749   33.6406   44.9416 H   0  0  0  0  0  0  0  0  0  0  0  0
   61.0960   33.5780   46.8500 C   0  0  0  0  0  0  0  0  0  0  0  0
   61.9783   34.1163   46.4736 H   0  0  0  0  0  0  0  0  0  0  0  0
   61.0590   33.1510   48.1870 C   0  0  0  0  0  0  0  0  0  0  0  0
   62.1340   33.5210   49.0700 N   0  0  0  0  0  0  0  0  0  0  0  0
   61.8550   34.1720   50.3550 C   0  0  0  0  0  0  0  0  0  0  0  0
   62.2243   35.2076   50.3228 H   0  0  0  0  0  0  0  0  0  0  0  0
   60.7690   34.1592   50.5294 H   0  0  0  0  0  0  0  0  0  0  0  0
   62.5530   33.4200   51.5120 C   0  0  0  0  0  0  0  0  0  0  0  0
   62.9532   34.1668   52.2135 H   0  0  0  0  0  0  0  0  0  0  0  0
   61.7905   32.7671   51.9618 H   0  0  0  0  0  0  0  0  0  0  0  0
   63.6220   32.5710   51.1120 O   0  0  0  0  0  0  0  0  0  0  0  0
   64.3540   33.1340   50.0450 C   0  0  0  0  0  0  0  0  0  0  0  0
   64.6072   34.1776   50.2835 H   0  0  0  0  0  0  0  0  0  0  0  0
   65.2796   32.5602   49.8903 H   0  0  0  0  0  0  0  0  0  0  0  0
   63.5060   33.0920   48.7710 C   0  0  0  0  0  0  0  0  0  0  0  0
   63.9432   33.7657   48.0194 H   0  0  0  0  0  0  0  0  0  0  0  0
   63.4873   32.0633   48.3820 H   0  0  0  0  0  0  0  0  0  0  0  0
   54.0320   30.4090   52.7430 C   0  0  0  0  0  0  0  0  0  0  0  0
   52.9590   30.7380   53.5950 C   0  0  0  0  0  0  0  0  0  0  0  0
   53.0135   30.4887   54.6650 H   0  0  0  0  0  0  0  0  0  0  0  0
   51.8250   31.3800   53.0870 C   0  0  0  0  0  0  0  0  0  0  0  0
   50.9969   31.6461   53.7604 H   0  0  0  0  0  0  0  0  0  0  0  0
   51.7420   31.6840   51.7260 C   0  0  0  0  0  0  0  0  0  0  0  0
   50.6220   32.3340   51.2260 O   0  0  0  0  0  0  0  0  0  0  0  0
   52.7880   31.3350   50.8670 C   0  0  0  0  0  0  0  0  0  0  0  0
   52.7181   31.5660   49.7938 H   0  0  0  0  0  0  0  0  0  0  0  0
   53.9240   30.6920   51.3710 C   0  0  0  0  0  0  0  0  0  0  0  0
   54.7379   30.4062   50.6885 H   0  0  0  0  0  0  0  0  0  0  0  0
  1  2  1  0
  2  3  2  0
  3  4  1  0
  3  5  1  0
  5  6  1  0
  5  7  2  0
  7  8  1  0
  7  9  1  0
  9 10  2  0
  9 11  1  0
 11 12  1  0
 12 13  2  0
 13 14  1  0
 13 15  1  0
 15 16  1  0
 16 17  2  0
 16 18  1  0
 18 19  1  0
 19 20  1  0
 19 21  1  0
 19 22  1  0
 22 23  1  0
 22 24  1  0
 22 25  1  0
 25 26  1  0
 26 27  1  0
 26 28  1  0
 26 29  1  0
 29 30  1  0
 29 31  1  0
 15 32  2  0
 32 33  1  0
 32 34  1  0
 34 35  1  0
 34 36  2  0
 36 37  1  0
 37 38  1  0
 38 39  1  0
 38 40  1  0
 38 41  1  0
 41 42  1  0
 41 43  1  0
 41 44  1  0
 44 45  1  0
 45 46  1  0
 45 47  1  0
 45 48  1  0
 48 49  1  0
 48 50  1  0
  2 51  1  0
 51 52  2  0
 52 53  1  0
 52 54  1  0
 54 55  1  0
 54 56  2  0
 56 57  1  0
 56 58  1  0
 58 59  1  0
 58 60  2  0
 60 61  1  0
 36 12  1  0
 48 37  1  0
 60 51  1  0
 29 18  1  0
M  CHG  2  11  -1  57  -1
M  END
>  <UniqueID>  (24) 
23

>  <SMILES>  (24) 
O=C(/C=C/C(F)=Cc1ccc([O-])cc1)[N-]c1cc(C(=O)N2CCOCC2)ccc1N1CCOCC1

>  <Energy>  (24) 
89.09461060158372

>  <Genealogy>  (24) 
O=C(C=CC(F)=Cc1ccc([O-])cc1)[N-]c1cc(C(=O)N2CCOCC2)ccc1N1CCOCC1 (protonated)
O=C(/C=C/C(F)=Cc1ccc([O-])cc1)[N-]c1cc(C(=O)N2CCOCC2)ccc1N1CCOCC1 (cis-trans isomerization)
O=C(/C=C/C(F)=Cc1ccc([O-])cc1)[N-]c1cc(C(=O)N2CCOCC2)ccc1N1CCOCC1 (3D coordinates assigned)
O=C(/C=C/C(F)=Cc1ccc([O-])cc1)[N-]c1cc(C(=O)N2CCOCC2)ccc1N1CCOCC1 (nonaromatic ring conformer: 89.09461060158372 kcal/mol)

>  <smiles>  (24) 
O=C(C=CC(F)=Cc1ccc(O)cc1)Nc1cc(C(=O)N2CCOCC2)ccc1N1CCOCC1

>  <score_type>  (24) 
oracle

>  <origin>  (24) 
adg

>  <m_score__min__energy>  (24) 
-13.9

>  <m_primary>  (24) 
energy

$$$$
24:0
     RDKit          3D

 48 50  0  0  0  0  0  0  0  0999 V2000
   59.9630   34.6210   46.2720 C   0  0  0  0  0  0  0  0  0  0  0  0
   58.7850   34.0010   45.6800 N   0  0  0  0  0  0  0  0  0  0  0  0
   58.4020   32.6320   45.8640 C   0  0  0  0  0  0  0  0  0  0  0  0
   58.0410   31.9640   44.8590 O   0  0  0  0  0  0  0  0  0  0  0  0
   58.4530   31.9690   47.1830 C   0  0  0  0  0  0  0  0  0  0  0  0
   58.2080   32.7120   48.3470 C   0  0  0  0  0  0  0  0  0  0  0  0
   58.2670   32.0990   49.6030 C   0  0  0  0  0  0  0  0  0  0  0  0
   58.5770   30.7350   49.7110 C   0  0  0  0  0  0  0  0  0  0  0  0
   58.6800   30.0880   51.0610 C   0  0  0  0  0  0  0  0  0  0  0  0
   58.4930   31.1020   52.0900 N   0  0  0  0  0  0  0  0  0  0  0  0
   57.2960   31.3780   52.8330 C   0  0  0  0  0  0  0  0  0  0  0  0
   56.7910   32.5270   52.7100 O   0  0  0  0  0  0  0  0  0  0  0  0
   56.5670   30.3260   53.6730 C   0  0  2  0  0  0  0  0  0  0  0  0
   56.1810   30.8320   55.0820 C   0  0  0  0  0  0  0  0  0  0  0  0
   57.4240   29.0320   53.7590 C   0  0  0  0  0  0  0  0  0  0  0  0
   56.6270   28.0540   53.1210 O   0  0  0  0  0  0  0  0  0  0  0  0
   55.4260   28.5450   52.6900 N   0  0  0  0  0  0  0  0  0  0  0  0
   55.3260   29.8010   52.9630 C   0  0  0  0  0  0  0  0  0  0  0  0
   54.0840   30.5650   52.6400 C   0  0  0  0  0  0  0  0  0  0  0  0
   53.9310   31.1400   51.3630 C   0  0  0  0  0  0  0  0  0  0  0  0
   52.7760   31.8510   51.0340 C   0  0  0  0  0  0  0  0  0  0  0  0
   51.7530   32.0070   51.9710 C   0  0  0  0  0  0  0  0  0  0  0  0
   50.6080   32.7160   51.6210 O   0  0  0  0  0  0  0  0  0  0  0  0
   51.8850   31.4520   53.2540 C   0  0  0  0  0  0  0  0  0  0  0  0
   50.7840   31.6140   54.2640 C   0  0  0  0  0  0  0  0  0  0  0  0
   53.0470   30.7320   53.5800 C   0  0  0  0  0  0  0  0  0  0  0  0
   58.8610   30.0010   48.5490 C   0  0  0  0  0  0  0  0  0  0  0  0
   58.8010   30.6130   47.2950 C   0  0  0  0  0  0  0  0  0  0  0  0
   59.8866   34.5808   47.3686 H   0  0  0  0  0  0  0  0  0  0  0  0
   60.8642   34.0804   45.9472 H   0  0  0  0  0  0  0  0  0  0  0  0
   60.0276   35.6700   45.9472 H   0  0  0  0  0  0  0  0  0  0  0  0
   57.9681   33.7829   48.2719 H   0  0  0  0  0  0  0  0  0  0  0  0
   58.0694   32.6891   50.5101 H   0  0  0  0  0  0  0  0  0  0  0  0
   57.9033   29.3153   51.1596 H   0  0  0  0  0  0  0  0  0  0  0  0
   59.6700   29.6223   51.1746 H   0  0  0  0  0  0  0  0  0  0  0  0
   56.6627   30.2005   55.8431 H   0  0  0  0  0  0  0  0  0  0  0  0
   56.5169   31.8725   55.2027 H   0  0  0  0  0  0  0  0  0  0  0  0
   55.0887   30.7830   55.2027 H   0  0  0  0  0  0  0  0  0  0  0  0
   58.3814   29.1609   53.2329 H   0  0  0  0  0  0  0  0  0  0  0  0
   57.6811   28.7611   54.7937 H   0  0  0  0  0  0  0  0  0  0  0  0
   54.7311   31.0273   50.6166 H   0  0  0  0  0  0  0  0  0  0  0  0
   52.6712   32.2907   50.0312 H   0  0  0  0  0  0  0  0  0  0  0  0
   51.2049   31.5521   55.2784 H   0  0  0  0  0  0  0  0  0  0  0  0
   50.3013   32.5928   54.1264 H   0  0  0  0  0  0  0  0  0  0  0  0
   50.0398   30.8157   54.1264 H   0  0  0  0  0  0  0  0  0  0  0  0
   53.1488   30.2924   54.5832 H   0  0  0  0  0  0  0  0  0  0  0  0
   59.1324   28.9378   48.6263 H   0  0  0  0  0  0  0  0  0  0  0  0
   59.0275   30.0298   46.3902 H   0  0  0  0  0  0  0  0  0  0  0  0
  1  2  1  0
  2  3  1  0
  3  4  2  0
  3  5  1  0
  5  6  2  0
  6  7  1  0
  7  8  2  0
  8  9  1  0
  9 10  1  0
 10 11  1  0
 11 12  2  0
 11 13  1  0
 13 14  1  1
 13 15  1  0
 15 16  1  0
 16 17  1  0
 17 18  2  0
 18 19  1  0
 19 20  2  0
 20 21  1  0
 21 22  2  0
 22 23  1  0
 22 24  1  0
 24 25  1  0
 24 26  2  0
  8 27  1  0
 27 28  2  0
 28  5  1  0
 18 13  1  0
 26 19  1  0
  1 29  1  0
  1 30  1  0
  1 31  1  0
  6 32  1  0
  7 33  1  0
  9 34  1  0
  9 35  1  0
 14 36  1  0
 14 37  1  0
 14 38  1  0
 15 39  1  0
 15 40  1  0
 20 41  1  0
 21 42  1  0
 25 43  1  0
 25 44  1  0
 25 45  1  0
 26 46  1  0
 27 47  1  0
 28 48  1  0
M  CHG  3   2  -1  10  -1  23  -1
M  END
>  <UniqueID>  (25) 
24

>  <SMILES>  (25) 
C[N-]C(=O)c1ccc(C[N-]C(=O)[C@]2(C)CON=C2c2ccc([O-])c(C)c2)cc1

>  <Energy>  (25) 
70.95697322706573

>  <Genealogy>  (25) 
C[N-]C(=O)c1ccc(C[N-]C(=O)C2(C)CON=C2c2ccc([O-])c(C)c2)cc1 (protonated)
C[N-]C(=O)c1ccc(C[N-]C(=O)[C@]2(C)CON=C2c2ccc([O-])c(C)c2)cc1 (chirality)
C[N-]C(=O)c1ccc(C[N-]C(=O)[C@]2(C)CON=C2c2ccc([O-])c(C)c2)cc1 (3D coordinates assigned)
C[N-]C(=O)c1ccc(C[N-]C(=O)[C@]2(C)CON=C2c2ccc([O-])c(C)c2)cc1 (nonaromatic ring conformer: 70.95697322706573 kcal/mol)

>  <smiles>  (25) 
CNC(=O)c1ccc(CNC(=O)C2(C)CON=C2c2ccc(O)c(C)c2)cc1

>  <score_type>  (25) 
oracle

>  <origin>  (25) 
adg

>  <m_score__min__energy>  (25) 
-13.82

>  <m_primary>  (25) 
energy

$$$$
25:0
     RDKit          3D

 63 65  0  0  0  0  0  0  0  0999 V2000
   63.0580   33.8300   48.2640 C   0  0  0  0  0  0  0  0  0  0  0  0
   61.8140   34.1460   48.6300 C   0  0  0  0  0  0  0  0  0  0  0  0
   60.6110   33.9270   47.7870 C   0  0  0  0  0  0  0  0  0  0  0  0
   60.7020   34.1930   46.4110 C   0  0  0  0  0  0  0  0  0  0  0  0
   59.5880   34.0370   45.5810 C   0  0  0  0  0  0  0  0  0  0  0  0
   58.3500   33.6560   46.1190 C   0  0  0  0  0  0  0  0  0  0  0  0
   57.1640   33.5400   45.2460 C   0  0  0  0  0  0  0  0  0  0  0  0
   56.6630   34.5890   44.7540 O   0  0  0  0  0  0  0  0  0  0  0  0
   56.6240   32.2710   44.8460 N   0  0  0  0  0  0  0  0  0  0  0  0
   57.2820   30.9920   44.8060 C   0  0  0  0  0  0  0  0  0  0  0  0
   56.9240   30.0870   43.7950 C   0  0  0  0  0  0  0  0  0  0  0  0
   57.5410   28.8380   43.7090 C   0  0  0  0  0  0  0  0  0  0  0  0
   58.5340   28.4830   44.6260 C   0  0  0  0  0  0  0  0  0  0  0  0
   58.8980   29.3710   45.6520 C   0  0  0  0  0  0  0  0  0  0  0  0
   60.0260   29.0190   46.5890 C   0  0  0  0  0  0  0  0  0  0  0  0
   60.0980   29.9770   47.7140 N   0  0  0  0  0  0  0  0  0  0  0  0
   61.5080   30.2850   48.0420 C   0  0  0  0  0  0  0  0  0  0  0  0
   61.6140   31.0420   49.3700 C   0  0  0  0  0  0  0  0  0  0  0  0
   61.1200   30.1690   50.5440 C   0  0  0  0  0  0  0  0  0  0  0  0
   60.5590   31.0390   51.6450 C   0  0  0  0  0  0  0  0  0  0  0  0
   61.2770   31.3170   52.6430 O   0  0  0  0  0  0  0  0  0  0  0  0
   59.1950   31.4970   51.5770 N   0  0  0  0  0  0  0  0  0  0  0  0
   58.5840   32.4780   52.4950 C   0  0  0  0  0  0  0  0  0  0  0  0
   59.2170   33.8630   52.2430 C   0  0  0  0  0  0  0  0  0  0  0  0
   58.8570   32.0760   53.9580 C   0  0  0  0  0  0  0  0  0  0  0  0
   57.0660   32.5800   52.2390 C   0  0  0  0  0  0  0  0  0  0  0  0
   60.1070   29.0910   50.0910 C   0  0  0  0  0  0  0  0  0  0  0  0
   59.2770   29.5540   48.8850 C   0  0  0  0  0  0  0  0  0  0  0  0
   58.2420   30.6110   45.7610 C   0  0  0  0  0  0  0  0  0  0  0  0
   58.2570   33.3750   47.4900 C   0  0  0  0  0  0  0  0  0  0  0  0
   59.3750   33.5010   48.3170 C   0  0  0  0  0  0  0  0  0  0  0  0
   63.8983   34.0242   48.9468 H   0  0  0  0  0  0  0  0  0  0  0  0
   63.2430   33.3754   47.2796 H   0  0  0  0  0  0  0  0  0  0  0  0
   61.6701   34.5988   49.6221 H   0  0  0  0  0  0  0  0  0  0  0  0
   61.6584   34.5271   45.9825 H   0  0  0  0  0  0  0  0  0  0  0  0
   59.6829   34.2141   44.4995 H   0  0  0  0  0  0  0  0  0  0  0  0
   56.1503   30.3644   43.0639 H   0  0  0  0  0  0  0  0  0  0  0  0
   57.2454   28.1324   42.9186 H   0  0  0  0  0  0  0  0  0  0  0  0
   59.0320   27.5056   44.5442 H   0  0  0  0  0  0  0  0  0  0  0  0
   59.8602   28.0073   46.9878 H   0  0  0  0  0  0  0  0  0  0  0  0
   60.9726   29.0621   46.0303 H   0  0  0  0  0  0  0  0  0  0  0  0
   62.0725   29.3440   48.1191 H   0  0  0  0  0  0  0  0  0  0  0  0
   61.9210   30.9201   47.2445 H   0  0  0  0  0  0  0  0  0  0  0  0
   62.6644   31.3183   49.5440 H   0  0  0  0  0  0  0  0  0  0  0  0
   60.9840   31.9419   49.3124 H   0  0  0  0  0  0  0  0  0  0  0  0
   61.9877   29.6231   50.9428 H   0  0  0  0  0  0  0  0  0  0  0  0
   58.6080   31.1130   50.7990 H   0  0  0  0  0  0  0  0  0  0  0  0
   59.4378   34.3460   53.2063 H   0  0  0  0  0  0  0  0  0  0  0  0
   60.1491   33.7417   51.6715 H   0  0  0  0  0  0  0  0  0  0  0  0
   58.5153   34.4884   51.6715 H   0  0  0  0  0  0  0  0  0  0  0  0
   58.3690   32.7946   54.6329 H   0  0  0  0  0  0  0  0  0  0  0  0
   58.4554   31.0687   54.1425 H   0  0  0  0  0  0  0  0  0  0  0  0
   59.9414   32.0779   54.1425 H   0  0  0  0  0  0  0  0  0  0  0  0
   56.5335   32.6158   53.2009 H   0  0  0  0  0  0  0  0  0  0  0  0
   56.8513   33.4946   51.6668 H   0  0  0  0  0  0  0  0  0  0  0  0
   56.7309   31.7024   51.6668 H   0  0  0  0  0  0  0  0  0  0  0  0
   60.6576   28.1797   49.8146 H   0  0  0  0  0  0  0  0  0  0  0  0
   59.4168   28.9003   50.9260 H   0  0  0  0  0  0  0  0  0  0  0  0
   58.6283   28.7229   48.5712 H   0  0  0  0  0  0  0  0  0  0  0  0
   58.7054   30.4359   49.2099 H   0  0  0  0  0  0  0  0  0  0  0  0
   58.4809   31.2854   46.5966 H   0  0  0  0  0  0  0  0  0  0  0  0
   57.2958   33.0529   47.9171 H   0  0  0  0  0  0  0  0  0  0  0  0
   59.2914   33.2666   49.3885 H   0  0  0  0  0  0  0  0  0  0  0  0
  1  2  2  0
  2  3  1  0
  3  4  2  0
  4  5  1  0
  5  6  2  0
  6  7  1  0
  7  8  2  0
  7  9  1  0
  9 10  1  0
 10 11  2  0
 11 12  1  0
 12 13  2  0
 13 14  1  0
 14 15  1  0
 15 16  1  0
 16 17  1  0
 17 18  1  0
 18 19  1  0
 19 20  1  0
 20 21  2  0
 20 22  1  0
 22 23  1  0
 23 24  1  0
 23 25  1  0
 23 26  1  0
 19 27  1  0
 27 28  1  0
 14 29  2  0
  6 30  1  0
 30 31  2  0
 31  3  1  0
 29 10  1  0
 28 16  1  0
  1 32  1  0
  1 33  1  0
  2 34  1  0
  4 35  1  0
  5 36  1  0
 11 37  1  0
 12 38  1  0
 13 39  1  0
 15 40  1  0
 15 41  1  0
 17 42  1  0
 17 43  1  0
 18 44  1  0
 18 45  1  0
 19 46  1  0
 22 47  1  0
 24 48  1  0
 24 49  1  0
 24 50  1  0
 25 51  1  0
 25 52  1  0
 25 53  1  0
 26 54  1  0
 26 55  1  0
 26 56  1  0
 27 57  1  0
 27 58  1  0
 28 59  1  0
 28 60  1  0
 29 61  1  0
 30 62  1  0
 31 63  1  0
M  CHG  1   9  -1
M  END
>  <UniqueID>  (26) 
25

>  <SMILES>  (26) 
C=Cc1ccc(C(=O)[N-]c2cccc(CN3CCC(C(=O)NC(C)(C)C)CC3)c2)cc1

>  <Energy>  (26) 
73.61840538448085

>  <Genealogy>  (26) 
C=Cc1ccc(C(=O)[N-]c2cccc(CN3CCC(C(=O)NC(C)(C)C)CC3)c2)cc1 (protonated)
C=Cc1ccc(C(=O)[N-]c2cccc(CN3CCC(C(=O)NC(C)(C)C)CC3)c2)cc1 (3D coordinates assigned)
C=Cc1ccc(C(=O)[N-]c2cccc(CN3CCC(C(=O)NC(C)(C)C)CC3)c2)cc1 (nonaromatic ring conformer: 73.61840538448085 kcal/mol)

>  <smiles>  (26) 
C=Cc1ccc(C(=O)Nc2cccc(CN3CCC(C(=O)NC(C)(C)C)CC3)c2)cc1

>  <score_type>  (26) 
oracle

>  <origin>  (26) 
adg

>  <m_score__min__energy>  (26) 
-10.699999999999999

>  <m_primary>  (26) 
energy

$$$$
26:0
     RDKit          3D

 46 48  0  0  0  0  0  0  0  0999 V2000
   50.1120   33.4790   52.0320 H   0  0  0  0  0  0  0  0  0  0  0  0
   50.5830   32.5470   52.0710 N   0  0  0  0  0  0  0  0  0  0  0  0
   51.2710   32.0290   50.9380 C   0  0  0  0  0  0  0  0  0  0  0  0
   51.4860   32.7680   49.9430 O   0  0  0  0  0  0  0  0  0  0  0  0
   51.7780   30.6210   50.9500 C   0  0  0  0  0  0  0  0  0  0  0  0
   52.2194   30.3847   49.9705 H   0  0  0  0  0  0  0  0  0  0  0  0
   50.9408   29.9383   51.1573 H   0  0  0  0  0  0  0  0  0  0  0  0
   52.8230   30.4580   52.0190 C   0  0  0  0  0  0  0  0  0  0  0  0
   52.4950   29.8600   53.2450 C   0  0  0  0  0  0  0  0  0  0  0  0
   51.4613   29.5373   53.4381 H   0  0  0  0  0  0  0  0  0  0  0  0
   53.4760   29.6730   54.2210 C   0  0  0  0  0  0  0  0  0  0  0  0
   53.2103   29.2141   55.1848 H   0  0  0  0  0  0  0  0  0  0  0  0
   54.7940   30.0670   53.9770 C   0  0  0  0  0  0  0  0  0  0  0  0
   55.5608   29.9172   54.7514 H   0  0  0  0  0  0  0  0  0  0  0  0
   55.1480   30.6540   52.7480 C   0  0  0  0  0  0  0  0  0  0  0  0
   56.5520   31.0500   52.4760 C   0  0  0  0  0  0  0  0  0  0  0  0
   57.5660   30.9860   53.4370 C   0  0  0  0  0  0  0  0  0  0  0  0
   57.4416   30.6772   54.4854 H   0  0  0  0  0  0  0  0  0  0  0  0
   59.0080   31.4620   52.7150 S   0  0  0  0  0  0  0  0  0  0  0  0
   58.2920   31.7470   51.2170 C   0  0  0  0  0  0  0  0  0  0  0  0
   58.8990   32.1200   50.1270 N   0  0  0  0  0  0  0  0  0  0  0  0
   59.4080   33.4300   49.8280 C   0  0  0  0  0  0  0  0  0  0  0  0
   59.9630   34.1310   50.7170 O   0  0  0  0  0  0  0  0  0  0  0  0
   59.3110   33.9640   48.4360 C   0  0  0  0  0  0  0  0  0  0  0  0
   60.1826   33.6276   47.8553 H   0  0  0  0  0  0  0  0  0  0  0  0
   59.2881   35.0632   48.4718 H   0  0  0  0  0  0  0  0  0  0  0  0
   58.1180   33.4910   47.8140 O   0  0  0  0  0  0  0  0  0  0  0  0
   58.0540   32.9790   46.5100 C   0  0  0  0  0  0  0  0  0  0  0  0
   57.8640   33.8740   45.4520 C   0  0  0  0  0  0  0  0  0  0  0  0
   57.7808   34.9515   45.6571 H   0  0  0  0  0  0  0  0  0  0  0  0
   57.7790   33.4100   44.1360 C   0  0  0  0  0  0  0  0  0  0  0  0
   57.6339   34.1246   43.3124 H   0  0  0  0  0  0  0  0  0  0  0  0
   57.8780   32.0340   43.8590 C   0  0  0  0  0  0  0  0  0  0  0  0
   57.7830   31.5180   42.5570 O   0  0  0  0  0  0  0  0  0  0  0  0
   57.8090   32.3070   41.3710 C   0  0  0  0  0  0  0  0  0  0  0  0
   57.8441   33.3729   41.6404 H   0  0  0  0  0  0  0  0  0  0  0  0
   58.6991   32.0491   40.7784 H   0  0  0  0  0  0  0  0  0  0  0  0
   56.9038   32.1082   40.7784 H   0  0  0  0  0  0  0  0  0  0  0  0
   58.0810   31.1400   44.9160 C   0  0  0  0  0  0  0  0  0  0  0  0
   58.1706   30.0632   44.7097 H   0  0  0  0  0  0  0  0  0  0  0  0
   58.1710   31.6030   46.2320 C   0  0  0  0  0  0  0  0  0  0  0  0
   58.3338   30.8900   47.0537 H   0  0  0  0  0  0  0  0  0  0  0  0
   56.9720   31.4730   51.2490 N   0  0  0  0  0  0  0  0  0  0  0  0
   56.3470   31.5870   50.4210 H   0  0  0  0  0  0  0  0  0  0  0  0
   54.1530   30.8420   51.7710 C   0  0  0  0  0  0  0  0  0  0  0  0
   54.4180   31.2938   50.8037 H   0  0  0  0  0  0  0  0  0  0  0  0
  1  2  1  0
  2  3  1  0
  3  4  2  0
  3  5  1  0
  5  6  1  0
  5  7  1  0
  5  8  1  0
  8  9  2  0
  9 10  1  0
  9 11  1  0
 11 12  1  0
 11 13  2  0
 13 14  1  0
 13 15  1  0
 15 16  1  0
 16 17  2  0
 17 18  1  0
 17 19  1  0
 19 20  1  0
 20 21  2  0
 21 22  1  0
 22 23  2  0
 22 24  1  0
 24 25  1  0
 24 26  1  0
 24 27  1  0
 27 28  1  0
 28 29  2  0
 29 30  1  0
 29 31  1  0
 31 32  1  0
 31 33  2  0
 33 34  1  0
 34 35  1  0
 35 36  1  0
 35 37  1  0
 35 38  1  0
 33 39  1  0
 39 40  1  0
 39 41  2  0
 41 42  1  0
 20 43  1  0
 43 44  1  0
 15 45  2  0
 45 46  1  0
 45  8  1  0
 43 16  1  0
 41 28  1  0
M  CHG  1   2  -1
M  END
>  <UniqueID>  (27) 
26

>  <SMILES>  (27) 
COc1ccc(OCC(=O)/N=c2/[nH]c(-c3cccc(CC([NH-])=O)c3)cs2)cc1

>  <Energy>  (27) 
81.0874890800184

>  <Genealogy>  (27) 
COc1ccc(OCC(=O)N=c2[nH]c(-c3cccc(CC([NH-])=O)c3)cs2)cc1 (protonated)
COc1ccc(OCC(=O)/N=c2/[nH]c(-c3cccc(CC([NH-])=O)c3)cs2)cc1 (cis-trans isomerization)
COc1ccc(OCC(=O)/N=c2/[nH]c(-c3cccc(CC([NH-])=O)c3)cs2)cc1 (3D coordinates assigned)
COc1ccc(OCC(=O)/N=c2/[nH]c(-c3cccc(CC([NH-])=O)c3)cs2)cc1 (optimized conformer: 81.0874890800184 kcal/mol)

>  <smiles>  (27) 
COc1ccc(OCC(=O)N=c2[nH]c(-c3cccc(CC(N)=O)c3)cs2)cc1

>  <score_type>  (27) 
oracle

>  <origin>  (27) 
adg

>  <m_score__min__energy>  (27) 
-11.77

>  <m_primary>  (27) 
energy

$$$$
27:0
     RDKit          3D

 36 38  0  0  0  0  0  0  0  0999 V2000
   58.6234   26.1286   43.9641 H   0  0  0  0  0  0  0  0  0  0  0  0
   58.5390   27.1400   43.5400 C   0  0  0  0  0  0  0  0  0  0  0  0
   59.0731   27.3939   42.6125 H   0  0  0  0  0  0  0  0  0  0  0  0
   57.7870   28.0610   44.1520 C   0  0  0  0  0  0  0  0  0  0  0  0
   57.1580   28.0020   45.4010 C   0  0  0  0  0  0  0  0  0  0  0  0
   56.9750   26.9760   46.2490 C   0  0  0  0  0  0  0  0  0  0  0  0
   57.5788   26.9719   47.1684 H   0  0  0  0  0  0  0  0  0  0  0  0
   56.0390   25.8580   46.0570 C   0  0  0  0  0  0  0  0  0  0  0  0
   54.7620   26.0270   45.6190 N   0  0  0  0  0  0  0  0  0  0  0  0
   54.2620   24.7860   45.7010 C   0  0  0  0  0  0  0  0  0  0  0  0
   52.9780   24.3600   45.3680 C   0  0  0  0  0  0  0  0  0  0  0  0
   52.2285   25.0629   44.9753 H   0  0  0  0  0  0  0  0  0  0  0  0
   52.6740   22.9980   45.5520 C   0  0  0  0  0  0  0  0  0  0  0  0
   51.6721   22.6219   45.2975 H   0  0  0  0  0  0  0  0  0  0  0  0
   53.6490   22.1110   46.0620 C   0  0  0  0  0  0  0  0  0  0  0  0
   53.4010   21.0487   46.2036 H   0  0  0  0  0  0  0  0  0  0  0  0
   54.9360   22.5790   46.3900 C   0  0  0  0  0  0  0  0  0  0  0  0
   55.7043   21.9008   46.7897 H   0  0  0  0  0  0  0  0  0  0  0  0
   55.2010   23.9320   46.1900 C   0  0  0  0  0  0  0  0  0  0  0  0
   56.3410   24.5910   46.4420 N   0  0  0  0  0  0  0  0  0  0  0  0
   56.7120   29.2090   45.6730 O   0  0  0  0  0  0  0  0  0  0  0  0
   56.9980   29.9790   44.6460 C   0  0  0  0  0  0  0  0  0  0  0  0
   56.6830   31.3380   44.5570 O   0  0  0  0  0  0  0  0  0  0  0  0
   57.5810   32.3300   44.1410 C   0  0  0  0  0  0  0  0  0  0  0  0
   58.0770   32.2990   42.9800 O   0  0  0  0  0  0  0  0  0  0  0  0
   57.9370   33.3900   45.0440 N   0  0  0  0  0  0  0  0  0  0  0  0
   57.3550   33.4150   46.3870 C   0  0  0  0  0  0  0  0  0  0  0  0
   58.1598   33.3804   47.1361 H   0  0  0  0  0  0  0  0  0  0  0  0
   56.7725   34.3390   46.5170 H   0  0  0  0  0  0  0  0  0  0  0  0
   56.6954   32.5444   46.5170 H   0  0  0  0  0  0  0  0  0  0  0  0
   58.8760   34.4300   44.6140 C   0  0  0  0  0  0  0  0  0  0  0  0
   59.3148   34.9160   45.4979 H   0  0  0  0  0  0  0  0  0  0  0  0
   59.6756   33.9754   44.0107 H   0  0  0  0  0  0  0  0  0  0  0  0
   58.3423   35.1791   44.0107 H   0  0  0  0  0  0  0  0  0  0  0  0
   57.6490   29.3140   43.6760 N   0  0  0  0  0  0  0  0  0  0  0  0
   58.0220   29.7090   42.7830 H   0  0  0  0  0  0  0  0  0  0  0  0
  1  2  1  0
  2  3  1  0
  2  4  2  0
  4  5  1  0
  5  6  2  0
  6  7  1  0
  6  8  1  0
  8  9  2  0
  9 10  1  0
 10 11  2  0
 11 12  1  0
 11 13  1  0
 13 14  1  0
 13 15  2  0
 15 16  1  0
 15 17  1  0
 17 18  1  0
 17 19  2  0
 19 20  1  0
  5 21  1  0
 21 22  1  0
 22 23  1  0
 23 24  1  0
 24 25  2  0
 24 26  1  0
 26 27  1  0
 27 28  1  0
 27 29  1  0
 27 30  1  0
 26 31  1  0
 31 32  1  0
 31 33  1  0
 31 34  1  0
 22 35  2  0
 35 36  1  0
 35  4  1  0
 20  8  1  0
 19 10  1  0
M  CHG  2  20  -1  35   1
M  END
>  <UniqueID>  (28) 
27

>  <SMILES>  (28) 
C=c1[nH+]c(OC(=O)N(C)C)o/c1=C/c1nc2ccccc2[n-]1

>  <Energy>  (28) 
111.94618922678042

>  <Genealogy>  (28) 
C=c1[nH+]c(OC(=O)N(C)C)oc1=Cc1nc2ccccc2[n-]1 (protonated)
C=c1[nH+]c(OC(=O)N(C)C)o/c1=C/c1nc2ccccc2[n-]1 (cis-trans isomerization)
C=c1[nH+]c(OC(=O)N(C)C)o/c1=C/c1nc2ccccc2[n-]1 (3D coordinates assigned)
C=c1[nH+]c(OC(=O)N(C)C)o/c1=C/c1nc2ccccc2[n-]1 (optimized conformer: 111.94618922678042 kcal/mol)

>  <smiles>  (28) 
C=c1nc(OC(=O)N(C)C)oc1=Cc1nc2ccccc2[nH]1

>  <score_type>  (28) 
oracle

>  <origin>  (28) 
adg

>  <m_score__min__energy>  (28) 
-7.7300000000000004

>  <m_primary>  (28) 
energy

$$$$
28:0
     RDKit          3D

 56 59  0  0  0  0  0  0  0  0999 V2000
   57.0382   20.6609   42.5713 H   0  0  0  0  0  0  0  0  0  0  0  0
   56.7610   21.6030   43.0670 C   0  0  0  0  0  0  0  0  0  0  0  0
   57.5510   22.2220   43.9700 N   0  0  0  0  0  0  0  0  0  0  0  0
   56.8490   23.3180   44.3050 C   0  0  0  0  0  0  0  0  0  0  0  0
   57.2860   24.3110   45.3390 C   0  0  0  0  0  0  0  0  0  0  0  0
   57.6529   25.2166   44.8337 H   0  0  0  0  0  0  0  0  0  0  0  0
   58.0822   23.8540   45.9449 H   0  0  0  0  0  0  0  0  0  0  0  0
   56.1320   24.6910   46.2660 C   0  0  0  0  0  0  0  0  0  0  0  0
   56.4965   24.7289   47.3032 H   0  0  0  0  0  0  0  0  0  0  0  0
   55.3357   23.9376   46.1750 H   0  0  0  0  0  0  0  0  0  0  0  0
   55.5960   25.9980   45.8950 N   0  0  0  0  0  0  0  0  0  0  0  0
   56.2670   27.1070   45.9670 C   0  0  0  0  0  0  0  0  0  0  0  0
   57.3450   27.1810   46.7870 N   0  0  0  0  0  0  0  0  0  0  0  0
   58.0650   28.3320   46.8770 C   0  0  0  0  0  0  0  0  0  0  0  0
   59.0960   28.4180   47.6610 N   0  0  0  0  0  0  0  0  0  0  0  0
   59.8810   29.6080   47.8370 C   0  0  0  0  0  0  0  0  0  0  0  0
   60.7310   30.0350   46.7970 C   0  0  0  0  0  0  0  0  0  0  0  0
   60.8060   29.2600   45.5090 C   0  0  0  0  0  0  0  0  0  0  0  0
   60.9098   28.1878   45.7317 H   0  0  0  0  0  0  0  0  0  0  0  0
   59.8876   29.4264   44.9269 H   0  0  0  0  0  0  0  0  0  0  0  0
   61.6755   29.5994   44.9269 H   0  0  0  0  0  0  0  0  0  0  0  0
   61.4820   31.2100   46.9500 C   0  0  0  0  0  0  0  0  0  0  0  0
   62.1430   31.5440   46.1366 H   0  0  0  0  0  0  0  0  0  0  0  0
   61.3980   31.9620   48.1290 C   0  0  0  0  0  0  0  0  0  0  0  0
   62.2270   33.2010   48.2930 C   0  0  0  0  0  0  0  0  0  0  0  0
   62.3666   33.4097   49.3640 H   0  0  0  0  0  0  0  0  0  0  0  0
   63.2077   33.0516   47.8177 H   0  0  0  0  0  0  0  0  0  0  0  0
   61.7147   34.0505   47.8177 H   0  0  0  0  0  0  0  0  0  0  0  0
   60.5910   31.5090   49.1810 C   0  0  0  0  0  0  0  0  0  0  0  0
   60.5429   32.0853   50.1167 H   0  0  0  0  0  0  0  0  0  0  0  0
   59.8440   30.3290   49.0540 C   0  0  0  0  0  0  0  0  0  0  0  0
   58.9940   29.8730   50.2110 C   0  0  0  0  0  0  0  0  0  0  0  0
   59.4890   30.1386   51.1567 H   0  0  0  0  0  0  0  0  0  0  0  0
   58.0115   30.3652   50.1606 H   0  0  0  0  0  0  0  0  0  0  0  0
   58.8607   28.7823   50.1606 H   0  0  0  0  0  0  0  0  0  0  0  0
   57.6920   29.4130   46.1470 N   0  0  0  0  0  0  0  0  0  0  0  0
   56.6150   29.3480   45.3200 C   0  0  0  0  0  0  0  0  0  0  0  0
   56.2550   30.3730   44.6070 N   0  0  0  0  0  0  0  0  0  0  0  0
   57.1680   31.2060   43.8230 C   0  0  0  0  0  0  0  0  0  0  0  0
   57.9925   30.5829   43.4463 H   0  0  0  0  0  0  0  0  0  0  0  0
   56.6117   31.6490   42.9838 H   0  0  0  0  0  0  0  0  0  0  0  0
   57.7330   32.3150   44.6700 C   0  0  0  0  0  0  0  0  0  0  0  0
   57.4360   32.3720   46.0420 C   0  0  0  0  0  0  0  0  0  0  0  0
   56.8074   31.5939   46.4996 H   0  0  0  0  0  0  0  0  0  0  0  0
   57.9370   33.4150   46.8280 C   0  0  0  0  0  0  0  0  0  0  0  0
   57.7053   33.4532   47.9027 H   0  0  0  0  0  0  0  0  0  0  0  0
   58.7310   34.4080   46.2500 C   0  0  0  0  0  0  0  0  0  0  0  0
   59.1239   35.2273   46.8700 H   0  0  0  0  0  0  0  0  0  0  0  0
   59.0270   34.3620   44.8850 C   0  0  0  0  0  0  0  0  0  0  0  0
   59.6517   35.1454   44.4310 H   0  0  0  0  0  0  0  0  0  0  0  0
   58.5290   33.3200   44.0960 C   0  0  0  0  0  0  0  0  0  0  0  0
   58.7617   33.2874   43.0214 H   0  0  0  0  0  0  0  0  0  0  0  0
   55.9040   28.1950   45.2340 N   0  0  0  0  0  0  0  0  0  0  0  0
   55.6570   23.3310   43.6220 C   0  0  0  0  0  0  0  0  0  0  0  0
   54.8775   24.1021   43.7100 H   0  0  0  0  0  0  0  0  0  0  0  0
   55.5990   22.2480   42.8290 N   0  0  0  0  0  0  0  0  0  0  0  0
  1  2  1  0
  2  3  2  0
  3  4  1  0
  4  5  1  0
  5  6  1  0
  5  7  1  0
  5  8  1  0
  8  9  1  0
  8 10  1  0
  8 11  1  0
 11 12  2  0
 12 13  1  0
 13 14  1  0
 14 15  2  3
 15 16  1  0
 16 17  2  0
 17 18  1  0
 18 19  1  0
 18 20  1  0
 18 21  1  0
 17 22  1  0
 22 23  1  0
 22 24  2  0
 24 25  1  0
 25 26  1  0
 25 27  1  0
 25 28  1  0
 24 29  1  0
 29 30  1  0
 29 31  2  0
 31 32  1  0
 32 33  1  0
 32 34  1  0
 32 35  1  0
 14 36  1  0
 36 37  1  0
 37 38  2  0
 38 39  1  0
 39 40  1  0
 39 41  1  0
 39 42  1  0
 42 43  2  0
 43 44  1  0
 43 45  1  0
 45 46  1  0
 45 47  2  0
 47 48  1  0
 47 49  1  0
 49 50  1  0
 49 51  2  0
 51 52  1  0
 37 53  1  0
  4 54  2  0
 54 55  1  0
 54 56  1  0
 56  2  1  0
 53 12  1  0
 31 16  1  0
 51 42  1  0
M  CHG  4  13  -1  36  -1  53  -1  56  -1
M  END
>  <UniqueID>  (29) 
28

>  <SMILES>  (29) 
Cc1cc(C)c(N=c2[n-]/c(=N\Cc3ccccc3)[n-]/c(=N\CCc3c[n-]cn3)[n-]2)c(C)c1

>  <Energy>  (29) 
89.98186730888479

>  <Genealogy>  (29) 
Cc1cc(C)c(N=c2[n-]c(=NCCc3c[n-]cn3)[n-]c(=NCc3ccccc3)[n-]2)c(C)c1 (protonated)
Cc1cc(C)c(N=c2[n-]/c(=N\Cc3ccccc3)[n-]/c(=N\CCc3c[n-]cn3)[n-]2)c(C)c1 (cis-trans isomerization)
Cc1cc(C)c(N=c2[n-]/c(=N\Cc3ccccc3)[n-]/c(=N\CCc3c[n-]cn3)[n-]2)c(C)c1 (3D coordinates assigned)
Cc1cc(C)c(N=c2[n-]/c(=N\Cc3ccccc3)[n-]/c(=N\CCc3c[n-]cn3)[n-]2)c(C)c1 (optimized conformer: 89.98186730888479 kcal/mol)

>  <smiles>  (29) 
Cc1cc(C)c(N=c2[nH]c(=NCCc3c[nH]cn3)[nH]c(=NCc3ccccc3)[nH]2)c(C)c1

>  <score_type>  (29) 
oracle

>  <origin>  (29) 
adg

>  <m_score__min__energy>  (29) 
-15.550000000000001

>  <m_primary>  (29) 
energy

$$$$
29:0
     RDKit          3D

 39 41  0  0  0  0  0  0  0  0999 V2000
   57.9700   28.4860   46.6220 O   0  0  0  0  0  0  0  0  0  0  0  0
   57.0780   27.8780   45.9650 C   0  0  0  0  0  0  0  0  0  0  0  0
   56.1700   28.6450   45.1600 N   0  0  0  0  0  0  0  0  0  0  0  0
   56.5620   29.8100   44.4100 C   0  0  0  0  0  0  0  0  0  0  0  0
   56.5440   29.7650   43.0070 C   0  0  0  0  0  0  0  0  0  0  0  0
   56.9620   30.8640   42.2560 C   0  0  0  0  0  0  0  0  0  0  0  0
   57.4050   32.0260   42.8950 C   0  0  0  0  0  0  0  0  0  0  0  0
   57.4210   32.1010   44.2970 C   0  0  0  0  0  0  0  0  0  0  0  0
   57.8960   33.3180   44.9880 C   0  0  0  0  0  0  0  0  0  0  0  0
   57.5440   34.4430   44.5420 O   0  0  0  0  0  0  0  0  0  0  0  0
   58.7790   33.2530   46.1250 N   0  0  0  0  0  0  0  0  0  0  0  0
   59.0700   34.4130   46.9490 C   0  0  0  0  0  0  0  0  0  0  0  0
   60.1200   33.9550   47.9510 C   0  0  0  0  0  0  0  0  0  0  0  0
   60.7260   32.6890   47.3560 C   0  0  0  0  0  0  0  0  0  0  0  0
   59.6840   32.1450   46.3880 C   0  0  0  0  0  0  0  0  0  0  0  0
   57.0170   30.9810   45.0490 C   0  0  0  0  0  0  0  0  0  0  0  0
   56.9600   26.3940   46.0990 C   0  0  0  0  0  0  0  0  0  0  0  0
   58.1330   25.6260   46.2440 C   0  0  0  0  0  0  0  0  0  0  0  0
   58.0670   24.2380   46.3640 C   0  0  0  0  0  0  0  0  0  0  0  0
   56.8260   23.6130   46.3550 C   0  0  0  0  0  0  0  0  0  0  0  0
   55.6960   24.3510   46.2210 N   0  0  0  0  0  0  0  0  0  0  0  0
   55.7220   25.7060   46.0830 C   0  0  0  0  0  0  0  0  0  0  0  0
   54.6310   26.3170   45.9550 O   0  0  0  0  0  0  0  0  0  0  0  0
   55.1490   28.4420   45.2400 H   0  0  0  0  0  0  0  0  0  0  0  0
   56.1972   28.8552   42.4952 H   0  0  0  0  0  0  0  0  0  0  0  0
   56.9430   30.8161   41.1572 H   0  0  0  0  0  0  0  0  0  0  0  0
   57.7425   32.8852   42.2968 H   0  0  0  0  0  0  0  0  0  0  0  0
   59.4625   35.2337   46.3306 H   0  0  0  0  0  0  0  0  0  0  0  0
   58.1671   34.7901   47.4516 H   0  0  0  0  0  0  0  0  0  0  0  0
   60.8924   34.7277   48.0786 H   0  0  0  0  0  0  0  0  0  0  0  0
   59.6837   33.7709   48.9439 H   0  0  0  0  0  0  0  0  0  0  0  0
   61.6584   32.9250   46.8221 H   0  0  0  0  0  0  0  0  0  0  0  0
   60.9760   31.9548   48.1360 H   0  0  0  0  0  0  0  0  0  0  0  0
   60.1631   31.8109   45.4559 H   0  0  0  0  0  0  0  0  0  0  0  0
   59.1538   31.2766   46.8061 H   0  0  0  0  0  0  0  0  0  0  0  0
   57.0570   31.0205   46.1476 H   0  0  0  0  0  0  0  0  0  0  0  0
   59.1120   26.1272   46.2627 H   0  0  0  0  0  0  0  0  0  0  0  0
   58.9876   23.6444   46.4647 H   0  0  0  0  0  0  0  0  0  0  0  0
   56.7601   22.5197   46.4566 H   0  0  0  0  0  0  0  0  0  0  0  0
  1  2  2  0
  2  3  1  0
  3  4  1  0
  4  5  2  0
  5  6  1  0
  6  7  2  0
  7  8  1  0
  8  9  1  0
  9 10  2  0
  9 11  1  0
 11 12  1  0
 12 13  1  0
 13 14  1  0
 14 15  1  0
  8 16  2  0
  2 17  1  0
 17 18  2  0
 18 19  1  0
 19 20  2  0
 20 21  1  0
 21 22  1  0
 22 23  2  0
 16  4  1  0
 22 17  1  0
 15 11  1  0
  3 24  1  0
  5 25  1  0
  6 26  1  0
  7 27  1  0
 12 28  1  0
 12 29  1  0
 13 30  1  0
 13 31  1  0
 14 32  1  0
 14 33  1  0
 15 34  1  0
 15 35  1  0
 16 36  1  0
 18 37  1  0
 19 38  1  0
 20 39  1  0
M  CHG  1  21  -1
M  END
>  <UniqueID>  (30) 
29

>  <SMILES>  (30) 
O=C(Nc1cccc(C(=O)N2CCCC2)c1)c1ccc[n-]c1=O

>  <Energy>  (30) 
54.71150300044965

>  <Genealogy>  (30) 
O=C(Nc1cccc(C(=O)N2CCCC2)c1)c1ccc[n-]c1=O (protonated)
O=C(Nc1cccc(C(=O)N2CCCC2)c1)c1ccc[n-]c1=O (3D coordinates assigned)
O=C(Nc1cccc(C(=O)N2CCCC2)c1)c1ccc[n-]c1=O (nonaromatic ring conformer: 54.71150300044965 kcal/mol)

>  <smiles>  (30) 
O=C(Nc1cccc(C(=O)N2CCCC2)c1)c1ccc[nH]c1=O

>  <score_type>  (30) 
oracle

>  <origin>  (30) 
adg

>  <m_score__min__energy>  (30) 
-10.65

>  <m_primary>  (30) 
energy

$$$$
30:0
     RDKit          3D

 42 44  0  0  0  0  0  0  0  0999 V2000
   51.6050   22.8900   45.6580 C   0  0  0  0  0  0  0  0  0  0  0  0
   52.8990   22.4210   45.2920 O   0  0  0  0  0  0  0  0  0  0  0  0
   54.0800   23.1640   45.4360 C   0  0  0  0  0  0  0  0  0  0  0  0
   55.3550   22.5680   45.4060 C   0  0  0  0  0  0  0  0  0  0  0  0
   56.5030   23.3520   45.5480 C   0  0  0  0  0  0  0  0  0  0  0  0
   56.4020   24.7420   45.7100 C   0  0  0  0  0  0  0  0  0  0  0  0
   57.6340   25.5450   45.8560 C   0  0  0  0  0  0  0  0  0  0  0  0
   58.6330   25.0330   46.4280 O   0  0  0  0  0  0  0  0  0  0  0  0
   57.7420   26.9150   45.3150 C   0  0  0  0  0  0  0  0  0  0  0  0
   57.8700   27.2530   43.9810 C   0  0  0  0  0  0  0  0  0  0  0  0
   57.9020   28.5920   43.8510 N   0  0  0  0  0  0  0  0  0  0  0  0
   57.7820   29.1150   45.0880 C   0  0  0  0  0  0  0  0  0  0  0  0
   57.7730   30.5660   45.3600 C   0  0  0  0  0  0  0  0  0  0  0  0
   56.8910   31.2840   44.8150 O   0  0  0  0  0  0  0  0  0  0  0  0
   58.7290   31.1610   46.2530 N   0  0  0  0  0  0  0  0  0  0  0  0
   58.8960   32.5830   46.3820 C   0  0  0  0  0  0  0  0  0  0  0  0
   58.9790   33.3740   45.2220 C   0  0  0  0  0  0  0  0  0  0  0  0
   59.2370   34.7430   45.3100 C   0  0  0  0  0  0  0  0  0  0  0  0
   59.4300   35.3370   46.5550 C   0  0  0  0  0  0  0  0  0  0  0  0
   59.3550   34.5690   47.7180 C   0  0  0  0  0  0  0  0  0  0  0  0
   59.0820   33.1880   47.6520 C   0  0  0  0  0  0  0  0  0  0  0  0
   58.9510   32.4240   48.9180 C   0  0  0  0  0  0  0  0  0  0  0  0
   58.8860   33.0290   50.0210 O   0  0  0  0  0  0  0  0  0  0  0  0
   58.8570   31.0370   48.9100 O   0  0  0  0  0  0  0  0  0  0  0  0
   57.6770   28.1010   46.0260 C   0  0  0  0  0  0  0  0  0  0  0  0
   55.1250   25.3340   45.7690 C   0  0  0  0  0  0  0  0  0  0  0  0
   54.9820   26.6990   45.9990 O   0  0  0  0  0  0  0  0  0  0  0  0
   53.9790   24.5470   45.6220 C   0  0  0  0  0  0  0  0  0  0  0  0
   51.5224   22.9199   46.7545 H   0  0  0  0  0  0  0  0  0  0  0  0
   51.4526   23.9005   45.2511 H   0  0  0  0  0  0  0  0  0  0  0  0
   50.8405   22.2118   45.2511 H   0  0  0  0  0  0  0  0  0  0  0  0
   55.4480   21.4804   45.2702 H   0  0  0  0  0  0  0  0  0  0  0  0
   57.4942   22.8753   45.5326 H   0  0  0  0  0  0  0  0  0  0  0  0
   57.9358   26.5351   43.1501 H   0  0  0  0  0  0  0  0  0  0  0  0
   57.9950   29.1170   42.9540 H   0  0  0  0  0  0  0  0  0  0  0  0
   59.3140   30.5450   46.8600 H   0  0  0  0  0  0  0  0  0  0  0  0
   58.8391   32.9089   44.2350 H   0  0  0  0  0  0  0  0  0  0  0  0
   59.2879   35.3528   44.3959 H   0  0  0  0  0  0  0  0  0  0  0  0
   59.6421   36.4143   46.6218 H   0  0  0  0  0  0  0  0  0  0  0  0
   59.5106   35.0467   48.6965 H   0  0  0  0  0  0  0  0  0  0  0  0
   57.5648   28.2150   47.1143 H   0  0  0  0  0  0  0  0  0  0  0  0
   52.9866   25.0205   45.6529 H   0  0  0  0  0  0  0  0  0  0  0  0
  1  2  1  0
  2  3  1  0
  3  4  2  0
  4  5  1  0
  5  6  2  0
  6  7  1  0
  7  8  2  0
  7  9  1  0
  9 10  2  0
 10 11  1  0
 11 12  1  0
 12 13  1  0
 13 14  2  0
 13 15  1  0
 15 16  1  0
 16 17  2  0
 17 18  1  0
 18 19  2  0
 19 20  1  0
 20 21  2  0
 21 22  1  0
 22 23  2  0
 22 24  1  0
 12 25  2  0
  6 26  1  0
 26 27  1  0
 26 28  2  0
 28  3  1  0
 25  9  1  0
 21 16  1  0
  1 29  1  0
  1 30  1  0
  1 31  1  0
  4 32  1  0
  5 33  1  0
 10 34  1  0
 11 35  1  0
 15 36  1  0
 17 37  1  0
 18 38  1  0
 19 39  1  0
 20 40  1  0
 25 41  1  0
 28 42  1  0
M  CHG  2  24  -1  27  -1
M  END
>  <UniqueID>  (31) 
30

>  <SMILES>  (31) 
COc1ccc(C(=O)c2c[nH]c(C(=O)Nc3ccccc3C(=O)[O-])c2)c([O-])c1

>  <Energy>  (31) 
83.24089277327023

>  <Genealogy>  (31) 
COc1ccc(C(=O)c2c[nH]c(C(=O)Nc3ccccc3C(=O)[O-])c2)c([O-])c1 (protonated)
COc1ccc(C(=O)c2c[nH]c(C(=O)Nc3ccccc3C(=O)[O-])c2)c([O-])c1 (3D coordinates assigned)
COc1ccc(C(=O)c2c[nH]c(C(=O)Nc3ccccc3C(=O)[O-])c2)c([O-])c1 (optimized conformer: 83.24089277327023 kcal/mol)

>  <smiles>  (31) 
COc1ccc(C(=O)c2c[nH]c(C(=O)Nc3ccccc3C(=O)O)c2)c(O)c1

>  <score_type>  (31) 
oracle

>  <origin>  (31) 
adg

>  <m_score__min__energy>  (31) 
-13.359999999999999

>  <m_primary>  (31) 
energy

$$$$
31:0
     RDKit          3D

 56 59  0  0  0  0  0  0  0  0999 V2000
   56.1110   30.4190   44.7810 O   0  0  0  0  0  0  0  0  0  0  0  0
   57.0440   30.1440   43.9830 C   0  0  0  0  0  0  0  0  0  0  0  0
   56.9580   28.9360   43.2180 N   0  0  0  0  0  0  0  0  0  0  0  0
   57.8040   27.7700   43.4320 C   0  0  0  0  0  0  0  0  0  0  0  0
   58.6400   27.9760   44.6610 C   0  0  0  0  0  0  0  0  0  0  0  0
   58.1850   27.5320   45.9150 C   0  0  0  0  0  0  0  0  0  0  0  0
   58.9780   27.7060   47.0540 C   0  0  0  0  0  0  0  0  0  0  0  0
   60.2340   28.3150   46.9460 C   0  0  0  0  0  0  0  0  0  0  0  0
   60.7010   28.7440   45.7000 C   0  0  0  0  0  0  0  0  0  0  0  0
   59.9120   28.5700   44.5590 C   0  0  0  0  0  0  0  0  0  0  0  0
   58.1570   31.0440   43.8260 N   0  0  0  0  0  0  0  0  0  0  0  0
   58.4030   32.1750   44.6800 C   0  0  0  0  0  0  0  0  0  0  0  0
   58.3220   33.4680   44.1410 C   0  0  0  0  0  0  0  0  0  0  0  0
   58.5670   34.5840   44.9430 C   0  0  0  0  0  0  0  0  0  0  0  0
   58.9130   34.4210   46.2870 C   0  0  0  0  0  0  0  0  0  0  0  0
   59.0420   33.1350   46.8360 C   0  0  0  0  0  0  0  0  0  0  0  0
   59.4120   32.9540   48.2600 C   0  0  0  0  0  0  0  0  0  0  0  0
   58.5020   32.7670   49.1130 O   0  0  0  0  0  0  0  0  0  0  0  0
   60.7850   32.9920   48.6940 N   0  0  0  0  0  0  0  0  0  0  0  0
   61.1530   33.7050   49.9250 C   0  0  0  0  0  0  0  0  0  0  0  0
   62.0230   32.8070   50.8050 C   0  0  0  0  0  0  0  0  0  0  0  0
   63.1040   32.2250   50.0020 N   0  0  0  0  0  0  0  0  0  0  0  0
   64.4360   32.1110   50.5330 C   0  0  0  0  0  0  0  0  0  0  0  0
   65.0220   30.9940   50.5040 O   0  0  0  0  0  0  0  0  0  0  0  0
   65.1400   33.2980   51.0640 C   0  0  0  0  0  0  0  0  0  0  0  0
   66.5040   33.5140   50.8110 C   0  0  0  0  0  0  0  0  0  0  0  0
   67.1050   34.6360   51.2880 N   0  0  0  0  0  0  0  0  0  0  0  0
   66.4110   35.5560   52.0090 C   0  0  0  0  0  0  0  0  0  0  0  0
   65.0550   35.3490   52.2600 C   0  0  0  0  0  0  0  0  0  0  0  0
   64.4510   34.2290   51.7820 N   0  0  0  0  0  0  0  0  0  0  0  0
   62.7310   31.4910   48.7880 C   0  0  0  0  0  0  0  0  0  0  0  0
   61.8550   32.3780   47.8980 C   0  0  0  0  0  0  0  0  0  0  0  0
   58.7810   32.0150   46.0270 C   0  0  0  0  0  0  0  0  0  0  0  0
   57.1730   26.8785   43.5632 H   0  0  0  0  0  0  0  0  0  0  0  0
   58.4613   27.6297   42.5612 H   0  0  0  0  0  0  0  0  0  0  0  0
   57.2019   27.0461   46.0007 H   0  0  0  0  0  0  0  0  0  0  0  0
   58.6148   27.3644   48.0345 H   0  0  0  0  0  0  0  0  0  0  0  0
   60.8546   28.4562   47.8432 H   0  0  0  0  0  0  0  0  0  0  0  0
   61.6898   29.2187   45.6173 H   0  0  0  0  0  0  0  0  0  0  0  0
   60.2866   28.8984   43.5783 H   0  0  0  0  0  0  0  0  0  0  0  0
   58.7700   30.9350   42.9870 H   0  0  0  0  0  0  0  0  0  0  0  0
   58.0639   33.6030   43.0803 H   0  0  0  0  0  0  0  0  0  0  0  0
   58.4875   35.5945   44.5158 H   0  0  0  0  0  0  0  0  0  0  0  0
   59.0853   35.3051   46.9185 H   0  0  0  0  0  0  0  0  0  0  0  0
   61.7135   34.6153   49.6658 H   0  0  0  0  0  0  0  0  0  0  0  0
   60.2392   33.9754   50.4744 H   0  0  0  0  0  0  0  0  0  0  0  0
   62.4550   33.4036   51.6220 H   0  0  0  0  0  0  0  0  0  0  0  0
   61.4052   31.9991   51.2241 H   0  0  0  0  0  0  0  0  0  0  0  0
   67.0825   32.7801   50.2306 H   0  0  0  0  0  0  0  0  0  0  0  0
   66.9148   36.4561   52.3912 H   0  0  0  0  0  0  0  0  0  0  0  0
   64.4792   36.0855   52.8397 H   0  0  0  0  0  0  0  0  0  0  0  0
   63.6405   31.2064   48.2387 H   0  0  0  0  0  0  0  0  0  0  0  0
   62.1700   30.5868   49.0665 H   0  0  0  0  0  0  0  0  0  0  0  0
   62.4747   33.1688   47.4502 H   0  0  0  0  0  0  0  0  0  0  0  0
   61.4055   31.7609   47.1061 H   0  0  0  0  0  0  0  0  0  0  0  0
   58.8730   31.0039   46.4505 H   0  0  0  0  0  0  0  0  0  0  0  0
  1  2  2  0
  2  3  1  0
  3  4  1  0
  4  5  1  0
  5  6  2  0
  6  7  1  0
  7  8  2  0
  8  9  1  0
  9 10  2  0
  2 11  1  0
 11 12  1  0
 12 13  2  0
 13 14  1  0
 14 15  2  0
 15 16  1  0
 16 17  1  0
 17 18  2  0
 17 19  1  0
 19 20  1  0
 20 21  1  0
 21 22  1  0
 22 23  1  0
 23 24  2  0
 23 25  1  0
 25 26  2  0
 26 27  1  0
 27 28  2  0
 28 29  1  0
 29 30  2  0
 22 31  1  0
 31 32  1  0
 16 33  2  0
 10  5  1  0
 33 12  1  0
 32 19  1  0
 30 25  1  0
  4 34  1  0
  4 35  1  0
  6 36  1  0
  7 37  1  0
  8 38  1  0
  9 39  1  0
 10 40  1  0
 11 41  1  0
 13 42  1  0
 14 43  1  0
 15 44  1  0
 20 45  1  0
 20 46  1  0
 21 47  1  0
 21 48  1  0
 26 49  1  0
 28 50  1  0
 29 51  1  0
 31 52  1  0
 31 53  1  0
 32 54  1  0
 32 55  1  0
 33 56  1  0
M  CHG  1   3  -1
M  END
>  <UniqueID>  (32) 
31

>  <SMILES>  (32) 
O=C([N-]Cc1ccccc1)Nc1cccc(C(=O)N2CCN(C(=O)c3cnccn3)CC2)c1

>  <Energy>  (32) 
70.54585433190904

>  <Genealogy>  (32) 
O=C([N-]Cc1ccccc1)Nc1cccc(C(=O)N2CCN(C(=O)c3cnccn3)CC2)c1 (protonated)
O=C([N-]Cc1ccccc1)Nc1cccc(C(=O)N2CCN(C(=O)c3cnccn3)CC2)c1 (3D coordinates assigned)
O=C([N-]Cc1ccccc1)Nc1cccc(C(=O)N2CCN(C(=O)c3cnccn3)CC2)c1 (nonaromatic ring conformer: 70.54585433190904 kcal/mol)

>  <smiles>  (32) 
O=C(NCc1ccccc1)Nc1cccc(C(=O)N2CCN(C(=O)c3cnccn3)CC2)c1

>  <score_type>  (32) 
oracle

>  <origin>  (32) 
adg

>  <m_score__min__energy>  (32) 
-11.359999999999999

>  <m_primary>  (32) 
energy

$$$$
32:0
     RDKit          3D

 75 79  0  0  0  0  0  0  0  0999 V2000
   59.2370   35.4080   46.6770 O   0  0  0  0  0  0  0  0  0  0  0  0
   59.3680   34.2370   46.2250 C   0  0  0  0  0  0  0  0  0  0  0  0
   60.7500   33.7040   45.9320 C   0  0  0  0  0  0  0  0  0  0  0  0
   61.5940   33.5880   47.1770 C   0  0  0  0  0  0  0  0  0  0  0  0
   62.8230   32.9100   47.1330 C   0  0  0  0  0  0  0  0  0  0  0  0
   63.6320   32.8420   48.2720 C   0  0  0  0  0  0  0  0  0  0  0  0
   63.2250   33.4610   49.4590 C   0  0  0  0  0  0  0  0  0  0  0  0
   62.0070   34.1460   49.5070 C   0  0  0  0  0  0  0  0  0  0  0  0
   61.1950   34.2160   48.3700 C   0  0  0  0  0  0  0  0  0  0  0  0
   58.1950   33.4080   46.0580 N   0  0  0  0  0  0  0  0  0  0  0  0
   57.7960   32.9060   44.7330 C   0  0  0  0  0  0  0  0  0  0  0  0
   56.7140   31.8250   44.8560 C   0  0  0  0  0  0  0  0  0  0  0  0
   57.3100   30.4410   44.7640 C   0  0  0  0  0  0  0  0  0  0  0  0
   58.6950   30.2960   44.5740 C   0  0  0  0  0  0  0  0  0  0  0  0
   59.2750   29.0250   44.5400 C   0  0  0  0  0  0  0  0  0  0  0  0
   58.4810   27.8880   44.7010 C   0  0  0  0  0  0  0  0  0  0  0  0
   57.1030   28.0200   44.8960 C   0  0  0  0  0  0  0  0  0  0  0  0
   56.5140   29.2890   44.9300 C   0  0  0  0  0  0  0  0  0  0  0  0
   55.1410   29.3950   45.1290 O   0  0  0  0  0  0  0  0  0  0  0  0
   57.4240   32.9980   47.2390 C   0  0  0  0  0  0  0  0  0  0  0  0
   58.3260   32.2990   48.2190 C   0  0  0  0  0  0  0  0  0  0  0  0
   58.5100   32.8240   49.5080 C   0  0  0  0  0  0  0  0  0  0  0  0
   59.3030   32.1450   50.4350 C   0  0  0  0  0  0  0  0  0  0  0  0
   59.9020   30.9310   50.0930 C   0  0  0  0  0  0  0  0  0  0  0  0
   59.7090   30.3820   48.8110 C   0  0  0  0  0  0  0  0  0  0  0  0
   60.2710   29.1550   48.4190 O   0  0  0  0  0  0  0  0  0  0  0  0
   59.9320   27.8810   48.9700 C   0  0  0  0  0  0  0  0  0  0  0  0
   59.7130   26.8670   47.8760 C   0  0  0  0  0  0  0  0  0  0  0  0
   60.7740   26.4990   47.0400 C   0  0  0  0  0  0  0  0  0  0  0  0
   60.5730   25.5690   46.0250 C   0  0  0  0  0  0  0  0  0  0  0  0
   59.3170   24.9850   45.8410 C   0  0  0  0  0  0  0  0  0  0  0  0
   58.2280   25.3130   46.6820 C   0  0  0  0  0  0  0  0  0  0  0  0
   56.9210   24.6820   46.5080 N   0  0  0  0  0  0  0  0  0  0  0  0
   56.1850   24.8810   45.2420 C   0  0  0  0  0  0  0  0  0  0  0  0
   54.8660   24.1080   45.1780 C   0  0  0  0  0  0  0  0  0  0  0  0
   54.2110   24.1350   46.4240 O   0  0  0  0  0  0  0  0  0  0  0  0
   54.9440   23.3440   47.3280 C   0  0  0  0  0  0  0  0  0  0  0  0
   56.2990   23.9810   47.6530 C   0  0  0  0  0  0  0  0  0  0  0  0
   58.4550   26.2640   47.7060 C   0  0  0  0  0  0  0  0  0  0  0  0
   58.9270   31.0760   47.8810 C   0  0  0  0  0  0  0  0  0  0  0  0
   60.6555   32.7081   45.4745 H   0  0  0  0  0  0  0  0  0  0  0  0
   61.2471   34.4122   45.2528 H   0  0  0  0  0  0  0  0  0  0  0  0
   63.1508   32.4304   46.1989 H   0  0  0  0  0  0  0  0  0  0  0  0
   64.5892   32.3013   48.2345 H   0  0  0  0  0  0  0  0  0  0  0  0
   63.8628   33.4088   50.3537 H   0  0  0  0  0  0  0  0  0  0  0  0
   61.6866   34.6309   50.4409 H   0  0  0  0  0  0  0  0  0  0  0  0
   60.2419   34.7638   48.4094 H   0  0  0  0  0  0  0  0  0  0  0  0
   57.4029   33.7417   44.1354 H   0  0  0  0  0  0  0  0  0  0  0  0
   58.6780   32.4644   44.2460 H   0  0  0  0  0  0  0  0  0  0  0  0
   56.2075   31.9335   45.8264 H   0  0  0  0  0  0  0  0  0  0  0  0
   56.0002   31.9519   44.0287 H   0  0  0  0  0  0  0  0  0  0  0  0
   59.3263   31.1884   44.4513 H   0  0  0  0  0  0  0  0  0  0  0  0
   60.3591   28.9202   44.3861 H   0  0  0  0  0  0  0  0  0  0  0  0
   58.9396   26.8885   44.6744 H   0  0  0  0  0  0  0  0  0  0  0  0
   56.4793   27.1229   45.0232 H   0  0  0  0  0  0  0  0  0  0  0  0
   56.9860   33.8872   47.7159 H   0  0  0  0  0  0  0  0  0  0  0  0
   56.6228   32.3110   46.9291 H   0  0  0  0  0  0  0  0  0  0  0  0
   58.0283   33.7724   49.7882 H   0  0  0  0  0  0  0  0  0  0  0  0
   59.4565   32.5681   51.4387 H   0  0  0  0  0  0  0  0  0  0  0  0
   60.5267   30.4018   50.8276 H   0  0  0  0  0  0  0  0  0  0  0  0
   60.7511   27.5394   49.6199 H   0  0  0  0  0  0  0  0  0  0  0  0
   59.0020   27.9827   49.5485 H   0  0  0  0  0  0  0  0  0  0  0  0
   61.7684   26.9460   47.1860 H   0  0  0  0  0  0  0  0  0  0  0  0
   61.4073   25.2919   45.3638 H   0  0  0  0  0  0  0  0  0  0  0  0
   59.1727   24.2578   45.0283 H   0  0  0  0  0  0  0  0  0  0  0  0
   55.9665   25.9533   45.1305 H   0  0  0  0  0  0  0  0  0  0  0  0
   56.8241   24.5005   44.4316 H   0  0  0  0  0  0  0  0  0  0  0  0
   54.2156   24.5663   44.4184 H   0  0  0  0  0  0  0  0  0  0  0  0
   55.0822   23.0619   44.9153 H   0  0  0  0  0  0  0  0  0  0  0  0
   54.3670   23.2349   48.2581 H   0  0  0  0  0  0  0  0  0  0  0  0
   55.1238   22.3629   46.8643 H   0  0  0  0  0  0  0  0  0  0  0  0
   56.1544   24.7070   48.4667 H   0  0  0  0  0  0  0  0  0  0  0  0
   56.9780   23.1624   47.9338 H   0  0  0  0  0  0  0  0  0  0  0  0
   57.6307   26.5362   48.3816 H   0  0  0  0  0  0  0  0  0  0  0  0
   58.7815   30.6586   46.8737 H   0  0  0  0  0  0  0  0  0  0  0  0
  1  2  2  0
  2  3  1  0
  3  4  1  0
  4  5  2  0
  5  6  1  0
  6  7  2  0
  7  8  1  0
  8  9  2  0
  2 10  1  0
 10 11  1  0
 11 12  1  0
 12 13  1  0
 13 14  2  0
 14 15  1  0
 15 16  2  0
 16 17  1  0
 17 18  2  0
 18 19  1  0
 10 20  1  0
 20 21  1  0
 21 22  2  0
 22 23  1  0
 23 24  2  0
 24 25  1  0
 25 26  1  0
 26 27  1  0
 27 28  1  0
 28 29  2  0
 29 30  1  0
 30 31  2  0
 31 32  1  0
 32 33  1  0
 33 34  1  0
 34 35  1  0
 35 36  1  0
 36 37  1  0
 37 38  1  0
 32 39  2  0
 25 40  2  0
  9  4  1  0
 18 13  1  0
 40 21  1  0
 39 28  1  0
 38 33  1  0
  3 41  1  0
  3 42  1  0
  5 43  1  0
  6 44  1  0
  7 45  1  0
  8 46  1  0
  9 47  1  0
 11 48  1  0
 11 49  1  0
 12 50  1  0
 12 51  1  0
 14 52  1  0
 15 53  1  0
 16 54  1  0
 17 55  1  0
 20 56  1  0
 20 57  1  0
 22 58  1  0
 23 59  1  0
 24 60  1  0
 27 61  1  0
 27 62  1  0
 29 63  1  0
 30 64  1  0
 31 65  1  0
 34 66  1  0
 34 67  1  0
 35 68  1  0
 35 69  1  0
 37 70  1  0
 37 71  1  0
 38 72  1  0
 38 73  1  0
 39 74  1  0
 40 75  1  0
M  CHG  1  19  -1
M  END
>  <UniqueID>  (33) 
32

>  <SMILES>  (33) 
O=C(Cc1ccccc1)N(CCc1ccccc1[O-])Cc1cccc(OCc2cccc(N3CCOCC3)c2)c1

>  <Energy>  (33) 
82.86564172710837

>  <Genealogy>  (33) 
O=C(Cc1ccccc1)N(CCc1ccccc1[O-])Cc1cccc(OCc2cccc(N3CCOCC3)c2)c1 (protonated)
O=C(Cc1ccccc1)N(CCc1ccccc1[O-])Cc1cccc(OCc2cccc(N3CCOCC3)c2)c1 (3D coordinates assigned)
O=C(Cc1ccccc1)N(CCc1ccccc1[O-])Cc1cccc(OCc2cccc(N3CCOCC3)c2)c1 (nonaromatic ring conformer: 82.86564172710837 kcal/mol)

>  <smiles>  (33) 
O=C(Cc1ccccc1)N(CCc1ccccc1O)Cc1cccc(OCc2cccc(N3CCOCC3)c2)c1

>  <score_type>  (33) 
oracle

>  <origin>  (33) 
adg

>  <m_score__min__energy>  (33) 
-15.25

>  <m_primary>  (33) 
energy

$$$$
33:0
     RDKit          3D

 67 71  0  0  0  0  0  0  0  0999 V2000
   58.1620   34.5920   44.8900 C   0  0  0  0  0  0  0  0  0  0  0  0
   58.6150   33.8180   46.0420 N   0  0  0  0  0  0  0  0  0  0  0  0
   59.2520   34.3050   47.1330 C   0  0  0  0  0  0  0  0  0  0  0  0
   59.5810   33.2660   47.9980 C   0  0  0  0  0  0  0  0  0  0  0  0
   60.3590   33.3830   49.2740 C   0  0  0  0  0  0  0  0  0  0  0  0
   61.3360   34.5710   49.2050 C   0  0  0  0  0  0  0  0  0  0  0  0
   62.6740   34.1760   48.6970 N   0  0  0  0  0  0  0  0  0  0  0  0
   63.1880   32.9890   49.4350 C   0  0  0  0  0  0  0  0  0  0  0  0
   62.9240   31.6750   48.6810 C   0  0  0  0  0  0  0  0  0  0  0  0
   63.5680   31.6590   47.3550 N   0  0  0  0  0  0  0  0  0  0  0  0
   63.7510   32.9980   46.7660 C   0  0  0  0  0  0  0  0  0  0  0  0
   62.6530   33.9700   47.2220 C   0  0  0  0  0  0  0  0  0  0  0  0
   59.1460   32.1080   47.3810 C   0  0  0  0  0  0  0  0  0  0  0  0
   59.2490   30.7720   47.7630 C   0  0  0  0  0  0  0  0  0  0  0  0
   58.7210   29.7970   46.8980 C   0  0  0  0  0  0  0  0  0  0  0  0
   58.1110   30.1740   45.6770 C   0  0  0  0  0  0  0  0  0  0  0  0
   57.4600   28.9560   44.5830 S   0  0  0  0  0  0  0  0  0  0  0  0
   56.9150   29.6570   43.3710 O   0  0  0  0  0  0  0  0  0  0  0  0
   56.3380   28.2130   45.2530 O   0  0  0  0  0  0  0  0  0  0  0  0
   58.7420   27.8610   44.1080 N   0  0  0  0  0  0  0  0  0  0  0  0
   59.2400   27.0340   45.2230 C   0  0  0  0  0  0  0  0  0  0  0  0
   58.3130   25.8610   45.5670 C   0  0  0  0  0  0  0  0  0  0  0  0
   57.9320   25.1360   44.3520 N   0  0  0  0  0  0  0  0  0  0  0  0
   57.7020   23.7150   44.3960 C   0  0  0  0  0  0  0  0  0  0  0  0
   58.2990   22.9210   45.3920 C   0  0  0  0  0  0  0  0  0  0  0  0
   58.0670   21.5420   45.4300 C   0  0  0  0  0  0  0  0  0  0  0  0
   57.2420   20.9450   44.4740 C   0  0  0  0  0  0  0  0  0  0  0  0
   56.6490   21.7240   43.4770 C   0  0  0  0  0  0  0  0  0  0  0  0
   56.8780   23.1030   43.4360 C   0  0  0  0  0  0  0  0  0  0  0  0
   57.4430   25.9150   43.2120 C   0  0  0  0  0  0  0  0  0  0  0  0
   58.4050   27.0690   42.9090 C   0  0  0  0  0  0  0  0  0  0  0  0
   58.0340   31.5330   45.3160 C   0  0  0  0  0  0  0  0  0  0  0  0
   58.5610   32.4790   46.1970 C   0  0  0  0  0  0  0  0  0  0  0  0
   57.6349   35.4927   45.2377 H   0  0  0  0  0  0  0  0  0  0  0  0
   59.0300   34.8869   44.2821 H   0  0  0  0  0  0  0  0  0  0  0  0
   57.4798   33.9796   44.2821 H   0  0  0  0  0  0  0  0  0  0  0  0
   59.4767   35.3672   47.3097 H   0  0  0  0  0  0  0  0  0  0  0  0
   59.6611   33.5367   50.1103 H   0  0  0  0  0  0  0  0  0  0  0  0
   60.9349   32.4580   49.4247 H   0  0  0  0  0  0  0  0  0  0  0  0
   60.9155   35.3354   48.5350 H   0  0  0  0  0  0  0  0  0  0  0  0
   61.4663   34.9573   50.2267 H   0  0  0  0  0  0  0  0  0  0  0  0
   63.3330   34.9660   48.9000 H   0  0  0  0  0  0  0  0  0  0  0  0
   64.2727   33.1034   49.5777 H   0  0  0  0  0  0  0  0  0  0  0  0
   62.6599   32.9366   50.3985 H   0  0  0  0  0  0  0  0  0  0  0  0
   63.3178   30.8385   49.2770 H   0  0  0  0  0  0  0  0  0  0  0  0
   61.8382   31.5816   48.5320 H   0  0  0  0  0  0  0  0  0  0  0  0
   64.5140   31.2160   47.4480 H   0  0  0  0  0  0  0  0  0  0  0  0
   64.7295   33.3937   47.0758 H   0  0  0  0  0  0  0  0  0  0  0  0
   63.6946   32.9035   45.6715 H   0  0  0  0  0  0  0  0  0  0  0  0
   62.8066   34.9392   46.7250 H   0  0  0  0  0  0  0  0  0  0  0  0
   61.6789   33.5367   46.9512 H   0  0  0  0  0  0  0  0  0  0  0  0
   59.7284   30.4887   48.7117 H   0  0  0  0  0  0  0  0  0  0  0  0
   58.7823   28.7334   47.1720 H   0  0  0  0  0  0  0  0  0  0  0  0
   60.2255   26.6312   44.9464 H   0  0  0  0  0  0  0  0  0  0  0  0
   59.2922   27.6806   46.1114 H   0  0  0  0  0  0  0  0  0  0  0  0
   58.8354   25.1746   46.2496 H   0  0  0  0  0  0  0  0  0  0  0  0
   57.4046   26.2538   46.0471 H   0  0  0  0  0  0  0  0  0  0  0  0
   58.9517   23.3869   46.1449 H   0  0  0  0  0  0  0  0  0  0  0  0
   58.5346   20.9274   46.2133 H   0  0  0  0  0  0  0  0  0  0  0  0
   57.0590   19.8608   44.5060 H   0  0  0  0  0  0  0  0  0  0  0  0
   56.0013   21.2520   42.7235 H   0  0  0  0  0  0  0  0  0  0  0  0
   56.4107   23.7119   42.6481 H   0  0  0  0  0  0  0  0  0  0  0  0
   57.3697   25.2618   42.3300 H   0  0  0  0  0  0  0  0  0  0  0  0
   56.4530   26.3273   43.4568 H   0  0  0  0  0  0  0  0  0  0  0  0
   59.3330   26.6525   42.4904 H   0  0  0  0  0  0  0  0  0  0  0  0
   57.9029   27.7413   42.1977 H   0  0  0  0  0  0  0  0  0  0  0  0
   57.5716   31.8405   44.3665 H   0  0  0  0  0  0  0  0  0  0  0  0
  1  2  1  0
  2  3  1  0
  3  4  2  0
  4  5  1  0
  5  6  1  0
  6  7  1  0
  7  8  1  0
  8  9  1  0
  9 10  1  0
 10 11  1  0
 11 12  1  0
  4 13  1  0
 13 14  2  0
 14 15  1  0
 15 16  2  0
 16 17  1  0
 17 18  2  0
 17 19  2  0
 17 20  1  0
 20 21  1  0
 21 22  1  0
 22 23  1  0
 23 24  1  0
 24 25  2  0
 25 26  1  0
 26 27  2  0
 27 28  1  0
 28 29  2  0
 23 30  1  0
 30 31  1  0
 16 32  1  0
 32 33  2  0
 33  2  1  0
 12  7  1  0
 33 13  1  0
 31 20  1  0
 29 24  1  0
  1 34  1  0
  1 35  1  0
  1 36  1  0
  3 37  1  0
  5 38  1  0
  5 39  1  0
  6 40  1  0
  6 41  1  0
  7 42  1  0
  8 43  1  0
  8 44  1  0
  9 45  1  0
  9 46  1  0
 10 47  1  0
 11 48  1  0
 11 49  1  0
 12 50  1  0
 12 51  1  0
 14 52  1  0
 15 53  1  0
 21 54  1  0
 21 55  1  0
 22 56  1  0
 22 57  1  0
 25 58  1  0
 26 59  1  0
 27 60  1  0
 28 61  1  0
 29 62  1  0
 30 63  1  0
 30 64  1  0
 31 65  1  0
 31 66  1  0
 32 67  1  0
M  CHG  1   7   1
M  END
>  <UniqueID>  (34) 
33

>  <SMILES>  (34) 
Cn1cc(CC[NH+]2CCNCC2)c2ccc(S(=O)(=O)N3CCN(c4ccccc4)CC3)cc21

>  <Energy>  (34) 
119.31386454299023

>  <Genealogy>  (34) 
Cn1cc(CC[NH+]2CCNCC2)c2ccc(S(=O)(=O)N3CCN(c4ccccc4)CC3)cc21 (protonated)
Cn1cc(CC[NH+]2CCNCC2)c2ccc(S(=O)(=O)N3CCN(c4ccccc4)CC3)cc21 (3D coordinates assigned)
Cn1cc(CC[NH+]2CCNCC2)c2ccc(S(=O)(=O)N3CCN(c4ccccc4)CC3)cc21 (nonaromatic ring conformer: 119.31386454299023 kcal/mol)

>  <smiles>  (34) 
Cn1cc(CCN2CCNCC2)c2ccc(S(=O)(=O)N3CCN(c4ccccc4)CC3)cc21

>  <score_type>  (34) 
oracle

>  <origin>  (34) 
adg

>  <m_score__min__energy>  (34) 
-8.7300000000000004

>  <m_primary>  (34) 
energy

$$$$
34:0
     RDKit          3D

 51 54  0  0  0  0  0  0  0  0999 V2000
   55.7660   27.1320   45.6530 O   0  0  0  0  0  0  0  0  0  0  0  0
   56.5180   28.0590   45.2510 C   0  0  0  0  0  0  0  0  0  0  0  0
   57.9860   27.8170   45.1130 C   0  0  0  0  0  0  0  0  0  0  0  0
   58.6650   28.1030   46.4250 C   0  0  0  0  0  0  0  0  0  0  0  0
   59.6820   27.2560   46.8950 C   0  0  0  0  0  0  0  0  0  0  0  0
   60.2780   27.4930   48.1380 C   0  0  0  0  0  0  0  0  0  0  0  0
   59.8640   28.5730   48.9230 C   0  0  0  0  0  0  0  0  0  0  0  0
   60.4750   28.8020   50.1540 O   0  0  0  0  0  0  0  0  0  0  0  0
   58.8380   29.4130   48.4660 C   0  0  0  0  0  0  0  0  0  0  0  0
   58.2380   29.1760   47.2250 C   0  0  0  0  0  0  0  0  0  0  0  0
   55.9750   29.3340   44.8890 N   0  0  0  0  0  0  0  0  0  0  0  0
   56.7260   30.4310   44.3540 C   0  0  0  0  0  0  0  0  0  0  0  0
   56.7350   30.6390   42.9710 C   0  0  0  0  0  0  0  0  0  0  0  0
   57.4250   31.7240   42.4260 C   0  0  0  0  0  0  0  0  0  0  0  0
   58.0880   32.6260   43.2610 C   0  0  0  0  0  0  0  0  0  0  0  0
   58.0620   32.4560   44.6560 C   0  0  0  0  0  0  0  0  0  0  0  0
   58.7290   33.4330   45.5480 C   0  0  0  0  0  0  0  0  0  0  0  0
   58.7410   34.8400   45.4390 C   0  0  0  0  0  0  0  0  0  0  0  0
   59.3960   35.4090   46.4880 N   0  0  0  0  0  0  0  0  0  0  0  0
   59.7900   34.3580   47.2160 C   0  0  0  0  0  0  0  0  0  0  0  0
   60.3480   34.2800   48.4290 N   0  0  0  0  0  0  0  0  0  0  0  0
   60.3290   32.9410   48.6870 C   0  0  0  0  0  0  0  0  0  0  0  0
   60.8120   32.3510   49.9440 C   0  0  0  0  0  0  0  0  0  0  0  0
   62.0320   32.4400   50.2500 O   0  0  0  0  0  0  0  0  0  0  0  0
   59.8960   31.6720   50.8120 N   0  0  0  0  0  0  0  0  0  0  0  0
   58.6400   32.2520   51.2710 C   0  0  0  0  0  0  0  0  0  0  0  0
   57.5930   31.1610   51.4770 C   0  0  0  0  0  0  0  0  0  0  0  0
   58.1420   29.9170   51.1460 O   0  0  0  0  0  0  0  0  0  0  0  0
   59.7400   32.2160   47.6340 C   0  0  0  0  0  0  0  0  0  0  0  0
   59.4150   33.1930   46.7200 C   0  0  0  0  0  0  0  0  0  0  0  0
   57.3830   31.3480   45.1940 C   0  0  0  0  0  0  0  0  0  0  0  0
   58.1601   26.7682   44.8306 H   0  0  0  0  0  0  0  0  0  0  0  0
   58.3959   28.4781   44.3352 H   0  0  0  0  0  0  0  0  0  0  0  0
   60.0110   26.4030   46.2833 H   0  0  0  0  0  0  0  0  0  0  0  0
   61.0755   26.8270   48.4992 H   0  0  0  0  0  0  0  0  0  0  0  0
   60.2610   29.6240   50.7060 H   0  0  0  0  0  0  0  0  0  0  0  0
   58.5047   30.2594   49.0845 H   0  0  0  0  0  0  0  0  0  0  0  0
   57.4283   29.8326   46.8739 H   0  0  0  0  0  0  0  0  0  0  0  0
   56.1961   29.9448   42.3095 H   0  0  0  0  0  0  0  0  0  0  0  0
   57.4463   31.8686   41.3358 H   0  0  0  0  0  0  0  0  0  0  0  0
   58.6341   33.4750   42.8241 H   0  0  0  0  0  0  0  0  0  0  0  0
   58.2810   35.4035   44.6139 H   0  0  0  0  0  0  0  0  0  0  0  0
   59.5250   36.4240   46.6950 H   0  0  0  0  0  0  0  0  0  0  0  0
   60.6730   35.0610   49.0410 H   0  0  0  0  0  0  0  0  0  0  0  0
   58.8095   32.7759   52.2233 H   0  0  0  0  0  0  0  0  0  0  0  0
   58.2744   32.9578   50.5106 H   0  0  0  0  0  0  0  0  0  0  0  0
   57.2749   31.1526   52.5300 H   0  0  0  0  0  0  0  0  0  0  0  0
   56.7244   31.3609   50.8323 H   0  0  0  0  0  0  0  0  0  0  0  0
   59.0290   30.1070   50.7410 H   0  0  0  0  0  0  0  0  0  0  0  0
   59.5783   31.1305   47.5594 H   0  0  0  0  0  0  0  0  0  0  0  0
   57.3656   31.1970   46.2834 H   0  0  0  0  0  0  0  0  0  0  0  0
  1  2  2  0
  2  3  1  0
  3  4  1  0
  4  5  2  0
  5  6  1  0
  6  7  2  0
  7  8  1  0
  7  9  1  0
  9 10  2  0
  2 11  1  0
 11 12  1  0
 12 13  2  0
 13 14  1  0
 14 15  2  0
 15 16  1  0
 16 17  1  0
 17 18  2  0
 18 19  1  0
 19 20  1  0
 20 21  1  0
 21 22  1  0
 22 23  1  0
 23 24  2  0
 23 25  1  0
 25 26  1  0
 26 27  1  0
 27 28  1  0
 22 29  2  0
 29 30  1  0
 16 31  2  0
 10  4  1  0
 31 12  1  0
 30 17  1  0
 30 20  2  0
  3 32  1  0
  3 33  1  0
  5 34  1  0
  6 35  1  0
  8 36  1  0
  9 37  1  0
 10 38  1  0
 13 39  1  0
 14 40  1  0
 15 41  1  0
 18 42  1  0
 19 43  1  0
 21 44  1  0
 26 45  1  0
 26 46  1  0
 27 47  1  0
 27 48  1  0
 28 49  1  0
 29 50  1  0
 31 51  1  0
M  CHG  2  11  -1  25  -1
M  END
>  <UniqueID>  (35) 
34

>  <SMILES>  (35) 
O=C(Cc1ccc(O)cc1)[N-]c1cccc(-c2c[nH]c3[nH]c(C(=O)[N-]CCO)cc23)c1

>  <Energy>  (35) 
132.33864896748355

>  <Genealogy>  (35) 
O=C(Cc1ccc(O)cc1)[N-]c1cccc(-c2c[nH]c3[nH]c(C(=O)[N-]CCO)cc23)c1 (protonated)
O=C(Cc1ccc(O)cc1)[N-]c1cccc(-c2c[nH]c3[nH]c(C(=O)[N-]CCO)cc23)c1 (3D coordinates assigned)
O=C(Cc1ccc(O)cc1)[N-]c1cccc(-c2c[nH]c3[nH]c(C(=O)[N-]CCO)cc23)c1 (optimized conformer: 132.33864896748355 kcal/mol)

>  <smiles>  (35) 
O=C(Cc1ccc(O)cc1)Nc1cccc(-c2c[nH]c3[nH]c(C(=O)NCCO)cc23)c1

>  <score_type>  (35) 
oracle

>  <origin>  (35) 
adg

>  <m_score__min__energy>  (35) 
-11.869999999999999

>  <m_primary>  (35) 
energy

$$$$
35:0
     RDKit          3D

 49 51  0  0  0  0  0  0  0  0999 V2000
   55.1390   29.3070   44.8570 O   0  0  0  0  0  0  0  0  0  0  0  0
   56.2960   29.7250   44.5820 C   0  0  0  0  0  0  0  0  0  0  0  0
   57.4140   28.7300   44.3900 C   0  0  0  0  0  0  0  0  0  0  0  0
   58.4610   28.8580   45.4650 C   0  0  0  0  0  0  0  0  0  0  0  0
   59.6720   29.5280   45.2110 C   0  0  0  0  0  0  0  0  0  0  0  0
   60.6360   29.6460   46.2190 C   0  0  0  0  0  0  0  0  0  0  0  0
   60.4000   29.0980   47.4850 C   0  0  0  0  0  0  0  0  0  0  0  0
   59.2000   28.4350   47.7460 C   0  0  0  0  0  0  0  0  0  0  0  0
   58.2320   28.3140   46.7430 C   0  0  0  0  0  0  0  0  0  0  0  0
   56.4680   31.1180   44.2860 N   0  0  0  0  0  0  0  0  0  0  0  0
   57.1940   32.0670   45.0750 C   0  0  0  0  0  0  0  0  0  0  0  0
   57.7220   33.2280   44.5110 C   0  0  0  0  0  0  0  0  0  0  0  0
   58.4450   34.1030   45.3220 C   0  0  0  0  0  0  0  0  0  0  0  0
   58.9300   35.1470   44.8080 O   0  0  0  0  0  0  0  0  0  0  0  0
   58.6310   33.8220   46.6530 N   0  0  0  0  0  0  0  0  0  0  0  0
   59.4040   34.7430   47.5080 C   0  0  0  0  0  0  0  0  0  0  0  0
   60.8630   34.2750   47.6120 C   0  0  0  0  0  0  0  0  0  0  0  0
   61.0990   33.4200   48.8640 C   0  0  0  0  0  0  0  0  0  0  0  0
   61.9150   32.2280   48.5370 N   0  0  0  0  0  0  0  0  0  0  0  0
   63.0520   32.0580   49.4640 C   0  0  0  0  0  0  0  0  0  0  0  0
   64.1480   33.1270   49.2300 C   0  0  0  0  0  0  0  0  0  0  0  0
   64.0120   33.8000   47.9900 O   0  0  0  0  0  0  0  0  0  0  0  0
   63.7630   32.8710   46.9570 C   0  0  0  0  0  0  0  0  0  0  0  0
   62.3740   32.2220   47.1280 C   0  0  0  0  0  0  0  0  0  0  0  0
   58.1460   32.6430   47.1650 C   0  0  0  0  0  0  0  0  0  0  0  0
   58.3470   32.3320   48.3710 O   0  0  0  0  0  0  0  0  0  0  0  0
   57.4420   31.7900   46.3770 N   0  0  0  0  0  0  0  0  0  0  0  0
   56.9956   27.7131   44.4185 H   0  0  0  0  0  0  0  0  0  0  0  0
   57.8910   28.9316   43.4195 H   0  0  0  0  0  0  0  0  0  0  0  0
   59.8617   29.9603   44.2174 H   0  0  0  0  0  0  0  0  0  0  0  0
   61.5812   30.1706   46.0157 H   0  0  0  0  0  0  0  0  0  0  0  0
   61.1605   29.1899   48.2745 H   0  0  0  0  0  0  0  0  0  0  0  0
   59.0148   28.0067   48.7421 H   0  0  0  0  0  0  0  0  0  0  0  0
   57.2875   27.7913   46.9541 H   0  0  0  0  0  0  0  0  0  0  0  0
   57.5709   33.4501   43.4443 H   0  0  0  0  0  0  0  0  0  0  0  0
   59.3768   35.7524   47.0716 H   0  0  0  0  0  0  0  0  0  0  0  0
   58.9595   34.7556   48.5141 H   0  0  0  0  0  0  0  0  0  0  0  0
   61.1099   33.6783   46.7215 H   0  0  0  0  0  0  0  0  0  0  0  0
   61.5040   35.1663   47.6807 H   0  0  0  0  0  0  0  0  0  0  0  0
   61.6258   34.0224   49.6187 H   0  0  0  0  0  0  0  0  0  0  0  0
   60.1258   33.0867   49.2535 H   0  0  0  0  0  0  0  0  0  0  0  0
   62.6851   32.1442   50.4974 H   0  0  0  0  0  0  0  0  0  0  0  0
   63.4956   31.0676   49.2839 H   0  0  0  0  0  0  0  0  0  0  0  0
   64.0913   33.8696   50.0395 H   0  0  0  0  0  0  0  0  0  0  0  0
   65.1168   32.6062   49.2162 H   0  0  0  0  0  0  0  0  0  0  0  0
   63.8019   33.3900   45.9879 H   0  0  0  0  0  0  0  0  0  0  0  0
   64.5287   32.0823   46.9995 H   0  0  0  0  0  0  0  0  0  0  0  0
   61.6471   32.7781   46.5177 H   0  0  0  0  0  0  0  0  0  0  0  0
   62.4531   31.1730   46.8064 H   0  0  0  0  0  0  0  0  0  0  0  0
  1  2  2  0
  2  3  1  0
  3  4  1  0
  4  5  2  0
  5  6  1  0
  6  7  2  0
  7  8  1  0
  8  9  2  0
  2 10  1  0
 10 11  1  0
 11 12  2  0
 12 13  1  0
 13 14  2  0
 13 15  1  0
 15 16  1  0
 16 17  1  0
 17 18  1  0
 18 19  1  0
 19 20  1  0
 20 21  1  0
 21 22  1  0
 22 23  1  0
 23 24  1  0
 15 25  1  0
 25 26  2  0
 25 27  1  0
  9  4  1  0
 27 11  1  0
 24 19  1  0
  3 28  1  0
  3 29  1  0
  5 30  1  0
  6 31  1  0
  7 32  1  0
  8 33  1  0
  9 34  1  0
 12 35  1  0
 16 36  1  0
 16 37  1  0
 17 38  1  0
 17 39  1  0
 18 40  1  0
 18 41  1  0
 20 42  1  0
 20 43  1  0
 21 44  1  0
 21 45  1  0
 23 46  1  0
 23 47  1  0
 24 48  1  0
 24 49  1  0
M  CHG  2  10  -1  27  -1
M  END
>  <UniqueID>  (36) 
35

>  <SMILES>  (36) 
O=C(Cc1ccccc1)[N-]c1cc(=O)n(CCCN2CCOCC2)c(=O)[n-]1

>  <Energy>  (36) 
67.76831004476475

>  <Genealogy>  (36) 
O=C(Cc1ccccc1)[N-]c1cc(=O)n(CCCN2CCOCC2)c(=O)[n-]1 (protonated)
O=C(Cc1ccccc1)[N-]c1cc(=O)n(CCCN2CCOCC2)c(=O)[n-]1 (3D coordinates assigned)
O=C(Cc1ccccc1)[N-]c1cc(=O)n(CCCN2CCOCC2)c(=O)[n-]1 (nonaromatic ring conformer: 67.76831004476475 kcal/mol)

>  <smiles>  (36) 
O=C(Cc1ccccc1)Nc1cc(=O)n(CCCN2CCOCC2)c(=O)[nH]1

>  <score_type>  (36) 
oracle

>  <origin>  (36) 
adg

>  <m_score__min__energy>  (36) 
-13

>  <m_primary>  (36) 
energy

$$$$
36:0
     RDKit          3D

 54 57  0  0  0  0  0  0  0  0999 V2000
   56.9028   27.4025   43.2031 H   0  0  0  0  0  0  0  0  0  0  0  0
   57.3910   28.3870   43.2530 C   0  0  0  0  0  0  0  0  0  0  0  0
   58.4580   28.4850   43.0044 H   0  0  0  0  0  0  0  0  0  0  0  0
   56.6890   29.4620   43.6150 C   0  0  0  0  0  0  0  0  0  0  0  0
   55.6248   29.3224   43.8557 H   0  0  0  0  0  0  0  0  0  0  0  0
   57.2470   30.8340   43.7150 C   0  0  0  0  0  0  0  0  0  0  0  0
   57.7670   31.5260   42.6030 C   0  0  0  0  0  0  0  0  0  0  0  0
   57.7741   31.0454   41.6136 H   0  0  0  0  0  0  0  0  0  0  0  0
   58.2730   32.8180   42.7510 C   0  0  0  0  0  0  0  0  0  0  0  0
   58.6820   33.3485   41.8785 H   0  0  0  0  0  0  0  0  0  0  0  0
   58.2630   33.4410   44.0000 C   0  0  0  0  0  0  0  0  0  0  0  0
   58.6701   34.4573   44.1070 H   0  0  0  0  0  0  0  0  0  0  0  0
   57.7360   32.7780   45.1220 C   0  0  0  0  0  0  0  0  0  0  0  0
   57.7170   33.4420   46.4480 C   0  0  0  0  0  0  0  0  0  0  0  0
   56.6560   33.4440   47.1310 O   0  0  0  0  0  0  0  0  0  0  0  0
   58.9050   34.0840   46.9430 N   0  0  0  0  0  0  0  0  0  0  0  0
   60.0740   33.5430   47.1300 C   0  0  0  0  0  0  0  0  0  0  0  0
   61.1780   34.3020   47.3850 N   0  0  0  0  0  0  0  0  0  0  0  0
   62.3990   33.7470   47.5980 C   0  0  0  0  0  0  0  0  0  0  0  0
   63.2673   34.3907   47.8022 H   0  0  0  0  0  0  0  0  0  0  0  0
   62.5530   32.3590   47.5580 C   0  0  0  0  0  0  0  0  0  0  0  0
   63.5382   31.9060   47.7427 H   0  0  0  0  0  0  0  0  0  0  0  0
   61.4480   31.5500   47.2820 C   0  0  0  0  0  0  0  0  0  0  0  0
   61.6140   30.1560   47.2620 O   0  0  0  0  0  0  0  0  0  0  0  0
   60.5910   29.2260   47.0310 C   0  0  0  0  0  0  0  0  0  0  0  0
   59.8140   28.7960   48.1120 C   0  0  0  0  0  0  0  0  0  0  0  0
   60.0098   29.1953   49.1181 H   0  0  0  0  0  0  0  0  0  0  0  0
   58.7910   27.8630   47.9230 C   0  0  0  0  0  0  0  0  0  0  0  0
   58.1819   27.5371   48.7790 H   0  0  0  0  0  0  0  0  0  0  0  0
   58.5370   27.3390   46.6430 C   0  0  0  0  0  0  0  0  0  0  0  0
   57.5140   26.3530   46.4300 N   0  0  0  0  0  0  0  0  0  0  0  0
   57.7760   25.3430   46.4950 H   0  0  0  0  0  0  0  0  0  0  0  0
   56.1740   26.6680   46.0270 C   0  0  0  0  0  0  0  0  0  0  0  0
   55.8910   27.8250   45.6130 O   0  0  0  0  0  0  0  0  0  0  0  0
   55.1870   25.6280   46.0190 N   0  0  0  0  0  0  0  0  0  0  0  0
   55.4130   24.2150   45.8930 C   0  0  0  0  0  0  0  0  0  0  0  0
   55.2350   23.3230   46.9670 C   0  0  0  0  0  0  0  0  0  0  0  0
   54.9144   23.7037   47.9480 H   0  0  0  0  0  0  0  0  0  0  0  0
   55.4640   21.9550   46.7920 C   0  0  0  0  0  0  0  0  0  0  0  0
   55.3033   21.2616   47.6307 H   0  0  0  0  0  0  0  0  0  0  0  0
   55.8960   21.4640   45.5570 C   0  0  0  0  0  0  0  0  0  0  0  0
   56.1670   19.7400   45.3770 Cl  0  0  0  0  0  0  0  0  0  0  0  0
   56.1060   22.3530   44.4900 C   0  0  0  0  0  0  0  0  0  0  0  0
   56.6580   21.7790   42.9220 Cl  0  0  0  0  0  0  0  0  0  0  0  0
   55.8700   23.7220   44.6660 C   0  0  0  0  0  0  0  0  0  0  0  0
   56.0456   24.4166   43.8314 H   0  0  0  0  0  0  0  0  0  0  0  0
   59.3440   27.7390   45.5680 C   0  0  0  0  0  0  0  0  0  0  0  0
   59.1760   27.3100   44.5691 H   0  0  0  0  0  0  0  0  0  0  0  0
   60.3600   28.6790   45.7580 C   0  0  0  0  0  0  0  0  0  0  0  0
   60.9820   28.9923   44.9066 H   0  0  0  0  0  0  0  0  0  0  0  0
   60.1930   32.1490   47.0810 C   0  0  0  0  0  0  0  0  0  0  0  0
   59.3080   31.5254   46.8860 H   0  0  0  0  0  0  0  0  0  0  0  0
   57.2270   31.4750   44.9660 C   0  0  0  0  0  0  0  0  0  0  0  0
   56.8070   30.9500   45.8366 H   0  0  0  0  0  0  0  0  0  0  0  0
  1  2  1  0
  2  3  1  0
  2  4  2  0
  4  5  1  0
  4  6  1  0
  6  7  2  0
  7  8  1  0
  7  9  1  0
  9 10  1  0
  9 11  2  0
 11 12  1  0
 11 13  1  0
 13 14  1  0
 14 15  2  0
 14 16  1  0
 16 17  2  0
 17 18  1  0
 18 19  1  0
 19 20  1  0
 19 21  2  0
 21 22  1  0
 21 23  1  0
 23 24  1  0
 24 25  1  0
 25 26  2  0
 26 27  1  0
 26 28  1  0
 28 29  1  0
 28 30  2  0
 30 31  1  0
 31 32  1  0
 31 33  1  0
 33 34  2  0
 33 35  1  0
 35 36  1  0
 36 37  2  0
 37 38  1  0
 37 39  1  0
 39 40  1  0
 39 41  2  0
 41 42  1  0
 41 43  1  0
 43 44  1  0
 43 45  2  0
 45 46  1  0
 30 47  1  0
 47 48  1  0
 47 49  2  0
 49 50  1  0
 23 51  2  0
 51 52  1  0
 13 53  2  0
 53 54  1  0
 53  6  1  0
 51 17  1  0
 49 25  1  0
 45 36  1  0
M  CHG  2  18  -1  35  -1
M  END
>  <UniqueID>  (37) 
36

>  <SMILES>  (37) 
C=Cc1cccc(C(=O)/N=c2/cc(Oc3ccc(NC(=O)[N-]c4ccc(Cl)c(Cl)c4)cc3)cc[n-]2)c1

>  <Energy>  (37) 
78.73851853870227

>  <Genealogy>  (37) 
C=Cc1cccc(C(=O)N=c2cc(Oc3ccc(NC(=O)[N-]c4ccc(Cl)c(Cl)c4)cc3)cc[n-]2)c1 (protonated)
C=Cc1cccc(C(=O)/N=c2/cc(Oc3ccc(NC(=O)[N-]c4ccc(Cl)c(Cl)c4)cc3)cc[n-]2)c1 (cis-trans isomerization)
C=Cc1cccc(C(=O)/N=c2/cc(Oc3ccc(NC(=O)[N-]c4ccc(Cl)c(Cl)c4)cc3)cc[n-]2)c1 (3D coordinates assigned)
C=Cc1cccc(C(=O)/N=c2/cc(Oc3ccc(NC(=O)[N-]c4ccc(Cl)c(Cl)c4)cc3)cc[n-]2)c1 (optimized conformer: 78.73851853870227 kcal/mol)

>  <smiles>  (37) 
C=Cc1cccc(C(=O)N=c2cc(Oc3ccc(NC(=O)Nc4ccc(Cl)c(Cl)c4)cc3)cc[nH]2)c1

>  <score_type>  (37) 
oracle

>  <origin>  (37) 
adg

>  <m_score__min__energy>  (37) 
-12.539999999999999

>  <m_primary>  (37) 
energy

$$$$
37:0
     RDKit          3D

 52 54  0  0  0  0  0  0  0  0999 V2000
   59.4140   29.5080   47.1420 C   0  0  0  0  0  0  0  0  0  0  0  0
   60.3720   29.0590   46.3290 C   0  0  0  0  0  0  0  0  0  0  0  0
   60.1560   27.8740   45.4280 C   0  0  0  0  0  0  0  0  0  0  0  0
   58.9300   27.1430   45.8080 N   0  0  0  0  0  0  0  0  0  0  0  0
   58.8950   26.4270   46.9810 C   0  0  0  0  0  0  0  0  0  0  0  0
   59.9970   26.4120   47.8390 O   0  0  0  0  0  0  0  0  0  0  0  0
   57.7530   25.6990   47.3280 C   0  0  0  0  0  0  0  0  0  0  0  0
   56.6670   25.7040   46.4630 C   0  0  0  0  0  0  0  0  0  0  0  0
   55.6290   25.0500   46.7430 O   0  0  0  0  0  0  0  0  0  0  0  0
   56.7290   26.4130   45.3120 N   0  0  0  0  0  0  0  0  0  0  0  0
   57.8320   27.1320   44.9780 C   0  0  0  0  0  0  0  0  0  0  0  0
   57.7960   28.0340   43.4170 S   0  0  0  0  0  0  0  0  0  0  0  0
   57.9410   29.6840   44.1880 C   0  0  0  0  0  0  0  0  0  0  0  0
   56.6050   30.1740   44.6430 C   0  0  0  0  0  0  0  0  0  0  0  0
   55.6810   29.3460   44.8670 O   0  0  0  0  0  0  0  0  0  0  0  0
   56.4030   31.5760   44.8660 N   0  0  0  0  0  0  0  0  0  0  0  0
   57.3930   32.5110   45.3150 C   0  0  0  0  0  0  0  0  0  0  0  0
   57.7350   33.5810   44.4800 C   0  0  0  0  0  0  0  0  0  0  0  0
   58.6910   34.5160   44.8850 C   0  0  0  0  0  0  0  0  0  0  0  0
   59.3010   34.3980   46.1360 C   0  0  0  0  0  0  0  0  0  0  0  0
   58.9440   33.3520   46.9960 C   0  0  0  0  0  0  0  0  0  0  0  0
   59.7200   33.2160   48.5720 S   0  0  0  0  0  0  0  0  0  0  0  0
   60.1520   34.5880   49.0120 O   0  0  0  0  0  0  0  0  0  0  0  0
   58.7380   32.6800   49.5760 O   0  0  0  0  0  0  0  0  0  0  0  0
   61.1090   32.1570   48.4400 N   0  0  0  0  0  0  0  0  0  0  0  0
   62.0920   32.3970   49.5200 C   0  0  0  0  0  0  0  0  0  0  0  0
   63.2680   33.2820   49.0690 C   0  0  0  0  0  0  0  0  0  0  0  0
   62.8410   34.2080   48.0970 O   0  0  0  0  0  0  0  0  0  0  0  0
   62.5190   33.5380   46.8910 C   0  0  0  0  0  0  0  0  0  0  0  0
   61.7220   32.2290   47.1020 C   0  0  0  0  0  0  0  0  0  0  0  0
   57.9870   32.4130   46.5870 C   0  0  0  0  0  0  0  0  0  0  0  0
   59.6042   30.3773   47.7886 H   0  0  0  0  0  0  0  0  0  0  0  0
   58.4341   29.0088   47.1656 H   0  0  0  0  0  0  0  0  0  0  0  0
   61.3464   29.5694   46.3173 H   0  0  0  0  0  0  0  0  0  0  0  0
   60.0603   28.2233   44.3893 H   0  0  0  0  0  0  0  0  0  0  0  0
   61.0160   27.1952   45.5259 H   0  0  0  0  0  0  0  0  0  0  0  0
   60.0390   26.9980   48.6640 H   0  0  0  0  0  0  0  0  0  0  0  0
   57.7155   25.1321   48.2699 H   0  0  0  0  0  0  0  0  0  0  0  0
   58.6161   29.6197   45.0541 H   0  0  0  0  0  0  0  0  0  0  0  0
   58.3410   30.3881   43.4435 H   0  0  0  0  0  0  0  0  0  0  0  0
   57.2483   33.6864   43.4992 H   0  0  0  0  0  0  0  0  0  0  0  0
   58.9638   35.3466   44.2174 H   0  0  0  0  0  0  0  0  0  0  0  0
   60.0632   35.1280   46.4462 H   0  0  0  0  0  0  0  0  0  0  0  0
   61.5799   32.8928   50.3578 H   0  0  0  0  0  0  0  0  0  0  0  0
   62.5054   31.4212   49.8150 H   0  0  0  0  0  0  0  0  0  0  0  0
   63.6661   33.8263   49.9380 H   0  0  0  0  0  0  0  0  0  0  0  0
   64.0496   32.6422   48.6334 H   0  0  0  0  0  0  0  0  0  0  0  0
   61.9166   34.2150   46.2675 H   0  0  0  0  0  0  0  0  0  0  0  0
   63.4701   33.2623   46.4120 H   0  0  0  0  0  0  0  0  0  0  0  0
   60.9260   32.1735   46.3448 H   0  0  0  0  0  0  0  0  0  0  0  0
   62.4250   31.3882   47.0082 H   0  0  0  0  0  0  0  0  0  0  0  0
   57.6988   31.5952   47.2639 H   0  0  0  0  0  0  0  0  0  0  0  0
  1  2  2  0
  2  3  1  0
  3  4  1  0
  4  5  1  0
  5  6  1  0
  5  7  2  0
  7  8  1  0
  8  9  2  0
  8 10  1  0
 10 11  2  0
 11 12  1  0
 12 13  1  0
 13 14  1  0
 14 15  2  0
 14 16  1  0
 16 17  1  0
 17 18  2  0
 18 19  1  0
 19 20  2  0
 20 21  1  0
 21 22  1  0
 22 23  2  0
 22 24  2  0
 22 25  1  0
 25 26  1  0
 26 27  1  0
 27 28  1  0
 28 29  1  0
 29 30  1  0
 21 31  2  0
 11  4  1  0
 31 17  1  0
 30 25  1  0
  1 32  1  0
  1 33  1  0
  2 34  1  0
  3 35  1  0
  3 36  1  0
  6 37  1  0
  7 38  1  0
 13 39  1  0
 13 40  1  0
 18 41  1  0
 19 42  1  0
 20 43  1  0
 26 44  1  0
 26 45  1  0
 27 46  1  0
 27 47  1  0
 29 48  1  0
 29 49  1  0
 30 50  1  0
 30 51  1  0
 31 52  1  0
M  CHG  1  16  -1
M  END
>  <UniqueID>  (38) 
37

>  <SMILES>  (38) 
C=CCn1c(O)cc(=O)nc1SCC(=O)[N-]c1cccc(S(=O)(=O)N2CCOCC2)c1

>  <Energy>  (38) 
62.093655413665296

>  <Genealogy>  (38) 
C=CCn1c(O)cc(=O)nc1SCC(=O)[N-]c1cccc(S(=O)(=O)N2CCOCC2)c1 (protonated)
C=CCn1c(O)cc(=O)nc1SCC(=O)[N-]c1cccc(S(=O)(=O)N2CCOCC2)c1 (3D coordinates assigned)
C=CCn1c(O)cc(=O)nc1SCC(=O)[N-]c1cccc(S(=O)(=O)N2CCOCC2)c1 (nonaromatic ring conformer: 62.093655413665296 kcal/mol)

>  <smiles>  (38) 
C=CCn1c(O)cc(=O)nc1SCC(=O)Nc1cccc(S(=O)(=O)N2CCOCC2)c1

>  <score_type>  (38) 
oracle

>  <origin>  (38) 
adg

>  <m_score__min__energy>  (38) 
-10.83

>  <m_primary>  (38) 
energy

$$$$
38:0
     RDKit          3D

 54 57  0  0  0  0  0  0  0  0999 V2000
   58.9940   30.2620   48.2120 C   0  0  0  0  0  0  0  0  0  0  0  0
   58.7950   30.5060   46.9080 C   0  0  0  0  0  0  0  0  0  0  0  0
   58.4940   29.5700   45.9050 C   0  0  0  0  0  0  0  0  0  0  0  0
   58.5460   28.2240   45.9090 C   0  0  0  0  0  0  0  0  0  0  0  0
   57.4020   27.3260   46.1400 C   0  0  0  0  0  0  0  0  0  0  0  0
   57.4900   26.1200   46.7340 N   0  0  0  0  0  0  0  0  0  0  0  0
   56.2500   25.6070   46.5850 C   0  0  0  0  0  0  0  0  0  0  0  0
   55.9310   24.4690   47.0210 O   0  0  0  0  0  0  0  0  0  0  0  0
   55.3880   26.3970   45.9110 N   0  0  0  0  0  0  0  0  0  0  0  0
   56.1340   27.4750   45.6220 C   0  0  0  0  0  0  0  0  0  0  0  0
   55.6600   28.5620   44.8940 O   0  0  0  0  0  0  0  0  0  0  0  0
   58.1200   30.3040   44.7890 C   0  0  0  0  0  0  0  0  0  0  0  0
   58.2740   31.6340   45.1180 C   0  0  0  0  0  0  0  0  0  0  0  0
   57.9660   32.7840   44.2090 C   0  0  0  0  0  0  0  0  0  0  0  0
   58.6830   31.7560   46.3970 N   0  0  0  0  0  0  0  0  0  0  0  0
   58.9150   32.9970   47.0770 C   0  0  0  0  0  0  0  0  0  0  0  0
   58.1500   33.3440   48.0160 O   0  0  0  0  0  0  0  0  0  0  0  0
   59.9990   33.9220   46.6050 C   0  0  0  0  0  0  0  0  0  0  0  0
   61.2840   33.6820   47.3500 C   0  0  0  0  0  0  0  0  0  0  0  0
   62.3120   32.9300   46.7590 C   0  0  0  0  0  0  0  0  0  0  0  0
   63.5150   32.7210   47.4390 C   0  0  0  0  0  0  0  0  0  0  0  0
   63.7080   33.2620   48.7200 C   0  0  0  0  0  0  0  0  0  0  0  0
   65.0150   33.0690   49.4410 C   0  0  0  0  0  0  0  0  0  0  0  0
   64.8290   32.2150   50.6280 N   0  0  0  0  0  0  0  0  0  0  0  0
   66.0090   31.3940   50.9230 C   0  0  0  0  0  0  0  0  0  0  0  0
   65.5100   30.1620   51.6600 C   0  0  0  0  0  0  0  0  0  0  0  0
   64.0280   30.0690   51.3370 C   0  0  0  0  0  0  0  0  0  0  0  0
   63.7340   31.2600   50.4370 C   0  0  0  0  0  0  0  0  0  0  0  0
   62.6870   34.0300   49.3040 C   0  0  0  0  0  0  0  0  0  0  0  0
   61.4820   34.2340   48.6260 C   0  0  0  0  0  0  0  0  0  0  0  0
   59.2246   31.0907   48.8977 H   0  0  0  0  0  0  0  0  0  0  0  0
   58.9266   29.2333   48.5956 H   0  0  0  0  0  0  0  0  0  0  0  0
   59.5245   27.7567   45.7243 H   0  0  0  0  0  0  0  0  0  0  0  0
   55.8460   28.6540   43.9030 H   0  0  0  0  0  0  0  0  0  0  0  0
   57.7684   29.9024   43.8272 H   0  0  0  0  0  0  0  0  0  0  0  0
   57.7278   33.6734   44.8108 H   0  0  0  0  0  0  0  0  0  0  0  0
   58.8396   32.9939   43.5743 H   0  0  0  0  0  0  0  0  0  0  0  0
   57.1044   32.5292   43.5743 H   0  0  0  0  0  0  0  0  0  0  0  0
   60.1705   33.7550   45.5314 H   0  0  0  0  0  0  0  0  0  0  0  0
   59.6777   34.9575   46.7908 H   0  0  0  0  0  0  0  0  0  0  0  0
   62.1697   32.5030   45.7553 H   0  0  0  0  0  0  0  0  0  0  0  0
   64.3144   32.1298   46.9683 H   0  0  0  0  0  0  0  0  0  0  0  0
   65.7363   32.5918   48.7613 H   0  0  0  0  0  0  0  0  0  0  0  0
   65.3909   34.0508   49.7647 H   0  0  0  0  0  0  0  0  0  0  0  0
   66.5097   31.1001   49.9887 H   0  0  0  0  0  0  0  0  0  0  0  0
   66.7370   31.9512   51.5309 H   0  0  0  0  0  0  0  0  0  0  0  0
   66.0375   29.2633   51.3078 H   0  0  0  0  0  0  0  0  0  0  0  0
   65.6882   30.2340   52.7431 H   0  0  0  0  0  0  0  0  0  0  0  0
   63.8068   29.1273   50.8133 H   0  0  0  0  0  0  0  0  0  0  0  0
   63.4099   30.0819   52.2468 H   0  0  0  0  0  0  0  0  0  0  0  0
   63.6906   30.9388   49.3858 H   0  0  0  0  0  0  0  0  0  0  0  0
   62.7647   31.7152   50.6885 H   0  0  0  0  0  0  0  0  0  0  0  0
   62.8366   34.4729   50.2997 H   0  0  0  0  0  0  0  0  0  0  0  0
   60.6847   34.8299   49.0942 H   0  0  0  0  0  0  0  0  0  0  0  0
  1  2  2  0
  2  3  1  0
  3  4  2  3
  4  5  1  0
  5  6  1  0
  6  7  1  0
  7  8  2  0
  7  9  1  0
  9 10  1  0
 10 11  1  0
  3 12  1  0
 12 13  2  0
 13 14  1  0
 13 15  1  0
 15 16  1  0
 16 17  2  0
 16 18  1  0
 18 19  1  0
 19 20  2  0
 20 21  1  0
 21 22  2  0
 22 23  1  0
 23 24  1  0
 24 25  1  0
 25 26  1  0
 26 27  1  0
 27 28  1  0
 22 29  1  0
 29 30  2  0
 15  2  1  0
 30 19  1  0
 10  5  2  0
 28 24  1  0
  1 31  1  0
  1 32  1  0
  4 33  1  0
 11 34  1  0
 12 35  1  0
 14 36  1  0
 14 37  1  0
 14 38  1  0
 18 39  1  0
 18 40  1  0
 20 41  1  0
 21 42  1  0
 23 43  1  0
 23 44  1  0
 25 45  1  0
 25 46  1  0
 26 47  1  0
 26 48  1  0
 27 49  1  0
 27 50  1  0
 28 51  1  0
 28 52  1  0
 29 53  1  0
 30 54  1  0
M  CHG  2   6  -1   9  -1
M  END
>  <UniqueID>  (39) 
38

>  <SMILES>  (39) 
C=c1c(=Cc2[n-]c(=O)[n-]c2O)cc(C)n1C(=O)Cc1ccc(CN2CCCC2)cc1

>  <Energy>  (39) 
131.13432685625213

>  <Genealogy>  (39) 
C=c1c(=Cc2[n-]c(=O)[n-]c2O)cc(C)n1C(=O)Cc1ccc(CN2CCCC2)cc1 (protonated)
C=c1c(=Cc2[n-]c(=O)[n-]c2O)cc(C)n1C(=O)Cc1ccc(CN2CCCC2)cc1 (3D coordinates assigned)
C=c1c(=Cc2[n-]c(=O)[n-]c2O)cc(C)n1C(=O)Cc1ccc(CN2CCCC2)cc1 (nonaromatic ring conformer: 131.13432685625213 kcal/mol)

>  <smiles>  (39) 
C=c1c(=Cc2[nH]c(=O)[nH]c2O)cc(C)n1C(=O)Cc1ccc(CN2CCCC2)cc1

>  <score_type>  (39) 
oracle

>  <origin>  (39) 
adg

>  <m_score__min__energy>  (39) 
-13.800000000000001

>  <m_primary>  (39) 
energy

$$$$
39:0
     RDKit          3D

 58 62  0  0  0  0  0  0  0  0999 V2000
   56.7130   25.1520   44.4920 C   0  0  0  0  0  0  0  0  0  0  0  0
   57.8650   24.8790   45.1240 C   0  0  0  0  0  0  0  0  0  0  0  0
   58.4280   23.6230   45.3960 C   0  0  0  0  0  0  0  0  0  0  0  0
   57.9120   22.3880   45.2570 C   0  0  0  0  0  0  0  0  0  0  0  0
   56.6360   21.9180   45.8220 C   0  0  0  0  0  0  0  0  0  0  0  0
   55.4710   21.8760   45.1490 N   0  0  0  0  0  0  0  0  0  0  0  0
   54.5770   21.5250   46.0980 C   0  0  0  0  0  0  0  0  0  0  0  0
   53.3540   21.3650   45.8510 O   0  0  0  0  0  0  0  0  0  0  0  0
   55.0950   21.3690   47.3350 N   0  0  0  0  0  0  0  0  0  0  0  0
   56.3960   21.6370   47.1430 C   0  0  0  0  0  0  0  0  0  0  0  0
   57.3460   21.6290   48.1580 O   0  0  0  0  0  0  0  0  0  0  0  0
   59.6720   23.7990   45.8930 N   0  0  0  0  0  0  0  0  0  0  0  0
   59.8220   25.1350   45.9610 C   0  0  0  0  0  0  0  0  0  0  0  0
   60.8770   25.6810   46.3810 O   0  0  0  0  0  0  0  0  0  0  0  0
   58.7530   25.8230   45.5150 N   0  0  0  0  0  0  0  0  0  0  0  0
   58.6640   27.2540   45.3970 C   0  0  0  0  0  0  0  0  0  0  0  0
   59.7270   27.9790   44.8410 C   0  0  0  0  0  0  0  0  0  0  0  0
   59.6380   29.3670   44.6970 C   0  0  0  0  0  0  0  0  0  0  0  0
   58.4810   30.0510   45.1060 C   0  0  0  0  0  0  0  0  0  0  0  0
   58.3900   31.5180   44.9360 C   0  0  0  0  0  0  0  0  0  0  0  0
   58.4720   32.0020   43.7740 O   0  0  0  0  0  0  0  0  0  0  0  0
   58.2320   32.4050   46.0650 N   0  0  0  0  0  0  0  0  0  0  0  0
   58.8890   32.1080   47.3460 C   0  0  0  0  0  0  0  0  0  0  0  0
   59.3070   33.4100   48.0550 C   0  0  0  0  0  0  0  0  0  0  0  0
   59.7750   34.4290   47.0900 N   0  0  0  0  0  0  0  0  0  0  0  0
   61.0280   34.0170   46.4180 C   0  0  0  0  0  0  0  0  0  0  0  0
   62.0340   33.5420   47.4330 C   0  0  0  0  0  0  0  0  0  0  0  0
   62.8210   32.4050   47.1850 C   0  0  0  0  0  0  0  0  0  0  0  0
   63.7560   31.9760   48.1320 C   0  0  0  0  0  0  0  0  0  0  0  0
   63.9120   32.6770   49.3310 C   0  0  0  0  0  0  0  0  0  0  0  0
   63.1330   33.8090   49.5850 C   0  0  0  0  0  0  0  0  0  0  0  0
   62.1980   34.2430   48.6390 C   0  0  0  0  0  0  0  0  0  0  0  0
   58.7150   34.8260   46.1220 C   0  0  0  0  0  0  0  0  0  0  0  0
   57.6480   33.7370   45.8860 C   0  0  0  0  0  0  0  0  0  0  0  0
   57.4050   29.3180   45.6320 C   0  0  0  0  0  0  0  0  0  0  0  0
   57.4970   27.9300   45.7780 C   0  0  0  0  0  0  0  0  0  0  0  0
   56.3973   26.1962   44.3506 H   0  0  0  0  0  0  0  0  0  0  0  0
   56.0845   24.3316   44.1154 H   0  0  0  0  0  0  0  0  0  0  0  0
   58.4957   21.6648   44.6686 H   0  0  0  0  0  0  0  0  0  0  0  0
   60.6367   27.4529   44.5160 H   0  0  0  0  0  0  0  0  0  0  0  0
   60.4787   29.9266   44.2610 H   0  0  0  0  0  0  0  0  0  0  0  0
   58.1910   31.5534   47.9904 H   0  0  0  0  0  0  0  0  0  0  0  0
   59.7884   31.5050   47.1521 H   0  0  0  0  0  0  0  0  0  0  0  0
   58.4428   33.8100   48.6057 H   0  0  0  0  0  0  0  0  0  0  0  0
   60.1359   33.1782   48.7399 H   0  0  0  0  0  0  0  0  0  0  0  0
   60.8104   33.2008   45.7134 H   0  0  0  0  0  0  0  0  0  0  0  0
   61.4448   34.8800   45.8781 H   0  0  0  0  0  0  0  0  0  0  0  0
   62.7012   31.8504   46.2426 H   0  0  0  0  0  0  0  0  0  0  0  0
   64.3699   31.0852   47.9330 H   0  0  0  0  0  0  0  0  0  0  0  0
   64.6480   32.3376   50.0747 H   0  0  0  0  0  0  0  0  0  0  0  0
   63.2550   34.3594   50.5296 H   0  0  0  0  0  0  0  0  0  0  0  0
   61.5890   35.1366   48.8405 H   0  0  0  0  0  0  0  0  0  0  0  0
   58.2130   35.7258   46.5071 H   0  0  0  0  0  0  0  0  0  0  0  0
   59.2122   35.0020   45.1567 H   0  0  0  0  0  0  0  0  0  0  0  0
   56.8263   33.8724   46.6046 H   0  0  0  0  0  0  0  0  0  0  0  0
   57.2679   33.8256   44.8576 H   0  0  0  0  0  0  0  0  0  0  0  0
   56.4835   29.8389   45.9312 H   0  0  0  0  0  0  0  0  0  0  0  0
   56.6491   27.3661   46.1940 H   0  0  0  0  0  0  0  0  0  0  0  0
  1  2  2  0
  2  3  1  0
  3  4  2  3
  4  5  1  0
  5  6  1  0
  6  7  1  0
  7  8  2  0
  7  9  1  0
  9 10  1  0
 10 11  1  0
  3 12  1  0
 12 13  1  0
 13 14  2  0
 13 15  1  0
 15 16  1  0
 16 17  2  0
 17 18  1  0
 18 19  2  0
 19 20  1  0
 20 21  2  0
 20 22  1  0
 22 23  1  0
 23 24  1  0
 24 25  1  0
 25 26  1  0
 26 27  1  0
 27 28  2  0
 28 29  1  0
 29 30  2  0
 30 31  1  0
 31 32  2  0
 25 33  1  0
 33 34  1  0
 19 35  1  0
 35 36  2  0
 15  2  1  0
 36 16  1  0
 10  5  2  0
 34 22  1  0
 32 27  1  0
  1 37  1  0
  1 38  1  0
  4 39  1  0
 17 40  1  0
 18 41  1  0
 23 42  1  0
 23 43  1  0
 24 44  1  0
 24 45  1  0
 26 46  1  0
 26 47  1  0
 28 48  1  0
 29 49  1  0
 30 50  1  0
 31 51  1  0
 32 52  1  0
 33 53  1  0
 33 54  1  0
 34 55  1  0
 34 56  1  0
 35 57  1  0
 36 58  1  0
M  CHG  4   6  -1   9  -1  11  -1  12  -1
M  END
>  <UniqueID>  (40) 
39

>  <SMILES>  (40) 
C=c1c(=Cc2[n-]c(=O)[n-]c2[O-])[n-]c(=O)n1-c1ccc(C(=O)N2CCN(Cc3ccccc3)CC2)cc1

>  <Energy>  (40) 
157.2305778240352

>  <Genealogy>  (40) 
C=c1c(=Cc2[n-]c(=O)[n-]c2[O-])[n-]c(=O)n1-c1ccc(C(=O)N2CCN(Cc3ccccc3)CC2)cc1 (protonated)
C=c1c(=Cc2[n-]c(=O)[n-]c2[O-])[n-]c(=O)n1-c1ccc(C(=O)N2CCN(Cc3ccccc3)CC2)cc1 (3D coordinates assigned)
C=c1c(=Cc2[n-]c(=O)[n-]c2[O-])[n-]c(=O)n1-c1ccc(C(=O)N2CCN(Cc3ccccc3)CC2)cc1 (nonaromatic ring conformer: 157.2305778240352 kcal/mol)

>  <smiles>  (40) 
C=c1c(=Cc2[nH]c(=O)[nH]c2O)[nH]c(=O)n1-c1ccc(C(=O)N2CCN(Cc3ccccc3)CC2)cc1

>  <score_type>  (40) 
oracle

>  <origin>  (40) 
adg

>  <m_score__min__energy>  (40) 
-18.059999999999999

>  <m_primary>  (40) 
energy

$$$$
40:0
     RDKit          3D

 48 50  0  0  0  0  0  0  0  0999 V2000
   60.0591   30.6614   44.5479 H   0  0  0  0  0  0  0  0  0  0  0  0
   59.3650   29.8810   44.8930 C   0  0  0  0  0  0  0  0  0  0  0  0
   58.5948   29.4897   44.2120 H   0  0  0  0  0  0  0  0  0  0  0  0
   59.4580   29.4050   46.1480 C   0  0  0  0  0  0  0  0  0  0  0  0
   58.6420   28.4160   46.7140 C   0  0  0  0  0  0  0  0  0  0  0  0
   57.6260   27.7580   46.1130 C   0  0  0  0  0  0  0  0  0  0  0  0
   57.0918   28.2862   45.3095 H   0  0  0  0  0  0  0  0  0  0  0  0
   57.1690   26.3890   46.4410 C   0  0  0  0  0  0  0  0  0  0  0  0
   57.9430   25.3760   46.8690 N   0  0  0  0  0  0  0  0  0  0  0  0
   57.0700   24.3620   47.0440 C   0  0  0  0  0  0  0  0  0  0  0  0
   57.4260   23.2220   47.4430 O   0  0  0  0  0  0  0  0  0  0  0  0
   55.7860   24.6650   46.7600 N   0  0  0  0  0  0  0  0  0  0  0  0
   55.8670   25.9510   46.3840 C   0  0  0  0  0  0  0  0  0  0  0  0
   54.7690   26.7100   45.9950 O   0  0  0  0  0  0  0  0  0  0  0  0
   59.1240   28.2120   48.0020 C   0  0  0  0  0  0  0  0  0  0  0  0
   58.7323   27.5003   48.7436 H   0  0  0  0  0  0  0  0  0  0  0  0
   60.1870   29.0730   48.1710 C   0  0  0  0  0  0  0  0  0  0  0  0
   61.0480   29.1180   49.3980 C   0  0  0  0  0  0  0  0  0  0  0  0
   60.4111   29.0847   50.2943 H   0  0  0  0  0  0  0  0  0  0  0  0
   61.7291   28.2542   49.3999 H   0  0  0  0  0  0  0  0  0  0  0  0
   61.6353   30.0481   49.3999 H   0  0  0  0  0  0  0  0  0  0  0  0
   60.3900   29.8090   47.0540 N   0  0  0  0  0  0  0  0  0  0  0  0
   61.4750   30.7880   46.8760 C   0  0  0  0  0  0  0  0  0  0  0  0
   62.4440   30.2718   46.9432 H   0  0  0  0  0  0  0  0  0  0  0  0
   61.3688   31.2640   45.8900 H   0  0  0  0  0  0  0  0  0  0  0  0
   61.4030   31.8440   47.9370 C   0  0  0  0  0  0  0  0  0  0  0  0
   62.4320   32.5160   48.2120 O   0  0  0  0  0  0  0  0  0  0  0  0
   60.1710   32.0900   48.6310 N   0  0  0  0  0  0  0  0  0  0  0  0
   59.3990   31.3920   48.5470 H   0  0  0  0  0  0  0  0  0  0  0  0
   59.9770   33.2580   49.4920 C   0  0  2  0  0  0  0  0  0  0  0  0
   60.9110   33.4573   50.0378 H   0  0  0  0  0  0  0  0  0  0  0  0
   58.8780   32.9810   50.4750 C   0  0  0  0  0  0  0  0  0  0  0  0
   58.1470   31.9640   50.3370 O   0  0  0  0  0  0  0  0  0  0  0  0
   58.6820   33.8230   51.5630 O   0  0  0  0  0  0  0  0  0  0  0  0
   59.6360   34.5000   48.6500 C   0  0  0  0  0  0  0  0  0  0  0  0
   58.8747   35.0906   49.1807 H   0  0  0  0  0  0  0  0  0  0  0  0
   60.5610   35.0781   48.5079 H   0  0  0  0  0  0  0  0  0  0  0  0
   59.1030   34.1310   47.2860 C   0  0  0  0  0  0  0  0  0  0  0  0
   59.7490   34.5840   46.1230 C   0  0  0  0  0  0  0  0  0  0  0  0
   60.6381   35.2263   46.2062 H   0  0  0  0  0  0  0  0  0  0  0  0
   59.2680   34.2230   44.8610 C   0  0  0  0  0  0  0  0  0  0  0  0
   59.7904   34.5655   43.9556 H   0  0  0  0  0  0  0  0  0  0  0  0
   58.1250   33.4280   44.7480 C   0  0  0  0  0  0  0  0  0  0  0  0
   57.7417   33.1533   43.7542 H   0  0  0  0  0  0  0  0  0  0  0  0
   57.4690   32.9820   45.8980 C   0  0  0  0  0  0  0  0  0  0  0  0
   56.5652   32.3613   45.8085 H   0  0  0  0  0  0  0  0  0  0  0  0
   57.9590   33.3230   47.1630 C   0  0  0  0  0  0  0  0  0  0  0  0
   57.4471   32.9574   48.0654 H   0  0  0  0  0  0  0  0  0  0  0  0
  1  2  1  0
  2  3  1  0
  2  4  2  0
  4  5  1  0
  5  6  2  0
  6  7  1  0
  6  8  1  0
  8  9  1  0
  9 10  1  0
 10 11  2  0
 10 12  1  0
 12 13  1  0
 13 14  1  0
  5 15  1  0
 15 16  1  0
 15 17  2  0
 17 18  1  0
 18 19  1  0
 18 20  1  0
 18 21  1  0
 17 22  1  0
 22 23  1  0
 23 24  1  0
 23 25  1  0
 23 26  1  0
 26 27  2  0
 26 28  1  0
 28 29  1  0
 28 30  1  0
 30 31  1  1
 30 32  1  0
 32 33  2  0
 32 34  1  0
 30 35  1  0
 35 36  1  0
 35 37  1  0
 35 38  1  0
 38 39  2  0
 39 40  1  0
 39 41  1  0
 41 42  1  0
 41 43  2  0
 43 44  1  0
 43 45  1  0
 45 46  1  0
 45 47  2  0
 47 48  1  0
 22  4  1  0
 47 38  1  0
 13  8  2  0
M  CHG  4   9  -1  12  -1  14  -1  34  -1
M  END
>  <UniqueID>  (41) 
40

>  <SMILES>  (41) 
C=c1/c(=C/c2[n-]c(=O)[n-]c2[O-])cc(C)n1CC(=O)N[C@@H](Cc1ccccc1)C(=O)[O-]

>  <Energy>  (41) 
101.8365475726189

>  <Genealogy>  (41) 
C=c1c(=Cc2[n-]c(=O)[n-]c2[O-])cc(C)n1CC(=O)NC(Cc1ccccc1)C(=O)[O-] (protonated)
C=c1c(=Cc2[n-]c(=O)[n-]c2[O-])cc(C)n1CC(=O)N[C@@H](Cc1ccccc1)C(=O)[O-] (chirality)
C=c1/c(=C/c2[n-]c(=O)[n-]c2[O-])cc(C)n1CC(=O)N[C@@H](Cc1ccccc1)C(=O)[O-] (cis-trans isomerization)
C=c1/c(=C/c2[n-]c(=O)[n-]c2[O-])cc(C)n1CC(=O)N[C@@H](Cc1ccccc1)C(=O)[O-] (3D coordinates assigned)
C=c1/c(=C/c2[n-]c(=O)[n-]c2[O-])cc(C)n1CC(=O)N[C@@H](Cc1ccccc1)C(=O)[O-] (optimized conformer: 101.8365475726189 kcal/mol)

>  <smiles>  (41) 
C=c1c(=Cc2[nH]c(=O)[nH]c2O)cc(C)n1CC(=O)NC(Cc1ccccc1)C(=O)O

>  <score_type>  (41) 
oracle

>  <origin>  (41) 
adg

>  <m_score__min__energy>  (41) 
-17.48

>  <m_primary>  (41) 
energy

$$$$
41:0
     RDKit          3D

 73 78  0  0  0  0  0  0  0  0999 V2000
   54.7920   26.3240   45.7820 N   0  0  0  0  0  0  0  0  0  0  0  0
   55.9520   25.7910   46.4190 C   0  0  0  0  0  0  0  0  0  0  0  0
   55.8220   24.8260   47.2210 O   0  0  0  0  0  0  0  0  0  0  0  0
   57.2920   26.3610   46.1450 C   0  0  0  0  0  0  0  0  0  0  0  0
   57.6430   26.7630   44.8450 C   0  0  0  0  0  0  0  0  0  0  0  0
   58.9080   27.2940   44.5860 C   0  0  0  0  0  0  0  0  0  0  0  0
   59.8350   27.4400   45.6190 C   0  0  0  0  0  0  0  0  0  0  0  0
   59.5010   27.0640   46.9290 C   0  0  0  0  0  0  0  0  0  0  0  0
   60.5320   27.2010   48.0250 C   0  0  0  0  0  0  0  0  0  0  0  0
   60.3800   28.4640   48.7590 N   0  0  0  0  0  0  0  0  0  0  0  0
   60.4870   28.6950   50.1010 C   0  0  0  0  0  0  0  0  0  0  0  0
   60.7010   27.6550   51.1300 C   0  0  0  0  0  0  0  0  0  0  0  0
   61.5070   26.5370   50.8720 C   0  0  0  0  0  0  0  0  0  0  0  0
   61.7030   25.5660   51.8560 C   0  0  0  0  0  0  0  0  0  0  0  0
   61.0960   25.6960   53.1150 C   0  0  0  0  0  0  0  0  0  0  0  0
   61.3600   24.6740   54.1960 C   0  0  0  0  0  0  0  0  0  0  0  0
   60.5000   23.4710   54.1040 N   0  0  0  0  0  0  0  0  0  0  0  0
   60.9530   22.4430   53.1410 C   0  0  0  0  0  0  0  0  0  0  0  0
   60.0940   22.4030   51.8660 C   0  0  0  0  0  0  0  0  0  0  0  0
   59.4860   23.6530   51.6330 O   0  0  0  0  0  0  0  0  0  0  0  0
   58.5040   23.8920   52.6210 C   0  0  0  0  0  0  0  0  0  0  0  0
   59.0470   23.7420   54.0610 C   0  0  0  0  0  0  0  0  0  0  0  0
   60.2490   26.7900   53.3550 C   0  0  0  0  0  0  0  0  0  0  0  0
   60.0500   27.7600   52.3690 C   0  0  0  0  0  0  0  0  0  0  0  0
   60.4170   30.0150   50.4060 N   0  0  0  0  0  0  0  0  0  0  0  0
   60.2540   30.6240   49.2210 C   0  0  0  0  0  0  0  0  0  0  0  0
   60.1440   31.9880   48.9640 C   0  0  0  0  0  0  0  0  0  0  0  0
   60.0140   32.3960   47.6200 C   0  0  0  0  0  0  0  0  0  0  0  0
   59.9040   34.1130   47.2260 S   0  0  0  0  0  0  0  0  0  0  0  0
   61.0380   34.4820   46.3090 O   0  0  0  0  0  0  0  0  0  0  0  0
   60.0480   34.9190   48.4880 O   0  0  0  0  0  0  0  0  0  0  0  0
   58.3830   34.5110   46.4550 N   0  0  0  0  0  0  0  0  0  0  0  0
   57.4030   33.4350   46.6260 C   0  0  0  0  0  0  0  0  0  0  0  0
   57.3910   32.5880   45.3610 C   0  0  0  0  0  0  0  0  0  0  0  0
   58.1440   33.3900   44.3200 C   0  0  0  0  0  0  0  0  0  0  0  0
   58.5520   34.6840   45.0090 C   0  0  0  0  0  0  0  0  0  0  0  0
   59.9900   31.4280   46.5850 C   0  0  0  0  0  0  0  0  0  0  0  0
   60.1100   30.0590   46.8820 C   0  0  0  0  0  0  0  0  0  0  0  0
   60.2360   29.6930   48.2230 C   0  0  0  0  0  0  0  0  0  0  0  0
   58.2330   26.5080   47.1810 C   0  0  0  0  0  0  0  0  0  0  0  0
   54.0050   26.7190   46.3440 H   0  0  0  0  0  0  0  0  0  0  0  0
   56.9162   26.6586   44.0259 H   0  0  0  0  0  0  0  0  0  0  0  0
   59.1752   27.5986   43.5633 H   0  0  0  0  0  0  0  0  0  0  0  0
   60.8323   27.8518   45.4052 H   0  0  0  0  0  0  0  0  0  0  0  0
   60.4174   26.3636   48.7290 H   0  0  0  0  0  0  0  0  0  0  0  0
   61.5292   27.1921   47.5608 H   0  0  0  0  0  0  0  0  0  0  0  0
   61.9875   26.4243   49.8890 H   0  0  0  0  0  0  0  0  0  0  0  0
   62.3375   24.6930   51.6431 H   0  0  0  0  0  0  0  0  0  0  0  0
   62.4105   24.3558   54.1234 H   0  0  0  0  0  0  0  0  0  0  0  0
   61.1323   25.1580   55.1572 H   0  0  0  0  0  0  0  0  0  0  0  0
   61.9933   22.6608   52.8575 H   0  0  0  0  0  0  0  0  0  0  0  0
   60.8615   21.4637   53.6336 H   0  0  0  0  0  0  0  0  0  0  0  0
   60.7334   22.1474   51.0082 H   0  0  0  0  0  0  0  0  0  0  0  0
   59.3062   21.6462   51.9951 H   0  0  0  0  0  0  0  0  0  0  0  0
   58.1221   24.9159   52.4952 H   0  0  0  0  0  0  0  0  0  0  0  0
   57.7129   23.1395   52.4875 H   0  0  0  0  0  0  0  0  0  0  0  0
   58.8477   24.6742   54.6099 H   0  0  0  0  0  0  0  0  0  0  0  0
   58.5374   22.8805   54.5173 H   0  0  0  0  0  0  0  0  0  0  0  0
   59.7390   26.8840   54.3251 H   0  0  0  0  0  0  0  0  0  0  0  0
   59.3799   28.6100   52.5648 H   0  0  0  0  0  0  0  0  0  0  0  0
   60.4800   30.4620   51.3470 H   0  0  0  0  0  0  0  0  0  0  0  0
   60.1580   32.7232   49.7821 H   0  0  0  0  0  0  0  0  0  0  0  0
   57.6831   32.8113   47.4877 H   0  0  0  0  0  0  0  0  0  0  0  0
   56.4042   33.8595   46.8052 H   0  0  0  0  0  0  0  0  0  0  0  0
   57.8928   31.6256   45.5397 H   0  0  0  0  0  0  0  0  0  0  0  0
   56.3650   32.3629   45.0343 H   0  0  0  0  0  0  0  0  0  0  0  0
   59.0340   32.8390   43.9819 H   0  0  0  0  0  0  0  0  0  0  0  0
   57.5250   33.5822   43.4313 H   0  0  0  0  0  0  0  0  0  0  0  0
   59.6044   34.9099   44.7823 H   0  0  0  0  0  0  0  0  0  0  0  0
   57.9269   35.5158   44.6521 H   0  0  0  0  0  0  0  0  0  0  0  0
   59.8764   31.7508   45.5396 H   0  0  0  0  0  0  0  0  0  0  0  0
   60.1048   29.3017   46.0842 H   0  0  0  0  0  0  0  0  0  0  0  0
   57.9743   26.1844   48.2000 H   0  0  0  0  0  0  0  0  0  0  0  0
  1  2  1  0
  2  3  2  0
  2  4  1  0
  4  5  2  0
  5  6  1  0
  6  7  2  0
  7  8  1  0
  8  9  1  0
  9 10  1  0
 10 11  1  0
 11 12  1  0
 12 13  2  0
 13 14  1  0
 14 15  2  0
 15 16  1  0
 16 17  1  0
 17 18  1  0
 18 19  1  0
 19 20  1  0
 20 21  1  0
 21 22  1  0
 15 23  1  0
 23 24  2  0
 11 25  2  0
 25 26  1  0
 26 27  2  0
 27 28  1  0
 28 29  1  0
 29 30  2  0
 29 31  2  0
 29 32  1  0
 32 33  1  0
 33 34  1  0
 34 35  1  0
 35 36  1  0
 28 37  2  0
 37 38  1  0
 38 39  2  0
  8 40  2  0
 40  4  1  0
 39 10  1  0
 24 12  1  0
 39 26  1  0
 22 17  1  0
 36 32  1  0
  1 41  1  0
  5 42  1  0
  6 43  1  0
  7 44  1  0
  9 45  1  0
  9 46  1  0
 13 47  1  0
 14 48  1  0
 16 49  1  0
 16 50  1  0
 18 51  1  0
 18 52  1  0
 19 53  1  0
 19 54  1  0
 21 55  1  0
 21 56  1  0
 22 57  1  0
 22 58  1  0
 23 59  1  0
 24 60  1  0
 25 61  1  0
 27 62  1  0
 33 63  1  0
 33 64  1  0
 34 65  1  0
 34 66  1  0
 35 67  1  0
 35 68  1  0
 36 69  1  0
 36 70  1  0
 37 71  1  0
 38 72  1  0
 40 73  1  0
M  CHG  2   1  -1  25   1
M  END
>  <UniqueID>  (42) 
41

>  <SMILES>  (42) 
[NH-]C(=O)c1cccc(Cn2c(-c3ccc(CN4CCOCC4)cc3)[nH+]c3cc(S(=O)(=O)N4CCCC4)ccc32)c1

>  <Energy>  (42) 
136.59851006499554

>  <Genealogy>  (42) 
[NH-]C(=O)c1cccc(Cn2c(-c3ccc(CN4CCOCC4)cc3)[nH+]c3cc(S(=O)(=O)N4CCCC4)ccc32)c1 (protonated)
[NH-]C(=O)c1cccc(Cn2c(-c3ccc(CN4CCOCC4)cc3)[nH+]c3cc(S(=O)(=O)N4CCCC4)ccc32)c1 (3D coordinates assigned)
[NH-]C(=O)c1cccc(Cn2c(-c3ccc(CN4CCOCC4)cc3)[nH+]c3cc(S(=O)(=O)N4CCCC4)ccc32)c1 (nonaromatic ring conformer: 136.59851006499554 kcal/mol)

>  <smiles>  (42) 
NC(=O)c1cccc(Cn2c(-c3ccc(CN4CCOCC4)cc3)nc3cc(S(=O)(=O)N4CCCC4)ccc32)c1

>  <score_type>  (42) 
oracle

>  <origin>  (42) 
adg

>  <m_score__min__energy>  (42) 
-11.6

>  <m_primary>  (42) 
energy

$$$$
42:0
     RDKit          3D

 53 55  0  0  0  0  0  0  0  0999 V2000
   58.0720   19.5520   47.1070 C   0  0  0  0  0  0  0  0  0  0  0  0
   57.7550   20.9370   47.0130 O   0  0  0  0  0  0  0  0  0  0  0  0
   57.2380   21.5550   45.8640 C   0  0  0  0  0  0  0  0  0  0  0  0
   57.8010   21.2290   44.6240 C   0  0  0  0  0  0  0  0  0  0  0  0
   57.3260   21.8200   43.4510 C   0  0  0  0  0  0  0  0  0  0  0  0
   56.2790   22.7420   43.5050 C   0  0  0  0  0  0  0  0  0  0  0  0
   55.6970   23.0780   44.7380 C   0  0  0  0  0  0  0  0  0  0  0  0
   54.5900   24.0940   44.8110 C   0  0  0  0  0  0  0  0  0  0  0  0
   54.7590   24.9340   45.9910 N   0  0  0  0  0  0  0  0  0  0  0  0
   55.7690   25.9420   46.1030 C   0  0  0  0  0  0  0  0  0  0  0  0
   55.5770   27.0940   45.6300 O   0  0  0  0  0  0  0  0  0  0  0  0
   57.0770   25.6080   46.7450 C   0  0  0  0  0  0  0  0  0  0  0  0
   58.1300   25.3610   45.6980 C   0  0  0  0  0  0  0  0  0  0  0  0
   58.7310   24.2540   45.6760 O   0  0  0  0  0  0  0  0  0  0  0  0
   58.5020   26.3660   44.7440 N   0  0  0  0  0  0  0  0  0  0  0  0
   58.2900   27.7790   44.8690 C   0  0  0  0  0  0  0  0  0  0  0  0
   57.7520   28.5400   43.8190 C   0  0  0  0  0  0  0  0  0  0  0  0
   57.5870   29.9200   43.9600 C   0  0  0  0  0  0  0  0  0  0  0  0
   57.9850   30.5660   45.1420 C   0  0  0  0  0  0  0  0  0  0  0  0
   57.7970   32.0250   45.3070 C   0  0  0  0  0  0  0  0  0  0  0  0
   56.6340   32.5060   45.2200 O   0  0  0  0  0  0  0  0  0  0  0  0
   58.9060   32.9060   45.5690 N   0  0  0  0  0  0  0  0  0  0  0  0
   60.0290   32.4890   46.4130 C   0  0  0  0  0  0  0  0  0  0  0  0
   60.4870   33.6720   47.2730 C   0  0  0  0  0  0  0  0  0  0  0  0
   60.7450   34.8070   46.4660 O   0  0  0  0  0  0  0  0  0  0  0  0
   59.5450   35.2530   45.8660 C   0  0  0  0  0  0  0  0  0  0  0  0
   58.9980   34.2020   44.8920 C   0  0  0  0  0  0  0  0  0  0  0  0
   58.5350   29.8040   46.1860 C   0  0  0  0  0  0  0  0  0  0  0  0
   58.6980   28.4230   46.0420 C   0  0  0  0  0  0  0  0  0  0  0  0
   56.1820   22.4850   45.9150 C   0  0  0  0  0  0  0  0  0  0  0  0
   58.1384   19.2621   48.1660 H   0  0  0  0  0  0  0  0  0  0  0  0
   57.2858   18.9616   46.6138 H   0  0  0  0  0  0  0  0  0  0  0  0
   59.0368   19.3624   46.6138 H   0  0  0  0  0  0  0  0  0  0  0  0
   58.6243   20.5013   44.5733 H   0  0  0  0  0  0  0  0  0  0  0  0
   57.7777   21.5585   42.4827 H   0  0  0  0  0  0  0  0  0  0  0  0
   55.9090   23.2065   42.5791 H   0  0  0  0  0  0  0  0  0  0  0  0
   54.6139   24.7238   43.9094 H   0  0  0  0  0  0  0  0  0  0  0  0
   53.6245   23.5710   44.8762 H   0  0  0  0  0  0  0  0  0  0  0  0
   57.3913   26.4465   47.3838 H   0  0  0  0  0  0  0  0  0  0  0  0
   56.9547   24.6966   47.3487 H   0  0  0  0  0  0  0  0  0  0  0  0
   57.4589   28.0470   42.8804 H   0  0  0  0  0  0  0  0  0  0  0  0
   57.1428   30.5041   43.1406 H   0  0  0  0  0  0  0  0  0  0  0  0
   59.7105   31.6627   47.0655 H   0  0  0  0  0  0  0  0  0  0  0  0
   60.8614   32.1534   45.7771 H   0  0  0  0  0  0  0  0  0  0  0  0
   59.6982   33.9171   47.9994 H   0  0  0  0  0  0  0  0  0  0  0  0
   61.4133   33.3917   47.7958 H   0  0  0  0  0  0  0  0  0  0  0  0
   58.7976   35.4404   46.6510 H   0  0  0  0  0  0  0  0  0  0  0  0
   59.7534   36.1768   45.3064 H   0  0  0  0  0  0  0  0  0  0  0  0
   57.9988   34.5069   44.5475 H   0  0  0  0  0  0  0  0  0  0  0  0
   59.6746   34.1163   44.0289 H   0  0  0  0  0  0  0  0  0  0  0  0
   58.8390   30.2963   47.1215 H   0  0  0  0  0  0  0  0  0  0  0  0
   59.1503   27.8386   46.8568 H   0  0  0  0  0  0  0  0  0  0  0  0
   55.7335   22.7490   46.8841 H   0  0  0  0  0  0  0  0  0  0  0  0
  1  2  1  0
  2  3  1  0
  3  4  2  0
  4  5  1  0
  5  6  2  0
  6  7  1  0
  7  8  1  0
  8  9  1  0
  9 10  1  0
 10 11  2  0
 10 12  1  0
 12 13  1  0
 13 14  2  0
 13 15  1  0
 15 16  1  0
 16 17  2  0
 17 18  1  0
 18 19  2  0
 19 20  1  0
 20 21  2  0
 20 22  1  0
 22 23  1  0
 23 24  1  0
 24 25  1  0
 25 26  1  0
 26 27  1  0
 19 28  1  0
 28 29  2  0
  7 30  2  0
 30  3  1  0
 29 16  1  0
 27 22  1  0
  1 31  1  0
  1 32  1  0
  1 33  1  0
  4 34  1  0
  5 35  1  0
  6 36  1  0
  8 37  1  0
  8 38  1  0
 12 39  1  0
 12 40  1  0
 17 41  1  0
 18 42  1  0
 23 43  1  0
 23 44  1  0
 24 45  1  0
 24 46  1  0
 26 47  1  0
 26 48  1  0
 27 49  1  0
 27 50  1  0
 28 51  1  0
 29 52  1  0
 30 53  1  0
M  CHG  2   9  -1  15  -1
M  END
>  <UniqueID>  (43) 
42

>  <SMILES>  (43) 
COc1cccc(C[N-]C(=O)CC(=O)[N-]c2ccc(C(=O)N3CCOCC3)cc2)c1

>  <Energy>  (43) 
60.53373589603607

>  <Genealogy>  (43) 
COc1cccc(C[N-]C(=O)CC(=O)[N-]c2ccc(C(=O)N3CCOCC3)cc2)c1 (protonated)
COc1cccc(C[N-]C(=O)CC(=O)[N-]c2ccc(C(=O)N3CCOCC3)cc2)c1 (3D coordinates assigned)
COc1cccc(C[N-]C(=O)CC(=O)[N-]c2ccc(C(=O)N3CCOCC3)cc2)c1 (nonaromatic ring conformer: 60.53373589603607 kcal/mol)

>  <smiles>  (43) 
COc1cccc(CNC(=O)CC(=O)Nc2ccc(C(=O)N3CCOCC3)cc2)c1

>  <score_type>  (43) 
oracle

>  <origin>  (43) 
adg

>  <m_score__min__energy>  (43) 
-11.970000000000001

>  <m_primary>  (43) 
energy

$$$$
43:0
     RDKit          3D

 55 59  0  0  0  0  0  0  0  0999 V2000
   62.5480   32.9050   51.3620 O   0  0  0  0  0  0  0  0  0  0  0  0
   62.0970   32.3000   50.3530 C   0  0  0  0  0  0  0  0  0  0  0  0
   61.2780   31.1410   50.5560 N   0  0  0  0  0  0  0  0  0  0  0  0
   60.5480   30.4350   49.5430 C   0  0  0  0  0  0  0  0  0  0  0  0
   61.2010   30.0790   48.3590 C   0  0  0  0  0  0  0  0  0  0  0  0
   60.5150   29.3970   47.3490 C   0  0  0  0  0  0  0  0  0  0  0  0
   59.1620   29.0590   47.5150 C   0  0  0  0  0  0  0  0  0  0  0  0
   58.4410   28.3410   46.4420 C   0  0  0  0  0  0  0  0  0  0  0  0
   58.1490   27.0270   46.5030 N   0  0  0  0  0  0  0  0  0  0  0  0
   57.4390   26.7240   45.3980 C   0  0  0  0  0  0  0  0  0  0  0  0
   56.9350   25.3630   45.0830 C   0  0  0  0  0  0  0  0  0  0  0  0
   57.7930   24.4250   44.4860 C   0  0  0  0  0  0  0  0  0  0  0  0
   57.3320   23.1460   44.1760 C   0  0  0  0  0  0  0  0  0  0  0  0
   56.0120   22.8040   44.4670 C   0  0  0  0  0  0  0  0  0  0  0  0
   55.5350   21.5370   44.1610 O   0  0  0  0  0  0  0  0  0  0  0  0
   55.1900   23.7120   45.0540 N   0  0  0  0  0  0  0  0  0  0  0  0
   55.6100   24.9660   45.3720 C   0  0  0  0  0  0  0  0  0  0  0  0
   54.8070   25.7530   45.9420 O   0  0  0  0  0  0  0  0  0  0  0  0
   57.2880   27.8510   44.6070 C   0  0  0  0  0  0  0  0  0  0  0  0
   57.9220   28.8830   45.2720 C   0  0  0  0  0  0  0  0  0  0  0  0
   58.1020   30.2540   44.7500 C   0  0  0  0  0  0  0  0  0  0  0  0
   58.8640   30.4490   43.7670 O   0  0  0  0  0  0  0  0  0  0  0  0
   57.3620   31.3640   45.2770 N   0  0  0  0  0  0  0  0  0  0  0  0
   57.9130   32.6100   45.7290 C   0  0  0  0  0  0  0  0  0  0  0  0
   58.4520   33.4940   44.7870 C   0  0  0  0  0  0  0  0  0  0  0  0
   59.0100   34.7100   45.1970 C   0  0  0  0  0  0  0  0  0  0  0  0
   59.0460   35.0410   46.5540 C   0  0  0  0  0  0  0  0  0  0  0  0
   58.5340   34.1530   47.5040 C   0  0  0  0  0  0  0  0  0  0  0  0
   57.9770   32.9370   47.0980 C   0  0  0  0  0  0  0  0  0  0  0  0
   58.5210   29.3730   48.7240 C   0  0  0  0  0  0  0  0  0  0  0  0
   59.2090   30.0520   49.7330 C   0  0  0  0  0  0  0  0  0  0  0  0
   62.4650   32.7760   48.9970 C   0  0  0  0  0  0  0  0  0  0  0  0
   63.7850   32.6320   48.5340 C   0  0  0  0  0  0  0  0  0  0  0  0
   64.1380   33.0840   47.2590 C   0  0  0  0  0  0  0  0  0  0  0  0
   63.1770   33.6700   46.4310 C   0  0  0  0  0  0  0  0  0  0  0  0
   61.8590   33.8030   46.8760 C   0  0  0  0  0  0  0  0  0  0  0  0
   61.5010   33.3530   48.1500 C   0  0  0  0  0  0  0  0  0  0  0  0
   62.2614   30.3371   48.2210 H   0  0  0  0  0  0  0  0  0  0  0  0
   61.0375   29.1241   46.4203 H   0  0  0  0  0  0  0  0  0  0  0  0
   58.3910   26.3780   47.2850 H   0  0  0  0  0  0  0  0  0  0  0  0
   58.8340   24.7007   44.2618 H   0  0  0  0  0  0  0  0  0  0  0  0
   58.0041   22.4130   43.7058 H   0  0  0  0  0  0  0  0  0  0  0  0
   56.7664   27.9123   43.6405 H   0  0  0  0  0  0  0  0  0  0  0  0
   58.4369   33.2314   43.7189 H   0  0  0  0  0  0  0  0  0  0  0  0
   59.4206   35.4058   44.4505 H   0  0  0  0  0  0  0  0  0  0  0  0
   59.4774   36.0007   46.8747 H   0  0  0  0  0  0  0  0  0  0  0  0
   58.5694   34.4114   48.5726 H   0  0  0  0  0  0  0  0  0  0  0  0
   57.5878   32.2338   47.8490 H   0  0  0  0  0  0  0  0  0  0  0  0
   57.4712   29.0828   48.8778 H   0  0  0  0  0  0  0  0  0  0  0  0
   58.7008   30.2877   50.6797 H   0  0  0  0  0  0  0  0  0  0  0  0
   64.5430   32.1618   49.1777 H   0  0  0  0  0  0  0  0  0  0  0  0
   65.1747   32.9781   46.9068 H   0  0  0  0  0  0  0  0  0  0  0  0
   63.4579   34.0266   45.4290 H   0  0  0  0  0  0  0  0  0  0  0  0
   61.1024   34.2624   46.2229 H   0  0  0  0  0  0  0  0  0  0  0  0
   60.4601   33.4505   48.4922 H   0  0  0  0  0  0  0  0  0  0  0  0
  1  2  2  0
  2  3  1  0
  3  4  1  0
  4  5  2  0
  5  6  1  0
  6  7  2  0
  7  8  1  0
  8  9  1  0
  9 10  1  0
 10 11  1  0
 11 12  2  0
 12 13  1  0
 13 14  2  0
 14 15  1  0
 14 16  1  0
 16 17  1  0
 17 18  2  0
 10 19  2  0
 19 20  1  0
 20 21  1  0
 21 22  2  0
 21 23  1  0
 23 24  1  0
 24 25  2  0
 25 26  1  0
 26 27  2  0
 27 28  1  0
 28 29  2  0
  7 30  1  0
 30 31  2  0
  2 32  1  0
 32 33  2  0
 33 34  1  0
 34 35  2  0
 35 36  1  0
 36 37  2  0
 31  4  1  0
 37 32  1  0
 20  8  2  0
 29 24  1  0
 17 11  1  0
  5 38  1  0
  6 39  1  0
  9 40  1  0
 12 41  1  0
 13 42  1  0
 19 43  1  0
 25 44  1  0
 26 45  1  0
 27 46  1  0
 28 47  1  0
 29 48  1  0
 30 49  1  0
 31 50  1  0
 33 51  1  0
 34 52  1  0
 35 53  1  0
 36 54  1  0
 37 55  1  0
M  CHG  4   3  -1  15  -1  16  -1  23  -1
M  END
>  <UniqueID>  (44) 
43

>  <SMILES>  (44) 
O=C([N-]c1ccc(-c2[nH]c(-c3ccc([O-])[n-]c3=O)cc2C(=O)[N-]c2ccccc2)cc1)c1ccccc1

>  <Energy>  (44) 
109.7734334576642

>  <Genealogy>  (44) 
O=C([N-]c1ccc(-c2[nH]c(-c3ccc([O-])[n-]c3=O)cc2C(=O)[N-]c2ccccc2)cc1)c1ccccc1 (protonated)
O=C([N-]c1ccc(-c2[nH]c(-c3ccc([O-])[n-]c3=O)cc2C(=O)[N-]c2ccccc2)cc1)c1ccccc1 (3D coordinates assigned)
O=C([N-]c1ccc(-c2[nH]c(-c3ccc([O-])[n-]c3=O)cc2C(=O)[N-]c2ccccc2)cc1)c1ccccc1 (optimized conformer: 109.7734334576642 kcal/mol)

>  <smiles>  (44) 
O=C(Nc1ccc(-c2[nH]c(-c3ccc(O)[nH]c3=O)cc2C(=O)Nc2ccccc2)cc1)c1ccccc1

>  <score_type>  (44) 
oracle

>  <origin>  (44) 
adg

>  <m_score__min__energy>  (44) 
-14.92

>  <m_primary>  (44) 
energy

$$$$
44:0
     RDKit          3D

 32 33  0  0  0  0  0  0  0  0999 V2000
   55.1520   27.6590   45.6230 H   0  0  0  0  0  0  0  0  0  0  0  0
   55.0520   26.7180   45.9770 O   0  0  0  0  0  0  0  0  0  0  0  0
   55.9230   25.6770   45.6460 C   0  0  0  0  0  0  0  0  0  0  0  0
   55.3630   24.4700   45.2100 C   0  0  0  0  0  0  0  0  0  0  0  0
   54.2695   24.3513   45.1978 H   0  0  0  0  0  0  0  0  0  0  0  0
   56.1810   23.4090   44.7880 C   0  0  0  0  0  0  0  0  0  0  0  0
   55.6440   22.1620   44.3260 N   0  0  0  0  0  0  0  0  0  0  0  0
   56.5510   20.7140   44.0210 S   0  0  0  0  0  0  0  0  0  0  0  0
   57.1620   20.7670   42.6500 O   0  0  0  0  0  0  0  0  0  0  0  0
   57.6530   20.6140   45.0370 O   0  0  0  0  0  0  0  0  0  0  0  0
   55.4990   19.2870   44.1790 C   0  0  0  0  0  0  0  0  0  0  0  0
   55.3369   19.0671   45.2445 H   0  0  0  0  0  0  0  0  0  0  0  0
   54.5320   19.4889   43.6951 H   0  0  0  0  0  0  0  0  0  0  0  0
   55.9779   18.4230   43.6951 H   0  0  0  0  0  0  0  0  0  0  0  0
   57.5690   23.5710   44.8020 C   0  0  0  0  0  0  0  0  0  0  0  0
   58.2171   22.7535   44.4533 H   0  0  0  0  0  0  0  0  0  0  0  0
   58.1400   24.7620   45.2550 C   0  0  0  0  0  0  0  0  0  0  0  0
   59.2343   24.8735   45.2610 H   0  0  0  0  0  0  0  0  0  0  0  0
   57.3310   25.8190   45.7030 C   0  0  0  0  0  0  0  0  0  0  0  0
   57.9840   27.0270   46.2500 C   0  0  0  0  0  0  0  0  0  0  0  0
   59.1280   26.9270   46.7740 O   0  0  0  0  0  0  0  0  0  0  0  0
   57.2840   28.2840   46.2440 N   0  0  0  0  0  0  0  0  0  0  0  0
   57.1380   29.0960   45.2370 C   0  0  0  0  0  0  0  0  0  0  0  0
   55.9380   29.2360   44.6040 N   0  0  0  0  0  0  0  0  0  0  0  0
   55.7710   30.0830   43.5530 C   0  0  0  0  0  0  0  0  0  0  0  0
   54.7882   30.1693   43.0665 H   0  0  0  0  0  0  0  0  0  0  0  0
   56.8480   30.8430   43.0920 C   0  0  0  0  0  0  0  0  0  0  0  0
   56.6910   31.6900   42.0450 F   0  0  0  0  0  0  0  0  0  0  0  0
   58.0880   30.7210   43.7210 C   0  0  0  0  0  0  0  0  0  0  0  0
   58.9453   31.3137   43.3691 H   0  0  0  0  0  0  0  0  0  0  0  0
   58.2380   29.8450   44.7980 C   0  0  0  0  0  0  0  0  0  0  0  0
   59.2125   29.7436   45.2981 H   0  0  0  0  0  0  0  0  0  0  0  0
  1  2  1  0
  2  3  1  0
  3  4  2  0
  4  5  1  0
  4  6  1  0
  6  7  1  0
  7  8  1  0
  8  9  2  0
  8 10  2  0
  8 11  1  0
 11 12  1  0
 11 13  1  0
 11 14  1  0
  6 15  2  0
 15 16  1  0
 15 17  1  0
 17 18  1  0
 17 19  2  0
 19 20  1  0
 20 21  2  0
 20 22  1  0
 22 23  2  0
 23 24  1  0
 24 25  1  0
 25 26  1  0
 25 27  2  0
 27 28  1  0
 27 29  1  0
 29 30  1  0
 29 31  2  0
 31 32  1  0
 19  3  1  0
 31 23  1  0
M  CHG  2   7  -1  24  -1
M  END
>  <UniqueID>  (45) 
44

>  <SMILES>  (45) 
CS(=O)(=O)[N-]c1ccc(C(=O)/N=c2/ccc(F)c[n-]2)c(O)c1

>  <Energy>  (45) 
40.88498856298637

>  <Genealogy>  (45) 
CS(=O)(=O)[N-]c1ccc(C(=O)N=c2ccc(F)c[n-]2)c(O)c1 (protonated)
CS(=O)(=O)[N-]c1ccc(C(=O)/N=c2/ccc(F)c[n-]2)c(O)c1 (cis-trans isomerization)
CS(=O)(=O)[N-]c1ccc(C(=O)/N=c2/ccc(F)c[n-]2)c(O)c1 (3D coordinates assigned)
CS(=O)(=O)[N-]c1ccc(C(=O)/N=c2/ccc(F)c[n-]2)c(O)c1 (optimized conformer: 40.88498856298637 kcal/mol)

>  <smiles>  (45) 
CS(=O)(=O)Nc1ccc(C(=O)N=c2ccc(F)c[nH]2)c(O)c1

>  <score_type>  (45) 
oracle

>  <origin>  (45) 
adg

>  <m_score__min__energy>  (45) 
-10.710000000000001

>  <m_primary>  (45) 
energy

$$$$
45:0
     RDKit          3D

 64 67  0  0  0  0  0  0  0  0999 V2000
   64.7960   33.8590   51.2700 C   0  0  0  0  0  0  0  0  0  0  0  0
   64.6390   33.3080   49.8840 C   0  0  0  0  0  0  0  0  0  0  0  0
   65.6170   32.7180   49.3630 O   0  0  0  0  0  0  0  0  0  0  0  0
   63.3640   33.4290   49.1350 C   0  0  0  0  0  0  0  0  0  0  0  0
   62.2380   34.0110   49.7470 C   0  0  0  0  0  0  0  0  0  0  0  0
   61.0280   34.1240   49.0570 C   0  0  0  0  0  0  0  0  0  0  0  0
   60.9210   33.6700   47.7330 C   0  0  0  0  0  0  0  0  0  0  0  0
   59.6620   33.7450   47.0400 N   0  0  0  0  0  0  0  0  0  0  0  0
   58.7520   32.5960   47.0770 C   0  0  0  0  0  0  0  0  0  0  0  0
   57.5560   32.7760   46.1190 C   0  0  0  0  0  0  0  0  0  0  0  0
   57.9270   33.3040   44.7720 N   0  0  0  0  0  0  0  0  0  0  0  0
   58.0870   32.2350   43.7530 C   0  0  0  0  0  0  0  0  0  0  0  0
   57.4940   30.9160   44.1640 C   0  0  0  0  0  0  0  0  0  0  0  0
   56.2830   30.8520   44.5050 O   0  0  0  0  0  0  0  0  0  0  0  0
   58.3050   29.7330   44.1040 N   0  0  0  0  0  0  0  0  0  0  0  0
   57.9650   28.4560   44.6580 C   0  0  0  0  0  0  0  0  0  0  0  0
   57.3570   28.3300   45.9150 C   0  0  0  0  0  0  0  0  0  0  0  0
   57.0070   27.0680   46.4010 C   0  0  0  0  0  0  0  0  0  0  0  0
   57.2670   25.9210   45.6400 C   0  0  0  0  0  0  0  0  0  0  0  0
   56.7790   24.3330   46.2340 S   0  0  0  0  0  0  0  0  0  0  0  0
   55.5680   24.4870   47.1120 O   0  0  0  0  0  0  0  0  0  0  0  0
   57.8870   23.7580   47.0720 O   0  0  0  0  0  0  0  0  0  0  0  0
   56.4140   23.2360   44.9210 N   0  0  0  0  0  0  0  0  0  0  0  0
   57.6190   22.4850   44.5230 C   0  0  0  0  0  0  0  0  0  0  0  0
   57.3660   21.6990   43.2190 C   0  0  0  0  0  0  0  0  0  0  0  0
   55.9860   21.6620   42.9060 O   0  0  0  0  0  0  0  0  0  0  0  0
   55.5180   22.9740   42.6390 C   0  0  0  0  0  0  0  0  0  0  0  0
   55.8770   23.9670   43.7660 C   0  0  0  0  0  0  0  0  0  0  0  0
   57.9060   26.0450   44.4020 C   0  0  0  0  0  0  0  0  0  0  0  0
   58.2630   27.3060   43.9200 C   0  0  0  0  0  0  0  0  0  0  0  0
   59.0600   34.2750   44.7530 C   0  0  0  0  0  0  0  0  0  0  0  0
   59.3590   34.8530   46.1360 C   0  0  0  0  0  0  0  0  0  0  0  0
   62.0420   33.0900   47.1160 C   0  0  0  0  0  0  0  0  0  0  0  0
   63.2510   32.9700   47.8080 C   0  0  0  0  0  0  0  0  0  0  0  0
   64.5717   33.0720   52.0050 H   0  0  0  0  0  0  0  0  0  0  0  0
   65.8295   34.2085   51.4108 H   0  0  0  0  0  0  0  0  0  0  0  0
   64.1019   34.7007   51.4108 H   0  0  0  0  0  0  0  0  0  0  0  0
   62.3113   34.3811   50.7803 H   0  0  0  0  0  0  0  0  0  0  0  0
   60.1546   34.5712   49.5541 H   0  0  0  0  0  0  0  0  0  0  0  0
   59.3081   31.6928   46.7853 H   0  0  0  0  0  0  0  0  0  0  0  0
   58.3579   32.5070   48.1001 H   0  0  0  0  0  0  0  0  0  0  0  0
   57.0707   31.7980   45.9849 H   0  0  0  0  0  0  0  0  0  0  0  0
   56.8906   33.5212   46.5793 H   0  0  0  0  0  0  0  0  0  0  0  0
   57.0900   33.8460   44.4520 H   0  0  0  0  0  0  0  0  0  0  0  0
   57.5954   32.5630   42.8252 H   0  0  0  0  0  0  0  0  0  0  0  0
   59.1673   32.0751   43.6211 H   0  0  0  0  0  0  0  0  0  0  0  0
   57.1552   29.2265   46.5196 H   0  0  0  0  0  0  0  0  0  0  0  0
   56.5252   26.9745   47.3854 H   0  0  0  0  0  0  0  0  0  0  0  0
   58.4481   23.1903   44.3644 H   0  0  0  0  0  0  0  0  0  0  0  0
   57.8717   21.7725   45.3221 H   0  0  0  0  0  0  0  0  0  0  0  0
   57.9084   22.1858   42.3951 H   0  0  0  0  0  0  0  0  0  0  0  0
   57.7204   20.6671   43.3587 H   0  0  0  0  0  0  0  0  0  0  0  0
   55.9703   23.3263   41.7002 H   0  0  0  0  0  0  0  0  0  0  0  0
   54.4213   22.9309   42.5663 H   0  0  0  0  0  0  0  0  0  0  0  0
   56.6329   24.6772   43.3998 H   0  0  0  0  0  0  0  0  0  0  0  0
   54.9720   24.5131   44.0707 H   0  0  0  0  0  0  0  0  0  0  0  0
   58.1278   25.1470   43.8067 H   0  0  0  0  0  0  0  0  0  0  0  0
   58.7817   27.3954   42.9541 H   0  0  0  0  0  0  0  0  0  0  0  0
   59.9594   33.7604   44.3838 H   0  0  0  0  0  0  0  0  0  0  0  0
   58.7735   35.1100   44.0967 H   0  0  0  0  0  0  0  0  0  0  0  0
   60.2226   35.5318   46.0768 H   0  0  0  0  0  0  0  0  0  0  0  0
   58.4912   35.4184   46.5065 H   0  0  0  0  0  0  0  0  0  0  0  0
   61.9680   32.7274   46.0801 H   0  0  0  0  0  0  0  0  0  0  0  0
   64.1206   32.5137   47.3124 H   0  0  0  0  0  0  0  0  0  0  0  0
  1  2  1  0
  2  3  2  0
  2  4  1  0
  4  5  2  0
  5  6  1  0
  6  7  2  0
  7  8  1  0
  8  9  1  0
  9 10  1  0
 10 11  1  0
 11 12  1  0
 12 13  1  0
 13 14  2  0
 13 15  1  0
 15 16  1  0
 16 17  2  0
 17 18  1  0
 18 19  2  0
 19 20  1  0
 20 21  2  0
 20 22  2  0
 20 23  1  0
 23 24  1  0
 24 25  1  0
 25 26  1  0
 26 27  1  0
 27 28  1  0
 19 29  1  0
 29 30  2  0
 11 31  1  0
 31 32  1  0
  7 33  1  0
 33 34  2  0
 34  4  1  0
 32  8  1  0
 30 16  1  0
 28 23  1  0
  1 35  1  0
  1 36  1  0
  1 37  1  0
  5 38  1  0
  6 39  1  0
  9 40  1  0
  9 41  1  0
 10 42  1  0
 10 43  1  0
 11 44  1  0
 12 45  1  0
 12 46  1  0
 17 47  1  0
 18 48  1  0
 24 49  1  0
 24 50  1  0
 25 51  1  0
 25 52  1  0
 27 53  1  0
 27 54  1  0
 28 55  1  0
 28 56  1  0
 29 57  1  0
 30 58  1  0
 31 59  1  0
 31 60  1  0
 32 61  1  0
 32 62  1  0
 33 63  1  0
 34 64  1  0
M  CHG  2  11   1  15  -1
M  END
>  <UniqueID>  (46) 
45

>  <SMILES>  (46) 
CC(=O)c1ccc(N2CC[NH+](CC(=O)[N-]c3ccc(S(=O)(=O)N4CCOCC4)cc3)CC2)cc1

>  <Energy>  (46) 
90.8331771350234

>  <Genealogy>  (46) 
CC(=O)c1ccc(N2CC[NH+](CC(=O)[N-]c3ccc(S(=O)(=O)N4CCOCC4)cc3)CC2)cc1 (protonated)
CC(=O)c1ccc(N2CC[NH+](CC(=O)[N-]c3ccc(S(=O)(=O)N4CCOCC4)cc3)CC2)cc1 (3D coordinates assigned)
CC(=O)c1ccc(N2CC[NH+](CC(=O)[N-]c3ccc(S(=O)(=O)N4CCOCC4)cc3)CC2)cc1 (nonaromatic ring conformer: 90.8331771350234 kcal/mol)

>  <smiles>  (46) 
CC(=O)c1ccc(N2CCN(CC(=O)Nc3ccc(S(=O)(=O)N4CCOCC4)cc3)CC2)cc1

>  <score_type>  (46) 
oracle

>  <origin>  (46) 
adg

>  <m_score__min__energy>  (46) 
-10.32

>  <m_primary>  (46) 
energy

$$$$
46:0
     RDKit          3D

 41 43  0  0  0  0  0  0  0  0999 V2000
   56.0070   29.7380   43.0220 C   0  0  0  0  0  0  0  0  0  0  0  0
   56.7910   29.5450   44.0860 C   0  0  0  0  0  0  0  0  0  0  0  0
   56.8500   28.3700   44.7460 N   0  0  0  0  0  0  0  0  0  0  0  0
   57.6580   28.5610   45.8130 C   0  0  0  0  0  0  0  0  0  0  0  0
   57.9710   27.6460   46.7480 C   0  0  0  0  0  0  0  0  0  0  0  0
   57.3910   26.2910   46.8610 C   0  0  0  0  0  0  0  0  0  0  0  0
   58.0080   25.2070   47.3670 N   0  0  0  0  0  0  0  0  0  0  0  0
   57.0620   24.2460   47.3030 C   0  0  0  0  0  0  0  0  0  0  0  0
   57.2680   23.0660   47.6880 O   0  0  0  0  0  0  0  0  0  0  0  0
   55.8780   24.6500   46.7990 N   0  0  0  0  0  0  0  0  0  0  0  0
   56.1020   25.9460   46.5300 C   0  0  0  0  0  0  0  0  0  0  0  0
   55.1450   26.7980   45.9940 O   0  0  0  0  0  0  0  0  0  0  0  0
   58.1160   29.8680   45.8370 C   0  0  0  0  0  0  0  0  0  0  0  0
   57.5840   30.4930   44.7250 C   0  0  0  0  0  0  0  0  0  0  0  0
   57.8440   31.9000   44.3550 C   0  0  0  0  0  0  0  0  0  0  0  0
   58.3330   32.1490   43.2190 O   0  0  0  0  0  0  0  0  0  0  0  0
   57.5210   33.0380   45.2860 C   0  0  0  0  0  0  0  0  0  0  0  0
   58.3420   34.2890   44.9450 C   0  0  0  0  0  0  0  0  0  0  0  0
   59.2690   34.6590   46.0740 C   0  0  0  0  0  0  0  0  0  0  0  0
   59.6610   35.8500   46.1880 O   0  0  0  0  0  0  0  0  0  0  0  0
   59.6900   33.6990   47.0530 N   0  0  0  0  0  0  0  0  0  0  0  0
   61.0430   33.3480   47.3730 C   0  0  0  0  0  0  0  0  0  0  0  0
   62.0810   33.8470   46.5750 C   0  0  0  0  0  0  0  0  0  0  0  0
   63.4090   33.4990   46.8430 C   0  0  0  0  0  0  0  0  0  0  0  0
   63.7060   32.6340   47.9000 C   0  0  0  0  0  0  0  0  0  0  0  0
   62.6740   32.1080   48.6830 C   0  0  0  0  0  0  0  0  0  0  0  0
   61.3470   32.4550   48.4170 C   0  0  0  0  0  0  0  0  0  0  0  0
   55.9946   30.7157   42.5181 H   0  0  0  0  0  0  0  0  0  0  0  0
   55.3738   28.9192   42.6497 H   0  0  0  0  0  0  0  0  0  0  0  0
   56.3160   27.5130   44.4880 H   0  0  0  0  0  0  0  0  0  0  0  0
   58.7260   27.9316   47.4953 H   0  0  0  0  0  0  0  0  0  0  0  0
   58.7745   30.3202   46.5933 H   0  0  0  0  0  0  0  0  0  0  0  0
   56.4508   33.2777   45.2007 H   0  0  0  0  0  0  0  0  0  0  0  0
   57.7705   32.7284   46.3116 H   0  0  0  0  0  0  0  0  0  0  0  0
   58.9381   34.0914   44.0418 H   0  0  0  0  0  0  0  0  0  0  0  0
   57.6475   35.1254   44.7772 H   0  0  0  0  0  0  0  0  0  0  0  0
   61.8502   34.5162   45.7330 H   0  0  0  0  0  0  0  0  0  0  0  0
   64.2201   33.9063   46.2215 H   0  0  0  0  0  0  0  0  0  0  0  0
   64.7511   32.3672   48.1157 H   0  0  0  0  0  0  0  0  0  0  0  0
   62.9070   31.4203   49.5093 H   0  0  0  0  0  0  0  0  0  0  0  0
   60.5366   32.0283   49.0262 H   0  0  0  0  0  0  0  0  0  0  0  0
  1  2  2  0
  2  3  1  0
  3  4  1  0
  4  5  2  3
  5  6  1  0
  6  7  1  0
  7  8  1  0
  8  9  2  0
  8 10  1  0
 10 11  1  0
 11 12  1  0
  4 13  1  0
 13 14  2  0
 14 15  1  0
 15 16  2  0
 15 17  1  0
 17 18  1  0
 18 19  1  0
 19 20  2  0
 19 21  1  0
 21 22  1  0
 22 23  2  0
 23 24  1  0
 24 25  2  0
 25 26  1  0
 26 27  2  0
 14  2  1  0
 27 22  1  0
 11  6  2  0
  1 28  1  0
  1 29  1  0
  3 30  1  0
  5 31  1  0
 13 32  1  0
 17 33  1  0
 17 34  1  0
 18 35  1  0
 18 36  1  0
 23 37  1  0
 24 38  1  0
 25 39  1  0
 26 40  1  0
 27 41  1  0
M  CHG  4   7  -1  10  -1  12  -1  21  -1
M  END
>  <UniqueID>  (47) 
46

>  <SMILES>  (47) 
C=c1[nH]c(=Cc2[n-]c(=O)[n-]c2[O-])cc1C(=O)CCC(=O)[N-]c1ccccc1

>  <Energy>  (47) 
108.83178304814871

>  <Genealogy>  (47) 
C=c1[nH]c(=Cc2[n-]c(=O)[n-]c2[O-])cc1C(=O)CCC(=O)[N-]c1ccccc1 (protonated)
C=c1[nH]c(=Cc2[n-]c(=O)[n-]c2[O-])cc1C(=O)CCC(=O)[N-]c1ccccc1 (3D coordinates assigned)
C=c1[nH]c(=Cc2[n-]c(=O)[n-]c2[O-])cc1C(=O)CCC(=O)[N-]c1ccccc1 (optimized conformer: 108.83178304814871 kcal/mol)

>  <smiles>  (47) 
C=c1[nH]c(=Cc2[nH]c(=O)[nH]c2O)cc1C(=O)CCC(=O)Nc1ccccc1

>  <score_type>  (47) 
oracle

>  <origin>  (47) 
adg

>  <m_score__min__energy>  (47) 
-18.300000000000001

>  <m_primary>  (47) 
energy

$$$$
47:0
     RDKit          3D

 58 60  0  0  0  0  0  0  0  0999 V2000
   57.4930   26.0080   45.2520 C   0  0  0  0  0  0  0  0  0  0  0  0
   57.8240   26.1970   43.9720 C   0  0  0  0  0  0  0  0  0  0  0  0
   58.1180   27.5670   43.4260 C   0  0  0  0  0  0  0  0  0  0  0  0
   58.6110   28.5020   44.5130 C   0  0  0  0  0  0  0  0  0  0  0  0
   59.9590   28.4020   44.9020 C   0  0  0  0  0  0  0  0  0  0  0  0
   60.4680   29.1860   45.9350 C   0  0  0  0  0  0  0  0  0  0  0  0
   59.6390   30.0950   46.6080 C   0  0  0  0  0  0  0  0  0  0  0  0
   60.1020   30.8870   47.6700 O   0  0  0  0  0  0  0  0  0  0  0  0
   61.1230   30.5340   48.5640 C   0  0  0  0  0  0  0  0  0  0  0  0
   61.3480   29.3180   48.8120 O   0  0  0  0  0  0  0  0  0  0  0  0
   61.9740   31.5560   49.1270 N   0  0  0  0  0  0  0  0  0  0  0  0
   63.1720   31.9920   48.3890 C   0  0  0  0  0  0  0  0  0  0  0  0
   63.1350   33.4880   48.0410 C   0  0  0  0  0  0  0  0  0  0  0  0
   62.4460   33.8020   46.6990 C   0  0  0  0  0  0  0  0  0  0  0  0
   60.9400   33.7670   46.7800 C   0  0  0  0  0  0  0  0  0  0  0  0
   60.1630   33.7600   45.6100 C   0  0  0  0  0  0  0  0  0  0  0  0
   58.7670   33.7750   45.6860 C   0  0  0  0  0  0  0  0  0  0  0  0
   58.1360   33.8340   46.9300 C   0  0  0  0  0  0  0  0  0  0  0  0
   58.9000   33.8800   48.0990 C   0  0  0  0  0  0  0  0  0  0  0  0
   60.2950   33.8430   48.0270 C   0  0  0  0  0  0  0  0  0  0  0  0
   61.8260   31.9410   50.5430 C   0  0  0  0  0  0  0  0  0  0  0  0
   60.3780   32.1000   50.9330 C   0  0  0  0  0  0  0  0  0  0  0  0
   59.8860   33.3550   51.3330 C   0  0  0  0  0  0  0  0  0  0  0  0
   58.5610   33.4940   51.7580 C   0  0  0  0  0  0  0  0  0  0  0  0
   57.7160   32.3820   51.7920 C   0  0  0  0  0  0  0  0  0  0  0  0
   58.1920   31.1310   51.3950 C   0  0  0  0  0  0  0  0  0  0  0  0
   57.3510   30.0260   51.4250 O   0  0  0  0  0  0  0  0  0  0  0  0
   59.5170   30.9880   50.9670 C   0  0  0  0  0  0  0  0  0  0  0  0
   58.2930   30.1850   46.2490 C   0  0  0  0  0  0  0  0  0  0  0  0
   57.7590   29.4110   45.2010 C   0  0  0  0  0  0  0  0  0  0  0  0
   56.3160   29.5740   44.8830 C   0  0  0  0  0  0  0  0  0  0  0  0
   55.5310   28.5960   45.0020 O   0  0  0  0  0  0  0  0  0  0  0  0
   55.7940   30.8010   44.4980 O   0  0  0  0  0  0  0  0  0  0  0  0
   57.2836   24.9934   45.6219 H   0  0  0  0  0  0  0  0  0  0  0  0
   57.4298   26.8669   45.9363 H   0  0  0  0  0  0  0  0  0  0  0  0
   57.8831   25.3282   43.2999 H   0  0  0  0  0  0  0  0  0  0  0  0
   58.8910   27.4838   42.6479 H   0  0  0  0  0  0  0  0  0  0  0  0
   57.1876   27.9805   43.0095 H   0  0  0  0  0  0  0  0  0  0  0  0
   60.6215   27.6939   44.3826 H   0  0  0  0  0  0  0  0  0  0  0  0
   61.5251   29.0916   46.2241 H   0  0  0  0  0  0  0  0  0  0  0  0
   64.0593   31.7956   49.0087 H   0  0  0  0  0  0  0  0  0  0  0  0
   63.2066   31.4293   47.4445 H   0  0  0  0  0  0  0  0  0  0  0  0
   62.5933   34.0157   48.8398 H   0  0  0  0  0  0  0  0  0  0  0  0
   64.1798   33.8192   47.9477 H   0  0  0  0  0  0  0  0  0  0  0  0
   62.7551   34.8065   46.3742 H   0  0  0  0  0  0  0  0  0  0  0  0
   62.7525   33.0235   45.9849 H   0  0  0  0  0  0  0  0  0  0  0  0
   60.6563   33.7426   44.6269 H   0  0  0  0  0  0  0  0  0  0  0  0
   58.1658   33.7403   44.7655 H   0  0  0  0  0  0  0  0  0  0  0  0
   57.0377   33.8443   46.9898 H   0  0  0  0  0  0  0  0  0  0  0  0
   58.4024   33.9455   49.0778 H   0  0  0  0  0  0  0  0  0  0  0  0
   60.8916   33.8735   48.9507 H   0  0  0  0  0  0  0  0  0  0  0  0
   62.2807   31.1622   51.1729 H   0  0  0  0  0  0  0  0  0  0  0  0
   62.3268   32.9097   50.6875 H   0  0  0  0  0  0  0  0  0  0  0  0
   60.5478   34.2334   51.3115 H   0  0  0  0  0  0  0  0  0  0  0  0
   58.1836   34.4803   52.0660 H   0  0  0  0  0  0  0  0  0  0  0  0
   56.6755   32.4921   52.1316 H   0  0  0  0  0  0  0  0  0  0  0  0
   59.8873   30.0002   50.6554 H   0  0  0  0  0  0  0  0  0  0  0  0
   57.6351   30.8757   46.7968 H   0  0  0  0  0  0  0  0  0  0  0  0
  1  2  2  0
  2  3  1  0
  3  4  1  0
  4  5  2  0
  5  6  1  0
  6  7  2  0
  7  8  1  0
  8  9  1  0
  9 10  2  0
  9 11  1  0
 11 12  1  0
 12 13  1  0
 13 14  1  0
 14 15  1  0
 15 16  2  0
 16 17  1  0
 17 18  2  0
 18 19  1  0
 19 20  2  0
 11 21  1  0
 21 22  1  0
 22 23  2  0
 23 24  1  0
 24 25  2  0
 25 26  1  0
 26 27  1  0
 26 28  2  0
  7 29  1  0
 29 30  2  0
 30 31  1  0
 31 32  2  0
 31 33  1  0
 30  4  1  0
 20 15  1  0
 28 22  1  0
  1 34  1  0
  1 35  1  0
  2 36  1  0
  3 37  1  0
  3 38  1  0
  5 39  1  0
  6 40  1  0
 12 41  1  0
 12 42  1  0
 13 43  1  0
 13 44  1  0
 14 45  1  0
 14 46  1  0
 16 47  1  0
 17 48  1  0
 18 49  1  0
 19 50  1  0
 20 51  1  0
 21 52  1  0
 21 53  1  0
 23 54  1  0
 24 55  1  0
 25 56  1  0
 28 57  1  0
 29 58  1  0
M  CHG  2  27  -1  33  -1
M  END
>  <UniqueID>  (48) 
47

>  <SMILES>  (48) 
C=CCc1ccc(OC(=O)N(CCCc2ccccc2)Cc2cccc([O-])c2)cc1C(=O)[O-]

>  <Energy>  (48) 
60.22332864176336

>  <Genealogy>  (48) 
C=CCc1ccc(OC(=O)N(CCCc2ccccc2)Cc2cccc([O-])c2)cc1C(=O)[O-] (protonated)
C=CCc1ccc(OC(=O)N(CCCc2ccccc2)Cc2cccc([O-])c2)cc1C(=O)[O-] (3D coordinates assigned)
C=CCc1ccc(OC(=O)N(CCCc2ccccc2)Cc2cccc([O-])c2)cc1C(=O)[O-] (optimized conformer: 60.22332864176336 kcal/mol)

>  <smiles>  (48) 
C=CCc1ccc(OC(=O)N(CCCc2ccccc2)Cc2cccc(O)c2)cc1C(=O)O

>  <score_type>  (48) 
oracle

>  <origin>  (48) 
adg

>  <m_score__min__energy>  (48) 
-15.85

>  <m_primary>  (48) 
energy

$$$$
48:0
     RDKit          3D

 39 40  0  0  0  0  0  0  0  0999 V2000
   59.2810   34.7640   45.9640 C   0  0  0  0  0  0  0  0  0  0  0  0
   59.1940   33.4650   46.2750 C   0  0  0  0  0  0  0  0  0  0  0  0
   60.4200   32.7260   46.7370 C   0  0  0  0  0  0  0  0  0  0  0  0
   57.8850   32.7770   46.2600 C   0  0  0  0  0  0  0  0  0  0  0  0
   56.8190   33.4510   46.3290 O   0  0  0  0  0  0  0  0  0  0  0  0
   57.8290   31.3800   46.1830 O   0  0  0  0  0  0  0  0  0  0  0  0
   57.4570   30.6780   45.0290 C   0  0  0  0  0  0  0  0  0  0  0  0
   57.0010   31.4150   43.9310 C   0  0  0  0  0  0  0  0  0  0  0  0
   56.6490   30.7730   42.7410 C   0  0  0  0  0  0  0  0  0  0  0  0
   56.7430   29.3850   42.6440 C   0  0  0  0  0  0  0  0  0  0  0  0
   57.1680   28.6330   43.7410 C   0  0  0  0  0  0  0  0  0  0  0  0
   57.5050   29.2610   44.9540 C   0  0  0  0  0  0  0  0  0  0  0  0
   57.8730   28.4140   46.1150 C   0  0  0  0  0  0  0  0  0  0  0  0
   58.9610   28.6340   46.7110 O   0  0  0  0  0  0  0  0  0  0  0  0
   57.0130   27.3820   46.6250 N   0  0  0  0  0  0  0  0  0  0  0  0
   56.6470   26.2960   46.0110 C   0  0  0  0  0  0  0  0  0  0  0  0
   55.3690   25.8680   46.0180 N   0  0  0  0  0  0  0  0  0  0  0  0
   55.2130   24.7040   45.3290 C   0  0  0  0  0  0  0  0  0  0  0  0
   53.8650   24.0660   45.2030 C   0  0  0  0  0  0  0  0  0  0  0  0
   56.3920   24.1870   44.7710 C   0  0  0  0  0  0  0  0  0  0  0  0
   56.5520   22.9530   43.9710 C   0  0  0  0  0  0  0  0  0  0  0  0
   57.7630   22.0880   44.1380 C   0  0  0  0  0  0  0  0  0  0  0  0
   55.6690   22.6130   43.1390 O   0  0  0  0  0  0  0  0  0  0  0  0
   57.6510   25.2360   45.1700 S   0  0  0  0  0  0  0  0  0  0  0  0
   58.3878   35.3095   45.6256 H   0  0  0  0  0  0  0  0  0  0  0  0
   60.2457   35.2860   46.0468 H   0  0  0  0  0  0  0  0  0  0  0  0
   60.4460   32.7103   47.8366 H   0  0  0  0  0  0  0  0  0  0  0  0
   60.3916   31.6944   46.3561 H   0  0  0  0  0  0  0  0  0  0  0  0
   61.3189   33.2329   46.3561 H   0  0  0  0  0  0  0  0  0  0  0  0
   56.9188   32.5094   44.0051 H   0  0  0  0  0  0  0  0  0  0  0  0
   56.2979   31.3621   41.8810 H   0  0  0  0  0  0  0  0  0  0  0  0
   56.4818   28.8816   41.7014 H   0  0  0  0  0  0  0  0  0  0  0  0
   57.2400   27.5387   43.6560 H   0  0  0  0  0  0  0  0  0  0  0  0
   53.4558   23.8723   46.2055 H   0  0  0  0  0  0  0  0  0  0  0  0
   53.1900   24.7402   44.6554 H   0  0  0  0  0  0  0  0  0  0  0  0
   53.9584   23.1166   44.6554 H   0  0  0  0  0  0  0  0  0  0  0  0
   57.9654   21.9434   45.2095 H   0  0  0  0  0  0  0  0  0  0  0  0
   57.5845   21.1117   43.6636 H   0  0  0  0  0  0  0  0  0  0  0  0
   58.6286   22.5734   43.6636 H   0  0  0  0  0  0  0  0  0  0  0  0
  1  2  2  0
  2  3  1  0
  2  4  1  0
  4  5  2  0
  4  6  1  0
  6  7  1  0
  7  8  2  0
  8  9  1  0
  9 10  2  0
 10 11  1  0
 11 12  2  0
 12 13  1  0
 13 14  2  0
 13 15  1  0
 15 16  2  3
 16 17  1  0
 17 18  1  0
 18 19  1  0
 18 20  2  0
 20 21  1  0
 21 22  1  0
 21 23  2  0
 20 24  1  0
 12  7  1  0
 24 16  1  0
  1 25  1  0
  1 26  1  0
  3 27  1  0
  3 28  1  0
  3 29  1  0
  8 30  1  0
  9 31  1  0
 10 32  1  0
 11 33  1  0
 19 34  1  0
 19 35  1  0
 19 36  1  0
 22 37  1  0
 22 38  1  0
 22 39  1  0
M  CHG  1  17  -1
M  END
>  <UniqueID>  (49) 
48

>  <SMILES>  (49) 
C=C(C)C(=O)Oc1ccccc1C(=O)N=c1[n-]c(C)c(C(C)=O)s1

>  <Energy>  (49) 
80.31362153850577

>  <Genealogy>  (49) 
C=C(C)C(=O)Oc1ccccc1C(=O)N=c1[n-]c(C)c(C(C)=O)s1 (protonated)
C=C(C)C(=O)Oc1ccccc1C(=O)N=c1[n-]c(C)c(C(C)=O)s1 (3D coordinates assigned)
C=C(C)C(=O)Oc1ccccc1C(=O)N=c1[n-]c(C)c(C(C)=O)s1 (optimized conformer: 80.31362153850577 kcal/mol)

>  <smiles>  (49) 
C=C(C)C(=O)Oc1ccccc1C(=O)N=c1[nH]c(C)c(C(C)=O)s1

>  <score_type>  (49) 
oracle

>  <origin>  (49) 
adg

>  <m_score__min__energy>  (49) 
-10.359999999999999

>  <m_primary>  (49) 
energy

$$$$
49:0
     RDKit          3D

 45 47  0  0  0  0  0  0  0  0999 V2000
   54.5071   29.3063   44.1425 H   0  0  0  0  0  0  0  0  0  0  0  0
   55.5090   29.6300   44.4610 C   0  0  0  0  0  0  0  0  0  0  0  0
   55.9570   30.8710   44.1330 N   0  0  0  0  0  0  0  0  0  0  0  0
   57.1930   31.3160   44.5030 C   0  0  0  0  0  0  0  0  0  0  0  0
   57.6040   32.5110   44.1930 N   0  0  0  0  0  0  0  0  0  0  0  0
   57.7810   33.6280   45.0830 C   0  0  0  0  0  0  0  0  0  0  0  0
   57.1360   34.6990   44.9130 O   0  0  0  0  0  0  0  0  0  0  0  0
   58.7130   33.5220   46.2210 C   0  0  0  0  0  0  0  0  0  0  0  0
   60.0510   33.6810   46.0070 N   0  0  0  0  0  0  0  0  0  0  0  0
   60.9600   33.6250   47.0190 C   0  0  0  0  0  0  0  0  0  0  0  0
   62.4170   33.8020   46.7220 C   0  0  0  0  0  0  0  0  0  0  0  0
   62.9779   33.8701   47.6658 H   0  0  0  0  0  0  0  0  0  0  0  0
   62.7800   32.9413   46.1410 H   0  0  0  0  0  0  0  0  0  0  0  0
   62.5634   34.7245   46.1410 H   0  0  0  0  0  0  0  0  0  0  0  0
   60.5270   33.3810   48.3280 C   0  0  0  0  0  0  0  0  0  0  0  0
   61.2539   33.3198   49.1513 H   0  0  0  0  0  0  0  0  0  0  0  0
   59.1620   33.2160   48.5780 C   0  0  0  0  0  0  0  0  0  0  0  0
   58.8084   33.0311   49.6031 H   0  0  0  0  0  0  0  0  0  0  0  0
   58.2480   33.2860   47.5260 C   0  0  0  0  0  0  0  0  0  0  0  0
   57.1723   33.1575   47.7166 H   0  0  0  0  0  0  0  0  0  0  0  0
   58.0280   30.4800   45.2520 C   0  0  0  0  0  0  0  0  0  0  0  0
   59.0283   30.8234   45.5544 H   0  0  0  0  0  0  0  0  0  0  0  0
   57.5830   29.2070   45.6130 C   0  0  0  0  0  0  0  0  0  0  0  0
   58.2265   28.5533   46.2201 H   0  0  0  0  0  0  0  0  0  0  0  0
   56.3230   28.7600   45.2060 C   0  0  0  0  0  0  0  0  0  0  0  0
   55.8760   27.4620   45.6220 N   0  0  0  0  0  0  0  0  0  0  0  0
   56.7070   26.3920   46.0860 C   0  0  0  0  0  0  0  0  0  0  0  0
   56.3410   25.6590   47.0440 O   0  0  0  0  0  0  0  0  0  0  0  0
   58.0310   26.1490   45.4270 C   0  0  0  0  0  0  0  0  0  0  0  0
   57.9830   25.2040   44.8660 H   0  0  0  0  0  0  0  0  0  0  0  0
   58.2419   26.9933   44.7542 H   0  0  0  0  0  0  0  0  0  0  0  0
   59.1640   26.0600   46.4580 C   0  0  0  0  0  0  0  0  0  0  0  0
   58.7645   25.6349   47.3906 H   0  0  0  0  0  0  0  0  0  0  0  0
   59.9570   25.4217   46.0412 H   0  0  0  0  0  0  0  0  0  0  0  0
   59.7590   27.4160   46.7540 C   0  0  0  0  0  0  0  0  0  0  0  0
   59.5760   28.0120   48.0150 C   0  0  0  0  0  0  0  0  0  0  0  0
   59.0277   27.4722   48.8012 H   0  0  0  0  0  0  0  0  0  0  0  0
   60.0880   29.2880   48.2740 C   0  0  0  0  0  0  0  0  0  0  0  0
   59.9417   29.7489   49.2620 H   0  0  0  0  0  0  0  0  0  0  0  0
   60.7860   29.9780   47.2770 C   0  0  0  0  0  0  0  0  0  0  0  0
   61.1931   30.9790   47.4828 H   0  0  0  0  0  0  0  0  0  0  0  0
   60.9660   29.3950   46.0190 C   0  0  0  0  0  0  0  0  0  0  0  0
   61.5136   29.9389   45.2352 H   0  0  0  0  0  0  0  0  0  0  0  0
   60.4510   28.1210   45.7550 C   0  0  0  0  0  0  0  0  0  0  0  0
   60.5885   27.6697   44.7613 H   0  0  0  0  0  0  0  0  0  0  0  0
  1  2  1  0
  2  3  1  0
  3  4  1  0
  4  5  2  0
  5  6  1  0
  6  7  2  0
  6  8  1  0
  8  9  2  0
  9 10  1  0
 10 11  1  0
 11 12  1  0
 11 13  1  0
 11 14  1  0
 10 15  2  0
 15 16  1  0
 15 17  1  0
 17 18  1  0
 17 19  2  0
 19 20  1  0
  4 21  1  0
 21 22  1  0
 21 23  2  0
 23 24  1  0
 23 25  1  0
 25 26  1  0
 26 27  1  0
 27 28  2  0
 27 29  1  0
 29 30  1  0
 29 31  1  0
 29 32  1  0
 32 33  1  0
 32 34  1  0
 32 35  1  0
 35 36  2  0
 36 37  1  0
 36 38  1  0
 38 39  1  0
 38 40  2  0
 40 41  1  0
 40 42  1  0
 42 43  1  0
 42 44  2  0
 44 45  1  0
 25  2  2  0
 44 35  1  0
 19  8  1  0
M  CHG  2   3  -1  26  -1
M  END
>  <UniqueID>  (50) 
49

>  <SMILES>  (50) 
Cc1cccc(C(=O)/N=c2/ccc([N-]C(=O)CCc3ccccc3)c[n-]2)n1

>  <Energy>  (50) 
48.590000337766014

>  <Genealogy>  (50) 
Cc1cccc(C(=O)N=c2ccc([N-]C(=O)CCc3ccccc3)c[n-]2)n1 (protonated)
Cc1cccc(C(=O)/N=c2/ccc([N-]C(=O)CCc3ccccc3)c[n-]2)n1 (cis-trans isomerization)
Cc1cccc(C(=O)/N=c2/ccc([N-]C(=O)CCc3ccccc3)c[n-]2)n1 (3D coordinates assigned)
Cc1cccc(C(=O)/N=c2/ccc([N-]C(=O)CCc3ccccc3)c[n-]2)n1 (optimized conformer: 48.590000337766014 kcal/mol)

>  <smiles>  (50) 
Cc1cccc(C(=O)N=c2ccc(NC(=O)CCc3ccccc3)c[nH]2)n1

>  <score_type>  (50) 
oracle

>  <origin>  (50) 
adg

>  <m_score__min__energy>  (50) 
-11.869999999999999

>  <m_primary>  (50) 
energy

$$$$
50:0
     RDKit          3D

 30 31  0  0  0  0  0  0  0  0999 V2000
   57.2780   24.4760   43.9240 C   0  0  0  0  0  0  0  0  0  0  0  0
   57.4660   24.1010   45.1860 C   0  0  0  0  0  0  0  0  0  0  0  0
   57.6050   25.0700   46.2940 C   0  0  0  0  0  0  0  0  0  0  0  0
   57.8050   26.4310   45.8460 N   0  0  0  0  0  0  0  0  0  0  0  0
   56.6740   27.2650   45.7160 C   0  0  0  0  0  0  0  0  0  0  0  0
   55.5190   26.8050   45.9940 O   0  0  0  0  0  0  0  0  0  0  0  0
   56.8230   28.6460   45.2680 C   0  0  0  0  0  0  0  0  0  0  0  0
   57.5210   29.6200   45.9180 N   0  0  0  0  0  0  0  0  0  0  0  0
   57.4180   30.7530   45.1810 C   0  0  0  0  0  0  0  0  0  0  0  0
   57.9830   32.0650   45.4450 C   0  0  0  0  0  0  0  0  0  0  0  0
   57.7770   33.1430   44.6180 C   0  0  0  0  0  0  0  0  0  0  0  0
   58.3150   34.3930   44.8680 C   0  0  0  0  0  0  0  0  0  0  0  0
   59.0940   34.5810   45.9920 C   0  0  0  0  0  0  0  0  0  0  0  0
   59.6300   35.7980   46.2550 F   0  0  0  0  0  0  0  0  0  0  0  0
   59.3160   33.5160   46.8380 C   0  0  0  0  0  0  0  0  0  0  0  0
   58.7700   32.2590   46.5790 C   0  0  0  0  0  0  0  0  0  0  0  0
   56.6520   30.4540   44.0840 C   0  0  0  0  0  0  0  0  0  0  0  0
   56.2870   29.1630   44.1360 N   0  0  0  0  0  0  0  0  0  0  0  0
   57.1802   23.7173   43.1335 H   0  0  0  0  0  0  0  0  0  0  0  0
   57.2203   25.5449   43.6706 H   0  0  0  0  0  0  0  0  0  0  0  0
   57.5203   23.0264   45.4147 H   0  0  0  0  0  0  0  0  0  0  0  0
   56.6907   25.0348   46.9046 H   0  0  0  0  0  0  0  0  0  0  0  0
   58.4990   24.7822   46.8666 H   0  0  0  0  0  0  0  0  0  0  0  0
   58.7680   26.7800   45.6260 H   0  0  0  0  0  0  0  0  0  0  0  0
   57.1580   33.0063   43.7190 H   0  0  0  0  0  0  0  0  0  0  0  0
   58.1239   35.2283   44.1782 H   0  0  0  0  0  0  0  0  0  0  0  0
   59.9360   33.6601   47.7351 H   0  0  0  0  0  0  0  0  0  0  0  0
   58.9600   31.4228   47.2679 H   0  0  0  0  0  0  0  0  0  0  0  0
   56.3793   31.1608   43.2865 H   0  0  0  0  0  0  0  0  0  0  0  0
   55.6970   28.6800   43.4150 H   0  0  0  0  0  0  0  0  0  0  0  0
  1  2  2  0
  2  3  1  0
  3  4  1  0
  4  5  1  0
  5  6  2  0
  5  7  1  0
  7  8  2  0
  8  9  1  0
  9 10  1  0
 10 11  2  0
 11 12  1  0
 12 13  2  0
 13 14  1  0
 13 15  1  0
 15 16  2  0
  9 17  2  0
 17 18  1  0
 18  7  1  0
 16 10  1  0
  1 19  1  0
  1 20  1  0
  2 21  1  0
  3 22  1  0
  3 23  1  0
  4 24  1  0
 11 25  1  0
 12 26  1  0
 15 27  1  0
 16 28  1  0
 17 29  1  0
 18 30  1  0
M  END
>  <smiles>  (51) 
C=CCNC(=O)c1nc(-c2ccc(F)cc2)c[nH]1

>  <score_type>  (51) 
oracle

>  <origin>  (51) 
adg

>  <m_score__min__energy>  (51) 
-6.0899999999999999

>  <m_primary>  (51) 
energy

$$$$
51:0
     RDKit          3D

 42 44  0  0  0  0  0  0  0  0999 V2000
   58.1080   24.5610   48.8040 H   0  0  0  0  0  0  0  0  0  0  0  0
   58.0390   24.5150   47.7940 O   0  0  0  0  0  0  0  0  0  0  0  0
   57.3320   25.4800   47.0800 C   0  0  0  0  0  0  0  0  0  0  0  0
   56.0290   25.2570   46.7630 N   0  0  0  0  0  0  0  0  0  0  0  0
   55.3190   26.1580   46.0360 C   0  0  0  0  0  0  0  0  0  0  0  0
   54.1140   25.9310   45.7590 O   0  0  0  0  0  0  0  0  0  0  0  0
   55.9120   27.2990   45.6030 N   0  0  0  0  0  0  0  0  0  0  0  0
   57.2100   27.5700   45.8930 C   0  0  0  0  0  0  0  0  0  0  0  0
   57.7290   28.6380   45.4720 O   0  0  0  0  0  0  0  0  0  0  0  0
   57.9590   26.6690   46.6680 C   0  0  0  0  0  0  0  0  0  0  0  0
   59.3820   26.9410   46.9710 C   0  0  0  0  0  0  0  0  0  0  0  0
   60.1198   26.1523   46.7622 H   0  0  0  0  0  0  0  0  0  0  0  0
   59.8200   28.1040   47.4890 C   0  0  0  0  0  0  0  0  0  0  0  0
   59.7670   28.4800   48.8270 C   0  0  0  0  0  0  0  0  0  0  0  0
   59.3819   27.8789   49.6639 H   0  0  0  0  0  0  0  0  0  0  0  0
   60.2920   29.7550   48.9000 C   0  0  0  0  0  0  0  0  0  0  0  0
   60.4620   30.5450   50.1610 C   0  0  0  0  0  0  0  0  0  0  0  0
   60.3199   29.8848   51.0293 H   0  0  0  0  0  0  0  0  0  0  0  0
   61.4735   30.9763   50.1899 H   0  0  0  0  0  0  0  0  0  0  0  0
   59.7174   31.3542   50.1899 H   0  0  0  0  0  0  0  0  0  0  0  0
   60.6580   30.1830   47.6720 N   0  0  0  0  0  0  0  0  0  0  0  0
   61.2820   31.4440   47.3780 C   0  0  0  0  0  0  0  0  0  0  0  0
   62.6780   31.5420   47.4490 C   0  0  0  0  0  0  0  0  0  0  0  0
   63.2733   30.6639   47.7400 H   0  0  0  0  0  0  0  0  0  0  0  0
   63.3180   32.7460   47.1530 C   0  0  0  0  0  0  0  0  0  0  0  0
   64.4143   32.8153   47.2111 H   0  0  0  0  0  0  0  0  0  0  0  0
   62.5660   33.8630   46.7830 C   0  0  0  0  0  0  0  0  0  0  0  0
   63.0712   34.8106   46.5447 H   0  0  0  0  0  0  0  0  0  0  0  0
   61.1730   33.7790   46.7150 C   0  0  0  0  0  0  0  0  0  0  0  0
   60.5876   34.6621   46.4192 H   0  0  0  0  0  0  0  0  0  0  0  0
   60.5130   32.5770   47.0210 C   0  0  0  0  0  0  0  0  0  0  0  0
   58.7450   32.4990   46.9410 S   0  0  0  0  0  0  0  0  0  0  0  0
   58.1790   33.8870   46.8240 O   0  0  0  0  0  0  0  0  0  0  0  0
   58.2160   31.8490   48.1880 O   0  0  0  0  0  0  0  0  0  0  0  0
   58.1850   31.5700   45.5270 C   0  0  0  0  0  0  0  0  0  0  0  0
   57.6450   30.6741   45.8673 H   0  0  0  0  0  0  0  0  0  0  0  0
   57.5130   32.1949   44.9205 H   0  0  0  0  0  0  0  0  0  0  0  0
   59.0514   31.2676   44.9205 H   0  0  0  0  0  0  0  0  0  0  0  0
   60.3830   29.1830   46.8000 C   0  0  0  0  0  0  0  0  0  0  0  0
   60.6530   29.2400   45.4880 C   0  0  0  0  0  0  0  0  0  0  0  0
   61.0989   30.1486   45.0572 H   0  0  0  0  0  0  0  0  0  0  0  0
   60.4286   28.3782   44.8423 H   0  0  0  0  0  0  0  0  0  0  0  0
  1  2  1  0
  2  3  1  0
  3  4  1  0
  4  5  1  0
  5  6  2  0
  5  7  1  0
  7  8  1  0
  8  9  2  0
  8 10  1  0
 10 11  1  0
 11 12  1  0
 11 13  2  0
 13 14  1  0
 14 15  1  0
 14 16  2  0
 16 17  1  0
 17 18  1  0
 17 19  1  0
 17 20  1  0
 16 21  1  0
 21 22  1  0
 22 23  2  0
 23 24  1  0
 23 25  1  0
 25 26  1  0
 25 27  2  0
 27 28  1  0
 27 29  1  0
 29 30  1  0
 29 31  2  0
 31 32  1  0
 32 33  2  0
 32 34  2  0
 32 35  1  0
 35 36  1  0
 35 37  1  0
 35 38  1  0
 21 39  1  0
 39 40  2  0
 40 41  1  0
 40 42  1  0
 10  3  2  0
 39 13  1  0
 31 22  1  0
M  CHG  2   4  -1   7  -1
M  END
>  <UniqueID>  (52) 
50

>  <SMILES>  (52) 
C=c1/c(=C/c2c(O)[n-]c(=O)[n-]c2=O)cc(C)n1-c1ccccc1S(C)(=O)=O

>  <Energy>  (52) 
86.88359495429475

>  <Genealogy>  (52) 
C=c1c(=Cc2c(O)[n-]c(=O)[n-]c2=O)cc(C)n1-c1ccccc1S(C)(=O)=O (protonated)
C=c1/c(=C/c2c(O)[n-]c(=O)[n-]c2=O)cc(C)n1-c1ccccc1S(C)(=O)=O (cis-trans isomerization)
C=c1/c(=C/c2c(O)[n-]c(=O)[n-]c2=O)cc(C)n1-c1ccccc1S(C)(=O)=O (3D coordinates assigned)
C=c1/c(=C/c2c(O)[n-]c(=O)[n-]c2=O)cc(C)n1-c1ccccc1S(C)(=O)=O (optimized conformer: 86.88359495429475 kcal/mol)

>  <smiles>  (52) 
C=c1c(=Cc2c(O)[nH]c(=O)[nH]c2=O)cc(C)n1-c1ccccc1S(C)(=O)=O

>  <score_type>  (52) 
oracle

>  <origin>  (52) 
adg

>  <m_score__min__energy>  (52) 
-13.02

>  <m_primary>  (52) 
energy

$$$$
52:0
     RDKit          3D

 50 53  0  0  0  0  0  0  0  0999 V2000
   54.2803   27.3747   53.5195 H   0  0  0  0  0  0  0  0  0  0  0  0
   53.8490   28.3210   53.1610 C   0  0  0  0  0  0  0  0  0  0  0  0
   52.7701   28.3920   52.9588 H   0  0  0  0  0  0  0  0  0  0  0  0
   54.6400   29.3900   52.9700 C   0  0  0  0  0  0  0  0  0  0  0  0
   54.2420   30.6570   52.5200 C   0  0  0  0  0  0  0  0  0  0  0  0
   53.0180   31.2070   52.3940 C   0  0  0  0  0  0  0  0  0  0  0  0
   52.5492   31.6036   53.3066 H   0  0  0  0  0  0  0  0  0  0  0  0
   52.2540   31.3230   51.1410 C   0  0  0  0  0  0  0  0  0  0  0  0
   52.2320   30.3930   50.1670 N   0  0  0  0  0  0  0  0  0  0  0  0
   51.3050   30.8670   49.3060 C   0  0  0  0  0  0  0  0  0  0  0  0
   51.0060   30.2720   48.2390 O   0  0  0  0  0  0  0  0  0  0  0  0
   50.7180   32.0230   49.6840 N   0  0  0  0  0  0  0  0  0  0  0  0
   51.3200   32.2880   50.8550 C   0  0  0  0  0  0  0  0  0  0  0  0
   51.0190   33.3880   51.6470 O   0  0  0  0  0  0  0  0  0  0  0  0
   55.4030   31.3350   52.2010 C   0  0  0  0  0  0  0  0  0  0  0  0
   55.4708   32.3445   51.7694 H   0  0  0  0  0  0  0  0  0  0  0  0
   56.4640   30.5090   52.5250 C   0  0  0  0  0  0  0  0  0  0  0  0
   57.9020   30.8170   52.2890 C   0  0  0  0  0  0  0  0  0  0  0  0
   58.7270   30.5550   53.2070 O   0  0  0  0  0  0  0  0  0  0  0  0
   58.4000   31.3560   51.0380 N   0  0  0  0  0  0  0  0  0  0  0  0
   57.5570   31.6480   50.4850 H   0  0  0  0  0  0  0  0  0  0  0  0
   59.0910   30.3380   50.2230 C   0  0  0  0  0  0  0  0  0  0  0  0
   60.0178   30.0352   50.7322 H   0  0  0  0  0  0  0  0  0  0  0  0
   58.4251   29.4714   50.0982 H   0  0  0  0  0  0  0  0  0  0  0  0
   59.4390   30.9030   48.8300 C   0  0  0  0  0  0  0  0  0  0  0  0
   60.2481   30.2941   48.4004 H   0  0  0  0  0  0  0  0  0  0  0  0
   58.5194   30.8634   48.2278 H   0  0  0  0  0  0  0  0  0  0  0  0
   59.8820   32.3230   48.8550 N   0  0  0  0  0  0  0  0  0  0  0  0
   58.8920   33.2360   48.2420 C   0  0  0  0  0  0  0  0  0  0  0  0
   57.8965   32.7701   48.2856 H   0  0  0  0  0  0  0  0  0  0  0  0
   58.8958   34.1848   48.7986 H   0  0  0  0  0  0  0  0  0  0  0  0
   59.2490   33.5240   46.7770 C   0  0  0  0  0  0  0  0  0  0  0  0
   59.9473   32.6808   46.6697 H   0  0  0  0  0  0  0  0  0  0  0  0
   58.1060   34.1140   45.9630 C   0  0  0  0  0  0  0  0  0  0  0  0
   57.9718   33.8210   44.9113 H   0  0  0  0  0  0  0  0  0  0  0  0
   57.0146   34.1742   46.0860 H   0  0  0  0  0  0  0  0  0  0  0  0
   59.2810   34.9900   46.3630 C   0  0  0  0  0  0  0  0  0  0  0  0
   59.9974   35.3307   45.6010 H   0  0  0  0  0  0  0  0  0  0  0  0
   59.3924   35.9461   46.8954 H   0  0  0  0  0  0  0  0  0  0  0  0
   60.3200   32.7600   50.1980 C   0  0  0  0  0  0  0  0  0  0  0  0
   61.2030   32.1725   50.4897 H   0  0  0  0  0  0  0  0  0  0  0  0
   60.5499   33.8342   50.1418 H   0  0  0  0  0  0  0  0  0  0  0  0
   59.2230   32.5700   51.2680 C   0  0  0  0  0  0  0  0  0  0  0  0
   59.7040   32.4871   52.2538 H   0  0  0  0  0  0  0  0  0  0  0  0
   58.5524   33.4403   51.2134 H   0  0  0  0  0  0  0  0  0  0  0  0
   55.9970   29.3350   53.0220 N   0  0  0  0  0  0  0  0  0  0  0  0
   56.8130   28.1970   53.4620 C   0  0  0  0  0  0  0  0  0  0  0  0
   56.8357   28.1654   54.5613 H   0  0  0  0  0  0  0  0  0  0  0  0
   56.3775   27.2630   53.0772 H   0  0  0  0  0  0  0  0  0  0  0  0
   57.8373   28.3098   53.0772 H   0  0  0  0  0  0  0  0  0  0  0  0
  1  2  1  0
  2  3  1  0
  2  4  2  0
  4  5  1  0
  5  6  2  0
  6  7  1  0
  6  8  1  0
  8  9  1  0
  9 10  1  0
 10 11  2  0
 10 12  1  0
 12 13  1  0
 13 14  1  0
  5 15  1  0
 15 16  1  0
 15 17  2  0
 17 18  1  0
 18 19  2  0
 18 20  1  0
 20 21  1  0
 20 22  1  0
 22 23  1  0
 22 24  1  0
 22 25  1  0
 25 26  1  0
 25 27  1  0
 25 28  1  0
 28 29  1  0
 29 30  1  0
 29 31  1  0
 29 32  1  0
 32 33  1  0
 32 34  1  0
 34 35  1  0
 34 36  1  0
 34 37  1  0
 37 38  1  0
 37 39  1  0
 28 40  1  0
 40 41  1  0
 40 42  1  0
 40 43  1  0
 43 44  1  0
 43 45  1  0
 17 46  1  0
 46 47  1  0
 47 48  1  0
 47 49  1  0
 47 50  1  0
 46  4  1  0
 13  8  2  0
 43 20  1  0
 37 32  1  0
M  CHG  4   9  -1  12  -1  14  -1  20   1
M  END
>  <UniqueID>  (53) 
51

>  <SMILES>  (53) 
C=c1/c(=C\c2[n-]c(=O)[n-]c2[O-])cc(C(=O)[NH+]2CCN(CC3CC3)CC2)n1C

>  <Energy>  (53) 
404.29112381232335

>  <Genealogy>  (53) 
C=c1c(=Cc2[n-]c(=O)[n-]c2[O-])cc(C(=O)[NH+]2CCN(CC3CC3)CC2)n1C (protonated)
C=c1/c(=C\c2[n-]c(=O)[n-]c2[O-])cc(C(=O)[NH+]2CCN(CC3CC3)CC2)n1C (cis-trans isomerization)
C=c1/c(=C\c2[n-]c(=O)[n-]c2[O-])cc(C(=O)[NH+]2CCN(CC3CC3)CC2)n1C (3D coordinates assigned)
C=c1/c(=C\c2[n-]c(=O)[n-]c2[O-])cc(C(=O)[NH+]2CCN(CC3CC3)CC2)n1C (nonaromatic ring conformer: 404.29112381232335 kcal/mol)

>  <smiles>  (53) 
C=c1c(=Cc2[nH]c(=O)[nH]c2O)cc(C(=O)N2CCN(CC3CC3)CC2)n1C

>  <score_type>  (53) 
oracle

>  <origin>  (53) 
adg

>  <m_score__min__energy>  (53) 
-16.449999999999999

>  <m_primary>  (53) 
energy

$$$$
53:0
     RDKit          3D

 20 21  0  0  0  0  0  0  0  0999 V2000
   58.8740   33.3790   47.4530 C   0  0  0  0  0  0  0  0  0  0  0  0
   58.5790   32.4680   46.3480 N   0  0  0  0  0  0  0  0  0  0  0  0
   58.8870   31.1400   46.3710 C   0  0  0  0  0  0  0  0  0  0  0  0
   58.4960   30.4350   45.2320 C   0  0  0  0  0  0  0  0  0  0  0  0
   58.6070   28.9850   44.9880 C   0  0  0  0  0  0  0  0  0  0  0  0
   57.7210   28.0710   45.4110 C   0  0  0  0  0  0  0  0  0  0  0  0
   58.1440   26.4570   46.0930 S   0  0  0  0  0  0  0  0  0  0  0  0
   56.3910   26.0740   46.0940 C   0  0  0  0  0  0  0  0  0  0  0  0
   55.9520   24.9630   46.4870 O   0  0  0  0  0  0  0  0  0  0  0  0
   55.5170   27.0920   45.6280 N   0  0  0  0  0  0  0  0  0  0  0  0
   56.2760   28.2230   45.2390 C   0  0  0  0  0  0  0  0  0  0  0  0
   55.7300   29.2610   44.7800 O   0  0  0  0  0  0  0  0  0  0  0  0
   57.6940   31.4990   44.2020 S   0  0  0  0  0  0  0  0  0  0  0  0
   57.9170   32.8200   45.2160 C   0  0  0  0  0  0  0  0  0  0  0  0
   57.3590   34.3240   44.8830 S   0  0  0  0  0  0  0  0  0  0  0  0
   58.7065   32.8618   48.4093 H   0  0  0  0  0  0  0  0  0  0  0  0
   59.9232   33.7036   47.3905 H   0  0  0  0  0  0  0  0  0  0  0  0
   58.2142   34.2570   47.3905 H   0  0  0  0  0  0  0  0  0  0  0  0
   59.4017   30.6633   47.2182 H   0  0  0  0  0  0  0  0  0  0  0  0
   59.4779   28.6276   44.4189 H   0  0  0  0  0  0  0  0  0  0  0  0
  1  2  1  0
  2  3  1  0
  3  4  2  0
  4  5  1  0
  5  6  2  3
  6  7  1  0
  7  8  1  0
  8  9  2  0
  8 10  1  0
 10 11  1  0
 11 12  2  0
  4 13  1  0
 13 14  1  0
 14 15  2  0
 14  2  1  0
 11  6  1  0
  1 16  1  0
  1 17  1  0
  1 18  1  0
  3 19  1  0
  5 20  1  0
M  CHG  1  10  -1
M  END
>  <UniqueID>  (54) 
52

>  <SMILES>  (54) 
Cn1cc(C=C2SC(=O)[N-]C2=O)sc1=S

>  <Energy>  (54) 
73.75334844141216

>  <Genealogy>  (54) 
Cn1cc(C=C2SC(=O)[N-]C2=O)sc1=S (protonated)
Cn1cc(C=C2SC(=O)[N-]C2=O)sc1=S (3D coordinates assigned)
Cn1cc(C=C2SC(=O)[N-]C2=O)sc1=S (nonaromatic ring conformer: 73.75334844141216 kcal/mol)

>  <smiles>  (54) 
Cn1cc(C=C2SC(=O)NC2=O)sc1=S

>  <score_type>  (54) 
oracle

>  <origin>  (54) 
adg

>  <m_score__min__energy>  (54) 
-8.6199999999999992

>  <m_primary>  (54) 
energy

$$$$
54:0
     RDKit          3D

 37 39  0  0  0  0  0  0  0  0999 V2000
   55.8480   29.4980   42.6050 O   0  0  0  0  0  0  0  0  0  0  0  0
   56.3290   30.0630   43.6240 C   0  0  0  0  0  0  0  0  0  0  0  0
   57.0410   31.3720   43.4870 C   0  0  0  0  0  0  0  0  0  0  0  0
   57.1330   32.0130   44.7960 N   0  0  0  0  0  0  0  0  0  0  0  0
   58.0230   33.1130   45.0380 C   0  0  0  0  0  0  0  0  0  0  0  0
   58.3770   33.8520   44.0780 O   0  0  0  0  0  0  0  0  0  0  0  0
   58.5630   33.3600   46.3930 C   0  0  0  0  0  0  0  0  0  0  0  0
   59.5790   34.3080   46.6050 C   0  0  0  0  0  0  0  0  0  0  0  0
   60.0970   34.4840   47.8900 C   0  0  0  0  0  0  0  0  0  0  0  0
   59.5990   33.7260   48.9510 C   0  0  0  0  0  0  0  0  0  0  0  0
   58.5900   32.7940   48.7060 C   0  0  0  0  0  0  0  0  0  0  0  0
   58.1030   32.6310   47.4480 N   0  0  0  0  0  0  0  0  0  0  0  0
   56.0900   29.5150   44.9230 N   0  0  0  0  0  0  0  0  0  0  0  0
   57.0500   29.1120   45.6970 C   0  0  0  0  0  0  0  0  0  0  0  0
   57.9480   29.9410   46.2710 N   0  0  0  0  0  0  0  0  0  0  0  0
   58.9160   29.2590   46.9400 C   0  0  0  0  0  0  0  0  0  0  0  0
   60.0420   29.9700   47.5970 C   0  0  0  0  0  0  0  0  0  0  0  0
   60.9040   30.7740   46.8270 C   0  0  0  0  0  0  0  0  0  0  0  0
   61.9940   31.4170   47.4190 C   0  0  0  0  0  0  0  0  0  0  0  0
   62.2440   31.2600   48.7850 C   0  0  0  0  0  0  0  0  0  0  0  0
   63.6250   32.0510   49.5210 Cl  0  0  0  0  0  0  0  0  0  0  0  0
   61.3980   30.4630   49.5600 C   0  0  0  0  0  0  0  0  0  0  0  0
   60.3030   29.8200   48.9720 C   0  0  0  0  0  0  0  0  0  0  0  0
   58.7710   27.8680   46.9050 C   0  0  0  0  0  0  0  0  0  0  0  0
   57.4000   27.5010   45.9950 S   0  0  0  0  0  0  0  0  0  0  0  0
   58.0526   31.1999   43.0906 H   0  0  0  0  0  0  0  0  0  0  0  0
   56.4839   32.0230   42.7972 H   0  0  0  0  0  0  0  0  0  0  0  0
   56.6570   31.5470   45.6020 H   0  0  0  0  0  0  0  0  0  0  0  0
   59.9630   34.9064   45.7656 H   0  0  0  0  0  0  0  0  0  0  0  0
   60.8963   35.2190   48.0657 H   0  0  0  0  0  0  0  0  0  0  0  0
   59.9970   33.8617   49.9675 H   0  0  0  0  0  0  0  0  0  0  0  0
   58.1880   32.1900   49.5328 H   0  0  0  0  0  0  0  0  0  0  0  0
   60.7176   30.8970   45.7499 H   0  0  0  0  0  0  0  0  0  0  0  0
   62.6567   32.0481   46.8087 H   0  0  0  0  0  0  0  0  0  0  0  0
   61.5932   30.3405   50.6356 H   0  0  0  0  0  0  0  0  0  0  0  0
   59.6418   29.1932   49.5884 H   0  0  0  0  0  0  0  0  0  0  0  0
   59.4374   27.1385   47.3885 H   0  0  0  0  0  0  0  0  0  0  0  0
  1  2  2  0
  2  3  1  0
  3  4  1  0
  4  5  1  0
  5  6  2  0
  5  7  1  0
  7  8  2  0
  8  9  1  0
  9 10  2  0
 10 11  1  0
 11 12  2  0
  2 13  1  0
 13 14  2  3
 14 15  1  0
 15 16  1  0
 16 17  1  0
 17 18  2  0
 18 19  1  0
 19 20  2  0
 20 21  1  0
 20 22  1  0
 22 23  2  0
 16 24  2  0
 24 25  1  0
 12  7  1  0
 25 14  1  0
 23 17  1  0
  3 26  1  0
  3 27  1  0
  4 28  1  0
  8 29  1  0
  9 30  1  0
 10 31  1  0
 11 32  1  0
 18 33  1  0
 19 34  1  0
 22 35  1  0
 23 36  1  0
 24 37  1  0
M  CHG  1  15  -1
M  END
>  <UniqueID>  (55) 
53

>  <SMILES>  (55) 
O=C(CNC(=O)c1ccccn1)N=c1[n-]c(-c2ccc(Cl)cc2)cs1

>  <Energy>  (55) 
72.69662081357902

>  <Genealogy>  (55) 
O=C(CNC(=O)c1ccccn1)N=c1[n-]c(-c2ccc(Cl)cc2)cs1 (protonated)
O=C(CNC(=O)c1ccccn1)N=c1[n-]c(-c2ccc(Cl)cc2)cs1 (3D coordinates assigned)
O=C(CNC(=O)c1ccccn1)N=c1[n-]c(-c2ccc(Cl)cc2)cs1 (optimized conformer: 72.69662081357902 kcal/mol)

>  <smiles>  (55) 
O=C(CNC(=O)c1ccccn1)N=c1[nH]c(-c2ccc(Cl)cc2)cs1

>  <score_type>  (55) 
oracle

>  <origin>  (55) 
adg

>  <m_score__min__energy>  (55) 
-9.3399999999999999

>  <m_primary>  (55) 
energy

$$$$
55:0
     RDKit          3D

 58 61  0  0  0  0  0  0  0  0999 V2000
   59.7950   33.3620   51.9850 O   0  0  0  0  0  0  0  0  0  0  0  0
   60.5520   33.4360   50.9810 C   0  0  0  0  0  0  0  0  0  0  0  0
   61.8530   32.7000   50.9770 C   0  0  0  0  0  0  0  0  0  0  0  0
   62.4700   32.7470   49.6030 C   0  0  0  0  0  0  0  0  0  0  0  0
   62.5170   31.5790   48.8220 C   0  0  0  0  0  0  0  0  0  0  0  0
   63.0480   31.6140   47.5290 C   0  0  0  0  0  0  0  0  0  0  0  0
   63.5290   32.8140   47.0010 C   0  0  0  0  0  0  0  0  0  0  0  0
   63.4790   33.9840   47.7640 C   0  0  0  0  0  0  0  0  0  0  0  0
   62.9470   33.9600   49.0630 C   0  0  0  0  0  0  0  0  0  0  0  0
   62.8860   35.1340   49.8110 O   0  0  0  0  0  0  0  0  0  0  0  0
   60.2280   34.2960   49.8790 N   0  0  0  0  0  0  0  0  0  0  0  0
   59.7530   33.8790   48.5930 C   0  0  0  0  0  0  0  0  0  0  0  0
   59.6650   34.8310   47.5690 C   0  0  0  0  0  0  0  0  0  0  0  0
   59.2100   34.4650   46.3000 C   0  0  0  0  0  0  0  0  0  0  0  0
   58.8570   33.1380   46.0380 C   0  0  0  0  0  0  0  0  0  0  0  0
   58.9740   32.1650   47.0410 C   0  0  0  0  0  0  0  0  0  0  0  0
   58.6000   30.7350   46.7480 C   0  0  0  0  0  0  0  0  0  0  0  0
   59.3910   29.8010   47.5770 N   0  0  0  0  0  0  0  0  0  0  0  0
   60.6830   29.4120   46.9580 C   0  0  0  0  0  0  0  0  0  0  0  0
   60.5690   28.7160   45.5900 C   0  0  0  0  0  0  0  0  0  0  0  0
   60.2070   27.2200   45.6050 C   0  0  0  0  0  0  0  0  0  0  0  0
   59.0890   26.8450   46.5010 N   0  0  0  0  0  0  0  0  0  0  0  0
   58.4700   25.5270   46.2660 C   0  0  0  0  0  0  0  0  0  0  0  0
   56.9700   25.5770   46.2270 C   0  0  0  0  0  0  0  0  0  0  0  0
   56.0990   24.5160   46.3690 C   0  0  0  0  0  0  0  0  0  0  0  0
   54.8360   24.9690   46.2460 N   0  0  0  0  0  0  0  0  0  0  0  0
   54.8760   26.2760   46.0220 N   0  0  0  0  0  0  0  0  0  0  0  0
   56.1630   26.6710   46.0020 C   0  0  0  0  0  0  0  0  0  0  0  0
   59.1080   27.2850   47.9140 C   0  0  0  0  0  0  0  0  0  0  0  0
   58.5520   28.7060   48.1290 C   0  0  0  0  0  0  0  0  0  0  0  0
   59.4240   32.5390   48.3200 C   0  0  0  0  0  0  0  0  0  0  0  0
   62.5379   33.1677   51.6996 H   0  0  0  0  0  0  0  0  0  0  0  0
   61.6742   31.6511   51.2558 H   0  0  0  0  0  0  0  0  0  0  0  0
   62.1339   30.6322   49.2304 H   0  0  0  0  0  0  0  0  0  0  0  0
   63.0869   30.6945   46.9265 H   0  0  0  0  0  0  0  0  0  0  0  0
   63.9475   32.8385   45.9840 H   0  0  0  0  0  0  0  0  0  0  0  0
   63.8581   34.9277   47.3449 H   0  0  0  0  0  0  0  0  0  0  0  0
   62.0650   35.3760   50.3540 H   0  0  0  0  0  0  0  0  0  0  0  0
   59.9561   35.8734   47.7655 H   0  0  0  0  0  0  0  0  0  0  0  0
   59.1294   35.2219   45.5059 H   0  0  0  0  0  0  0  0  0  0  0  0
   58.4861   32.8561   45.0415 H   0  0  0  0  0  0  0  0  0  0  0  0
   57.5311   30.5911   46.9640 H   0  0  0  0  0  0  0  0  0  0  0  0
   58.8099   30.5275   45.6883 H   0  0  0  0  0  0  0  0  0  0  0  0
   61.2861   30.3226   46.8277 H   0  0  0  0  0  0  0  0  0  0  0  0
   61.1392   28.6775   47.6380 H   0  0  0  0  0  0  0  0  0  0  0  0
   59.7940   29.2409   45.0122 H   0  0  0  0  0  0  0  0  0  0  0  0
   61.5781   28.7655   45.1548 H   0  0  0  0  0  0  0  0  0  0  0  0
   59.9337   26.9269   44.5806 H   0  0  0  0  0  0  0  0  0  0  0  0
   61.0940   26.6978   45.9930 H   0  0  0  0  0  0  0  0  0  0  0  0
   58.8320   25.1373   45.3031 H   0  0  0  0  0  0  0  0  0  0  0  0
   58.7538   24.8777   47.1073 H   0  0  0  0  0  0  0  0  0  0  0  0
   56.3886   23.4708   46.5527 H   0  0  0  0  0  0  0  0  0  0  0  0
   56.5134   27.7000   45.8334 H   0  0  0  0  0  0  0  0  0  0  0  0
   58.5020   26.5822   48.5045 H   0  0  0  0  0  0  0  0  0  0  0  0
   60.1612   27.3011   48.2310 H   0  0  0  0  0  0  0  0  0  0  0  0
   57.5627   28.7608   47.6513 H   0  0  0  0  0  0  0  0  0  0  0  0
   58.5220   28.8619   49.2175 H   0  0  0  0  0  0  0  0  0  0  0  0
   59.5191   31.7800   49.1105 H   0  0  0  0  0  0  0  0  0  0  0  0
  1  2  2  0
  2  3  1  0
  3  4  1  0
  4  5  2  0
  5  6  1  0
  6  7  2  0
  7  8  1  0
  8  9  2  0
  9 10  1  0
  2 11  1  0
 11 12  1  0
 12 13  2  0
 13 14  1  0
 14 15  2  0
 15 16  1  0
 16 17  1  0
 17 18  1  0
 18 19  1  0
 19 20  1  0
 20 21  1  0
 21 22  1  0
 22 23  1  0
 23 24  1  0
 24 25  1  0
 25 26  2  0
 26 27  1  0
 27 28  1  0
 22 29  1  0
 29 30  1  0
 16 31  2  0
  9  4  1  0
 31 12  1  0
 30 18  1  0
 28 24  2  0
  3 32  1  0
  3 33  1  0
  5 34  1  0
  6 35  1  0
  7 36  1  0
  8 37  1  0
 10 38  1  0
 13 39  1  0
 14 40  1  0
 15 41  1  0
 17 42  1  0
 17 43  1  0
 19 44  1  0
 19 45  1  0
 20 46  1  0
 20 47  1  0
 21 48  1  0
 21 49  1  0
 23 50  1  0
 23 51  1  0
 25 52  1  0
 28 53  1  0
 29 54  1  0
 29 55  1  0
 30 56  1  0
 30 57  1  0
 31 58  1  0
M  CHG  2  11  -1  27  -1
M  END
>  <UniqueID>  (56) 
54

>  <SMILES>  (56) 
O=C(Cc1ccccc1O)[N-]c1cccc(CN2CCCN(Cc3cn[n-]c3)CC2)c1

>  <Energy>  (56) 
117.23141570123069

>  <Genealogy>  (56) 
O=C(Cc1ccccc1O)[N-]c1cccc(CN2CCCN(Cc3cn[n-]c3)CC2)c1 (protonated)
O=C(Cc1ccccc1O)[N-]c1cccc(CN2CCCN(Cc3cn[n-]c3)CC2)c1 (3D coordinates assigned)
O=C(Cc1ccccc1O)[N-]c1cccc(CN2CCCN(Cc3cn[n-]c3)CC2)c1 (nonaromatic ring conformer: 117.23141570123069 kcal/mol)

>  <smiles>  (56) 
O=C(Cc1ccccc1O)Nc1cccc(CN2CCCN(Cc3cn[nH]c3)CC2)c1

>  <score_type>  (56) 
oracle

>  <origin>  (56) 
adg

>  <m_score__min__energy>  (56) 
-8.8300000000000001

>  <m_primary>  (56) 
energy

$$$$
56:0
     RDKit          3D

 53 56  0  0  0  0  0  0  0  0999 V2000
   57.8920   32.8270   43.2790 O   0  0  0  0  0  0  0  0  0  0  0  0
   57.6720   32.5470   44.4870 C   0  0  0  0  0  0  0  0  0  0  0  0
   56.5830   31.6880   44.8220 N   0  0  0  0  0  0  0  0  0  0  0  0
   56.6160   30.0180   44.3810 S   0  0  0  0  0  0  0  0  0  0  0  0
   56.6850   29.8790   42.8860 O   0  0  0  0  0  0  0  0  0  0  0  0
   55.3620   29.3480   44.8670 O   0  0  0  0  0  0  0  0  0  0  0  0
   58.0220   29.2820   45.1390 C   0  0  0  0  0  0  0  0  0  0  0  0
   57.8780   28.5280   46.3120 C   0  0  0  0  0  0  0  0  0  0  0  0
   58.9860   27.8880   46.8750 C   0  0  0  0  0  0  0  0  0  0  0  0
   60.2380   27.9870   46.2650 C   0  0  0  0  0  0  0  0  0  0  0  0
   60.3840   28.7290   45.0920 C   0  0  0  0  0  0  0  0  0  0  0  0
   59.2790   29.3720   44.5270 C   0  0  0  0  0  0  0  0  0  0  0  0
   58.5700   33.0520   45.5470 C   0  0  0  0  0  0  0  0  0  0  0  0
   59.6610   33.8710   45.2280 C   0  0  0  0  0  0  0  0  0  0  0  0
   60.5580   34.2720   46.2180 C   0  0  0  0  0  0  0  0  0  0  0  0
   60.3990   33.8390   47.5470 C   0  0  0  0  0  0  0  0  0  0  0  0
   61.3520   34.1370   48.5370 O   0  0  0  0  0  0  0  0  0  0  0  0
   62.7670   34.1760   48.3420 C   0  0  0  0  0  0  0  0  0  0  0  0
   63.3120   32.8020   47.9280 C   0  0  0  0  0  0  0  0  0  0  0  0
   62.6200   31.7060   48.6300 N   0  0  0  0  0  0  0  0  0  0  0  0
   62.8690   31.5150   49.9610 C   0  0  0  0  0  0  0  0  0  0  0  0
   62.2780   30.4570   50.6500 C   0  0  0  0  0  0  0  0  0  0  0  0
   61.4230   29.6070   49.9540 C   0  0  0  0  0  0  0  0  0  0  0  0
   60.8770   28.6370   50.5410 O   0  0  0  0  0  0  0  0  0  0  0  0
   61.1780   29.8270   48.6390 N   0  0  0  0  0  0  0  0  0  0  0  0
   61.7590   30.8600   47.9740 C   0  0  0  0  0  0  0  0  0  0  0  0
   61.5020   31.0190   46.7510 O   0  0  0  0  0  0  0  0  0  0  0  0
   59.2730   33.0590   47.8890 C   0  0  0  0  0  0  0  0  0  0  0  0
   59.0640   32.5640   49.2690 C   0  0  0  0  0  0  0  0  0  0  0  0
   59.2880   33.2700   50.4500 C   0  0  0  0  0  0  0  0  0  0  0  0
   58.9990   32.5310   51.6050 C   0  0  0  0  0  0  0  0  0  0  0  0
   58.5530   31.2420   51.3370 C   0  0  0  0  0  0  0  0  0  0  0  0
   58.1900   30.2320   52.3370 C   0  0  0  0  0  0  0  0  0  0  0  0
   58.8190   30.1670   53.4250 O   0  0  0  0  0  0  0  0  0  0  0  0
   57.1510   29.3440   52.0910 O   0  0  0  0  0  0  0  0  0  0  0  0
   58.5050   31.0240   49.6710 S   0  0  0  0  0  0  0  0  0  0  0  0
   58.3760   32.6650   46.8820 C   0  0  0  0  0  0  0  0  0  0  0  0
   56.8914   28.4398   46.7903 H   0  0  0  0  0  0  0  0  0  0  0  0
   58.8712   27.3051   47.8007 H   0  0  0  0  0  0  0  0  0  0  0  0
   61.1082   27.4808   46.7084 H   0  0  0  0  0  0  0  0  0  0  0  0
   61.3703   28.8079   44.6113 H   0  0  0  0  0  0  0  0  0  0  0  0
   59.3967   29.9505   43.5989 H   0  0  0  0  0  0  0  0  0  0  0  0
   59.8113   34.2002   44.1892 H   0  0  0  0  0  0  0  0  0  0  0  0
   61.3976   34.9330   45.9571 H   0  0  0  0  0  0  0  0  0  0  0  0
   62.9998   34.9062   47.5529 H   0  0  0  0  0  0  0  0  0  0  0  0
   63.2402   34.4648   49.2921 H   0  0  0  0  0  0  0  0  0  0  0  0
   63.1726   32.6751   46.8443 H   0  0  0  0  0  0  0  0  0  0  0  0
   64.3780   32.7614   48.1961 H   0  0  0  0  0  0  0  0  0  0  0  0
   63.5423   32.2030   50.4932 H   0  0  0  0  0  0  0  0  0  0  0  0
   62.4825   30.2975   51.7190 H   0  0  0  0  0  0  0  0  0  0  0  0
   59.6558   34.3064   50.4730 H   0  0  0  0  0  0  0  0  0  0  0  0
   59.1137   32.9314   52.6231 H   0  0  0  0  0  0  0  0  0  0  0  0
   57.5074   32.0430   47.1442 H   0  0  0  0  0  0  0  0  0  0  0  0
  1  2  2  0
  2  3  1  0
  3  4  1  0
  4  5  2  0
  4  6  2  0
  4  7  1  0
  7  8  2  0
  8  9  1  0
  9 10  2  0
 10 11  1  0
 11 12  2  0
  2 13  1  0
 13 14  2  0
 14 15  1  0
 15 16  2  0
 16 17  1  0
 17 18  1  0
 18 19  1  0
 19 20  1  0
 20 21  1  0
 21 22  2  0
 22 23  1  0
 23 24  2  0
 23 25  1  0
 25 26  1  0
 26 27  2  0
 16 28  1  0
 28 29  1  0
 29 30  2  0
 30 31  1  0
 31 32  2  0
 32 33  1  0
 33 34  2  0
 33 35  1  0
 32 36  1  0
 28 37  2  0
 12  7  1  0
 37 13  1  0
 26 20  1  0
 36 29  1  0
  8 38  1  0
  9 39  1  0
 10 40  1  0
 11 41  1  0
 12 42  1  0
 14 43  1  0
 15 44  1  0
 18 45  1  0
 18 46  1  0
 19 47  1  0
 19 48  1  0
 21 49  1  0
 22 50  1  0
 30 51  1  0
 31 52  1  0
 37 53  1  0
M  CHG  3   3  -1  25  -1  35  -1
M  END
>  <UniqueID>  (57) 
55

>  <SMILES>  (57) 
O=C([N-]S(=O)(=O)c1ccccc1)c1ccc(OCCn2ccc(=O)[n-]c2=O)c(-c2ccc(C(=O)[O-])s2)c1

>  <Energy>  (57) 
92.98275687471612

>  <Genealogy>  (57) 
O=C([N-]S(=O)(=O)c1ccccc1)c1ccc(OCCn2ccc(=O)[n-]c2=O)c(-c2ccc(C(=O)[O-])s2)c1 (protonated)
O=C([N-]S(=O)(=O)c1ccccc1)c1ccc(OCCn2ccc(=O)[n-]c2=O)c(-c2ccc(C(=O)[O-])s2)c1 (3D coordinates assigned)
O=C([N-]S(=O)(=O)c1ccccc1)c1ccc(OCCn2ccc(=O)[n-]c2=O)c(-c2ccc(C(=O)[O-])s2)c1 (optimized conformer: 92.98275687471612 kcal/mol)

>  <smiles>  (57) 
O=C(NS(=O)(=O)c1ccccc1)c1ccc(OCCn2ccc(=O)[nH]c2=O)c(-c2ccc(C(=O)O)s2)c1

>  <score_type>  (57) 
oracle

>  <origin>  (57) 
adg

>  <m_score__min__energy>  (57) 
-13.84

>  <m_primary>  (57) 
energy

$$$$
57:0
     RDKit          3D

 58 61  0  0  0  0  0  0  0  0999 V2000
   56.7100   29.3190   42.6380 C   0  0  0  0  0  0  0  0  0  0  0  0
   56.4870   29.6920   44.3690 S   0  0  0  0  0  0  0  0  0  0  0  0
   56.6670   31.1740   44.5450 O   0  0  0  0  0  0  0  0  0  0  0  0
   55.0730   29.3450   44.7410 O   0  0  0  0  0  0  0  0  0  0  0  0
   57.6110   28.8740   45.4420 N   0  0  0  0  0  0  0  0  0  0  0  0
   58.4900   27.8890   44.7860 C   0  0  0  0  0  0  0  0  0  0  0  0
   59.7370   28.5340   44.1860 C   0  0  0  0  0  0  0  0  0  0  0  0
   60.4920   29.3150   45.2550 C   0  0  0  0  0  0  0  0  0  0  0  0
   59.6040   30.4110   45.8780 C   0  0  2  0  0  0  0  0  0  0  0  0
   60.4040   31.1300   46.9180 N   0  0  0  0  0  0  0  0  0  0  0  0
   60.0340   32.5730   47.0300 C   0  0  0  0  0  0  0  0  0  0  0  0
   59.1520   32.8860   48.2520 C   0  0  0  0  0  0  0  0  0  0  0  0
   59.7120   32.3090   49.4790 N   0  0  0  0  0  0  0  0  0  0  0  0
   58.9260   32.3490   50.6840 C   0  0  0  0  0  0  0  0  0  0  0  0
   59.3380   33.1310   51.7790 C   0  0  0  0  0  0  0  0  0  0  0  0
   58.6030   33.1280   52.9640 C   0  0  0  0  0  0  0  0  0  0  0  0
   57.4530   32.3410   53.0760 C   0  0  0  0  0  0  0  0  0  0  0  0
   57.0170   31.5510   51.9920 C   0  0  0  0  0  0  0  0  0  0  0  0
   55.8140   30.6850   52.1100 C   0  0  0  0  0  0  0  0  0  0  0  0
   55.9540   29.4560   52.3670 O   0  0  0  0  0  0  0  0  0  0  0  0
   54.4910   31.2220   51.9460 N   0  0  0  0  0  0  0  0  0  0  0  0
   53.3030   30.4550   52.3090 C   0  0  0  0  0  0  0  0  0  0  0  0
   52.4680   30.0500   51.1080 C   0  0  0  0  0  0  0  0  0  0  0  0
   51.9960   31.1720   52.0140 C   0  0  0  0  0  0  0  0  0  0  0  0
   57.7680   31.5590   50.8010 C   0  0  0  0  0  0  0  0  0  0  0  0
   60.8650   31.4140   49.3610 C   0  0  0  0  0  0  0  0  0  0  0  0
   60.5750   30.4370   48.2260 C   0  0  0  0  0  0  0  0  0  0  0  0
   58.2880   29.7550   46.4150 C   0  0  0  0  0  0  0  0  0  0  0  0
   57.2720   28.3790   42.5349 H   0  0  0  0  0  0  0  0  0  0  0  0
   55.7269   29.2132   42.1561 H   0  0  0  0  0  0  0  0  0  0  0  0
   57.2686   30.1349   42.1561 H   0  0  0  0  0  0  0  0  0  0  0  0
   58.8017   27.1418   45.5307 H   0  0  0  0  0  0  0  0  0  0  0  0
   57.9227   27.4258   43.9652 H   0  0  0  0  0  0  0  0  0  0  0  0
   60.3917   27.7494   43.7788 H   0  0  0  0  0  0  0  0  0  0  0  0
   59.4339   29.2238   43.3845 H   0  0  0  0  0  0  0  0  0  0  0  0
   60.8135   28.6214   46.0459 H   0  0  0  0  0  0  0  0  0  0  0  0
   61.3614   29.7974   44.7845 H   0  0  0  0  0  0  0  0  0  0  0  0
   59.2904   31.1653   45.1413 H   0  0  0  0  0  0  0  0  0  0  0  0
   60.9581   33.1648   47.1065 H   0  0  0  0  0  0  0  0  0  0  0  0
   59.4491   32.8282   46.1340 H   0  0  0  0  0  0  0  0  0  0  0  0
   59.0792   33.9772   48.3706 H   0  0  0  0  0  0  0  0  0  0  0  0
   58.1588   32.4441   48.0840 H   0  0  0  0  0  0  0  0  0  0  0  0
   60.2451   33.7482   51.6997 H   0  0  0  0  0  0  0  0  0  0  0  0
   58.9290   33.7467   53.8131 H   0  0  0  0  0  0  0  0  0  0  0  0
   56.8836   32.3379   54.0171 H   0  0  0  0  0  0  0  0  0  0  0  0
   54.3530   32.1260   51.4420 H   0  0  0  0  0  0  0  0  0  0  0  0
   53.7255   29.9377   53.1830 H   0  0  0  0  0  0  0  0  0  0  0  0
   52.8215   30.2763   50.0912 H   0  0  0  0  0  0  0  0  0  0  0  0
   52.0319   29.1069   50.7469 H   0  0  0  0  0  0  0  0  0  0  0  0
   52.0078   32.2114   51.6542 H   0  0  0  0  0  0  0  0  0  0  0  0
   51.0769   31.3791   52.5817 H   0  0  0  0  0  0  0  0  0  0  0  0
   57.4451   30.9396   49.9512 H   0  0  0  0  0  0  0  0  0  0  0  0
   61.7701   31.9961   49.1330 H   0  0  0  0  0  0  0  0  0  0  0  0
   61.0325   30.8727   50.3039 H   0  0  0  0  0  0  0  0  0  0  0  0
   61.4129   29.7289   48.1451 H   0  0  0  0  0  0  0  0  0  0  0  0
   59.6337   29.9177   48.4591 H   0  0  0  0  0  0  0  0  0  0  0  0
   58.5378   29.1587   47.3050 H   0  0  0  0  0  0  0  0  0  0  0  0
   57.5915   30.5774   46.6354 H   0  0  0  0  0  0  0  0  0  0  0  0
  1  2  1  0
  2  3  2  0
  2  4  2  0
  2  5  1  0
  5  6  1  0
  6  7  1  0
  7  8  1  0
  8  9  1  0
  9 10  1  0
 10 11  1  0
 11 12  1  0
 12 13  1  0
 13 14  1  0
 14 15  2  0
 15 16  1  0
 16 17  2  0
 17 18  1  0
 18 19  1  0
 19 20  2  0
 19 21  1  0
 21 22  1  0
 22 23  1  0
 23 24  1  0
 18 25  2  0
 13 26  1  0
 26 27  1  0
  9 28  1  0
 28  5  1  0
 27 10  1  0
 25 14  1  0
 24 22  1  0
  1 29  1  0
  1 30  1  0
  1 31  1  0
  6 32  1  0
  6 33  1  0
  7 34  1  0
  7 35  1  0
  8 36  1  0
  8 37  1  0
  9 38  1  6
 11 39  1  0
 11 40  1  0
 12 41  1  0
 12 42  1  0
 15 43  1  0
 16 44  1  0
 17 45  1  0
 21 46  1  0
 22 47  1  0
 23 48  1  0
 23 49  1  0
 24 50  1  0
 24 51  1  0
 25 52  1  0
 26 53  1  0
 26 54  1  0
 27 55  1  0
 27 56  1  0
 28 57  1  0
 28 58  1  0
M  END
>  <UniqueID>  (58) 
56

>  <SMILES>  (58) 
CS(=O)(=O)N1CCC[C@H](N2CCN(c3cccc(C(=O)NC4CC4)c3)CC2)C1

>  <Energy>  (58) 
344.56333293436825

>  <Genealogy>  (58) 
CS(=O)(=O)N1CCC[C@H](N2CCN(c3cccc(C(=O)NC4CC4)c3)CC2)C1 (chirality)
CS(=O)(=O)N1CCC[C@H](N2CCN(c3cccc(C(=O)NC4CC4)c3)CC2)C1 (3D coordinates assigned)
CS(=O)(=O)N1CCC[C@H](N2CCN(c3cccc(C(=O)NC4CC4)c3)CC2)C1 (nonaromatic ring conformer: 344.56333293436825 kcal/mol)

>  <smiles>  (58) 
CS(=O)(=O)N1CCCC(N2CCN(c3cccc(C(=O)NC4CC4)c3)CC2)C1

>  <score_type>  (58) 
oracle

>  <origin>  (58) 
adg

>  <m_score__min__energy>  (58) 
-9.4399999999999995

>  <m_primary>  (58) 
energy

$$$$
58:0
     RDKit          3D

 36 38  0  0  0  0  0  0  0  0999 V2000
   55.1420   26.5750   46.0360 N   0  0  0  0  0  0  0  0  0  0  0  0
   56.5630   26.6170   46.1390 C   0  0  0  0  0  0  0  0  0  0  0  0
   57.1660   25.6840   46.7330 O   0  0  0  0  0  0  0  0  0  0  0  0
   57.3250   27.7300   45.5320 C   0  0  0  0  0  0  0  0  0  0  0  0
   58.5500   27.4910   44.8860 C   0  0  0  0  0  0  0  0  0  0  0  0
   59.2090   28.5050   44.2670 N   0  0  0  0  0  0  0  0  0  0  0  0
   58.7250   29.7740   44.2570 C   0  0  0  0  0  0  0  0  0  0  0  0
   57.5320   30.0760   44.9160 C   0  0  0  0  0  0  0  0  0  0  0  0
   57.0430   31.3880   44.8850 O   0  0  0  0  0  0  0  0  0  0  0  0
   57.7450   32.5080   45.3490 C   0  0  0  0  0  0  0  0  0  0  0  0
   58.0990   33.5060   44.4380 C   0  0  0  0  0  0  0  0  0  0  0  0
   58.8440   34.6100   44.8560 C   0  0  0  0  0  0  0  0  0  0  0  0
   59.2610   34.7140   46.1860 C   0  0  0  0  0  0  0  0  0  0  0  0
   58.9220   33.7170   47.1160 C   0  0  0  0  0  0  0  0  0  0  0  0
   59.4350   33.7920   48.5070 C   0  0  0  0  0  0  0  0  0  0  0  0
   59.6940   34.9170   49.0110 O   0  0  0  0  0  0  0  0  0  0  0  0
   59.7150   32.6150   49.2790 N   0  0  0  0  0  0  0  0  0  0  0  0
   59.7930   31.4070   48.8050 C   0  0  0  0  0  0  0  0  0  0  0  0
   60.6540   31.1020   47.7930 N   0  0  0  0  0  0  0  0  0  0  0  0
   60.7100   29.8490   47.2750 C   0  0  0  0  0  0  0  0  0  0  0  0
   59.8770   28.8510   47.7790 C   0  0  0  0  0  0  0  0  0  0  0  0
   59.0020   29.1770   48.8140 C   0  0  0  0  0  0  0  0  0  0  0  0
   58.9720   30.4440   49.3020 N   0  0  0  0  0  0  0  0  0  0  0  0
   58.1540   32.6170   46.6910 C   0  0  0  0  0  0  0  0  0  0  0  0
   56.8280   29.0440   45.5560 C   0  0  0  0  0  0  0  0  0  0  0  0
   54.5380   27.0890   46.7150 H   0  0  0  0  0  0  0  0  0  0  0  0
   58.9775   26.4775   44.8815 H   0  0  0  0  0  0  0  0  0  0  0  0
   59.2748   30.5663   43.7279 H   0  0  0  0  0  0  0  0  0  0  0  0
   57.7891   33.4215   43.3859 H   0  0  0  0  0  0  0  0  0  0  0  0
   59.1037   35.4005   44.1365 H   0  0  0  0  0  0  0  0  0  0  0  0
   59.8576   35.5809   46.5062 H   0  0  0  0  0  0  0  0  0  0  0  0
   61.4114   29.6211   46.4589 H   0  0  0  0  0  0  0  0  0  0  0  0
   59.9095   27.8305   47.3696 H   0  0  0  0  0  0  0  0  0  0  0  0
   58.3366   28.4089   49.2350 H   0  0  0  0  0  0  0  0  0  0  0  0
   57.8714   31.8368   47.4131 H   0  0  0  0  0  0  0  0  0  0  0  0
   55.8850   29.2645   46.0776 H   0  0  0  0  0  0  0  0  0  0  0  0
  1  2  1  0
  2  3  2  0
  2  4  1  0
  4  5  2  0
  5  6  1  0
  6  7  2  0
  7  8  1  0
  8  9  1  0
  9 10  1  0
 10 11  2  0
 11 12  1  0
 12 13  2  0
 13 14  1  0
 14 15  1  0
 15 16  2  0
 15 17  1  0
 17 18  2  3
 18 19  1  0
 19 20  2  0
 20 21  1  0
 21 22  2  0
 22 23  1  0
 14 24  2  0
  8 25  2  0
 25  4  1  0
 24 10  1  0
 23 18  1  0
  1 26  1  0
  5 27  1  0
  7 28  1  0
 11 29  1  0
 12 30  1  0
 13 31  1  0
 20 32  1  0
 21 33  1  0
 22 34  1  0
 24 35  1  0
 25 36  1  0
M  CHG  2   1  -1  23  -1
M  END
>  <UniqueID>  (59) 
57

>  <SMILES>  (59) 
[NH-]C(=O)c1cncc(Oc2cccc(C(=O)N=c3nccc[n-]3)c2)c1

>  <Energy>  (59) 
54.02276351175406

>  <Genealogy>  (59) 
[NH-]C(=O)c1cncc(Oc2cccc(C(=O)N=c3nccc[n-]3)c2)c1 (protonated)
[NH-]C(=O)c1cncc(Oc2cccc(C(=O)N=c3nccc[n-]3)c2)c1 (3D coordinates assigned)
[NH-]C(=O)c1cncc(Oc2cccc(C(=O)N=c3nccc[n-]3)c2)c1 (optimized conformer: 54.02276351175406 kcal/mol)

>  <smiles>  (59) 
NC(=O)c1cncc(Oc2cccc(C(=O)N=c3nccc[nH]3)c2)c1

>  <score_type>  (59) 
oracle

>  <origin>  (59) 
adg

>  <m_score__min__energy>  (59) 
-12.130000000000001

>  <m_primary>  (59) 
energy

$$$$
59:0
     RDKit          3D

 41 43  0  0  0  0  0  0  0  0999 V2000
   64.1240   32.5090   47.1450 N   0  0  0  0  0  0  0  0  0  0  0  0
   62.7570   32.8940   47.1350 C   0  0  0  0  0  0  0  0  0  0  0  0
   62.3970   34.0510   46.7720 O   0  0  0  0  0  0  0  0  0  0  0  0
   61.7350   31.9430   47.5490 C   0  0  0  0  0  0  0  0  0  0  0  0
   61.0520   32.1090   48.7230 C   0  0  0  0  0  0  0  0  0  0  0  0
   60.0770   31.1860   49.1000 C   0  0  0  0  0  0  0  0  0  0  0  0
   59.7730   30.0890   48.3090 C   0  0  0  0  0  0  0  0  0  0  0  0
   60.4630   29.9250   47.1260 C   0  0  0  0  0  0  0  0  0  0  0  0
   60.2260   28.7990   46.2040 C   0  0  0  0  0  0  0  0  0  0  0  0
   59.1040   29.0550   45.2680 C   0  0  0  0  0  0  0  0  0  0  0  0
   58.7560   30.3690   45.0110 C   0  0  0  0  0  0  0  0  0  0  0  0
   57.7190   30.6500   44.1460 C   0  0  0  0  0  0  0  0  0  0  0  0
   57.4020   32.0830   43.9200 C   0  0  0  0  0  0  0  0  0  0  0  0
   57.9860   32.9760   44.9190 C   0  0  0  0  0  0  0  0  0  0  0  0
   57.5710   32.9810   46.2490 C   0  0  0  0  0  0  0  0  0  0  0  0
   58.1550   33.8500   47.1700 C   0  0  0  0  0  0  0  0  0  0  0  0
   59.1600   34.7220   46.7640 C   0  0  0  0  0  0  0  0  0  0  0  0
   59.5600   34.7020   45.4320 C   0  0  0  0  0  0  0  0  0  0  0  0
   58.9880   33.8440   44.5090 C   0  0  0  0  0  0  0  0  0  0  0  0
   57.0340   29.6160   43.5430 C   0  0  0  0  0  0  0  0  0  0  0  0
   56.0860   29.8850   42.7530 O   0  0  0  0  0  0  0  0  0  0  0  0
   57.4120   28.3500   43.8270 N   0  0  0  0  0  0  0  0  0  0  0  0
   58.4110   28.0740   44.6590 N   0  0  0  0  0  0  0  0  0  0  0  0
   61.4320   30.8520   46.7640 C   0  0  0  0  0  0  0  0  0  0  0  0
   64.5080   32.1700   48.0750 H   0  0  0  0  0  0  0  0  0  0  0  0
   64.7290   32.5540   46.2900 H   0  0  0  0  0  0  0  0  0  0  0  0
   61.2722   32.9711   49.3698 H   0  0  0  0  0  0  0  0  0  0  0  0
   59.5367   31.3318   50.0470 H   0  0  0  0  0  0  0  0  0  0  0  0
   59.0014   29.3679   48.6168 H   0  0  0  0  0  0  0  0  0  0  0  0
   61.1407   28.6246   45.6183 H   0  0  0  0  0  0  0  0  0  0  0  0
   59.9598   27.9213   46.8113 H   0  0  0  0  0  0  0  0  0  0  0  0
   59.3058   31.1890   45.4961 H   0  0  0  0  0  0  0  0  0  0  0  0
   57.7841   32.3717   42.9297 H   0  0  0  0  0  0  0  0  0  0  0  0
   56.3094   32.1872   43.9935 H   0  0  0  0  0  0  0  0  0  0  0  0
   56.7763   32.2939   46.5751 H   0  0  0  0  0  0  0  0  0  0  0  0
   57.8209   33.8460   48.2180 H   0  0  0  0  0  0  0  0  0  0  0  0
   59.6283   35.4125   47.4809 H   0  0  0  0  0  0  0  0  0  0  0  0
   60.3542   35.3882   45.1026 H   0  0  0  0  0  0  0  0  0  0  0  0
   59.3240   33.8500   43.4616 H   0  0  0  0  0  0  0  0  0  0  0  0
   56.8960   27.5650   43.3710 H   0  0  0  0  0  0  0  0  0  0  0  0
   61.9760   30.7103   45.8185 H   0  0  0  0  0  0  0  0  0  0  0  0
  1  2  1  0
  2  3  2  0
  2  4  1  0
  4  5  2  0
  5  6  1  0
  6  7  2  0
  7  8  1  0
  8  9  1  0
  9 10  1  0
 10 11  1  0
 11 12  2  0
 12 13  1  0
 13 14  1  0
 14 15  2  0
 15 16  1  0
 16 17  2  0
 17 18  1  0
 18 19  2  0
 12 20  1  0
 20 21  2  0
 20 22  1  0
 22 23  1  0
  8 24  2  0
 24  4  1  0
 23 10  2  0
 19 14  1  0
  1 25  1  0
  1 26  1  0
  5 27  1  0
  6 28  1  0
  7 29  1  0
  9 30  1  0
  9 31  1  0
 11 32  1  0
 13 33  1  0
 13 34  1  0
 15 35  1  0
 16 36  1  0
 17 37  1  0
 18 38  1  0
 19 39  1  0
 22 40  1  0
 24 41  1  0
M  END
>  <smiles>  (60) 
NC(=O)c1cccc(Cc2cc(Cc3ccccc3)c(=O)[nH]n2)c1

>  <score_type>  (60) 
oracle

>  <origin>  (60) 
adg

>  <m_score__min__energy>  (60) 
-9.5999999999999996

>  <m_primary>  (60) 
energy

$$$$
60:0
     RDKit          3D

 54 57  0  0  0  0  0  0  0  0999 V2000
   54.0240   28.5690   54.2100 C   0  0  0  0  0  0  0  0  0  0  0  0
   54.4950   29.4390   53.3010 C   0  0  0  0  0  0  0  0  0  0  0  0
   53.7450   30.3720   52.5700 C   0  0  0  0  0  0  0  0  0  0  0  0
   52.4150   30.4950   52.3930 C   0  0  0  0  0  0  0  0  0  0  0  0
   51.7470   30.8170   51.1210 C   0  0  0  0  0  0  0  0  0  0  0  0
   51.7680   30.0380   50.0230 N   0  0  0  0  0  0  0  0  0  0  0  0
   51.1540   30.7970   49.0900 C   0  0  0  0  0  0  0  0  0  0  0  0
   50.9650   30.4000   47.9110 O   0  0  0  0  0  0  0  0  0  0  0  0
   50.7700   32.0190   49.5170 N   0  0  0  0  0  0  0  0  0  0  0  0
   51.1660   32.0200   50.7990 C   0  0  0  0  0  0  0  0  0  0  0  0
   51.0040   33.0990   51.6580 O   0  0  0  0  0  0  0  0  0  0  0  0
   54.6600   31.2340   51.9910 C   0  0  0  0  0  0  0  0  0  0  0  0
   55.9190   30.7720   52.3230 C   0  0  0  0  0  0  0  0  0  0  0  0
   57.1790   31.4430   51.9350 C   0  0  0  0  0  0  0  0  0  0  0  0
   58.1230   31.5340   52.7680 O   0  0  0  0  0  0  0  0  0  0  0  0
   57.3290   32.0100   50.6250 N   0  0  0  0  0  0  0  0  0  0  0  0
   58.5750   32.6330   50.1800 C   0  0  0  0  0  0  0  0  0  0  0  0
   59.3140   31.7080   49.2520 C   0  0  0  0  0  0  0  0  0  0  0  0
   60.7020   31.5330   49.3720 C   0  0  0  0  0  0  0  0  0  0  0  0
   61.3760   30.6560   48.5200 C   0  0  0  0  0  0  0  0  0  0  0  0
   60.6720   29.9370   47.5520 C   0  0  0  0  0  0  0  0  0  0  0  0
   59.2810   30.0820   47.4350 C   0  0  0  0  0  0  0  0  0  0  0  0
   58.5270   29.3290   46.4130 C   0  0  0  0  0  0  0  0  0  0  0  0
   58.5130   28.0700   46.4710 O   0  0  0  0  0  0  0  0  0  0  0  0
   57.8250   29.9960   45.3480 N   0  0  0  0  0  0  0  0  0  0  0  0
   56.8840   29.3090   44.4800 C   0  0  0  0  0  0  0  0  0  0  0  0
   56.4340   30.3460   43.4610 C   0  0  0  0  0  0  0  0  0  0  0  0
   57.4900   31.4460   43.5000 C   0  0  0  0  0  0  0  0  0  0  0  0
   58.1590   31.3270   44.8630 C   0  0  0  0  0  0  0  0  0  0  0  0
   58.6110   30.9840   48.2760 C   0  0  0  0  0  0  0  0  0  0  0  0
   55.8210   29.6580   53.0920 N   0  0  0  0  0  0  0  0  0  0  0  0
   56.9400   28.8840   53.6410 C   0  0  0  0  0  0  0  0  0  0  0  0
   54.7133   27.8815   54.7221 H   0  0  0  0  0  0  0  0  0  0  0  0
   52.9491   28.5442   54.4422 H   0  0  0  0  0  0  0  0  0  0  0  0
   51.7738   30.3419   53.2736 H   0  0  0  0  0  0  0  0  0  0  0  0
   54.4285   32.1199   51.3814 H   0  0  0  0  0  0  0  0  0  0  0  0
   56.5470   31.9390   49.9360 H   0  0  0  0  0  0  0  0  0  0  0  0
   58.3447   33.5701   49.6520 H   0  0  0  0  0  0  0  0  0  0  0  0
   59.2056   32.8421   51.0567 H   0  0  0  0  0  0  0  0  0  0  0  0
   61.2602   32.0887   50.1398 H   0  0  0  0  0  0  0  0  0  0  0  0
   62.4650   30.5311   48.6116 H   0  0  0  0  0  0  0  0  0  0  0  0
   61.2100   29.2540   46.8782 H   0  0  0  0  0  0  0  0  0  0  0  0
   57.3740   28.4629   43.9759 H   0  0  0  0  0  0  0  0  0  0  0  0
   56.0342   28.8986   45.0452 H   0  0  0  0  0  0  0  0  0  0  0  0
   56.3815   29.8998   42.4569 H   0  0  0  0  0  0  0  0  0  0  0  0
   55.4319   30.7359   43.6930 H   0  0  0  0  0  0  0  0  0  0  0  0
   58.2271   31.2987   42.6968 H   0  0  0  0  0  0  0  0  0  0  0  0
   57.0453   32.4411   43.3515 H   0  0  0  0  0  0  0  0  0  0  0  0
   59.2491   31.4382   44.7667 H   0  0  0  0  0  0  0  0  0  0  0  0
   57.8156   32.1103   45.5547 H   0  0  0  0  0  0  0  0  0  0  0  0
   57.5253   31.1249   48.1695 H   0  0  0  0  0  0  0  0  0  0  0  0
   56.9005   28.9113   54.7399 H   0  0  0  0  0  0  0  0  0  0  0  0
   56.8683   27.8415   53.2973 H   0  0  0  0  0  0  0  0  0  0  0  0
   57.8902   29.3189   53.2973 H   0  0  0  0  0  0  0  0  0  0  0  0
  1  2  2  0
  2  3  1  0
  3  4  2  3
  4  5  1  0
  5  6  1  0
  6  7  1  0
  7  8  2  0
  7  9  1  0
  9 10  1  0
 10 11  1  0
  3 12  1  0
 12 13  2  0
 13 14  1  0
 14 15  2  0
 14 16  1  0
 16 17  1  0
 17 18  1  0
 18 19  2  0
 19 20  1  0
 20 21  2  0
 21 22  1  0
 22 23  1  0
 23 24  2  0
 23 25  1  0
 25 26  1  0
 26 27  1  0
 27 28  1  0
 28 29  1  0
 22 30  2  0
 13 31  1  0
 31 32  1  0
 31  2  1  0
 10  5  2  0
 30 18  1  0
 29 25  1  0
  1 33  1  0
  1 34  1  0
  4 35  1  0
 12 36  1  0
 16 37  1  0
 17 38  1  0
 17 39  1  0
 19 40  1  0
 20 41  1  0
 21 42  1  0
 26 43  1  0
 26 44  1  0
 27 45  1  0
 27 46  1  0
 28 47  1  0
 28 48  1  0
 29 49  1  0
 29 50  1  0
 30 51  1  0
 32 52  1  0
 32 53  1  0
 32 54  1  0
M  CHG  3   6  -1   9  -1  11  -1
M  END
>  <UniqueID>  (61) 
58

>  <SMILES>  (61) 
C=c1c(=Cc2[n-]c(=O)[n-]c2[O-])cc(C(=O)NCc2cccc(C(=O)N3CCCC3)c2)n1C

>  <Energy>  (61) 
130.30063561231975

>  <Genealogy>  (61) 
C=c1c(=Cc2[n-]c(=O)[n-]c2[O-])cc(C(=O)NCc2cccc(C(=O)N3CCCC3)c2)n1C (protonated)
C=c1c(=Cc2[n-]c(=O)[n-]c2[O-])cc(C(=O)NCc2cccc(C(=O)N3CCCC3)c2)n1C (3D coordinates assigned)
C=c1c(=Cc2[n-]c(=O)[n-]c2[O-])cc(C(=O)NCc2cccc(C(=O)N3CCCC3)c2)n1C (nonaromatic ring conformer: 130.30063561231975 kcal/mol)

>  <smiles>  (61) 
C=c1c(=Cc2[nH]c(=O)[nH]c2O)cc(C(=O)NCc2cccc(C(=O)N3CCCC3)c2)n1C

>  <score_type>  (61) 
oracle

>  <origin>  (61) 
adg

>  <m_score__min__energy>  (61) 
-19.640000000000001

>  <m_primary>  (61) 
energy

$$$$
61:0
     RDKit          3D

 55 58  0  0  0  0  0  0  0  0999 V2000
   56.7520   29.2000   43.6390 O   0  0  0  0  0  0  0  0  0  0  0  0
   57.1500   29.2430   44.8330 C   0  0  0  0  0  0  0  0  0  0  0  0
   57.0190   30.4750   45.5570 N   0  0  0  0  0  0  0  0  0  0  0  0
   57.7270   31.6930   45.2840 C   0  0  0  0  0  0  0  0  0  0  0  0
   57.7560   32.2550   43.9970 C   0  0  0  0  0  0  0  0  0  0  0  0
   58.4610   33.4390   43.7640 C   0  0  0  0  0  0  0  0  0  0  0  0
   59.1280   34.0780   44.8110 C   0  0  0  0  0  0  0  0  0  0  0  0
   59.0760   33.5490   46.1120 C   0  0  0  0  0  0  0  0  0  0  0  0
   59.7960   34.2100   47.2250 C   0  0  0  0  0  0  0  0  0  0  0  0
   59.2720   35.2120   47.7780 O   0  0  0  0  0  0  0  0  0  0  0  0
   61.0750   33.7380   47.6900 N   0  0  0  0  0  0  0  0  0  0  0  0
   61.4000   33.7460   49.1210 C   0  0  0  0  0  0  0  0  0  0  0  0
   62.8220   34.2800   49.3160 C   0  0  0  0  0  0  0  0  0  0  0  0
   63.7380   33.5640   48.5100 O   0  0  0  0  0  0  0  0  0  0  0  0
   63.4550   33.7870   47.1360 C   0  0  0  0  0  0  0  0  0  0  0  0
   62.0830   33.2160   46.7620 C   0  0  0  0  0  0  0  0  0  0  0  0
   58.3730   32.3520   46.3370 C   0  0  0  0  0  0  0  0  0  0  0  0
   57.6520   28.0040   45.4810 C   0  0  0  0  0  0  0  0  0  0  0  0
   57.4610   26.7680   44.8360 C   0  0  0  0  0  0  0  0  0  0  0  0
   57.9530   25.5880   45.4000 C   0  0  0  0  0  0  0  0  0  0  0  0
   57.6940   24.0540   44.5880 Cl  0  0  0  0  0  0  0  0  0  0  0  0
   58.6520   25.6290   46.6080 C   0  0  0  0  0  0  0  0  0  0  0  0
   58.8610   26.8480   47.2550 C   0  0  0  0  0  0  0  0  0  0  0  0
   58.3680   28.0430   46.7040 C   0  0  0  0  0  0  0  0  0  0  0  0
   58.5430   29.2760   47.4180 N   0  0  0  0  0  0  0  0  0  0  0  0
   60.0480   29.6730   48.1800 S   0  0  0  0  0  0  0  0  0  0  0  0
   60.9610   30.3120   47.1750 O   0  0  0  0  0  0  0  0  0  0  0  0
   60.6980   28.4110   48.6750 O   0  0  0  0  0  0  0  0  0  0  0  0
   59.7860   30.7960   49.5080 C   0  0  0  0  0  0  0  0  0  0  0  0
   60.6950   30.8360   50.5770 C   0  0  0  0  0  0  0  0  0  0  0  0
   60.5080   31.7410   51.6260 C   0  0  0  0  0  0  0  0  0  0  0  0
   59.4150   32.6120   51.6090 C   0  0  0  0  0  0  0  0  0  0  0  0
   59.1850   33.7500   52.9230 Cl  0  0  0  0  0  0  0  0  0  0  0  0
   58.5080   32.5770   50.5420 C   0  0  0  0  0  0  0  0  0  0  0  0
   58.6920   31.6710   49.4940 C   0  0  0  0  0  0  0  0  0  0  0  0
   57.2227   31.7621   43.1708 H   0  0  0  0  0  0  0  0  0  0  0  0
   58.4905   33.8691   42.7520 H   0  0  0  0  0  0  0  0  0  0  0  0
   59.6966   34.9994   44.6168 H   0  0  0  0  0  0  0  0  0  0  0  0
   60.6885   34.3926   49.6554 H   0  0  0  0  0  0  0  0  0  0  0  0
   61.3338   32.7226   49.5188 H   0  0  0  0  0  0  0  0  0  0  0  0
   62.8500   35.3437   49.0373 H   0  0  0  0  0  0  0  0  0  0  0  0
   63.1058   34.1554   50.3714 H   0  0  0  0  0  0  0  0  0  0  0  0
   63.4613   34.8690   46.9377 H   0  0  0  0  0  0  0  0  0  0  0  0
   64.2231   33.2819   46.5319 H   0  0  0  0  0  0  0  0  0  0  0  0
   61.8275   33.5151   45.7347 H   0  0  0  0  0  0  0  0  0  0  0  0
   62.1098   32.1181   46.8244 H   0  0  0  0  0  0  0  0  0  0  0  0
   58.3302   31.9288   47.3514 H   0  0  0  0  0  0  0  0  0  0  0  0
   56.9195   26.7304   43.8792 H   0  0  0  0  0  0  0  0  0  0  0  0
   59.0386   24.6991   47.0505 H   0  0  0  0  0  0  0  0  0  0  0  0
   59.4163   26.8735   48.2042 H   0  0  0  0  0  0  0  0  0  0  0  0
   57.8400   30.0410   47.3020 H   0  0  0  0  0  0  0  0  0  0  0  0
   61.5572   30.1530   50.5893 H   0  0  0  0  0  0  0  0  0  0  0  0
   61.2203   31.7676   52.4638 H   0  0  0  0  0  0  0  0  0  0  0  0
   57.6491   33.2641   50.5290 H   0  0  0  0  0  0  0  0  0  0  0  0
   57.9777   31.6449   48.6579 H   0  0  0  0  0  0  0  0  0  0  0  0
  1  2  2  0
  2  3  1  0
  3  4  1  0
  4  5  2  0
  5  6  1  0
  6  7  2  0
  7  8  1  0
  8  9  1  0
  9 10  2  0
  9 11  1  0
 11 12  1  0
 12 13  1  0
 13 14  1  0
 14 15  1  0
 15 16  1  0
  8 17  2  0
  2 18  1  0
 18 19  2  0
 19 20  1  0
 20 21  1  0
 20 22  2  0
 22 23  1  0
 23 24  2  0
 24 25  1  0
 25 26  1  0
 26 27  2  0
 26 28  2  0
 26 29  1  0
 29 30  2  0
 30 31  1  0
 31 32  2  0
 32 33  1  0
 32 34  1  0
 34 35  2  0
 17  4  1  0
 24 18  1  0
 35 29  1  0
 16 11  1  0
  5 36  1  0
  6 37  1  0
  7 38  1  0
 12 39  1  0
 12 40  1  0
 13 41  1  0
 13 42  1  0
 15 43  1  0
 15 44  1  0
 16 45  1  0
 16 46  1  0
 17 47  1  0
 19 48  1  0
 22 49  1  0
 23 50  1  0
 25 51  1  0
 30 52  1  0
 31 53  1  0
 34 54  1  0
 35 55  1  0
M  CHG  1   3  -1
M  END
>  <UniqueID>  (62) 
59

>  <SMILES>  (62) 
O=C([N-]c1cccc(C(=O)N2CCOCC2)c1)c1cc(Cl)ccc1NS(=O)(=O)c1ccc(Cl)cc1

>  <Energy>  (62) 
79.17183288706937

>  <Genealogy>  (62) 
O=C([N-]c1cccc(C(=O)N2CCOCC2)c1)c1cc(Cl)ccc1NS(=O)(=O)c1ccc(Cl)cc1 (protonated)
O=C([N-]c1cccc(C(=O)N2CCOCC2)c1)c1cc(Cl)ccc1NS(=O)(=O)c1ccc(Cl)cc1 (3D coordinates assigned)
O=C([N-]c1cccc(C(=O)N2CCOCC2)c1)c1cc(Cl)ccc1NS(=O)(=O)c1ccc(Cl)cc1 (nonaromatic ring conformer: 79.17183288706937 kcal/mol)

>  <smiles>  (62) 
O=C(Nc1cccc(C(=O)N2CCOCC2)c1)c1cc(Cl)ccc1NS(=O)(=O)c1ccc(Cl)cc1

>  <score_type>  (62) 
oracle

>  <origin>  (62) 
adg

>  <m_score__min__energy>  (62) 
-12.08

>  <m_primary>  (62) 
energy

$$$$
62:0
     RDKit          3D

 48 50  0  0  0  0  0  0  0  0999 V2000
   57.3740   21.8280   46.0150 H   0  0  0  0  0  0  0  0  0  0  0  0
   57.4820   22.5540   46.7130 O   0  0  0  0  0  0  0  0  0  0  0  0
   57.0840   23.8640   46.4630 C   0  0  0  0  0  0  0  0  0  0  0  0
   57.9200   24.8250   46.1360 O   0  0  0  0  0  0  0  0  0  0  0  0
   57.2310   25.9330   45.9570 C   0  0  0  0  0  0  0  0  0  0  0  0
   58.7760   27.9120   47.7450 C   0  0  0  0  0  0  0  0  0  0  0  0
   57.8390   27.2160   45.5410 C   0  0  0  0  0  0  0  0  0  0  0  0
   60.8619   27.7633   47.6656 H   0  0  0  0  0  0  0  0  0  0  0  0
   58.1850   28.1830   46.4130 C   0  0  0  0  0  0  0  0  0  0  0  0
   58.0199   29.2305   46.1205 H   0  0  0  0  0  0  0  0  0  0  0  0
   60.2940   29.3640   49.0900 C   0  0  0  0  0  0  0  0  0  0  0  0
   61.1720   29.2510   49.7430 H   0  0  0  0  0  0  0  0  0  0  0  0
   59.5460   30.4680   49.2230 C   0  0  0  0  0  0  0  0  0  0  0  0
   59.1183   30.6720   50.2157 H   0  0  0  0  0  0  0  0  0  0  0  0
   60.0070   28.2890   48.1160 C   0  0  0  0  0  0  0  0  0  0  0  0
   58.1636   27.3653   48.4772 H   0  0  0  0  0  0  0  0  0  0  0  0
   59.2490   31.4340   48.1440 C   0  0  0  0  0  0  0  0  0  0  0  0
   58.5300   31.1770   46.9750 C   0  0  0  0  0  0  0  0  0  0  0  0
   58.0178   30.2440   46.6973 H   0  0  0  0  0  0  0  0  0  0  0  0
   58.6000   32.3460   46.2420 C   0  0  0  0  0  0  0  0  0  0  0  0
   58.0550   32.6860   44.9970 C   0  0  0  0  0  0  0  0  0  0  0  0
   57.2560   31.7320   44.2090 C   0  0  0  0  0  0  0  0  0  0  0  0
   57.4260   31.6730   42.9630 O   0  0  0  0  0  0  0  0  0  0  0  0
   56.3130   30.8470   44.8230 N   0  0  0  0  0  0  0  0  0  0  0  0
   55.6430   29.7560   44.1280 C   0  0  0  0  0  0  0  0  0  0  0  0
   55.2154   29.0598   44.8645 H   0  0  0  0  0  0  0  0  0  0  0  0
   54.8385   30.1622   43.4973 H   0  0  0  0  0  0  0  0  0  0  0  0
   56.3692   29.2222   43.4973 H   0  0  0  0  0  0  0  0  0  0  0  0
   58.2640   34.0020   44.5330 C   0  0  0  0  0  0  0  0  0  0  0  0
   57.8281   34.3181   43.5738 H   0  0  0  0  0  0  0  0  0  0  0  0
   59.0280   34.9160   45.2900 C   0  0  0  0  0  0  0  0  0  0  0  0
   59.1930   35.9350   44.9099 H   0  0  0  0  0  0  0  0  0  0  0  0
   59.5800   34.5350   46.5260 C   0  0  0  0  0  0  0  0  0  0  0  0
   60.1822   35.2386   47.1195 H   0  0  0  0  0  0  0  0  0  0  0  0
   59.3400   33.2380   46.9750 C   0  0  0  0  0  0  0  0  0  0  0  0
   59.7550   32.6880   48.1280 N   0  0  0  0  0  0  0  0  0  0  0  0
   60.3430   33.1390   48.8640 H   0  0  0  0  0  0  0  0  0  0  0  0
   58.1370   27.4150   44.0810 C   0  0  0  0  0  0  0  0  0  0  0  0
   59.0473   28.0229   43.9721 H   0  0  0  0  0  0  0  0  0  0  0  0
   58.2897   26.4370   43.6013 H   0  0  0  0  0  0  0  0  0  0  0  0
   57.2921   27.9308   43.6013 H   0  0  0  0  0  0  0  0  0  0  0  0
   55.8870   25.6690   46.1570 C   0  0  0  0  0  0  0  0  0  0  0  0
   54.8310   26.5600   45.9940 O   0  0  0  0  0  0  0  0  0  0  0  0
   55.7850   24.3410   46.5070 C   0  0  0  0  0  0  0  0  0  0  0  0
   54.5350   23.5620   46.7620 C   0  0  0  0  0  0  0  0  0  0  0  0
   54.3785   23.4645   47.8464 H   0  0  0  0  0  0  0  0  0  0  0  0
   53.6783   24.0864   46.3136 H   0  0  0  0  0  0  0  0  0  0  0  0
   54.6283   22.5619   46.3136 H   0  0  0  0  0  0  0  0  0  0  0  0
  1  2  1  0
  2  3  1  0
  3  4  1  0
  4  5  1  0
  5  6  1  0
  6  7  2  0
  7  8  1  0
  7  9  1  0
  9 10  1  0
  9 11  2  0
 11 12  1  0
 11 13  1  0
 13 14  1  0
 13 15  2  0
 15 16  1  0
 15 17  1  0
 17 18  2  0
 18 19  1  0
 18 20  1  0
 20 21  2  0
 21 22  1  0
 22 23  2  0
 22 24  1  0
 24 25  1  0
 25 26  1  0
 25 27  1  0
 25 28  1  0
 21 29  1  0
 29 30  1  0
 29 31  2  0
 31 32  1  0
 31 33  1  0
 33 34  1  0
 33 35  2  0
 35 36  1  0
 36 37  1  0
  6 38  1  0
 38 39  1  0
 38 40  1  0
 38 41  1  0
  5 42  2  0
 42 43  1  0
 42 44  1  0
 44 45  1  0
 45 46  1  0
 45 47  1  0
 45 48  1  0
 44  3  2  0
 36 17  1  0
 35 20  1  0
M  CHG  2  24  -1  43  -1
M  END
>  <UniqueID>  (63) 
60

>  <SMILES>  (63) 
C[N-]C(=O)c1cccc2[nH]c(/C=C\C=C/C=C(C)c3oc(O)c(C)c3[O-])cc12

>  <Energy>  (63) 
125.13477757445769

>  <Genealogy>  (63) 
C[N-]C(=O)c1cccc2[nH]c(C=CC=CC=C(C)c3oc(O)c(C)c3[O-])cc12 (protonated)
C[N-]C(=O)c1cccc2[nH]c(/C=C\C=C/C=C(C)c3oc(O)c(C)c3[O-])cc12 (cis-trans isomerization)
C[N-]C(=O)c1cccc2[nH]c(/C=C\C=C/C=C(C)c3oc(O)c(C)c3[O-])cc12 (3D coordinates assigned)
C[N-]C(=O)c1cccc2[nH]c(/C=C\C=C/C=C(C)c3oc(O)c(C)c3[O-])cc12 (optimized conformer: 125.13477757445769 kcal/mol)

>  <smiles>  (63) 
CNC(=O)c1cccc2[nH]c(C=CC=CC=C(C)c3oc(O)c(C)c3O)cc12

>  <score_type>  (63) 
oracle

>  <origin>  (63) 
adg

>  <m_score__min__energy>  (63) 
-12.970000000000001

>  <m_primary>  (63) 
energy

$$$$
63:0
     RDKit          3D

 61 65  0  0  0  0  0  0  0  0999 V2000
   54.2882   29.5664   55.6947 H   0  0  0  0  0  0  0  0  0  0  0  0
   53.7140   29.6770   54.7630 C   0  0  0  0  0  0  0  0  0  0  0  0
   52.6985   29.2605   54.6901 H   0  0  0  0  0  0  0  0  0  0  0  0
   54.2530   30.3210   53.7140 C   0  0  0  0  0  0  0  0  0  0  0  0
   53.6300   30.5290   52.4770 C   0  0  0  0  0  0  0  0  0  0  0  0
   52.3750   30.1920   52.1250 C   0  0  0  0  0  0  0  0  0  0  0  0
   51.8240   29.4969   52.7756 H   0  0  0  0  0  0  0  0  0  0  0  0
   51.6950   30.7000   50.9180 C   0  0  0  0  0  0  0  0  0  0  0  0
   51.6610   30.0290   49.7530 N   0  0  0  0  0  0  0  0  0  0  0  0
   51.0240   30.8810   48.9190 C   0  0  0  0  0  0  0  0  0  0  0  0
   50.7840   30.5980   47.7160 O   0  0  0  0  0  0  0  0  0  0  0  0
   50.6740   32.0610   49.4720 N   0  0  0  0  0  0  0  0  0  0  0  0
   51.1160   31.9370   50.7340 C   0  0  0  0  0  0  0  0  0  0  0  0
   51.0330   32.9520   51.6800 O   0  0  0  0  0  0  0  0  0  0  0  0
   54.5500   31.1940   51.6830 C   0  0  0  0  0  0  0  0  0  0  0  0
   54.4034   31.5257   50.6445 H   0  0  0  0  0  0  0  0  0  0  0  0
   55.6840   31.3590   52.4470 C   0  0  0  0  0  0  0  0  0  0  0  0
   56.9300   31.9720   51.9510 C   0  0  0  0  0  0  0  0  0  0  0  0
   57.1610   33.1830   52.2180 O   0  0  0  0  0  0  0  0  0  0  0  0
   57.8750   31.2090   51.1740 N   0  0  0  0  0  0  0  0  0  0  0  0
   57.9000   29.7410   51.2980 C   0  0  0  0  0  0  0  0  0  0  0  0
   57.8713   29.4724   52.3643 H   0  0  0  0  0  0  0  0  0  0  0  0
   57.0259   29.3362   50.7669 H   0  0  0  0  0  0  0  0  0  0  0  0
   59.1610   29.1430   50.6690 C   0  0  0  0  0  0  0  0  0  0  0  0
   60.0309   29.3767   51.3004 H   0  0  0  0  0  0  0  0  0  0  0  0
   59.0461   28.0520   50.5883 H   0  0  0  0  0  0  0  0  0  0  0  0
   59.3620   29.7100   49.3340 N   0  0  0  0  0  0  0  0  0  0  0  0
   59.9080   28.8740   48.3020 C   0  0  0  0  0  0  0  0  0  0  0  0
   61.0270   28.3260   48.4880 O   0  0  0  0  0  0  0  0  0  0  0  0
   59.1720   28.5940   47.0120 C   0  0  0  0  0  0  0  0  0  0  0  0
   58.4950   27.8198   47.4023 H   0  0  0  0  0  0  0  0  0  0  0  0
   58.5930   29.8120   46.2940 C   0  0  0  0  0  0  0  0  0  0  0  0
   57.5118   29.7488   46.1014 H   0  0  0  0  0  0  0  0  0  0  0  0
   58.6250   30.8055   46.7651 H   0  0  0  0  0  0  0  0  0  0  0  0
   59.4610   29.5030   45.0810 C   0  0  0  0  0  0  0  0  0  0  0  0
   58.8915   29.2307   44.1802 H   0  0  0  0  0  0  0  0  0  0  0  0
   60.1084   30.2808   44.6498 H   0  0  0  0  0  0  0  0  0  0  0  0
   60.0720   28.3130   45.8130 C   0  0  0  0  0  0  0  0  0  0  0  0
   59.8859   27.3431   45.3285 H   0  0  0  0  0  0  0  0  0  0  0  0
   61.1619   28.2351   45.9393 H   0  0  0  0  0  0  0  0  0  0  0  0
   59.2370   31.1570   49.1180 C   0  0  0  0  0  0  0  0  0  0  0  0
   60.1809   31.5384   48.7014 H   0  0  0  0  0  0  0  0  0  0  0  0
   58.4020   31.3298   48.4231 H   0  0  0  0  0  0  0  0  0  0  0  0
   58.9340   31.9000   50.4250 C   0  0  0  0  0  0  0  0  0  0  0  0
   59.8457   31.9393   51.0392 H   0  0  0  0  0  0  0  0  0  0  0  0
   58.5950   32.9187   50.1857 H   0  0  0  0  0  0  0  0  0  0  0  0
   55.5110   30.8410   53.6870 N   0  0  0  0  0  0  0  0  0  0  0  0
   56.5700   30.7210   54.7020 C   0  0  0  0  0  0  0  0  0  0  0  0
   57.2312   31.5981   54.6430 H   0  0  0  0  0  0  0  0  0  0  0  0
   56.1080   30.6661   55.6988 H   0  0  0  0  0  0  0  0  0  0  0  0
   57.3780   29.4710   54.4640 C   0  0  0  0  0  0  0  0  0  0  0  0
   56.7300   28.2500   54.2140 C   0  0  0  0  0  0  0  0  0  0  0  0
   55.6317   28.1969   54.2434 H   0  0  0  0  0  0  0  0  0  0  0  0
   57.4750   27.1020   53.9280 C   0  0  0  0  0  0  0  0  0  0  0  0
   56.9622   26.1483   53.7343 H   0  0  0  0  0  0  0  0  0  0  0  0
   58.8710   27.1650   53.8880 C   0  0  0  0  0  0  0  0  0  0  0  0
   59.4558   26.2621   53.6581 H   0  0  0  0  0  0  0  0  0  0  0  0
   59.5240   28.3750   54.1400 C   0  0  0  0  0  0  0  0  0  0  0  0
   60.6226   28.4228   54.1108 H   0  0  0  0  0  0  0  0  0  0  0  0
   58.7830   29.5240   54.4290 C   0  0  0  0  0  0  0  0  0  0  0  0
   59.3006   30.4736   54.6299 H   0  0  0  0  0  0  0  0  0  0  0  0
  1  2  1  0
  2  3  1  0
  2  4  2  0
  4  5  1  0
  5  6  2  0
  6  7  1  0
  6  8  1  0
  8  9  1  0
  9 10  1  0
 10 11  2  0
 10 12  1  0
 12 13  1  0
 13 14  1  0
  5 15  1  0
 15 16  1  0
 15 17  2  0
 17 18  1  0
 18 19  2  0
 18 20  1  0
 20 21  1  0
 21 22  1  0
 21 23  1  0
 21 24  1  0
 24 25  1  0
 24 26  1  0
 24 27  1  0
 27 28  1  0
 28 29  2  0
 28 30  1  0
 30 31  1  0
 30 32  1  0
 32 33  1  0
 32 34  1  0
 32 35  1  0
 35 36  1  0
 35 37  1  0
 35 38  1  0
 38 39  1  0
 38 40  1  0
 27 41  1  0
 41 42  1  0
 41 43  1  0
 41 44  1  0
 44 45  1  0
 44 46  1  0
 17 47  1  0
 47 48  1  0
 48 49  1  0
 48 50  1  0
 48 51  1  0
 51 52  2  0
 52 53  1  0
 52 54  1  0
 54 55  1  0
 54 56  2  0
 56 57  1  0
 56 58  1  0
 58 59  1  0
 58 60  2  0
 60 61  1  0
 47  4  1  0
 60 51  1  0
 13  8  2  0
 44 20  1  0
 38 30  1  0
M  CHG  3   9  -1  12  -1  14  -1
M  END
>  <UniqueID>  (64) 
61

>  <SMILES>  (64) 
C=c1/c(=C/c2[n-]c(=O)[n-]c2[O-])cc(C(=O)N2CCN(C(=O)C3CCC3)CC2)n1Cc1ccccc1

>  <Energy>  (64) 
197.3732211125839

>  <Genealogy>  (64) 
C=c1c(=Cc2[n-]c(=O)[n-]c2[O-])cc(C(=O)N2CCN(C(=O)C3CCC3)CC2)n1Cc1ccccc1 (protonated)
C=c1/c(=C/c2[n-]c(=O)[n-]c2[O-])cc(C(=O)N2CCN(C(=O)C3CCC3)CC2)n1Cc1ccccc1 (cis-trans isomerization)
C=c1/c(=C/c2[n-]c(=O)[n-]c2[O-])cc(C(=O)N2CCN(C(=O)C3CCC3)CC2)n1Cc1ccccc1 (3D coordinates assigned)
C=c1/c(=C/c2[n-]c(=O)[n-]c2[O-])cc(C(=O)N2CCN(C(=O)C3CCC3)CC2)n1Cc1ccccc1 (nonaromatic ring conformer: 197.3732211125839 kcal/mol)

>  <smiles>  (64) 
C=c1c(=Cc2[nH]c(=O)[nH]c2O)cc(C(=O)N2CCN(C(=O)C3CCC3)CC2)n1Cc1ccccc1

>  <score_type>  (64) 
oracle

>  <origin>  (64) 
adg

>  <m_score__min__energy>  (64) 
-17

>  <m_primary>  (64) 
energy

$$$$
64:0
     RDKit          3D

 36 37  0  0  0  0  0  0  0  0999 V2000
   56.8432   33.9023   43.8193 H   0  0  0  0  0  0  0  0  0  0  0  0
   57.5290   33.0890   44.0990 C   0  0  0  0  0  0  0  0  0  0  0  0
   58.1420   33.1440   45.2850 C   0  0  0  0  0  0  0  0  0  0  0  0
   58.0640   32.1090   46.2630 N   0  0  0  0  0  0  0  0  0  0  0  0
   58.7360   32.5160   47.3010 C   0  0  0  0  0  0  0  0  0  0  0  0
   58.8890   31.5190   48.7830 S   0  0  0  0  0  0  0  0  0  0  0  0
   60.3190   30.5850   48.1530 C   0  0  0  0  0  0  0  0  0  0  0  0
   60.9075   30.2006   48.9991 H   0  0  0  0  0  0  0  0  0  0  0  0
   59.9656   29.7430   47.5396 H   0  0  0  0  0  0  0  0  0  0  0  0
   60.9479   31.2470   47.5396 H   0  0  0  0  0  0  0  0  0  0  0  0
   59.3280   33.8120   47.1520 N   0  0  0  0  0  0  0  0  0  0  0  0
   60.1250   34.5620   48.1200 C   0  0  0  0  0  0  0  0  0  0  0  0
   60.1540   35.6205   47.8222 H   0  0  0  0  0  0  0  0  0  0  0  0
   59.6654   34.4599   49.1141 H   0  0  0  0  0  0  0  0  0  0  0  0
   61.5290   34.0250   48.1760 C   0  0  0  0  0  0  0  0  0  0  0  0
   62.2180   33.9540   49.3990 C   0  0  0  0  0  0  0  0  0  0  0  0
   61.7243   34.2799   50.3264 H   0  0  0  0  0  0  0  0  0  0  0  0
   63.5300   33.4700   49.4400 C   0  0  0  0  0  0  0  0  0  0  0  0
   64.0676   33.4210   50.3984 H   0  0  0  0  0  0  0  0  0  0  0  0
   64.1580   33.0490   48.2660 C   0  0  0  0  0  0  0  0  0  0  0  0
   65.1896   32.6688   48.3010 H   0  0  0  0  0  0  0  0  0  0  0  0
   63.4780   33.1100   47.0470 C   0  0  0  0  0  0  0  0  0  0  0  0
   63.9741   32.7772   46.1233 H   0  0  0  0  0  0  0  0  0  0  0  0
   62.1670   33.5940   47.0010 C   0  0  0  0  0  0  0  0  0  0  0  0
   61.6328   33.6375   46.0404 H   0  0  0  0  0  0  0  0  0  0  0  0
   58.9260   34.2240   45.8580 C   0  0  0  0  0  0  0  0  0  0  0  0
   59.1650   35.3540   45.3550 O   0  0  0  0  0  0  0  0  0  0  0  0
   57.7320   32.0080   43.1760 N   0  0  0  0  0  0  0  0  0  0  0  0
   58.1290   32.3300   41.8080 C   0  0  0  0  0  0  0  0  0  0  0  0
   58.9832   33.0228   41.8275 H   0  0  0  0  0  0  0  0  0  0  0  0
   58.4172   31.4073   41.2830 H   0  0  0  0  0  0  0  0  0  0  0  0
   57.2857   32.8024   41.2830 H   0  0  0  0  0  0  0  0  0  0  0  0
   57.2300   30.6680   43.4840 C   0  0  0  0  0  0  0  0  0  0  0  0
   57.1808   30.5367   44.5750 H   0  0  0  0  0  0  0  0  0  0  0  0
   56.2249   30.5452   43.0542 H   0  0  0  0  0  0  0  0  0  0  0  0
   57.9070   29.9151   43.0542 H   0  0  0  0  0  0  0  0  0  0  0  0
  1  2  1  0
  2  3  2  0
  3  4  1  0
  4  5  2  0
  5  6  1  0
  6  7  1  0
  7  8  1  0
  7  9  1  0
  7 10  1  0
  5 11  1  0
 11 12  1  0
 12 13  1  0
 12 14  1  0
 12 15  1  0
 15 16  2  0
 16 17  1  0
 16 18  1  0
 18 19  1  0
 18 20  2  0
 20 21  1  0
 20 22  1  0
 22 23  1  0
 22 24  2  0
 24 25  1  0
 11 26  1  0
 26 27  2  0
  2 28  1  0
 28 29  1  0
 29 30  1  0
 29 31  1  0
 29 32  1  0
 28 33  1  0
 33 34  1  0
 33 35  1  0
 33 36  1  0
 26  3  1  0
 24 15  1  0
M  END
>  <UniqueID>  (65) 
62

>  <SMILES>  (65) 
CSC1=N/C(=C/N(C)C)C(=O)N1Cc1ccccc1

>  <Energy>  (65) 
61.47072995445027

>  <Genealogy>  (65) 
CSC1=N/C(=C/N(C)C)C(=O)N1Cc1ccccc1 (cis-trans isomerization)
CSC1=N/C(=C/N(C)C)C(=O)N1Cc1ccccc1 (3D coordinates assigned)
CSC1=N/C(=C/N(C)C)C(=O)N1Cc1ccccc1 (nonaromatic ring conformer: 61.47072995445027 kcal/mol)

>  <smiles>  (65) 
CSC1=NC(=CN(C)C)C(=O)N1Cc1ccccc1

>  <score_type>  (65) 
oracle

>  <origin>  (65) 
adg

>  <m_score__min__energy>  (65) 
-6.25

>  <m_primary>  (65) 
energy

$$$$
65:0
     RDKit          3D

 60 64  0  0  0  0  0  0  0  0999 V2000
   61.8982   29.7413   51.4192 H   0  0  0  0  0  0  0  0  0  0  0  0
   61.3030   29.8360   50.4990 C   0  0  0  0  0  0  0  0  0  0  0  0
   60.9920   28.7860   49.7100 N   0  0  0  0  0  0  0  0  0  0  0  0
   60.2510   29.3350   48.7320 C   0  0  0  0  0  0  0  0  0  0  0  0
   59.8030   28.6200   47.5750 N   0  0  0  0  0  0  0  0  0  0  0  0
   59.4700   27.2270   47.5380 C   0  0  0  0  0  0  0  0  0  0  0  0
   60.2400   26.4070   48.1040 O   0  0  0  0  0  0  0  0  0  0  0  0
   58.2920   26.7230   46.8050 C   0  0  0  0  0  0  0  0  0  0  0  0
   57.0390   27.1930   46.9810 N   0  0  0  0  0  0  0  0  0  0  0  0
   56.2800   26.5060   46.1090 C   0  0  0  0  0  0  0  0  0  0  0  0
   54.9080   26.6880   45.9840 O   0  0  0  0  0  0  0  0  0  0  0  0
   57.0330   25.6170   45.3700 C   0  0  0  0  0  0  0  0  0  0  0  0
   56.5410   24.6740   44.3120 C   0  0  0  0  0  0  0  0  0  0  0  0
   55.4410   24.6740   44.3078 H   0  0  0  0  0  0  0  0  0  0  0  0
   56.9194   25.0029   43.3329 H   0  0  0  0  0  0  0  0  0  0  0  0
   57.0380   23.2790   44.5890 C   0  0  0  0  0  0  0  0  0  0  0  0
   57.7980   22.7450   43.7340 O   0  0  0  0  0  0  0  0  0  0  0  0
   56.6350   22.5320   45.7600 N   0  0  0  0  0  0  0  0  0  0  0  0
   56.7440   21.0640   45.7740 C   0  0  0  0  0  0  0  0  0  0  0  0
   55.7492   20.6306   45.5935 H   0  0  0  0  0  0  0  0  0  0  0  0
   57.4521   20.7644   44.9874 H   0  0  0  0  0  0  0  0  0  0  0  0
   57.2790   20.5450   47.1290 C   0  0  0  0  0  0  0  0  0  0  0  0
   56.7716   19.5974   47.3627 H   0  0  0  0  0  0  0  0  0  0  0  0
   58.3667   20.4230   47.0195 H   0  0  0  0  0  0  0  0  0  0  0  0
   57.0610   21.4780   48.2490 N   0  0  0  0  0  0  0  0  0  0  0  0
   56.9800   20.9190   49.1310 H   0  0  0  0  0  0  0  0  0  0  0  0
   55.8270   22.2500   48.0830 C   0  0  0  0  0  0  0  0  0  0  0  0
   54.9874   21.5670   47.8865 H   0  0  0  0  0  0  0  0  0  0  0  0
   55.6181   22.8215   48.9994 H   0  0  0  0  0  0  0  0  0  0  0  0
   55.9980   23.2070   46.9020 C   0  0  0  0  0  0  0  0  0  0  0  0
   55.0092   23.5777   46.5941 H   0  0  0  0  0  0  0  0  0  0  0  0
   56.6424   24.0404   47.2186 H   0  0  0  0  0  0  0  0  0  0  0  0
   58.3300   25.7560   45.8130 C   0  0  0  0  0  0  0  0  0  0  0  0
   59.2150   25.2109   45.4529 H   0  0  0  0  0  0  0  0  0  0  0  0
   60.1460   30.6970   48.9290 C   0  0  0  0  0  0  0  0  0  0  0  0
   59.4520   31.6970   48.0820 C   0  0  0  0  0  0  0  0  0  0  0  0
   59.5820   33.0730   48.3220 C   0  0  0  0  0  0  0  0  0  0  0  0
   60.1988   33.4327   49.1587 H   0  0  0  0  0  0  0  0  0  0  0  0
   58.9250   33.9820   47.4940 C   0  0  0  0  0  0  0  0  0  0  0  0
   59.0147   35.0616   47.6846 H   0  0  0  0  0  0  0  0  0  0  0  0
   58.1740   33.5380   46.4520 N   0  0  0  0  0  0  0  0  0  0  0  0
   58.0320   32.2160   46.1720 C   0  0  0  0  0  0  0  0  0  0  0  0
   57.2990   31.8760   45.1480 N   0  0  0  0  0  0  0  0  0  0  0  0
   57.6470   30.9380   44.0770 C   0  0  0  0  0  0  0  0  0  0  0  0
   58.5832   31.3110   43.6361 H   0  0  0  0  0  0  0  0  0  0  0  0
   57.7860   29.5320   44.6360 C   0  0  0  0  0  0  0  0  0  0  0  0
   58.8179   29.3501   44.9708 H   0  0  0  0  0  0  0  0  0  0  0  0
   57.1365   29.3702   45.5089 H   0  0  0  0  0  0  0  0  0  0  0  0
   57.4300   28.6110   43.4860 C   0  0  0  0  0  0  0  0  0  0  0  0
   58.3222   28.3889   42.8821 H   0  0  0  0  0  0  0  0  0  0  0  0
   57.0348   27.6488   43.8438 H   0  0  0  0  0  0  0  0  0  0  0  0
   56.4020   29.3670   42.6560 C   0  0  0  0  0  0  0  0  0  0  0  0
   56.5989   29.2200   41.5838 H   0  0  0  0  0  0  0  0  0  0  0  0
   55.3842   29.0046   42.8627 H   0  0  0  0  0  0  0  0  0  0  0  0
   56.5420   30.8460   43.0190 C   0  0  0  0  0  0  0  0  0  0  0  0
   56.8198   31.4300   42.1292 H   0  0  0  0  0  0  0  0  0  0  0  0
   55.5935   31.2506   43.4018 H   0  0  0  0  0  0  0  0  0  0  0  0
   58.6760   31.2680   46.9930 C   0  0  0  0  0  0  0  0  0  0  0  0
   58.5708   30.1938   46.7809 H   0  0  0  0  0  0  0  0  0  0  0  0
   60.8150   31.0140   50.0530 N   0  0  0  0  0  0  0  0  0  0  0  0
  1  2  1  0
  2  3  2  0
  3  4  1  0
  4  5  1  0
  5  6  1  0
  6  7  2  0
  6  8  1  0
  8  9  1  0
  9 10  1  0
 10 11  1  0
 10 12  2  0
 12 13  1  0
 13 14  1  0
 13 15  1  0
 13 16  1  0
 16 17  2  0
 16 18  1  0
 18 19  1  0
 19 20  1  0
 19 21  1  0
 19 22  1  0
 22 23  1  0
 22 24  1  0
 22 25  1  0
 25 26  1  0
 25 27  1  0
 27 28  1  0
 27 29  1  0
 27 30  1  0
 30 31  1  0
 30 32  1  0
 12 33  1  0
 33 34  1  0
  4 35  2  0
 35 36  1  0
 36 37  1  0
 37 38  1  0
 37 39  2  0
 39 40  1  0
 39 41  1  0
 41 42  1  0
 42 43  2  0
 43 44  1  0
 44 45  1  0
 44 46  1  0
 46 47  1  0
 46 48  1  0
 46 49  1  0
 49 50  1  0
 49 51  1  0
 49 52  1  0
 52 53  1  0
 52 54  1  0
 52 55  1  0
 55 56  1  0
 55 57  1  0
 42 58  1  0
 58 59  1  0
 35 60  1  0
 60  2  1  0
 33  8  2  0
 58 36  2  0
 30 18  1  0
 55 44  1  0
M  CHG  5   5  -1   9  -1  11  -1  41  -1  60  -1
M  END
>  <UniqueID>  (66) 
63

>  <SMILES>  (66) 
O=C([N-]c1nc[n-]c1-c1cc[n-]/c(=N/C2CCCC2)c1)c1cc(CC(=O)N2CCNCC2)c([O-])[n-]1

>  <Energy>  (66) 
130.42159411331542

>  <Genealogy>  (66) 
O=C([N-]c1nc[n-]c1-c1cc[n-]c(=NC2CCCC2)c1)c1cc(CC(=O)N2CCNCC2)c([O-])[n-]1 (protonated)
O=C([N-]c1nc[n-]c1-c1cc[n-]/c(=N/C2CCCC2)c1)c1cc(CC(=O)N2CCNCC2)c([O-])[n-]1 (cis-trans isomerization)
O=C([N-]c1nc[n-]c1-c1cc[n-]/c(=N/C2CCCC2)c1)c1cc(CC(=O)N2CCNCC2)c([O-])[n-]1 (3D coordinates assigned)
O=C([N-]c1nc[n-]c1-c1cc[n-]/c(=N/C2CCCC2)c1)c1cc(CC(=O)N2CCNCC2)c([O-])[n-]1 (nonaromatic ring conformer: 130.42159411331542 kcal/mol)

>  <smiles>  (66) 
O=C(Nc1nc[nH]c1-c1cc[nH]c(=NC2CCCC2)c1)c1cc(CC(=O)N2CCNCC2)c(O)[nH]1

>  <score_type>  (66) 
oracle

>  <origin>  (66) 
adg

>  <m_score__min__energy>  (66) 
-19.600000000000001

>  <m_primary>  (66) 
energy

$$$$
66:0
     RDKit          3D

 64 67  0  0  0  0  0  0  0  0999 V2000
   56.1940   20.8690   49.3950 C   0  0  0  0  0  0  0  0  0  0  0  0
   56.2250   19.9120   48.1960 C   0  0  0  0  0  0  0  0  0  0  0  0
   57.6760   19.6670   47.7120 C   0  0  0  0  0  0  0  0  0  0  0  0
   58.0160   20.5570   46.5070 C   0  0  0  0  0  0  0  0  0  0  0  0
   57.1450   20.2530   45.3470 N   0  0  0  0  0  0  0  0  0  0  0  0
   57.1990   21.5630   44.1880 S   0  0  0  0  0  0  0  0  0  0  0  0
   58.6280   21.9680   43.9500 O   0  0  0  0  0  0  0  0  0  0  0  0
   56.6290   21.0930   42.8770 O   0  0  0  0  0  0  0  0  0  0  0  0
   56.2860   22.9670   44.7500 C   0  0  0  0  0  0  0  0  0  0  0  0
   54.9240   23.0900   44.4480 C   0  0  0  0  0  0  0  0  0  0  0  0
   54.2100   24.2170   44.8600 C   0  0  0  0  0  0  0  0  0  0  0  0
   54.8460   25.2240   45.5930 C   0  0  0  0  0  0  0  0  0  0  0  0
   54.1160   26.3380   45.9910 O   0  0  0  0  0  0  0  0  0  0  0  0
   56.2080   25.1040   45.9300 C   0  0  0  0  0  0  0  0  0  0  0  0
   56.8650   26.1600   46.6580 N   0  0  0  0  0  0  0  0  0  0  0  0
   58.2930   26.2450   46.8210 C   0  0  0  0  0  0  0  0  0  0  0  0
   58.9890   25.1950   46.7720 O   0  0  0  0  0  0  0  0  0  0  0  0
   58.9520   27.5510   47.0740 C   0  0  0  0  0  0  0  0  0  0  0  0
   58.4780   28.7270   46.4630 C   0  0  0  0  0  0  0  0  0  0  0  0
   59.1260   29.9470   46.6770 C   0  0  0  0  0  0  0  0  0  0  0  0
   60.2520   30.0150   47.5090 C   0  0  0  0  0  0  0  0  0  0  0  0
   61.0810   31.5520   47.7360 S   0  0  0  0  0  0  0  0  0  0  0  0
   61.1110   32.3190   46.4470 O   0  0  0  0  0  0  0  0  0  0  0  0
   62.4970   31.2880   48.1650 O   0  0  0  0  0  0  0  0  0  0  0  0
   60.2760   32.4740   48.9670 N   0  0  0  0  0  0  0  0  0  0  0  0
   58.8490   32.6280   48.6760 C   0  0  0  0  0  0  0  0  0  0  0  0
   58.6720   33.3250   47.3550 C   0  0  0  0  0  0  0  0  0  0  0  0
   57.7780   32.8190   46.3910 C   0  0  0  0  0  0  0  0  0  0  0  0
   57.6480   33.4530   45.1510 C   0  0  0  0  0  0  0  0  0  0  0  0
   58.4090   34.5930   44.8620 C   0  0  0  0  0  0  0  0  0  0  0  0
   59.3000   35.0990   45.8130 C   0  0  0  0  0  0  0  0  0  0  0  0
   59.4350   34.4680   47.0560 C   0  0  0  0  0  0  0  0  0  0  0  0
   60.7290   28.8490   48.1230 C   0  0  0  0  0  0  0  0  0  0  0  0
   60.0880   27.6260   47.9050 C   0  0  0  0  0  0  0  0  0  0  0  0
   56.9260   23.9750   45.4870 C   0  0  0  0  0  0  0  0  0  0  0  0
   55.7500   19.8870   45.6980 C   0  0  0  0  0  0  0  0  0  0  0  0
   55.3130   20.4400   47.0630 C   0  0  0  0  0  0  0  0  0  0  0  0
   56.2128   20.2877   50.3287 H   0  0  0  0  0  0  0  0  0  0  0  0
   57.0711   21.5317   49.3579 H   0  0  0  0  0  0  0  0  0  0  0  0
   55.2758   21.4736   49.3579 H   0  0  0  0  0  0  0  0  0  0  0  0
   55.8294   18.9362   48.5144 H   0  0  0  0  0  0  0  0  0  0  0  0
   58.3716   19.8937   48.5334 H   0  0  0  0  0  0  0  0  0  0  0  0
   57.7686   18.6146   47.4056 H   0  0  0  0  0  0  0  0  0  0  0  0
   57.8793   21.6110   46.7907 H   0  0  0  0  0  0  0  0  0  0  0  0
   59.0591   20.3629   46.2168 H   0  0  0  0  0  0  0  0  0  0  0  0
   54.4144   22.2951   43.8837 H   0  0  0  0  0  0  0  0  0  0  0  0
   53.1438   24.3131   44.6072 H   0  0  0  0  0  0  0  0  0  0  0  0
   56.2790   26.8410   47.1880 H   0  0  0  0  0  0  0  0  0  0  0  0
   57.5917   28.6858   45.8127 H   0  0  0  0  0  0  0  0  0  0  0  0
   58.7502   30.8588   46.1897 H   0  0  0  0  0  0  0  0  0  0  0  0
   58.3759   31.6359   48.6320 H   0  0  0  0  0  0  0  0  0  0  0  0
   58.3786   33.2274   49.4694 H   0  0  0  0  0  0  0  0  0  0  0  0
   57.1805   31.9228   46.6141 H   0  0  0  0  0  0  0  0  0  0  0  0
   56.9473   33.0559   44.4018 H   0  0  0  0  0  0  0  0  0  0  0  0
   58.3055   35.0903   43.8863 H   0  0  0  0  0  0  0  0  0  0  0  0
   59.8963   35.9947   45.5845 H   0  0  0  0  0  0  0  0  0  0  0  0
   60.1396   34.8674   47.8003 H   0  0  0  0  0  0  0  0  0  0  0  0
   61.6109   28.8963   48.7788 H   0  0  0  0  0  0  0  0  0  0  0  0
   60.4733   26.7148   48.3859 H   0  0  0  0  0  0  0  0  0  0  0  0
   57.9969   23.8833   45.7209 H   0  0  0  0  0  0  0  0  0  0  0  0
   55.0770   20.2871   44.9253 H   0  0  0  0  0  0  0  0  0  0  0  0
   55.7007   18.7896   45.7550 H   0  0  0  0  0  0  0  0  0  0  0  0
   55.3681   21.5384   47.0399 H   0  0  0  0  0  0  0  0  0  0  0  0
   54.2829   20.1085   47.2606 H   0  0  0  0  0  0  0  0  0  0  0  0
  1  2  1  0
  2  3  1  0
  3  4  1  0
  4  5  1  0
  5  6  1  0
  6  7  2  0
  6  8  2  0
  6  9  1  0
  9 10  2  0
 10 11  1  0
 11 12  2  0
 12 13  1  0
 12 14  1  0
 14 15  1  0
 15 16  1  0
 16 17  2  0
 16 18  1  0
 18 19  2  0
 19 20  1  0
 20 21  2  0
 21 22  1  0
 22 23  2  0
 22 24  2  0
 22 25  1  0
 25 26  1  0
 26 27  1  0
 27 28  2  0
 28 29  1  0
 29 30  2  0
 30 31  1  0
 31 32  2  0
 21 33  1  0
 33 34  2  0
 14 35  2  0
  5 36  1  0
 36 37  1  0
 37  2  1  0
 35  9  1  0
 34 18  1  0
 32 27  1  0
  1 38  1  0
  1 39  1  0
  1 40  1  0
  2 41  1  0
  3 42  1  0
  3 43  1  0
  4 44  1  0
  4 45  1  0
 10 46  1  0
 11 47  1  0
 15 48  1  0
 19 49  1  0
 20 50  1  0
 26 51  1  0
 26 52  1  0
 28 53  1  0
 29 54  1  0
 30 55  1  0
 31 56  1  0
 32 57  1  0
 33 58  1  0
 34 59  1  0
 35 60  1  0
 36 61  1  0
 36 62  1  0
 37 63  1  0
 37 64  1  0
M  CHG  2  13  -1  25  -1
M  END
>  <UniqueID>  (67) 
64

>  <SMILES>  (67) 
CC1CCN(S(=O)(=O)c2ccc([O-])c(NC(=O)c3ccc(S(=O)(=O)[N-]Cc4ccccc4)cc3)c2)CC1

>  <Energy>  (67) 
76.2537829190065

>  <Genealogy>  (67) 
CC1CCN(S(=O)(=O)c2ccc([O-])c(NC(=O)c3ccc(S(=O)(=O)[N-]Cc4ccccc4)cc3)c2)CC1 (protonated)
CC1CCN(S(=O)(=O)c2ccc([O-])c(NC(=O)c3ccc(S(=O)(=O)[N-]Cc4ccccc4)cc3)c2)CC1 (3D coordinates assigned)
CC1CCN(S(=O)(=O)c2ccc([O-])c(NC(=O)c3ccc(S(=O)(=O)[N-]Cc4ccccc4)cc3)c2)CC1 (nonaromatic ring conformer: 76.2537829190065 kcal/mol)

>  <smiles>  (67) 
CC1CCN(S(=O)(=O)c2ccc(O)c(NC(=O)c3ccc(S(=O)(=O)NCc4ccccc4)cc3)c2)CC1

>  <score_type>  (67) 
oracle

>  <origin>  (67) 
adg

>  <m_score__min__energy>  (67) 
-14.609999999999999

>  <m_primary>  (67) 
energy

$$$$
67:0
     RDKit          3D

 58 63  0  0  0  0  0  0  0  0999 V2000
   58.3058   26.7067   44.1780 H   0  0  0  0  0  0  0  0  0  0  0  0
   57.7560   27.0860   45.0520 C   0  0  0  0  0  0  0  0  0  0  0  0
   57.2170   26.1050   46.0080 C   0  0  0  0  0  0  0  0  0  0  0  0
   57.9550   25.1210   46.5490 N   0  0  0  0  0  0  0  0  0  0  0  0
   57.0630   24.4280   47.2890 C   0  0  0  0  0  0  0  0  0  0  0  0
   57.3850   23.4200   47.9700 O   0  0  0  0  0  0  0  0  0  0  0  0
   55.7970   24.8920   47.2320 N   0  0  0  0  0  0  0  0  0  0  0  0
   55.9070   25.9480   46.4090 C   0  0  0  0  0  0  0  0  0  0  0  0
   54.8240   26.7130   45.9940 O   0  0  0  0  0  0  0  0  0  0  0  0
   57.6180   28.4140   45.1810 C   0  0  0  0  0  0  0  0  0  0  0  0
   56.8680   29.3080   44.4110 C   0  0  0  0  0  0  0  0  0  0  0  0
   56.2813   29.0378   43.5206 H   0  0  0  0  0  0  0  0  0  0  0  0
   56.9720   30.5580   44.9260 N   0  0  0  0  0  0  0  0  0  0  0  0
   57.7580   30.4690   45.9870 N   0  0  0  0  0  0  0  0  0  0  0  0
   58.1400   31.4610   46.8270 C   0  0  0  0  0  0  0  0  0  0  0  0
   57.7300   32.6850   46.6200 N   0  0  0  0  0  0  0  0  0  0  0  0
   58.4180   33.8960   46.1310 C   0  0  0  0  0  0  0  0  0  0  0  0
   57.6112   34.1509   45.4280 H   0  0  0  0  0  0  0  0  0  0  0  0
   59.9350   33.8480   46.0480 C   0  0  0  0  0  0  0  0  0  0  0  0
   60.4719   32.9248   46.3114 H   0  0  0  0  0  0  0  0  0  0  0  0
   60.6795   34.0567   45.2656 H   0  0  0  0  0  0  0  0  0  0  0  0
   59.2490   34.6730   47.1390 C   0  0  0  0  0  0  0  0  0  0  0  0
   59.2922   34.3435   48.1876 H   0  0  0  0  0  0  0  0  0  0  0  0
   59.2949   35.7218   47.4675 H   0  0  0  0  0  0  0  0  0  0  0  0
   58.9490   31.1270   47.8710 N   0  0  0  0  0  0  0  0  0  0  0  0
   59.3610   29.8350   48.0660 C   0  0  0  0  0  0  0  0  0  0  0  0
   60.2420   29.4970   49.2100 C   0  0  0  0  0  0  0  0  0  0  0  0
   61.0160   30.4910   49.8370 C   0  0  0  0  0  0  0  0  0  0  0  0
   60.9629   31.5305   49.4812 H   0  0  0  0  0  0  0  0  0  0  0  0
   61.8510   30.1660   50.9080 C   0  0  0  0  0  0  0  0  0  0  0  0
   62.4552   30.9499   51.3882 H   0  0  0  0  0  0  0  0  0  0  0  0
   61.9230   28.8530   51.3720 C   0  0  0  0  0  0  0  0  0  0  0  0
   62.5894   28.6046   52.2112 H   0  0  0  0  0  0  0  0  0  0  0  0
   61.1490   27.8470   50.7730 C   0  0  0  0  0  0  0  0  0  0  0  0
   61.2370   26.4520   51.2590 C   0  0  0  0  0  0  0  0  0  0  0  0
   62.1860   25.7230   50.8590 O   0  0  0  0  0  0  0  0  0  0  0  0
   60.2630   25.9040   52.1700 N   0  0  0  0  0  0  0  0  0  0  0  0
   59.6760   26.7300   53.2340 C   0  0  0  0  0  0  0  0  0  0  0  0
   58.6700   27.0485   52.9233 H   0  0  0  0  0  0  0  0  0  0  0  0
   60.3334   27.5971   53.3953 H   0  0  0  0  0  0  0  0  0  0  0  0
   59.5660   25.9560   54.5680 C   0  0  0  0  0  0  0  0  0  0  0  0
   58.6286   26.2487   55.0635 H   0  0  0  0  0  0  0  0  0  0  0  0
   60.4533   26.2143   55.1646 H   0  0  0  0  0  0  0  0  0  0  0  0
   59.5680   24.4830   54.4020 N   0  0  0  0  0  0  0  0  0  0  0  0
   58.9170   23.8330   55.5490 C   0  0  0  0  0  0  0  0  0  0  0  0
   59.3272   24.2425   56.4839 H   0  0  0  0  0  0  0  0  0  0  0  0
   57.8338   24.0207   55.5106 H   0  0  0  0  0  0  0  0  0  0  0  0
   59.1030   22.7495   55.5106 H   0  0  0  0  0  0  0  0  0  0  0  0
   58.9270   24.0720   53.1420 C   0  0  0  0  0  0  0  0  0  0  0  0
   57.9362   24.5427   53.0592 H   0  0  0  0  0  0  0  0  0  0  0  0
   58.8044   22.9790   53.1212 H   0  0  0  0  0  0  0  0  0  0  0  0
   59.8090   24.5210   51.9790 C   0  0  0  0  0  0  0  0  0  0  0  0
   59.2328   24.4569   51.0442 H   0  0  0  0  0  0  0  0  0  0  0  0
   60.6906   23.8647   51.9324 H   0  0  0  0  0  0  0  0  0  0  0  0
   60.3250   28.1730   49.6830 C   0  0  0  0  0  0  0  0  0  0  0  0
   59.7367   27.3836   49.1923 H   0  0  0  0  0  0  0  0  0  0  0  0
   58.9540   28.8580   47.2010 N   0  0  0  0  0  0  0  0  0  0  0  0
   58.1520   29.2090   46.1690 C   0  0  0  0  0  0  0  0  0  0  0  0
  1  2  1  0
  2  3  1  0
  3  4  1  0
  4  5  1  0
  5  6  2  0
  5  7  1  0
  7  8  1  0
  8  9  1  0
  2 10  2  0
 10 11  1  0
 11 12  1  0
 11 13  2  0
 13 14  1  0
 14 15  1  0
 15 16  2  0
 16 17  1  0
 17 18  1  0
 17 19  1  0
 19 20  1  0
 19 21  1  0
 19 22  1  0
 22 23  1  0
 22 24  1  0
 15 25  1  0
 25 26  2  0
 26 27  1  0
 27 28  2  0
 28 29  1  0
 28 30  1  0
 30 31  1  0
 30 32  2  0
 32 33  1  0
 32 34  1  0
 34 35  1  0
 35 36  2  0
 35 37  1  0
 37 38  1  0
 38 39  1  0
 38 40  1  0
 38 41  1  0
 41 42  1  0
 41 43  1  0
 41 44  1  0
 44 45  1  0
 45 46  1  0
 45 47  1  0
 45 48  1  0
 44 49  1  0
 49 50  1  0
 49 51  1  0
 49 52  1  0
 52 53  1  0
 52 54  1  0
 34 55  2  0
 55 56  1  0
 26 57  1  0
 57 58  2  0
  8  3  2  0
 58 10  1  0
 58 14  1  0
 22 17  1  0
 55 27  1  0
 52 37  1  0
M  CHG  3   4  -1   7  -1   9  -1
M  END
>  <UniqueID>  (68) 
65

>  <SMILES>  (68) 
CN1CCN(C(=O)c2cccc(-c3n/c(=N\C4CC4)n4nc/c(=C\c5[n-]c(=O)[n-]c5[O-])c4n3)c2)CC1

>  <Energy>  (68) 
422.7296427187324

>  <Genealogy>  (68) 
CN1CCN(C(=O)c2cccc(-c3nc(=NC4CC4)n4ncc(=Cc5[n-]c(=O)[n-]c5[O-])c4n3)c2)CC1 (protonated)
CN1CCN(C(=O)c2cccc(-c3n/c(=N\C4CC4)n4nc/c(=C\c5[n-]c(=O)[n-]c5[O-])c4n3)c2)CC1 (cis-trans isomerization)
CN1CCN(C(=O)c2cccc(-c3n/c(=N\C4CC4)n4nc/c(=C\c5[n-]c(=O)[n-]c5[O-])c4n3)c2)CC1 (3D coordinates assigned)
CN1CCN(C(=O)c2cccc(-c3n/c(=N\C4CC4)n4nc/c(=C\c5[n-]c(=O)[n-]c5[O-])c4n3)c2)CC1 (nonaromatic ring conformer: 422.7296427187324 kcal/mol)

>  <smiles>  (68) 
CN1CCN(C(=O)c2cccc(-c3nc(=NC4CC4)n4ncc(=Cc5[nH]c(=O)[nH]c5O)c4n3)c2)CC1

>  <score_type>  (68) 
oracle

>  <origin>  (68) 
adg

>  <m_score__min__energy>  (68) 
-18.629999999999999

>  <m_primary>  (68) 
energy

$$$$
68:0
     RDKit          3D

 43 45  0  0  0  0  0  0  0  0999 V2000
   54.3540   28.9450   44.4410 H   0  0  0  0  0  0  0  0  0  0  0  0
   55.2600   29.4650   44.4120 N   0  0  0  0  0  0  0  0  0  0  0  0
   56.2880   29.1140   45.1180 C   0  0  0  0  0  0  0  0  0  0  0  0
   56.3480   27.8570   45.6290 N   0  0  0  0  0  0  0  0  0  0  0  0
   57.3950   27.4210   46.3830 C   0  0  0  0  0  0  0  0  0  0  0  0
   57.3630   26.0060   46.8860 C   0  0  0  0  0  0  0  0  0  0  0  0
   57.3630   26.0078   47.9860 H   0  0  0  0  0  0  0  0  0  0  0  0
   56.4533   25.5073   46.5202 H   0  0  0  0  0  0  0  0  0  0  0  0
   58.2492   25.4667   46.5202 H   0  0  0  0  0  0  0  0  0  0  0  0
   58.4700   28.3000   46.6590 C   0  0  0  0  0  0  0  0  0  0  0  0
   59.6710   27.9010   47.4880 C   0  0  0  0  0  0  0  0  0  0  0  0
   59.3317   27.3297   48.3646 H   0  0  0  0  0  0  0  0  0  0  0  0
   60.3408   27.2857   46.8693 H   0  0  0  0  0  0  0  0  0  0  0  0
   60.3990   29.0830   47.9380 N   0  0  0  0  0  0  0  0  0  0  0  0
   60.8850   29.2560   49.2720 C   0  0  0  0  0  0  0  0  0  0  0  0
   61.1260   28.2550   49.9990 O   0  0  0  0  0  0  0  0  0  0  0  0
   61.0790   30.6360   49.8190 C   0  0  0  0  0  0  0  0  0  0  0  0
   60.1125   31.0235   50.1735 H   0  0  0  0  0  0  0  0  0  0  0  0
   61.7985   30.5901   50.6498 H   0  0  0  0  0  0  0  0  0  0  0  0
   61.6110   31.5380   48.7780 N   0  0  0  0  0  0  0  0  0  0  0  0
   62.9700   31.6230   48.6460 C   0  0  0  0  0  0  0  0  0  0  0  0
   63.6165   31.0303   49.3099 H   0  0  0  0  0  0  0  0  0  0  0  0
   63.5330   32.4270   47.7090 N   0  0  0  0  0  0  0  0  0  0  0  0
   64.5750   32.4720   47.6430 H   0  0  0  0  0  0  0  0  0  0  0  0
   62.7730   33.1660   46.8640 C   0  0  0  0  0  0  0  0  0  0  0  0
   63.3370   33.9030   46.0080 O   0  0  0  0  0  0  0  0  0  0  0  0
   61.3750   33.1000   46.9460 C   0  0  0  0  0  0  0  0  0  0  0  0
   60.5560   33.8430   46.0760 C   0  0  0  0  0  0  0  0  0  0  0  0
   61.0156   34.5054   45.3277 H   0  0  0  0  0  0  0  0  0  0  0  0
   59.1620   33.7470   46.1540 C   0  0  0  0  0  0  0  0  0  0  0  0
   58.2960   34.5670   45.2450 C   0  0  0  0  0  0  0  0  0  0  0  0
   57.6278   35.1998   45.8476 H   0  0  0  0  0  0  0  0  0  0  0  0
   58.9300   35.2036   44.6103 H   0  0  0  0  0  0  0  0  0  0  0  0
   57.6950   33.8992   44.6103 H   0  0  0  0  0  0  0  0  0  0  0  0
   58.5830   32.9270   47.1280 C   0  0  0  0  0  0  0  0  0  0  0  0
   57.4876   32.8648   47.2074 H   0  0  0  0  0  0  0  0  0  0  0  0
   59.3830   32.1870   48.0000 C   0  0  0  0  0  0  0  0  0  0  0  0
   58.9097   31.5388   48.7522 H   0  0  0  0  0  0  0  0  0  0  0  0
   60.7940   32.2590   47.9300 C   0  0  0  0  0  0  0  0  0  0  0  0
   58.4230   29.5980   46.1250 C   0  0  0  0  0  0  0  0  0  0  0  0
   59.2524   30.2957   46.3129 H   0  0  0  0  0  0  0  0  0  0  0  0
   57.3340   30.0090   45.3590 C   0  0  0  0  0  0  0  0  0  0  0  0
   57.2979   31.0286   44.9477 H   0  0  0  0  0  0  0  0  0  0  0  0
  1  2  1  0
  2  3  2  0
  3  4  1  0
  4  5  1  0
  5  6  1  0
  6  7  1  0
  6  8  1  0
  6  9  1  0
  5 10  2  0
 10 11  1  0
 11 12  1  0
 11 13  1  0
 11 14  1  0
 14 15  1  0
 15 16  2  0
 15 17  1  0
 17 18  1  0
 17 19  1  0
 17 20  1  0
 20 21  1  0
 21 22  1  0
 21 23  2  0
 23 24  1  0
 23 25  1  0
 25 26  2  0
 25 27  1  0
 27 28  2  0
 28 29  1  0
 28 30  1  0
 30 31  1  0
 31 32  1  0
 31 33  1  0
 31 34  1  0
 30 35  2  0
 35 36  1  0
 35 37  1  0
 37 38  1  0
 37 39  2  0
 10 40  1  0
 40 41  1  0
 40 42  2  0
 42 43  1  0
 42  3  1  0
 39 20  1  0
 39 27  1  0
M  CHG  3   4  -1  14  -1  23   1
M  END
>  <UniqueID>  (69) 
66

>  <SMILES>  (69) 
[H]/N=c1\ccc(C[N-]C(=O)Cn2c[nH+]c(=O)c3cc(C)ccc32)c(C)[n-]1

>  <Energy>  (69) 
51.772007160059715

>  <Genealogy>  (69) 
Cc1ccc2c(c1)c(=O)[nH+]cn2CC(=O)[N-]Cc1ccc(=N)[n-]c1C (protonated)
[H]/N=c1\ccc(C[N-]C(=O)Cn2c[nH+]c(=O)c3cc(C)ccc32)c(C)[n-]1 (cis-trans isomerization)
[H]/N=c1\ccc(C[N-]C(=O)Cn2c[nH+]c(=O)c3cc(C)ccc32)c(C)[n-]1 (3D coordinates assigned)
[H]/N=c1\ccc(C[N-]C(=O)Cn2c[nH+]c(=O)c3cc(C)ccc32)c(C)[n-]1 (optimized conformer: 51.772007160059715 kcal/mol)

>  <smiles>  (69) 
Cc1ccc2c(c1)c(=O)ncn2CC(=O)NCc1ccc(=N)[nH]c1C

>  <score_type>  (69) 
oracle

>  <origin>  (69) 
adg

>  <m_score__min__energy>  (69) 
-9.8800000000000008

>  <m_primary>  (69) 
energy

$$$$
69:0
     RDKit          3D

 49 51  0  0  0  0  0  0  0  0999 V2000
   62.8770   31.6880   47.1840 C   0  0  0  0  0  0  0  0  0  0  0  0
   61.7380   32.5860   47.5700 C   0  0  0  0  0  0  0  0  0  0  0  0
   61.2890   32.6220   48.8980 C   0  0  0  0  0  0  0  0  0  0  0  0
   60.2500   33.4790   49.2670 C   0  0  0  0  0  0  0  0  0  0  0  0
   59.6600   34.3170   48.3170 C   0  0  0  0  0  0  0  0  0  0  0  0
   60.1140   34.3100   46.9880 C   0  0  0  0  0  0  0  0  0  0  0  0
   59.4900   35.2280   45.9600 C   0  0  0  0  0  0  0  0  0  0  0  0
   58.3620   34.5890   45.2360 N   0  0  2  0  0  0  0  0  0  0  0  0
   57.4370   33.8750   46.1660 C   0  0  0  0  0  0  0  0  0  0  0  0
   57.8300   32.4080   46.4070 C   0  0  0  0  0  0  0  0  0  0  0  0
   57.9720   31.6070   45.0880 C   0  0  1  0  0  0  0  0  0  0  0  0
   56.9850   30.5120   44.9930 N   0  0  0  0  0  0  0  0  0  0  0  0
   57.4590   29.3140   44.2820 C   0  0  0  0  0  0  0  0  0  0  0  0
   57.7380   28.2170   45.2790 C   0  0  0  0  0  0  0  0  0  0  0  0
   56.6890   27.3630   45.6670 C   0  0  0  0  0  0  0  0  0  0  0  0
   56.9110   26.3480   46.6040 C   0  0  0  0  0  0  0  0  0  0  0  0
   58.1760   26.1850   47.1710 C   0  0  0  0  0  0  0  0  0  0  0  0
   58.3910   25.2000   48.0780 F   0  0  0  0  0  0  0  0  0  0  0  0
   59.2220   27.0380   46.8070 C   0  0  0  0  0  0  0  0  0  0  0  0
   59.0120   28.0560   45.8680 C   0  0  0  0  0  0  0  0  0  0  0  0
   60.3690   29.1060   45.4600 Cl  0  0  0  0  0  0  0  0  0  0  0  0
   57.9960   32.5190   43.8420 C   0  0  0  0  0  0  0  0  0  0  0  0
   58.8870   33.7340   44.1310 C   0  0  0  0  0  0  0  0  0  0  0  0
   61.1560   33.4420   46.6200 C   0  0  0  0  0  0  0  0  0  0  0  0
   63.3647   31.3035   48.0919 H   0  0  0  0  0  0  0  0  0  0  0  0
   62.4945   30.8459   46.5886 H   0  0  0  0  0  0  0  0  0  0  0  0
   63.6066   32.2565   46.5886 H   0  0  0  0  0  0  0  0  0  0  0  0
   61.7572   31.9724   49.6522 H   0  0  0  0  0  0  0  0  0  0  0  0
   59.8951   33.4945   50.3081 H   0  0  0  0  0  0  0  0  0  0  0  0
   58.8368   34.9847   48.6113 H   0  0  0  0  0  0  0  0  0  0  0  0
   59.1165   36.1276   46.4711 H   0  0  0  0  0  0  0  0  0  0  0  0
   60.2647   35.4754   45.2193 H   0  0  0  0  0  0  0  0  0  0  0  0
   57.8030   35.3520   44.7830 H   0  0  0  0  0  0  0  0  0  0  0  0
   57.4393   34.4004   47.1324 H   0  0  0  0  0  0  0  0  0  0  0  0
   56.4416   33.8730   45.6978 H   0  0  0  0  0  0  0  0  0  0  0  0
   58.7920   32.3835   46.9398 H   0  0  0  0  0  0  0  0  0  0  0  0
   57.0285   31.9401   46.9974 H   0  0  0  0  0  0  0  0  0  0  0  0
   58.9587   31.1215   45.1145 H   0  0  0  0  0  0  0  0  0  0  0  0
   56.7050   30.2320   45.9620 H   0  0  0  0  0  0  0  0  0  0  0  0
   56.6873   28.9784   43.5735 H   0  0  0  0  0  0  0  0  0  0  0  0
   58.3810   29.5539   43.7322 H   0  0  0  0  0  0  0  0  0  0  0  0
   55.6878   27.4943   45.2307 H   0  0  0  0  0  0  0  0  0  0  0  0
   56.0882   25.6781   46.8940 H   0  0  0  0  0  0  0  0  0  0  0  0
   60.2158   26.9090   47.2606 H   0  0  0  0  0  0  0  0  0  0  0  0
   58.3995   31.9612   42.9841 H   0  0  0  0  0  0  0  0  0  0  0  0
   56.9751   32.8538   43.6062 H   0  0  0  0  0  0  0  0  0  0  0  0
   59.8891   33.3761   44.4098 H   0  0  0  0  0  0  0  0  0  0  0  0
   58.9114   34.3499   43.2199 H   0  0  0  0  0  0  0  0  0  0  0  0
   61.5184   33.4327   45.5814 H   0  0  0  0  0  0  0  0  0  0  0  0
  1  2  1  0
  2  3  2  0
  3  4  1  0
  4  5  2  0
  5  6  1  0
  6  7  1  0
  7  8  1  0
  8  9  1  0
  9 10  1  0
 10 11  1  0
 11 12  1  0
 12 13  1  0
 13 14  1  0
 14 15  2  0
 15 16  1  0
 16 17  2  0
 17 18  1  0
 17 19  1  0
 19 20  2  0
 20 21  1  0
 11 22  1  0
 22 23  1  0
  6 24  2  0
 24  2  1  0
 23  8  1  0
 20 14  1  0
  1 25  1  0
  1 26  1  0
  1 27  1  0
  3 28  1  0
  4 29  1  0
  5 30  1  0
  7 31  1  0
  7 32  1  0
  8 33  1  6
  9 34  1  0
  9 35  1  0
 10 36  1  0
 10 37  1  0
 11 38  1  1
 12 39  1  0
 13 40  1  0
 13 41  1  0
 15 42  1  0
 16 43  1  0
 19 44  1  0
 22 45  1  0
 22 46  1  0
 23 47  1  0
 23 48  1  0
 24 49  1  0
M  CHG  1   8   1
M  END
>  <UniqueID>  (70) 
67

>  <SMILES>  (70) 
Cc1cccc(C[NH+]2CCC(NCc3ccc(F)cc3Cl)CC2)c1

>  <Energy>  (70) 
63.56069312693646

>  <Genealogy>  (70) 
Cc1cccc(C[NH+]2CCC(NCc3ccc(F)cc3Cl)CC2)c1 (protonated)
Cc1cccc(C[NH+]2CCC(NCc3ccc(F)cc3Cl)CC2)c1 (3D coordinates assigned)
Cc1cccc(C[NH+]2CCC(NCc3ccc(F)cc3Cl)CC2)c1 (nonaromatic ring conformer: 63.56069312693646 kcal/mol)

>  <smiles>  (70) 
Cc1cccc(CN2CCC(NCc3ccc(F)cc3Cl)CC2)c1

>  <score_type>  (70) 
oracle

>  <origin>  (70) 
adg

>  <m_score__min__energy>  (70) 
-7

>  <m_primary>  (70) 
energy

$$$$
70:0
     RDKit          3D

 37 39  0  0  0  0  0  0  0  0999 V2000
   55.1450   26.3230   46.9170 H   0  0  0  0  0  0  0  0  0  0  0  0
   54.8330   26.0920   45.9830 O   0  0  0  0  0  0  0  0  0  0  0  0
   54.4410   24.7990   45.6470 C   0  0  0  0  0  0  0  0  0  0  0  0
   53.2080   24.3190   45.8760 N   0  0  0  0  0  0  0  0  0  0  0  0
   53.2690   23.0760   45.3530 C   0  0  0  0  0  0  0  0  0  0  0  0
   52.2880   22.2890   45.3630 O   0  0  0  0  0  0  0  0  0  0  0  0
   54.4600   22.7480   44.8080 N   0  0  0  0  0  0  0  0  0  0  0  0
   55.2130   23.8410   45.0240 C   0  0  0  0  0  0  0  0  0  0  0  0
   56.5810   23.9940   44.5090 C   0  0  0  0  0  0  0  0  0  0  0  0
   56.7722   23.6530   43.4808 H   0  0  0  0  0  0  0  0  0  0  0  0
   57.6210   24.5160   45.1880 C   0  0  0  0  0  0  0  0  0  0  0  0
   57.6390   25.8220   45.6510 C   0  0  0  0  0  0  0  0  0  0  0  0
   56.8636   26.5859   45.4923 H   0  0  0  0  0  0  0  0  0  0  0  0
   58.8190   25.9780   46.3500 C   0  0  0  0  0  0  0  0  0  0  0  0
   59.2500   27.2260   47.0040 C   0  0  0  0  0  0  0  0  0  0  0  0
   58.8350   27.4790   48.1660 O   0  0  0  0  0  0  0  0  0  0  0  0
   60.1560   28.1460   46.3810 N   0  0  0  0  0  0  0  0  0  0  0  0
   60.0650   28.6430   45.0080 C   0  0  0  0  0  0  0  0  0  0  0  0
   60.9449   29.2665   44.7912 H   0  0  0  0  0  0  0  0  0  0  0  0
   60.0270   27.7826   44.3237 H   0  0  0  0  0  0  0  0  0  0  0  0
   58.8180   29.4660   44.8180 C   0  0  0  0  0  0  0  0  0  0  0  0
   58.9040   30.8440   44.5500 C   0  0  0  0  0  0  0  0  0  0  0  0
   59.8891   31.3272   44.4716 H   0  0  0  0  0  0  0  0  0  0  0  0
   57.7410   31.6010   44.3830 C   0  0  0  0  0  0  0  0  0  0  0  0
   57.8132   32.6784   44.1731 H   0  0  0  0  0  0  0  0  0  0  0  0
   56.4870   30.9930   44.4820 C   0  0  0  0  0  0  0  0  0  0  0  0
   55.5736   31.5923   44.3536 H   0  0  0  0  0  0  0  0  0  0  0  0
   56.3930   29.6240   44.7440 C   0  0  0  0  0  0  0  0  0  0  0  0
   55.1460   29.0200   44.8420 O   0  0  0  0  0  0  0  0  0  0  0  0
   57.5540   28.8610   44.9090 C   0  0  0  0  0  0  0  0  0  0  0  0
   57.4764   27.7825   45.1109 H   0  0  0  0  0  0  0  0  0  0  0  0
   59.5490   24.8490   46.3000 N   0  0  0  0  0  0  0  0  0  0  0  0
   60.5180   24.7210   46.6680 H   0  0  0  0  0  0  0  0  0  0  0  0
   58.8440   23.9510   45.5810 C   0  0  0  0  0  0  0  0  0  0  0  0
   59.3560   22.7630   45.2430 C   0  0  0  0  0  0  0  0  0  0  0  0
   58.7557   22.0523   44.6560 H   0  0  0  0  0  0  0  0  0  0  0  0
   60.3775   22.4963   45.5519 H   0  0  0  0  0  0  0  0  0  0  0  0
  1  2  1  0
  2  3  1  0
  3  4  1  0
  4  5  1  0
  5  6  2  0
  5  7  1  0
  7  8  1  0
  8  9  1  0
  9 10  1  0
  9 11  2  0
 11 12  1  0
 12 13  1  0
 12 14  2  0
 14 15  1  0
 15 16  2  0
 15 17  1  0
 17 18  1  0
 18 19  1  0
 18 20  1  0
 18 21  1  0
 21 22  2  0
 22 23  1  0
 22 24  1  0
 24 25  1  0
 24 26  2  0
 26 27  1  0
 26 28  1  0
 28 29  1  0
 28 30  2  0
 30 31  1  0
 14 32  1  0
 32 33  1  0
 32 34  1  0
 34 35  2  0
 35 36  1  0
 35 37  1  0
  8  3  2  0
 34 11  1  0
 30 21  1  0
M  CHG  4   4  -1   7  -1  17  -1  29  -1
M  END
>  <UniqueID>  (71) 
68

>  <SMILES>  (71) 
C=c1[nH]c(C(=O)[N-]Cc2cccc([O-])c2)c/c1=C/c1[n-]c(=O)[n-]c1O

>  <Energy>  (71) 
107.04251076391222

>  <Genealogy>  (71) 
C=c1[nH]c(C(=O)[N-]Cc2cccc([O-])c2)cc1=Cc1[n-]c(=O)[n-]c1O (protonated)
C=c1[nH]c(C(=O)[N-]Cc2cccc([O-])c2)c/c1=C/c1[n-]c(=O)[n-]c1O (cis-trans isomerization)
C=c1[nH]c(C(=O)[N-]Cc2cccc([O-])c2)c/c1=C/c1[n-]c(=O)[n-]c1O (3D coordinates assigned)
C=c1[nH]c(C(=O)[N-]Cc2cccc([O-])c2)c/c1=C/c1[n-]c(=O)[n-]c1O (optimized conformer: 107.04251076391222 kcal/mol)

>  <smiles>  (71) 
C=c1[nH]c(C(=O)NCc2cccc(O)c2)cc1=Cc1[nH]c(=O)[nH]c1O

>  <score_type>  (71) 
oracle

>  <origin>  (71) 
adg

>  <m_score__min__energy>  (71) 
-15.91

>  <m_primary>  (71) 
energy

$$$$
71:0
     RDKit          3D

 37 39  0  0  0  0  0  0  0  0999 V2000
   55.1639   28.4595   45.1821 H   0  0  0  0  0  0  0  0  0  0  0  0
   56.1360   28.9740   45.1660 C   0  0  0  0  0  0  0  0  0  0  0  0
   56.2160   30.2540   44.7180 N   0  0  0  0  0  0  0  0  0  0  0  0
   57.3950   30.9400   44.6910 C   0  0  0  0  0  0  0  0  0  0  0  0
   57.4570   32.1660   44.2580 N   0  0  0  0  0  0  0  0  0  0  0  0
   57.4990   33.3660   45.0520 C   0  0  0  0  0  0  0  0  0  0  0  0
   56.6420   34.2770   44.8840 O   0  0  0  0  0  0  0  0  0  0  0  0
   58.5570   33.5340   46.0770 C   0  0  0  0  0  0  0  0  0  0  0  0
   59.8120   34.0680   45.7270 C   0  0  0  0  0  0  0  0  0  0  0  0
   60.0087   34.3623   44.6855 H   0  0  0  0  0  0  0  0  0  0  0  0
   60.8100   34.2270   46.6930 C   0  0  0  0  0  0  0  0  0  0  0  0
   61.7866   34.6463   46.4095 H   0  0  0  0  0  0  0  0  0  0  0  0
   60.5690   33.8540   48.0190 C   0  0  0  0  0  0  0  0  0  0  0  0
   61.9340   34.0710   49.3370 Br  0  0  0  0  0  0  0  0  0  0  0  0
   59.3280   33.3220   48.3780 C   0  0  0  0  0  0  0  0  0  0  0  0
   59.1384   33.0274   49.4207 H   0  0  0  0  0  0  0  0  0  0  0  0
   58.3260   33.1630   47.4150 C   0  0  0  0  0  0  0  0  0  0  0  0
   57.3508   32.7451   47.7054 H   0  0  0  0  0  0  0  0  0  0  0  0
   58.5620   30.3160   45.1460 C   0  0  0  0  0  0  0  0  0  0  0  0
   59.5190   30.8583   45.1373 H   0  0  0  0  0  0  0  0  0  0  0  0
   58.5040   29.0010   45.6110 C   0  0  0  0  0  0  0  0  0  0  0  0
   59.4153   28.5083   45.9809 H   0  0  0  0  0  0  0  0  0  0  0  0
   57.2840   28.3070   45.6070 C   0  0  0  0  0  0  0  0  0  0  0  0
   57.1620   26.9630   46.0960 N   0  0  0  0  0  0  0  0  0  0  0  0
   56.1220   26.0280   45.7760 C   0  0  0  0  0  0  0  0  0  0  0  0
   54.9180   26.3290   45.9950 O   0  0  0  0  0  0  0  0  0  0  0  0
   56.4780   24.6800   45.2670 C   0  0  0  0  0  0  0  0  0  0  0  0
   56.6240   24.4870   43.8820 C   0  0  0  0  0  0  0  0  0  0  0  0
   56.4627   25.3304   43.1945 H   0  0  0  0  0  0  0  0  0  0  0  0
   56.9710   23.2380   43.3720 C   0  0  0  0  0  0  0  0  0  0  0  0
   57.0874   23.0940   42.2877 H   0  0  0  0  0  0  0  0  0  0  0  0
   57.1690   22.1740   44.2470 C   0  0  0  0  0  0  0  0  0  0  0  0
   57.4466   21.1847   43.8543 H   0  0  0  0  0  0  0  0  0  0  0  0
   57.0200   22.3550   45.5860 N   0  0  0  0  0  0  0  0  0  0  0  0
   57.1630   21.5370   46.2190 H   0  0  0  0  0  0  0  0  0  0  0  0
   56.6800   23.5640   46.1180 C   0  0  0  0  0  0  0  0  0  0  0  0
   56.4530   23.6570   47.8640 Cl  0  0  0  0  0  0  0  0  0  0  0  0
  1  2  1  0
  2  3  1  0
  3  4  1  0
  4  5  2  0
  5  6  1  0
  6  7  2  0
  6  8  1  0
  8  9  2  0
  9 10  1  0
  9 11  1  0
 11 12  1  0
 11 13  2  0
 13 14  1  0
 13 15  1  0
 15 16  1  0
 15 17  2  0
 17 18  1  0
  4 19  1  0
 19 20  1  0
 19 21  2  0
 21 22  1  0
 21 23  1  0
 23 24  1  0
 24 25  1  0
 25 26  2  0
 25 27  1  0
 27 28  2  0
 28 29  1  0
 28 30  1  0
 30 31  1  0
 30 32  2  0
 32 33  1  0
 32 34  1  0
 34 35  1  0
 34 36  2  0
 36 37  1  0
 23  2  2  0
 36 27  1  0
 17  8  1  0
M  CHG  3   3  -1  24  -1  34   1
M  END
>  <UniqueID>  (72) 
69

>  <SMILES>  (72) 
O=C(/N=c1/ccc([N-]C(=O)c2ccc[nH+]c2Cl)c[n-]1)c1ccc(Br)cc1

>  <Energy>  (72) 
52.17460685986575

>  <Genealogy>  (72) 
O=C(N=c1ccc([N-]C(=O)c2ccc[nH+]c2Cl)c[n-]1)c1ccc(Br)cc1 (protonated)
O=C(/N=c1/ccc([N-]C(=O)c2ccc[nH+]c2Cl)c[n-]1)c1ccc(Br)cc1 (cis-trans isomerization)
O=C(/N=c1/ccc([N-]C(=O)c2ccc[nH+]c2Cl)c[n-]1)c1ccc(Br)cc1 (3D coordinates assigned)
O=C(/N=c1/ccc([N-]C(=O)c2ccc[nH+]c2Cl)c[n-]1)c1ccc(Br)cc1 (optimized conformer: 52.17460685986575 kcal/mol)

>  <smiles>  (72) 
O=C(N=c1ccc(NC(=O)c2cccnc2Cl)c[nH]1)c1ccc(Br)cc1

>  <score_type>  (72) 
oracle

>  <origin>  (72) 
adg

>  <m_score__min__energy>  (72) 
-11.029999999999999

>  <m_primary>  (72) 
energy

$$$$
72:0
     RDKit          3D

 41 42  0  0  0  0  0  0  0  0999 V2000
   55.1410   28.0060   44.9940 H   0  0  0  0  0  0  0  0  0  0  0  0
   55.1830   29.0060   44.8400 O   0  0  0  0  0  0  0  0  0  0  0  0
   56.4000   29.6400   44.6140 C   0  0  0  0  0  0  0  0  0  0  0  0
   56.5040   30.9940   44.5510 N   0  0  0  0  0  0  0  0  0  0  0  0
   57.7820   31.3810   44.3510 C   0  0  0  0  0  0  0  0  0  0  0  0
   58.2790   33.0980   44.2160 S   0  0  0  0  0  0  0  0  0  0  0  0
   57.4880   33.6240   45.7760 C   0  0  0  0  0  0  0  0  0  0  0  0
   56.4288   33.3277   45.7582 H   0  0  0  0  0  0  0  0  0  0  0  0
   57.5855   34.7162   45.8633 H   0  0  0  0  0  0  0  0  0  0  0  0
   58.1500   32.9950   46.9610 C   0  0  0  0  0  0  0  0  0  0  0  0
   58.4610   31.6820   47.0240 N   0  0  0  0  0  0  0  0  0  0  0  0
   58.9800   31.5330   48.2570 C   0  0  0  0  0  0  0  0  0  0  0  0
   59.4160   30.3600   48.7200 C   0  0  0  0  0  0  0  0  0  0  0  0
   59.8322   30.2900   49.7358 H   0  0  0  0  0  0  0  0  0  0  0  0
   59.3592   29.4630   48.0859 H   0  0  0  0  0  0  0  0  0  0  0  0
   58.9630   32.7570   48.9100 C   0  0  0  0  0  0  0  0  0  0  0  0
   59.3950   33.0280   50.1530 C   0  0  0  0  0  0  0  0  0  0  0  0
   58.7577   32.7538   51.0066 H   0  0  0  0  0  0  0  0  0  0  0  0
   60.7190   33.6930   50.4210 C   0  0  0  0  0  0  0  0  0  0  0  0
   60.5694   34.7827   50.4357 H   0  0  0  0  0  0  0  0  0  0  0  0
   61.0889   33.3214   51.3880 H   0  0  0  0  0  0  0  0  0  0  0  0
   61.7770   33.3550   49.3560 C   0  0  0  0  0  0  0  0  0  0  0  0
   62.7717   33.5351   49.7898 H   0  0  0  0  0  0  0  0  0  0  0  0
   61.6157   32.3036   49.0756 H   0  0  0  0  0  0  0  0  0  0  0  0
   61.6600   34.1800   48.0580 C   0  0  0  0  0  0  0  0  0  0  0  0
   60.5915   34.3256   47.8409 H   0  0  0  0  0  0  0  0  0  0  0  0
   62.1994   35.1210   48.2410 H   0  0  0  0  0  0  0  0  0  0  0  0
   62.3160   33.5400   46.8220 C   0  0  0  0  0  0  0  0  0  0  0  0
   61.6533   32.7476   46.4441 H   0  0  0  0  0  0  0  0  0  0  0  0
   62.4671   34.3373   46.0794 H   0  0  0  0  0  0  0  0  0  0  0  0
   63.6840   32.9290   47.1220 C   0  0  0  0  0  0  0  0  0  0  0  0
   63.8263   32.8654   48.2109 H   0  0  0  0  0  0  0  0  0  0  0  0
   63.7390   31.9208   46.6855 H   0  0  0  0  0  0  0  0  0  0  0  0
   64.4715   33.5609   46.6855 H   0  0  0  0  0  0  0  0  0  0  0  0
   58.4340   33.6810   48.0880 N   0  0  0  0  0  0  0  0  0  0  0  0
   58.8320   30.0700   44.2490 S   0  0  0  0  0  0  0  0  0  0  0  0
   57.5940   28.9460   44.4460 C   0  0  0  0  0  0  0  0  0  0  0  0
   57.7710   27.4670   44.5150 C   0  0  0  0  0  0  0  0  0  0  0  0
   57.8088   27.1510   45.5679 H   0  0  0  0  0  0  0  0  0  0  0  0
   56.9256   26.9728   44.0140 H   0  0  0  0  0  0  0  0  0  0  0  0
   58.7092   27.1862   44.0140 H   0  0  0  0  0  0  0  0  0  0  0  0
  1  2  1  0
  2  3  1  0
  3  4  1  0
  4  5  2  0
  5  6  1  0
  6  7  1  0
  7  8  1  0
  7  9  1  0
  7 10  1  0
 10 11  2  0
 11 12  1  0
 12 13  2  0
 13 14  1  0
 13 15  1  0
 12 16  1  0
 16 17  2  0
 17 18  1  0
 17 19  1  0
 19 20  1  0
 19 21  1  0
 19 22  1  0
 22 23  1  0
 22 24  1  0
 22 25  1  0
 25 26  1  0
 25 27  1  0
 25 28  1  0
 28 29  1  0
 28 30  1  0
 28 31  1  0
 31 32  1  0
 31 33  1  0
 31 34  1  0
 16 35  1  0
  5 36  1  0
 36 37  1  0
 37 38  1  0
 38 39  1  0
 38 40  1  0
 38 41  1  0
 37  3  2  0
 35 10  1  0
M  CHG  1  35  -1
M  END
>  <UniqueID>  (73) 
70

>  <SMILES>  (73) 
C=c1nc(CSc2nc(O)c(C)s2)[n-]/c1=C\CCCCC

>  <Energy>  (73) 
82.06152809601507

>  <Genealogy>  (73) 
C=c1nc(CSc2nc(O)c(C)s2)[n-]c1=CCCCCC (protonated)
C=c1nc(CSc2nc(O)c(C)s2)[n-]/c1=C\CCCCC (cis-trans isomerization)
C=c1nc(CSc2nc(O)c(C)s2)[n-]/c1=C\CCCCC (3D coordinates assigned)
C=c1nc(CSc2nc(O)c(C)s2)[n-]/c1=C\CCCCC (optimized conformer: 82.06152809601507 kcal/mol)

>  <smiles>  (73) 
C=c1nc(CSc2nc(O)c(C)s2)[nH]c1=CCCCCC

>  <score_type>  (73) 
oracle

>  <origin>  (73) 
adg

>  <m_score__min__energy>  (73) 
-9.2200000000000006

>  <m_primary>  (73) 
energy

$$$$
73:0
     RDKit          3D

 48 51  0  0  0  0  0  0  0  0999 V2000
   57.1650   24.1810   47.0700 O   0  0  0  0  0  0  0  0  0  0  0  0
   57.5610   24.3360   45.8840 C   0  0  0  0  0  0  0  0  0  0  0  0
   58.4390   25.4290   45.5870 N   0  0  0  0  0  0  0  0  0  0  0  0
   58.0990   26.8220   45.6380 C   0  0  0  0  0  0  0  0  0  0  0  0
   56.8170   27.2210   45.2490 C   0  0  0  0  0  0  0  0  0  0  0  0
   56.4610   28.5730   45.2780 C   0  0  0  0  0  0  0  0  0  0  0  0
   55.1930   28.9660   44.8700 O   0  0  0  0  0  0  0  0  0  0  0  0
   57.3820   29.5320   45.7130 C   0  0  0  0  0  0  0  0  0  0  0  0
   58.6650   29.1450   46.1380 C   0  0  0  0  0  0  0  0  0  0  0  0
   59.6480   30.1610   46.5880 C   0  0  0  0  0  0  0  0  0  0  0  0
   60.7820   29.7810   47.3270 C   0  0  0  0  0  0  0  0  0  0  0  0
   61.7070   30.7400   47.7500 C   0  0  0  0  0  0  0  0  0  0  0  0
   61.5150   32.0960   47.4450 C   0  0  0  0  0  0  0  0  0  0  0  0
   62.4840   33.1180   47.9010 C   0  0  0  0  0  0  0  0  0  0  0  0
   63.1510   33.7610   47.0450 O   0  0  0  0  0  0  0  0  0  0  0  0
   62.6910   33.3760   49.3020 N   0  0  0  0  0  0  0  0  0  0  0  0
   63.9990   33.8470   49.7650 C   0  0  0  0  0  0  0  0  0  0  0  0
   64.1870   33.4820   51.2410 C   0  0  0  0  0  0  0  0  0  0  0  0
   63.0930   33.9320   52.0160 O   0  0  0  0  0  0  0  0  0  0  0  0
   61.9160   33.2530   51.6240 C   0  0  0  0  0  0  0  0  0  0  0  0
   61.5400   33.6100   50.1820 C   0  0  0  0  0  0  0  0  0  0  0  0
   60.3970   32.4730   46.6900 C   0  0  0  0  0  0  0  0  0  0  0  0
   59.4680   31.5180   46.2660 C   0  0  0  0  0  0  0  0  0  0  0  0
   59.0110   27.7830   46.1110 C   0  0  0  0  0  0  0  0  0  0  0  0
   57.0520   23.4360   44.8280 C   0  0  0  0  0  0  0  0  0  0  0  0
   56.6510   23.8350   43.5640 C   0  0  0  0  0  0  0  0  0  0  0  0
   56.2770   22.6890   42.8980 C   0  0  0  0  0  0  0  0  0  0  0  0
   56.4710   21.6600   43.7900 C   0  0  0  0  0  0  0  0  0  0  0  0
   56.2050   20.3220   43.5230 O   0  0  0  0  0  0  0  0  0  0  0  0
   56.9540   22.0980   44.9670 N   0  0  0  0  0  0  0  0  0  0  0  0
   56.0855   26.4687   44.9189 H   0  0  0  0  0  0  0  0  0  0  0  0
   57.1006   30.5954   45.7226 H   0  0  0  0  0  0  0  0  0  0  0  0
   60.9426   28.7212   47.5742 H   0  0  0  0  0  0  0  0  0  0  0  0
   62.5913   30.4294   48.3258 H   0  0  0  0  0  0  0  0  0  0  0  0
   64.7910   33.3722   49.1673 H   0  0  0  0  0  0  0  0  0  0  0  0
   64.0540   34.9396   49.6503 H   0  0  0  0  0  0  0  0  0  0  0  0
   64.2687   32.3890   51.3340 H   0  0  0  0  0  0  0  0  0  0  0  0
   65.1021   33.9687   51.6093 H   0  0  0  0  0  0  0  0  0  0  0  0
   62.0840   32.1683   51.6954 H   0  0  0  0  0  0  0  0  0  0  0  0
   61.0943   33.5563   52.2894 H   0  0  0  0  0  0  0  0  0  0  0  0
   60.6970   32.9824   49.8572 H   0  0  0  0  0  0  0  0  0  0  0  0
   61.2502   34.6699   50.1312 H   0  0  0  0  0  0  0  0  0  0  0  0
   60.2484   33.5310   46.4281 H   0  0  0  0  0  0  0  0  0  0  0  0
   58.5922   31.8296   45.6778 H   0  0  0  0  0  0  0  0  0  0  0  0
   60.0037   27.4657   46.4628 H   0  0  0  0  0  0  0  0  0  0  0  0
   56.6345   24.8621   43.1705 H   0  0  0  0  0  0  0  0  0  0  0  0
   55.9012   22.6125   41.8670 H   0  0  0  0  0  0  0  0  0  0  0  0
   56.9370   19.6310   43.6050 H   0  0  0  0  0  0  0  0  0  0  0  0
  1  2  2  0
  2  3  1  0
  3  4  1  0
  4  5  2  0
  5  6  1  0
  6  7  1  0
  6  8  2  0
  8  9  1  0
  9 10  1  0
 10 11  2  0
 11 12  1  0
 12 13  2  0
 13 14  1  0
 14 15  2  0
 14 16  1  0
 16 17  1  0
 17 18  1  0
 18 19  1  0
 19 20  1  0
 20 21  1  0
 13 22  1  0
 22 23  2  0
  9 24  2  0
  2 25  1  0
 25 26  2  0
 26 27  1  0
 27 28  2  0
 28 29  1  0
 28 30  1  0
 24  4  1  0
 30 25  1  0
 23 10  1  0
 21 16  1  0
  5 31  1  0
  8 32  1  0
 11 33  1  0
 12 34  1  0
 17 35  1  0
 17 36  1  0
 18 37  1  0
 18 38  1  0
 20 39  1  0
 20 40  1  0
 21 41  1  0
 21 42  1  0
 22 43  1  0
 23 44  1  0
 24 45  1  0
 26 46  1  0
 27 47  1  0
 29 48  1  0
M  CHG  3   3  -1   7  -1  30  -1
M  END
>  <UniqueID>  (74) 
71

>  <SMILES>  (74) 
O=C([N-]c1cc([O-])cc(-c2ccc(C(=O)N3CCOCC3)cc2)c1)c1ccc(O)[n-]1

>  <Energy>  (74) 
91.52430708573287

>  <Genealogy>  (74) 
O=C([N-]c1cc([O-])cc(-c2ccc(C(=O)N3CCOCC3)cc2)c1)c1ccc(O)[n-]1 (protonated)
O=C([N-]c1cc([O-])cc(-c2ccc(C(=O)N3CCOCC3)cc2)c1)c1ccc(O)[n-]1 (3D coordinates assigned)
O=C([N-]c1cc([O-])cc(-c2ccc(C(=O)N3CCOCC3)cc2)c1)c1ccc(O)[n-]1 (nonaromatic ring conformer: 91.52430708573287 kcal/mol)

>  <smiles>  (74) 
O=C(Nc1cc(O)cc(-c2ccc(C(=O)N3CCOCC3)cc2)c1)c1ccc(O)[nH]1

>  <score_type>  (74) 
oracle

>  <origin>  (74) 
adg

>  <m_score__min__energy>  (74) 
-14.68

>  <m_primary>  (74) 
energy

$$$$
74:0
     RDKit          3D

 32 33  0  0  0  0  0  0  0  0999 V2000
   54.3980   26.7040   46.7410 H   0  0  0  0  0  0  0  0  0  0  0  0
   55.1170   26.4720   46.0670 O   0  0  0  0  0  0  0  0  0  0  0  0
   56.0980   25.5230   46.3440 C   0  0  0  0  0  0  0  0  0  0  0  0
   55.8940   24.4640   47.1440 N   0  0  0  0  0  0  0  0  0  0  0  0
   57.1060   23.8700   47.1710 C   0  0  0  0  0  0  0  0  0  0  0  0
   57.3330   22.8250   47.8330 O   0  0  0  0  0  0  0  0  0  0  0  0
   58.0570   24.4910   46.4410 N   0  0  0  0  0  0  0  0  0  0  0  0
   57.4040   25.5310   45.8950 C   0  0  0  0  0  0  0  0  0  0  0  0
   58.0610   26.5500   45.0540 C   0  0  0  0  0  0  0  0  0  0  0  0
   58.7820   26.1993   44.3009 H   0  0  0  0  0  0  0  0  0  0  0  0
   57.8430   27.8900   45.1390 C   0  0  0  0  0  0  0  0  0  0  0  0
   57.3730   28.6040   44.0120 C   0  0  0  0  0  0  0  0  0  0  0  0
   57.1607   28.0588   43.0805 H   0  0  0  0  0  0  0  0  0  0  0  0
   57.1720   29.9880   44.0550 C   0  0  0  0  0  0  0  0  0  0  0  0
   56.7030   30.7200   42.8220 C   0  0  0  0  0  0  0  0  0  0  0  0
   56.5454   29.9948   42.0100 H   0  0  0  0  0  0  0  0  0  0  0  0
   55.7633   31.2412   43.0571 H   0  0  0  0  0  0  0  0  0  0  0  0
   57.7360   31.7500   42.3790 C   0  0  0  0  0  0  0  0  0  0  0  0
   58.1978   32.2105   43.2648 H   0  0  0  0  0  0  0  0  0  0  0  0
   58.5119   31.2553   41.7763 H   0  0  0  0  0  0  0  0  0  0  0  0
   57.2436   32.5273   41.7763 H   0  0  0  0  0  0  0  0  0  0  0  0
   57.4810   30.6780   45.2310 C   0  0  0  0  0  0  0  0  0  0  0  0
   57.3260   32.0680   45.2910 O   0  0  0  0  0  0  0  0  0  0  0  0
   58.3870   32.9480   45.6390 C   0  0  0  0  0  0  0  0  0  0  0  0
   58.4652   33.0129   46.7343 H   0  0  0  0  0  0  0  0  0  0  0  0
   59.3317   32.5647   45.2260 H   0  0  0  0  0  0  0  0  0  0  0  0
   58.1850   33.9473   45.2260 H   0  0  0  0  0  0  0  0  0  0  0  0
   57.9320   29.9920   46.3120 N   0  0  0  0  0  0  0  0  0  0  0  0
   58.1180   28.6440   46.3240 C   0  0  0  0  0  0  0  0  0  0  0  0
   58.5290   28.1060   47.4840 C   0  0  0  0  0  0  0  0  0  0  0  0
   58.6974   27.0215   47.5582 H   0  0  0  0  0  0  0  0  0  0  0  0
   58.6972   28.7499   48.3599 H   0  0  0  0  0  0  0  0  0  0  0  0
  1  2  1  0
  2  3  1  0
  3  4  1  0
  4  5  1  0
  5  6  2  0
  5  7  1  0
  7  8  1  0
  8  9  1  0
  9 10  1  0
  9 11  2  0
 11 12  1  0
 12 13  1  0
 12 14  2  0
 14 15  1  0
 15 16  1  0
 15 17  1  0
 15 18  1  0
 18 19  1  0
 18 20  1  0
 18 21  1  0
 14 22  1  0
 22 23  1  0
 23 24  1  0
 24 25  1  0
 24 26  1  0
 24 27  1  0
 22 28  2  0
 28 29  1  0
 29 30  2  0
 30 31  1  0
 30 32  1  0
  8  3  2  0
 29 11  1  0
M  CHG  2   4  -1   7  -1
M  END
>  <UniqueID>  (75) 
72

>  <SMILES>  (75) 
C=c1nc(OC)c(CC)c/c1=C\c1[n-]c(=O)[n-]c1O

>  <Energy>  (75) 
71.747567640225

>  <Genealogy>  (75) 
C=c1nc(OC)c(CC)cc1=Cc1[n-]c(=O)[n-]c1O (protonated)
C=c1nc(OC)c(CC)c/c1=C\c1[n-]c(=O)[n-]c1O (cis-trans isomerization)
C=c1nc(OC)c(CC)c/c1=C\c1[n-]c(=O)[n-]c1O (3D coordinates assigned)
C=c1nc(OC)c(CC)c/c1=C\c1[n-]c(=O)[n-]c1O (optimized conformer: 71.747567640225 kcal/mol)

>  <smiles>  (75) 
C=c1nc(OC)c(CC)cc1=Cc1[nH]c(=O)[nH]c1O

>  <score_type>  (75) 
oracle

>  <origin>  (75) 
adg

>  <m_score__min__energy>  (75) 
-11.32

>  <m_primary>  (75) 
energy

$$$$
75:0
     RDKit          3D

 55 57  0  0  0  0  0  0  0  0999 V2000
   55.1550   29.3440   44.8390 O   0  0  0  0  0  0  0  0  0  0  0  0
   56.3790   29.6280   44.7630 C   0  0  0  0  0  0  0  0  0  0  0  0
   56.8310   30.7660   43.8820 C   0  0  0  0  0  0  0  0  0  0  0  0
   56.9530   32.1020   44.6360 C   0  0  0  0  0  0  0  0  0  0  0  0
   58.2030   32.8970   44.2190 C   0  0  0  0  0  0  0  0  0  0  0  0
   58.2840   34.2890   44.8660 C   0  0  0  0  0  0  0  0  0  0  0  0
   59.0310   34.3560   46.2140 C   0  0  0  0  0  0  0  0  0  0  0  0
   58.4750   33.4120   47.3010 C   0  0  0  0  0  0  0  0  0  0  0  0
   59.2870   33.4630   48.5690 C   0  0  0  0  0  0  0  0  0  0  0  0
   60.2950   34.2180   48.6200 O   0  0  0  0  0  0  0  0  0  0  0  0
   58.9410   32.6390   49.7430 C   0  0  0  0  0  0  0  0  0  0  0  0
   57.8360   31.8770   49.8380 N   0  0  0  0  0  0  0  0  0  0  0  0
   57.9330   31.3340   51.0710 C   0  0  0  0  0  0  0  0  0  0  0  0
   57.0670   30.5500   51.5380 O   0  0  0  0  0  0  0  0  0  0  0  0
   59.0300   31.7010   51.7670 N   0  0  0  0  0  0  0  0  0  0  0  0
   59.6580   32.5280   50.9130 C   0  0  0  0  0  0  0  0  0  0  0  0
   60.8500   33.1810   51.2030 O   0  0  0  0  0  0  0  0  0  0  0  0
   57.3110   28.8580   45.5350 N   0  0  0  0  0  0  0  0  0  0  0  0
   58.4080   29.3720   46.3030 C   0  0  0  0  0  0  0  0  0  0  0  0
   59.3410   30.2020   45.6780 C   0  0  0  0  0  0  0  0  0  0  0  0
   60.4130   30.7340   46.3980 C   0  0  0  0  0  0  0  0  0  0  0  0
   60.5750   30.4630   47.7780 C   0  0  0  0  0  0  0  0  0  0  0  0
   61.6990   31.0120   48.5310 N   0  0  0  0  0  0  0  0  0  0  0  0
   61.9200   30.5750   49.9270 C   0  0  0  0  0  0  0  0  0  0  0  0
   63.1660   31.1870   50.5780 C   0  0  0  0  0  0  0  0  0  0  0  0
   63.3680   32.5140   50.1540 O   0  0  0  0  0  0  0  0  0  0  0  0
   63.7120   32.4940   48.7900 C   0  0  0  0  0  0  0  0  0  0  0  0
   62.5090   32.0960   47.9350 C   0  0  0  0  0  0  0  0  0  0  0  0
   59.5970   29.6540   48.4030 C   0  0  0  0  0  0  0  0  0  0  0  0
   58.5270   29.1240   47.6770 C   0  0  0  0  0  0  0  0  0  0  0  0
   57.8140   30.5119   43.4588 H   0  0  0  0  0  0  0  0  0  0  0  0
   56.0680   30.8989   43.1009 H   0  0  0  0  0  0  0  0  0  0  0  0
   56.0608   32.7098   44.4251 H   0  0  0  0  0  0  0  0  0  0  0  0
   57.0410   31.8757   45.7089 H   0  0  0  0  0  0  0  0  0  0  0  0
   59.0949   32.3237   44.5120 H   0  0  0  0  0  0  0  0  0  0  0  0
   58.1448   33.0471   43.1309 H   0  0  0  0  0  0  0  0  0  0  0  0
   58.7968   34.9602   44.1614 H   0  0  0  0  0  0  0  0  0  0  0  0
   57.2457   34.5804   45.0830 H   0  0  0  0  0  0  0  0  0  0  0  0
   60.0843   34.0932   46.0366 H   0  0  0  0  0  0  0  0  0  0  0  0
   58.9015   35.3805   46.5930 H   0  0  0  0  0  0  0  0  0  0  0  0
   57.4405   33.7069   47.5308 H   0  0  0  0  0  0  0  0  0  0  0  0
   58.5214   32.3843   46.9115 H   0  0  0  0  0  0  0  0  0  0  0  0
   61.4570   33.5020   50.4560 H   0  0  0  0  0  0  0  0  0  0  0  0
   59.2307   30.4388   44.6095 H   0  0  0  0  0  0  0  0  0  0  0  0
   61.1443   31.3749   45.8837 H   0  0  0  0  0  0  0  0  0  0  0  0
   61.0411   30.8616   50.5232 H   0  0  0  0  0  0  0  0  0  0  0  0
   62.0747   29.4862   49.9008 H   0  0  0  0  0  0  0  0  0  0  0  0
   63.0410   31.1756   51.6708 H   0  0  0  0  0  0  0  0  0  0  0  0
   64.0409   30.5911   50.2788 H   0  0  0  0  0  0  0  0  0  0  0  0
   64.0534   33.4954   48.4890 H   0  0  0  0  0  0  0  0  0  0  0  0
   64.5134   31.7559   48.6382 H   0  0  0  0  0  0  0  0  0  0  0  0
   61.8669   32.9794   47.8036 H   0  0  0  0  0  0  0  0  0  0  0  0
   62.9003   31.7209   46.9778 H   0  0  0  0  0  0  0  0  0  0  0  0
   59.6802   29.4386   49.4785 H   0  0  0  0  0  0  0  0  0  0  0  0
   57.7726   28.5076   48.1879 H   0  0  0  0  0  0  0  0  0  0  0  0
  1  2  2  0
  2  3  1  0
  3  4  1  0
  4  5  1  0
  5  6  1  0
  6  7  1  0
  7  8  1  0
  8  9  1  0
  9 10  2  0
  9 11  1  0
 11 12  1  0
 12 13  1  0
 13 14  2  0
 13 15  1  0
 15 16  1  0
 16 17  1  0
  2 18  1  0
 18 19  1  0
 19 20  2  0
 20 21  1  0
 21 22  2  0
 22 23  1  0
 23 24  1  0
 24 25  1  0
 25 26  1  0
 26 27  1  0
 27 28  1  0
 22 29  1  0
 29 30  2  0
 16 11  2  0
 30 19  1  0
 28 23  1  0
  3 31  1  0
  3 32  1  0
  4 33  1  0
  4 34  1  0
  5 35  1  0
  5 36  1  0
  6 37  1  0
  6 38  1  0
  7 39  1  0
  7 40  1  0
  8 41  1  0
  8 42  1  0
 17 43  1  0
 20 44  1  0
 21 45  1  0
 24 46  1  0
 24 47  1  0
 25 48  1  0
 25 49  1  0
 27 50  1  0
 27 51  1  0
 28 52  1  0
 28 53  1  0
 29 54  1  0
 30 55  1  0
M  CHG  3  12  -1  15  -1  18  -1
M  END
>  <UniqueID>  (76) 
73

>  <SMILES>  (76) 
O=C(CCCCCCC(=O)c1[n-]c(=O)[n-]c1O)[N-]c1ccc(N2CCOCC2)cc1

>  <Energy>  (76) 
89.86725754274377

>  <Genealogy>  (76) 
O=C(CCCCCCC(=O)c1[n-]c(=O)[n-]c1O)[N-]c1ccc(N2CCOCC2)cc1 (protonated)
O=C(CCCCCCC(=O)c1[n-]c(=O)[n-]c1O)[N-]c1ccc(N2CCOCC2)cc1 (3D coordinates assigned)
O=C(CCCCCCC(=O)c1[n-]c(=O)[n-]c1O)[N-]c1ccc(N2CCOCC2)cc1 (nonaromatic ring conformer: 89.86725754274377 kcal/mol)

>  <smiles>  (76) 
O=C(CCCCCCC(=O)c1[nH]c(=O)[nH]c1O)Nc1ccc(N2CCOCC2)cc1

>  <score_type>  (76) 
oracle

>  <origin>  (76) 
adg

>  <m_score__min__energy>  (76) 
-15.31

>  <m_primary>  (76) 
energy

$$$$
76:0
     RDKit          3D

 39 40  0  0  0  0  0  0  0  0999 V2000
   60.9960   30.2000   47.6910 C   0  0  0  0  0  0  0  0  0  0  0  0
   59.9900   29.4810   48.5820 C   0  0  0  0  0  0  0  0  0  0  0  0
   59.4350   28.3240   47.8850 N   0  0  0  0  0  0  0  0  0  0  0  0
   60.0020   27.1050   47.7960 C   0  0  0  0  0  0  0  0  0  0  0  0
   59.2050   26.3060   46.9980 C   0  0  0  0  0  0  0  0  0  0  0  0
   58.1590   27.1270   46.6150 C   0  0  0  0  0  0  0  0  0  0  0  0
   56.9940   26.7260   45.7650 C   0  0  0  0  0  0  0  0  0  0  0  0
   56.0470   27.8280   45.6150 N   0  0  0  0  0  0  0  0  0  0  0  0
   56.2190   28.9800   44.7780 C   0  0  0  0  0  0  0  0  0  0  0  0
   55.4410   29.9580   44.9310 O   0  0  0  0  0  0  0  0  0  0  0  0
   57.3120   29.0770   43.7520 C   0  0  0  0  0  0  0  0  0  0  0  0
   58.8870   29.6140   44.5130 S   0  0  0  0  0  0  0  0  0  0  0  0
   58.2970   31.2460   45.0040 C   0  0  0  0  0  0  0  0  0  0  0  0
   58.2270   31.5410   46.3720 C   0  0  0  0  0  0  0  0  0  0  0  0
   57.7690   32.7860   46.8060 C   0  0  0  0  0  0  0  0  0  0  0  0
   57.3620   33.7430   45.8760 C   0  0  0  0  0  0  0  0  0  0  0  0
   57.4090   33.4560   44.5110 C   0  0  0  0  0  0  0  0  0  0  0  0
   57.8830   32.2130   44.0560 C   0  0  0  0  0  0  0  0  0  0  0  0
   57.8390   31.9200   42.5800 C   0  0  0  0  0  0  0  0  0  0  0  0
   58.3210   28.3420   47.1710 N   0  0  0  0  0  0  0  0  0  0  0  0
   61.7313   30.7255   48.3181 H   0  0  0  0  0  0  0  0  0  0  0  0
   61.5136   29.4660   47.0559 H   0  0  0  0  0  0  0  0  0  0  0  0
   60.4691   30.9274   47.0559 H   0  0  0  0  0  0  0  0  0  0  0  0
   60.4934   29.1448   49.5004 H   0  0  0  0  0  0  0  0  0  0  0  0
   59.1736   30.1741   48.8332 H   0  0  0  0  0  0  0  0  0  0  0  0
   60.9418   26.7972   48.2777 H   0  0  0  0  0  0  0  0  0  0  0  0
   59.3663   25.2520   46.7276 H   0  0  0  0  0  0  0  0  0  0  0  0
   57.3600   26.4293   44.7710 H   0  0  0  0  0  0  0  0  0  0  0  0
   56.4779   25.8866   46.2540 H   0  0  0  0  0  0  0  0  0  0  0  0
   57.4561   28.0907   43.2867 H   0  0  0  0  0  0  0  0  0  0  0  0
   57.0173   29.8218   42.9981 H   0  0  0  0  0  0  0  0  0  0  0  0
   58.5354   30.7855   47.1097 H   0  0  0  0  0  0  0  0  0  0  0  0
   57.7289   33.0127   47.8816 H   0  0  0  0  0  0  0  0  0  0  0  0
   57.0037   34.7248   46.2190 H   0  0  0  0  0  0  0  0  0  0  0  0
   57.0719   34.2096   43.7841 H   0  0  0  0  0  0  0  0  0  0  0  0
   57.6773   30.8431   42.4246 H   0  0  0  0  0  0  0  0  0  0  0  0
   57.0156   32.4848   42.1184 H   0  0  0  0  0  0  0  0  0  0  0  0
   58.7920   32.2180   42.1184 H   0  0  0  0  0  0  0  0  0  0  0  0
   57.6910   29.1680   47.0620 H   0  0  0  0  0  0  0  0  0  0  0  0
  1  2  1  0
  2  3  1  0
  3  4  1  0
  4  5  2  0
  5  6  1  0
  6  7  1  0
  7  8  1  0
  8  9  1  0
  9 10  2  0
  9 11  1  0
 11 12  1  0
 12 13  1  0
 13 14  2  0
 14 15  1  0
 15 16  2  0
 16 17  1  0
 17 18  2  0
 18 19  1  0
  6 20  2  0
 20  3  1  0
 18 13  1  0
  1 21  1  0
  1 22  1  0
  1 23  1  0
  2 24  1  0
  2 25  1  0
  4 26  1  0
  5 27  1  0
  7 28  1  0
  7 29  1  0
 11 30  1  0
 11 31  1  0
 14 32  1  0
 15 33  1  0
 16 34  1  0
 17 35  1  0
 19 36  1  0
 19 37  1  0
 19 38  1  0
 20 39  1  0
M  CHG  2   8  -1  20   1
M  END
>  <UniqueID>  (77) 
74

>  <SMILES>  (77) 
CCn1ccc(C[N-]C(=O)CSc2ccccc2C)[nH+]1

>  <Energy>  (77) 
56.68687101153684

>  <Genealogy>  (77) 
CCn1ccc(C[N-]C(=O)CSc2ccccc2C)[nH+]1 (protonated)
CCn1ccc(C[N-]C(=O)CSc2ccccc2C)[nH+]1 (3D coordinates assigned)
CCn1ccc(C[N-]C(=O)CSc2ccccc2C)[nH+]1 (optimized conformer: 56.68687101153684 kcal/mol)

>  <smiles>  (77) 
CCn1ccc(CNC(=O)CSc2ccccc2C)n1

>  <score_type>  (77) 
oracle

>  <origin>  (77) 
adg

>  <m_score__min__energy>  (77) 
-7.8300000000000001

>  <m_primary>  (77) 
energy

$$$$
77:0
     RDKit          3D

 47 49  0  0  0  0  0  0  0  0999 V2000
   64.8310   32.7350   49.3960 C   0  0  0  0  0  0  0  0  0  0  0  0
   63.6720   33.2540   48.6170 C   0  0  0  0  0  0  0  0  0  0  0  0
   63.6350   33.2860   47.2650 N   0  0  0  0  0  0  0  0  0  0  0  0
   62.4430   33.7460   46.8030 C   0  0  0  0  0  0  0  0  0  0  0  0
   61.5210   34.0710   47.7940 C   0  0  0  0  0  0  0  0  0  0  0  0
   60.1140   34.5510   47.5690 C   0  0  0  0  0  0  0  0  0  0  0  0
   59.4190   33.7540   46.5280 N   0  0  0  0  0  0  0  0  0  0  0  0
   58.0580   33.3430   46.9740 C   0  0  0  0  0  0  0  0  0  0  0  0
   57.0730   33.0670   45.8150 C   0  0  0  0  0  0  0  0  0  0  0  0
   57.7820   32.7340   44.5690 N   0  0  0  0  0  0  0  0  0  0  0  0
   57.3110   31.7070   43.6650 C   0  0  0  0  0  0  0  0  0  0  0  0
   57.7870   31.6500   42.4950 O   0  0  0  0  0  0  0  0  0  0  0  0
   56.2720   30.6930   44.0970 C   0  0  0  0  0  0  0  0  0  0  0  0
   56.8460   29.3210   44.5000 C   0  0  0  0  0  0  0  0  0  0  0  0
   58.2090   29.4320   45.1430 C   0  0  0  0  0  0  0  0  0  0  0  0
   59.3410   28.9000   44.5000 C   0  0  0  0  0  0  0  0  0  0  0  0
   60.6020   28.9880   45.1010 C   0  0  0  0  0  0  0  0  0  0  0  0
   60.7450   29.6050   46.3470 C   0  0  0  0  0  0  0  0  0  0  0  0
   59.6250   30.1350   46.9950 C   0  0  0  0  0  0  0  0  0  0  0  0
   58.3610   30.0480   46.3980 C   0  0  0  0  0  0  0  0  0  0  0  0
   58.8760   33.6100   44.1280 C   0  0  0  0  0  0  0  0  0  0  0  0
   59.3590   34.5200   45.2660 C   0  0  0  0  0  0  0  0  0  0  0  0
   62.2170   33.7610   49.2940 S   0  0  0  0  0  0  0  0  0  0  0  0
   64.6213   32.8289   50.4717 H   0  0  0  0  0  0  0  0  0  0  0  0
   64.9967   31.6767   49.1457 H   0  0  0  0  0  0  0  0  0  0  0  0
   65.7308   33.3162   49.1457 H   0  0  0  0  0  0  0  0  0  0  0  0
   62.2238   33.8532   45.7304 H   0  0  0  0  0  0  0  0  0  0  0  0
   59.5547   34.4689   48.5126 H   0  0  0  0  0  0  0  0  0  0  0  0
   60.1600   35.5951   47.2259 H   0  0  0  0  0  0  0  0  0  0  0  0
   59.9890   32.8880   46.3550 H   0  0  0  0  0  0  0  0  0  0  0  0
   58.1528   32.4254   47.5732 H   0  0  0  0  0  0  0  0  0  0  0  0
   57.6443   34.1841   47.5497 H   0  0  0  0  0  0  0  0  0  0  0  0
   56.4230   32.2240   46.0921 H   0  0  0  0  0  0  0  0  0  0  0  0
   56.4819   33.9783   45.6415 H   0  0  0  0  0  0  0  0  0  0  0  0
   55.7283   31.1048   44.9601 H   0  0  0  0  0  0  0  0  0  0  0  0
   55.6253   30.5172   43.2247 H   0  0  0  0  0  0  0  0  0  0  0  0
   56.1567   28.8457   45.2134 H   0  0  0  0  0  0  0  0  0  0  0  0
   56.9555   28.7216   43.5842 H   0  0  0  0  0  0  0  0  0  0  0  0
   59.2348   28.4123   43.5198 H   0  0  0  0  0  0  0  0  0  0  0  0
   61.4829   28.5705   44.5914 H   0  0  0  0  0  0  0  0  0  0  0  0
   61.7371   29.6735   46.8171 H   0  0  0  0  0  0  0  0  0  0  0  0
   59.7368   30.6211   47.9754 H   0  0  0  0  0  0  0  0  0  0  0  0
   57.4826   30.4637   46.9135 H   0  0  0  0  0  0  0  0  0  0  0  0
   59.7164   32.9882   43.7858 H   0  0  0  0  0  0  0  0  0  0  0  0
   58.5026   34.2456   43.3116 H   0  0  0  0  0  0  0  0  0  0  0  0
   60.3605   34.9058   45.0250 H   0  0  0  0  0  0  0  0  0  0  0  0
   58.6571   35.3588   45.3832 H   0  0  0  0  0  0  0  0  0  0  0  0
  1  2  1  0
  2  3  2  0
  3  4  1  0
  4  5  2  0
  5  6  1  0
  6  7  1  0
  7  8  1  0
  8  9  1  0
  9 10  1  0
 10 11  1  0
 11 12  2  0
 11 13  1  0
 13 14  1  0
 14 15  1  0
 15 16  2  0
 16 17  1  0
 17 18  2  0
 18 19  1  0
 19 20  2  0
 10 21  1  0
 21 22  1  0
  5 23  1  0
 23  2  1  0
 22  7  1  0
 20 15  1  0
  1 24  1  0
  1 25  1  0
  1 26  1  0
  4 27  1  0
  6 28  1  0
  6 29  1  0
  7 30  1  0
  8 31  1  0
  8 32  1  0
  9 33  1  0
  9 34  1  0
 13 35  1  0
 13 36  1  0
 14 37  1  0
 14 38  1  0
 16 39  1  0
 17 40  1  0
 18 41  1  0
 19 42  1  0
 20 43  1  0
 21 44  1  0
 21 45  1  0
 22 46  1  0
 22 47  1  0
M  CHG  1   7   1
M  END
>  <UniqueID>  (78) 
75

>  <SMILES>  (78) 
Cc1ncc(C[NH+]2CCN(C(=O)CCc3ccccc3)CC2)s1

>  <Energy>  (78) 
82.50563909154125

>  <Genealogy>  (78) 
Cc1ncc(C[NH+]2CCN(C(=O)CCc3ccccc3)CC2)s1 (protonated)
Cc1ncc(C[NH+]2CCN(C(=O)CCc3ccccc3)CC2)s1 (3D coordinates assigned)
Cc1ncc(C[NH+]2CCN(C(=O)CCc3ccccc3)CC2)s1 (nonaromatic ring conformer: 82.50563909154125 kcal/mol)

>  <smiles>  (78) 
Cc1ncc(CN2CCN(C(=O)CCc3ccccc3)CC2)s1

>  <score_type>  (78) 
oracle

>  <origin>  (78) 
adg

>  <m_score__min__energy>  (78) 
-5.9500000000000002

>  <m_primary>  (78) 
energy

$$$$
78:0
     RDKit          3D

 59 61  0  0  0  0  0  0  0  0999 V2000
   60.3090   26.7550   47.4340 C   0  0  0  0  0  0  0  0  0  0  0  0
   59.5280   27.8540   47.8930 O   0  0  0  0  0  0  0  0  0  0  0  0
   59.9130   29.2010   47.7940 C   0  0  0  0  0  0  0  0  0  0  0  0
   60.1610   29.9910   48.9280 C   0  0  0  0  0  0  0  0  0  0  0  0
   60.5390   31.3400   48.8100 C   0  0  0  0  0  0  0  0  0  0  0  0
   60.8340   32.0910   50.0890 C   0  0  0  0  0  0  0  0  0  0  0  0
   62.2690   32.3450   50.2000 N   0  0  0  0  0  0  0  0  0  0  0  0
   63.2270   31.3010   50.4450 C   0  0  0  0  0  0  0  0  0  0  0  0
   62.8490   30.0980   50.4950 O   0  0  0  0  0  0  0  0  0  0  0  0
   64.6650   31.6140   50.6070 C   0  0  0  0  0  0  0  0  0  0  0  0
   65.4580   30.8130   51.4490 C   0  0  0  0  0  0  0  0  0  0  0  0
   66.8190   31.0890   51.6150 C   0  0  0  0  0  0  0  0  0  0  0  0
   67.3990   32.1710   50.9510 C   0  0  0  0  0  0  0  0  0  0  0  0
   66.6200   32.9840   50.1250 C   0  0  0  0  0  0  0  0  0  0  0  0
   65.2580   32.7140   49.9530 C   0  0  0  0  0  0  0  0  0  0  0  0
   64.5180   33.5590   49.1900 F   0  0  0  0  0  0  0  0  0  0  0  0
   60.6810   31.9070   47.5140 C   0  0  0  0  0  0  0  0  0  0  0  0
   61.1220   33.6080   47.2230 S   0  0  0  0  0  0  0  0  0  0  0  0
   61.8940   34.1520   48.3900 O   0  0  0  0  0  0  0  0  0  0  0  0
   62.0510   33.6510   46.0410 O   0  0  0  0  0  0  0  0  0  0  0  0
   59.7380   34.6540   46.9360 N   0  0  0  0  0  0  0  0  0  0  0  0
   59.5910   35.0860   45.5440 C   0  0  0  0  0  0  0  0  0  0  0  0
   59.1630   33.9450   44.6210 C   0  0  0  0  0  0  0  0  0  0  0  0
   58.1330   33.0690   45.2060 N   0  0  0  0  0  0  0  0  0  0  0  0
   57.5010   32.0710   44.3690 C   0  0  0  0  0  0  0  0  0  0  0  0
   57.7960   31.9670   42.9000 C   0  0  0  0  0  0  0  0  0  0  0  0
   56.6650   31.2700   44.8690 O   0  0  0  0  0  0  0  0  0  0  0  0
   57.7960   33.0620   46.6410 C   0  0  0  0  0  0  0  0  0  0  0  0
   58.4600   34.1720   47.4770 C   0  0  0  0  0  0  0  0  0  0  0  0
   60.4380   31.1030   46.3880 C   0  0  0  0  0  0  0  0  0  0  0  0
   60.0510   29.7590   46.5210 C   0  0  0  0  0  0  0  0  0  0  0  0
   59.7940   28.9430   45.4070 O   0  0  0  0  0  0  0  0  0  0  0  0
   58.5030   28.7180   44.8500 C   0  0  0  0  0  0  0  0  0  0  0  0
   60.7037   26.1996   48.2976 H   0  0  0  0  0  0  0  0  0  0  0  0
   59.6812   26.0880   46.8249 H   0  0  0  0  0  0  0  0  0  0  0  0
   61.1454   27.1286   46.8249 H   0  0  0  0  0  0  0  0  0  0  0  0
   60.0575   29.5456   49.9285 H   0  0  0  0  0  0  0  0  0  0  0  0
   60.2940   33.0493   50.0816 H   0  0  0  0  0  0  0  0  0  0  0  0
   60.5072   31.4852   50.9470 H   0  0  0  0  0  0  0  0  0  0  0  0
   62.6180   33.2940   49.9400 H   0  0  0  0  0  0  0  0  0  0  0  0
   65.0043   29.9635   51.9806 H   0  0  0  0  0  0  0  0  0  0  0  0
   67.4329   30.4527   52.2695 H   0  0  0  0  0  0  0  0  0  0  0  0
   68.4707   32.3835   51.0784 H   0  0  0  0  0  0  0  0  0  0  0  0
   67.0788   33.8396   49.6078 H   0  0  0  0  0  0  0  0  0  0  0  0
   58.8314   35.8803   45.4991 H   0  0  0  0  0  0  0  0  0  0  0  0
   60.5718   35.4457   45.1995 H   0  0  0  0  0  0  0  0  0  0  0  0
   58.7638   34.3796   43.6927 H   0  0  0  0  0  0  0  0  0  0  0  0
   60.0525   33.3230   44.4425 H   0  0  0  0  0  0  0  0  0  0  0  0
   58.8247   31.6044   42.7574 H   0  0  0  0  0  0  0  0  0  0  0  0
   57.0911   31.2632   42.4334 H   0  0  0  0  0  0  0  0  0  0  0  0
   57.6883   32.9573   42.4334 H   0  0  0  0  0  0  0  0  0  0  0  0
   56.7055   33.1718   46.7348 H   0  0  0  0  0  0  0  0  0  0  0  0
   58.1783   32.1105   47.0392 H   0  0  0  0  0  0  0  0  0  0  0  0
   57.7660   35.0237   47.5319 H   0  0  0  0  0  0  0  0  0  0  0  0
   58.6798   33.7353   48.4624 H   0  0  0  0  0  0  0  0  0  0  0  0
   60.5530   31.5341   45.3826 H   0  0  0  0  0  0  0  0  0  0  0  0
   57.7709   28.5904   45.6610 H   0  0  0  0  0  0  0  0  0  0  0  0
   58.2162   29.5797   44.2293 H   0  0  0  0  0  0  0  0  0  0  0  0
   58.5246   27.8101   44.2293 H   0  0  0  0  0  0  0  0  0  0  0  0
  1  2  1  0
  2  3  1  0
  3  4  2  0
  4  5  1  0
  5  6  1  0
  6  7  1  0
  7  8  1  0
  8  9  2  0
  8 10  1  0
 10 11  2  0
 11 12  1  0
 12 13  2  0
 13 14  1  0
 14 15  2  0
 15 16  1  0
  5 17  2  0
 17 18  1  0
 18 19  2  0
 18 20  2  0
 18 21  1  0
 21 22  1  0
 22 23  1  0
 23 24  1  0
 24 25  1  0
 25 26  1  0
 25 27  2  0
 24 28  1  0
 28 29  1  0
 17 30  1  0
 30 31  2  0
 31 32  1  0
 32 33  1  0
 31  3  1  0
 15 10  1  0
 29 21  1  0
  1 34  1  0
  1 35  1  0
  1 36  1  0
  4 37  1  0
  6 38  1  0
  6 39  1  0
  7 40  1  0
 11 41  1  0
 12 42  1  0
 13 43  1  0
 14 44  1  0
 22 45  1  0
 22 46  1  0
 23 47  1  0
 23 48  1  0
 26 49  1  0
 26 50  1  0
 26 51  1  0
 28 52  1  0
 28 53  1  0
 29 54  1  0
 29 55  1  0
 30 56  1  0
 33 57  1  0
 33 58  1  0
 33 59  1  0
M  END
>  <UniqueID>  (79) 
76

>  <SMILES>  (79) 
COc1cc(CNC(=O)c2ccccc2F)c(S(=O)(=O)N2CCN(C(C)=O)CC2)cc1OC

>  <Energy>  (79) 
69.97496480574429

>  <Genealogy>  (79) 
COc1cc(CNC(=O)c2ccccc2F)c(S(=O)(=O)N2CCN(C(C)=O)CC2)cc1OC (3D coordinates assigned)
COc1cc(CNC(=O)c2ccccc2F)c(S(=O)(=O)N2CCN(C(C)=O)CC2)cc1OC (nonaromatic ring conformer: 69.97496480574429 kcal/mol)

>  <smiles>  (79) 
COc1cc(CNC(=O)c2ccccc2F)c(S(=O)(=O)N2CCN(C(C)=O)CC2)cc1OC

>  <score_type>  (79) 
oracle

>  <origin>  (79) 
adg

>  <m_score__min__energy>  (79) 
-8.1799999999999997

>  <m_primary>  (79) 
energy

$$$$
79:0
     RDKit          3D

 46 48  0  0  0  0  0  0  0  0999 V2000
   55.0130   24.5780   45.9730 O   0  0  0  0  0  0  0  0  0  0  0  0
   55.9140   25.4340   45.7580 C   0  0  0  0  0  0  0  0  0  0  0  0
   57.2110   24.9910   45.2190 C   0  0  0  0  0  0  0  0  0  0  0  0
   57.7590   23.7920   45.4670 C   0  0  0  0  0  0  0  0  0  0  0  0
   57.1070   22.4980   45.1590 C   0  0  0  0  0  0  0  0  0  0  0  0
   56.9500   21.4810   46.1280 C   0  0  0  0  0  0  0  0  0  0  0  0
   57.3810   21.6380   47.4460 O   0  0  0  0  0  0  0  0  0  0  0  0
   56.3470   20.3120   45.7820 N   0  0  0  0  0  0  0  0  0  0  0  0
   55.8740   20.1060   44.5280 C   0  0  0  0  0  0  0  0  0  0  0  0
   55.3200   19.0130   44.2360 O   0  0  0  0  0  0  0  0  0  0  0  0
   55.9870   21.0800   43.5890 N   0  0  0  0  0  0  0  0  0  0  0  0
   56.5860   22.2640   43.8750 C   0  0  0  0  0  0  0  0  0  0  0  0
   56.6860   23.1400   42.9710 O   0  0  0  0  0  0  0  0  0  0  0  0
   55.6470   26.8260   45.9630 N   0  0  0  0  0  0  0  0  0  0  0  0
   56.5530   27.8940   45.6640 C   0  0  0  0  0  0  0  0  0  0  0  0
   57.9040   27.8280   46.0450 C   0  0  0  0  0  0  0  0  0  0  0  0
   58.7960   28.8420   45.6760 C   0  0  0  0  0  0  0  0  0  0  0  0
   60.5010   28.6780   46.0790 S   0  0  0  0  0  0  0  0  0  0  0  0
   61.3180   28.9240   44.8410 O   0  0  0  0  0  0  0  0  0  0  0  0
   60.7840   27.2870   46.5780 O   0  0  0  0  0  0  0  0  0  0  0  0
   60.9150   29.8480   47.3090 N   0  0  0  0  0  0  0  0  0  0  0  0
   60.8770   31.2310   46.7670 C   0  0  0  0  0  0  0  0  0  0  0  0
   59.6270   32.0120   47.1960 C   0  0  0  0  0  0  0  0  0  0  0  0
   59.5340   32.1000   48.7290 C   0  0  0  0  0  0  0  0  0  0  0  0
   60.0920   30.8520   49.4360 C   0  0  0  0  0  0  0  0  0  0  0  0
   60.0760   29.6300   48.5090 C   0  0  0  0  0  0  0  0  0  0  0  0
   58.3330   29.9320   44.9260 C   0  0  0  0  0  0  0  0  0  0  0  0
   56.9940   29.9980   44.5370 C   0  0  0  0  0  0  0  0  0  0  0  0
   56.1070   28.9760   44.8920 C   0  0  0  0  0  0  0  0  0  0  0  0
   54.7840   29.0400   44.4740 O   0  0  0  0  0  0  0  0  0  0  0  0
   57.7653   25.6872   44.5723 H   0  0  0  0  0  0  0  0  0  0  0  0
   58.7570   23.7681   45.9289 H   0  0  0  0  0  0  0  0  0  0  0  0
   58.1000   21.0620   47.8660 H   0  0  0  0  0  0  0  0  0  0  0  0
   58.2632   26.9736   46.6374 H   0  0  0  0  0  0  0  0  0  0  0  0
   61.7666   31.7711   47.1232 H   0  0  0  0  0  0  0  0  0  0  0  0
   60.8543   31.1528   45.6700 H   0  0  0  0  0  0  0  0  0  0  0  0
   59.6770   33.0288   46.7793 H   0  0  0  0  0  0  0  0  0  0  0  0
   58.7374   31.4858   46.8196 H   0  0  0  0  0  0  0  0  0  0  0  0
   60.1045   32.9783   49.0653 H   0  0  0  0  0  0  0  0  0  0  0  0
   58.4685   32.1788   48.9909 H   0  0  0  0  0  0  0  0  0  0  0  0
   61.1278   31.0507   49.7485 H   0  0  0  0  0  0  0  0  0  0  0  0
   59.4566   30.6343   50.3071 H   0  0  0  0  0  0  0  0  0  0  0  0
   60.4596   28.7585   49.0598 H   0  0  0  0  0  0  0  0  0  0  0  0
   59.0403   29.4603   48.1796 H   0  0  0  0  0  0  0  0  0  0  0  0
   59.0267   30.7375   44.6432 H   0  0  0  0  0  0  0  0  0  0  0  0
   56.6352   30.8561   43.9496 H   0  0  0  0  0  0  0  0  0  0  0  0
  1  2  2  0
  2  3  1  0
  3  4  2  3
  4  5  1  0
  5  6  2  0
  6  7  1  0
  6  8  1  0
  8  9  1  0
  9 10  2  0
  9 11  1  0
 11 12  1  0
 12 13  2  0
  2 14  1  0
 14 15  1  0
 15 16  2  0
 16 17  1  0
 17 18  1  0
 18 19  2  0
 18 20  2  0
 18 21  1  0
 21 22  1  0
 22 23  1  0
 23 24  1  0
 24 25  1  0
 25 26  1  0
 17 27  2  0
 27 28  1  0
 28 29  2  0
 29 30  1  0
 12  5  1  0
 29 15  1  0
 26 21  1  0
  3 31  1  0
  4 32  1  0
  7 33  1  0
 16 34  1  0
 22 35  1  0
 22 36  1  0
 23 37  1  0
 23 38  1  0
 24 39  1  0
 24 40  1  0
 25 41  1  0
 25 42  1  0
 26 43  1  0
 26 44  1  0
 27 45  1  0
 28 46  1  0
M  CHG  4   8  -1  11  -1  14  -1  30  -1
M  END
>  <UniqueID>  (80) 
77

>  <SMILES>  (80) 
O=C(C=Cc1c(O)[n-]c(=O)[n-]c1=O)[N-]c1cc(S(=O)(=O)N2CCCCC2)ccc1[O-]

>  <Energy>  (80) 
66.42365178210449

>  <Genealogy>  (80) 
O=C(C=Cc1c(O)[n-]c(=O)[n-]c1=O)[N-]c1cc(S(=O)(=O)N2CCCCC2)ccc1[O-] (protonated)
O=C(C=Cc1c(O)[n-]c(=O)[n-]c1=O)[N-]c1cc(S(=O)(=O)N2CCCCC2)ccc1[O-] (3D coordinates assigned)
O=C(C=Cc1c(O)[n-]c(=O)[n-]c1=O)[N-]c1cc(S(=O)(=O)N2CCCCC2)ccc1[O-] (nonaromatic ring conformer: 66.42365178210449 kcal/mol)

>  <smiles>  (80) 
O=C(C=Cc1c(O)[nH]c(=O)[nH]c1=O)Nc1cc(S(=O)(=O)N2CCCCC2)ccc1O

>  <score_type>  (80) 
oracle

>  <origin>  (80) 
adg

>  <m_score__min__energy>  (80) 
-16.879999999999999

>  <m_primary>  (80) 
energy

$$$$
80:0
     RDKit          3D

 36 37  0  0  0  0  0  0  0  0999 V2000
   57.9524   32.3508   40.9697 H   0  0  0  0  0  0  0  0  0  0  0  0
   57.4480   31.9920   41.8790 C   0  0  0  0  0  0  0  0  0  0  0  0
   56.3720   31.7646   41.8578 H   0  0  0  0  0  0  0  0  0  0  0  0
   58.1440   31.8320   43.0120 C   0  0  0  0  0  0  0  0  0  0  0  0
   59.2190   32.0652   43.0111 H   0  0  0  0  0  0  0  0  0  0  0  0
   57.5000   31.3380   44.3040 C   0  0  0  0  0  0  0  0  0  0  0  0
   58.3070   30.1630   44.8880 C   0  0  0  0  0  0  0  0  0  0  0  0
   59.3550   30.3530   45.8050 C   0  0  0  0  0  0  0  0  0  0  0  0
   59.6129   31.3712   46.1318 H   0  0  0  0  0  0  0  0  0  0  0  0
   60.0710   29.2680   46.3050 C   0  0  0  0  0  0  0  0  0  0  0  0
   60.9023   29.4458   47.0031 H   0  0  0  0  0  0  0  0  0  0  0  0
   59.7520   27.9510   45.9350 C   0  0  0  0  0  0  0  0  0  0  0  0
   60.6390   26.9890   46.2470 C   0  0  0  0  0  0  0  0  0  0  0  0
   60.4329   25.9426   45.9777 H   0  0  0  0  0  0  0  0  0  0  0  0
   61.5704   27.2488   46.7715 H   0  0  0  0  0  0  0  0  0  0  0  0
   58.5780   27.7220   45.1470 C   0  0  0  0  0  0  0  0  0  0  0  0
   58.0210   26.5050   44.9100 C   0  0  0  0  0  0  0  0  0  0  0  0
   58.0823   26.1222   43.8806 H   0  0  0  0  0  0  0  0  0  0  0  0
   57.3420   25.6480   45.9010 C   0  0  0  0  0  0  0  0  0  0  0  0
   56.0350   25.7330   46.3400 C   0  0  0  0  0  0  0  0  0  0  0  0
   55.1150   26.7080   45.9760 O   0  0  0  0  0  0  0  0  0  0  0  0
   55.7460   24.7050   47.1600 N   0  0  0  0  0  0  0  0  0  0  0  0
   56.8990   24.0020   47.1780 C   0  0  0  0  0  0  0  0  0  0  0  0
   57.0420   22.9390   47.8380 O   0  0  0  0  0  0  0  0  0  0  0  0
   57.8770   24.5310   46.4170 N   0  0  0  0  0  0  0  0  0  0  0  0
   58.8390   24.1520   46.2610 H   0  0  0  0  0  0  0  0  0  0  0  0
   57.9260   28.8400   44.5850 C   0  0  0  0  0  0  0  0  0  0  0  0
   57.0923   28.6737   43.8869 H   0  0  0  0  0  0  0  0  0  0  0  0
   56.0740   30.8390   43.9960 C   0  0  0  0  0  0  0  0  0  0  0  0
   55.5393   30.6519   44.9389 H   0  0  0  0  0  0  0  0  0  0  0  0
   55.5360   31.6023   43.4147 H   0  0  0  0  0  0  0  0  0  0  0  0
   56.1293   29.9068   43.4147 H   0  0  0  0  0  0  0  0  0  0  0  0
   57.3900   32.5450   45.2670 C   0  0  0  0  0  0  0  0  0  0  0  0
   57.4225   32.1884   46.3071 H   0  0  0  0  0  0  0  0  0  0  0  0
   58.2291   33.2337   45.0891 H   0  0  0  0  0  0  0  0  0  0  0  0
   56.4402   33.0706   45.0891 H   0  0  0  0  0  0  0  0  0  0  0  0
  1  2  1  0
  2  3  1  0
  2  4  2  0
  4  5  1  0
  4  6  1  0
  6  7  1  0
  7  8  1  0
  8  9  1  0
  8 10  2  0
 10 11  1  0
 10 12  1  0
 12 13  2  0
 13 14  1  0
 13 15  1  0
 12 16  1  0
 16 17  2  0
 17 18  1  0
 17 19  1  0
 19 20  2  0
 20 21  1  0
 20 22  1  0
 22 23  1  0
 23 24  2  0
 23 25  1  0
 25 26  1  0
 16 27  1  0
 27 28  1  0
  6 29  1  0
 29 30  1  0
 29 31  1  0
 29 32  1  0
  6 33  1  0
 33 34  1  0
 33 35  1  0
 33 36  1  0
 27  7  2  0
 25 19  1  0
M  CHG  2  21  -1  22  -1
M  END
>  <UniqueID>  (81) 
78

>  <SMILES>  (81) 
C=CC(C)(C)c1ccc(=C)/c(=C\c2[nH]c(=O)[n-]c2[O-])c1

>  <Energy>  (81) 
88.89185726454195

>  <Genealogy>  (81) 
C=CC(C)(C)c1ccc(=C)c(=Cc2[nH]c(=O)[n-]c2[O-])c1 (protonated)
C=CC(C)(C)c1ccc(=C)/c(=C\c2[nH]c(=O)[n-]c2[O-])c1 (cis-trans isomerization)
C=CC(C)(C)c1ccc(=C)/c(=C\c2[nH]c(=O)[n-]c2[O-])c1 (3D coordinates assigned)
C=CC(C)(C)c1ccc(=C)/c(=C\c2[nH]c(=O)[n-]c2[O-])c1 (optimized conformer: 88.89185726454195 kcal/mol)

>  <smiles>  (81) 
C=CC(C)(C)c1ccc(=C)c(=Cc2[nH]c(=O)[nH]c2O)c1

>  <score_type>  (81) 
oracle

>  <origin>  (81) 
adg

>  <m_score__min__energy>  (81) 
-13.92

>  <m_primary>  (81) 
energy

$$$$
81:0
     RDKit          3D

 68 72  0  0  0  0  0  0  0  0999 V2000
   56.2560   29.4760   42.3030 C   0  0  0  0  0  0  0  0  0  0  0  0
   56.8640   30.5990   43.0980 C   0  0  0  0  0  0  0  0  0  0  0  0
   57.5550   31.6280   42.4390 C   0  0  0  0  0  0  0  0  0  0  0  0
   58.1230   32.6770   43.1640 C   0  0  0  0  0  0  0  0  0  0  0  0
   58.0220   32.7160   44.5640 C   0  0  0  0  0  0  0  0  0  0  0  0
   58.6140   33.8500   45.3210 C   0  0  0  0  0  0  0  0  0  0  0  0
   58.8300   34.9400   44.7270 O   0  0  0  0  0  0  0  0  0  0  0  0
   58.8920   33.7760   46.7280 N   0  0  0  0  0  0  0  0  0  0  0  0
   60.1880   33.6830   47.3350 C   0  0  0  0  0  0  0  0  0  0  0  0
   60.5240   34.4350   48.4730 C   0  0  0  0  0  0  0  0  0  0  0  0
   61.8040   34.3430   49.0240 C   0  0  0  0  0  0  0  0  0  0  0  0
   62.7590   33.4810   48.4630 C   0  0  0  0  0  0  0  0  0  0  0  0
   64.1440   33.3820   49.0630 C   0  0  0  0  0  0  0  0  0  0  0  0
   64.1490   33.0620   50.5090 N   0  0  0  0  0  0  0  0  0  0  0  0
   64.3280   34.2200   51.4120 C   0  0  0  0  0  0  0  0  0  0  0  0
   65.7210   34.2540   52.0610 C   0  0  0  0  0  0  0  0  0  0  0  0
   66.6660   33.6000   51.2470 O   0  0  0  0  0  0  0  0  0  0  0  0
   66.4060   32.2110   51.2420 C   0  0  0  0  0  0  0  0  0  0  0  0
   64.9400   31.8710   50.8850 C   0  0  0  0  0  0  0  0  0  0  0  0
   62.4150   32.7220   47.3320 C   0  0  0  0  0  0  0  0  0  0  0  0
   61.1350   32.8140   46.7820 C   0  0  0  0  0  0  0  0  0  0  0  0
   57.3170   31.6920   45.2210 C   0  0  0  0  0  0  0  0  0  0  0  0
   56.7280   30.6370   44.4990 C   0  0  0  0  0  0  0  0  0  0  0  0
   56.0440   29.5650   45.1720 N   0  0  0  0  0  0  0  0  0  0  0  0
   56.6120   28.3330   45.6400 C   0  0  0  0  0  0  0  0  0  0  0  0
   55.8930   27.2990   45.6380 O   0  0  0  0  0  0  0  0  0  0  0  0
   57.9950   28.2510   46.1650 C   0  0  0  0  0  0  0  0  0  0  0  0
   58.9000   27.3280   45.6180 C   0  0  0  0  0  0  0  0  0  0  0  0
   60.2170   27.2750   46.0780 C   0  0  0  0  0  0  0  0  0  0  0  0
   60.6420   28.1360   47.0920 C   0  0  0  0  0  0  0  0  0  0  0  0
   59.7480   29.0570   47.6670 C   0  0  0  0  0  0  0  0  0  0  0  0
   60.2000   29.9750   48.7420 C   0  0  0  0  0  0  0  0  0  0  0  0
   59.3330   30.9590   49.2540 C   0  0  0  0  0  0  0  0  0  0  0  0
   59.7590   31.8200   50.2690 C   0  0  0  0  0  0  0  0  0  0  0  0
   61.0520   31.7140   50.7870 C   0  0  0  0  0  0  0  0  0  0  0  0
   61.4630   32.5800   51.7960 O   0  0  0  0  0  0  0  0  0  0  0  0
   61.9230   30.7380   50.2850 C   0  0  0  0  0  0  0  0  0  0  0  0
   61.5000   29.8730   49.2700 C   0  0  0  0  0  0  0  0  0  0  0  0
   58.4210   29.1000   47.2010 C   0  0  0  0  0  0  0  0  0  0  0  0
   55.8468   28.7203   42.9896 H   0  0  0  0  0  0  0  0  0  0  0  0
   55.4485   29.8709   41.6690 H   0  0  0  0  0  0  0  0  0  0  0  0
   57.0281   29.0156   41.6690 H   0  0  0  0  0  0  0  0  0  0  0  0
   57.6496   31.6076   41.3433 H   0  0  0  0  0  0  0  0  0  0  0  0
   58.6547   33.4807   42.6336 H   0  0  0  0  0  0  0  0  0  0  0  0
   59.7763   35.0987   48.9317 H   0  0  0  0  0  0  0  0  0  0  0  0
   62.0654   34.9500   49.9033 H   0  0  0  0  0  0  0  0  0  0  0  0
   64.6963   32.5930   48.5316 H   0  0  0  0  0  0  0  0  0  0  0  0
   64.6116   34.3715   48.9529 H   0  0  0  0  0  0  0  0  0  0  0  0
   64.1869   35.1440   50.8321 H   0  0  0  0  0  0  0  0  0  0  0  0
   63.5864   34.1304   52.2195 H   0  0  0  0  0  0  0  0  0  0  0  0
   66.0284   35.3008   52.2014 H   0  0  0  0  0  0  0  0  0  0  0  0
   65.6718   33.7371   53.0307 H   0  0  0  0  0  0  0  0  0  0  0  0
   67.0663   31.7336   50.5030 H   0  0  0  0  0  0  0  0  0  0  0  0
   66.5912   31.8383   52.2602 H   0  0  0  0  0  0  0  0  0  0  0  0
   64.9387   31.1674   50.0395 H   0  0  0  0  0  0  0  0  0  0  0  0
   64.4745   31.4346   51.7810 H   0  0  0  0  0  0  0  0  0  0  0  0
   63.1586   32.0512   46.8770 H   0  0  0  0  0  0  0  0  0  0  0  0
   60.8695   32.1998   45.9089 H   0  0  0  0  0  0  0  0  0  0  0  0
   57.2243   31.7158   46.3168 H   0  0  0  0  0  0  0  0  0  0  0  0
   58.5699   26.6431   44.8230 H   0  0  0  0  0  0  0  0  0  0  0  0
   60.9220   26.5529   45.6404 H   0  0  0  0  0  0  0  0  0  0  0  0
   61.6835   28.0936   47.4435 H   0  0  0  0  0  0  0  0  0  0  0  0
   58.3131   31.0508   48.8523 H   0  0  0  0  0  0  0  0  0  0  0  0
   59.0729   32.5848   50.6619 H   0  0  0  0  0  0  0  0  0  0  0  0
   62.3870   32.9970   51.7930 H   0  0  0  0  0  0  0  0  0  0  0  0
   62.9421   30.6516   50.6900 H   0  0  0  0  0  0  0  0  0  0  0  0
   62.1886   29.1079   48.8821 H   0  0  0  0  0  0  0  0  0  0  0  0
   57.7088   29.8062   47.6527 H   0  0  0  0  0  0  0  0  0  0  0  0
  1  2  1  0
  2  3  2  0
  3  4  1  0
  4  5  2  0
  5  6  1  0
  6  7  2  0
  6  8  1  0
  8  9  1  0
  9 10  2  0
 10 11  1  0
 11 12  2  0
 12 13  1  0
 13 14  1  0
 14 15  1  0
 15 16  1  0
 16 17  1  0
 17 18  1  0
 18 19  1  0
 12 20  1  0
 20 21  2  0
  5 22  1  0
 22 23  2  0
 23 24  1  0
 24 25  1  0
 25 26  2  0
 25 27  1  0
 27 28  2  0
 28 29  1  0
 29 30  2  0
 30 31  1  0
 31 32  1  0
 32 33  2  0
 33 34  1  0
 34 35  2  0
 35 36  1  0
 35 37  1  0
 37 38  2  0
 31 39  2  0
 23  2  1  0
 39 27  1  0
 21  9  1  0
 38 32  1  0
 19 14  1  0
  1 40  1  0
  1 41  1  0
  1 42  1  0
  3 43  1  0
  4 44  1  0
 10 45  1  0
 11 46  1  0
 13 47  1  0
 13 48  1  0
 15 49  1  0
 15 50  1  0
 16 51  1  0
 16 52  1  0
 18 53  1  0
 18 54  1  0
 19 55  1  0
 19 56  1  0
 20 57  1  0
 21 58  1  0
 22 59  1  0
 28 60  1  0
 29 61  1  0
 30 62  1  0
 33 63  1  0
 34 64  1  0
 36 65  1  0
 37 66  1  0
 38 67  1  0
 39 68  1  0
M  CHG  2   8  -1  24  -1
M  END
>  <UniqueID>  (82) 
79

>  <SMILES>  (82) 
Cc1ccc(C(=O)[N-]c2ccc(CN3CCOCC3)cc2)cc1[N-]C(=O)c1cccc(-c2ccc(O)cc2)c1

>  <Energy>  (82) 
105.0522748399949

>  <Genealogy>  (82) 
Cc1ccc(C(=O)[N-]c2ccc(CN3CCOCC3)cc2)cc1[N-]C(=O)c1cccc(-c2ccc(O)cc2)c1 (protonated)
Cc1ccc(C(=O)[N-]c2ccc(CN3CCOCC3)cc2)cc1[N-]C(=O)c1cccc(-c2ccc(O)cc2)c1 (3D coordinates assigned)
Cc1ccc(C(=O)[N-]c2ccc(CN3CCOCC3)cc2)cc1[N-]C(=O)c1cccc(-c2ccc(O)cc2)c1 (nonaromatic ring conformer: 105.0522748399949 kcal/mol)

>  <smiles>  (82) 
Cc1ccc(C(=O)Nc2ccc(CN3CCOCC3)cc2)cc1NC(=O)c1cccc(-c2ccc(O)cc2)c1

>  <score_type>  (82) 
oracle

>  <origin>  (82) 
adg

>  <m_score__min__energy>  (82) 
-12.56

>  <m_primary>  (82) 
energy

$$$$
82:0
     RDKit          3D

 53 56  0  0  0  0  0  0  0  0999 V2000
   59.5680   27.8190   48.3520 C   0  0  0  0  0  0  0  0  0  0  0  0
   59.1660   28.6030   47.3410 C   0  0  0  0  0  0  0  0  0  0  0  0
   58.4600   28.2050   46.1940 C   0  0  0  0  0  0  0  0  0  0  0  0
   58.1670   26.9810   45.7080 C   0  0  0  0  0  0  0  0  0  0  0  0
   57.4370   25.9200   46.4190 C   0  0  0  0  0  0  0  0  0  0  0  0
   57.9980   24.8110   46.9350 N   0  0  0  0  0  0  0  0  0  0  0  0
   56.9350   24.0750   47.3310 C   0  0  0  0  0  0  0  0  0  0  0  0
   57.0540   22.9490   47.8830 O   0  0  0  0  0  0  0  0  0  0  0  0
   55.7310   24.6340   47.0680 N   0  0  0  0  0  0  0  0  0  0  0  0
   56.0690   25.7940   46.4780 C   0  0  0  0  0  0  0  0  0  0  0  0
   55.1430   26.7170   45.9940 O   0  0  0  0  0  0  0  0  0  0  0  0
   58.0930   29.3670   45.5410 C   0  0  0  0  0  0  0  0  0  0  0  0
   58.6240   30.4150   46.2590 C   0  0  0  0  0  0  0  0  0  0  0  0
   58.5290   31.8290   45.8430 C   0  0  0  0  0  0  0  0  0  0  0  0
   59.5600   32.7230   46.1720 C   0  0  0  0  0  0  0  0  0  0  0  0
   59.4870   34.0620   45.7760 C   0  0  0  0  0  0  0  0  0  0  0  0
   58.3830   34.5190   45.0540 C   0  0  0  0  0  0  0  0  0  0  0  0
   57.3440   33.6410   44.7330 C   0  0  0  0  0  0  0  0  0  0  0  0
   57.4030   32.2890   45.1310 C   0  0  0  0  0  0  0  0  0  0  0  0
   56.3760   31.3790   44.8270 O   0  0  0  0  0  0  0  0  0  0  0  0
   56.2680   30.6700   43.5940 C   0  0  0  0  0  0  0  0  0  0  0  0
   59.2800   29.9600   47.3540 N   0  0  0  0  0  0  0  0  0  0  0  0
   60.0480   30.7760   48.3080 C   0  0  0  0  0  0  0  0  0  0  0  0
   61.4740   30.9160   47.8440 C   0  0  0  0  0  0  0  0  0  0  0  0
   61.7840   30.4900   46.7420 O   0  0  0  0  0  0  0  0  0  0  0  0
   62.4610   31.5700   48.6870 N   0  0  0  0  0  0  0  0  0  0  0  0
   61.8630   32.6690   49.4920 C   0  0  0  0  0  0  0  0  0  0  0  0
   62.0870   34.0560   48.8560 C   0  0  0  0  0  0  0  0  0  0  0  0
   62.1430   33.9550   47.4490 O   0  0  0  0  0  0  0  0  0  0  0  0
   63.3300   33.2830   47.0550 C   0  0  0  0  0  0  0  0  0  0  0  0
   63.6300   32.0150   47.8970 C   0  0  0  0  0  0  0  0  0  0  0  0
   60.1173   28.2536   49.2002 H   0  0  0  0  0  0  0  0  0  0  0  0
   59.3484   26.7413   48.3331 H   0  0  0  0  0  0  0  0  0  0  0  0
   58.5052   26.7556   44.6858 H   0  0  0  0  0  0  0  0  0  0  0  0
   57.4915   29.4403   44.6229 H   0  0  0  0  0  0  0  0  0  0  0  0
   60.4299   32.3683   46.7443 H   0  0  0  0  0  0  0  0  0  0  0  0
   60.3005   34.7562   46.0337 H   0  0  0  0  0  0  0  0  0  0  0  0
   58.3308   35.5712   44.7374 H   0  0  0  0  0  0  0  0  0  0  0  0
   56.4749   34.0066   44.1665 H   0  0  0  0  0  0  0  0  0  0  0  0
   56.1052   29.6015   43.7985 H   0  0  0  0  0  0  0  0  0  0  0  0
   55.4198   31.0661   43.0163 H   0  0  0  0  0  0  0  0  0  0  0  0
   57.1956   30.7956   43.0163 H   0  0  0  0  0  0  0  0  0  0  0  0
   59.5908   31.7737   48.3829 H   0  0  0  0  0  0  0  0  0  0  0  0
   60.0377   30.2829   49.2912 H   0  0  0  0  0  0  0  0  0  0  0  0
   62.8200   30.8560   49.3650 H   0  0  0  0  0  0  0  0  0  0  0  0
   60.7809   32.4924   49.5813 H   0  0  0  0  0  0  0  0  0  0  0  0
   62.3552   32.6689   50.4757 H   0  0  0  0  0  0  0  0  0  0  0  0
   61.2574   34.7210   49.1378 H   0  0  0  0  0  0  0  0  0  0  0  0
   63.0419   34.4628   49.2203 H   0  0  0  0  0  0  0  0  0  0  0  0
   63.2284   32.9853   46.0009 H   0  0  0  0  0  0  0  0  0  0  0  0
   64.1652   33.9814   47.2118 H   0  0  0  0  0  0  0  0  0  0  0  0
   63.9266   31.2024   47.2175 H   0  0  0  0  0  0  0  0  0  0  0  0
   64.4351   32.2656   48.6034 H   0  0  0  0  0  0  0  0  0  0  0  0
  1  2  2  0
  2  3  1  0
  3  4  2  3
  4  5  1  0
  5  6  1  0
  6  7  1  0
  7  8  2  0
  7  9  1  0
  9 10  1  0
 10 11  1  0
  3 12  1  0
 12 13  2  0
 13 14  1  0
 14 15  2  0
 15 16  1  0
 16 17  2  0
 17 18  1  0
 18 19  2  0
 19 20  1  0
 20 21  1  0
 13 22  1  0
 22 23  1  0
 23 24  1  0
 24 25  2  0
 24 26  1  0
 26 27  1  0
 27 28  1  0
 28 29  1  0
 29 30  1  0
 30 31  1  0
 22  2  1  0
 31 26  1  0
 10  5  2  0
 19 14  1  0
  1 32  1  0
  1 33  1  0
  4 34  1  0
 12 35  1  0
 15 36  1  0
 16 37  1  0
 17 38  1  0
 18 39  1  0
 21 40  1  0
 21 41  1  0
 21 42  1  0
 23 43  1  0
 23 44  1  0
 26 45  1  0
 27 46  1  0
 27 47  1  0
 28 48  1  0
 28 49  1  0
 30 50  1  0
 30 51  1  0
 31 52  1  0
 31 53  1  0
M  CHG  4   6  -1   9  -1  11  -1  26   1
M  END
>  <UniqueID>  (83) 
80

>  <SMILES>  (83) 
C=c1c(=Cc2[n-]c(=O)[n-]c2[O-])cc(-c2ccccc2OC)n1CC(=O)[NH+]1CCOCC1

>  <Energy>  (83) 
140.96871701217006

>  <Genealogy>  (83) 
C=c1c(=Cc2[n-]c(=O)[n-]c2[O-])cc(-c2ccccc2OC)n1CC(=O)[NH+]1CCOCC1 (protonated)
C=c1c(=Cc2[n-]c(=O)[n-]c2[O-])cc(-c2ccccc2OC)n1CC(=O)[NH+]1CCOCC1 (3D coordinates assigned)
C=c1c(=Cc2[n-]c(=O)[n-]c2[O-])cc(-c2ccccc2OC)n1CC(=O)[NH+]1CCOCC1 (nonaromatic ring conformer: 140.96871701217006 kcal/mol)

>  <smiles>  (83) 
C=c1c(=Cc2[nH]c(=O)[nH]c2O)cc(-c2ccccc2OC)n1CC(=O)N1CCOCC1

>  <score_type>  (83) 
oracle

>  <origin>  (83) 
adg

>  <m_score__min__energy>  (83) 
-15.27

>  <m_primary>  (83) 
energy

$$$$
83:0
     RDKit          3D

 60 64  0  0  0  0  0  0  0  0999 V2000
   61.2550   29.9760   46.8430 O   0  0  0  0  0  0  0  0  0  0  0  0
   60.6000   29.1950   47.5870 C   0  0  0  0  0  0  0  0  0  0  0  0
   61.1600   28.8820   48.9440 C   0  0  0  0  0  0  0  0  0  0  0  0
   61.5720   30.4340   49.8070 S   0  0  0  0  0  0  0  0  0  0  0  0
   59.9910   30.5240   50.6380 C   0  0  0  0  0  0  0  0  0  0  0  0
   59.4160   29.4480   51.2350 N   0  0  0  0  0  0  0  0  0  0  0  0
   58.2710   29.9590   51.7050 C   0  0  0  0  0  0  0  0  0  0  0  0
   57.2680   29.2980   52.4110 C   0  0  0  0  0  0  0  0  0  0  0  0
   56.1390   30.0440   52.7980 C   0  0  0  0  0  0  0  0  0  0  0  0
   56.0470   31.4190   52.4750 C   0  0  0  0  0  0  0  0  0  0  0  0
   57.0820   32.0530   51.7610 C   0  0  0  0  0  0  0  0  0  0  0  0
   58.1810   31.2800   51.3930 C   0  0  0  0  0  0  0  0  0  0  0  0
   59.2680   31.6700   50.7090 N   0  0  0  0  0  0  0  0  0  0  0  0
   59.3350   28.5880   47.0790 C   0  0  0  0  0  0  0  0  0  0  0  0
   58.6210   27.6300   47.8270 C   0  0  0  0  0  0  0  0  0  0  0  0
   57.4390   27.0790   47.3290 C   0  0  0  0  0  0  0  0  0  0  0  0
   56.9540   27.4580   46.0760 C   0  0  0  0  0  0  0  0  0  0  0  0
   55.7510   26.9310   45.6240 O   0  0  0  0  0  0  0  0  0  0  0  0
   57.6700   28.3840   45.2980 C   0  0  0  0  0  0  0  0  0  0  0  0
   57.2170   28.7710   43.9930 N   0  0  0  0  0  0  0  0  0  0  0  0
   56.4430   30.2990   43.7080 S   0  0  0  0  0  0  0  0  0  0  0  0
   55.1300   30.3590   44.4390 O   0  0  0  0  0  0  0  0  0  0  0  0
   56.1690   30.4460   42.2370 O   0  0  0  0  0  0  0  0  0  0  0  0
   57.4990   31.6040   44.2390 C   0  0  0  0  0  0  0  0  0  0  0  0
   58.0380   32.5120   43.3160 C   0  0  0  0  0  0  0  0  0  0  0  0
   58.8770   33.5400   43.7550 C   0  0  0  0  0  0  0  0  0  0  0  0
   59.1900   33.6610   45.1110 C   0  0  0  0  0  0  0  0  0  0  0  0
   58.6670   32.7490   46.0440 C   0  0  0  0  0  0  0  0  0  0  0  0
   58.9870   32.8680   47.4840 C   0  0  0  0  0  0  0  0  0  0  0  0
   58.1670   32.4100   48.3270 O   0  0  0  0  0  0  0  0  0  0  0  0
   60.2140   33.4720   47.9440 N   0  0  0  0  0  0  0  0  0  0  0  0
   61.4450   33.4230   47.1440 C   0  0  0  0  0  0  0  0  0  0  0  0
   62.6340   33.1130   48.0590 C   0  0  0  0  0  0  0  0  0  0  0  0
   62.6780   34.0140   49.1500 O   0  0  0  0  0  0  0  0  0  0  0  0
   61.5400   33.8290   49.9720 C   0  0  0  0  0  0  0  0  0  0  0  0
   60.2590   34.1990   49.2170 C   0  0  0  0  0  0  0  0  0  0  0  0
   57.8060   31.7330   45.5990 C   0  0  0  0  0  0  0  0  0  0  0  0
   58.8410   28.9590   45.8140 C   0  0  0  0  0  0  0  0  0  0  0  0
   60.4133   28.3248   49.5288 H   0  0  0  0  0  0  0  0  0  0  0  0
   62.0692   28.2729   48.8329 H   0  0  0  0  0  0  0  0  0  0  0  0
   57.3555   28.2296   52.6575 H   0  0  0  0  0  0  0  0  0  0  0  0
   55.3246   29.5564   53.3539 H   0  0  0  0  0  0  0  0  0  0  0  0
   55.1623   31.9954   52.7834 H   0  0  0  0  0  0  0  0  0  0  0  0
   57.0247   33.1208   51.5030 H   0  0  0  0  0  0  0  0  0  0  0  0
   58.9982   27.3141   48.8108 H   0  0  0  0  0  0  0  0  0  0  0  0
   56.8858   26.3409   47.9282 H   0  0  0  0  0  0  0  0  0  0  0  0
   57.0490   28.0240   43.2820 H   0  0  0  0  0  0  0  0  0  0  0  0
   57.8004   32.4151   42.2464 H   0  0  0  0  0  0  0  0  0  0  0  0
   59.2921   34.2560   43.0305 H   0  0  0  0  0  0  0  0  0  0  0  0
   59.8489   34.4739   45.4503 H   0  0  0  0  0  0  0  0  0  0  0  0
   61.3551   32.6369   46.3799 H   0  0  0  0  0  0  0  0  0  0  0  0
   61.6029   34.3943   46.6525 H   0  0  0  0  0  0  0  0  0  0  0  0
   62.5356   32.0868   48.4427 H   0  0  0  0  0  0  0  0  0  0  0  0
   63.5622   33.2177   47.4781 H   0  0  0  0  0  0  0  0  0  0  0  0
   61.4853   32.7746   50.2805 H   0  0  0  0  0  0  0  0  0  0  0  0
   61.6312   34.4809   50.8533 H   0  0  0  0  0  0  0  0  0  0  0  0
   59.3836   33.9276   49.8253 H   0  0  0  0  0  0  0  0  0  0  0  0
   60.2485   35.2814   49.0214 H   0  0  0  0  0  0  0  0  0  0  0  0
   57.3688   31.0321   46.3253 H   0  0  0  0  0  0  0  0  0  0  0  0
   59.3816   29.7114   45.2210 H   0  0  0  0  0  0  0  0  0  0  0  0
  1  2  2  0
  2  3  1  0
  3  4  1  0
  4  5  1  0
  5  6  2  0
  6  7  1  0
  7  8  2  0
  8  9  1  0
  9 10  2  0
 10 11  1  0
 11 12  2  0
 12 13  1  0
  2 14  1  0
 14 15  2  0
 15 16  1  0
 16 17  2  0
 17 18  1  0
 17 19  1  0
 19 20  1  0
 20 21  1  0
 21 22  2  0
 21 23  2  0
 21 24  1  0
 24 25  2  0
 25 26  1  0
 26 27  2  0
 27 28  1  0
 28 29  1  0
 29 30  2  0
 29 31  1  0
 31 32  1  0
 32 33  1  0
 33 34  1  0
 34 35  1  0
 35 36  1  0
 28 37  2  0
 19 38  2  0
 13  5  1  0
 38 14  1  0
 12  7  1  0
 37 24  1  0
 36 31  1  0
  3 39  1  0
  3 40  1  0
  8 41  1  0
  9 42  1  0
 10 43  1  0
 11 44  1  0
 15 45  1  0
 16 46  1  0
 20 47  1  0
 25 48  1  0
 26 49  1  0
 27 50  1  0
 32 51  1  0
 32 52  1  0
 33 53  1  0
 33 54  1  0
 35 55  1  0
 35 56  1  0
 36 57  1  0
 36 58  1  0
 37 59  1  0
 38 60  1  0
M  CHG  2  13  -1  18  -1
M  END
>  <UniqueID>  (84) 
81

>  <SMILES>  (84) 
O=C(CSc1nc2ccccc2[n-]1)c1ccc([O-])c(NS(=O)(=O)c2cccc(C(=O)N3CCOCC3)c2)c1

>  <Energy>  (84) 
111.6278339372601

>  <Genealogy>  (84) 
O=C(CSc1nc2ccccc2[n-]1)c1ccc([O-])c(NS(=O)(=O)c2cccc(C(=O)N3CCOCC3)c2)c1 (protonated)
O=C(CSc1nc2ccccc2[n-]1)c1ccc([O-])c(NS(=O)(=O)c2cccc(C(=O)N3CCOCC3)c2)c1 (3D coordinates assigned)
O=C(CSc1nc2ccccc2[n-]1)c1ccc([O-])c(NS(=O)(=O)c2cccc(C(=O)N3CCOCC3)c2)c1 (nonaromatic ring conformer: 111.6278339372601 kcal/mol)

>  <smiles>  (84) 
O=C(CSc1nc2ccccc2[nH]1)c1ccc(O)c(NS(=O)(=O)c2cccc(C(=O)N3CCOCC3)c2)c1

>  <score_type>  (84) 
oracle

>  <origin>  (84) 
adg

>  <m_score__min__energy>  (84) 
-14.92

>  <m_primary>  (84) 
energy

$$$$
84:0
     RDKit          3D

 62 65  0  0  0  0  0  0  0  0999 V2000
   59.1710   31.1710   49.1000 O   0  0  0  0  0  0  0  0  0  0  0  0
   59.7810   30.1490   48.6840 C   0  0  0  0  0  0  0  0  0  0  0  0
   59.0140   28.8950   48.3960 C   0  0  0  0  0  0  0  0  0  0  0  0
   59.8580   27.8690   47.1420 S   0  0  0  0  0  0  0  0  0  0  0  0
   59.3510   28.8110   45.6530 C   0  0  0  0  0  0  0  0  0  0  0  0
   57.9380   28.4520   45.1750 C   0  0  0  0  0  0  0  0  0  0  0  0
   57.0160   29.6430   45.0510 C   0  0  0  0  0  0  0  0  0  0  0  0
   55.7850   29.4560   44.8600 O   0  0  0  0  0  0  0  0  0  0  0  0
   57.5380   30.9900   45.0630 N   0  0  0  0  0  0  0  0  0  0  0  0
   58.0300   31.5690   43.8040 C   0  0  0  0  0  0  0  0  0  0  0  0
   57.8960   33.0900   43.8140 C   0  0  0  0  0  0  0  0  0  0  0  0
   58.5830   33.6580   45.0180 C   0  0  0  0  0  0  0  0  0  0  0  0
   59.2320   34.9010   44.9510 C   0  0  0  0  0  0  0  0  0  0  0  0
   59.8540   35.4330   46.0820 C   0  0  0  0  0  0  0  0  0  0  0  0
   59.8230   34.7330   47.2910 C   0  0  0  0  0  0  0  0  0  0  0  0
   59.1620   33.5030   47.3720 C   0  0  0  0  0  0  0  0  0  0  0  0
   58.5430   32.9540   46.2370 C   0  0  0  0  0  0  0  0  0  0  0  0
   57.7840   31.6550   46.3610 C   0  0  0  0  0  0  0  0  0  0  0  0
   61.2020   30.1800   48.5070 N   0  0  0  0  0  0  0  0  0  0  0  0
   61.9410   31.4030   48.4000 C   0  0  0  0  0  0  0  0  0  0  0  0
   62.2500   31.8960   47.1240 C   0  0  0  0  0  0  0  0  0  0  0  0
   62.9220   33.1120   46.9800 C   0  0  0  0  0  0  0  0  0  0  0  0
   63.2670   33.8580   48.1100 C   0  0  0  0  0  0  0  0  0  0  0  0
   62.9340   33.3960   49.3880 C   0  0  0  0  0  0  0  0  0  0  0  0
   62.2880   32.1580   49.5470 C   0  0  0  0  0  0  0  0  0  0  0  0
   61.8150   31.7560   50.8890 C   0  0  0  0  0  0  0  0  0  0  0  0
   62.3460   30.7470   51.4260 O   0  0  0  0  0  0  0  0  0  0  0  0
   60.8050   32.4990   51.6040 N   0  0  0  0  0  0  0  0  0  0  0  0
   60.8510   32.5680   53.0710 C   0  0  0  0  0  0  0  0  0  0  0  0
   59.4330   32.6710   53.6290 C   0  0  0  0  0  0  0  0  0  0  0  0
   58.7300   33.7370   53.0210 O   0  0  0  0  0  0  0  0  0  0  0  0
   58.5510   33.4710   51.6460 C   0  0  0  0  0  0  0  0  0  0  0  0
   59.9000   33.4320   50.9180 C   0  0  0  0  0  0  0  0  0  0  0  0
   58.9151   28.3148   49.3253 H   0  0  0  0  0  0  0  0  0  0  0  0
   58.0256   29.1766   48.0040 H   0  0  0  0  0  0  0  0  0  0  0  0
   59.3797   29.8848   45.8898 H   0  0  0  0  0  0  0  0  0  0  0  0
   60.0500   28.5528   44.8438 H   0  0  0  0  0  0  0  0  0  0  0  0
   58.0171   27.9703   44.1892 H   0  0  0  0  0  0  0  0  0  0  0  0
   57.5019   27.7864   45.9345 H   0  0  0  0  0  0  0  0  0  0  0  0
   59.0891   31.3017   43.6745 H   0  0  0  0  0  0  0  0  0  0  0  0
   57.4283   31.1689   42.9747 H   0  0  0  0  0  0  0  0  0  0  0  0
   58.3564   33.5020   42.9039 H   0  0  0  0  0  0  0  0  0  0  0  0
   56.8296   33.3579   43.8474 H   0  0  0  0  0  0  0  0  0  0  0  0
   59.2505   35.4584   44.0029 H   0  0  0  0  0  0  0  0  0  0  0  0
   60.3686   36.4033   46.0214 H   0  0  0  0  0  0  0  0  0  0  0  0
   60.3190   35.1498   48.1800 H   0  0  0  0  0  0  0  0  0  0  0  0
   59.1268   32.9628   48.3296 H   0  0  0  0  0  0  0  0  0  0  0  0
   58.3648   30.9716   46.9979 H   0  0  0  0  0  0  0  0  0  0  0  0
   56.8014   31.8941   46.7938 H   0  0  0  0  0  0  0  0  0  0  0  0
   61.7290   29.2790   48.4790 H   0  0  0  0  0  0  0  0  0  0  0  0
   61.9615   31.3217   46.2313 H   0  0  0  0  0  0  0  0  0  0  0  0
   63.1797   33.4824   45.9768 H   0  0  0  0  0  0  0  0  0  0  0  0
   63.8023   34.8120   47.9944 H   0  0  0  0  0  0  0  0  0  0  0  0
   63.1787   34.0039   50.2715 H   0  0  0  0  0  0  0  0  0  0  0  0
   61.3332   31.6609   53.4643 H   0  0  0  0  0  0  0  0  0  0  0  0
   61.4261   33.4550   53.3749 H   0  0  0  0  0  0  0  0  0  0  0  0
   58.8993   31.7292   53.4336 H   0  0  0  0  0  0  0  0  0  0  0  0
   59.4928   32.8599   54.7110 H   0  0  0  0  0  0  0  0  0  0  0  0
   58.0501   32.4987   51.5292 H   0  0  0  0  0  0  0  0  0  0  0  0
   57.9379   34.2730   51.2090 H   0  0  0  0  0  0  0  0  0  0  0  0
   59.7468   33.0975   49.8814 H   0  0  0  0  0  0  0  0  0  0  0  0
   60.3443   34.4383   50.9190 H   0  0  0  0  0  0  0  0  0  0  0  0
  1  2  2  0
  2  3  1  0
  3  4  1  0
  4  5  1  0
  5  6  1  0
  6  7  1  0
  7  8  2  0
  7  9  1  0
  9 10  1  0
 10 11  1  0
 11 12  1  0
 12 13  2  0
 13 14  1  0
 14 15  2  0
 15 16  1  0
 16 17  2  0
 17 18  1  0
  2 19  1  0
 19 20  1  0
 20 21  2  0
 21 22  1  0
 22 23  2  0
 23 24  1  0
 24 25  2  0
 25 26  1  0
 26 27  2  0
 26 28  1  0
 28 29  1  0
 29 30  1  0
 30 31  1  0
 31 32  1  0
 32 33  1  0
 18  9  1  0
 25 20  1  0
 33 28  1  0
 17 12  1  0
  3 34  1  0
  3 35  1  0
  5 36  1  0
  5 37  1  0
  6 38  1  0
  6 39  1  0
 10 40  1  0
 10 41  1  0
 11 42  1  0
 11 43  1  0
 13 44  1  0
 14 45  1  0
 15 46  1  0
 16 47  1  0
 18 48  1  0
 18 49  1  0
 19 50  1  0
 21 51  1  0
 22 52  1  0
 23 53  1  0
 24 54  1  0
 29 55  1  0
 29 56  1  0
 30 57  1  0
 30 58  1  0
 32 59  1  0
 32 60  1  0
 33 61  1  0
 33 62  1  0
M  END
>  <UniqueID>  (85) 
82

>  <SMILES>  (85) 
O=C(CSCCC(=O)N1CCc2ccccc2C1)Nc1ccccc1C(=O)N1CCOCC1

>  <Energy>  (85) 
78.22391093127214

>  <Genealogy>  (85) 
O=C(CSCCC(=O)N1CCc2ccccc2C1)Nc1ccccc1C(=O)N1CCOCC1 (3D coordinates assigned)
O=C(CSCCC(=O)N1CCc2ccccc2C1)Nc1ccccc1C(=O)N1CCOCC1 (nonaromatic ring conformer: 78.22391093127214 kcal/mol)

>  <smiles>  (85) 
O=C(CSCCC(=O)N1CCc2ccccc2C1)Nc1ccccc1C(=O)N1CCOCC1

>  <score_type>  (85) 
oracle

>  <origin>  (85) 
adg

>  <m_score__min__energy>  (85) 
-10.56

>  <m_primary>  (85) 
energy

$$$$
85:0
     RDKit          3D

 46 48  0  0  0  0  0  0  0  0999 V2000
   58.5660   32.3130   48.6910 C   0  0  0  0  0  0  0  0  0  0  0  0
   58.6880   32.9600   47.3420 C   0  0  0  0  0  0  0  0  0  0  0  0
   59.2140   34.2550   47.2270 C   0  0  0  0  0  0  0  0  0  0  0  0
   59.2930   34.8750   45.9780 C   0  0  0  0  0  0  0  0  0  0  0  0
   58.8410   34.2120   44.8340 C   0  0  0  0  0  0  0  0  0  0  0  0
   58.3080   32.9170   44.9350 C   0  0  0  0  0  0  0  0  0  0  0  0
   57.7810   32.2170   43.7160 C   0  0  0  0  0  0  0  0  0  0  0  0
   58.2330   30.8240   43.7250 N   0  0  0  0  0  0  0  0  0  0  0  0
   56.8750   29.7570   43.9240 S   0  0  0  0  0  0  0  0  0  0  0  0
   55.8590   30.4000   44.8230 O   0  0  0  0  0  0  0  0  0  0  0  0
   56.2500   29.4870   42.5830 O   0  0  0  0  0  0  0  0  0  0  0  0
   57.4290   28.2550   44.6570 C   0  0  0  0  0  0  0  0  0  0  0  0
   57.8100   27.1870   43.8360 C   0  0  0  0  0  0  0  0  0  0  0  0
   58.1600   25.9580   44.3980 C   0  0  0  0  0  0  0  0  0  0  0  0
   58.1170   25.7800   45.7910 C   0  0  0  0  0  0  0  0  0  0  0  0
   58.4210   24.5140   46.3910 N   0  0  0  0  0  0  0  0  0  0  0  0
   57.6270   23.3260   46.2780 C   0  0  0  0  0  0  0  0  0  0  0  0
   57.2760   22.7340   47.3320 O   0  0  0  0  0  0  0  0  0  0  0  0
   57.1540   22.8250   44.9640 C   0  0  0  0  0  0  0  0  0  0  0  0
   57.8450   21.9700   44.1260 C   0  0  0  0  0  0  0  0  0  0  0  0
   57.0180   21.8090   43.0320 C   0  0  0  0  0  0  0  0  0  0  0  0
   55.8950   22.5330   43.2020 N   0  0  0  0  0  0  0  0  0  0  0  0
   55.9830   23.1480   44.3700 N   0  0  0  0  0  0  0  0  0  0  0  0
   54.9370   24.0220   44.8900 C   0  0  0  0  0  0  0  0  0  0  0  0
   57.7930   26.8650   46.6130 C   0  0  0  0  0  0  0  0  0  0  0  0
   57.4400   28.0960   46.0500 C   0  0  0  0  0  0  0  0  0  0  0  0
   58.2150   32.3020   46.1950 C   0  0  0  0  0  0  0  0  0  0  0  0
   58.7089   33.0708   49.4754 H   0  0  0  0  0  0  0  0  0  0  0  0
   57.5673   31.8634   48.7931 H   0  0  0  0  0  0  0  0  0  0  0  0
   59.3324   31.5306   48.7931 H   0  0  0  0  0  0  0  0  0  0  0  0
   59.5659   34.7848   48.1245 H   0  0  0  0  0  0  0  0  0  0  0  0
   59.7124   35.8885   45.8946 H   0  0  0  0  0  0  0  0  0  0  0  0
   58.9029   34.7054   43.8528 H   0  0  0  0  0  0  0  0  0  0  0  0
   56.6814   32.2466   43.7217 H   0  0  0  0  0  0  0  0  0  0  0  0
   58.1543   32.7199   42.8117 H   0  0  0  0  0  0  0  0  0  0  0  0
   58.8610   30.6880   44.5500 H   0  0  0  0  0  0  0  0  0  0  0  0
   57.8337   27.3167   42.7439 H   0  0  0  0  0  0  0  0  0  0  0  0
   58.4704   25.1264   43.7483 H   0  0  0  0  0  0  0  0  0  0  0  0
   58.8339   21.5183   44.2934 H   0  0  0  0  0  0  0  0  0  0  0  0
   57.2423   21.1843   42.1548 H   0  0  0  0  0  0  0  0  0  0  0  0
   54.9578   24.0046   45.9897 H   0  0  0  0  0  0  0  0  0  0  0  0
   55.1082   25.0494   44.5362 H   0  0  0  0  0  0  0  0  0  0  0  0
   53.9564   23.6710   44.5362 H   0  0  0  0  0  0  0  0  0  0  0  0
   57.8160   26.7495   47.7067 H   0  0  0  0  0  0  0  0  0  0  0  0
   57.1706   28.9406   46.7012 H   0  0  0  0  0  0  0  0  0  0  0  0
   57.7695   31.3002   46.2834 H   0  0  0  0  0  0  0  0  0  0  0  0
  1  2  1  0
  2  3  2  0
  3  4  1  0
  4  5  2  0
  5  6  1  0
  6  7  1  0
  7  8  1  0
  8  9  1  0
  9 10  2  0
  9 11  2  0
  9 12  1  0
 12 13  2  0
 13 14  1  0
 14 15  2  0
 15 16  1  0
 16 17  1  0
 17 18  2  0
 17 19  1  0
 19 20  2  0
 20 21  1  0
 21 22  2  0
 22 23  1  0
 23 24  1  0
 15 25  1  0
 25 26  2  0
  6 27  2  0
 27  2  1  0
 26 12  1  0
 23 19  1  0
  1 28  1  0
  1 29  1  0
  1 30  1  0
  3 31  1  0
  4 32  1  0
  5 33  1  0
  7 34  1  0
  7 35  1  0
  8 36  1  0
 13 37  1  0
 14 38  1  0
 20 39  1  0
 21 40  1  0
 24 41  1  0
 24 42  1  0
 24 43  1  0
 25 44  1  0
 26 45  1  0
 27 46  1  0
M  CHG  1  16  -1
M  END
>  <UniqueID>  (86) 
83

>  <SMILES>  (86) 
Cc1cccc(CNS(=O)(=O)c2ccc([N-]C(=O)c3ccnn3C)cc2)c1

>  <Energy>  (86) 
78.15383974718281

>  <Genealogy>  (86) 
Cc1cccc(CNS(=O)(=O)c2ccc([N-]C(=O)c3ccnn3C)cc2)c1 (protonated)
Cc1cccc(CNS(=O)(=O)c2ccc([N-]C(=O)c3ccnn3C)cc2)c1 (3D coordinates assigned)
Cc1cccc(CNS(=O)(=O)c2ccc([N-]C(=O)c3ccnn3C)cc2)c1 (optimized conformer: 78.15383974718281 kcal/mol)

>  <smiles>  (86) 
Cc1cccc(CNS(=O)(=O)c2ccc(NC(=O)c3ccnn3C)cc2)c1

>  <score_type>  (86) 
oracle

>  <origin>  (86) 
adg

>  <m_score__min__energy>  (86) 
-10.93

>  <m_primary>  (86) 
energy

$$$$
86:0
     RDKit          3D

 47 50  0  0  0  0  0  0  0  0999 V2000
   54.7550   28.6010   44.4900 H   0  0  0  0  0  0  0  0  0  0  0  0
   55.6070   28.5580   45.0360 O   0  0  0  0  0  0  0  0  0  0  0  0
   56.0330   27.3750   45.6350 C   0  0  0  0  0  0  0  0  0  0  0  0
   55.2010   26.3700   45.9520 N   0  0  0  0  0  0  0  0  0  0  0  0
   56.0190   25.4860   46.5620 C   0  0  0  0  0  0  0  0  0  0  0  0
   55.6070   24.3890   47.0220 O   0  0  0  0  0  0  0  0  0  0  0  0
   57.3090   25.8720   46.6490 N   0  0  0  0  0  0  0  0  0  0  0  0
   57.3190   27.0680   46.0360 C   0  0  0  0  0  0  0  0  0  0  0  0
   58.5250   27.9060   45.9190 C   0  0  0  0  0  0  0  0  0  0  0  0
   59.0795   27.8910   44.9691 H   0  0  0  0  0  0  0  0  0  0  0  0
   58.9850   28.6900   46.9140 C   0  0  0  0  0  0  0  0  0  0  0  0
   59.2880   28.2770   48.2000 C   0  0  0  0  0  0  0  0  0  0  0  0
   59.2290   27.2503   48.5905 H   0  0  0  0  0  0  0  0  0  0  0  0
   59.6780   29.4010   48.8970 C   0  0  0  0  0  0  0  0  0  0  0  0
   60.0840   29.3880   50.3400 C   0  0  0  0  0  0  0  0  0  0  0  0
   59.1855   29.4168   50.9740 H   0  0  0  0  0  0  0  0  0  0  0  0
   60.6535   28.4712   50.5524 H   0  0  0  0  0  0  0  0  0  0  0  0
   60.7109   30.2665   50.5524 H   0  0  0  0  0  0  0  0  0  0  0  0
   59.6570   30.4960   48.0970 N   0  0  0  0  0  0  0  0  0  0  0  0
   59.9920   31.8680   48.5250 C   0  0  0  0  0  0  0  0  0  0  0  0
   59.1925   32.5490   48.1978 H   0  0  0  0  0  0  0  0  0  0  0  0
   60.0885   31.8720   49.6208 H   0  0  0  0  0  0  0  0  0  0  0  0
   61.3060   32.3330   47.9330 C   0  0  0  0  0  0  0  0  0  0  0  0
   62.4820   31.6200   48.2350 C   0  0  0  0  0  0  0  0  0  0  0  0
   62.4303   30.7400   48.8930 H   0  0  0  0  0  0  0  0  0  0  0  0
   63.7130   32.0170   47.7090 C   0  0  0  0  0  0  0  0  0  0  0  0
   64.6221   31.4447   47.9458 H   0  0  0  0  0  0  0  0  0  0  0  0
   63.7910   33.1380   46.8840 C   0  0  0  0  0  0  0  0  0  0  0  0
   64.7606   33.4451   46.4650 H   0  0  0  0  0  0  0  0  0  0  0  0
   62.6410   33.8710   46.5890 C   0  0  0  0  0  0  0  0  0  0  0  0
   62.7102   34.7594   45.9441 H   0  0  0  0  0  0  0  0  0  0  0  0
   61.3970   33.4830   47.1090 C   0  0  0  0  0  0  0  0  0  0  0  0
   60.2230   34.3140   46.7960 C   0  0  0  0  0  0  0  0  0  0  0  0
   59.6910   34.9990   47.7070 O   0  0  0  0  0  0  0  0  0  0  0  0
   59.6430   34.3150   45.4880 N   0  0  0  0  0  0  0  0  0  0  0  0
   58.2330   34.5960   45.2450 C   0  0  0  0  0  0  0  0  0  0  0  0
   58.3171   35.6867   45.1293 H   0  0  0  0  0  0  0  0  0  0  0  0
   57.2850   33.6730   45.9870 C   0  0  0  0  0  0  0  0  0  0  0  0
   57.6797   32.9459   46.7119 H   0  0  0  0  0  0  0  0  0  0  0  0
   56.3932   33.8144   46.6152 H   0  0  0  0  0  0  0  0  0  0  0  0
   57.5340   33.4760   44.4980 C   0  0  0  0  0  0  0  0  0  0  0  0
   58.1087   32.6064   44.1464 H   0  0  0  0  0  0  0  0  0  0  0  0
   56.8968   33.4160   43.6034 H   0  0  0  0  0  0  0  0  0  0  0  0
   59.2050   30.0720   46.8810 C   0  0  0  0  0  0  0  0  0  0  0  0
   59.0130   30.8650   45.8120 C   0  0  0  0  0  0  0  0  0  0  0  0
   59.2145   31.9440   45.8843 H   0  0  0  0  0  0  0  0  0  0  0  0
   58.6545   30.4347   44.8653 H   0  0  0  0  0  0  0  0  0  0  0  0
  1  2  1  0
  2  3  1  0
  3  4  1  0
  4  5  1  0
  5  6  2  0
  5  7  1  0
  7  8  1  0
  8  9  1  0
  9 10  1  0
  9 11  2  0
 11 12  1  0
 12 13  1  0
 12 14  2  0
 14 15  1  0
 15 16  1  0
 15 17  1  0
 15 18  1  0
 14 19  1  0
 19 20  1  0
 20 21  1  0
 20 22  1  0
 20 23  1  0
 23 24  2  0
 24 25  1  0
 24 26  1  0
 26 27  1  0
 26 28  2  0
 28 29  1  0
 28 30  1  0
 30 31  1  0
 30 32  2  0
 32 33  1  0
 33 34  2  0
 33 35  1  0
 35 36  1  0
 36 37  1  0
 36 38  1  0
 38 39  1  0
 38 40  1  0
 38 41  1  0
 41 42  1  0
 41 43  1  0
 19 44  1  0
 44 45  2  0
 45 46  1  0
 45 47  1  0
  8  3  2  0
 44 11  1  0
 32 23  1  0
 41 36  1  0
M  CHG  3   4  -1   7  -1  35  -1
M  END
>  <UniqueID>  (87) 
84

>  <SMILES>  (87) 
C=c1/c(=C/c2[n-]c(=O)[n-]c2O)cc(C)n1Cc1ccccc1C(=O)[N-]C1CC1

>  <Energy>  (87) 
385.58046219228925

>  <Genealogy>  (87) 
C=c1c(=Cc2[n-]c(=O)[n-]c2O)cc(C)n1Cc1ccccc1C(=O)[N-]C1CC1 (protonated)
C=c1/c(=C/c2[n-]c(=O)[n-]c2O)cc(C)n1Cc1ccccc1C(=O)[N-]C1CC1 (cis-trans isomerization)
C=c1/c(=C/c2[n-]c(=O)[n-]c2O)cc(C)n1Cc1ccccc1C(=O)[N-]C1CC1 (3D coordinates assigned)
C=c1/c(=C/c2[n-]c(=O)[n-]c2O)cc(C)n1Cc1ccccc1C(=O)[N-]C1CC1 (nonaromatic ring conformer: 385.58046219228925 kcal/mol)

>  <smiles>  (87) 
C=c1c(=Cc2[nH]c(=O)[nH]c2O)cc(C)n1Cc1ccccc1C(=O)NC1CC1

>  <score_type>  (87) 
oracle

>  <origin>  (87) 
adg

>  <m_score__min__energy>  (87) 
-14.630000000000001

>  <m_primary>  (87) 
energy

$$$$
87:0
     RDKit          3D

 45 47  0  0  0  0  0  0  0  0999 V2000
   59.3420   31.6750   50.2350 N   0  0  0  0  0  0  0  0  0  0  0  0
   58.8990   30.4560   49.6420 C   0  0  0  0  0  0  0  0  0  0  0  0
   58.1540   29.6860   50.3060 O   0  0  0  0  0  0  0  0  0  0  0  0
   59.3130   30.0920   48.2680 C   0  0  0  0  0  0  0  0  0  0  0  0
   60.4440   30.6910   47.6810 C   0  0  0  0  0  0  0  0  0  0  0  0
   60.8220   30.3630   46.3760 C   0  0  0  0  0  0  0  0  0  0  0  0
   60.0750   29.4420   45.6390 C   0  0  0  0  0  0  0  0  0  0  0  0
   58.9450   28.8440   46.2060 C   0  0  0  0  0  0  0  0  0  0  0  0
   57.9690   27.6810   45.2440 S   0  0  0  0  0  0  0  0  0  0  0  0
   57.5070   28.8870   43.9520 C   0  0  0  0  0  0  0  0  0  0  0  0
   56.3170   29.6810   44.3860 C   0  0  0  0  0  0  0  0  0  0  0  0
   55.3190   29.0880   44.8740 O   0  0  0  0  0  0  0  0  0  0  0  0
   56.3230   31.1050   44.2260 N   0  0  0  0  0  0  0  0  0  0  0  0
   57.2800   32.0370   44.7540 C   0  0  0  0  0  0  0  0  0  0  0  0
   58.0400   32.8830   43.9310 C   0  0  0  0  0  0  0  0  0  0  0  0
   58.9590   33.7720   44.4910 C   0  0  0  0  0  0  0  0  0  0  0  0
   59.1130   33.8620   45.8850 C   0  0  0  0  0  0  0  0  0  0  0  0
   60.1650   34.7490   46.4370 C   0  0  0  0  0  0  0  0  0  0  0  0
   60.0140   35.9990   46.3530 O   0  0  0  0  0  0  0  0  0  0  0  0
   61.3500   34.2180   47.1600 C   0  0  0  0  0  0  0  0  0  0  0  0
   62.4640   33.7790   46.4230 C   0  0  0  0  0  0  0  0  0  0  0  0
   63.5970   33.2820   47.0740 C   0  0  0  0  0  0  0  0  0  0  0  0
   63.6270   33.2100   48.4670 C   0  0  0  0  0  0  0  0  0  0  0  0
   62.5220   33.6250   49.2120 C   0  0  0  0  0  0  0  0  0  0  0  0
   61.3820   34.1190   48.5690 C   0  0  0  0  0  0  0  0  0  0  0  0
   60.2830   34.4830   49.3380 O   0  0  0  0  0  0  0  0  0  0  0  0
   58.3000   33.0570   46.7170 C   0  0  0  0  0  0  0  0  0  0  0  0
   58.3360   33.1500   48.1100 O   0  0  0  0  0  0  0  0  0  0  0  0
   57.4020   32.1490   46.1430 C   0  0  0  0  0  0  0  0  0  0  0  0
   58.5780   29.1510   47.5230 C   0  0  0  0  0  0  0  0  0  0  0  0
   59.6760   32.4670   49.6410 H   0  0  0  0  0  0  0  0  0  0  0  0
   61.0340   31.4220   48.2533 H   0  0  0  0  0  0  0  0  0  0  0  0
   61.7106   30.8319   45.9282 H   0  0  0  0  0  0  0  0  0  0  0  0
   60.3753   29.1866   44.6121 H   0  0  0  0  0  0  0  0  0  0  0  0
   58.3519   29.5681   43.7723 H   0  0  0  0  0  0  0  0  0  0  0  0
   57.2578   28.3443   43.0282 H   0  0  0  0  0  0  0  0  0  0  0  0
   57.9107   32.8452   42.8393 H   0  0  0  0  0  0  0  0  0  0  0  0
   59.5693   34.4091   43.8340 H   0  0  0  0  0  0  0  0  0  0  0  0
   62.4439   33.8270   45.3242 H   0  0  0  0  0  0  0  0  0  0  0  0
   64.4654   32.9475   46.4875 H   0  0  0  0  0  0  0  0  0  0  0  0
   64.5220   32.8260   48.9784 H   0  0  0  0  0  0  0  0  0  0  0  0
   62.5477   33.5633   50.3100 H   0  0  0  0  0  0  0  0  0  0  0  0
   59.1940   33.1300   48.6440 H   0  0  0  0  0  0  0  0  0  0  0  0
   56.7831   31.5141   46.7941 H   0  0  0  0  0  0  0  0  0  0  0  0
   57.7091   28.6529   47.9779 H   0  0  0  0  0  0  0  0  0  0  0  0
  1  2  1  0
  2  3  2  0
  2  4  1  0
  4  5  2  0
  5  6  1  0
  6  7  2  0
  7  8  1  0
  8  9  1  0
  9 10  1  0
 10 11  1  0
 11 12  2  0
 11 13  1  0
 13 14  1  0
 14 15  2  0
 15 16  1  0
 16 17  2  0
 17 18  1  0
 18 19  2  0
 18 20  1  0
 20 21  2  0
 21 22  1  0
 22 23  2  0
 23 24  1  0
 24 25  2  0
 25 26  1  0
 17 27  1  0
 27 28  1  0
 27 29  2  0
  8 30  2  0
 30  4  1  0
 29 14  1  0
 25 20  1  0
  1 31  1  0
  5 32  1  0
  6 33  1  0
  7 34  1  0
 10 35  1  0
 10 36  1  0
 15 37  1  0
 16 38  1  0
 21 39  1  0
 22 40  1  0
 23 41  1  0
 24 42  1  0
 28 43  1  0
 29 44  1  0
 30 45  1  0
M  CHG  3   1  -1  13  -1  26  -1
M  END
>  <UniqueID>  (88) 
85

>  <SMILES>  (88) 
[NH-]C(=O)c1cccc(SCC(=O)[N-]c2ccc(C(=O)c3ccccc3[O-])c(O)c2)c1

>  <Energy>  (88) 
54.75752460232191

>  <Genealogy>  (88) 
[NH-]C(=O)c1cccc(SCC(=O)[N-]c2ccc(C(=O)c3ccccc3[O-])c(O)c2)c1 (protonated)
[NH-]C(=O)c1cccc(SCC(=O)[N-]c2ccc(C(=O)c3ccccc3[O-])c(O)c2)c1 (3D coordinates assigned)
[NH-]C(=O)c1cccc(SCC(=O)[N-]c2ccc(C(=O)c3ccccc3[O-])c(O)c2)c1 (optimized conformer: 54.75752460232191 kcal/mol)

>  <smiles>  (88) 
NC(=O)c1cccc(SCC(=O)Nc2ccc(C(=O)c3ccccc3O)c(O)c2)c1

>  <score_type>  (88) 
oracle

>  <origin>  (88) 
adg

>  <m_score__min__energy>  (88) 
-15.279999999999999

>  <m_primary>  (88) 
energy

$$$$
88:0
     RDKit          3D

 40 42  0  0  0  0  0  0  0  0999 V2000
   52.1985   27.9910   53.5083 H   0  0  0  0  0  0  0  0  0  0  0  0
   53.2860   27.9140   53.6550 C   0  0  0  0  0  0  0  0  0  0  0  0
   53.7131   27.0282   54.1478 H   0  0  0  0  0  0  0  0  0  0  0  0
   54.0910   28.9000   53.2330 C   0  0  0  0  0  0  0  0  0  0  0  0
   55.4220   28.7340   53.4490 N   0  0  0  0  0  0  0  0  0  0  0  0
   56.3810   29.5370   52.9180 C   0  0  0  0  0  0  0  0  0  0  0  0
   57.8090   29.2500   53.2790 C   0  0  0  0  0  0  0  0  0  0  0  0
   57.9133   29.2290   54.3738 H   0  0  0  0  0  0  0  0  0  0  0  0
   58.1032   28.2748   52.8639 H   0  0  0  0  0  0  0  0  0  0  0  0
   58.4572   30.0358   52.8639 H   0  0  0  0  0  0  0  0  0  0  0  0
   56.0040   30.5710   52.0320 C   0  0  0  0  0  0  0  0  0  0  0  0
   56.9820   31.4460   51.3350 C   0  0  0  0  0  0  0  0  0  0  0  0
   57.0480   32.6780   51.5980 O   0  0  0  0  0  0  0  0  0  0  0  0
   57.8590   30.8880   50.3970 O   0  0  0  0  0  0  0  0  0  0  0  0
   59.0020   31.5740   49.8870 C   0  0  0  0  0  0  0  0  0  0  0  0
   59.6322   30.8048   49.4166 H   0  0  0  0  0  0  0  0  0  0  0  0
   58.6090   32.6570   48.8890 C   0  0  0  0  0  0  0  0  0  0  0  0
   58.6350   32.2591   47.8638 H   0  0  0  0  0  0  0  0  0  0  0  0
   57.5875   33.0213   49.0727 H   0  0  0  0  0  0  0  0  0  0  0  0
   59.6370   33.7740   49.0500 C   0  0  0  0  0  0  0  0  0  0  0  0
   60.3176   33.7885   48.1859 H   0  0  0  0  0  0  0  0  0  0  0  0
   59.1443   34.7558   49.1079 H   0  0  0  0  0  0  0  0  0  0  0  0
   60.4190   33.4800   50.3290 C   0  0  0  0  0  0  0  0  0  0  0  0
   61.4577   33.2113   50.0863 H   0  0  0  0  0  0  0  0  0  0  0  0
   60.4499   34.3601   50.9881 H   0  0  0  0  0  0  0  0  0  0  0  0
   59.7180   32.3120   51.0030 C   0  0  0  0  0  0  0  0  0  0  0  0
   60.4509   31.6533   51.4918 H   0  0  0  0  0  0  0  0  0  0  0  0
   59.0206   32.6488   51.7842 H   0  0  0  0  0  0  0  0  0  0  0  0
   54.6340   30.7930   51.8220 C   0  0  0  0  0  0  0  0  0  0  0  0
   54.3213   31.5887   51.1299 H   0  0  0  0  0  0  0  0  0  0  0  0
   53.6480   30.0250   52.4730 C   0  0  0  0  0  0  0  0  0  0  0  0
   52.3590   30.4290   52.3350 C   0  0  0  0  0  0  0  0  0  0  0  0
   51.7494   30.4635   53.2500 H   0  0  0  0  0  0  0  0  0  0  0  0
   51.6960   30.8260   51.0790 C   0  0  0  0  0  0  0  0  0  0  0  0
   51.6780   30.0580   49.9760 N   0  0  0  0  0  0  0  0  0  0  0  0
   51.0750   30.8430   49.0570 C   0  0  0  0  0  0  0  0  0  0  0  0
   50.8590   30.4620   47.8770 O   0  0  0  0  0  0  0  0  0  0  0  0
   50.7340   32.0730   49.4970 N   0  0  0  0  0  0  0  0  0  0  0  0
   51.1460   32.0530   50.7740 C   0  0  0  0  0  0  0  0  0  0  0  0
   51.0490   33.1420   51.6320 O   0  0  0  0  0  0  0  0  0  0  0  0
  1  2  1  0
  2  3  1  0
  2  4  2  0
  4  5  1  0
  5  6  2  0
  6  7  1  0
  7  8  1  0
  7  9  1  0
  7 10  1  0
  6 11  1  0
 11 12  1  0
 12 13  2  0
 12 14  1  0
 14 15  1  0
 15 16  1  0
 15 17  1  0
 17 18  1  0
 17 19  1  0
 17 20  1  0
 20 21  1  0
 20 22  1  0
 20 23  1  0
 23 24  1  0
 23 25  1  0
 23 26  1  0
 26 27  1  0
 26 28  1  0
 11 29  2  0
 29 30  1  0
 29 31  1  0
 31 32  2  0
 32 33  1  0
 32 34  1  0
 34 35  1  0
 35 36  1  0
 36 37  2  0
 36 38  1  0
 38 39  1  0
 39 40  1  0
 31  4  1  0
 39 34  2  0
 26 15  1  0
M  CHG  3  35  -1  38  -1  40  -1
M  END
>  <UniqueID>  (89) 
86

>  <SMILES>  (89) 
C=c1nc(C)c(C(=O)OC2CCCC2)c/c1=C/c1[n-]c(=O)[n-]c1[O-]

>  <Energy>  (89) 
92.43238500956042

>  <Genealogy>  (89) 
C=c1nc(C)c(C(=O)OC2CCCC2)cc1=Cc1[n-]c(=O)[n-]c1[O-] (protonated)
C=c1nc(C)c(C(=O)OC2CCCC2)c/c1=C/c1[n-]c(=O)[n-]c1[O-] (cis-trans isomerization)
C=c1nc(C)c(C(=O)OC2CCCC2)c/c1=C/c1[n-]c(=O)[n-]c1[O-] (3D coordinates assigned)
C=c1nc(C)c(C(=O)OC2CCCC2)c/c1=C/c1[n-]c(=O)[n-]c1[O-] (nonaromatic ring conformer: 92.43238500956042 kcal/mol)

>  <smiles>  (89) 
C=c1nc(C)c(C(=O)OC2CCCC2)cc1=Cc1[nH]c(=O)[nH]c1O

>  <score_type>  (89) 
oracle

>  <origin>  (89) 
adg

>  <m_score__min__energy>  (89) 
-16.399999999999999

>  <m_primary>  (89) 
energy

$$$$
89:0
     RDKit          3D

 50 52  0  0  0  0  0  0  0  0999 V2000
   53.9600   24.9710   45.6160 C   0  0  0  0  0  0  0  0  0  0  0  0
   54.7490   26.1400   45.9770 N   0  0  0  0  0  0  0  0  0  0  0  0
   56.1180   26.1500   46.4110 C   0  0  0  0  0  0  0  0  0  0  0  0
   56.4950   25.2260   47.1780 O   0  0  0  0  0  0  0  0  0  0  0  0
   57.0940   27.1950   45.9970 C   0  0  0  0  0  0  0  0  0  0  0  0
   56.6590   28.3500   45.4200 N   0  0  0  0  0  0  0  0  0  0  0  0
   57.5000   29.3490   45.0350 C   0  0  0  0  0  0  0  0  0  0  0  0
   56.9560   30.5380   44.3480 C   0  0  0  0  0  0  0  0  0  0  0  0
   55.7440   30.8540   44.4920 O   0  0  0  0  0  0  0  0  0  0  0  0
   57.8180   31.3820   43.5730 N   0  0  0  0  0  0  0  0  0  0  0  0
   57.7790   32.8350   43.7240 C   0  0  0  0  0  0  0  0  0  0  0  0
   58.3940   33.2100   45.0440 C   0  0  0  0  0  0  0  0  0  0  0  0
   57.8680   32.6970   46.2390 C   0  0  0  0  0  0  0  0  0  0  0  0
   58.5560   32.8700   47.4420 C   0  0  0  0  0  0  0  0  0  0  0  0
   59.7850   33.5430   47.4640 C   0  0  0  0  0  0  0  0  0  0  0  0
   60.7210   33.6280   48.9550 S   0  0  0  0  0  0  0  0  0  0  0  0
   61.4810   34.9250   48.9900 O   0  0  0  0  0  0  0  0  0  0  0  0
   59.7710   33.6220   50.1210 O   0  0  0  0  0  0  0  0  0  0  0  0
   61.8380   32.2860   49.1240 N   0  0  0  0  0  0  0  0  0  0  0  0
   62.0570   31.5580   47.8570 C   0  0  0  0  0  0  0  0  0  0  0  0
   63.3620   31.9630   47.1480 C   0  0  0  0  0  0  0  0  0  0  0  0
   63.7290   33.2790   47.4910 O   0  0  0  0  0  0  0  0  0  0  0  0
   64.1180   33.3250   48.8500 C   0  0  0  0  0  0  0  0  0  0  0  0
   63.0920   32.6650   49.8000 C   0  0  0  0  0  0  0  0  0  0  0  0
   60.2890   34.0960   46.2780 C   0  0  0  0  0  0  0  0  0  0  0  0
   59.6010   33.9250   45.0750 C   0  0  0  0  0  0  0  0  0  0  0  0
   58.8800   29.1990   45.2360 C   0  0  0  0  0  0  0  0  0  0  0  0
   59.3620   28.0300   45.8220 C   0  0  0  0  0  0  0  0  0  0  0  0
   58.4760   27.0220   46.2070 C   0  0  0  0  0  0  0  0  0  0  0  0
   58.9740   25.8840   46.7550 F   0  0  0  0  0  0  0  0  0  0  0  0
   53.6174   24.4634   46.5298 H   0  0  0  0  0  0  0  0  0  0  0  0
   53.0888   25.2856   45.0227 H   0  0  0  0  0  0  0  0  0  0  0  0
   54.5777   24.2807   45.0227 H   0  0  0  0  0  0  0  0  0  0  0  0
   58.6310   30.9600   43.0730 H   0  0  0  0  0  0  0  0  0  0  0  0
   58.3456   33.3054   42.9069 H   0  0  0  0  0  0  0  0  0  0  0  0
   56.7361   33.1830   43.6893 H   0  0  0  0  0  0  0  0  0  0  0  0
   56.9100   32.1564   46.2285 H   0  0  0  0  0  0  0  0  0  0  0  0
   58.1310   32.4760   48.3770 H   0  0  0  0  0  0  0  0  0  0  0  0
   62.0960   30.4804   48.0742 H   0  0  0  0  0  0  0  0  0  0  0  0
   61.2247   31.8115   47.1839 H   0  0  0  0  0  0  0  0  0  0  0  0
   64.1651   31.2743   47.4494 H   0  0  0  0  0  0  0  0  0  0  0  0
   63.2032   31.9129   46.0607 H   0  0  0  0  0  0  0  0  0  0  0  0
   65.0798   32.8018   48.9562 H   0  0  0  0  0  0  0  0  0  0  0  0
   64.1909   34.3854   49.1334 H   0  0  0  0  0  0  0  0  0  0  0  0
   63.5452   31.7597   50.2302 H   0  0  0  0  0  0  0  0  0  0  0  0
   62.8372   33.4053   50.5727 H   0  0  0  0  0  0  0  0  0  0  0  0
   61.2294   34.6664   46.2954 H   0  0  0  0  0  0  0  0  0  0  0  0
   60.0073   34.3530   44.1467 H   0  0  0  0  0  0  0  0  0  0  0  0
   59.5751   29.9963   44.9340 H   0  0  0  0  0  0  0  0  0  0  0  0
   60.4427   27.9012   45.9815 H   0  0  0  0  0  0  0  0  0  0  0  0
  1  2  1  0
  2  3  1  0
  3  4  2  0
  3  5  1  0
  5  6  2  0
  6  7  1  0
  7  8  1  0
  8  9  2  0
  8 10  1  0
 10 11  1  0
 11 12  1  0
 12 13  2  0
 13 14  1  0
 14 15  2  0
 15 16  1  0
 16 17  2  0
 16 18  2  0
 16 19  1  0
 19 20  1  0
 20 21  1  0
 21 22  1  0
 22 23  1  0
 23 24  1  0
 15 25  1  0
 25 26  2  0
  7 27  2  0
 27 28  1  0
 28 29  2  0
 29 30  1  0
 29  5  1  0
 26 12  1  0
 24 19  1  0
  1 31  1  0
  1 32  1  0
  1 33  1  0
 10 34  1  0
 11 35  1  0
 11 36  1  0
 13 37  1  0
 14 38  1  0
 20 39  1  0
 20 40  1  0
 21 41  1  0
 21 42  1  0
 23 43  1  0
 23 44  1  0
 24 45  1  0
 24 46  1  0
 25 47  1  0
 26 48  1  0
 27 49  1  0
 28 50  1  0
M  CHG  1   2  -1
M  END
>  <UniqueID>  (90) 
87

>  <SMILES>  (90) 
C[N-]C(=O)c1nc(C(=O)NCc2ccc(S(=O)(=O)N3CCOCC3)cc2)ccc1F

>  <Energy>  (90) 
58.787269420536155

>  <Genealogy>  (90) 
C[N-]C(=O)c1nc(C(=O)NCc2ccc(S(=O)(=O)N3CCOCC3)cc2)ccc1F (protonated)
C[N-]C(=O)c1nc(C(=O)NCc2ccc(S(=O)(=O)N3CCOCC3)cc2)ccc1F (3D coordinates assigned)
C[N-]C(=O)c1nc(C(=O)NCc2ccc(S(=O)(=O)N3CCOCC3)cc2)ccc1F (nonaromatic ring conformer: 58.787269420536155 kcal/mol)

>  <smiles>  (90) 
CNC(=O)c1nc(C(=O)NCc2ccc(S(=O)(=O)N3CCOCC3)cc2)ccc1F

>  <score_type>  (90) 
oracle

>  <origin>  (90) 
adg

>  <m_score__min__energy>  (90) 
-12.720000000000001

>  <m_primary>  (90) 
energy

$$$$
90:0
     RDKit          3D

 46 48  0  0  0  0  0  0  0  0999 V2000
   53.9920   28.8820   54.3310 C   0  0  0  0  0  0  0  0  0  0  0  0
   54.4590   29.7290   53.3990 C   0  0  0  0  0  0  0  0  0  0  0  0
   53.7330   30.2930   52.3380 C   0  0  0  0  0  0  0  0  0  0  0  0
   52.4080   30.3300   52.0910 C   0  0  0  0  0  0  0  0  0  0  0  0
   51.4890   31.4050   52.4980 C   0  0  0  0  0  0  0  0  0  0  0  0
   51.2250   31.7470   53.7740 N   0  0  0  0  0  0  0  0  0  0  0  0
   50.4560   32.8510   53.6470 C   0  0  0  0  0  0  0  0  0  0  0  0
   49.9870   33.4670   54.6390 O   0  0  0  0  0  0  0  0  0  0  0  0
   50.2410   33.2490   52.3750 N   0  0  0  0  0  0  0  0  0  0  0  0
   50.9130   32.3310   51.6630 C   0  0  0  0  0  0  0  0  0  0  0  0
   51.0030   32.3420   50.2760 O   0  0  0  0  0  0  0  0  0  0  0  0
   54.6640   30.8850   51.5020 C   0  0  0  0  0  0  0  0  0  0  0  0
   55.8960   30.7250   52.1000 C   0  0  0  0  0  0  0  0  0  0  0  0
   57.1830   31.2570   51.5450 C   0  0  0  0  0  0  0  0  0  0  0  0
   55.7750   30.0450   53.2630 N   0  0  0  0  0  0  0  0  0  0  0  0
   56.8900   29.6330   54.1300 C   0  0  0  0  0  0  0  0  0  0  0  0
   57.2270   28.1540   53.9000 C   0  0  0  0  0  0  0  0  0  0  0  0
   58.7380   27.9020   53.8970 C   0  0  0  0  0  0  0  0  0  0  0  0
   59.2910   28.0750   52.5530 N   0  0  0  0  0  0  0  0  0  0  0  0
   60.3970   27.3110   52.0560 C   0  0  0  0  0  0  0  0  0  0  0  0
   60.9370   26.4360   52.7850 O   0  0  0  0  0  0  0  0  0  0  0  0
   60.9310   27.6270   50.7610 N   0  0  0  0  0  0  0  0  0  0  0  0
   60.3350   28.1530   49.7260 C   0  0  0  0  0  0  0  0  0  0  0  0
   60.4170   27.6090   48.4250 C   0  0  0  0  0  0  0  0  0  0  0  0
   59.7390   28.2340   47.3750 C   0  0  0  0  0  0  0  0  0  0  0  0
   58.9820   29.3790   47.6160 C   0  0  0  0  0  0  0  0  0  0  0  0
   58.9040   29.8820   48.9140 C   0  0  0  0  0  0  0  0  0  0  0  0
   59.5710   29.2630   49.9240 N   0  0  0  0  0  0  0  0  0  0  0  0
   54.6625   28.5058   55.1177 H   0  0  0  0  0  0  0  0  0  0  0  0
   52.9391   28.5645   54.3075 H   0  0  0  0  0  0  0  0  0  0  0  0
   51.9765   29.4832   51.5372 H   0  0  0  0  0  0  0  0  0  0  0  0
   54.4601   31.3867   50.5445 H   0  0  0  0  0  0  0  0  0  0  0  0
   57.8526   31.5338   52.3727 H   0  0  0  0  0  0  0  0  0  0  0  0
   57.6635   30.4838   50.9276 H   0  0  0  0  0  0  0  0  0  0  0  0
   56.9773   32.1438   50.9276 H   0  0  0  0  0  0  0  0  0  0  0  0
   57.7738   30.2463   53.9001 H   0  0  0  0  0  0  0  0  0  0  0  0
   56.5961   29.7731   55.1807 H   0  0  0  0  0  0  0  0  0  0  0  0
   56.7692   27.5568   54.7024 H   0  0  0  0  0  0  0  0  0  0  0  0
   56.8331   27.8657   52.9142 H   0  0  0  0  0  0  0  0  0  0  0  0
   59.2236   28.6134   54.5811 H   0  0  0  0  0  0  0  0  0  0  0  0
   58.9238   26.8684   54.2244 H   0  0  0  0  0  0  0  0  0  0  0  0
   58.9140   28.8480   51.9600 H   0  0  0  0  0  0  0  0  0  0  0  0
   61.0096   26.7010   48.2399 H   0  0  0  0  0  0  0  0  0  0  0  0
   59.8029   27.8218   46.3572 H   0  0  0  0  0  0  0  0  0  0  0  0
   58.4524   29.8798   46.7921 H   0  0  0  0  0  0  0  0  0  0  0  0
   58.3028   30.7797   49.1208 H   0  0  0  0  0  0  0  0  0  0  0  0
  1  2  2  0
  2  3  1  0
  3  4  2  3
  4  5  1  0
  5  6  1  0
  6  7  1  0
  7  8  2  0
  7  9  1  0
  9 10  1  0
 10 11  1  0
  3 12  1  0
 12 13  2  0
 13 14  1  0
 13 15  1  0
 15 16  1  0
 16 17  1  0
 17 18  1  0
 18 19  1  0
 19 20  1  0
 20 21  2  0
 20 22  1  0
 22 23  2  3
 23 24  1  0
 24 25  2  0
 25 26  1  0
 26 27  2  0
 27 28  1  0
 15  2  1  0
 28 23  1  0
 10  5  2  0
  1 29  1  0
  1 30  1  0
  4 31  1  0
 12 32  1  0
 14 33  1  0
 14 34  1  0
 14 35  1  0
 16 36  1  0
 16 37  1  0
 17 38  1  0
 17 39  1  0
 18 40  1  0
 18 41  1  0
 19 42  1  0
 24 43  1  0
 25 44  1  0
 26 45  1  0
 27 46  1  0
M  CHG  4   6  -1   9  -1  11  -1  28  -1
M  END
>  <UniqueID>  (91) 
88

>  <SMILES>  (91) 
C=c1c(=Cc2[n-]c(=O)[n-]c2[O-])cc(C)n1CCCNC(=O)N=c1cccc[n-]1

>  <Energy>  (91) 
118.37278220566665

>  <Genealogy>  (91) 
C=c1c(=Cc2[n-]c(=O)[n-]c2[O-])cc(C)n1CCCNC(=O)N=c1cccc[n-]1 (protonated)
C=c1c(=Cc2[n-]c(=O)[n-]c2[O-])cc(C)n1CCCNC(=O)N=c1cccc[n-]1 (3D coordinates assigned)
C=c1c(=Cc2[n-]c(=O)[n-]c2[O-])cc(C)n1CCCNC(=O)N=c1cccc[n-]1 (optimized conformer: 118.37278220566665 kcal/mol)

>  <smiles>  (91) 
C=c1c(=Cc2[nH]c(=O)[nH]c2O)cc(C)n1CCCNC(=O)N=c1cccc[nH]1

>  <score_type>  (91) 
oracle

>  <origin>  (91) 
adg

>  <m_score__min__energy>  (91) 
-17.23

>  <m_primary>  (91) 
energy

$$$$
91:0
     RDKit          3D

 65 69  0  0  0  0  0  0  0  0999 V2000
   61.9840   33.4340   47.0800 C   0  0  0  0  0  0  0  0  0  0  0  0
   61.1070   34.1730   46.3970 C   0  0  0  0  0  0  0  0  0  0  0  0
   59.6450   34.1940   46.7480 C   0  0  0  0  0  0  0  0  0  0  0  0
   59.0730   32.8440   46.6730 N   0  0  0  0  0  0  0  0  0  0  0  0
   58.9920   31.9110   47.6630 C   0  0  0  0  0  0  0  0  0  0  0  0
   59.4100   32.1400   49.0880 C   0  0  0  0  0  0  0  0  0  0  0  0
   58.3770   31.6530   50.0220 N   0  0  0  0  0  0  0  0  0  0  0  0
   58.6030   30.2320   50.3910 C   0  0  0  0  0  0  0  0  0  0  0  0
   57.8210   29.8080   51.6520 C   0  0  0  0  0  0  0  0  0  0  0  0
   56.7360   30.7520   51.9370 N   0  0  0  0  0  0  0  0  0  0  0  0
   55.4140   30.2780   52.2450 C   0  0  0  0  0  0  0  0  0  0  0  0
   54.2930   30.8590   51.6300 C   0  0  0  0  0  0  0  0  0  0  0  0
   53.0070   30.3910   51.9190 C   0  0  0  0  0  0  0  0  0  0  0  0
   52.8330   29.3350   52.8180 C   0  0  0  0  0  0  0  0  0  0  0  0
   53.9440   28.7440   53.4270 C   0  0  0  0  0  0  0  0  0  0  0  0
   55.2320   29.2110   53.1430 C   0  0  0  0  0  0  0  0  0  0  0  0
   56.3000   28.6000   53.7150 F   0  0  0  0  0  0  0  0  0  0  0  0
   57.0280   32.1890   51.9920 C   0  0  0  0  0  0  0  0  0  0  0  0
   58.3130   32.5070   51.2210 C   0  0  0  0  0  0  0  0  0  0  0  0
   58.4220   30.7470   47.2590 N   0  0  0  0  0  0  0  0  0  0  0  0
   58.1540   30.9760   45.9600 C   0  0  0  0  0  0  0  0  0  0  0  0
   58.5360   32.2240   45.6030 C   0  0  0  0  0  0  0  0  0  0  0  0
   58.3330   32.6720   44.3020 C   0  0  0  0  0  0  0  0  0  0  0  0
   58.6520   33.8470   43.9710 O   0  0  0  0  0  0  0  0  0  0  0  0
   57.7690   31.8050   43.3940 N   0  0  0  0  0  0  0  0  0  0  0  0
   57.5230   32.2450   42.0100 C   0  0  0  0  0  0  0  0  0  0  0  0
   57.3720   30.5400   43.7910 C   0  0  0  0  0  0  0  0  0  0  0  0
   56.8200   29.7680   42.9560 O   0  0  0  0  0  0  0  0  0  0  0  0
   57.5640   30.1130   45.0880 N   0  0  0  0  0  0  0  0  0  0  0  0
   57.1930   28.7520   45.5140 C   0  0  0  0  0  0  0  0  0  0  0  0
   58.3840   28.0490   46.1140 C   0  0  0  0  0  0  0  0  0  0  0  0
   59.6150   28.0340   45.4360 C   0  0  0  0  0  0  0  0  0  0  0  0
   60.7090   27.3490   45.9750 C   0  0  0  0  0  0  0  0  0  0  0  0
   60.5810   26.6740   47.1910 C   0  0  0  0  0  0  0  0  0  0  0  0
   59.3600   26.6810   47.8710 C   0  0  0  0  0  0  0  0  0  0  0  0
   58.2640   27.3620   47.3340 C   0  0  0  0  0  0  0  0  0  0  0  0
   63.0471   33.4410   46.7974 H   0  0  0  0  0  0  0  0  0  0  0  0
   61.6437   32.8180   47.9254 H   0  0  0  0  0  0  0  0  0  0  0  0
   61.4636   34.7834   45.5542 H   0  0  0  0  0  0  0  0  0  0  0  0
   59.5249   34.5806   47.7708 H   0  0  0  0  0  0  0  0  0  0  0  0
   59.1187   34.8410   46.0307 H   0  0  0  0  0  0  0  0  0  0  0  0
   60.3507   31.6026   49.2786 H   0  0  0  0  0  0  0  0  0  0  0  0
   59.5470   33.2199   49.2459 H   0  0  0  0  0  0  0  0  0  0  0  0
   58.2860   29.5964   49.5510 H   0  0  0  0  0  0  0  0  0  0  0  0
   59.6742   30.1143   50.6114 H   0  0  0  0  0  0  0  0  0  0  0  0
   57.3944   28.8069   51.4915 H   0  0  0  0  0  0  0  0  0  0  0  0
   58.5123   29.7986   52.5076 H   0  0  0  0  0  0  0  0  0  0  0  0
   54.4270   31.6862   50.9175 H   0  0  0  0  0  0  0  0  0  0  0  0
   52.1324   30.8541   51.4387 H   0  0  0  0  0  0  0  0  0  0  0  0
   51.8213   28.9687   53.0465 H   0  0  0  0  0  0  0  0  0  0  0  0
   53.8053   27.9101   54.1309 H   0  0  0  0  0  0  0  0  0  0  0  0
   56.1910   32.7455   51.5451 H   0  0  0  0  0  0  0  0  0  0  0  0
   57.1624   32.4840   53.0431 H   0  0  0  0  0  0  0  0  0  0  0  0
   58.3104   33.5651   50.9204 H   0  0  0  0  0  0  0  0  0  0  0  0
   59.1872   32.3155   51.8607 H   0  0  0  0  0  0  0  0  0  0  0  0
   56.9862   33.2051   42.0204 H   0  0  0  0  0  0  0  0  0  0  0  0
   58.4835   32.3676   41.4880 H   0  0  0  0  0  0  0  0  0  0  0  0
   56.9156   31.4910   41.4880 H   0  0  0  0  0  0  0  0  0  0  0  0
   56.3912   28.8126   46.2646 H   0  0  0  0  0  0  0  0  0  0  0  0
   56.8465   28.1846   44.6377 H   0  0  0  0  0  0  0  0  0  0  0  0
   59.7186   28.5633   44.4773 H   0  0  0  0  0  0  0  0  0  0  0  0
   61.6706   27.3419   45.4409 H   0  0  0  0  0  0  0  0  0  0  0  0
   61.4423   26.1362   47.6140 H   0  0  0  0  0  0  0  0  0  0  0  0
   59.2615   26.1502   48.8294 H   0  0  0  0  0  0  0  0  0  0  0  0
   57.3028   27.3602   47.8689 H   0  0  0  0  0  0  0  0  0  0  0  0
  1  2  2  0
  2  3  1  0
  3  4  1  0
  4  5  1  0
  5  6  1  0
  6  7  1  0
  7  8  1  0
  8  9  1  0
  9 10  1  0
 10 11  1  0
 11 12  2  0
 12 13  1  0
 13 14  2  0
 14 15  1  0
 15 16  2  0
 16 17  1  0
 10 18  1  0
 18 19  1  0
  5 20  2  0
 20 21  1  0
 21 22  2  0
 22 23  1  0
 23 24  2  0
 23 25  1  0
 25 26  1  0
 25 27  1  0
 27 28  2  0
 27 29  1  0
 29 30  1  0
 30 31  1  0
 31 32  2  0
 32 33  1  0
 33 34  2  0
 34 35  1  0
 35 36  2  0
 22  4  1  0
 36 31  1  0
 19  7  1  0
 29 21  1  0
 16 11  1  0
  1 37  1  0
  1 38  1  0
  2 39  1  0
  3 40  1  0
  3 41  1  0
  6 42  1  0
  6 43  1  0
  8 44  1  0
  8 45  1  0
  9 46  1  0
  9 47  1  0
 12 48  1  0
 13 49  1  0
 14 50  1  0
 15 51  1  0
 18 52  1  0
 18 53  1  0
 19 54  1  0
 19 55  1  0
 26 56  1  0
 26 57  1  0
 26 58  1  0
 30 59  1  0
 30 60  1  0
 32 61  1  0
 33 62  1  0
 34 63  1  0
 35 64  1  0
 36 65  1  0
M  END
>  <UniqueID>  (92) 
89

>  <SMILES>  (92) 
C=CCn1c(CN2CCN(c3ccccc3F)CC2)nc2c1c(=O)n(C)c(=O)n2Cc1ccccc1

>  <Energy>  (92) 
120.92093159742873

>  <Genealogy>  (92) 
C=CCn1c(CN2CCN(c3ccccc3F)CC2)nc2c1c(=O)n(C)c(=O)n2Cc1ccccc1 (3D coordinates assigned)
C=CCn1c(CN2CCN(c3ccccc3F)CC2)nc2c1c(=O)n(C)c(=O)n2Cc1ccccc1 (nonaromatic ring conformer: 120.92093159742873 kcal/mol)

>  <smiles>  (92) 
C=CCn1c(CN2CCN(c3ccccc3F)CC2)nc2c1c(=O)n(C)c(=O)n2Cc1ccccc1

>  <score_type>  (92) 
oracle

>  <origin>  (92) 
adg

>  <m_score__min__energy>  (92) 
-8.4800000000000004

>  <m_primary>  (92) 
energy

$$$$
92:0
     RDKit          3D

 55 59  0  0  0  0  0  0  0  0999 V2000
   56.7640   21.0540   45.4460 C   0  0  0  0  0  0  0  0  0  0  0  0
   57.1910   21.9840   43.9930 S   0  0  0  0  0  0  0  0  0  0  0  0
   56.0470   21.9480   43.0190 O   0  0  0  0  0  0  0  0  0  0  0  0
   58.4000   21.3750   43.3410 O   0  0  0  0  0  0  0  0  0  0  0  0
   57.5390   23.6500   44.4470 C   0  0  0  0  0  0  0  0  0  0  0  0
   57.9890   23.9500   45.7390 C   0  0  0  0  0  0  0  0  0  0  0  0
   58.2780   25.2710   46.0960 C   0  0  0  0  0  0  0  0  0  0  0  0
   58.1280   26.3130   45.1600 C   0  0  0  0  0  0  0  0  0  0  0  0
   58.4320   27.7190   45.5180 C   0  0  0  0  0  0  0  0  0  0  0  0
   57.9060   28.8620   44.9350 C   0  0  0  0  0  0  0  0  0  0  0  0
   58.4970   29.9020   45.6210 C   0  0  0  0  0  0  0  0  0  0  0  0
   58.2380   31.3220   45.3420 C   0  0  0  0  0  0  0  0  0  0  0  0
   58.0770   31.7530   44.0200 C   0  0  0  0  0  0  0  0  0  0  0  0
   57.8000   33.0980   43.7690 C   0  0  0  0  0  0  0  0  0  0  0  0
   57.6670   33.9890   44.8330 C   0  0  0  0  0  0  0  0  0  0  0  0
   57.8040   33.5190   46.1400 C   0  0  0  0  0  0  0  0  0  0  0  0
   58.0730   32.2040   46.3700 N   0  0  0  0  0  0  0  0  0  0  0  0
   59.3340   29.3950   46.5600 N   0  0  0  0  0  0  0  0  0  0  0  0
   60.1620   30.0930   47.5580 C   0  0  1  0  0  0  0  0  0  0  0  0
   60.7120   29.1460   48.6310 C   0  0  0  0  0  0  0  0  0  0  0  0
   61.3520   29.9560   49.7620 C   0  0  0  0  0  0  0  0  0  0  0  0
   62.3000   31.0250   49.2520 C   0  0  0  0  0  0  0  0  0  0  0  0
   63.2060   31.6280   50.1480 C   0  0  0  0  0  0  0  0  0  0  0  0
   63.2700   31.2140   51.4740 O   0  0  0  0  0  0  0  0  0  0  0  0
   64.0490   32.6540   49.7150 C   0  0  0  0  0  0  0  0  0  0  0  0
   63.9940   33.0990   48.3940 C   0  0  0  0  0  0  0  0  0  0  0  0
   63.0910   32.5250   47.4990 C   0  0  0  0  0  0  0  0  0  0  0  0
   62.2250   31.5020   47.9170 C   0  0  0  0  0  0  0  0  0  0  0  0
   61.3080   30.8670   46.8960 C   0  0  0  0  0  0  0  0  0  0  0  0
   59.2880   28.0720   46.4990 N   0  0  0  0  0  0  0  0  0  0  0  0
   57.6840   26.0000   43.8630 C   0  0  0  0  0  0  0  0  0  0  0  0
   57.3940   24.6790   43.5100 C   0  0  0  0  0  0  0  0  0  0  0  0
   57.0297   21.6327   46.3429 H   0  0  0  0  0  0  0  0  0  0  0  0
   55.6828   20.8516   45.4472 H   0  0  0  0  0  0  0  0  0  0  0  0
   57.3152   20.1021   45.4472 H   0  0  0  0  0  0  0  0  0  0  0  0
   58.1156   23.1433   46.4760 H   0  0  0  0  0  0  0  0  0  0  0  0
   58.6249   25.4979   47.1149 H   0  0  0  0  0  0  0  0  0  0  0  0
   57.1804   28.9249   44.1106 H   0  0  0  0  0  0  0  0  0  0  0  0
   58.1678   31.0395   43.1878 H   0  0  0  0  0  0  0  0  0  0  0  0
   57.6870   33.4539   42.7343 H   0  0  0  0  0  0  0  0  0  0  0  0
   57.4562   35.0520   44.6443 H   0  0  0  0  0  0  0  0  0  0  0  0
   57.6944   34.2127   46.9866 H   0  0  0  0  0  0  0  0  0  0  0  0
   58.1520   31.8720   47.3580 H   0  0  0  0  0  0  0  0  0  0  0  0
   59.4963   30.8111   48.0592 H   0  0  0  0  0  0  0  0  0  0  0  0
   59.8900   28.5384   49.0374 H   0  0  0  0  0  0  0  0  0  0  0  0
   61.4715   28.4901   48.1805 H   0  0  0  0  0  0  0  0  0  0  0  0
   60.5537   30.4414   50.3427 H   0  0  0  0  0  0  0  0  0  0  0  0
   61.9378   29.2593   50.3796 H   0  0  0  0  0  0  0  0  0  0  0  0
   64.7592   33.1130   50.4185 H   0  0  0  0  0  0  0  0  0  0  0  0
   64.6639   33.9040   48.0575 H   0  0  0  0  0  0  0  0  0  0  0  0
   63.0572   32.8767   46.4573 H   0  0  0  0  0  0  0  0  0  0  0  0
   60.8824   31.6574   46.2603 H   0  0  0  0  0  0  0  0  0  0  0  0
   61.9007   30.1557   46.3021 H   0  0  0  0  0  0  0  0  0  0  0  0
   57.5638   26.8018   43.1196 H   0  0  0  0  0  0  0  0  0  0  0  0
   57.0503   24.4473   42.4911 H   0  0  0  0  0  0  0  0  0  0  0  0
  1  2  1  0
  2  3  2  0
  2  4  2  0
  2  5  1  0
  5  6  2  0
  6  7  1  0
  7  8  2  0
  8  9  1  0
  9 10  1  0
 10 11  2  0
 11 12  1  0
 12 13  2  0
 13 14  1  0
 14 15  2  0
 15 16  1  0
 16 17  2  0
 11 18  1  0
 18 19  1  0
 19 20  1  0
 20 21  1  0
 21 22  1  0
 22 23  2  0
 23 24  1  0
 23 25  1  0
 25 26  2  0
 26 27  1  0
 27 28  2  0
 28 29  1  0
 18 30  1  0
  8 31  1  0
 31 32  2  0
 32  5  1  0
 30  9  2  0
 17 12  1  0
 29 19  1  0
 28 22  1  0
  1 33  1  0
  1 34  1  0
  1 35  1  0
  6 36  1  0
  7 37  1  0
 10 38  1  0
 13 39  1  0
 14 40  1  0
 15 41  1  0
 16 42  1  0
 17 43  1  0
 19 44  1  1
 20 45  1  0
 20 46  1  0
 21 47  1  0
 21 48  1  0
 25 49  1  0
 26 50  1  0
 27 51  1  0
 29 52  1  0
 29 53  1  0
 31 54  1  0
 32 55  1  0
M  CHG  2  17   1  24  -1
M  END
>  <UniqueID>  (93) 
90

>  <SMILES>  (93) 
CS(=O)(=O)c1ccc(-c2cc(-c3cccc[nH+]3)n([C@H]3CCc4c([O-])cccc4C3)n2)cc1

>  <Energy>  (93) 
99.4295362985859

>  <Genealogy>  (93) 
CS(=O)(=O)c1ccc(-c2cc(-c3cccc[nH+]3)n(C3CCc4c([O-])cccc4C3)n2)cc1 (protonated)
CS(=O)(=O)c1ccc(-c2cc(-c3cccc[nH+]3)n([C@H]3CCc4c([O-])cccc4C3)n2)cc1 (chirality)
CS(=O)(=O)c1ccc(-c2cc(-c3cccc[nH+]3)n([C@H]3CCc4c([O-])cccc4C3)n2)cc1 (3D coordinates assigned)
CS(=O)(=O)c1ccc(-c2cc(-c3cccc[nH+]3)n([C@H]3CCc4c([O-])cccc4C3)n2)cc1 (nonaromatic ring conformer: 99.4295362985859 kcal/mol)

>  <smiles>  (93) 
CS(=O)(=O)c1ccc(-c2cc(-c3ccccn3)n(C3CCc4c(O)cccc4C3)n2)cc1

>  <score_type>  (93) 
oracle

>  <origin>  (93) 
adg

>  <m_score__min__energy>  (93) 
-10

>  <m_primary>  (93) 
energy

$$$$
93:0
     RDKit          3D

 44 46  0  0  0  0  0  0  0  0999 V2000
   57.6900   27.7940   44.0240 O   0  0  0  0  0  0  0  0  0  0  0  0
   57.2340   28.5190   44.9500 C   0  0  0  0  0  0  0  0  0  0  0  0
   57.4000   28.0860   46.3860 C   0  0  0  0  0  0  0  0  0  0  0  0
   57.2460   26.5880   46.5450 C   0  0  0  0  0  0  0  0  0  0  0  0
   55.9950   25.9690   46.3680 C   0  0  0  0  0  0  0  0  0  0  0  0
   54.8750   26.7160   46.0200 O   0  0  0  0  0  0  0  0  0  0  0  0
   55.8700   24.6280   46.5400 N   0  0  0  0  0  0  0  0  0  0  0  0
   56.9340   23.8640   46.8910 C   0  0  0  0  0  0  0  0  0  0  0  0
   56.7930   22.6220   47.0430 O   0  0  0  0  0  0  0  0  0  0  0  0
   58.1500   24.4350   47.0790 N   0  0  0  0  0  0  0  0  0  0  0  0
   58.3300   25.7720   46.9200 C   0  0  0  0  0  0  0  0  0  0  0  0
   59.4720   26.2660   47.1090 O   0  0  0  0  0  0  0  0  0  0  0  0
   56.7400   29.8230   44.6150 N   0  0  0  0  0  0  0  0  0  0  0  0
   57.4100   31.0660   44.8500 C   0  0  0  0  0  0  0  0  0  0  0  0
   57.4340   32.0740   43.8780 C   0  0  0  0  0  0  0  0  0  0  0  0
   58.1150   33.2680   44.1210 C   0  0  0  0  0  0  0  0  0  0  0  0
   58.8040   33.4590   45.3240 C   0  0  0  0  0  0  0  0  0  0  0  0
   59.6080   35.0040   45.5830 Cl  0  0  0  0  0  0  0  0  0  0  0  0
   58.8310   32.4290   46.2890 C   0  0  0  0  0  0  0  0  0  0  0  0
   59.7030   32.6190   47.8170 S   0  0  0  0  0  0  0  0  0  0  0  0
   59.9080   31.2560   48.4180 O   0  0  0  0  0  0  0  0  0  0  0  0
   58.8950   33.4640   48.7630 O   0  0  0  0  0  0  0  0  0  0  0  0
   61.2520   33.3840   47.5510 N   0  0  0  0  0  0  0  0  0  0  0  0
   61.6690   34.1760   48.7370 C   0  0  0  0  0  0  0  0  0  0  0  0
   62.7390   33.4730   49.5860 C   0  0  0  0  0  0  0  0  0  0  0  0
   63.9950   33.1660   48.7540 C   0  0  0  0  0  0  0  0  0  0  0  0
   63.6750   32.8850   47.2750 C   0  0  0  0  0  0  0  0  0  0  0  0
   62.2400   32.3750   47.1080 C   0  0  0  0  0  0  0  0  0  0  0  0
   58.1260   31.2400   46.0400 C   0  0  0  0  0  0  0  0  0  0  0  0
   58.4020   28.3793   46.7324 H   0  0  0  0  0  0  0  0  0  0  0  0
   56.6156   28.5748   46.9825 H   0  0  0  0  0  0  0  0  0  0  0  0
   56.9145   31.9243   42.9200 H   0  0  0  0  0  0  0  0  0  0  0  0
   58.1101   34.0641   43.3619 H   0  0  0  0  0  0  0  0  0  0  0  0
   62.0738   35.1383   48.3905 H   0  0  0  0  0  0  0  0  0  0  0  0
   60.7806   34.3072   49.3723 H   0  0  0  0  0  0  0  0  0  0  0  0
   63.0162   34.1260   50.4267 H   0  0  0  0  0  0  0  0  0  0  0  0
   62.3236   32.5231   49.9536 H   0  0  0  0  0  0  0  0  0  0  0  0
   64.6733   34.0303   48.8091 H   0  0  0  0  0  0  0  0  0  0  0  0
   64.4562   32.2590   49.1718 H   0  0  0  0  0  0  0  0  0  0  0  0
   63.7953   33.8142   46.6987 H   0  0  0  0  0  0  0  0  0  0  0  0
   64.3655   32.1108   46.9093 H   0  0  0  0  0  0  0  0  0  0  0  0
   62.0638   32.1436   46.0471 H   0  0  0  0  0  0  0  0  0  0  0  0
   62.1182   31.4758   47.7297 H   0  0  0  0  0  0  0  0  0  0  0  0
   58.1367   30.4352   46.7898 H   0  0  0  0  0  0  0  0  0  0  0  0
  1  2  2  0
  2  3  1  0
  3  4  1  0
  4  5  2  0
  5  6  1  0
  5  7  1  0
  7  8  1  0
  8  9  2  0
  8 10  1  0
 10 11  1  0
 11 12  2  0
  2 13  1  0
 13 14  1  0
 14 15  2  0
 15 16  1  0
 16 17  2  0
 17 18  1  0
 17 19  1  0
 19 20  1  0
 20 21  2  0
 20 22  2  0
 20 23  1  0
 23 24  1  0
 24 25  1  0
 25 26  1  0
 26 27  1  0
 27 28  1  0
 19 29  2  0
 11  4  1  0
 29 14  1  0
 28 23  1  0
  3 30  1  0
  3 31  1  0
 15 32  1  0
 16 33  1  0
 24 34  1  0
 24 35  1  0
 25 36  1  0
 25 37  1  0
 26 38  1  0
 26 39  1  0
 27 40  1  0
 27 41  1  0
 28 42  1  0
 28 43  1  0
 29 44  1  0
M  CHG  4   6  -1   7  -1  10  -1  13  -1
M  END
>  <UniqueID>  (94) 
91

>  <SMILES>  (94) 
O=C(Cc1c([O-])[n-]c(=O)[n-]c1=O)[N-]c1ccc(Cl)c(S(=O)(=O)N2CCCCC2)c1

>  <Energy>  (94) 
61.10762438426702

>  <Genealogy>  (94) 
O=C(Cc1c([O-])[n-]c(=O)[n-]c1=O)[N-]c1ccc(Cl)c(S(=O)(=O)N2CCCCC2)c1 (protonated)
O=C(Cc1c([O-])[n-]c(=O)[n-]c1=O)[N-]c1ccc(Cl)c(S(=O)(=O)N2CCCCC2)c1 (3D coordinates assigned)
O=C(Cc1c([O-])[n-]c(=O)[n-]c1=O)[N-]c1ccc(Cl)c(S(=O)(=O)N2CCCCC2)c1 (nonaromatic ring conformer: 61.10762438426702 kcal/mol)

>  <smiles>  (94) 
O=C(Cc1c(O)[nH]c(=O)[nH]c1=O)Nc1ccc(Cl)c(S(=O)(=O)N2CCCCC2)c1

>  <score_type>  (94) 
oracle

>  <origin>  (94) 
adg

>  <m_score__min__energy>  (94) 
-18.629999999999999

>  <m_primary>  (94) 
energy

$$$$
94:0
     RDKit          3D

 63 67  0  0  0  0  0  0  0  0999 V2000
   61.1120   29.4230   46.7180 O   0  0  0  0  0  0  0  0  0  0  0  0
   60.1350   28.6620   46.9530 C   0  0  0  0  0  0  0  0  0  0  0  0
   59.8820   28.2240   48.2910 N   0  0  0  0  0  0  0  0  0  0  0  0
   59.2890   29.0860   49.3040 C   0  0  0  0  0  0  0  0  0  0  0  0
   59.0330   30.4540   48.7390 C   0  0  0  0  0  0  0  0  0  0  0  0
   58.2900   30.5680   47.7260 O   0  0  0  0  0  0  0  0  0  0  0  0
   59.6420   31.6330   49.3120 N   0  0  0  0  0  0  0  0  0  0  0  0
   60.9880   31.5850   49.9150 C   0  0  0  0  0  0  0  0  0  0  0  0
   62.0030   32.2580   49.0260 C   0  0  0  0  0  0  0  0  0  0  0  0
   62.4370   33.5680   49.3030 C   0  0  0  0  0  0  0  0  0  0  0  0
   63.3980   34.1800   48.4910 C   0  0  0  0  0  0  0  0  0  0  0  0
   63.9250   33.4950   47.3890 C   0  0  0  0  0  0  0  0  0  0  0  0
   63.4880   32.2000   47.0970 C   0  0  0  0  0  0  0  0  0  0  0  0
   62.5290   31.5840   47.9080 C   0  0  0  0  0  0  0  0  0  0  0  0
   58.9140   32.9130   49.2770 C   0  0  0  0  0  0  0  0  0  0  0  0
   58.8520   33.4700   47.8780 C   0  0  0  0  0  0  0  0  0  0  0  0
   57.6540   33.4210   47.1440 C   0  0  0  0  0  0  0  0  0  0  0  0
   57.5890   33.9770   45.8620 C   0  0  0  0  0  0  0  0  0  0  0  0
   58.7170   34.5810   45.3030 C   0  0  0  0  0  0  0  0  0  0  0  0
   59.9140   34.6270   46.0220 C   0  0  0  0  0  0  0  0  0  0  0  0
   59.9860   34.0710   47.3030 C   0  0  0  0  0  0  0  0  0  0  0  0
   59.2080   28.2670   45.8630 C   0  0  0  0  0  0  0  0  0  0  0  0
   58.9570   26.8970   45.6830 C   0  0  0  0  0  0  0  0  0  0  0  0
   58.0500   26.4600   44.7060 C   0  0  0  0  0  0  0  0  0  0  0  0
   57.7640   25.0200   44.4920 C   0  0  0  0  0  0  0  0  0  0  0  0
   58.4140   24.0270   45.2510 C   0  0  0  0  0  0  0  0  0  0  0  0
   58.1110   22.6820   45.0310 C   0  0  0  0  0  0  0  0  0  0  0  0
   57.1680   22.3310   44.0660 C   0  0  0  0  0  0  0  0  0  0  0  0
   56.5340   23.3360   43.3350 C   0  0  0  0  0  0  0  0  0  0  0  0
   56.8350   24.6450   43.5610 N   0  0  0  0  0  0  0  0  0  0  0  0
   57.4280   27.3780   43.9210 N   0  0  0  0  0  0  0  0  0  0  0  0
   57.6500   28.7120   44.0410 C   0  0  0  0  0  0  0  0  0  0  0  0
   56.9850   29.5970   43.1850 C   0  0  0  0  0  0  0  0  0  0  0  0
   57.2300   30.9690   43.2640 C   0  0  0  0  0  0  0  0  0  0  0  0
   58.1470   31.4620   44.1930 C   0  0  0  0  0  0  0  0  0  0  0  0
   58.8190   30.5890   45.0520 C   0  0  0  0  0  0  0  0  0  0  0  0
   58.5610   29.2010   45.0110 C   0  0  0  0  0  0  0  0  0  0  0  0
   58.3376   28.6486   49.6410 H   0  0  0  0  0  0  0  0  0  0  0  0
   59.9846   29.1732   50.1516 H   0  0  0  0  0  0  0  0  0  0  0  0
   60.9650   32.0986   50.8875 H   0  0  0  0  0  0  0  0  0  0  0  0
   61.2775   30.5314   50.0422 H   0  0  0  0  0  0  0  0  0  0  0  0
   62.0186   34.1132   50.1619 H   0  0  0  0  0  0  0  0  0  0  0  0
   63.7401   35.2004   48.7184 H   0  0  0  0  0  0  0  0  0  0  0  0
   64.6828   33.9762   46.7533 H   0  0  0  0  0  0  0  0  0  0  0  0
   63.8987   31.6645   46.2284 H   0  0  0  0  0  0  0  0  0  0  0  0
   62.1840   30.5669   47.6705 H   0  0  0  0  0  0  0  0  0  0  0  0
   57.8897   32.7527   49.6445 H   0  0  0  0  0  0  0  0  0  0  0  0
   59.4480   33.6335   49.9140 H   0  0  0  0  0  0  0  0  0  0  0  0
   56.7640   32.9434   47.5796 H   0  0  0  0  0  0  0  0  0  0  0  0
   56.6481   33.9383   45.2936 H   0  0  0  0  0  0  0  0  0  0  0  0
   58.6632   35.0208   44.2962 H   0  0  0  0  0  0  0  0  0  0  0  0
   60.8020   35.1018   45.5793 H   0  0  0  0  0  0  0  0  0  0  0  0
   60.9324   34.1038   47.8626 H   0  0  0  0  0  0  0  0  0  0  0  0
   59.4761   26.1602   46.3136 H   0  0  0  0  0  0  0  0  0  0  0  0
   59.1558   24.3097   46.0124 H   0  0  0  0  0  0  0  0  0  0  0  0
   58.6155   21.9005   45.6181 H   0  0  0  0  0  0  0  0  0  0  0  0
   56.9266   21.2735   43.8830 H   0  0  0  0  0  0  0  0  0  0  0  0
   55.7873   23.0699   42.5723 H   0  0  0  0  0  0  0  0  0  0  0  0
   56.3440   25.3690   42.9880 H   0  0  0  0  0  0  0  0  0  0  0  0
   56.2666   29.2102   42.4472 H   0  0  0  0  0  0  0  0  0  0  0  0
   56.7000   31.6617   42.5937 H   0  0  0  0  0  0  0  0  0  0  0  0
   58.3417   32.5432   44.2493 H   0  0  0  0  0  0  0  0  0  0  0  0
   59.5553   30.9860   45.7663 H   0  0  0  0  0  0  0  0  0  0  0  0
  1  2  2  0
  2  3  1  0
  3  4  1  0
  4  5  1  0
  5  6  2  0
  5  7  1  0
  7  8  1  0
  8  9  1  0
  9 10  2  0
 10 11  1  0
 11 12  2  0
 12 13  1  0
 13 14  2  0
  7 15  1  0
 15 16  1  0
 16 17  2  0
 17 18  1  0
 18 19  2  0
 19 20  1  0
 20 21  2  0
  2 22  1  0
 22 23  2  0
 23 24  1  0
 24 25  1  0
 25 26  2  0
 26 27  1  0
 27 28  2  0
 28 29  1  0
 29 30  2  0
 24 31  2  0
 31 32  1  0
 32 33  2  0
 33 34  1  0
 34 35  2  0
 35 36  1  0
 36 37  2  0
 14  9  1  0
 21 16  1  0
 37 22  1  0
 30 25  1  0
 37 32  1  0
  4 38  1  0
  4 39  1  0
  8 40  1  0
  8 41  1  0
 10 42  1  0
 11 43  1  0
 12 44  1  0
 13 45  1  0
 14 46  1  0
 15 47  1  0
 15 48  1  0
 17 49  1  0
 18 50  1  0
 19 51  1  0
 20 52  1  0
 21 53  1  0
 23 54  1  0
 26 55  1  0
 27 56  1  0
 28 57  1  0
 29 58  1  0
 30 59  1  0
 33 60  1  0
 34 61  1  0
 35 62  1  0
 36 63  1  0
M  CHG  2   3  -1  30   1
M  END
>  <UniqueID>  (95) 
92

>  <SMILES>  (95) 
O=C([N-]CC(=O)N(Cc1ccccc1)Cc1ccccc1)c1cc(-c2cccc[nH+]2)nc2ccccc12

>  <Energy>  (95) 
79.59589308447667

>  <Genealogy>  (95) 
O=C([N-]CC(=O)N(Cc1ccccc1)Cc1ccccc1)c1cc(-c2cccc[nH+]2)nc2ccccc12 (protonated)
O=C([N-]CC(=O)N(Cc1ccccc1)Cc1ccccc1)c1cc(-c2cccc[nH+]2)nc2ccccc12 (3D coordinates assigned)
O=C([N-]CC(=O)N(Cc1ccccc1)Cc1ccccc1)c1cc(-c2cccc[nH+]2)nc2ccccc12 (optimized conformer: 79.59589308447667 kcal/mol)

>  <smiles>  (95) 
O=C(NCC(=O)N(Cc1ccccc1)Cc1ccccc1)c1cc(-c2ccccn2)nc2ccccc12

>  <score_type>  (95) 
oracle

>  <origin>  (95) 
adg

>  <m_score__min__energy>  (95) 
-10.390000000000001

>  <m_primary>  (95) 
energy

$$$$
95:0
     RDKit          3D

 86 89  0  0  0  0  0  0  0  0999 V2000
   60.7630   33.5600   52.8340 C   0  0  0  0  0  0  0  0  0  0  0  0
   60.5150   32.1590   52.3340 C   0  0  0  0  0  0  0  0  0  0  0  0
   60.8810   31.8520   51.0700 C   0  0  0  0  0  0  0  0  0  0  0  0
   60.6440   30.5560   50.3980 C   0  0  0  0  0  0  0  0  0  0  0  0
   61.3460   29.4250   50.8340 C   0  0  0  0  0  0  0  0  0  0  0  0
   61.1640   28.1900   50.2050 C   0  0  0  0  0  0  0  0  0  0  0  0
   60.2950   28.0740   49.1050 C   0  0  0  0  0  0  0  0  0  0  0  0
   60.0800   26.8610   48.4330 O   0  0  0  0  0  0  0  0  0  0  0  0
   60.2500   26.6570   47.0300 C   0  0  0  0  0  0  0  0  0  0  0  0
   59.3370   27.5650   46.2490 C   0  0  0  0  0  0  0  0  0  0  0  0
   57.9420   27.4550   46.3600 C   0  0  0  0  0  0  0  0  0  0  0  0
   57.1060   28.2780   45.5970 C   0  0  0  0  0  0  0  0  0  0  0  0
   57.6540   29.2160   44.7140 C   0  0  0  0  0  0  0  0  0  0  0  0
   56.5890   30.1720   43.6920 S   0  0  0  0  0  0  0  0  0  0  0  0
   55.4000   30.6080   44.4980 O   0  0  0  0  0  0  0  0  0  0  0  0
   56.1020   29.3630   42.5210 O   0  0  0  0  0  0  0  0  0  0  0  0
   57.4260   31.5740   43.1150 N   0  0  0  0  0  0  0  0  0  0  0  0
   57.9970   32.5480   43.9900 C   0  0  0  0  0  0  0  0  0  0  0  0
   58.7410   33.4560   43.5320 O   0  0  0  0  0  0  0  0  0  0  0  0
   57.7060   32.4870   45.3890 N   0  0  0  0  0  0  0  0  0  0  0  0
   58.1290   33.5340   46.3260 C   0  0  0  0  0  0  0  0  0  0  0  0
   59.5390   34.0310   46.0320 C   0  0  0  0  0  0  0  0  0  0  0  0
   60.0730   34.5420   47.3620 C   0  0  0  0  0  0  0  0  0  0  0  0
   59.2700   33.8380   48.4560 C   0  0  0  0  0  0  0  0  0  0  0  0
   58.1920   33.0130   47.7570 C   0  0  0  0  0  0  0  0  0  0  0  0
   59.0480   29.3380   44.6110 C   0  0  0  0  0  0  0  0  0  0  0  0
   59.8840   28.5200   45.3760 C   0  0  0  0  0  0  0  0  0  0  0  0
   59.6250   29.2140   48.6470 C   0  0  0  0  0  0  0  0  0  0  0  0
   59.8040   30.4480   49.2780 C   0  0  0  0  0  0  0  0  0  0  0  0
   59.8850   31.1710   53.2550 C   0  0  0  0  0  0  0  0  0  0  0  0
   60.6080   30.5590   54.0920 O   0  0  0  0  0  0  0  0  0  0  0  0
   58.4680   30.8730   53.1740 N   0  0  0  0  0  0  0  0  0  0  0  0
   58.2430   29.4800   52.7510 C   0  0  0  0  0  0  0  0  0  0  0  0
   56.7560   29.1190   52.8280 C   0  0  0  0  0  0  0  0  0  0  0  0
   55.8660   30.2060   52.3830 N   0  0  0  0  0  0  0  0  0  0  0  0
   54.4460   29.9630   52.3600 C   0  0  0  0  0  0  0  0  0  0  0  0
   53.9930   28.8290   52.6770 O   0  0  0  0  0  0  0  0  0  0  0  0
   53.5730   31.0060   52.0080 O   0  0  0  0  0  0  0  0  0  0  0  0
   52.2940   30.8680   51.3780 C   0  0  0  0  0  0  0  0  0  0  0  0
   51.7450   32.2370   50.9360 C   0  0  0  0  0  0  0  0  0  0  0  0
   51.3380   30.2630   52.4200 C   0  0  0  0  0  0  0  0  0  0  0  0
   52.3920   29.9090   50.1780 C   0  0  0  0  0  0  0  0  0  0  0  0
   56.3090   31.5980   52.1840 C   0  0  0  0  0  0  0  0  0  0  0  0
   57.8330   31.7820   52.2100 C   0  0  0  0  0  0  0  0  0  0  0  0
   60.7634   33.5620   53.9340 H   0  0  0  0  0  0  0  0  0  0  0  0
   61.7377   33.9134   52.4664 H   0  0  0  0  0  0  0  0  0  0  0  0
   59.9689   34.2265   52.4664 H   0  0  0  0  0  0  0  0  0  0  0  0
   61.3989   32.6317   50.4921 H   0  0  0  0  0  0  0  0  0  0  0  0
   62.0462   29.5094   51.6782 H   0  0  0  0  0  0  0  0  0  0  0  0
   61.7031   27.3043   50.5721 H   0  0  0  0  0  0  0  0  0  0  0  0
   61.2937   26.8718   46.7571 H   0  0  0  0  0  0  0  0  0  0  0  0
   60.0019   25.6125   46.7904 H   0  0  0  0  0  0  0  0  0  0  0  0
   57.5040   26.7186   47.0498 H   0  0  0  0  0  0  0  0  0  0  0  0
   56.0138   28.1875   45.6915 H   0  0  0  0  0  0  0  0  0  0  0  0
   57.1670   31.6630   45.7370 H   0  0  0  0  0  0  0  0  0  0  0  0
   57.3840   34.3347   46.2081 H   0  0  0  0  0  0  0  0  0  0  0  0
   60.1660   33.2093   45.6557 H   0  0  0  0  0  0  0  0  0  0  0  0
   59.5437   34.8154   45.2608 H   0  0  0  0  0  0  0  0  0  0  0  0
   61.1415   34.2995   47.4601 H   0  0  0  0  0  0  0  0  0  0  0  0
   59.9708   35.6347   47.4365 H   0  0  0  0  0  0  0  0  0  0  0  0
   59.9276   33.1804   49.0435 H   0  0  0  0  0  0  0  0  0  0  0  0
   58.8206   34.5683   49.1450 H   0  0  0  0  0  0  0  0  0  0  0  0
   58.4615   31.9466   47.7643 H   0  0  0  0  0  0  0  0  0  0  0  0
   57.2202   33.1063   48.2638 H   0  0  0  0  0  0  0  0  0  0  0  0
   59.4843   30.0799   43.9259 H   0  0  0  0  0  0  0  0  0  0  0  0
   60.9760   28.6245   45.2941 H   0  0  0  0  0  0  0  0  0  0  0  0
   58.9505   29.1380   47.7814 H   0  0  0  0  0  0  0  0  0  0  0  0
   59.2844   31.3389   48.8955 H   0  0  0  0  0  0  0  0  0  0  0  0
   58.0240   31.0100   54.1100 H   0  0  0  0  0  0  0  0  0  0  0  0
   58.5901   29.3578   51.7144 H   0  0  0  0  0  0  0  0  0  0  0  0
   58.8019   28.8135   53.4243 H   0  0  0  0  0  0  0  0  0  0  0  0
   56.5773   28.2396   52.1919 H   0  0  0  0  0  0  0  0  0  0  0  0
   56.5241   28.9216   53.8850 H   0  0  0  0  0  0  0  0  0  0  0  0
   51.5035   32.8393   51.8242 H   0  0  0  0  0  0  0  0  0  0  0  0
   52.5033   32.7591   50.3340 H   0  0  0  0  0  0  0  0  0  0  0  0
   50.8361   32.0905   50.3340 H   0  0  0  0  0  0  0  0  0  0  0  0
   51.7038   30.4945   53.4312 H   0  0  0  0  0  0  0  0  0  0  0  0
   50.3330   30.6899   52.2870 H   0  0  0  0  0  0  0  0  0  0  0  0
   51.2935   29.1720   52.2870 H   0  0  0  0  0  0  0  0  0  0  0  0
   52.4975   28.8762   50.5417 H   0  0  0  0  0  0  0  0  0  0  0  0
   51.4808   29.9914   49.5674 H   0  0  0  0  0  0  0  0  0  0  0  0
   53.2677   30.1740   49.5674 H   0  0  0  0  0  0  0  0  0  0  0  0
   55.9363   31.9427   51.2082 H   0  0  0  0  0  0  0  0  0  0  0  0
   55.9052   32.1819   53.0242 H   0  0  0  0  0  0  0  0  0  0  0  0
   58.2351   31.5770   51.2068 H   0  0  0  0  0  0  0  0  0  0  0  0
   58.0510   32.8161   52.5150 H   0  0  0  0  0  0  0  0  0  0  0  0
  1  2  1  0
  2  3  2  3
  3  4  1  0
  4  5  2  0
  5  6  1  0
  6  7  2  0
  7  8  1  0
  8  9  1  0
  9 10  1  0
 10 11  2  0
 11 12  1  0
 12 13  2  0
 13 14  1  0
 14 15  2  0
 14 16  2  0
 14 17  1  0
 17 18  1  0
 18 19  2  0
 18 20  1  0
 20 21  1  0
 21 22  1  0
 22 23  1  0
 23 24  1  0
 24 25  1  0
 13 26  1  0
 26 27  2  0
  7 28  1  0
 28 29  2  0
  2 30  1  0
 30 31  2  0
 30 32  1  0
 32 33  1  0
 33 34  1  0
 34 35  1  0
 35 36  1  0
 36 37  2  0
 36 38  1  0
 38 39  1  0
 39 40  1  0
 39 41  1  0
 39 42  1  0
 35 43  1  0
 43 44  1  0
 29  4  1  0
 44 32  1  0
 27 10  1  0
 25 21  1  0
  1 45  1  0
  1 46  1  0
  1 47  1  0
  3 48  1  0
  5 49  1  0
  6 50  1  0
  9 51  1  0
  9 52  1  0
 11 53  1  0
 12 54  1  0
 20 55  1  0
 21 56  1  0
 22 57  1  0
 22 58  1  0
 23 59  1  0
 23 60  1  0
 24 61  1  0
 24 62  1  0
 25 63  1  0
 25 64  1  0
 26 65  1  0
 27 66  1  0
 28 67  1  0
 29 68  1  0
 32 69  1  0
 33 70  1  0
 33 71  1  0
 34 72  1  0
 34 73  1  0
 40 74  1  0
 40 75  1  0
 40 76  1  0
 41 77  1  0
 41 78  1  0
 41 79  1  0
 42 80  1  0
 42 81  1  0
 42 82  1  0
 43 83  1  0
 43 84  1  0
 44 85  1  0
 44 86  1  0
M  CHG  2  17  -1  32   1
M  END
>  <UniqueID>  (96) 
93

>  <SMILES>  (96) 
CC(=Cc1ccc(OCc2ccc(S(=O)(=O)[N-]C(=O)NC3CCCC3)cc2)cc1)C(=O)[NH+]1CCN(C(=O)OC(C)(C)C)CC1

>  <Energy>  (96) 
96.08567118711098

>  <Genealogy>  (96) 
CC(=Cc1ccc(OCc2ccc(S(=O)(=O)[N-]C(=O)NC3CCCC3)cc2)cc1)C(=O)[NH+]1CCN(C(=O)OC(C)(C)C)CC1 (protonated)
CC(=Cc1ccc(OCc2ccc(S(=O)(=O)[N-]C(=O)NC3CCCC3)cc2)cc1)C(=O)[NH+]1CCN(C(=O)OC(C)(C)C)CC1 (3D coordinates assigned)
CC(=Cc1ccc(OCc2ccc(S(=O)(=O)[N-]C(=O)NC3CCCC3)cc2)cc1)C(=O)[NH+]1CCN(C(=O)OC(C)(C)C)CC1 (nonaromatic ring conformer: 96.08567118711098 kcal/mol)

>  <smiles>  (96) 
CC(=Cc1ccc(OCc2ccc(S(=O)(=O)NC(=O)NC3CCCC3)cc2)cc1)C(=O)N1CCN(C(=O)OC(C)(C)C)CC1

>  <score_type>  (96) 
oracle

>  <origin>  (96) 
adg

>  <m_score__min__energy>  (96) 
-11.68

>  <m_primary>  (96) 
energy

$$$$
