0:0
     RDKit          3D

 56 58  0  0  0  0  0  0  0  0999 V2000
   54.3190   26.7110   46.7630 H   0  0  0  0  0  0  0  0  0  0  0  0
   55.1600   26.5930   46.2120 O   0  0  0  0  0  0  0  0  0  0  0  0
   56.1380   25.6620   46.5550 C   0  0  0  0  0  0  0  0  0  0  0  0
   55.8510   24.4430   47.0400 N   0  0  0  0  0  0  0  0  0  0  0  0
   57.0720   23.9000   47.2250 C   0  0  0  0  0  0  0  0  0  0  0  0
   57.2350   22.7360   47.6760 O   0  0  0  0  0  0  0  0  0  0  0  0
   58.1040   24.6990   46.8840 N   0  0  0  0  0  0  0  0  0  0  0  0
   57.5060   25.8300   46.4660 C   0  0  0  0  0  0  0  0  0  0  0  0
   58.2080   27.0080   45.9130 C   0  0  0  0  0  0  0  0  0  0  0  0
   58.3196   27.0670   44.8203 H   0  0  0  0  0  0  0  0  0  0  0  0
   58.7220   28.0160   46.6480 C   0  0  0  0  0  0  0  0  0  0  0  0
   58.4720   28.2850   47.9900 C   0  0  0  0  0  0  0  0  0  0  0  0
   57.8276   27.7047   48.6668 H   0  0  0  0  0  0  0  0  0  0  0  0
   59.1890   29.4210   48.3080 C   0  0  0  0  0  0  0  0  0  0  0  0
   59.1840   30.0910   49.6480 C   0  0  0  0  0  0  0  0  0  0  0  0
   59.1897   29.3274   50.4398 H   0  0  0  0  0  0  0  0  0  0  0  0
   60.0774   30.7255   49.7440 H   0  0  0  0  0  0  0  0  0  0  0  0
   58.2812   30.7121   49.7440 H   0  0  0  0  0  0  0  0  0  0  0  0
   59.8600   29.8720   47.2290 N   0  0  0  0  0  0  0  0  0  0  0  0
   60.7030   31.0360   47.1940 C   0  0  0  0  0  0  0  0  0  0  0  0
   62.0860   30.8850   47.3650 C   0  0  0  0  0  0  0  0  0  0  0  0
   62.5119   29.8824   47.5182 H   0  0  0  0  0  0  0  0  0  0  0  0
   62.9260   32.0000   47.3420 C   0  0  0  0  0  0  0  0  0  0  0  0
   64.0093   31.8751   47.4863 H   0  0  0  0  0  0  0  0  0  0  0  0
   62.3920   33.2730   47.1360 C   0  0  0  0  0  0  0  0  0  0  0  0
   63.0557   34.1499   47.1129 H   0  0  0  0  0  0  0  0  0  0  0  0
   61.0150   33.4350   46.9590 C   0  0  0  0  0  0  0  0  0  0  0  0
   60.6012   34.4395   46.7863 H   0  0  0  0  0  0  0  0  0  0  0  0
   60.1560   32.3250   47.0000 C   0  0  0  0  0  0  0  0  0  0  0  0
   58.7070   32.5070   46.7730 C   0  0  0  0  0  0  0  0  0  0  0  0
   57.9130   31.5880   47.1060 O   0  0  0  0  0  0  0  0  0  0  0  0
   58.1700   33.7100   46.2080 N   0  0  0  0  0  0  0  0  0  0  0  0
   57.5110   33.7990   44.9110 C   0  0  0  0  0  0  0  0  0  0  0  0
   56.7152   33.0419   44.8518 H   0  0  0  0  0  0  0  0  0  0  0  0
   57.0746   34.8015   44.7906 H   0  0  0  0  0  0  0  0  0  0  0  0
   58.5290   33.5530   43.8030 C   0  0  0  0  0  0  0  0  0  0  0  0
   58.6642   34.4787   43.2244 H   0  0  0  0  0  0  0  0  0  0  0  0
   59.4819   33.2463   44.2590 H   0  0  0  0  0  0  0  0  0  0  0  0
   57.9560   32.2240   42.6850 S   0  0  0  0  0  0  0  0  0  0  0  0
   57.6460   30.9550   43.9730 C   0  0  0  0  0  0  0  0  0  0  0  0
   58.4472   30.2023   43.9348 H   0  0  0  0  0  0  0  0  0  0  0  0
   57.6266   31.4528   44.9537 H   0  0  0  0  0  0  0  0  0  0  0  0
   56.2910   30.2570   43.7550 C   0  0  0  0  0  0  0  0  0  0  0  0
   55.5163   31.0365   43.7092 H   0  0  0  0  0  0  0  0  0  0  0  0
   56.3040   29.4750   42.4350 C   0  0  0  0  0  0  0  0  0  0  0  0
   56.3219   28.3960   42.6482 H   0  0  0  0  0  0  0  0  0  0  0  0
   55.4017   29.7192   41.8552 H   0  0  0  0  0  0  0  0  0  0  0  0
   57.1977   29.7491   41.8552 H   0  0  0  0  0  0  0  0  0  0  0  0
   55.9480   29.3170   44.9180 C   0  0  0  0  0  0  0  0  0  0  0  0
   56.1355   29.8309   45.8723 H   0  0  0  0  0  0  0  0  0  0  0  0
   54.8876   29.0310   44.8578 H   0  0  0  0  0  0  0  0  0  0  0  0
   56.5750   28.4152   44.8578 H   0  0  0  0  0  0  0  0  0  0  0  0
   59.5820   29.0290   46.2030 C   0  0  0  0  0  0  0  0  0  0  0  0
   60.0620   29.1860   44.9610 C   0  0  0  0  0  0  0  0  0  0  0  0
   60.7339   30.0267   44.7332 H   0  0  0  0  0  0  0  0  0  0  0  0
   59.7839   28.4742   44.1698 H   0  0  0  0  0  0  0  0  0  0  0  0
  1  2  1  0
  2  3  1  0
  3  4  1  0
  4  5  1  0
  5  6  2  0
  5  7  1  0
  7  8  1  0
  8  9  1  0
  9 10  1  0
  9 11  2  0
 11 12  1  0
 12 13  1  0
 12 14  2  0
 14 15  1  0
 15 16  1  0
 15 17  1  0
 15 18  1  0
 14 19  1  0
 19 20  1  0
 20 21  2  0
 21 22  1  0
 21 23  1  0
 23 24  1  0
 23 25  2  0
 25 26  1  0
 25 27  1  0
 27 28  1  0
 27 29  2  0
 29 30  1  0
 30 31  2  0
 30 32  1  0
 32 33  1  0
 33 34  1  0
 33 35  1  0
 33 36  1  0
 36 37  1  0
 36 38  1  0
 36 39  1  0
 39 40  1  0
 40 41  1  0
 40 42  1  0
 40 43  1  0
 43 44  1  0
 43 45  1  0
 45 46  1  0
 45 47  1  0
 45 48  1  0
 43 49  1  0
 49 50  1  0
 49 51  1  0
 49 52  1  0
 19 53  1  0
 53 54  2  0
 54 55  1  0
 54 56  1  0
  8  3  2  0
 53 11  1  0
 29 20  1  0
M  CHG  3   4  -1   7  -1  32  -1
M  END
>  <UniqueID>  (1) 
1

>  <SMILES>  (1) 
C=c1/c(=C/c2[n-]c(=O)[n-]c2O)cc(C)n1-c1ccccc1C(=O)[N-]CCSCC(C)C

>  <Energy>  (1) 
119.43937304924758

>  <Genealogy>  (1) 
C=c1c(=Cc2[n-]c(=O)[n-]c2O)cc(C)n1-c1ccccc1C(=O)[N-]CCSCC(C)C (protonated)
C=c1/c(=C/c2[n-]c(=O)[n-]c2O)cc(C)n1-c1ccccc1C(=O)[N-]CCSCC(C)C (cis-trans isomerization)
C=c1/c(=C/c2[n-]c(=O)[n-]c2O)cc(C)n1-c1ccccc1C(=O)[N-]CCSCC(C)C (3D coordinates assigned)
C=c1/c(=C/c2[n-]c(=O)[n-]c2O)cc(C)n1-c1ccccc1C(=O)[N-]CCSCC(C)C (optimized conformer: 119.43937304924758 kcal/mol)

>  <smiles>  (1) 
C=c1c(=Cc2[nH]c(=O)[nH]c2O)cc(C)n1-c1ccccc1C(=O)NCCSCC(C)C

>  <score_type>  (1) 
oracle

>  <origin>  (1) 
adg

>  <m_score__min__energy>  (1) 
-14.59

>  <m_primary>  (1) 
energy

$$$$
1:0
     RDKit          3D

 49 52  0  0  0  0  0  0  0  0999 V2000
   61.2953   26.7321   48.2403 H   0  0  0  0  0  0  0  0  0  0  0  0
   60.7050   27.5770   47.8560 C   0  0  0  0  0  0  0  0  0  0  0  0
   60.3430   27.5770   46.5660 C   0  0  0  0  0  0  0  0  0  0  0  0
   61.0946   27.3109   45.8082 H   0  0  0  0  0  0  0  0  0  0  0  0
   58.9740   27.9200   46.1170 C   0  0  0  0  0  0  0  0  0  0  0  0
   58.7650   29.1660   45.5070 C   0  0  0  0  0  0  0  0  0  0  0  0
   59.6178   29.8414   45.3439 H   0  0  0  0  0  0  0  0  0  0  0  0
   57.4820   29.5600   45.1030 C   0  0  0  0  0  0  0  0  0  0  0  0
   57.3130   30.8940   44.4870 C   0  0  0  0  0  0  0  0  0  0  0  0
   57.1826   30.9421   43.3958 H   0  0  0  0  0  0  0  0  0  0  0  0
   57.3080   32.0510   45.1700 C   0  0  0  0  0  0  0  0  0  0  0  0
   56.4062   32.3019   45.7478 H   0  0  0  0  0  0  0  0  0  0  0  0
   58.4290   33.0060   45.1970 C   0  0  0  0  0  0  0  0  0  0  0  0
   58.7380   33.6110   44.1360 O   0  0  0  0  0  0  0  0  0  0  0  0
   59.2080   33.2170   46.3880 N   0  0  0  0  0  0  0  0  0  0  0  0
   58.5140   33.3890   47.6760 C   0  0  0  0  0  0  0  0  0  0  0  0
   57.8487   34.2623   47.6074 H   0  0  0  0  0  0  0  0  0  0  0  0
   57.9441   32.4707   47.8809 H   0  0  0  0  0  0  0  0  0  0  0  0
   59.4930   33.6040   48.8270 C   0  0  0  0  0  0  0  0  0  0  0  0
   58.9559   34.0235   49.6905 H   0  0  0  0  0  0  0  0  0  0  0  0
   59.9450   32.6407   49.1059 H   0  0  0  0  0  0  0  0  0  0  0  0
   60.5090   34.4990   48.4260 O   0  0  0  0  0  0  0  0  0  0  0  0
   61.3730   33.8230   47.5400 C   0  0  0  0  0  0  0  0  0  0  0  0
   62.2100   34.4889   47.2831 H   0  0  0  0  0  0  0  0  0  0  0  0
   61.7290   32.9115   48.0424 H   0  0  0  0  0  0  0  0  0  0  0  0
   60.6550   33.4010   46.2400 C   0  0  0  0  0  0  0  0  0  0  0  0
   60.8286   34.1785   45.4815 H   0  0  0  0  0  0  0  0  0  0  0  0
   61.0709   32.4247   45.9505 H   0  0  0  0  0  0  0  0  0  0  0  0
   56.4050   28.6650   45.2460 C   0  0  0  0  0  0  0  0  0  0  0  0
   55.1470   28.9760   44.7440 O   0  0  0  0  0  0  0  0  0  0  0  0
   56.6030   27.4330   45.8690 C   0  0  0  0  0  0  0  0  0  0  0  0
   55.7537   26.7469   46.0032 H   0  0  0  0  0  0  0  0  0  0  0  0
   57.8710   27.0630   46.3240 C   0  0  0  0  0  0  0  0  0  0  0  0
   58.0180   25.8530   46.9950 O   0  0  0  0  0  0  0  0  0  0  0  0
   60.3430   28.6630   48.7760 C   0  0  0  0  0  0  0  0  0  0  0  0
   59.0520   28.9830   49.0470 N   0  0  0  0  0  0  0  0  0  0  0  0
   59.1740   29.9920   49.9170 C   0  0  0  0  0  0  0  0  0  0  0  0
   58.1540   30.7180   50.5300 C   0  0  0  0  0  0  0  0  0  0  0  0
   57.0970   30.4877   50.3308 H   0  0  0  0  0  0  0  0  0  0  0  0
   58.5180   31.7610   51.4170 C   0  0  0  0  0  0  0  0  0  0  0  0
   57.5100   32.5630   52.0650 N   0  0  0  0  0  0  0  0  0  0  0  0
   56.3660   32.0950   52.2670 O   0  0  0  0  0  0  0  0  0  0  0  0
   57.7420   33.8900   52.3480 O   0  0  0  0  0  0  0  0  0  0  0  0
   59.8950   32.0190   51.6620 C   0  0  0  0  0  0  0  0  0  0  0  0
   60.1845   32.8151   52.3637 H   0  0  0  0  0  0  0  0  0  0  0  0
   60.8900   31.2640   51.0140 C   0  0  0  0  0  0  0  0  0  0  0  0
   61.9571   31.4669   51.1873 H   0  0  0  0  0  0  0  0  0  0  0  0
   60.4860   30.2560   50.1500 C   0  0  0  0  0  0  0  0  0  0  0  0
   61.2590   29.4230   49.4380 N   0  0  0  0  0  0  0  0  0  0  0  0
  1  2  1  0
  2  3  2  3
  3  4  1  0
  3  5  1  0
  5  6  2  0
  6  7  1  0
  6  8  1  0
  8  9  1  0
  9 10  1  0
  9 11  2  0
 11 12  1  0
 11 13  1  0
 13 14  2  0
 13 15  1  0
 15 16  1  0
 16 17  1  0
 16 18  1  0
 16 19  1  0
 19 20  1  0
 19 21  1  0
 19 22  1  0
 22 23  1  0
 23 24  1  0
 23 25  1  0
 23 26  1  0
 26 27  1  0
 26 28  1  0
  8 29  2  0
 29 30  1  0
 29 31  1  0
 31 32  1  0
 31 33  2  0
 33 34  1  0
  2 35  1  0
 35 36  2  0
 36 37  1  0
 37 38  2  0
 38 39  1  0
 38 40  1  0
 40 41  1  0
 41 42  2  0
 41 43  1  0
 40 44  2  0
 44 45  1  0
 44 46  1  0
 46 47  1  0
 46 48  2  0
 48 49  1  0
 33  5  1  0
 49 35  1  0
 26 15  1  0
 48 37  1  0
M  CHG  5  30  -1  34  -1  41   1  43  -1  49  -1
M  END
>  <UniqueID>  (2) 
2

>  <SMILES>  (2) 
O=C(/C=C\c1cc(C=Cc2nc3cc([N+](=O)[O-])ccc3[n-]2)c([O-])cc1[O-])N1CCOCC1

>  <Energy>  (2) 
113.10053206481112

>  <Genealogy>  (2) 
O=C(C=Cc1cc(C=Cc2nc3cc([N+](=O)[O-])ccc3[n-]2)c([O-])cc1[O-])N1CCOCC1 (protonated)
O=C(/C=C\c1cc(C=Cc2nc3cc([N+](=O)[O-])ccc3[n-]2)c([O-])cc1[O-])N1CCOCC1 (cis-trans isomerization)
O=C(/C=C\c1cc(C=Cc2nc3cc([N+](=O)[O-])ccc3[n-]2)c([O-])cc1[O-])N1CCOCC1 (3D coordinates assigned)
O=C(/C=C\c1cc(C=Cc2nc3cc([N+](=O)[O-])ccc3[n-]2)c([O-])cc1[O-])N1CCOCC1 (nonaromatic ring conformer: 113.10053206481112 kcal/mol)

>  <smiles>  (2) 
O=C(C=Cc1cc(C=Cc2nc3cc([N+](=O)[O-])ccc3[nH]2)c(O)cc1O)N1CCOCC1

>  <score_type>  (2) 
oracle

>  <origin>  (2) 
adg

>  <m_score__min__energy>  (2) 
-14.210000000000001

>  <m_primary>  (2) 
energy

$$$$
2:0
     RDKit          3D

 38 40  0  0  0  0  0  0  0  0999 V2000
   59.9860   29.1030   47.7910 C   0  0  0  0  0  0  0  0  0  0  0  0
   58.9010   28.5870   47.1720 C   0  0  0  0  0  0  0  0  0  0  0  0
   58.5970   27.2130   47.3280 C   0  0  0  0  0  0  0  0  0  0  0  0
   59.3610   26.4700   48.0070 O   0  0  0  0  0  0  0  0  0  0  0  0
   57.4550   26.6840   46.6830 C   0  0  0  0  0  0  0  0  0  0  0  0
   57.0480   25.3990   46.7740 C   0  0  0  0  0  0  0  0  0  0  0  0
   56.4250   24.6040   45.6950 C   0  0  0  0  0  0  0  0  0  0  0  0
   57.1460   23.5750   45.0680 C   0  0  0  0  0  0  0  0  0  0  0  0
   56.5410   22.7880   44.0840 C   0  0  0  0  0  0  0  0  0  0  0  0
   55.2060   23.0090   43.7340 C   0  0  0  0  0  0  0  0  0  0  0  0
   54.4680   24.0160   44.3730 C   0  0  0  0  0  0  0  0  0  0  0  0
   53.1340   24.2340   44.0360 O   0  0  0  0  0  0  0  0  0  0  0  0
   55.0740   24.8070   45.3590 C   0  0  0  0  0  0  0  0  0  0  0  0
   54.3340   25.7980   45.9960 O   0  0  0  0  0  0  0  0  0  0  0  0
   56.7230   27.5080   45.8920 N   0  0  0  0  0  0  0  0  0  0  0  0
   57.0180   28.8190   45.7310 C   0  0  0  0  0  0  0  0  0  0  0  0
   56.2820   29.5210   44.9860 O   0  0  0  0  0  0  0  0  0  0  0  0
   58.0920   29.3720   46.3740 N   0  0  0  0  0  0  0  0  0  0  0  0
   58.3460   30.7800   46.1890 C   0  0  0  0  0  0  0  0  0  0  0  0
   58.5160   31.6160   47.3010 C   0  0  0  0  0  0  0  0  0  0  0  0
   58.7630   32.9810   47.1240 C   0  0  0  0  0  0  0  0  0  0  0  0
   58.8440   33.5280   45.8300 C   0  0  0  0  0  0  0  0  0  0  0  0
   59.1050   34.9710   45.6370 C   0  0  0  0  0  0  0  0  0  0  0  0
   58.8970   35.5160   44.5190 O   0  0  0  0  0  0  0  0  0  0  0  0
   59.5850   35.7480   46.6850 O   0  0  0  0  0  0  0  0  0  0  0  0
   58.6760   32.6820   44.7190 C   0  0  0  0  0  0  0  0  0  0  0  0
   58.4300   31.3180   44.8990 C   0  0  0  0  0  0  0  0  0  0  0  0
   60.2299   30.1694   47.6755 H   0  0  0  0  0  0  0  0  0  0  0  0
   60.6252   28.4566   48.4103 H   0  0  0  0  0  0  0  0  0  0  0  0
   57.1940   24.8973   47.7420 H   0  0  0  0  0  0  0  0  0  0  0  0
   58.1919   23.3874   45.3526 H   0  0  0  0  0  0  0  0  0  0  0  0
   57.1159   21.9942   43.5847 H   0  0  0  0  0  0  0  0  0  0  0  0
   54.7332   22.3919   42.9558 H   0  0  0  0  0  0  0  0  0  0  0  0
   52.6400   25.0660   44.3380 H   0  0  0  0  0  0  0  0  0  0  0  0
   58.4549   31.1971   48.3163 H   0  0  0  0  0  0  0  0  0  0  0  0
   58.8948   33.6310   48.0016 H   0  0  0  0  0  0  0  0  0  0  0  0
   58.7386   33.0965   43.7020 H   0  0  0  0  0  0  0  0  0  0  0  0
   58.3018   30.6644   44.0236 H   0  0  0  0  0  0  0  0  0  0  0  0
  1  2  2  0
  2  3  1  0
  3  4  2  0
  3  5  1  0
  5  6  2  3
  6  7  1  0
  7  8  2  0
  8  9  1  0
  9 10  2  0
 10 11  1  0
 11 12  1  0
 11 13  2  0
 13 14  1  0
  5 15  1  0
 15 16  1  0
 16 17  2  0
 16 18  1  0
 18 19  1  0
 19 20  2  0
 20 21  1  0
 21 22  2  0
 22 23  1  0
 23 24  2  0
 23 25  1  0
 22 26  1  0
 26 27  2  0
 18  2  1  0
 27 19  1  0
 13  7  1  0
  1 28  1  0
  1 29  1  0
  6 30  1  0
  8 31  1  0
  9 32  1  0
 10 33  1  0
 12 34  1  0
 20 35  1  0
 21 36  1  0
 26 37  1  0
 27 38  1  0
M  CHG  3  14  -1  15  -1  25  -1
M  END
>  <UniqueID>  (3) 
3

>  <SMILES>  (3) 
C=c1c(=O)c(=Cc2cccc(O)c2[O-])[n-]c(=O)n1-c1ccc(C(=O)[O-])cc1

>  <Energy>  (3) 
70.69855539944835

>  <Genealogy>  (3) 
C=c1c(=O)c(=Cc2cccc(O)c2[O-])[n-]c(=O)n1-c1ccc(C(=O)[O-])cc1 (protonated)
C=c1c(=O)c(=Cc2cccc(O)c2[O-])[n-]c(=O)n1-c1ccc(C(=O)[O-])cc1 (3D coordinates assigned)
C=c1c(=O)c(=Cc2cccc(O)c2[O-])[n-]c(=O)n1-c1ccc(C(=O)[O-])cc1 (optimized conformer: 70.69855539944835 kcal/mol)

>  <smiles>  (3) 
C=c1c(=O)c(=Cc2cccc(O)c2O)[nH]c(=O)n1-c1ccc(C(=O)O)cc1

>  <score_type>  (3) 
oracle

>  <origin>  (3) 
adg

>  <m_score__min__energy>  (3) 
-13.5

>  <m_primary>  (3) 
energy

$$$$
3:0
     RDKit          3D

 66 69  0  0  0  0  0  0  0  0999 V2000
   55.1690   24.8370   47.5500 H   0  0  0  0  0  0  0  0  0  0  0  0
   56.0080   24.5890   47.0400 O   0  0  0  0  0  0  0  0  0  0  0  0
   56.9490   25.5480   46.6710 C   0  0  0  0  0  0  0  0  0  0  0  0
   58.3170   25.2900   46.8200 C   0  0  0  0  0  0  0  0  0  0  0  0
   58.6522   24.3259   47.2302 H   0  0  0  0  0  0  0  0  0  0  0  0
   59.2570   26.2540   46.4490 C   0  0  0  0  0  0  0  0  0  0  0  0
   60.3313   26.0470   46.5635 H   0  0  0  0  0  0  0  0  0  0  0  0
   58.8340   27.4800   45.9330 C   0  0  0  0  0  0  0  0  0  0  0  0
   59.5789   28.2399   45.6543 H   0  0  0  0  0  0  0  0  0  0  0  0
   57.4650   27.7530   45.7660 C   0  0  0  0  0  0  0  0  0  0  0  0
   57.0380   29.0560   45.1990 C   0  0  0  0  0  0  0  0  0  0  0  0
   55.8750   29.1730   44.7260 O   0  0  0  0  0  0  0  0  0  0  0  0
   57.9060   30.2530   45.2260 C   0  0  0  0  0  0  0  0  0  0  0  0
   58.7354   30.2907   44.5044 H   0  0  0  0  0  0  0  0  0  0  0  0
   57.7660   31.2990   46.0590 C   0  0  0  0  0  0  0  0  0  0  0  0
   57.0840   31.1730   46.9128 H   0  0  0  0  0  0  0  0  0  0  0  0
   58.4520   32.6100   45.9270 C   0  0  0  0  0  0  0  0  0  0  0  0
   57.9520   33.5990   45.0580 C   0  0  0  0  0  0  0  0  0  0  0  0
   57.0599   33.3895   44.4495 H   0  0  0  0  0  0  0  0  0  0  0  0
   58.5780   34.8420   44.9620 C   0  0  0  0  0  0  0  0  0  0  0  0
   58.1968   35.5959   44.2574 H   0  0  0  0  0  0  0  0  0  0  0  0
   59.6850   35.1300   45.7570 C   0  0  0  0  0  0  0  0  0  0  0  0
   60.1833   36.1069   45.6714 H   0  0  0  0  0  0  0  0  0  0  0  0
   60.1630   34.1810   46.6620 C   0  0  0  0  0  0  0  0  0  0  0  0
   61.0269   34.4206   47.2993 H   0  0  0  0  0  0  0  0  0  0  0  0
   59.5460   32.9170   46.7650 C   0  0  0  0  0  0  0  0  0  0  0  0
   59.9970   31.9530   47.6840 O   0  0  0  0  0  0  0  0  0  0  0  0
   61.0620   31.0390   47.4330 C   0  0  0  0  0  0  0  0  0  0  0  0
   61.2179   30.4086   48.3209 H   0  0  0  0  0  0  0  0  0  0  0  0
   60.8014   30.4094   46.5695 H   0  0  0  0  0  0  0  0  0  0  0  0
   62.3510   31.8080   47.1240 C   0  0  0  0  0  0  0  0  0  0  0  0
   62.7784   31.4167   46.1890 H   0  0  0  0  0  0  0  0  0  0  0  0
   62.0893   32.8730   47.0381 H   0  0  0  0  0  0  0  0  0  0  0  0
   63.4070   31.6770   48.2420 C   0  0  0  0  0  0  0  0  0  0  0  0
   62.9168   31.3246   49.1615 H   0  0  0  0  0  0  0  0  0  0  0  0
   64.1755   30.9596   47.9185 H   0  0  0  0  0  0  0  0  0  0  0  0
   64.0580   32.9830   48.5080 N   0  0  0  0  0  0  0  0  0  0  0  0
   64.6740   33.0710   49.8560 C   0  0  0  0  0  0  0  0  0  0  0  0
   64.9768   32.0604   50.1676 H   0  0  0  0  0  0  0  0  0  0  0  0
   65.5310   33.7561   49.7773 H   0  0  0  0  0  0  0  0  0  0  0  0
   63.7260   33.6490   50.9260 C   0  0  0  0  0  0  0  0  0  0  0  0
   63.9088   33.1423   51.8851 H   0  0  0  0  0  0  0  0  0  0  0  0
   63.9159   34.7276   51.0286 H   0  0  0  0  0  0  0  0  0  0  0  0
   62.3220   33.4440   50.5270 N   0  0  0  0  0  0  0  0  0  0  0  0
   61.3900   33.8050   51.6150 C   0  0  0  0  0  0  0  0  0  0  0  0
   61.8455   33.5509   52.5835 H   0  0  0  0  0  0  0  0  0  0  0  0
   61.1847   34.8847   51.5697 H   0  0  0  0  0  0  0  0  0  0  0  0
   60.0970   33.0510   51.4600 C   0  0  0  0  0  0  0  0  0  0  0  0
   60.0570   31.8820   50.6830 C   0  0  0  0  0  0  0  0  0  0  0  0
   60.9680   31.5293   50.1774 H   0  0  0  0  0  0  0  0  0  0  0  0
   58.8640   31.1640   50.5490 C   0  0  0  0  0  0  0  0  0  0  0  0
   58.8379   30.2503   49.9371 H   0  0  0  0  0  0  0  0  0  0  0  0
   57.7060   31.6070   51.1920 C   0  0  0  0  0  0  0  0  0  0  0  0
   56.7681   31.0423   51.0856 H   0  0  0  0  0  0  0  0  0  0  0  0
   57.7380   32.7680   51.9710 C   0  0  0  0  0  0  0  0  0  0  0  0
   56.8255   33.1150   52.4779 H   0  0  0  0  0  0  0  0  0  0  0  0
   58.9290   33.4880   52.1060 C   0  0  0  0  0  0  0  0  0  0  0  0
   58.9512   34.4001   52.7205 H   0  0  0  0  0  0  0  0  0  0  0  0
   62.0150   34.2100   49.3020 C   0  0  0  0  0  0  0  0  0  0  0  0
   61.0942   33.8080   48.8541 H   0  0  0  0  0  0  0  0  0  0  0  0
   61.8941   35.2660   49.5851 H   0  0  0  0  0  0  0  0  0  0  0  0
   63.1540   34.1250   48.2600 C   0  0  0  0  0  0  0  0  0  0  0  0
   62.7104   34.0140   47.2596 H   0  0  0  0  0  0  0  0  0  0  0  0
   63.7488   35.0472   48.3362 H   0  0  0  0  0  0  0  0  0  0  0  0
   56.5220   26.7760   46.1450 C   0  0  0  0  0  0  0  0  0  0  0  0
   55.1590   27.0070   45.9840 O   0  0  0  0  0  0  0  0  0  0  0  0
  1  2  1  0
  2  3  1  0
  3  4  2  0
  4  5  1  0
  4  6  1  0
  6  7  1  0
  6  8  2  0
  8  9  1  0
  8 10  1  0
 10 11  1  0
 11 12  2  0
 11 13  1  0
 13 14  1  0
 13 15  2  0
 15 16  1  0
 15 17  1  0
 17 18  2  0
 18 19  1  0
 18 20  1  0
 20 21  1  0
 20 22  2  0
 22 23  1  0
 22 24  1  0
 24 25  1  0
 24 26  2  0
 26 27  1  0
 27 28  1  0
 28 29  1  0
 28 30  1  0
 28 31  1  0
 31 32  1  0
 31 33  1  0
 31 34  1  0
 34 35  1  0
 34 36  1  0
 34 37  1  0
 37 38  1  0
 38 39  1  0
 38 40  1  0
 38 41  1  0
 41 42  1  0
 41 43  1  0
 41 44  1  0
 44 45  1  0
 45 46  1  0
 45 47  1  0
 45 48  1  0
 48 49  2  0
 49 50  1  0
 49 51  1  0
 51 52  1  0
 51 53  2  0
 53 54  1  0
 53 55  1  0
 55 56  1  0
 55 57  2  0
 57 58  1  0
 44 59  1  0
 59 60  1  0
 59 61  1  0
 59 62  1  0
 62 63  1  0
 62 64  1  0
 10 65  2  0
 65 66  1  0
 65  3  1  0
 26 17  1  0
 62 37  1  0
 57 48  1  0
M  CHG  1  66  -1
M  END
>  <UniqueID>  (4) 
4

>  <SMILES>  (4) 
O=C(/C=C\c1ccccc1OCCCN1CCN(Cc2ccccc2)CC1)c1cccc(O)c1[O-]

>  <Energy>  (4) 
90.31969869171179

>  <Genealogy>  (4) 
O=C(C=Cc1ccccc1OCCCN1CCN(Cc2ccccc2)CC1)c1cccc(O)c1[O-] (protonated)
O=C(/C=C\c1ccccc1OCCCN1CCN(Cc2ccccc2)CC1)c1cccc(O)c1[O-] (cis-trans isomerization)
O=C(/C=C\c1ccccc1OCCCN1CCN(Cc2ccccc2)CC1)c1cccc(O)c1[O-] (3D coordinates assigned)
O=C(/C=C\c1ccccc1OCCCN1CCN(Cc2ccccc2)CC1)c1cccc(O)c1[O-] (nonaromatic ring conformer: 90.31969869171179 kcal/mol)

>  <smiles>  (4) 
O=C(C=Cc1ccccc1OCCCN1CCN(Cc2ccccc2)CC1)c1cccc(O)c1O

>  <score_type>  (4) 
oracle

>  <origin>  (4) 
adg

>  <m_score__min__energy>  (4) 
-14.119999999999999

>  <m_primary>  (4) 
energy

$$$$
4:0
     RDKit          3D

 57 60  0  0  0  0  0  0  0  0999 V2000
   57.8470   34.5400   44.9210 O   0  0  0  0  0  0  0  0  0  0  0  0
   57.8050   33.2950   45.0980 C   0  0  0  0  0  0  0  0  0  0  0  0
   58.1520   32.3880   43.9470 C   0  0  0  0  0  0  0  0  0  0  0  0
   58.0390   30.9790   44.3580 N   0  0  0  0  0  0  0  0  0  0  0  0
   59.1780   30.2580   44.5720 C   0  0  0  0  0  0  0  0  0  0  0  0
   59.1020   28.9260   44.9770 C   0  0  0  0  0  0  0  0  0  0  0  0
   57.8860   28.3370   45.1840 N   0  0  0  0  0  0  0  0  0  0  0  0
   57.8360   26.9620   45.6200 C   0  0  0  0  0  0  0  0  0  0  0  0
   56.7460   26.4870   46.3710 C   0  0  0  0  0  0  0  0  0  0  0  0
   56.7110   25.1600   46.8080 C   0  0  0  0  0  0  0  0  0  0  0  0
   57.7700   24.2880   46.5060 C   0  0  0  0  0  0  0  0  0  0  0  0
   57.7540   22.9150   46.9210 N   0  0  0  0  0  0  0  0  0  0  0  0
   56.8140   21.9140   46.5110 C   0  0  0  0  0  0  0  0  0  0  0  0
   56.1710   21.2910   47.3970 O   0  0  0  0  0  0  0  0  0  0  0  0
   56.5370   21.6400   45.0470 C   0  0  0  0  0  0  0  0  0  0  0  0
   57.7300   21.9150   44.1250 C   0  0  0  0  0  0  0  0  0  0  0  0
   56.9410   23.0300   43.4430 C   0  0  0  0  0  0  0  0  0  0  0  0
   55.7500   22.7570   44.3580 C   0  0  0  0  0  0  0  0  0  0  0  0
   58.8340   24.7450   45.7210 C   0  0  0  0  0  0  0  0  0  0  0  0
   58.8740   26.0740   45.2880 C   0  0  0  0  0  0  0  0  0  0  0  0
   56.7370   29.0630   44.9990 C   0  0  0  0  0  0  0  0  0  0  0  0
   55.6060   28.5480   45.2280 O   0  0  0  0  0  0  0  0  0  0  0  0
   56.8150   30.3980   44.5730 C   0  0  0  0  0  0  0  0  0  0  0  0
   55.7520   31.0570   44.3970 O   0  0  0  0  0  0  0  0  0  0  0  0
   57.4160   32.8020   46.3880 N   0  0  0  0  0  0  0  0  0  0  0  0
   58.2300   32.7890   47.6010 C   0  0  0  0  0  0  0  0  0  0  0  0
   59.2240   31.6190   47.5900 C   0  0  0  0  0  0  0  0  0  0  0  0
   60.6360   32.0930   47.3600 C   0  0  0  0  0  0  0  0  0  0  0  0
   61.7260   31.2660   47.6880 C   0  0  0  0  0  0  0  0  0  0  0  0
   63.0360   31.7250   47.5100 C   0  0  0  0  0  0  0  0  0  0  0  0
   63.2670   33.0120   47.0160 C   0  0  0  0  0  0  0  0  0  0  0  0
   62.1890   33.8450   46.7010 C   0  0  0  0  0  0  0  0  0  0  0  0
   60.8780   33.3900   46.8730 C   0  0  0  0  0  0  0  0  0  0  0  0
   57.4614   32.5796   43.1125 H   0  0  0  0  0  0  0  0  0  0  0  0
   59.1867   32.5880   43.6318 H   0  0  0  0  0  0  0  0  0  0  0  0
   60.1605   30.7300   44.4242 H   0  0  0  0  0  0  0  0  0  0  0  0
   60.0244   28.3467   45.1306 H   0  0  0  0  0  0  0  0  0  0  0  0
   55.9150   27.1648   46.6162 H   0  0  0  0  0  0  0  0  0  0  0  0
   55.8513   24.7972   47.3904 H   0  0  0  0  0  0  0  0  0  0  0  0
   56.1208   20.6249   45.1266 H   0  0  0  0  0  0  0  0  0  0  0  0
   58.6335   22.2594   44.6494 H   0  0  0  0  0  0  0  0  0  0  0  0
   58.1753   21.1030   43.5314 H   0  0  0  0  0  0  0  0  0  0  0  0
   57.3810   24.0305   43.5669 H   0  0  0  0  0  0  0  0  0  0  0  0
   56.8122   23.0296   42.3506 H   0  0  0  0  0  0  0  0  0  0  0  0
   55.4896   23.5967   45.0191 H   0  0  0  0  0  0  0  0  0  0  0  0
   54.7552   22.5573   43.9331 H   0  0  0  0  0  0  0  0  0  0  0  0
   59.6440   24.0547   45.4427 H   0  0  0  0  0  0  0  0  0  0  0  0
   59.7229   26.4268   44.6839 H   0  0  0  0  0  0  0  0  0  0  0  0
   58.7889   33.7340   47.6682 H   0  0  0  0  0  0  0  0  0  0  0  0
   57.5624   32.6708   48.4672 H   0  0  0  0  0  0  0  0  0  0  0  0
   59.1750   31.0998   48.5585 H   0  0  0  0  0  0  0  0  0  0  0  0
   58.9499   30.9423   46.7673 H   0  0  0  0  0  0  0  0  0  0  0  0
   61.5480   30.2559   48.0854 H   0  0  0  0  0  0  0  0  0  0  0  0
   63.8853   31.0719   47.7593 H   0  0  0  0  0  0  0  0  0  0  0  0
   64.2976   33.3698   46.8749 H   0  0  0  0  0  0  0  0  0  0  0  0
   62.3725   34.8595   46.3174 H   0  0  0  0  0  0  0  0  0  0  0  0
   60.0326   34.0491   46.6264 H   0  0  0  0  0  0  0  0  0  0  0  0
  1  2  2  0
  2  3  1  0
  3  4  1  0
  4  5  1  0
  5  6  2  0
  6  7  1  0
  7  8  1  0
  8  9  2  0
  9 10  1  0
 10 11  2  0
 11 12  1  0
 12 13  1  0
 13 14  2  0
 13 15  1  0
 15 16  1  0
 16 17  1  0
 17 18  1  0
 11 19  1  0
 19 20  2  0
  7 21  1  0
 21 22  2  0
 21 23  1  0
 23 24  2  0
  2 25  1  0
 25 26  1  0
 26 27  1  0
 27 28  1  0
 28 29  2  0
 29 30  1  0
 30 31  2  0
 31 32  1  0
 32 33  2  0
 23  4  1  0
 33 28  1  0
 20  8  1  0
 18 15  1  0
  3 34  1  0
  3 35  1  0
  5 36  1  0
  6 37  1  0
  9 38  1  0
 10 39  1  0
 15 40  1  0
 16 41  1  0
 16 42  1  0
 17 43  1  0
 17 44  1  0
 18 45  1  0
 18 46  1  0
 19 47  1  0
 20 48  1  0
 26 49  1  0
 26 50  1  0
 27 51  1  0
 27 52  1  0
 29 53  1  0
 30 54  1  0
 31 55  1  0
 32 56  1  0
 33 57  1  0
M  CHG  2  12  -1  25  -1
M  END
>  <UniqueID>  (5) 
5

>  <SMILES>  (5) 
O=C(Cn1ccn(-c2ccc([N-]C(=O)C3CCC3)cc2)c(=O)c1=O)[N-]CCc1ccccc1

>  <Energy>  (5) 
132.94499812671327

>  <Genealogy>  (5) 
O=C(Cn1ccn(-c2ccc([N-]C(=O)C3CCC3)cc2)c(=O)c1=O)[N-]CCc1ccccc1 (protonated)
O=C(Cn1ccn(-c2ccc([N-]C(=O)C3CCC3)cc2)c(=O)c1=O)[N-]CCc1ccccc1 (3D coordinates assigned)
O=C(Cn1ccn(-c2ccc([N-]C(=O)C3CCC3)cc2)c(=O)c1=O)[N-]CCc1ccccc1 (nonaromatic ring conformer: 132.94499812671327 kcal/mol)

>  <smiles>  (5) 
O=C(Cn1ccn(-c2ccc(NC(=O)C3CCC3)cc2)c(=O)c1=O)NCCc1ccccc1

>  <score_type>  (5) 
oracle

>  <origin>  (5) 
adg

>  <m_score__min__energy>  (5) 
-11.5

>  <m_primary>  (5) 
energy

$$$$
5:0
     RDKit          3D

 35 37  0  0  0  0  0  0  0  0999 V2000
   58.2160   29.3290   51.2730 O   0  0  0  0  0  0  0  0  0  0  0  0
   57.4330   29.4540   52.2520 C   0  0  0  0  0  0  0  0  0  0  0  0
   56.2200   29.9550   52.0460 O   0  0  0  0  0  0  0  0  0  0  0  0
   55.3240   30.1260   53.0150 C   0  0  0  0  0  0  0  0  0  0  0  0
   53.9970   30.6950   52.6690 C   0  0  0  0  0  0  0  0  0  0  0  0
   53.7680   31.1780   51.3670 C   0  0  0  0  0  0  0  0  0  0  0  0
   52.5300   31.7250   51.0190 C   0  0  0  0  0  0  0  0  0  0  0  0
   51.5080   31.8060   51.9670 C   0  0  0  0  0  0  0  0  0  0  0  0
   50.2770   32.3500   51.6190 O   0  0  0  0  0  0  0  0  0  0  0  0
   51.7250   31.3430   53.2670 C   0  0  0  0  0  0  0  0  0  0  0  0
   52.9610   30.7950   53.6200 C   0  0  0  0  0  0  0  0  0  0  0  0
   55.6500   29.7530   54.3280 C   0  0  0  0  0  0  0  0  0  0  0  0
   56.9150   29.2210   54.5940 C   0  0  0  0  0  0  0  0  0  0  0  0
   57.2510   28.8430   55.8940 O   0  0  0  0  0  0  0  0  0  0  0  0
   57.8380   29.0710   53.5460 C   0  0  0  0  0  0  0  0  0  0  0  0
   59.2010   28.4640   53.7950 C   0  0  0  0  0  0  0  0  0  0  0  0
   59.2120   27.0100   53.4040 C   0  0  0  0  0  0  0  0  0  0  0  0
   60.1880   26.5180   52.5210 C   0  0  0  0  0  0  0  0  0  0  0  0
   60.1790   25.1740   52.1350 C   0  0  0  0  0  0  0  0  0  0  0  0
   59.1930   24.3120   52.6220 C   0  0  0  0  0  0  0  0  0  0  0  0
   59.1840   22.9770   52.2370 O   0  0  0  0  0  0  0  0  0  0  0  0
   58.2150   24.7930   53.4980 C   0  0  0  0  0  0  0  0  0  0  0  0
   58.2210   26.1370   53.8870 C   0  0  0  0  0  0  0  0  0  0  0  0
   54.5706   31.1245   50.6167 H   0  0  0  0  0  0  0  0  0  0  0  0
   52.3603   32.0925   49.9962 H   0  0  0  0  0  0  0  0  0  0  0  0
   50.9209   31.4100   54.0146 H   0  0  0  0  0  0  0  0  0  0  0  0
   53.1269   30.4390   54.6475 H   0  0  0  0  0  0  0  0  0  0  0  0
   54.9178   29.8780   55.1393 H   0  0  0  0  0  0  0  0  0  0  0  0
   58.1500   28.4310   56.1130 H   0  0  0  0  0  0  0  0  0  0  0  0
   59.9518   29.0043   53.1997 H   0  0  0  0  0  0  0  0  0  0  0  0
   59.4354   28.5453   54.8666 H   0  0  0  0  0  0  0  0  0  0  0  0
   60.9635   27.1938   52.1312 H   0  0  0  0  0  0  0  0  0  0  0  0
   60.9491   24.7949   51.4471 H   0  0  0  0  0  0  0  0  0  0  0  0
   57.4397   24.1137   53.8819 H   0  0  0  0  0  0  0  0  0  0  0  0
   57.4475   26.5122   54.5733 H   0  0  0  0  0  0  0  0  0  0  0  0
  1  2  2  0
  2  3  1  0
  3  4  1  0
  4  5  1  0
  5  6  2  0
  6  7  1  0
  7  8  2  0
  8  9  1  0
  8 10  1  0
 10 11  2  0
  4 12  2  0
 12 13  1  0
 13 14  1  0
 13 15  2  0
 15 16  1  0
 16 17  1  0
 17 18  2  0
 18 19  1  0
 19 20  2  0
 20 21  1  0
 20 22  1  0
 22 23  2  0
 15  2  1  0
 23 17  1  0
 11  5  1  0
  6 24  1  0
  7 25  1  0
 10 26  1  0
 11 27  1  0
 12 28  1  0
 14 29  1  0
 16 30  1  0
 16 31  1  0
 18 32  1  0
 19 33  1  0
 22 34  1  0
 23 35  1  0
M  CHG  2   9  -1  21  -1
M  END
>  <UniqueID>  (6) 
6

>  <SMILES>  (6) 
O=c1oc(-c2ccc([O-])cc2)cc(O)c1Cc1ccc([O-])cc1

>  <Energy>  (6) 
43.26821798391265

>  <Genealogy>  (6) 
O=c1oc(-c2ccc([O-])cc2)cc(O)c1Cc1ccc([O-])cc1 (protonated)
O=c1oc(-c2ccc([O-])cc2)cc(O)c1Cc1ccc([O-])cc1 (3D coordinates assigned)
O=c1oc(-c2ccc([O-])cc2)cc(O)c1Cc1ccc([O-])cc1 (optimized conformer: 43.26821798391265 kcal/mol)

>  <smiles>  (6) 
O=c1oc(-c2ccc(O)cc2)cc(O)c1Cc1ccc(O)cc1

>  <score_type>  (6) 
oracle

>  <origin>  (6) 
adg

>  <m_score__min__energy>  (6) 
-10.15

>  <m_primary>  (6) 
energy

$$$$
6:0
     RDKit          3D

 38 41  0  0  0  0  0  0  0  0999 V2000
   59.9171   28.6304   47.4700 H   0  0  0  0  0  0  0  0  0  0  0  0
   59.3400   28.0210   46.7590 C   0  0  0  0  0  0  0  0  0  0  0  0
   59.3151   26.9265   46.8665 H   0  0  0  0  0  0  0  0  0  0  0  0
   58.6660   28.6130   45.7600 C   0  0  0  0  0  0  0  0  0  0  0  0
   57.8910   27.9740   44.7820 C   0  0  0  0  0  0  0  0  0  0  0  0
   57.6850   26.6450   44.6550 C   0  0  0  0  0  0  0  0  0  0  0  0
   57.8969   26.1962   43.6733 H   0  0  0  0  0  0  0  0  0  0  0  0
   57.1990   25.7390   45.7210 C   0  0  0  0  0  0  0  0  0  0  0  0
   57.9030   24.7490   46.3000 N   0  0  0  0  0  0  0  0  0  0  0  0
   57.0510   24.2510   47.2210 C   0  0  0  0  0  0  0  0  0  0  0  0
   57.3530   23.2900   47.9760 O   0  0  0  0  0  0  0  0  0  0  0  0
   55.8500   24.8660   47.2710 N   0  0  0  0  0  0  0  0  0  0  0  0
   55.9630   25.8050   46.3200 C   0  0  0  0  0  0  0  0  0  0  0  0
   54.9550   26.7080   46.0050 O   0  0  0  0  0  0  0  0  0  0  0  0
   57.3560   28.9880   43.9930 C   0  0  0  0  0  0  0  0  0  0  0  0
   56.6842   28.8634   43.1309 H   0  0  0  0  0  0  0  0  0  0  0  0
   57.8310   30.1800   44.5010 C   0  0  0  0  0  0  0  0  0  0  0  0
   57.4850   31.5340   43.9570 C   0  0  0  0  0  0  0  0  0  0  0  0
   57.3073   32.2295   44.7904 H   0  0  0  0  0  0  0  0  0  0  0  0
   58.3172   31.9052   43.3408 H   0  0  0  0  0  0  0  0  0  0  0  0
   56.5768   31.4604   43.3408 H   0  0  0  0  0  0  0  0  0  0  0  0
   58.6190   29.9560   45.5740 N   0  0  0  0  0  0  0  0  0  0  0  0
   59.2850   30.9680   46.3520 C   0  0  0  0  0  0  0  0  0  0  0  0
   58.5380   31.9670   46.9960 C   0  0  0  0  0  0  0  0  0  0  0  0
   57.4426   31.9795   46.8966 H   0  0  0  0  0  0  0  0  0  0  0  0
   59.1760   32.9450   47.7620 C   0  0  0  0  0  0  0  0  0  0  0  0
   58.5835   33.7255   48.2618 H   0  0  0  0  0  0  0  0  0  0  0  0
   60.5720   32.9320   47.8940 C   0  0  0  0  0  0  0  0  0  0  0  0
   61.2410   33.8990   48.6560 C   0  0  0  0  0  0  0  0  0  0  0  0
   60.6721   34.6900   49.1666 H   0  0  0  0  0  0  0  0  0  0  0  0
   62.6330   33.8550   48.7650 C   0  0  0  0  0  0  0  0  0  0  0  0
   63.1666   34.6105   49.3604 H   0  0  0  0  0  0  0  0  0  0  0  0
   63.3420   32.8440   48.1120 C   0  0  0  0  0  0  0  0  0  0  0  0
   64.4382   32.8028   48.1939 H   0  0  0  0  0  0  0  0  0  0  0  0
   62.6820   31.9100   47.3750 N   0  0  0  0  0  0  0  0  0  0  0  0
   61.3270   31.9270   47.2500 C   0  0  0  0  0  0  0  0  0  0  0  0
   60.6810   30.9510   46.4850 C   0  0  0  0  0  0  0  0  0  0  0  0
   61.2697   30.1673   45.9858 H   0  0  0  0  0  0  0  0  0  0  0  0
  1  2  1  0
  2  3  1  0
  2  4  2  0
  4  5  1  0
  5  6  2  0
  6  7  1  0
  6  8  1  0
  8  9  1  0
  9 10  1  0
 10 11  2  0
 10 12  1  0
 12 13  1  0
 13 14  1  0
  5 15  1  0
 15 16  1  0
 15 17  2  0
 17 18  1  0
 18 19  1  0
 18 20  1  0
 18 21  1  0
 17 22  1  0
 22 23  1  0
 23 24  2  0
 24 25  1  0
 24 26  1  0
 26 27  1  0
 26 28  2  0
 28 29  1  0
 29 30  1  0
 29 31  2  0
 31 32  1  0
 31 33  1  0
 33 34  1  0
 33 35  2  0
 35 36  1  0
 36 37  2  0
 37 38  1  0
 22  4  1  0
 37 23  1  0
 13  8  2  0
 36 28  1  0
M  CHG  3   9  -1  12  -1  14  -1
M  END
>  <UniqueID>  (7) 
7

>  <SMILES>  (7) 
C=c1/c(=C/c2[n-]c(=O)[n-]c2[O-])cc(C)n1-c1ccc2cccnc2c1

>  <Energy>  (7) 
114.04881559673309

>  <Genealogy>  (7) 
C=c1c(=Cc2[n-]c(=O)[n-]c2[O-])cc(C)n1-c1ccc2cccnc2c1 (protonated)
C=c1/c(=C/c2[n-]c(=O)[n-]c2[O-])cc(C)n1-c1ccc2cccnc2c1 (cis-trans isomerization)
C=c1/c(=C/c2[n-]c(=O)[n-]c2[O-])cc(C)n1-c1ccc2cccnc2c1 (3D coordinates assigned)
C=c1/c(=C/c2[n-]c(=O)[n-]c2[O-])cc(C)n1-c1ccc2cccnc2c1 (optimized conformer: 114.04881559673309 kcal/mol)

>  <smiles>  (7) 
C=c1c(=Cc2[nH]c(=O)[nH]c2O)cc(C)n1-c1ccc2cccnc2c1

>  <score_type>  (7) 
oracle

>  <origin>  (7) 
adg

>  <m_score__min__energy>  (7) 
-15.65

>  <m_primary>  (7) 
energy

$$$$
7:0
     RDKit          3D

 53 56  0  0  0  0  0  0  0  0999 V2000
   60.1369   34.5300   50.8024 H   0  0  0  0  0  0  0  0  0  0  0  0
   60.4670   34.1980   49.8070 C   0  0  0  0  0  0  0  0  0  0  0  0
   59.6070   34.2510   48.7590 N   0  0  0  0  0  0  0  0  0  0  0  0
   59.9860   33.8530   47.5150 C   0  0  0  0  0  0  0  0  0  0  0  0
   59.1680   33.9280   46.5080 N   0  0  0  0  0  0  0  0  0  0  0  0
   58.4580   32.8240   45.9240 C   0  0  0  0  0  0  0  0  0  0  0  0
   57.7510   33.0170   44.7320 C   0  0  0  0  0  0  0  0  0  0  0  0
   57.7349   34.0107   44.2604 H   0  0  0  0  0  0  0  0  0  0  0  0
   57.0650   31.9540   44.1370 C   0  0  0  0  0  0  0  0  0  0  0  0
   56.4833   32.1233   43.2189 H   0  0  0  0  0  0  0  0  0  0  0  0
   57.1150   30.6710   44.7060 C   0  0  0  0  0  0  0  0  0  0  0  0
   56.3390   29.5390   44.0900 C   0  0  0  0  0  0  0  0  0  0  0  0
   57.0199   28.9119   43.4957 H   0  0  0  0  0  0  0  0  0  0  0  0
   55.5510   29.9522   43.4432 H   0  0  0  0  0  0  0  0  0  0  0  0
   55.7230   28.7270   45.1350 N   0  0  0  0  0  0  0  0  0  0  0  0
   56.2780   27.5000   45.6200 C   0  0  0  0  0  0  0  0  0  0  0  0
   55.5350   26.6360   46.1610 O   0  0  0  0  0  0  0  0  0  0  0  0
   57.7460   27.2280   45.4150 C   0  0  0  0  0  0  0  0  0  0  0  0
   57.9117   27.8908   44.5529 H   0  0  0  0  0  0  0  0  0  0  0  0
   58.0880   25.7440   45.4270 C   0  0  0  0  0  0  0  0  0  0  0  0
   58.6571   25.4196   44.5433 H   0  0  0  0  0  0  0  0  0  0  0  0
   57.2673   25.0117   45.4137 H   0  0  0  0  0  0  0  0  0  0  0  0
   58.9110   25.8630   46.6410 N   0  0  0  0  0  0  0  0  0  0  0  0
   60.3340   25.6170   46.3520 C   0  0  0  0  0  0  0  0  0  0  0  0
   60.8888   25.5211   47.2970 H   0  0  0  0  0  0  0  0  0  0  0  0
   60.4350   24.6881   45.7716 H   0  0  0  0  0  0  0  0  0  0  0  0
   60.7410   26.4581   45.7716 H   0  0  0  0  0  0  0  0  0  0  0  0
   58.6040   27.3030   46.6710 C   0  0  0  0  0  0  0  0  0  0  0  0
   59.4921   27.9418   46.5562 H   0  0  0  0  0  0  0  0  0  0  0  0
   58.1684   27.7327   47.5851 H   0  0  0  0  0  0  0  0  0  0  0  0
   57.8500   30.4700   45.8840 C   0  0  0  0  0  0  0  0  0  0  0  0
   57.9000   29.4671   46.3331 H   0  0  0  0  0  0  0  0  0  0  0  0
   58.5190   31.5370   46.4900 C   0  0  0  0  0  0  0  0  0  0  0  0
   59.0950   31.3703   47.4122 H   0  0  0  0  0  0  0  0  0  0  0  0
   61.2530   33.4130   47.3110 N   0  0  0  0  0  0  0  0  0  0  0  0
   62.1600   33.3410   48.3220 C   0  0  0  0  0  0  0  0  0  0  0  0
   63.5230   32.8770   47.9910 C   0  0  0  0  0  0  0  0  0  0  0  0
   64.2290   32.3530   48.8910 O   0  0  0  0  0  0  0  0  0  0  0  0
   64.0390   32.9760   46.6620 N   0  0  0  0  0  0  0  0  0  0  0  0
   65.0240   32.6920   46.4610 H   0  0  0  0  0  0  0  0  0  0  0  0
   63.4210   33.2290   45.8600 H   0  0  0  0  0  0  0  0  0  0  0  0
   61.7730   33.7230   49.6290 C   0  0  0  0  0  0  0  0  0  0  0  0
   62.6540   33.5820   50.8120 C   0  0  0  0  0  0  0  0  0  0  0  0
   62.5630   32.4410   51.6300 C   0  0  0  0  0  0  0  0  0  0  0  0
   61.8271   31.6573   51.3969 H   0  0  0  0  0  0  0  0  0  0  0  0
   63.4040   32.2990   52.7380 C   0  0  0  0  0  0  0  0  0  0  0  0
   63.3249   31.4073   53.3772 H   0  0  0  0  0  0  0  0  0  0  0  0
   64.3450   33.2890   53.0340 C   0  0  0  0  0  0  0  0  0  0  0  0
   65.0037   33.1772   53.9078 H   0  0  0  0  0  0  0  0  0  0  0  0
   64.4500   34.4210   52.2210 C   0  0  0  0  0  0  0  0  0  0  0  0
   65.1921   35.1986   52.4549 H   0  0  0  0  0  0  0  0  0  0  0  0
   63.6130   34.5660   51.1110 C   0  0  0  0  0  0  0  0  0  0  0  0
   63.7049   35.4540   50.4683 H   0  0  0  0  0  0  0  0  0  0  0  0
  1  2  1  0
  2  3  1  0
  3  4  1  0
  4  5  2  0
  5  6  1  0
  6  7  2  0
  7  8  1  0
  7  9  1  0
  9 10  1  0
  9 11  2  0
 11 12  1  0
 12 13  1  0
 12 14  1  0
 12 15  1  0
 15 16  1  0
 16 17  2  0
 16 18  1  0
 18 19  1  0
 18 20  1  0
 20 21  1  0
 20 22  1  0
 20 23  1  0
 23 24  1  0
 24 25  1  0
 24 26  1  0
 24 27  1  0
 23 28  1  0
 28 29  1  0
 28 30  1  0
 11 31  1  0
 31 32  1  0
 31 33  2  0
 33 34  1  0
  4 35  1  0
 35 36  2  0
 36 37  1  0
 37 38  2  0
 37 39  1  0
 39 40  1  0
 39 41  1  0
 36 42  1  0
 42 43  1  0
 43 44  2  0
 44 45  1  0
 44 46  1  0
 46 47  1  0
 46 48  2  0
 48 49  1  0
 48 50  1  0
 50 51  1  0
 50 52  2  0
 52 53  1  0
 42  2  2  0
 52 43  1  0
 33  6  1  0
 28 18  1  0
M  CHG  2   3  -1  15  -1
M  END
>  <UniqueID>  (8) 
8

>  <SMILES>  (8) 
CN1CC(C(=O)[N-]Cc2ccc(/N=c3/nc(C(N)=O)c(-c4ccccc4)c[n-]3)cc2)C1

>  <Energy>  (8) 
141.24241601413496

>  <Genealogy>  (8) 
CN1CC(C(=O)[N-]Cc2ccc(N=c3nc(C(N)=O)c(-c4ccccc4)c[n-]3)cc2)C1 (protonated)
CN1CC(C(=O)[N-]Cc2ccc(/N=c3/nc(C(N)=O)c(-c4ccccc4)c[n-]3)cc2)C1 (cis-trans isomerization)
CN1CC(C(=O)[N-]Cc2ccc(/N=c3/nc(C(N)=O)c(-c4ccccc4)c[n-]3)cc2)C1 (3D coordinates assigned)
CN1CC(C(=O)[N-]Cc2ccc(/N=c3/nc(C(N)=O)c(-c4ccccc4)c[n-]3)cc2)C1 (nonaromatic ring conformer: 141.24241601413496 kcal/mol)

>  <smiles>  (8) 
CN1CC(C(=O)NCc2ccc(N=c3nc(C(N)=O)c(-c4ccccc4)c[nH]3)cc2)C1

>  <score_type>  (8) 
oracle

>  <origin>  (8) 
adg

>  <m_score__min__energy>  (8) 
-11.539999999999999

>  <m_primary>  (8) 
energy

$$$$
8:0
     RDKit          3D

 45 48  0  0  0  0  0  0  0  0999 V2000
   59.2750   28.1230   43.8310 O   0  0  0  0  0  0  0  0  0  0  0  0
   58.1180   27.6720   43.7250 C   0  0  0  0  0  0  0  0  0  0  0  0
   57.9080   26.2590   43.3900 C   0  0  0  0  0  0  0  0  0  0  0  0
   57.7120   25.2330   44.8360 S   0  0  0  0  0  0  0  0  0  0  0  0
   55.9730   24.9560   45.1070 C   0  0  0  0  0  0  0  0  0  0  0  0
   55.0300   25.7130   45.6680 N   0  0  0  0  0  0  0  0  0  0  0  0
   53.8530   25.0590   45.6290 N   0  0  0  0  0  0  0  0  0  0  0  0
   54.0520   23.8500   45.0250 C   0  0  0  0  0  0  0  0  0  0  0  0
   53.1650   22.9660   44.8160 O   0  0  0  0  0  0  0  0  0  0  0  0
   55.3660   23.7950   44.7060 N   0  0  0  0  0  0  0  0  0  0  0  0
   56.0240   22.6890   44.0410 C   0  0  0  0  0  0  0  0  0  0  0  0
   57.3170   22.1810   44.5730 C   0  0  0  0  0  0  0  0  0  0  0  0
   56.0410   21.3980   44.7780 C   0  0  0  0  0  0  0  0  0  0  0  0
   57.0510   28.6080   43.9540 N   0  0  0  0  0  0  0  0  0  0  0  0
   57.4170   29.9370   44.2730 C   0  0  0  0  0  0  0  0  0  0  0  0
   57.3740   31.0030   43.4270 C   0  0  0  0  0  0  0  0  0  0  0  0
   57.8040   32.2560   43.8520 C   0  0  0  0  0  0  0  0  0  0  0  0
   58.2930   32.4620   45.1530 C   0  0  0  0  0  0  0  0  0  0  0  0
   58.7170   33.7100   45.5850 O   0  0  0  0  0  0  0  0  0  0  0  0
   59.6540   33.8830   46.6220 C   0  0  0  0  0  0  0  0  0  0  0  0
   61.0160   33.6720   46.3940 C   0  0  0  0  0  0  0  0  0  0  0  0
   61.9360   33.8420   47.4150 C   0  0  0  0  0  0  0  0  0  0  0  0
   61.5290   34.2210   48.6710 C   0  0  0  0  0  0  0  0  0  0  0  0
   60.1740   34.4350   48.9110 C   0  0  0  0  0  0  0  0  0  0  0  0
   59.2870   34.2570   47.8700 C   0  0  0  0  0  0  0  0  0  0  0  0
   58.3390   31.3750   46.0240 C   0  0  0  0  0  0  0  0  0  0  0  0
   57.9000   30.1470   45.5580 C   0  0  0  0  0  0  0  0  0  0  0  0
   57.0017   26.1743   42.7724 H   0  0  0  0  0  0  0  0  0  0  0  0
   58.8004   25.9082   42.8510 H   0  0  0  0  0  0  0  0  0  0  0  0
   52.9240   25.3710   45.9800 H   0  0  0  0  0  0  0  0  0  0  0  0
   55.7006   23.0275   43.0456 H   0  0  0  0  0  0  0  0  0  0  0  0
   58.0885   21.8076   43.8836 H   0  0  0  0  0  0  0  0  0  0  0  0
   58.1021   22.5813   45.2313 H   0  0  0  0  0  0  0  0  0  0  0  0
   55.8813   20.4529   44.2383 H   0  0  0  0  0  0  0  0  0  0  0  0
   55.5073   20.9888   45.6485 H   0  0  0  0  0  0  0  0  0  0  0  0
   56.0630   28.2640   43.8600 H   0  0  0  0  0  0  0  0  0  0  0  0
   56.9972   30.8728   42.4018 H   0  0  0  0  0  0  0  0  0  0  0  0
   57.7602   33.1047   43.1536 H   0  0  0  0  0  0  0  0  0  0  0  0
   61.3607   33.3681   45.3946 H   0  0  0  0  0  0  0  0  0  0  0  0
   63.0047   33.6716   47.2180 H   0  0  0  0  0  0  0  0  0  0  0  0
   62.2648   34.3539   49.4778 H   0  0  0  0  0  0  0  0  0  0  0  0
   59.8196   34.7388   49.9071 H   0  0  0  0  0  0  0  0  0  0  0  0
   58.2183   34.4291   48.0655 H   0  0  0  0  0  0  0  0  0  0  0  0
   58.7132   31.4892   47.0521 H   0  0  0  0  0  0  0  0  0  0  0  0
   57.9359   29.2887   46.2451 H   0  0  0  0  0  0  0  0  0  0  0  0
  1  2  2  0
  2  3  1  0
  3  4  1  0
  4  5  1  0
  5  6  2  0
  6  7  1  0
  7  8  1  0
  8  9  2  0
  8 10  1  0
 10 11  1  0
 11 12  1  0
 12 13  1  0
  2 14  1  0
 14 15  1  0
 15 16  2  0
 16 17  1  0
 17 18  2  0
 18 19  1  0
 19 20  1  0
 20 21  2  0
 21 22  1  0
 22 23  2  0
 23 24  1  0
 24 25  2  0
 18 26  1  0
 26 27  2  0
 10  5  1  0
 13 11  1  0
 27 15  1  0
 25 20  1  0
  3 28  1  0
  3 29  1  0
  7 30  1  0
 11 31  1  0
 12 32  1  0
 12 33  1  0
 13 34  1  0
 13 35  1  0
 14 36  1  0
 16 37  1  0
 17 38  1  0
 21 39  1  0
 22 40  1  0
 23 41  1  0
 24 42  1  0
 25 43  1  0
 26 44  1  0
 27 45  1  0
M  END
>  <smiles>  (9) 
O=C(CSc1n[nH]c(=O)n1C1CC1)Nc1ccc(Oc2ccccc2)cc1

>  <score_type>  (9) 
oracle

>  <origin>  (9) 
adg

>  <m_score__min__energy>  (9) 
-8.5099999999999998

>  <m_primary>  (9) 
energy

$$$$
9:0
     RDKit          3D

 36 37  0  0  1  0  0  0  0  0999 V2000
   55.0990   25.1400   45.6460 C   0  0  0  0  0  0  0  0  0  0  0  0
   55.4380   26.4680   45.9720 O   0  0  0  0  0  0  0  0  0  0  0  0
   56.6730   27.0260   45.7000 C   0  0  0  0  0  0  0  0  0  0  0  0
   57.8520   26.3750   45.9960 C   0  0  0  0  0  0  0  0  0  0  0  0
   59.1070   26.9120   45.7340 C   0  0  0  0  0  0  0  0  0  0  0  0
   59.1270   28.1570   45.1500 C   0  0  0  0  0  0  0  0  0  0  0  0
   57.9320   28.8320   44.8440 C   0  0  0  0  0  0  0  0  0  0  0  0
   58.1510   30.1940   44.2590 C   0  0  0  0  0  0  0  0  0  0  0  0
   57.7160   31.2080   45.2980 C   0  0  0  0  0  0  0  0  0  0  0  0
   56.7250   31.9550   45.0760 O   0  0  0  0  0  0  0  0  0  0  0  0
   58.4710   31.2380   46.4790 N   0  0  0  0  0  0  0  0  0  0  0  0
   59.1710   32.2160   46.8810 C   0  0  0  0  0  0  0  0  0  0  0  0
   60.3420   31.9160   47.5870 C   0  0  0  0  0  0  0  0  0  0  0  0
   61.1270   32.9620   48.0310 C   0  0  0  0  0  0  0  0  0  0  0  0
   62.3910   32.6570   48.7810 C   0  0  0  0  0  0  0  0  0  0  0  0
   60.7230   34.2060   47.7610 N   0  0  0  0  0  0  0  0  0  0  0  0
   59.5860   34.4610   47.0780 C   0  0  0  0  0  0  0  0  0  0  0  0
   59.2760   35.6700   46.8660 O   0  0  0  0  0  0  0  0  0  0  0  0
   58.7790   33.4610   46.6190 N   0  0  0  0  0  0  0  0  0  0  0  0
   56.7040   28.2930   45.1060 C   0  0  0  0  0  0  0  0  0  0  0  0
   55.5820   29.0050   44.7750 O   0  0  0  0  0  0  0  0  0  0  0  0
   54.9514   24.5618   46.5701 H   0  0  0  0  0  0  0  0  0  0  0  0
   54.1702   25.1328   45.0567 H   0  0  0  0  0  0  0  0  0  0  0  0
   55.9107   24.6885   45.0567 H   0  0  0  0  0  0  0  0  0  0  0  0
   57.7965   25.3806   46.4630 H   0  0  0  0  0  0  0  0  0  0  0  0
   60.0328   26.3712   45.9801 H   0  0  0  0  0  0  0  0  0  0  0  0
   60.0920   28.6317   44.9189 H   0  0  0  0  0  0  0  0  0  0  0  0
   59.2155   30.3338   44.0196 H   0  0  0  0  0  0  0  0  0  0  0  0
   57.5731   30.3160   43.3310 H   0  0  0  0  0  0  0  0  0  0  0  0
   60.6299   30.8727   47.7833 H   0  0  0  0  0  0  0  0  0  0  0  0
   62.1960   32.7040   49.8626 H   0  0  0  0  0  0  0  0  0  0  0  0
   62.7409   31.6486   48.5150 H   0  0  0  0  0  0  0  0  0  0  0  0
   63.1623   33.3948   48.5150 H   0  0  0  0  0  0  0  0  0  0  0  0
   61.3170   34.9950   48.1020 H   0  0  0  0  0  0  0  0  0  0  0  0
   57.9080   33.6370   46.1030 H   0  0  0  0  0  0  0  0  0  0  0  0
   54.7310   28.5320   44.4960 H   0  0  0  0  0  0  0  0  0  0  0  0
  1  2  1  0
  2  3  1  0
  3  4  2  0
  4  5  1  0
  5  6  2  0
  6  7  1  0
  7  8  1  0
  8  9  1  0
  9 10  2  0
  9 11  1  0
 11 12  2  0
 12 13  1  0
 13 14  2  0
 14 15  1  0
 14 16  1  0
 16 17  1  0
 17 18  2  0
 17 19  1  0
  7 20  2  0
 20 21  1  0
 20  3  1  0
 19 12  1  0
  1 22  1  0
  1 23  1  0
  1 24  1  0
  4 25  1  0
  5 26  1  0
  6 27  1  0
  8 28  1  0
  8 29  1  0
 13 30  1  0
 15 31  1  0
 15 32  1  0
 15 33  1  0
 16 34  1  0
 19 35  1  0
 21 36  1  0
M  END
>  <smiles>  (10) 
COc1cccc(CC(=O)N=c2cc(C)[nH]c(=O)[nH]2)c1O

>  <score_type>  (10) 
oracle

>  <origin>  (10) 
adg

>  <m_score__min__energy>  (10) 
-8.1600000000000001

>  <m_primary>  (10) 
energy

$$$$
10:0
     RDKit          3D

 44 46  0  0  0  0  0  0  0  0999 V2000
   59.8790   26.7680   48.1800 N   0  0  0  0  0  0  0  0  0  0  0  0
   58.8460   26.6390   47.2050 C   0  0  0  0  0  0  0  0  0  0  0  0
   57.6660   25.9710   47.4660 C   0  0  0  0  0  0  0  0  0  0  0  0
   56.6820   25.8740   46.4950 C   0  0  0  0  0  0  0  0  0  0  0  0
   55.5990   25.2560   46.7510 O   0  0  0  0  0  0  0  0  0  0  0  0
   56.8710   26.4300   45.2900 N   0  0  0  0  0  0  0  0  0  0  0  0
   58.0300   27.0940   45.0100 C   0  0  0  0  0  0  0  0  0  0  0  0
   58.2900   27.8490   43.3940 S   0  0  0  0  0  0  0  0  0  0  0  0
   56.9890   29.0810   43.1530 C   0  0  0  0  0  0  0  0  0  0  0  0
   56.6420   29.7300   44.4480 C   0  0  0  0  0  0  0  0  0  0  0  0
   55.7500   29.2510   45.1920 O   0  0  0  0  0  0  0  0  0  0  0  0
   57.3740   30.9380   44.8290 C   0  0  0  0  0  0  0  0  0  0  0  0
   58.1110   30.9820   46.0190 C   0  0  0  0  0  0  0  0  0  0  0  0
   58.8130   32.1350   46.3790 C   0  0  0  0  0  0  0  0  0  0  0  0
   58.8210   33.2680   45.6020 C   0  0  0  0  0  0  0  0  0  0  0  0
   59.5430   34.5060   45.8920 C   0  0  0  0  0  0  0  0  0  0  0  0
   59.9700   34.5540   47.3150 C   0  0  0  0  0  0  0  0  0  0  0  0
   59.2430   34.9590   48.2510 O   0  0  0  0  0  0  0  0  0  0  0  0
   61.3440   34.0880   47.5950 C   0  0  0  0  0  0  0  0  0  0  0  0
   62.2360   33.8430   46.5470 C   0  0  0  0  0  0  0  0  0  0  0  0
   63.5050   33.3860   46.8560 C   0  0  0  0  0  0  0  0  0  0  0  0
   63.9290   33.1640   48.1500 C   0  0  0  0  0  0  0  0  0  0  0  0
   63.0430   33.4090   49.1930 C   0  0  0  0  0  0  0  0  0  0  0  0
   61.7670   33.8660   48.8980 C   0  0  0  0  0  0  0  0  0  0  0  0
   58.0870   33.2220   44.4190 C   0  0  0  0  0  0  0  0  0  0  0  0
   57.3810   32.0710   44.0540 C   0  0  0  0  0  0  0  0  0  0  0  0
   58.9780   27.1740   45.9810 N   0  0  0  0  0  0  0  0  0  0  0  0
   60.7850   27.2550   47.9060 H   0  0  0  0  0  0  0  0  0  0  0  0
   59.7440   26.3910   49.1530 H   0  0  0  0  0  0  0  0  0  0  0  0
   57.5057   25.5121   48.4528 H   0  0  0  0  0  0  0  0  0  0  0  0
   56.1080   26.3470   44.5530 H   0  0  0  0  0  0  0  0  0  0  0  0
   57.3416   29.8470   42.4467 H   0  0  0  0  0  0  0  0  0  0  0  0
   56.0942   28.5814   42.7532 H   0  0  0  0  0  0  0  0  0  0  0  0
   58.1374   30.1005   46.6764 H   0  0  0  0  0  0  0  0  0  0  0  0
   59.3812   32.1357   47.3209 H   0  0  0  0  0  0  0  0  0  0  0  0
   60.4327   34.5627   45.2476 H   0  0  0  0  0  0  0  0  0  0  0  0
   58.8719   35.3560   45.6991 H   0  0  0  0  0  0  0  0  0  0  0  0
   61.9363   34.0095   45.5018 H   0  0  0  0  0  0  0  0  0  0  0  0
   64.2077   33.1908   46.0325 H   0  0  0  0  0  0  0  0  0  0  0  0
   64.9473   32.8006   48.3523 H   0  0  0  0  0  0  0  0  0  0  0  0
   63.3492   33.2429   50.2364 H   0  0  0  0  0  0  0  0  0  0  0  0
   61.0671   34.0589   49.7244 H   0  0  0  0  0  0  0  0  0  0  0  0
   58.0622   34.1040   43.7621 H   0  0  0  0  0  0  0  0  0  0  0  0
   56.8114   32.0738   43.1129 H   0  0  0  0  0  0  0  0  0  0  0  0
  1  2  1  0
  2  3  2  0
  3  4  1  0
  4  5  2  0
  4  6  1  0
  6  7  1  0
  7  8  1  0
  8  9  1  0
  9 10  1  0
 10 11  2  0
 10 12  1  0
 12 13  2  0
 13 14  1  0
 14 15  2  0
 15 16  1  0
 16 17  1  0
 17 18  2  0
 17 19  1  0
 19 20  2  0
 20 21  1  0
 21 22  2  0
 22 23  1  0
 23 24  2  0
 15 25  1  0
 25 26  2  0
  7 27  2  0
 27  2  1  0
 26 12  1  0
 24 19  1  0
  1 28  1  0
  1 29  1  0
  3 30  1  0
  6 31  1  0
  9 32  1  0
  9 33  1  0
 13 34  1  0
 14 35  1  0
 16 36  1  0
 16 37  1  0
 20 38  1  0
 21 39  1  0
 22 40  1  0
 23 41  1  0
 24 42  1  0
 25 43  1  0
 26 44  1  0
M  END
>  <smiles>  (11) 
Nc1cc(=O)[nH]c(SCC(=O)c2ccc(CC(=O)c3ccccc3)cc2)n1

>  <score_type>  (11) 
oracle

>  <origin>  (11) 
adg

>  <m_score__min__energy>  (11) 
-10

>  <m_primary>  (11) 
energy

$$$$
11:0
     RDKit          3D

 38 39  0  0  0  0  0  0  0  0999 V2000
   57.1910   33.8840   45.5400 C   0  0  0  0  0  0  0  0  0  0  0  0
   58.3210   33.8100   44.5200 C   0  0  0  0  0  0  0  0  0  0  0  0
   59.4570   34.5460   44.9720 O   0  0  0  0  0  0  0  0  0  0  0  0
   59.9250   34.5090   46.2900 C   0  0  0  0  0  0  0  0  0  0  0  0
   59.8620   35.5380   47.0170 O   0  0  0  0  0  0  0  0  0  0  0  0
   60.5040   33.2700   46.8400 C   0  0  0  0  0  0  0  0  0  0  0  0
   59.5920   31.9720   47.4080 S   0  0  0  0  0  0  0  0  0  0  0  0
   60.9500   31.0570   47.8180 C   0  0  0  0  0  0  0  0  0  0  0  0
   60.9560   29.8670   48.3420 N   0  0  0  0  0  0  0  0  0  0  0  0
   59.8570   28.9450   48.4500 C   0  0  0  0  0  0  0  0  0  0  0  0
   59.4260   28.5870   49.5800 O   0  0  0  0  0  0  0  0  0  0  0  0
   59.2220   28.4110   47.2210 C   0  0  0  0  0  0  0  0  0  0  0  0
   59.5290   27.1180   46.7590 C   0  0  0  0  0  0  0  0  0  0  0  0
   58.9250   26.6170   45.6030 C   0  0  0  0  0  0  0  0  0  0  0  0
   58.0090   27.3970   44.8950 C   0  0  0  0  0  0  0  0  0  0  0  0
   57.6970   28.6880   45.3350 C   0  0  0  0  0  0  0  0  0  0  0  0
   56.5300   29.6670   44.4510 S   0  0  0  0  0  0  0  0  0  0  0  0
   56.6760   29.3570   42.7570 N   0  0  0  0  0  0  0  0  0  0  0  0
   55.1370   29.3310   44.9050 O   0  0  0  0  0  0  0  0  0  0  0  0
   56.7820   31.1260   44.7170 O   0  0  0  0  0  0  0  0  0  0  0  0
   58.2970   29.1900   46.4990 C   0  0  0  0  0  0  0  0  0  0  0  0
   62.0920   31.7160   47.5320 N   0  0  0  0  0  0  0  0  0  0  0  0
   61.8590   32.9430   46.9890 C   0  0  0  0  0  0  0  0  0  0  0  0
   62.9950   33.8360   46.5980 C   0  0  0  0  0  0  0  0  0  0  0  0
   57.6117   33.8564   46.5560 H   0  0  0  0  0  0  0  0  0  0  0  0
   56.6315   34.8207   45.4001 H   0  0  0  0  0  0  0  0  0  0  0  0
   56.5141   33.0283   45.4001 H   0  0  0  0  0  0  0  0  0  0  0  0
   58.6071   32.7580   44.3736 H   0  0  0  0  0  0  0  0  0  0  0  0
   57.9714   34.2456   43.5724 H   0  0  0  0  0  0  0  0  0  0  0  0
   60.2495   26.4972   47.3117 H   0  0  0  0  0  0  0  0  0  0  0  0
   59.1720   25.6050   45.2497 H   0  0  0  0  0  0  0  0  0  0  0  0
   57.5314   26.9957   43.9890 H   0  0  0  0  0  0  0  0  0  0  0  0
   56.2840   28.4040   42.5870 H   0  0  0  0  0  0  0  0  0  0  0  0
   57.6970   29.3050   42.5450 H   0  0  0  0  0  0  0  0  0  0  0  0
   58.0430   30.2007   46.8511 H   0  0  0  0  0  0  0  0  0  0  0  0
   63.4862   34.2221   47.5033 H   0  0  0  0  0  0  0  0  0  0  0  0
   63.7218   33.2649   46.0017 H   0  0  0  0  0  0  0  0  0  0  0  0
   62.6117   34.6771   46.0017 H   0  0  0  0  0  0  0  0  0  0  0  0
  1  2  1  0
  2  3  1  0
  3  4  1  0
  4  5  2  0
  4  6  1  0
  6  7  1  0
  7  8  1  0
  8  9  2  3
  9 10  1  0
 10 11  2  0
 10 12  1  0
 12 13  2  0
 13 14  1  0
 14 15  2  0
 15 16  1  0
 16 17  1  0
 17 18  1  0
 17 19  2  0
 17 20  2  0
 16 21  2  0
  8 22  1  0
 22 23  1  0
 23 24  1  0
 23  6  2  0
 21 12  1  0
  1 25  1  0
  1 26  1  0
  1 27  1  0
  2 28  1  0
  2 29  1  0
 13 30  1  0
 14 31  1  0
 15 32  1  0
 18 33  1  0
 18 34  1  0
 21 35  1  0
 24 36  1  0
 24 37  1  0
 24 38  1  0
M  CHG  1  22  -1
M  END
>  <UniqueID>  (12) 
9

>  <SMILES>  (12) 
CCOC(=O)c1sc(=NC(=O)c2cccc(S(N)(=O)=O)c2)[n-]c1C

>  <Energy>  (12) 
66.11469514427606

>  <Genealogy>  (12) 
CCOC(=O)c1sc(=NC(=O)c2cccc(S(N)(=O)=O)c2)[n-]c1C (protonated)
CCOC(=O)c1sc(=NC(=O)c2cccc(S(N)(=O)=O)c2)[n-]c1C (3D coordinates assigned)
CCOC(=O)c1sc(=NC(=O)c2cccc(S(N)(=O)=O)c2)[n-]c1C (optimized conformer: 66.11469514427606 kcal/mol)

>  <smiles>  (12) 
CCOC(=O)c1sc(=NC(=O)c2cccc(S(N)(=O)=O)c2)[nH]c1C

>  <score_type>  (12) 
oracle

>  <origin>  (12) 
adg

>  <m_score__min__energy>  (12) 
-10.390000000000001

>  <m_primary>  (12) 
energy

$$$$
12:0
     RDKit          3D

 54 56  0  0  0  0  0  0  0  0999 V2000
   57.9880   21.0930   43.0550 C   0  0  0  0  0  0  0  0  0  0  0  0
   56.5240   21.0820   43.3350 C   0  0  0  0  0  0  0  0  0  0  0  0
   55.9060   19.9850   43.3710 O   0  0  0  0  0  0  0  0  0  0  0  0
   55.8620   22.3110   43.6650 N   0  0  0  0  0  0  0  0  0  0  0  0
   56.4670   23.4860   44.2270 C   0  0  0  0  0  0  0  0  0  0  0  0
   57.0410   24.4240   43.3600 C   0  0  0  0  0  0  0  0  0  0  0  0
   57.6180   25.5940   43.8630 C   0  0  0  0  0  0  0  0  0  0  0  0
   57.6170   25.8440   45.2410 C   0  0  0  0  0  0  0  0  0  0  0  0
   58.3100   27.3290   45.8900 S   0  0  0  0  0  0  0  0  0  0  0  0
   57.6280   27.6540   47.1880 O   0  0  0  0  0  0  0  0  0  0  0  0
   59.7790   27.1500   46.1560 O   0  0  0  0  0  0  0  0  0  0  0  0
   58.0680   28.6430   44.7750 N   0  0  0  0  0  0  0  0  0  0  0  0
   56.6470   28.9550   44.6240 C   0  0  0  0  0  0  0  0  0  0  0  0
   56.4680   30.3190   44.0350 C   0  0  0  0  0  0  0  0  0  0  0  0
   56.2340   30.4390   42.8030 O   0  0  0  0  0  0  0  0  0  0  0  0
   56.6280   31.4710   44.8710 N   0  0  0  0  0  0  0  0  0  0  0  0
   57.8530   31.9550   45.4430 C   0  0  0  0  0  0  0  0  0  0  0  0
   58.5650   31.1150   46.3080 C   0  0  0  0  0  0  0  0  0  0  0  0
   59.7530   31.5500   46.9000 C   0  0  0  0  0  0  0  0  0  0  0  0
   60.2340   32.8410   46.6490 C   0  0  0  0  0  0  0  0  0  0  0  0
   61.7540   33.3670   47.3730 S   0  0  0  0  0  0  0  0  0  0  0  0
   62.5550   34.0830   46.3220 O   0  0  0  0  0  0  0  0  0  0  0  0
   62.5390   32.1700   47.8330 O   0  0  0  0  0  0  0  0  0  0  0  0
   61.4520   34.4580   48.7110 N   0  0  0  0  0  0  0  0  0  0  0  0
   60.0370   34.4460   49.1240 C   0  0  0  0  0  0  0  0  0  0  0  0
   59.6600   33.1540   49.8870 C   0  0  0  0  0  0  0  0  0  0  0  0
   60.7780   32.4560   50.4080 O   0  0  0  0  0  0  0  0  0  0  0  0
   61.7080   33.3610   50.9590 C   0  0  0  0  0  0  0  0  0  0  0  0
   62.3650   34.1980   49.8450 C   0  0  0  0  0  0  0  0  0  0  0  0
   59.5160   33.6940   45.7990 C   0  0  0  0  0  0  0  0  0  0  0  0
   58.3270   33.2580   45.2070 C   0  0  0  0  0  0  0  0  0  0  0  0
   57.0240   24.9210   46.1100 C   0  0  0  0  0  0  0  0  0  0  0  0
   56.4460   23.7500   45.6100 C   0  0  0  0  0  0  0  0  0  0  0  0
   58.5429   21.0972   44.0048 H   0  0  0  0  0  0  0  0  0  0  0  0
   58.2575   20.1969   42.4768 H   0  0  0  0  0  0  0  0  0  0  0  0
   58.2440   21.9931   42.4768 H   0  0  0  0  0  0  0  0  0  0  0  0
   57.0379   24.2390   42.2757 H   0  0  0  0  0  0  0  0  0  0  0  0
   58.0741   26.3204   43.1743 H   0  0  0  0  0  0  0  0  0  0  0  0
   56.1817   28.2108   43.9609 H   0  0  0  0  0  0  0  0  0  0  0  0
   56.1709   28.9310   45.6153 H   0  0  0  0  0  0  0  0  0  0  0  0
   58.1859   30.1050   46.5229 H   0  0  0  0  0  0  0  0  0  0  0  0
   60.3126   30.8763   47.5656 H   0  0  0  0  0  0  0  0  0  0  0  0
   59.8521   35.3104   49.7787 H   0  0  0  0  0  0  0  0  0  0  0  0
   59.4201   34.4923   48.2144 H   0  0  0  0  0  0  0  0  0  0  0  0
   58.9984   33.4244   50.7231 H   0  0  0  0  0  0  0  0  0  0  0  0
   59.1696   32.4845   49.1650 H   0  0  0  0  0  0  0  0  0  0  0  0
   61.1896   34.0324   51.6594 H   0  0  0  0  0  0  0  0  0  0  0  0
   62.4884   32.7941   51.4877 H   0  0  0  0  0  0  0  0  0  0  0  0
   62.6816   35.1620   50.2697 H   0  0  0  0  0  0  0  0  0  0  0  0
   63.2192   33.6230   49.4580 H   0  0  0  0  0  0  0  0  0  0  0  0
   59.8892   34.7089   45.5974 H   0  0  0  0  0  0  0  0  0  0  0  0
   57.7596   33.9371   44.5536 H   0  0  0  0  0  0  0  0  0  0  0  0
   57.0125   25.1178   47.1922 H   0  0  0  0  0  0  0  0  0  0  0  0
   55.9740   23.0336   46.2984 H   0  0  0  0  0  0  0  0  0  0  0  0
  1  2  1  0
  2  3  2  0
  2  4  1  0
  4  5  1  0
  5  6  2  0
  6  7  1  0
  7  8  2  0
  8  9  1  0
  9 10  2  0
  9 11  2  0
  9 12  1  0
 12 13  1  0
 13 14  1  0
 14 15  2  0
 14 16  1  0
 16 17  1  0
 17 18  2  0
 18 19  1  0
 19 20  2  0
 20 21  1  0
 21 22  2  0
 21 23  2  0
 21 24  1  0
 24 25  1  0
 25 26  1  0
 26 27  1  0
 27 28  1  0
 28 29  1  0
 20 30  1  0
 30 31  2  0
  8 32  1  0
 32 33  2  0
 33  5  1  0
 31 17  1  0
 29 24  1  0
  1 34  1  0
  1 35  1  0
  1 36  1  0
  6 37  1  0
  7 38  1  0
 13 39  1  0
 13 40  1  0
 18 41  1  0
 19 42  1  0
 25 43  1  0
 25 44  1  0
 26 45  1  0
 26 46  1  0
 28 47  1  0
 28 48  1  0
 29 49  1  0
 29 50  1  0
 30 51  1  0
 31 52  1  0
 32 53  1  0
 33 54  1  0
M  CHG  3   4  -1  12  -1  16  -1
M  END
>  <UniqueID>  (13) 
10

>  <SMILES>  (13) 
CC(=O)[N-]c1ccc(S(=O)(=O)[N-]CC(=O)[N-]c2ccc(S(=O)(=O)N3CCOCC3)cc2)cc1

>  <Energy>  (13) 
69.28414845532086

>  <Genealogy>  (13) 
CC(=O)[N-]c1ccc(S(=O)(=O)[N-]CC(=O)[N-]c2ccc(S(=O)(=O)N3CCOCC3)cc2)cc1 (protonated)
CC(=O)[N-]c1ccc(S(=O)(=O)[N-]CC(=O)[N-]c2ccc(S(=O)(=O)N3CCOCC3)cc2)cc1 (3D coordinates assigned)
CC(=O)[N-]c1ccc(S(=O)(=O)[N-]CC(=O)[N-]c2ccc(S(=O)(=O)N3CCOCC3)cc2)cc1 (nonaromatic ring conformer: 69.28414845532086 kcal/mol)

>  <smiles>  (13) 
CC(=O)Nc1ccc(S(=O)(=O)NCC(=O)Nc2ccc(S(=O)(=O)N3CCOCC3)cc2)cc1

>  <score_type>  (13) 
oracle

>  <origin>  (13) 
adg

>  <m_score__min__energy>  (13) 
-13.06

>  <m_primary>  (13) 
energy

$$$$
13:0
     RDKit          3D

 47 50  0  0  0  0  0  0  0  0999 V2000
   58.8450   29.3290   48.3230 C   0  0  0  0  0  0  0  0  0  0  0  0
   58.6280   29.9470   47.1490 C   0  0  0  0  0  0  0  0  0  0  0  0
   58.5830   29.3360   45.8850 C   0  0  0  0  0  0  0  0  0  0  0  0
   58.5240   28.0370   45.5280 C   0  0  0  0  0  0  0  0  0  0  0  0
   57.3930   27.1290   45.7770 C   0  0  0  0  0  0  0  0  0  0  0  0
   57.4950   25.9160   46.3540 N   0  0  0  0  0  0  0  0  0  0  0  0
   56.2080   25.5300   46.4950 C   0  0  0  0  0  0  0  0  0  0  0  0
   55.8850   24.4210   46.9930 O   0  0  0  0  0  0  0  0  0  0  0  0
   55.2960   26.4320   46.0730 N   0  0  0  0  0  0  0  0  0  0  0  0
   56.0630   27.4420   45.6350 C   0  0  0  0  0  0  0  0  0  0  0  0
   55.5590   28.6290   45.1210 O   0  0  0  0  0  0  0  0  0  0  0  0
   58.5920   30.3620   44.9590 C   0  0  0  0  0  0  0  0  0  0  0  0
   58.5580   31.5430   45.6680 C   0  0  0  0  0  0  0  0  0  0  0  0
   58.5780   32.9030   45.0370 C   0  0  0  0  0  0  0  0  0  0  0  0
   58.5760   31.3000   47.0000 N   0  0  0  0  0  0  0  0  0  0  0  0
   58.6150   32.3360   48.0480 C   0  0  0  0  0  0  0  0  0  0  0  0
   60.0170   32.5090   48.5780 C   0  0  0  0  0  0  0  0  0  0  0  0
   60.2600   32.4960   49.9600 C   0  0  0  0  0  0  0  0  0  0  0  0
   61.5570   32.6650   50.4530 C   0  0  0  0  0  0  0  0  0  0  0  0
   62.6350   32.8560   49.5730 C   0  0  0  0  0  0  0  0  0  0  0  0
   63.9730   33.0200   50.0850 N   0  0  0  0  0  0  0  0  0  0  0  0
   65.0890   32.1390   49.7790 C   0  0  0  0  0  0  0  0  0  0  0  0
   66.3450   32.8260   50.3470 C   0  0  0  0  0  0  0  0  0  0  0  0
   65.8610   33.9620   51.2600 C   0  0  0  0  0  0  0  0  0  0  0  0
   64.4150   34.0320   50.9760 C   0  0  0  0  0  0  0  0  0  0  0  0
   63.6410   34.8610   51.5250 O   0  0  0  0  0  0  0  0  0  0  0  0
   62.3920   32.8470   48.1890 C   0  0  0  0  0  0  0  0  0  0  0  0
   61.0950   32.6780   47.6970 C   0  0  0  0  0  0  0  0  0  0  0  0
   58.8589   29.9108   49.2565 H   0  0  0  0  0  0  0  0  0  0  0  0
   59.0086   28.2416   48.3501 H   0  0  0  0  0  0  0  0  0  0  0  0
   59.3972   27.6198   45.0052 H   0  0  0  0  0  0  0  0  0  0  0  0
   58.6208   30.2560   43.8645 H   0  0  0  0  0  0  0  0  0  0  0  0
   58.5893   33.6720   45.8235 H   0  0  0  0  0  0  0  0  0  0  0  0
   59.4777   33.0042   44.4123 H   0  0  0  0  0  0  0  0  0  0  0  0
   57.6816   33.0306   44.4123 H   0  0  0  0  0  0  0  0  0  0  0  0
   58.2691   33.2905   47.6246 H   0  0  0  0  0  0  0  0  0  0  0  0
   57.9608   32.0251   48.8759 H   0  0  0  0  0  0  0  0  0  0  0  0
   59.4240   32.3518   50.6602 H   0  0  0  0  0  0  0  0  0  0  0  0
   61.7348   32.6483   51.5384 H   0  0  0  0  0  0  0  0  0  0  0  0
   64.9424   31.1581   50.2548 H   0  0  0  0  0  0  0  0  0  0  0  0
   65.1801   31.9677   48.6962 H   0  0  0  0  0  0  0  0  0  0  0  0
   66.9414   32.1048   50.9251 H   0  0  0  0  0  0  0  0  0  0  0  0
   66.9793   33.2161   49.5374 H   0  0  0  0  0  0  0  0  0  0  0  0
   66.0438   33.7225   52.3179 H   0  0  0  0  0  0  0  0  0  0  0  0
   66.3824   34.9132   51.0774 H   0  0  0  0  0  0  0  0  0  0  0  0
   63.2295   32.9740   47.4872 H   0  0  0  0  0  0  0  0  0  0  0  0
   60.9184   32.6775   46.6113 H   0  0  0  0  0  0  0  0  0  0  0  0
  1  2  2  0
  2  3  1  0
  3  4  2  3
  4  5  1  0
  5  6  1  0
  6  7  1  0
  7  8  2  0
  7  9  1  0
  9 10  1  0
 10 11  1  0
  3 12  1  0
 12 13  2  0
 13 14  1  0
 13 15  1  0
 15 16  1  0
 16 17  1  0
 17 18  2  0
 18 19  1  0
 19 20  2  0
 20 21  1  0
 21 22  1  0
 22 23  1  0
 23 24  1  0
 24 25  1  0
 25 26  2  0
 20 27  1  0
 27 28  2  0
 15  2  1  0
 28 17  1  0
 10  5  2  0
 25 21  1  0
  1 29  1  0
  1 30  1  0
  4 31  1  0
 12 32  1  0
 14 33  1  0
 14 34  1  0
 14 35  1  0
 16 36  1  0
 16 37  1  0
 18 38  1  0
 19 39  1  0
 22 40  1  0
 22 41  1  0
 23 42  1  0
 23 43  1  0
 24 44  1  0
 24 45  1  0
 27 46  1  0
 28 47  1  0
M  CHG  3   6  -1   9  -1  11  -1
M  END
>  <UniqueID>  (14) 
11

>  <SMILES>  (14) 
C=c1c(=Cc2[n-]c(=O)[n-]c2[O-])cc(C)n1Cc1ccc(N2CCCC2=O)cc1

>  <Energy>  (14) 
128.9222361114682

>  <Genealogy>  (14) 
C=c1c(=Cc2[n-]c(=O)[n-]c2[O-])cc(C)n1Cc1ccc(N2CCCC2=O)cc1 (protonated)
C=c1c(=Cc2[n-]c(=O)[n-]c2[O-])cc(C)n1Cc1ccc(N2CCCC2=O)cc1 (3D coordinates assigned)
C=c1c(=Cc2[n-]c(=O)[n-]c2[O-])cc(C)n1Cc1ccc(N2CCCC2=O)cc1 (nonaromatic ring conformer: 128.9222361114682 kcal/mol)

>  <smiles>  (14) 
C=c1c(=Cc2[nH]c(=O)[nH]c2O)cc(C)n1Cc1ccc(N2CCCC2=O)cc1

>  <score_type>  (14) 
oracle

>  <origin>  (14) 
adg

>  <m_score__min__energy>  (14) 
-16.93

>  <m_primary>  (14) 
energy

$$$$
14:0
     RDKit          3D

 63 66  0  0  0  0  0  0  0  0999 V2000
   56.1030   19.7600   45.0110 C   0  0  0  0  0  0  0  0  0  0  0  0
   55.8930   20.7550   44.0140 O   0  0  0  0  0  0  0  0  0  0  0  0
   56.2310   22.1070   44.1590 C   0  0  0  0  0  0  0  0  0  0  0  0
   56.5140   22.8510   43.0070 C   0  0  0  0  0  0  0  0  0  0  0  0
   56.8590   24.2000   43.1010 C   0  0  0  0  0  0  0  0  0  0  0  0
   56.9410   24.8170   44.3500 C   0  0  0  0  0  0  0  0  0  0  0  0
   56.6810   24.0840   45.5180 C   0  0  0  0  0  0  0  0  0  0  0  0
   56.8040   24.7400   46.8710 C   0  0  0  0  0  0  0  0  0  0  0  0
   58.1750   24.9030   47.2370 O   0  0  0  0  0  0  0  0  0  0  0  0
   58.9370   26.0610   47.0090 C   0  0  0  0  0  0  0  0  0  0  0  0
   59.4630   26.8410   48.0570 C   0  0  0  0  0  0  0  0  0  0  0  0
   60.1730   28.0120   47.7780 C   0  0  0  0  0  0  0  0  0  0  0  0
   60.3910   28.4160   46.4480 C   0  0  0  0  0  0  0  0  0  0  0  0
   61.0870   29.7180   46.1150 C   0  0  0  0  0  0  0  0  0  0  0  0
   60.4030   30.9250   46.7060 C   0  0  0  0  0  0  0  0  0  0  0  0
   59.1210   31.4090   46.4410 C   0  0  0  0  0  0  0  0  0  0  0  0
   58.1210   30.8740   45.4900 C   0  0  0  0  0  0  0  0  0  0  0  0
   57.2940   29.7880   45.8230 C   0  0  0  0  0  0  0  0  0  0  0  0
   56.3490   29.3090   44.9080 C   0  0  0  0  0  0  0  0  0  0  0  0
   55.5230   28.2460   45.2530 O   0  0  0  0  0  0  0  0  0  0  0  0
   56.2410   29.8930   43.6420 C   0  0  0  0  0  0  0  0  0  0  0  0
   57.0830   30.9500   43.2900 C   0  0  0  0  0  0  0  0  0  0  0  0
   57.0030   31.4990   42.0530 F   0  0  0  0  0  0  0  0  0  0  0  0
   58.0170   31.4390   44.2070 C   0  0  0  0  0  0  0  0  0  0  0  0
   58.8450   32.4300   47.2800 N   0  0  0  0  0  0  0  0  0  0  0  0
   59.9020   32.6220   48.0550 N   0  0  0  0  0  0  0  0  0  0  0  0
   59.9520   33.6610   49.0860 C   0  0  0  0  0  0  0  0  0  0  0  0
   59.2450   33.2010   50.3640 C   0  0  0  0  0  0  0  0  0  0  0  0
   59.4840   31.7410   50.6390 C   0  0  0  0  0  0  0  0  0  0  0  0
   60.5640   31.3910   51.1830 O   0  0  0  0  0  0  0  0  0  0  0  0
   58.4660   30.7220   50.3270 C   0  0  0  0  0  0  0  0  0  0  0  0
   58.5320   30.0700   49.2490 O   0  0  0  0  0  0  0  0  0  0  0  0
   57.4110   30.4870   51.2000 O   0  0  0  0  0  0  0  0  0  0  0  0
   60.8710   31.7330   47.7360 C   0  0  0  0  0  0  0  0  0  0  0  0
   62.1730   31.5880   48.4750 C   0  0  0  0  0  0  0  0  0  0  0  0
   59.8690   27.6300   45.4060 C   0  0  0  0  0  0  0  0  0  0  0  0
   59.1640   26.4560   45.6870 C   0  0  0  0  0  0  0  0  0  0  0  0
   56.3020   22.7350   45.4170 C   0  0  0  0  0  0  0  0  0  0  0  0
   56.0071   20.2142   46.0082 H   0  0  0  0  0  0  0  0  0  0  0  0
   55.3532   18.9631   44.8974 H   0  0  0  0  0  0  0  0  0  0  0  0
   57.1108   19.3341   44.8974 H   0  0  0  0  0  0  0  0  0  0  0  0
   56.4640   22.3682   42.0199 H   0  0  0  0  0  0  0  0  0  0  0  0
   57.0667   24.7782   42.1886 H   0  0  0  0  0  0  0  0  0  0  0  0
   57.2103   25.8813   44.4191 H   0  0  0  0  0  0  0  0  0  0  0  0
   56.3206   25.7275   46.8375 H   0  0  0  0  0  0  0  0  0  0  0  0
   56.3153   24.0975   47.6182 H   0  0  0  0  0  0  0  0  0  0  0  0
   59.3142   26.5269   49.1007 H   0  0  0  0  0  0  0  0  0  0  0  0
   60.5645   28.6227   48.6049 H   0  0  0  0  0  0  0  0  0  0  0  0
   62.1154   29.6739   46.5030 H   0  0  0  0  0  0  0  0  0  0  0  0
   61.0627   29.8313   45.0211 H   0  0  0  0  0  0  0  0  0  0  0  0
   57.3898   29.3109   46.8095 H   0  0  0  0  0  0  0  0  0  0  0  0
   55.4945   29.5206   42.9250 H   0  0  0  0  0  0  0  0  0  0  0  0
   58.6760   32.2726   43.9227 H   0  0  0  0  0  0  0  0  0  0  0  0
   61.0032   33.8871   49.3180 H   0  0  0  0  0  0  0  0  0  0  0  0
   59.4398   34.5570   48.7055 H   0  0  0  0  0  0  0  0  0  0  0  0
   59.6237   33.7900   51.2123 H   0  0  0  0  0  0  0  0  0  0  0  0
   58.1636   33.3517   50.2302 H   0  0  0  0  0  0  0  0  0  0  0  0
   61.9840   31.6090   49.5584 H   0  0  0  0  0  0  0  0  0  0  0  0
   62.6442   30.6318   48.2035 H   0  0  0  0  0  0  0  0  0  0  0  0
   62.8430   32.4171   48.2035 H   0  0  0  0  0  0  0  0  0  0  0  0
   60.0164   27.9412   44.3613 H   0  0  0  0  0  0  0  0  0  0  0  0
   58.7843   25.8373   44.8605 H   0  0  0  0  0  0  0  0  0  0  0  0
   56.0592   22.1659   46.3265 H   0  0  0  0  0  0  0  0  0  0  0  0
  1  2  1  0
  2  3  1  0
  3  4  2  0
  4  5  1  0
  5  6  2  0
  6  7  1  0
  7  8  1  0
  8  9  1  0
  9 10  1  0
 10 11  2  0
 11 12  1  0
 12 13  2  0
 13 14  1  0
 14 15  1  0
 15 16  1  0
 16 17  1  0
 17 18  2  0
 18 19  1  0
 19 20  1  0
 19 21  2  0
 21 22  1  0
 22 23  1  0
 22 24  2  0
 16 25  2  0
 25 26  1  0
 26 27  1  0
 27 28  1  0
 28 29  1  0
 29 30  2  0
 29 31  1  0
 31 32  2  0
 31 33  1  0
 26 34  1  0
 34 35  1  0
 13 36  1  0
 36 37  2  0
  7 38  2  0
 38  3  1  0
 37 10  1  0
 34 15  2  0
 24 17  1  0
  1 39  1  0
  1 40  1  0
  1 41  1  0
  4 42  1  0
  5 43  1  0
  6 44  1  0
  8 45  1  0
  8 46  1  0
 11 47  1  0
 12 48  1  0
 14 49  1  0
 14 50  1  0
 18 51  1  0
 21 52  1  0
 24 53  1  0
 27 54  1  0
 27 55  1  0
 28 56  1  0
 28 57  1  0
 35 58  1  0
 35 59  1  0
 35 60  1  0
 36 61  1  0
 37 62  1  0
 38 63  1  0
M  CHG  2  20  -1  33  -1
M  END
>  <UniqueID>  (15) 
12

>  <SMILES>  (15) 
COc1cccc(COc2ccc(Cc3c(-c4cc([O-])cc(F)c4)nn(CCC(=O)C(=O)[O-])c3C)cc2)c1

>  <Energy>  (15) 
94.70348003245304

>  <Genealogy>  (15) 
COc1cccc(COc2ccc(Cc3c(-c4cc([O-])cc(F)c4)nn(CCC(=O)C(=O)[O-])c3C)cc2)c1 (protonated)
COc1cccc(COc2ccc(Cc3c(-c4cc([O-])cc(F)c4)nn(CCC(=O)C(=O)[O-])c3C)cc2)c1 (3D coordinates assigned)
COc1cccc(COc2ccc(Cc3c(-c4cc([O-])cc(F)c4)nn(CCC(=O)C(=O)[O-])c3C)cc2)c1 (optimized conformer: 94.70348003245304 kcal/mol)

>  <smiles>  (15) 
COc1cccc(COc2ccc(Cc3c(-c4cc(O)cc(F)c4)nn(CCC(=O)C(=O)O)c3C)cc2)c1

>  <score_type>  (15) 
oracle

>  <origin>  (15) 
adg

>  <m_score__min__energy>  (15) 
-13.41

>  <m_primary>  (15) 
energy

$$$$
15:0
     RDKit          3D

 46 48  0  0  0  0  0  0  0  0999 V2000
   54.8770   29.7060   44.1230 N   0  0  0  0  0  0  0  0  0  0  0  0
   56.1420   30.1790   43.6650 C   0  0  0  0  0  0  0  0  0  0  0  0
   56.4330   30.0700   42.4430 O   0  0  0  0  0  0  0  0  0  0  0  0
   57.1040   30.7930   44.6090 C   0  0  0  0  0  0  0  0  0  0  0  0
   57.4510   32.1490   44.4920 C   0  0  0  0  0  0  0  0  0  0  0  0
   58.3270   32.7360   45.4050 C   0  0  0  0  0  0  0  0  0  0  0  0
   58.8860   31.9730   46.4320 C   0  0  0  0  0  0  0  0  0  0  0  0
   58.5910   30.6050   46.5410 C   0  0  0  0  0  0  0  0  0  0  0  0
   59.2370   29.7730   47.6280 C   0  0  0  0  0  0  0  0  0  0  0  0
   60.1910   28.7630   47.1150 N   0  0  0  0  0  0  0  0  0  0  0  0
   60.4300   28.7870   45.6540 C   0  0  0  0  0  0  0  0  0  0  0  0
   59.5080   27.8230   44.8800 C   0  0  0  0  0  0  0  0  0  0  0  0
   59.2640   26.5850   45.6280 N   0  0  0  0  0  0  0  0  0  0  0  0
   58.0630   25.8150   45.3880 C   0  0  0  0  0  0  0  0  0  0  0  0
   58.1460   24.5510   44.7720 C   0  0  0  0  0  0  0  0  0  0  0  0
   56.9940   23.7760   44.5520 C   0  0  0  0  0  0  0  0  0  0  0  0
   57.0920   22.4600   43.8780 C   0  0  0  0  0  0  0  0  0  0  0  0
   55.9680   21.9080   43.1960 N   0  0  0  0  0  0  0  0  0  0  0  0
   58.1760   21.8140   43.8990 O   0  0  0  0  0  0  0  0  0  0  0  0
   55.7510   24.2680   44.9760 C   0  0  0  0  0  0  0  0  0  0  0  0
   55.6530   25.5230   45.5870 C   0  0  0  0  0  0  0  0  0  0  0  0
   54.4140   26.0120   45.9960 O   0  0  0  0  0  0  0  0  0  0  0  0
   56.8010   26.2990   45.7860 C   0  0  0  0  0  0  0  0  0  0  0  0
   56.6730   27.5570   46.3610 O   0  0  0  0  0  0  0  0  0  0  0  0
   60.1510   26.2750   46.7490 C   0  0  0  0  0  0  0  0  0  0  0  0
   60.1090   27.4280   47.7570 C   0  0  0  0  0  0  0  0  0  0  0  0
   57.6770   30.0280   45.6410 C   0  0  0  0  0  0  0  0  0  0  0  0
   54.8150   28.9740   44.8650 H   0  0  0  0  0  0  0  0  0  0  0  0
   57.0290   32.7522   43.6747 H   0  0  0  0  0  0  0  0  0  0  0  0
   58.5782   33.8032   45.3156 H   0  0  0  0  0  0  0  0  0  0  0  0
   59.5614   32.4465   47.1598 H   0  0  0  0  0  0  0  0  0  0  0  0
   59.7777   30.4482   48.3075 H   0  0  0  0  0  0  0  0  0  0  0  0
   58.4302   29.2249   48.1365 H   0  0  0  0  0  0  0  0  0  0  0  0
   60.2569   29.8093   45.2866 H   0  0  0  0  0  0  0  0  0  0  0  0
   61.4667   28.4612   45.4833 H   0  0  0  0  0  0  0  0  0  0  0  0
   58.5457   28.3226   44.6945 H   0  0  0  0  0  0  0  0  0  0  0  0
   60.0050   27.5593   43.9348 H   0  0  0  0  0  0  0  0  0  0  0  0
   59.1270   24.1645   44.4584 H   0  0  0  0  0  0  0  0  0  0  0  0
   55.9560   20.9070   42.9030 H   0  0  0  0  0  0  0  0  0  0  0  0
   54.8452   23.6620   44.8269 H   0  0  0  0  0  0  0  0  0  0  0  0
   54.3320   26.7090   46.7280 H   0  0  0  0  0  0  0  0  0  0  0  0
   59.8173   25.3473   47.2368 H   0  0  0  0  0  0  0  0  0  0  0  0
   61.1792   26.1421   46.3815 H   0  0  0  0  0  0  0  0  0  0  0  0
   59.1659   27.3672   48.3199 H   0  0  0  0  0  0  0  0  0  0  0  0
   60.9862   27.3239   48.4125 H   0  0  0  0  0  0  0  0  0  0  0  0
   57.4073   28.9667   45.7453 H   0  0  0  0  0  0  0  0  0  0  0  0
  1  2  1  0
  2  3  2  0
  2  4  1  0
  4  5  2  0
  5  6  1  0
  6  7  2  0
  7  8  1  0
  8  9  1  0
  9 10  1  0
 10 11  1  0
 11 12  1  0
 12 13  1  0
 13 14  1  0
 14 15  2  0
 15 16  1  0
 16 17  1  0
 17 18  1  0
 17 19  2  0
 16 20  2  0
 20 21  1  0
 21 22  1  0
 21 23  2  0
 23 24  1  0
 13 25  1  0
 25 26  1  0
  8 27  2  0
 27  4  1  0
 26 10  1  0
 23 14  1  0
  1 28  1  0
  5 29  1  0
  6 30  1  0
  7 31  1  0
  9 32  1  0
  9 33  1  0
 11 34  1  0
 11 35  1  0
 12 36  1  0
 12 37  1  0
 15 38  1  0
 18 39  1  0
 20 40  1  0
 22 41  1  0
 25 42  1  0
 25 43  1  0
 26 44  1  0
 26 45  1  0
 27 46  1  0
M  CHG  3   1  -1  18  -1  24  -1
M  END
>  <UniqueID>  (16) 
13

>  <SMILES>  (16) 
[NH-]C(=O)c1cccc(CN2CCN(c3cc(C([NH-])=O)cc(O)c3[O-])CC2)c1

>  <Energy>  (16) 
61.74522383253139

>  <Genealogy>  (16) 
[NH-]C(=O)c1cccc(CN2CCN(c3cc(C([NH-])=O)cc(O)c3[O-])CC2)c1 (protonated)
[NH-]C(=O)c1cccc(CN2CCN(c3cc(C([NH-])=O)cc(O)c3[O-])CC2)c1 (3D coordinates assigned)
[NH-]C(=O)c1cccc(CN2CCN(c3cc(C([NH-])=O)cc(O)c3[O-])CC2)c1 (nonaromatic ring conformer: 61.74522383253139 kcal/mol)

>  <smiles>  (16) 
NC(=O)c1cccc(CN2CCN(c3cc(C(N)=O)cc(O)c3O)CC2)c1

>  <score_type>  (16) 
oracle

>  <origin>  (16) 
adg

>  <m_score__min__energy>  (16) 
-15

>  <m_primary>  (16) 
energy

$$$$
16:0
     RDKit          3D

 53 56  0  0  0  0  0  0  0  0999 V2000
   59.3230   34.8730   49.0710 O   0  0  0  0  0  0  0  0  0  0  0  0
   59.8880   34.6110   47.9760 C   0  0  0  0  0  0  0  0  0  0  0  0
   59.4370   35.3030   46.7200 C   0  0  0  0  0  0  0  0  0  0  0  0
   59.6510   34.4680   45.5820 O   0  0  0  0  0  0  0  0  0  0  0  0
   58.9790   33.2660   45.3070 C   0  0  0  0  0  0  0  0  0  0  0  0
   58.4380   33.0910   44.0270 C   0  0  0  0  0  0  0  0  0  0  0  0
   57.7560   31.9170   43.6960 C   0  0  0  0  0  0  0  0  0  0  0  0
   57.6010   30.8990   44.6460 C   0  0  0  0  0  0  0  0  0  0  0  0
   56.7250   29.4250   44.2310 S   0  0  0  0  0  0  0  0  0  0  0  0
   55.3430   29.4890   44.8200 O   0  0  0  0  0  0  0  0  0  0  0  0
   56.5880   29.3320   42.7350 O   0  0  0  0  0  0  0  0  0  0  0  0
   57.5440   28.0020   44.8310 N   0  0  0  0  0  0  0  0  0  0  0  0
   57.0450   27.6520   46.1710 C   0  0  0  0  0  0  0  0  0  0  0  0
   57.4010   26.1950   46.5130 C   0  0  0  0  0  0  0  0  0  0  0  0
   58.8770   25.5660   45.6200 S   0  0  0  0  0  0  0  0  0  0  0  0
   59.7690   27.1550   45.6320 C   0  0  0  0  0  0  0  0  0  0  0  0
   59.0040   28.2300   44.8380 C   0  0  0  0  0  0  0  0  0  0  0  0
   58.1390   31.0670   45.9280 C   0  0  0  0  0  0  0  0  0  0  0  0
   58.8210   32.2410   46.2610 C   0  0  0  0  0  0  0  0  0  0  0  0
   60.9150   33.6060   47.9350 N   0  0  0  0  0  0  0  0  0  0  0  0
   62.1610   33.9650   47.2400 C   0  0  0  0  0  0  0  0  0  0  0  0
   63.0410   32.7400   46.9840 C   0  0  0  0  0  0  0  0  0  0  0  0
   63.2820   31.9810   48.2880 C   0  0  0  0  0  0  0  0  0  0  0  0
   61.9750   31.5920   48.9200 C   0  0  0  0  0  0  0  0  0  0  0  0
   61.9020   30.4420   49.7200 C   0  0  0  0  0  0  0  0  0  0  0  0
   60.6910   30.0630   50.3030 C   0  0  0  0  0  0  0  0  0  0  0  0
   59.5450   30.8260   50.0880 C   0  0  0  0  0  0  0  0  0  0  0  0
   59.6080   31.9840   49.3080 C   0  0  0  0  0  0  0  0  0  0  0  0
   60.8300   32.4020   48.7410 C   0  0  0  0  0  0  0  0  0  0  0  0
   58.3651   35.5364   46.8008 H   0  0  0  0  0  0  0  0  0  0  0  0
   60.0194   36.2279   46.5959 H   0  0  0  0  0  0  0  0  0  0  0  0
   58.5511   33.8856   43.2748 H   0  0  0  0  0  0  0  0  0  0  0  0
   57.3393   31.7917   42.6857 H   0  0  0  0  0  0  0  0  0  0  0  0
   57.5031   28.3210   46.9144 H   0  0  0  0  0  0  0  0  0  0  0  0
   55.9508   27.7642   46.1845 H   0  0  0  0  0  0  0  0  0  0  0  0
   57.5951   26.1295   47.5938 H   0  0  0  0  0  0  0  0  0  0  0  0
   56.5481   25.5742   46.2011 H   0  0  0  0  0  0  0  0  0  0  0  0
   59.8859   27.4928   46.6723 H   0  0  0  0  0  0  0  0  0  0  0  0
   60.7511   27.0063   45.1593 H   0  0  0  0  0  0  0  0  0  0  0  0
   59.2048   29.2119   45.2913 H   0  0  0  0  0  0  0  0  0  0  0  0
   59.3526   28.1845   43.7957 H   0  0  0  0  0  0  0  0  0  0  0  0
   58.0242   30.2702   46.6776 H   0  0  0  0  0  0  0  0  0  0  0  0
   59.2361   32.3652   47.2721 H   0  0  0  0  0  0  0  0  0  0  0  0
   61.9095   34.4307   46.2757 H   0  0  0  0  0  0  0  0  0  0  0  0
   62.7218   34.6615   47.8807 H   0  0  0  0  0  0  0  0  0  0  0  0
   62.5391   32.0761   46.2647 H   0  0  0  0  0  0  0  0  0  0  0  0
   64.0081   33.0716   46.5780 H   0  0  0  0  0  0  0  0  0  0  0  0
   63.8659   31.0732   48.0758 H   0  0  0  0  0  0  0  0  0  0  0  0
   63.8329   32.6326   48.9823 H   0  0  0  0  0  0  0  0  0  0  0  0
   62.8039   29.8353   49.8891 H   0  0  0  0  0  0  0  0  0  0  0  0
   60.6417   29.1620   50.9321 H   0  0  0  0  0  0  0  0  0  0  0  0
   58.5881   30.5161   50.5334 H   0  0  0  0  0  0  0  0  0  0  0  0
   58.6964   32.5747   49.1347 H   0  0  0  0  0  0  0  0  0  0  0  0
  1  2  2  0
  2  3  1  0
  3  4  1  0
  4  5  1  0
  5  6  2  0
  6  7  1  0
  7  8  2  0
  8  9  1  0
  9 10  2  0
  9 11  2  0
  9 12  1  0
 12 13  1  0
 13 14  1  0
 14 15  1  0
 15 16  1  0
 16 17  1  0
  8 18  1  0
 18 19  2  0
  2 20  1  0
 20 21  1  0
 21 22  1  0
 22 23  1  0
 23 24  1  0
 24 25  2  0
 25 26  1  0
 26 27  2  0
 27 28  1  0
 28 29  2  0
 19  5  1  0
 29 20  1  0
 17 12  1  0
 29 24  1  0
  3 30  1  0
  3 31  1  0
  6 32  1  0
  7 33  1  0
 13 34  1  0
 13 35  1  0
 14 36  1  0
 14 37  1  0
 16 38  1  0
 16 39  1  0
 17 40  1  0
 17 41  1  0
 18 42  1  0
 19 43  1  0
 21 44  1  0
 21 45  1  0
 22 46  1  0
 22 47  1  0
 23 48  1  0
 23 49  1  0
 25 50  1  0
 26 51  1  0
 27 52  1  0
 28 53  1  0
M  END
>  <UniqueID>  (17) 
14

>  <SMILES>  (17) 
O=C(COc1ccc(S(=O)(=O)N2CCSCC2)cc1)N1CCCc2ccccc21

>  <Energy>  (17) 
65.62813073397237

>  <Genealogy>  (17) 
O=C(COc1ccc(S(=O)(=O)N2CCSCC2)cc1)N1CCCc2ccccc21 (3D coordinates assigned)
O=C(COc1ccc(S(=O)(=O)N2CCSCC2)cc1)N1CCCc2ccccc21 (nonaromatic ring conformer: 65.62813073397237 kcal/mol)

>  <smiles>  (17) 
O=C(COc1ccc(S(=O)(=O)N2CCSCC2)cc1)N1CCCc2ccccc21

>  <score_type>  (17) 
oracle

>  <origin>  (17) 
adg

>  <m_score__min__energy>  (17) 
-9.2699999999999996

>  <m_primary>  (17) 
energy

$$$$
17:0
     RDKit          3D

 40 41  0  0  0  0  0  0  0  0999 V2000
   59.9050   29.6600   44.8610 C   0  0  0  0  0  0  0  0  0  0  0  0
   58.6670   28.8550   45.1820 C   0  0  0  0  0  0  0  0  0  0  0  0
   57.4360   29.3370   44.7150 C   0  0  0  0  0  0  0  0  0  0  0  0
   56.2690   28.6340   44.9770 C   0  0  0  0  0  0  0  0  0  0  0  0
   55.1640   29.0770   44.5630 O   0  0  0  0  0  0  0  0  0  0  0  0
   56.3240   27.4410   45.6910 C   0  0  0  0  0  0  0  0  0  0  0  0
   55.1440   26.7470   45.9440 O   0  0  0  0  0  0  0  0  0  0  0  0
   57.5660   26.9550   46.1470 C   0  0  0  0  0  0  0  0  0  0  0  0
   57.5940   25.6440   46.9070 C   0  0  0  0  0  0  0  0  0  0  0  0
   58.7180   27.6920   45.9300 N   0  0  0  0  0  0  0  0  0  0  0  0
   60.0190   27.2250   46.4690 C   0  0  0  0  0  0  0  0  0  0  0  0
   60.2380   27.7090   47.8810 C   0  0  0  0  0  0  0  0  0  0  0  0
   59.6600   27.1290   48.8370 O   0  0  0  0  0  0  0  0  0  0  0  0
   61.0490   28.8560   48.1640 N   0  0  0  0  0  0  0  0  0  0  0  0
   60.5940   30.0620   48.8530 C   0  0  0  0  0  0  0  0  0  0  0  0
   61.0840   31.3160   48.1520 C   0  0  0  0  0  0  0  0  0  0  0  0
   62.4730   31.5450   48.0840 C   0  0  0  0  0  0  0  0  0  0  0  0
   62.9840   32.6610   47.4240 C   0  0  0  0  0  0  0  0  0  0  0  0
   62.1200   33.5790   46.8370 C   0  0  0  0  0  0  0  0  0  0  0  0
   60.7400   33.4000   46.9290 C   0  0  0  0  0  0  0  0  0  0  0  0
   60.1960   32.2900   47.6090 C   0  0  0  0  0  0  0  0  0  0  0  0
   58.6880   32.1570   47.7250 C   0  0  0  0  0  0  0  0  0  0  0  0
   58.3130   32.2320   49.0540 F   0  0  0  0  0  0  0  0  0  0  0  0
   58.0680   33.1660   47.0110 F   0  0  0  0  0  0  0  0  0  0  0  0
   58.2400   30.9480   47.2190 F   0  0  0  0  0  0  0  0  0  0  0  0
   60.3901   29.9754   45.7965 H   0  0  0  0  0  0  0  0  0  0  0  0
   60.6026   29.0423   44.2764 H   0  0  0  0  0  0  0  0  0  0  0  0
   59.6234   30.5482   44.2764 H   0  0  0  0  0  0  0  0  0  0  0  0
   57.3954   30.2739   44.1400 H   0  0  0  0  0  0  0  0  0  0  0  0
   57.5897   25.8468   47.9881 H   0  0  0  0  0  0  0  0  0  0  0  0
   56.7084   25.0477   46.6422 H   0  0  0  0  0  0  0  0  0  0  0  0
   58.5043   25.0860   46.6422 H   0  0  0  0  0  0  0  0  0  0  0  0
   60.0349   26.1251   46.4616 H   0  0  0  0  0  0  0  0  0  0  0  0
   60.8211   27.6324   45.8361 H   0  0  0  0  0  0  0  0  0  0  0  0
   59.4942   30.0695   48.8735 H   0  0  0  0  0  0  0  0  0  0  0  0
   61.0024   30.0532   49.8743 H   0  0  0  0  0  0  0  0  0  0  0  0
   63.1637   30.8326   48.5587 H   0  0  0  0  0  0  0  0  0  0  0  0
   64.0716   32.8158   47.3673 H   0  0  0  0  0  0  0  0  0  0  0  0
   62.5259   34.4483   46.2989 H   0  0  0  0  0  0  0  0  0  0  0  0
   60.0659   34.1349   46.4647 H   0  0  0  0  0  0  0  0  0  0  0  0
  1  2  1  0
  2  3  2  0
  3  4  1  0
  4  5  2  0
  4  6  1  0
  6  7  1  0
  6  8  2  0
  8  9  1  0
  8 10  1  0
 10 11  1  0
 11 12  1  0
 12 13  2  0
 12 14  1  0
 14 15  1  0
 15 16  1  0
 16 17  2  0
 17 18  1  0
 18 19  2  0
 19 20  1  0
 20 21  2  0
 21 22  1  0
 22 23  1  0
 22 24  1  0
 22 25  1  0
 10  2  1  0
 21 16  1  0
  1 26  1  0
  1 27  1  0
  1 28  1  0
  3 29  1  0
  9 30  1  0
  9 31  1  0
  9 32  1  0
 11 33  1  0
 11 34  1  0
 15 35  1  0
 15 36  1  0
 17 37  1  0
 18 38  1  0
 19 39  1  0
 20 40  1  0
M  CHG  2   7  -1  14  -1
M  END
>  <UniqueID>  (18) 
15

>  <SMILES>  (18) 
Cc1cc(=O)c([O-])c(C)n1CC(=O)[N-]Cc1ccccc1C(F)(F)F

>  <Energy>  (18) 
48.71047404563707

>  <Genealogy>  (18) 
Cc1cc(=O)c([O-])c(C)n1CC(=O)[N-]Cc1ccccc1C(F)(F)F (protonated)
Cc1cc(=O)c([O-])c(C)n1CC(=O)[N-]Cc1ccccc1C(F)(F)F (3D coordinates assigned)
Cc1cc(=O)c([O-])c(C)n1CC(=O)[N-]Cc1ccccc1C(F)(F)F (optimized conformer: 48.71047404563707 kcal/mol)

>  <smiles>  (18) 
Cc1cc(=O)c(O)c(C)n1CC(=O)NCc1ccccc1C(F)(F)F

>  <score_type>  (18) 
oracle

>  <origin>  (18) 
adg

>  <m_score__min__energy>  (18) 
-11.779999999999999

>  <m_primary>  (18) 
energy

$$$$
18:0
     RDKit          3D

 38 39  0  0  0  0  0  0  0  0999 V2000
   58.6570   32.1200   48.3450 C   0  0  0  0  0  0  0  0  0  0  0  0
   59.1410   30.7860   47.8610 C   0  0  0  0  0  0  0  0  0  0  0  0
   59.1580   29.6860   48.7310 C   0  0  0  0  0  0  0  0  0  0  0  0
   59.5850   28.4340   48.2780 C   0  0  0  0  0  0  0  0  0  0  0  0
   60.0110   28.2680   46.9480 C   0  0  0  0  0  0  0  0  0  0  0  0
   60.4780   27.0420   46.4440 O   0  0  0  0  0  0  0  0  0  0  0  0
   59.6660   25.9490   46.0140 C   0  0  0  0  0  0  0  0  0  0  0  0
   58.5220   25.6930   47.0020 C   0  0  0  0  0  0  0  0  0  0  0  0
   57.2650   25.5120   46.2830 N   0  0  0  0  0  0  0  0  0  0  0  0
   56.3420   26.5570   45.9620 C   0  0  0  0  0  0  0  0  0  0  0  0
   55.1080   26.3410   46.0930 O   0  0  0  0  0  0  0  0  0  0  0  0
   56.8000   27.8760   45.4110 C   0  0  0  0  0  0  0  0  0  0  0  0
   55.6600   28.7710   45.2390 N   0  0  0  0  0  0  0  0  0  0  0  0
   55.5470   29.7160   44.1710 C   0  0  0  0  0  0  0  0  0  0  0  0
   54.6160   29.6180   43.3260 O   0  0  0  0  0  0  0  0  0  0  0  0
   56.5270   30.8010   44.0610 C   0  0  0  0  0  0  0  0  0  0  0  0
   57.3930   31.0110   43.0040 C   0  0  0  0  0  0  0  0  0  0  0  0
   58.1250   32.1310   43.3400 C   0  0  0  0  0  0  0  0  0  0  0  0
   57.6600   32.5260   44.5760 C   0  0  0  0  0  0  0  0  0  0  0  0
   58.3000   34.0160   45.5780 Br  0  0  0  0  0  0  0  0  0  0  0  0
   56.7080   31.7190   44.9830 O   0  0  0  0  0  0  0  0  0  0  0  0
   59.9580   29.3610   46.0740 C   0  0  0  0  0  0  0  0  0  0  0  0
   59.5180   30.6090   46.5220 C   0  0  0  0  0  0  0  0  0  0  0  0
   58.6528   32.1315   49.4449 H   0  0  0  0  0  0  0  0  0  0  0  0
   59.3258   32.9099   47.9726 H   0  0  0  0  0  0  0  0  0  0  0  0
   57.6373   32.2973   47.9726 H   0  0  0  0  0  0  0  0  0  0  0  0
   58.8338   29.8089   49.7749 H   0  0  0  0  0  0  0  0  0  0  0  0
   59.5877   27.5749   48.9650 H   0  0  0  0  0  0  0  0  0  0  0  0
   59.2426   26.1822   45.0259 H   0  0  0  0  0  0  0  0  0  0  0  0
   60.2924   25.0463   45.9613 H   0  0  0  0  0  0  0  0  0  0  0  0
   58.7412   24.7859   47.5843 H   0  0  0  0  0  0  0  0  0  0  0  0
   58.4289   26.5583   47.6747 H   0  0  0  0  0  0  0  0  0  0  0  0
   57.5184   28.3318   46.1082 H   0  0  0  0  0  0  0  0  0  0  0  0
   57.2789   27.7114   44.4345 H   0  0  0  0  0  0  0  0  0  0  0  0
   57.4802   30.4104   42.0866 H   0  0  0  0  0  0  0  0  0  0  0  0
   58.9163   32.6099   42.7446 H   0  0  0  0  0  0  0  0  0  0  0  0
   60.2656   29.2357   45.0253 H   0  0  0  0  0  0  0  0  0  0  0  0
   59.4671   31.4559   45.8218 H   0  0  0  0  0  0  0  0  0  0  0  0
  1  2  1  0
  2  3  2  0
  3  4  1  0
  4  5  2  0
  5  6  1  0
  6  7  1  0
  7  8  1  0
  8  9  1  0
  9 10  1  0
 10 11  2  0
 10 12  1  0
 12 13  1  0
 13 14  1  0
 14 15  2  0
 14 16  1  0
 16 17  2  0
 17 18  1  0
 18 19  2  0
 19 20  1  0
 19 21  1  0
  5 22  1  0
 22 23  2  0
 23  2  1  0
 21 16  1  0
  1 24  1  0
  1 25  1  0
  1 26  1  0
  3 27  1  0
  4 28  1  0
  7 29  1  0
  7 30  1  0
  8 31  1  0
  8 32  1  0
 12 33  1  0
 12 34  1  0
 17 35  1  0
 18 36  1  0
 22 37  1  0
 23 38  1  0
M  CHG  2   9  -1  13  -1
M  END
>  <UniqueID>  (19) 
16

>  <SMILES>  (19) 
Cc1ccc(OCC[N-]C(=O)C[N-]C(=O)c2ccc(Br)o2)cc1

>  <Energy>  (19) 
53.343049722584205

>  <Genealogy>  (19) 
Cc1ccc(OCC[N-]C(=O)C[N-]C(=O)c2ccc(Br)o2)cc1 (protonated)
Cc1ccc(OCC[N-]C(=O)C[N-]C(=O)c2ccc(Br)o2)cc1 (3D coordinates assigned)
Cc1ccc(OCC[N-]C(=O)C[N-]C(=O)c2ccc(Br)o2)cc1 (optimized conformer: 53.343049722584205 kcal/mol)

>  <smiles>  (19) 
Cc1ccc(OCCNC(=O)CNC(=O)c2ccc(Br)o2)cc1

>  <score_type>  (19) 
oracle

>  <origin>  (19) 
adg

>  <m_score__min__energy>  (19) 
-11.789999999999999

>  <m_primary>  (19) 
energy

$$$$
19:0
     RDKit          3D

 49 52  0  0  0  0  0  0  0  0999 V2000
   56.5890   29.3860   44.0980 C   0  0  0  0  0  0  0  0  0  0  0  0
   57.7050   29.0860   44.7800 C   0  0  0  0  0  0  0  0  0  0  0  0
   58.1620   27.8050   45.0990 C   0  0  0  0  0  0  0  0  0  0  0  0
   57.6120   26.6260   44.7500 C   0  0  0  0  0  0  0  0  0  0  0  0
   57.2600   25.5780   45.7320 C   0  0  0  0  0  0  0  0  0  0  0  0
   55.9700   25.4800   46.2990 C   0  0  0  0  0  0  0  0  0  0  0  0
   54.9370   26.3460   45.9380 O   0  0  0  0  0  0  0  0  0  0  0  0
   55.7110   24.5050   47.2090 N   0  0  0  0  0  0  0  0  0  0  0  0
   56.6600   23.6060   47.5700 C   0  0  0  0  0  0  0  0  0  0  0  0
   56.3910   22.7150   48.4170 O   0  0  0  0  0  0  0  0  0  0  0  0
   57.8970   23.6610   47.0160 N   0  0  0  0  0  0  0  0  0  0  0  0
   58.2150   24.6180   46.1060 C   0  0  0  0  0  0  0  0  0  0  0  0
   59.3750   24.6390   45.6130 O   0  0  0  0  0  0  0  0  0  0  0  0
   59.3220   27.9760   45.8450 C   0  0  0  0  0  0  0  0  0  0  0  0
   59.5280   29.3370   45.9460 C   0  0  0  0  0  0  0  0  0  0  0  0
   60.6700   29.9720   46.6800 C   0  0  0  0  0  0  0  0  0  0  0  0
   58.5470   30.0130   45.3060 N   0  0  0  0  0  0  0  0  0  0  0  0
   58.4430   31.4430   45.2010 C   0  0  0  0  0  0  0  0  0  0  0  0
   57.8640   32.0270   44.0670 C   0  0  0  0  0  0  0  0  0  0  0  0
   57.7750   33.4160   43.9590 C   0  0  0  0  0  0  0  0  0  0  0  0
   58.2680   34.2320   44.9800 C   0  0  0  0  0  0  0  0  0  0  0  0
   58.8580   33.6650   46.1250 C   0  0  0  0  0  0  0  0  0  0  0  0
   59.3810   34.5300   47.2090 C   0  0  0  0  0  0  0  0  0  0  0  0
   59.2590   35.7820   47.1270 O   0  0  0  0  0  0  0  0  0  0  0  0
   60.0750   33.9460   48.3210 N   0  0  0  0  0  0  0  0  0  0  0  0
   61.4720   33.6270   48.3860 C   0  0  0  0  0  0  0  0  0  0  0  0
   62.2140   33.2770   47.2420 C   0  0  0  0  0  0  0  0  0  0  0  0
   63.5800   32.9970   47.3490 C   0  0  0  0  0  0  0  0  0  0  0  0
   64.2180   33.0770   48.5900 C   0  0  0  0  0  0  0  0  0  0  0  0
   63.4930   33.4470   49.7250 C   0  0  0  0  0  0  0  0  0  0  0  0
   62.1260   33.7290   49.6220 C   0  0  0  0  0  0  0  0  0  0  0  0
   58.9400   32.2640   46.2250 C   0  0  0  0  0  0  0  0  0  0  0  0
   56.3282   30.4371   43.9050 H   0  0  0  0  0  0  0  0  0  0  0  0
   55.9350   28.5809   43.7320 H   0  0  0  0  0  0  0  0  0  0  0  0
   57.4156   26.4338   43.6849 H   0  0  0  0  0  0  0  0  0  0  0  0
   54.0290   26.3360   46.3860 H   0  0  0  0  0  0  0  0  0  0  0  0
   59.9526   27.1820   46.2715 H   0  0  0  0  0  0  0  0  0  0  0  0
   60.5055   29.8805   47.7638 H   0  0  0  0  0  0  0  0  0  0  0  0
   61.6078   29.4658   46.4075 H   0  0  0  0  0  0  0  0  0  0  0  0
   60.7349   31.0357   46.4075 H   0  0  0  0  0  0  0  0  0  0  0  0
   57.4780   31.3887   43.2586 H   0  0  0  0  0  0  0  0  0  0  0  0
   57.3157   33.8689   43.0680 H   0  0  0  0  0  0  0  0  0  0  0  0
   58.1945   35.3257   44.8884 H   0  0  0  0  0  0  0  0  0  0  0  0
   61.7181   33.2236   46.2616 H   0  0  0  0  0  0  0  0  0  0  0  0
   64.1537   32.7131   46.4544 H   0  0  0  0  0  0  0  0  0  0  0  0
   65.2908   32.8486   48.6728 H   0  0  0  0  0  0  0  0  0  0  0  0
   63.9967   33.5168   50.7004 H   0  0  0  0  0  0  0  0  0  0  0  0
   61.5614   34.0324   50.5160 H   0  0  0  0  0  0  0  0  0  0  0  0
   59.3983   31.8076   47.1147 H   0  0  0  0  0  0  0  0  0  0  0  0
  1  2  2  0
  2  3  1  0
  3  4  2  3
  4  5  1  0
  5  6  2  0
  6  7  1  0
  6  8  1  0
  8  9  1  0
  9 10  2  0
  9 11  1  0
 11 12  1  0
 12 13  2  0
  3 14  1  0
 14 15  2  0
 15 16  1  0
 15 17  1  0
 17 18  1  0
 18 19  2  0
 19 20  1  0
 20 21  2  0
 21 22  1  0
 22 23  1  0
 23 24  2  0
 23 25  1  0
 25 26  1  0
 26 27  2  0
 27 28  1  0
 28 29  2  0
 29 30  1  0
 30 31  2  0
 22 32  2  0
 17  2  1  0
 32 18  1  0
 12  5  1  0
 31 26  1  0
  1 33  1  0
  1 34  1  0
  4 35  1  0
  7 36  1  0
 14 37  1  0
 16 38  1  0
 16 39  1  0
 16 40  1  0
 19 41  1  0
 20 42  1  0
 21 43  1  0
 27 44  1  0
 28 45  1  0
 29 46  1  0
 30 47  1  0
 31 48  1  0
 32 49  1  0
M  CHG  3   8  -1  11  -1  25  -1
M  END
>  <UniqueID>  (20) 
17

>  <SMILES>  (20) 
C=c1c(=Cc2c(O)[n-]c(=O)[n-]c2=O)cc(C)n1-c1cccc(C(=O)[N-]c2ccccc2)c1

>  <Energy>  (20) 
103.50013325072756

>  <Genealogy>  (20) 
C=c1c(=Cc2c(O)[n-]c(=O)[n-]c2=O)cc(C)n1-c1cccc(C(=O)[N-]c2ccccc2)c1 (protonated)
C=c1c(=Cc2c(O)[n-]c(=O)[n-]c2=O)cc(C)n1-c1cccc(C(=O)[N-]c2ccccc2)c1 (3D coordinates assigned)
C=c1c(=Cc2c(O)[n-]c(=O)[n-]c2=O)cc(C)n1-c1cccc(C(=O)[N-]c2ccccc2)c1 (optimized conformer: 103.50013325072756 kcal/mol)

>  <smiles>  (20) 
C=c1c(=Cc2c(O)[nH]c(=O)[nH]c2=O)cc(C)n1-c1cccc(C(=O)Nc2ccccc2)c1

>  <score_type>  (20) 
oracle

>  <origin>  (20) 
adg

>  <m_score__min__energy>  (20) 
-15.6

>  <m_primary>  (20) 
energy

$$$$
20:0
     RDKit          3D

 46 48  0  0  0  0  0  0  0  0999 V2000
   56.1630   23.9910   43.3730 C   0  0  0  0  0  0  0  0  0  0  0  0
   56.5780   22.9890   44.1470 C   0  0  0  0  0  0  0  0  0  0  0  0
   56.7300   21.5970   43.7430 C   0  0  0  0  0  0  0  0  0  0  0  0
   56.4780   21.1220   42.6050 O   0  0  0  0  0  0  0  0  0  0  0  0
   57.2010   20.8240   44.8390 N   0  0  0  0  0  0  0  0  0  0  0  0
   57.3220   21.7670   45.9000 C   0  0  0  0  0  0  0  0  0  0  0  0
   57.7010   21.4500   47.0580 O   0  0  0  0  0  0  0  0  0  0  0  0
   56.9650   23.1020   45.5210 N   0  0  0  0  0  0  0  0  0  0  0  0
   56.6820   24.2070   46.4380 C   0  0  0  0  0  0  0  0  0  0  0  0
   57.4760   25.4320   46.0540 C   0  0  0  0  0  0  0  0  0  0  0  0
   56.8040   26.6230   45.7290 C   0  0  0  0  0  0  0  0  0  0  0  0
   57.5190   27.7730   45.3560 C   0  0  0  0  0  0  0  0  0  0  0  0
   56.7920   29.0120   44.9960 C   0  0  0  0  0  0  0  0  0  0  0  0
   55.5360   28.9760   44.8910 O   0  0  0  0  0  0  0  0  0  0  0  0
   57.4850   30.2540   44.7590 N   0  0  0  0  0  0  0  0  0  0  0  0
   58.6730   30.6170   45.5490 C   0  0  0  0  0  0  0  0  0  0  0  0
   58.6020   32.0950   45.9400 C   0  0  0  0  0  0  0  0  0  0  0  0
   58.5110   33.0270   44.7030 C   0  0  0  0  0  0  0  0  0  0  0  0
   57.7320   34.3070   45.0570 C   0  0  0  0  0  0  0  0  0  0  0  0
   56.6410   34.0050   45.8880 O   0  0  0  0  0  0  0  0  0  0  0  0
   57.9170   32.3160   43.4570 C   0  0  0  0  0  0  0  0  0  0  0  0
   56.8990   31.2310   43.8300 C   0  0  0  0  0  0  0  0  0  0  0  0
   58.9200   27.7170   45.2900 C   0  0  0  0  0  0  0  0  0  0  0  0
   59.5950   26.5410   45.6220 C   0  0  0  0  0  0  0  0  0  0  0  0
   58.8830   25.4030   46.0070 C   0  0  0  0  0  0  0  0  0  0  0  0
   59.5680   24.2780   46.3340 F   0  0  0  0  0  0  0  0  0  0  0  0
   56.0853   25.0081   43.7846 H   0  0  0  0  0  0  0  0  0  0  0  0
   55.8980   23.8011   42.3224 H   0  0  0  0  0  0  0  0  0  0  0  0
   57.3880   19.7970   44.8670 H   0  0  0  0  0  0  0  0  0  0  0  0
   55.6087   24.4445   46.3977 H   0  0  0  0  0  0  0  0  0  0  0  0
   56.9666   23.9046   47.4566 H   0  0  0  0  0  0  0  0  0  0  0  0
   55.7051   26.6548   45.7672 H   0  0  0  0  0  0  0  0  0  0  0  0
   58.7095   29.9997   46.4587 H   0  0  0  0  0  0  0  0  0  0  0  0
   59.5772   30.4429   44.9472 H   0  0  0  0  0  0  0  0  0  0  0  0
   57.7127   32.2526   46.5679 H   0  0  0  0  0  0  0  0  0  0  0  0
   59.5258   32.3446   46.4825 H   0  0  0  0  0  0  0  0  0  0  0  0
   59.5375   33.3081   44.4250 H   0  0  0  0  0  0  0  0  0  0  0  0
   58.4021   35.0058   45.5791 H   0  0  0  0  0  0  0  0  0  0  0  0
   57.3567   34.7631   44.1290 H   0  0  0  0  0  0  0  0  0  0  0  0
   55.9620   34.7160   45.7510 H   0  0  0  0  0  0  0  0  0  0  0  0
   57.4176   33.0668   42.8270 H   0  0  0  0  0  0  0  0  0  0  0  0
   58.7460   31.8277   42.9237 H   0  0  0  0  0  0  0  0  0  0  0  0
   56.0283   31.7040   44.3078 H   0  0  0  0  0  0  0  0  0  0  0  0
   56.5972   30.7042   42.9127 H   0  0  0  0  0  0  0  0  0  0  0  0
   59.4889   28.6042   44.9751 H   0  0  0  0  0  0  0  0  0  0  0  0
   60.6938   26.5106   45.5801 H   0  0  0  0  0  0  0  0  0  0  0  0
  1  2  2  0
  2  3  1  0
  3  4  2  0
  3  5  1  0
  5  6  1  0
  6  7  2  0
  6  8  1  0
  8  9  1  0
  9 10  1  0
 10 11  2  0
 11 12  1  0
 12 13  1  0
 13 14  2  0
 13 15  1  0
 15 16  1  0
 16 17  1  0
 17 18  1  0
 18 19  1  0
 19 20  1  0
 18 21  1  0
 21 22  1  0
 12 23  2  0
 23 24  1  0
 24 25  2  0
 25 26  1  0
  8  2  1  0
 25 10  1  0
 22 15  1  0
  1 27  1  0
  1 28  1  0
  5 29  1  0
  9 30  1  0
  9 31  1  0
 11 32  1  0
 16 33  1  0
 16 34  1  0
 17 35  1  0
 17 36  1  0
 18 37  1  0
 19 38  1  0
 19 39  1  0
 20 40  1  0
 21 41  1  0
 21 42  1  0
 22 43  1  0
 22 44  1  0
 23 45  1  0
 24 46  1  0
M  END
>  <UniqueID>  (21) 
18

>  <SMILES>  (21) 
C=C1C(=O)NC(=O)N1Cc1cc(C(=O)N2CCC(CO)CC2)ccc1F

>  <Energy>  (21) 
79.81027165374542

>  <Genealogy>  (21) 
C=C1C(=O)NC(=O)N1Cc1cc(C(=O)N2CCC(CO)CC2)ccc1F (3D coordinates assigned)
C=C1C(=O)NC(=O)N1Cc1cc(C(=O)N2CCC(CO)CC2)ccc1F (nonaromatic ring conformer: 79.81027165374542 kcal/mol)

>  <smiles>  (21) 
C=C1C(=O)NC(=O)N1Cc1cc(C(=O)N2CCC(CO)CC2)ccc1F

>  <score_type>  (21) 
oracle

>  <origin>  (21) 
adg

>  <m_score__min__energy>  (21) 
-8.9499999999999993

>  <m_primary>  (21) 
energy

$$$$
21:0
     RDKit          3D

 51 53  0  0  0  0  0  0  0  0999 V2000
   62.3960   34.1330   46.3790 C   0  0  0  0  0  0  0  0  0  0  0  0
   61.8320   33.1150   47.2570 N   0  0  0  0  0  0  0  0  0  0  0  0
   62.5310   31.8910   47.5350 C   0  0  0  0  0  0  0  0  0  0  0  0
   63.5620   31.6050   46.8640 O   0  0  0  0  0  0  0  0  0  0  0  0
   62.0630   30.9480   48.5830 C   0  0  0  0  0  0  0  0  0  0  0  0
   60.9220   30.1460   48.3940 C   0  0  0  0  0  0  0  0  0  0  0  0
   60.4960   29.2680   49.3940 C   0  0  0  0  0  0  0  0  0  0  0  0
   61.1900   29.1830   50.6090 C   0  0  0  0  0  0  0  0  0  0  0  0
   60.6700   28.2970   51.7110 C   0  0  0  0  0  0  0  0  0  0  0  0
   60.1420   29.1250   52.7880 N   0  0  0  0  0  0  0  0  0  0  0  0
   58.9320   29.8730   52.6650 C   0  0  0  0  0  0  0  0  0  0  0  0
   57.8170   29.2850   52.6460 O   0  0  0  0  0  0  0  0  0  0  0  0
   58.9890   31.3670   52.6990 C   0  0  0  0  0  0  0  0  0  0  0  0
   59.0090   31.8750   51.3150 N   0  0  0  0  0  0  0  0  0  0  0  0
   57.9130   31.7220   50.5050 C   0  0  0  0  0  0  0  0  0  0  0  0
   56.9160   31.0520   50.8860 O   0  0  0  0  0  0  0  0  0  0  0  0
   57.8830   32.3060   49.2820 N   0  0  0  0  0  0  0  0  0  0  0  0
   58.9210   33.0620   48.8460 C   0  0  0  0  0  0  0  0  0  0  0  0
   58.8990   33.6440   47.6830 N   0  0  0  0  0  0  0  0  0  0  0  0
   58.5060   33.0830   46.4170 C   0  0  0  0  0  0  0  0  0  0  0  0
   58.6000   33.7980   45.2080 C   0  0  0  0  0  0  0  0  0  0  0  0
   58.2460   33.1910   44.0000 C   0  0  0  0  0  0  0  0  0  0  0  0
   57.8180   31.8620   43.9820 C   0  0  0  0  0  0  0  0  0  0  0  0
   57.7570   31.1270   45.1730 C   0  0  0  0  0  0  0  0  0  0  0  0
   57.2370   29.4460   45.1510 S   0  0  0  0  0  0  0  0  0  0  0  0
   55.5210   29.3750   44.9600 N   0  0  0  0  0  0  0  0  0  0  0  0
   57.8950   28.7230   44.0100 O   0  0  0  0  0  0  0  0  0  0  0  0
   57.6280   28.7740   46.4360 O   0  0  0  0  0  0  0  0  0  0  0  0
   58.1010   31.7410   46.3850 C   0  0  0  0  0  0  0  0  0  0  0  0
   60.0150   33.1980   49.6320 N   0  0  0  0  0  0  0  0  0  0  0  0
   60.0660   32.6200   50.8570 C   0  0  0  0  0  0  0  0  0  0  0  0
   61.0920   32.7930   51.5710 O   0  0  0  0  0  0  0  0  0  0  0  0
   62.3140   29.9950   50.8140 C   0  0  0  0  0  0  0  0  0  0  0  0
   62.7490   30.8650   49.8100 C   0  0  0  0  0  0  0  0  0  0  0  0
   62.8405   34.9354   46.9861 H   0  0  0  0  0  0  0  0  0  0  0  0
   63.1721   33.6806   45.7442 H   0  0  0  0  0  0  0  0  0  0  0  0
   61.6009   34.5511   45.7442 H   0  0  0  0  0  0  0  0  0  0  0  0
   60.8750   33.2780   47.6390 H   0  0  0  0  0  0  0  0  0  0  0  0
   60.3604   30.2110   47.4504 H   0  0  0  0  0  0  0  0  0  0  0  0
   59.6094   28.6388   49.2266 H   0  0  0  0  0  0  0  0  0  0  0  0
   59.8701   27.6525   51.3174 H   0  0  0  0  0  0  0  0  0  0  0  0
   61.4879   27.6703   52.0960 H   0  0  0  0  0  0  0  0  0  0  0  0
   58.1049   31.7586   53.2235 H   0  0  0  0  0  0  0  0  0  0  0  0
   59.8956   31.6937   53.2294 H   0  0  0  0  0  0  0  0  0  0  0  0
   58.9538   34.8395   45.2142 H   0  0  0  0  0  0  0  0  0  0  0  0
   58.3047   33.7614   43.0613 H   0  0  0  0  0  0  0  0  0  0  0  0
   57.5282   31.3914   43.0309 H   0  0  0  0  0  0  0  0  0  0  0  0
   55.1710   28.6430   45.6190 H   0  0  0  0  0  0  0  0  0  0  0  0
   58.0528   31.1643   47.3205 H   0  0  0  0  0  0  0  0  0  0  0  0
   62.8565   29.9474   51.7697 H   0  0  0  0  0  0  0  0  0  0  0  0
   63.6369   31.4916   49.9803 H   0  0  0  0  0  0  0  0  0  0  0  0
  1  2  1  0
  2  3  1  0
  3  4  2  0
  3  5  1  0
  5  6  2  0
  6  7  1  0
  7  8  2  0
  8  9  1  0
  9 10  1  0
 10 11  1  0
 11 12  2  0
 11 13  1  0
 13 14  1  0
 14 15  1  0
 15 16  2  0
 15 17  1  0
 17 18  1  0
 18 19  2  3
 19 20  1  0
 20 21  2  0
 21 22  1  0
 22 23  2  0
 23 24  1  0
 24 25  1  0
 25 26  1  0
 25 27  2  0
 25 28  2  0
 24 29  2  0
 18 30  1  0
 30 31  1  0
 31 32  2  0
  8 33  1  0
 33 34  2  0
 34  5  1  0
 31 14  1  0
 29 20  1  0
  1 35  1  0
  1 36  1  0
  1 37  1  0
  2 38  1  0
  6 39  1  0
  7 40  1  0
  9 41  1  0
  9 42  1  0
 13 43  1  0
 13 44  1  0
 21 45  1  0
 22 46  1  0
 23 47  1  0
 26 48  1  0
 29 49  1  0
 33 50  1  0
 34 51  1  0
M  CHG  4  10  -1  17  -1  26  -1  30  -1
M  END
>  <UniqueID>  (22) 
19

>  <SMILES>  (22) 
CNC(=O)c1ccc(C[N-]C(=O)Cn2c(=O)[n-]c(=Nc3cccc(S([NH-])(=O)=O)c3)[n-]c2=O)cc1

>  <Energy>  (22) 
54.547203038067664

>  <Genealogy>  (22) 
CNC(=O)c1ccc(C[N-]C(=O)Cn2c(=O)[n-]c(=Nc3cccc(S([NH-])(=O)=O)c3)[n-]c2=O)cc1 (protonated)
CNC(=O)c1ccc(C[N-]C(=O)Cn2c(=O)[n-]c(=Nc3cccc(S([NH-])(=O)=O)c3)[n-]c2=O)cc1 (3D coordinates assigned)
CNC(=O)c1ccc(C[N-]C(=O)Cn2c(=O)[n-]c(=Nc3cccc(S([NH-])(=O)=O)c3)[n-]c2=O)cc1 (optimized conformer: 54.547203038067664 kcal/mol)

>  <smiles>  (22) 
CNC(=O)c1ccc(CNC(=O)Cn2c(=O)[nH]c(=Nc3cccc(S(N)(=O)=O)c3)[nH]c2=O)cc1

>  <score_type>  (22) 
oracle

>  <origin>  (22) 
adg

>  <m_score__min__energy>  (22) 
-14.970000000000001

>  <m_primary>  (22) 
energy

$$$$
22:0
     RDKit          3D

 37 40  0  0  0  0  0  0  0  0999 V2000
   54.0497   23.8359   45.0862 H   0  0  0  0  0  0  0  0  0  0  0  0
   55.0930   24.1130   45.2980 C   0  0  0  0  0  0  0  0  0  0  0  0
   56.0940   23.2070   45.0960 N   0  0  0  0  0  0  0  0  0  0  0  0
   57.3630   23.5870   45.3700 C   0  0  0  0  0  0  0  0  0  0  0  0
   58.7850   22.7420   45.2280 S   0  0  0  0  0  0  0  0  0  0  0  0
   59.8340   23.9360   45.7520 N   0  0  0  0  0  0  0  0  0  0  0  0
   59.0560   25.0200   46.0540 C   0  0  0  0  0  0  0  0  0  0  0  0
   59.5440   26.1510   46.4710 N   0  0  0  0  0  0  0  0  0  0  0  0
   59.4500   27.4160   45.8010 C   0  0  0  0  0  0  0  0  0  0  0  0
   60.5020   28.0830   45.6180 O   0  0  0  0  0  0  0  0  0  0  0  0
   58.2020   27.8820   45.2580 N   0  0  0  0  0  0  0  0  0  0  0  0
   57.5070   27.1660   44.9510 H   0  0  0  0  0  0  0  0  0  0  0  0
   57.9300   29.2630   44.9620 C   0  0  0  0  0  0  0  0  0  0  0  0
   57.3100   29.6000   43.7500 C   0  0  0  0  0  0  0  0  0  0  0  0
   57.0560   28.8100   43.0279 H   0  0  0  0  0  0  0  0  0  0  0  0
   57.0130   30.9320   43.4540 C   0  0  0  0  0  0  0  0  0  0  0  0
   56.5285   31.1874   42.5001 H   0  0  0  0  0  0  0  0  0  0  0  0
   57.3300   31.9410   44.3670 C   0  0  0  0  0  0  0  0  0  0  0  0
   57.0931   32.9885   44.1290 H   0  0  0  0  0  0  0  0  0  0  0  0
   57.9470   31.6260   45.5820 C   0  0  0  0  0  0  0  0  0  0  0  0
   58.2300   32.6630   46.4830 O   0  0  0  0  0  0  0  0  0  0  0  0
   59.4080   32.7880   47.2340 C   0  0  0  0  0  0  0  0  0  0  0  0
   59.3640   32.5440   48.6100 C   0  0  0  0  0  0  0  0  0  0  0  0
   58.4155   32.2512   49.0839 H   0  0  0  0  0  0  0  0  0  0  0  0
   60.4890   32.6670   49.3660 N   0  0  0  0  0  0  0  0  0  0  0  0
   61.6790   33.0380   48.8230 C   0  0  0  0  0  0  0  0  0  0  0  0
   62.5721   33.1218   49.4597 H   0  0  0  0  0  0  0  0  0  0  0  0
   61.7670   33.3130   47.4550 C   0  0  0  0  0  0  0  0  0  0  0  0
   63.2930   33.8080   46.7460 Cl  0  0  0  0  0  0  0  0  0  0  0  0
   60.6250   33.1950   46.6600 C   0  0  0  0  0  0  0  0  0  0  0  0
   60.6777   33.4205   45.5847 H   0  0  0  0  0  0  0  0  0  0  0  0
   58.2220   30.2810   45.8890 C   0  0  0  0  0  0  0  0  0  0  0  0
   58.6685   30.0230   46.8606 H   0  0  0  0  0  0  0  0  0  0  0  0
   57.6760   24.8390   45.8380 C   0  0  0  0  0  0  0  0  0  0  0  0
   56.6950   25.7530   46.0430 N   0  0  0  0  0  0  0  0  0  0  0  0
   55.3970   25.4090   45.7800 C   0  0  0  0  0  0  0  0  0  0  0  0
   54.3810   26.3320   45.9850 O   0  0  0  0  0  0  0  0  0  0  0  0
  1  2  1  0
  2  3  2  0
  3  4  1  0
  4  5  1  0
  5  6  1  0
  6  7  1  0
  7  8  2  0
  8  9  1  0
  9 10  2  0
  9 11  1  0
 11 12  1  0
 11 13  1  0
 13 14  2  0
 14 15  1  0
 14 16  1  0
 16 17  1  0
 16 18  2  0
 18 19  1  0
 18 20  1  0
 20 21  1  0
 21 22  1  0
 22 23  2  0
 23 24  1  0
 23 25  1  0
 25 26  2  0
 26 27  1  0
 26 28  1  0
 28 29  1  0
 28 30  2  0
 30 31  1  0
 20 32  2  0
 32 33  1  0
  7 34  1  0
 34 35  1  0
 35 36  2  0
 36 37  1  0
 36  2  1  0
 34  4  2  0
 32 13  1  0
 30 22  1  0
M  CHG  2   6  -1  37  -1
M  END
>  <UniqueID>  (23) 
20

>  <SMILES>  (23) 
O=C(/N=c1\[n-]sc2ncc([O-])nc12)Nc1cccc(Oc2cncc(Cl)c2)c1

>  <Energy>  (23) 
98.73182265494626

>  <Genealogy>  (23) 
O=C(N=c1[n-]sc2ncc([O-])nc12)Nc1cccc(Oc2cncc(Cl)c2)c1 (protonated)
O=C(/N=c1\[n-]sc2ncc([O-])nc12)Nc1cccc(Oc2cncc(Cl)c2)c1 (cis-trans isomerization)
O=C(/N=c1\[n-]sc2ncc([O-])nc12)Nc1cccc(Oc2cncc(Cl)c2)c1 (3D coordinates assigned)
O=C(/N=c1\[n-]sc2ncc([O-])nc12)Nc1cccc(Oc2cncc(Cl)c2)c1 (optimized conformer: 98.73182265494626 kcal/mol)

>  <smiles>  (23) 
O=C(N=c1[nH]sc2ncc(O)nc12)Nc1cccc(Oc2cncc(Cl)c2)c1

>  <score_type>  (23) 
oracle

>  <origin>  (23) 
adg

>  <m_score__min__energy>  (23) 
-13.1

>  <m_primary>  (23) 
energy

$$$$
23:0
     RDKit          3D

 49 51  0  0  0  0  0  0  0  0999 V2000
   56.8620   24.7590   44.0030 N   0  0  0  0  0  0  0  0  0  0  0  0
   56.4850   23.4180   43.6820 C   0  0  0  0  0  0  0  0  0  0  0  0
   55.9350   23.1830   42.5730 O   0  0  0  0  0  0  0  0  0  0  0  0
   56.7150   22.3150   44.6420 C   0  0  0  0  0  0  0  0  0  0  0  0
   56.6420   20.9580   44.2780 C   0  0  0  0  0  0  0  0  0  0  0  0
   57.0060   20.0820   45.2940 C   0  0  0  0  0  0  0  0  0  0  0  0
   57.4240   20.9790   46.6530 S   0  0  0  0  0  0  0  0  0  0  0  0
   57.1250   22.4820   45.9690 C   0  0  0  0  0  0  0  0  0  0  0  0
   57.2970   23.7160   46.6730 N   0  0  0  0  0  0  0  0  0  0  0  0
   56.3150   24.7560   46.7760 C   0  0  0  0  0  0  0  0  0  0  0  0
   55.0950   24.4480   46.7210 O   0  0  0  0  0  0  0  0  0  0  0  0
   56.6970   26.2080   46.8760 C   0  0  0  0  0  0  0  0  0  0  0  0
   56.4070   26.8930   45.6230 N   0  0  0  0  0  0  0  0  0  0  0  0
   57.3930   27.6080   44.8660 C   0  0  0  0  0  0  0  0  0  0  0  0
   58.1340   26.9840   44.0580 O   0  0  0  0  0  0  0  0  0  0  0  0
   57.5340   29.0740   45.0230 C   0  0  0  0  0  0  0  0  0  0  0  0
   58.3520   29.6090   46.0360 C   0  0  0  0  0  0  0  0  0  0  0  0
   58.4990   30.9920   46.1730 C   0  0  0  0  0  0  0  0  0  0  0  0
   57.8290   31.8630   45.3050 C   0  0  0  0  0  0  0  0  0  0  0  0
   58.0570   33.6030   45.4690 S   0  0  0  0  0  0  0  0  0  0  0  0
   57.7110   34.0010   46.8760 O   0  0  0  0  0  0  0  0  0  0  0  0
   57.1440   34.3390   44.5290 O   0  0  0  0  0  0  0  0  0  0  0  0
   59.7090   34.0520   45.1450 N   0  0  0  0  0  0  0  0  0  0  0  0
   60.3620   34.6050   46.3330 C   0  0  0  0  0  0  0  0  0  0  0  0
   61.4180   33.6710   46.8600 C   0  0  0  0  0  0  0  0  0  0  0  0
   62.7670   33.8680   46.5190 C   0  0  0  0  0  0  0  0  0  0  0  0
   63.7470   32.9890   46.9900 C   0  0  0  0  0  0  0  0  0  0  0  0
   63.3900   31.9130   47.8080 C   0  0  0  0  0  0  0  0  0  0  0  0
   62.0520   31.7140   48.1560 C   0  0  0  0  0  0  0  0  0  0  0  0
   61.0680   32.5890   47.6870 C   0  0  0  0  0  0  0  0  0  0  0  0
   57.0090   31.3380   44.2990 C   0  0  0  0  0  0  0  0  0  0  0  0
   56.8620   29.9560   44.1560 C   0  0  0  0  0  0  0  0  0  0  0  0
   56.6520   25.5340   43.3330 H   0  0  0  0  0  0  0  0  0  0  0  0
   57.3910   24.9820   44.8730 H   0  0  0  0  0  0  0  0  0  0  0  0
   56.3256   20.6208   43.2799 H   0  0  0  0  0  0  0  0  0  0  0  0
   57.0185   18.9845   45.2210 H   0  0  0  0  0  0  0  0  0  0  0  0
   56.1243   26.6791   47.6884 H   0  0  0  0  0  0  0  0  0  0  0  0
   57.7747   26.2817   47.0838 H   0  0  0  0  0  0  0  0  0  0  0  0
   58.8796   28.9332   46.7251 H   0  0  0  0  0  0  0  0  0  0  0  0
   59.1439   31.3982   46.9662 H   0  0  0  0  0  0  0  0  0  0  0  0
   60.8310   35.5647   46.0703 H   0  0  0  0  0  0  0  0  0  0  0  0
   59.6007   34.7454   47.1145 H   0  0  0  0  0  0  0  0  0  0  0  0
   63.0528   34.7163   45.8796 H   0  0  0  0  0  0  0  0  0  0  0  0
   64.8010   33.1444   46.7164 H   0  0  0  0  0  0  0  0  0  0  0  0
   64.1629   31.2230   48.1776 H   0  0  0  0  0  0  0  0  0  0  0  0
   61.7722   30.8674   48.8001 H   0  0  0  0  0  0  0  0  0  0  0  0
   60.0158   32.4305   47.9659 H   0  0  0  0  0  0  0  0  0  0  0  0
   56.4772   32.0178   43.6170 H   0  0  0  0  0  0  0  0  0  0  0  0
   56.2169   29.5546   43.3606 H   0  0  0  0  0  0  0  0  0  0  0  0
  1  2  1  0
  2  3  2  0
  2  4  1  0
  4  5  1  0
  5  6  2  0
  6  7  1  0
  7  8  1  0
  8  9  1  0
  9 10  1  0
 10 11  2  0
 10 12  1  0
 12 13  1  0
 13 14  1  0
 14 15  2  0
 14 16  1  0
 16 17  2  0
 17 18  1  0
 18 19  2  0
 19 20  1  0
 20 21  2  0
 20 22  2  0
 20 23  1  0
 23 24  1  0
 24 25  1  0
 25 26  2  0
 26 27  1  0
 27 28  2  0
 28 29  1  0
 29 30  2  0
 19 31  1  0
 31 32  2  0
  8  4  2  0
 32 16  1  0
 30 25  1  0
  1 33  1  0
  1 34  1  0
  5 35  1  0
  6 36  1  0
 12 37  1  0
 12 38  1  0
 17 39  1  0
 18 40  1  0
 24 41  1  0
 24 42  1  0
 26 43  1  0
 27 44  1  0
 28 45  1  0
 29 46  1  0
 30 47  1  0
 31 48  1  0
 32 49  1  0
M  CHG  3   9  -1  13  -1  23  -1
M  END
>  <UniqueID>  (24) 
21

>  <SMILES>  (24) 
NC(=O)c1ccsc1[N-]C(=O)C[N-]C(=O)c1ccc(S(=O)(=O)[N-]Cc2ccccc2)cc1

>  <Energy>  (24) 
81.38672369308473

>  <Genealogy>  (24) 
NC(=O)c1ccsc1[N-]C(=O)C[N-]C(=O)c1ccc(S(=O)(=O)[N-]Cc2ccccc2)cc1 (protonated)
NC(=O)c1ccsc1[N-]C(=O)C[N-]C(=O)c1ccc(S(=O)(=O)[N-]Cc2ccccc2)cc1 (3D coordinates assigned)
NC(=O)c1ccsc1[N-]C(=O)C[N-]C(=O)c1ccc(S(=O)(=O)[N-]Cc2ccccc2)cc1 (optimized conformer: 81.38672369308473 kcal/mol)

>  <smiles>  (24) 
NC(=O)c1ccsc1NC(=O)CNC(=O)c1ccc(S(=O)(=O)NCc2ccccc2)cc1

>  <score_type>  (24) 
oracle

>  <origin>  (24) 
adg

>  <m_score__min__energy>  (24) 
-13.619999999999999

>  <m_primary>  (24) 
energy

$$$$
24:0
     RDKit          3D

 44 46  0  0  0  0  0  0  0  0999 V2000
   59.0555   30.3584   48.7460 H   0  0  0  0  0  0  0  0  0  0  0  0
   58.8970   29.6290   47.9380 C   0  0  0  0  0  0  0  0  0  0  0  0
   58.9038   28.5517   48.1604 H   0  0  0  0  0  0  0  0  0  0  0  0
   58.6950   30.0540   46.6790 C   0  0  0  0  0  0  0  0  0  0  0  0
   58.4810   29.2360   45.5600 C   0  0  0  0  0  0  0  0  0  0  0  0
   58.4580   27.8850   45.5350 C   0  0  0  0  0  0  0  0  0  0  0  0
   59.3881   27.3714   45.2503 H   0  0  0  0  0  0  0  0  0  0  0  0
   57.2880   27.0370   45.8580 C   0  0  0  0  0  0  0  0  0  0  0  0
   57.3310   25.7880   46.3570 N   0  0  0  0  0  0  0  0  0  0  0  0
   56.0310   25.4310   46.4280 C   0  0  0  0  0  0  0  0  0  0  0  0
   55.6590   24.3080   46.8590 O   0  0  0  0  0  0  0  0  0  0  0  0
   55.1620   26.3680   45.9970 N   0  0  0  0  0  0  0  0  0  0  0  0
   55.9740   27.3750   45.6360 C   0  0  0  0  0  0  0  0  0  0  0  0
   55.5210   28.5800   45.1120 O   0  0  0  0  0  0  0  0  0  0  0  0
   58.3340   30.0940   44.4790 C   0  0  0  0  0  0  0  0  0  0  0  0
   58.1592   29.8049   43.4322 H   0  0  0  0  0  0  0  0  0  0  0  0
   58.4490   31.3780   44.9680 C   0  0  0  0  0  0  0  0  0  0  0  0
   58.4180   32.6090   44.1110 C   0  0  0  0  0  0  0  0  0  0  0  0
   58.3955   33.5021   44.7528 H   0  0  0  0  0  0  0  0  0  0  0  0
   59.3157   32.6364   43.4759 H   0  0  0  0  0  0  0  0  0  0  0  0
   57.5200   32.5911   43.4759 H   0  0  0  0  0  0  0  0  0  0  0  0
   58.6680   31.3640   46.3040 N   0  0  0  0  0  0  0  0  0  0  0  0
   58.8960   32.5560   47.1390 C   0  0  0  0  0  0  0  0  0  0  0  0
   58.5559   33.4490   46.5942 H   0  0  0  0  0  0  0  0  0  0  0  0
   58.3326   32.4439   48.0771 H   0  0  0  0  0  0  0  0  0  0  0  0
   60.3590   32.7040   47.4670 C   0  0  0  0  0  0  0  0  0  0  0  0
   60.8270   33.8510   48.1230 C   0  0  0  0  0  0  0  0  0  0  0  0
   60.1223   34.6524   48.3899 H   0  0  0  0  0  0  0  0  0  0  0  0
   62.1820   33.9850   48.4410 C   0  0  0  0  0  0  0  0  0  0  0  0
   62.5345   34.8879   48.9611 H   0  0  0  0  0  0  0  0  0  0  0  0
   63.0980   32.9720   48.1000 C   0  0  0  0  0  0  0  0  0  0  0  0
   64.5000   33.0690   48.4120 N   0  0  0  0  0  0  0  0  0  0  0  0
   65.1720   33.2920   47.6450 H   0  0  0  0  0  0  0  0  0  0  0  0
   65.1660   32.9320   50.0100 S   0  0  0  0  0  0  0  0  0  0  0  0
   64.6590   34.0740   50.8440 O   0  0  0  0  0  0  0  0  0  0  0  0
   66.6660   33.0050   49.9520 O   0  0  0  0  0  0  0  0  0  0  0  0
   64.6450   31.4060   50.7650 C   0  0  0  0  0  0  0  0  0  0  0  0
   64.6798   31.5079   51.8597 H   0  0  0  0  0  0  0  0  0  0  0  0
   63.6167   31.1738   50.4509 H   0  0  0  0  0  0  0  0  0  0  0  0
   65.3166   30.5935   50.4509 H   0  0  0  0  0  0  0  0  0  0  0  0
   62.6240   31.8240   47.4450 C   0  0  0  0  0  0  0  0  0  0  0  0
   63.3265   31.0206   47.1786 H   0  0  0  0  0  0  0  0  0  0  0  0
   61.2700   31.6910   47.1280 C   0  0  0  0  0  0  0  0  0  0  0  0
   60.9157   30.7876   46.6099 H   0  0  0  0  0  0  0  0  0  0  0  0
  1  2  1  0
  2  3  1  0
  2  4  2  0
  4  5  1  0
  5  6  2  0
  6  7  1  0
  6  8  1  0
  8  9  1  0
  9 10  1  0
 10 11  2  0
 10 12  1  0
 12 13  1  0
 13 14  1  0
  5 15  1  0
 15 16  1  0
 15 17  2  0
 17 18  1  0
 18 19  1  0
 18 20  1  0
 18 21  1  0
 17 22  1  0
 22 23  1  0
 23 24  1  0
 23 25  1  0
 23 26  1  0
 26 27  2  0
 27 28  1  0
 27 29  1  0
 29 30  1  0
 29 31  2  0
 31 32  1  0
 32 33  1  0
 32 34  1  0
 34 35  2  0
 34 36  2  0
 34 37  1  0
 37 38  1  0
 37 39  1  0
 37 40  1  0
 31 41  1  0
 41 42  1  0
 41 43  2  0
 43 44  1  0
 22  4  1  0
 43 26  1  0
 13  8  2  0
M  CHG  3   9  -1  12  -1  14  -1
M  END
>  <UniqueID>  (25) 
22

>  <SMILES>  (25) 
C=c1/c(=C/c2[n-]c(=O)[n-]c2[O-])cc(C)n1Cc1ccc(NS(C)(=O)=O)cc1

>  <Energy>  (25) 
106.55449052865272

>  <Genealogy>  (25) 
C=c1c(=Cc2[n-]c(=O)[n-]c2[O-])cc(C)n1Cc1ccc(NS(C)(=O)=O)cc1 (protonated)
C=c1/c(=C/c2[n-]c(=O)[n-]c2[O-])cc(C)n1Cc1ccc(NS(C)(=O)=O)cc1 (cis-trans isomerization)
C=c1/c(=C/c2[n-]c(=O)[n-]c2[O-])cc(C)n1Cc1ccc(NS(C)(=O)=O)cc1 (3D coordinates assigned)
C=c1/c(=C/c2[n-]c(=O)[n-]c2[O-])cc(C)n1Cc1ccc(NS(C)(=O)=O)cc1 (optimized conformer: 106.55449052865272 kcal/mol)

>  <smiles>  (25) 
C=c1c(=Cc2[nH]c(=O)[nH]c2O)cc(C)n1Cc1ccc(NS(C)(=O)=O)cc1

>  <score_type>  (25) 
oracle

>  <origin>  (25) 
adg

>  <m_score__min__energy>  (25) 
-16.109999999999999

>  <m_primary>  (25) 
energy

$$$$
25:0
     RDKit          3D

 56 59  0  0  0  0  0  0  0  0999 V2000
   59.2460   35.2860   46.1560 O   0  0  0  0  0  0  0  0  0  0  0  0
   58.4970   34.3130   45.8720 C   0  0  0  0  0  0  0  0  0  0  0  0
   57.7580   34.3090   44.5640 C   0  0  0  0  0  0  0  0  0  0  0  0
   58.1100   33.0800   43.7100 C   0  0  0  0  0  0  0  0  0  0  0  0
   58.2010   31.7800   44.5240 C   0  0  0  0  0  0  0  0  0  0  0  0
   56.8750   31.3450   44.9670 N   0  0  0  0  0  0  0  0  0  0  0  0
   56.5220   29.7290   44.4230 S   0  0  0  0  0  0  0  0  0  0  0  0
   55.1450   29.3290   44.8760 O   0  0  0  0  0  0  0  0  0  0  0  0
   56.5760   29.6990   42.9230 O   0  0  0  0  0  0  0  0  0  0  0  0
   57.7130   28.5910   45.0560 C   0  0  0  0  0  0  0  0  0  0  0  0
   59.0850   28.8840   44.9820 C   0  0  0  0  0  0  0  0  0  0  0  0
   60.0420   27.9760   45.4650 C   0  0  0  0  0  0  0  0  0  0  0  0
   59.6480   26.7550   46.0220 C   0  0  0  0  0  0  0  0  0  0  0  0
   58.2920   26.4450   46.0930 C   0  0  0  0  0  0  0  0  0  0  0  0
   57.8340   25.2780   46.6070 N   0  0  0  0  0  0  0  0  0  0  0  0
   56.2070   25.4930   46.4120 S   0  0  0  0  0  0  0  0  0  0  0  0
   56.0190   26.9790   45.7120 N   0  0  0  0  0  0  0  0  0  0  0  0
   57.3160   27.3640   45.6100 C   0  0  0  0  0  0  0  0  0  0  0  0
   58.3430   33.2200   46.7910 N   0  0  0  0  0  0  0  0  0  0  0  0
   59.3070   32.8790   47.8050 C   0  0  0  0  0  0  0  0  0  0  0  0
   60.5660   32.3950   47.4240 C   0  0  0  0  0  0  0  0  0  0  0  0
   61.5370   32.1160   48.3880 C   0  0  0  0  0  0  0  0  0  0  0  0
   61.2650   32.3340   49.7420 C   0  0  0  0  0  0  0  0  0  0  0  0
   60.0150   32.8280   50.1370 C   0  0  0  0  0  0  0  0  0  0  0  0
   59.6930   33.1530   51.8390 S   0  0  0  0  0  0  0  0  0  0  0  0
   60.9870   33.4130   52.5570 O   0  0  0  0  0  0  0  0  0  0  0  0
   58.8160   34.3690   51.9350 O   0  0  0  0  0  0  0  0  0  0  0  0
   58.8850   31.7840   52.5690 N   0  0  0  0  0  0  0  0  0  0  0  0
   57.4240   32.0090   52.6600 C   0  0  0  0  0  0  0  0  0  0  0  0
   56.6460   31.1940   51.6110 C   0  0  0  0  0  0  0  0  0  0  0  0
   56.8720   29.7940   51.7030 O   0  0  0  0  0  0  0  0  0  0  0  0
   58.1910   29.4530   52.1190 C   0  0  0  0  0  0  0  0  0  0  0  0
   59.2340   30.5480   51.8450 C   0  0  0  0  0  0  0  0  0  0  0  0
   59.0420   33.1040   49.1680 C   0  0  0  0  0  0  0  0  0  0  0  0
   56.6768   34.3034   44.7665 H   0  0  0  0  0  0  0  0  0  0  0  0
   58.0521   35.2088   44.0037 H   0  0  0  0  0  0  0  0  0  0  0  0
   57.3343   32.9562   42.9400 H   0  0  0  0  0  0  0  0  0  0  0  0
   59.1031   33.2608   43.2728 H   0  0  0  0  0  0  0  0  0  0  0  0
   58.6469   30.9936   43.8974 H   0  0  0  0  0  0  0  0  0  0  0  0
   58.8241   31.9648   45.4115 H   0  0  0  0  0  0  0  0  0  0  0  0
   59.4140   29.8362   44.5404 H   0  0  0  0  0  0  0  0  0  0  0  0
   61.1111   28.2276   45.4046 H   0  0  0  0  0  0  0  0  0  0  0  0
   60.4007   26.0474   46.3998 H   0  0  0  0  0  0  0  0  0  0  0  0
   57.4730   32.6450   46.7280 H   0  0  0  0  0  0  0  0  0  0  0  0
   60.7905   32.2340   46.3593 H   0  0  0  0  0  0  0  0  0  0  0  0
   62.5180   31.7239   48.0815 H   0  0  0  0  0  0  0  0  0  0  0  0
   62.0338   32.1173   50.4983 H   0  0  0  0  0  0  0  0  0  0  0  0
   57.0816   31.7147   53.6631 H   0  0  0  0  0  0  0  0  0  0  0  0
   57.2331   33.0755   52.4700 H   0  0  0  0  0  0  0  0  0  0  0  0
   55.5713   31.3835   51.7491 H   0  0  0  0  0  0  0  0  0  0  0  0
   57.0011   31.5159   50.6209 H   0  0  0  0  0  0  0  0  0  0  0  0
   58.1725   29.2555   53.2010 H   0  0  0  0  0  0  0  0  0  0  0  0
   58.4923   28.5719   51.5334 H   0  0  0  0  0  0  0  0  0  0  0  0
   60.2221   30.1990   52.1794 H   0  0  0  0  0  0  0  0  0  0  0  0
   59.2529   30.7603   50.7658 H   0  0  0  0  0  0  0  0  0  0  0  0
   58.0628   33.4999   49.4753 H   0  0  0  0  0  0  0  0  0  0  0  0
  1  2  2  0
  2  3  1  0
  3  4  1  0
  4  5  1  0
  5  6  1  0
  6  7  1  0
  7  8  2  0
  7  9  2  0
  7 10  1  0
 10 11  2  0
 11 12  1  0
 12 13  2  0
 13 14  1  0
 14 15  2  0
 15 16  1  0
 16 17  1  0
 17 18  2  0
  2 19  1  0
 19 20  1  0
 20 21  2  0
 21 22  1  0
 22 23  2  0
 23 24  1  0
 24 25  1  0
 25 26  2  0
 25 27  2  0
 25 28  1  0
 28 29  1  0
 29 30  1  0
 30 31  1  0
 31 32  1  0
 32 33  1  0
 24 34  2  0
 18 10  1  0
 34 20  1  0
 18 14  1  0
 33 28  1  0
  3 35  1  0
  3 36  1  0
  4 37  1  0
  4 38  1  0
  5 39  1  0
  5 40  1  0
 11 41  1  0
 12 42  1  0
 13 43  1  0
 19 44  1  0
 21 45  1  0
 22 46  1  0
 23 47  1  0
 29 48  1  0
 29 49  1  0
 30 50  1  0
 30 51  1  0
 32 52  1  0
 32 53  1  0
 33 54  1  0
 33 55  1  0
 34 56  1  0
M  CHG  1   6  -1
M  END
>  <UniqueID>  (26) 
23

>  <SMILES>  (26) 
O=C(CCC[N-]S(=O)(=O)c1cccc2nsnc12)Nc1cccc(S(=O)(=O)N2CCOCC2)c1

>  <Energy>  (26) 
106.06758455748177

>  <Genealogy>  (26) 
O=C(CCC[N-]S(=O)(=O)c1cccc2nsnc12)Nc1cccc(S(=O)(=O)N2CCOCC2)c1 (protonated)
O=C(CCC[N-]S(=O)(=O)c1cccc2nsnc12)Nc1cccc(S(=O)(=O)N2CCOCC2)c1 (3D coordinates assigned)
O=C(CCC[N-]S(=O)(=O)c1cccc2nsnc12)Nc1cccc(S(=O)(=O)N2CCOCC2)c1 (nonaromatic ring conformer: 106.06758455748177 kcal/mol)

>  <smiles>  (26) 
O=C(CCCNS(=O)(=O)c1cccc2nsnc12)Nc1cccc(S(=O)(=O)N2CCOCC2)c1

>  <score_type>  (26) 
oracle

>  <origin>  (26) 
adg

>  <m_score__min__energy>  (26) 
-12.35

>  <m_primary>  (26) 
energy

$$$$
26:0
     RDKit          3D

 56 60  0  0  0  0  0  0  0  0999 V2000
   62.6510   33.6360   52.6150 O   0  0  0  0  0  0  0  0  0  0  0  0
   63.5200   33.1740   51.8260 C   0  0  0  0  0  0  0  0  0  0  0  0
   64.8480   33.8260   51.7620 C   0  0  0  0  0  0  0  0  0  0  0  0
   65.9060   33.1960   51.0840 C   0  0  0  0  0  0  0  0  0  0  0  0
   67.1550   33.8200   51.0330 C   0  0  0  0  0  0  0  0  0  0  0  0
   67.3400   35.0570   51.6480 C   0  0  0  0  0  0  0  0  0  0  0  0
   66.2630   35.6640   52.3000 C   0  0  0  0  0  0  0  0  0  0  0  0
   65.0490   35.0490   52.3410 N   0  0  0  0  0  0  0  0  0  0  0  0
   63.1970   32.0310   51.0080 N   0  0  0  0  0  0  0  0  0  0  0  0
   63.8090   31.8530   49.6810 C   0  0  0  0  0  0  0  0  0  0  0  0
   62.7500   31.4370   48.6510 C   0  0  0  0  0  0  0  0  0  0  0  0
   61.8570   30.3940   49.1780 N   0  0  0  0  0  0  0  0  0  0  0  0
   60.7760   29.9090   48.3620 C   0  0  0  0  0  0  0  0  0  0  0  0
   60.9070   29.8600   46.9640 C   0  0  0  0  0  0  0  0  0  0  0  0
   59.8580   29.3820   46.1720 C   0  0  0  0  0  0  0  0  0  0  0  0
   58.6640   28.9520   46.7690 C   0  0  0  0  0  0  0  0  0  0  0  0
   57.5680   28.4770   45.9790 N   0  0  0  0  0  0  0  0  0  0  0  0
   56.8420   29.4080   44.7110 S   0  0  0  0  0  0  0  0  0  0  0  0
   57.0940   28.7270   43.3960 O   0  0  0  0  0  0  0  0  0  0  0  0
   55.3560   29.4580   44.9360 O   0  0  0  0  0  0  0  0  0  0  0  0
   57.4600   31.0580   44.6720 C   0  0  0  0  0  0  0  0  0  0  0  0
   57.6510   31.7210   43.4320 C   0  0  0  0  0  0  0  0  0  0  0  0
   58.1480   33.0400   43.3920 C   0  0  0  0  0  0  0  0  0  0  0  0
   58.4410   33.6580   44.6050 C   0  0  0  0  0  0  0  0  0  0  0  0
   58.9340   34.9170   44.8750 C   0  0  0  0  0  0  0  0  0  0  0  0
   59.0290   34.9830   46.2630 C   0  0  0  0  0  0  0  0  0  0  0  0
   58.6150   33.8250   46.8270 N   0  0  0  0  0  0  0  0  0  0  0  0
   58.2600   33.0240   45.8050 C   0  0  0  0  0  0  0  0  0  0  0  0
   57.7730   31.7190   45.8790 C   0  0  0  0  0  0  0  0  0  0  0  0
   58.5220   29.0260   48.1610 C   0  0  0  0  0  0  0  0  0  0  0  0
   59.5730   29.4910   48.9550 C   0  0  0  0  0  0  0  0  0  0  0  0
   62.0520   29.8770   50.5380 C   0  0  0  0  0  0  0  0  0  0  0  0
   62.2290   31.0440   51.5140 C   0  0  0  0  0  0  0  0  0  0  0  0
   65.7520   32.2211   50.5983 H   0  0  0  0  0  0  0  0  0  0  0  0
   67.9915   33.3355   50.5080 H   0  0  0  0  0  0  0  0  0  0  0  0
   68.3229   35.5501   51.6205 H   0  0  0  0  0  0  0  0  0  0  0  0
   66.3969   36.6435   52.7824 H   0  0  0  0  0  0  0  0  0  0  0  0
   64.2560   35.5520   52.8010 H   0  0  0  0  0  0  0  0  0  0  0  0
   64.2688   32.8009   49.3645 H   0  0  0  0  0  0  0  0  0  0  0  0
   64.5722   31.0634   49.7447 H   0  0  0  0  0  0  0  0  0  0  0  0
   62.1489   32.3182   48.3823 H   0  0  0  0  0  0  0  0  0  0  0  0
   63.2696   31.0302   47.7710 H   0  0  0  0  0  0  0  0  0  0  0  0
   61.8397   30.1994   46.4898 H   0  0  0  0  0  0  0  0  0  0  0  0
   59.9697   29.3432   45.0784 H   0  0  0  0  0  0  0  0  0  0  0  0
   57.4091   31.2012   42.4932 H   0  0  0  0  0  0  0  0  0  0  0  0
   58.2990   33.5626   42.4359 H   0  0  0  0  0  0  0  0  0  0  0  0
   59.1961   35.7013   44.1496 H   0  0  0  0  0  0  0  0  0  0  0  0
   59.3911   35.8572   46.8240 H   0  0  0  0  0  0  0  0  0  0  0  0
   58.5840   33.6010   47.8480 H   0  0  0  0  0  0  0  0  0  0  0  0
   57.6369   31.2197   46.8497 H   0  0  0  0  0  0  0  0  0  0  0  0
   57.5772   28.7160   48.6314 H   0  0  0  0  0  0  0  0  0  0  0  0
   59.4583   29.5300   50.0483 H   0  0  0  0  0  0  0  0  0  0  0  0
   61.1739   29.2837   50.8329 H   0  0  0  0  0  0  0  0  0  0  0  0
   62.9509   29.2434   50.5612 H   0  0  0  0  0  0  0  0  0  0  0  0
   61.2573   31.5387   51.6590 H   0  0  0  0  0  0  0  0  0  0  0  0
   62.6111   30.6430   52.4644 H   0  0  0  0  0  0  0  0  0  0  0  0
  1  2  2  0
  2  3  1  0
  3  4  2  0
  4  5  1  0
  5  6  2  0
  6  7  1  0
  7  8  2  0
  2  9  1  0
  9 10  1  0
 10 11  1  0
 11 12  1  0
 12 13  1  0
 13 14  2  0
 14 15  1  0
 15 16  2  0
 16 17  1  0
 17 18  1  0
 18 19  2  0
 18 20  2  0
 18 21  1  0
 21 22  2  0
 22 23  1  0
 23 24  2  0
 24 25  1  0
 25 26  2  0
 26 27  1  0
 27 28  1  0
 28 29  2  0
 16 30  1  0
 30 31  2  0
 12 32  1  0
 32 33  1  0
  8  3  1  0
 33  9  1  0
 31 13  1  0
 29 21  1  0
 28 24  1  0
  4 34  1  0
  5 35  1  0
  6 36  1  0
  7 37  1  0
  8 38  1  0
 10 39  1  0
 10 40  1  0
 11 41  1  0
 11 42  1  0
 14 43  1  0
 15 44  1  0
 22 45  1  0
 23 46  1  0
 25 47  1  0
 26 48  1  0
 27 49  1  0
 29 50  1  0
 30 51  1  0
 31 52  1  0
 32 53  1  0
 32 54  1  0
 33 55  1  0
 33 56  1  0
M  CHG  2   8   1  17  -1
M  END
>  <UniqueID>  (27) 
24

>  <SMILES>  (27) 
O=C(c1cccc[nH+]1)N1CCN(c2ccc([N-]S(=O)(=O)c3ccc4cc[nH]c4c3)cc2)CC1

>  <Energy>  (27) 
111.35724436295607

>  <Genealogy>  (27) 
O=C(c1cccc[nH+]1)N1CCN(c2ccc([N-]S(=O)(=O)c3ccc4cc[nH]c4c3)cc2)CC1 (protonated)
O=C(c1cccc[nH+]1)N1CCN(c2ccc([N-]S(=O)(=O)c3ccc4cc[nH]c4c3)cc2)CC1 (3D coordinates assigned)
O=C(c1cccc[nH+]1)N1CCN(c2ccc([N-]S(=O)(=O)c3ccc4cc[nH]c4c3)cc2)CC1 (nonaromatic ring conformer: 111.35724436295607 kcal/mol)

>  <smiles>  (27) 
O=C(c1ccccn1)N1CCN(c2ccc(NS(=O)(=O)c3ccc4cc[nH]c4c3)cc2)CC1

>  <score_type>  (27) 
oracle

>  <origin>  (27) 
adg

>  <m_score__min__energy>  (27) 
-9.9199999999999999

>  <m_primary>  (27) 
energy

$$$$
27:0
     RDKit          3D

 66 70  0  0  0  0  0  0  0  0999 V2000
   53.8990   23.3130   45.1360 C   0  0  0  0  0  0  0  0  0  0  0  0
   55.0140   23.7810   44.4380 N   0  0  0  0  0  0  0  0  0  0  0  0
   55.2280   23.3800   43.0980 C   0  0  0  0  0  0  0  0  0  0  0  0
   56.0200   24.5310   45.0840 C   0  0  0  0  0  0  0  0  0  0  0  0
   57.3670   23.9670   45.1040 C   0  0  0  0  0  0  0  0  0  0  0  0
   57.4910   22.6050   44.7960 C   0  0  0  0  0  0  0  0  0  0  0  0
   58.7110   21.9570   44.8590 C   0  0  0  0  0  0  0  0  0  0  0  0
   59.8380   22.6540   45.2320 C   0  0  0  0  0  0  0  0  0  0  0  0
   59.7160   23.9580   45.5250 N   0  0  0  0  0  0  0  0  0  0  0  0
   58.5190   24.6230   45.4690 C   0  0  0  0  0  0  0  0  0  0  0  0
   58.5910   26.0080   45.7330 N   0  0  0  0  0  0  0  0  0  0  0  0
   57.7320   26.4990   46.8300 C   0  0  0  0  0  0  0  0  0  0  0  0
   56.6590   27.3150   46.0920 C   0  0  0  0  0  0  0  0  0  0  0  0
   57.3640   28.3640   45.3780 N   0  0  0  0  0  0  0  0  0  0  0  0
   56.5260   29.3820   44.7960 C   0  0  0  0  0  0  0  0  0  0  0  0
   55.2790   29.3110   44.9280 O   0  0  0  0  0  0  0  0  0  0  0  0
   57.0500   30.5070   44.0470 C   0  0  0  0  0  0  0  0  0  0  0  0
   56.9470   30.5700   42.6970 C   0  0  0  0  0  0  0  0  0  0  0  0
   57.4600   31.6680   42.0260 C   0  0  0  0  0  0  0  0  0  0  0  0
   58.0660   32.6850   42.7370 C   0  0  0  0  0  0  0  0  0  0  0  0
   58.1760   32.6330   44.1290 C   0  0  0  0  0  0  0  0  0  0  0  0
   58.8510   33.7730   44.7750 C   0  0  0  0  0  0  0  0  0  0  0  0
   59.0230   33.5650   46.2110 C   0  0  0  0  0  0  0  0  0  0  0  0
   57.8980   33.3030   46.9420 N   0  0  0  0  0  0  0  0  0  0  0  0
   57.9700   33.0630   48.2320 N   0  0  0  0  0  0  0  0  0  0  0  0
   59.1160   33.0510   48.9390 C   0  0  0  0  0  0  0  0  0  0  0  0
   59.1320   32.8160   50.1640 O   0  0  0  0  0  0  0  0  0  0  0  0
   60.2730   33.3050   48.2710 C   0  0  0  0  0  0  0  0  0  0  0  0
   61.4680   33.3140   48.9480 C   0  0  0  0  0  0  0  0  0  0  0  0
   62.6410   33.5850   48.2570 C   0  0  0  0  0  0  0  0  0  0  0  0
   62.5590   33.8350   46.9160 C   0  0  0  0  0  0  0  0  0  0  0  0
   61.3560   33.8230   46.2520 C   0  0  0  0  0  0  0  0  0  0  0  0
   60.2020   33.5600   46.9070 C   0  0  0  0  0  0  0  0  0  0  0  0
   57.6580   31.5320   44.7440 C   0  0  0  0  0  0  0  0  0  0  0  0
   58.8050   28.3910   45.2550 C   0  0  0  0  0  0  0  0  0  0  0  0
   59.3670   26.9900   45.0560 C   0  0  0  0  0  0  0  0  0  0  0  0
   54.0842   23.3908   46.2175 H   0  0  0  0  0  0  0  0  0  0  0  0
   53.0196   23.9179   44.8702 H   0  0  0  0  0  0  0  0  0  0  0  0
   53.7148   22.2616   44.8702 H   0  0  0  0  0  0  0  0  0  0  0  0
   55.7459   22.4096   43.0839 H   0  0  0  0  0  0  0  0  0  0  0  0
   54.2599   23.2865   42.5842 H   0  0  0  0  0  0  0  0  0  0  0  0
   55.8446   24.1322   42.5842 H   0  0  0  0  0  0  0  0  0  0  0  0
   56.0781   25.5078   44.5814 H   0  0  0  0  0  0  0  0  0  0  0  0
   55.7126   24.5657   46.1396 H   0  0  0  0  0  0  0  0  0  0  0  0
   56.5968   22.0384   44.4972 H   0  0  0  0  0  0  0  0  0  0  0  0
   58.7807   20.8874   44.6117 H   0  0  0  0  0  0  0  0  0  0  0  0
   60.8160   22.1537   45.2886 H   0  0  0  0  0  0  0  0  0  0  0  0
   57.2809   25.6622   47.3834 H   0  0  0  0  0  0  0  0  0  0  0  0
   58.2817   27.0855   47.5809 H   0  0  0  0  0  0  0  0  0  0  0  0
   56.1125   26.6739   45.3847 H   0  0  0  0  0  0  0  0  0  0  0  0
   55.9228   27.7342   46.7936 H   0  0  0  0  0  0  0  0  0  0  0  0
   56.4603   29.7564   42.1391 H   0  0  0  0  0  0  0  0  0  0  0  0
   57.3849   31.7296   40.9303 H   0  0  0  0  0  0  0  0  0  0  0  0
   58.4703   33.5536   42.1966 H   0  0  0  0  0  0  0  0  0  0  0  0
   59.8409   33.9070   44.3145 H   0  0  0  0  0  0  0  0  0  0  0  0
   58.2225   34.6646   44.6337 H   0  0  0  0  0  0  0  0  0  0  0  0
   57.0920   32.8630   48.7900 H   0  0  0  0  0  0  0  0  0  0  0  0
   61.4953   33.1083   50.0282 H   0  0  0  0  0  0  0  0  0  0  0  0
   63.6112   33.5982   48.7753 H   0  0  0  0  0  0  0  0  0  0  0  0
   63.4794   34.0513   46.3538 H   0  0  0  0  0  0  0  0  0  0  0  0
   61.3310   34.0303   45.1720 H   0  0  0  0  0  0  0  0  0  0  0  0
   57.7273   31.4574   45.8393 H   0  0  0  0  0  0  0  0  0  0  0  0
   59.0797   29.0139   44.3910 H   0  0  0  0  0  0  0  0  0  0  0  0
   59.2260   28.8067   46.1823 H   0  0  0  0  0  0  0  0  0  0  0  0
   59.3743   26.7588   43.9806 H   0  0  0  0  0  0  0  0  0  0  0  0
   60.3850   26.9678   45.4722 H   0  0  0  0  0  0  0  0  0  0  0  0
  1  2  1  0
  2  3  1  0
  2  4  1  0
  4  5  1  0
  5  6  2  0
  6  7  1  0
  7  8  2  0
  8  9  1  0
  9 10  2  0
 10 11  1  0
 11 12  1  0
 12 13  1  0
 13 14  1  0
 14 15  1  0
 15 16  2  0
 15 17  1  0
 17 18  2  0
 18 19  1  0
 19 20  2  0
 20 21  1  0
 21 22  1  0
 22 23  1  0
 23 24  2  0
 24 25  1  0
 25 26  1  0
 26 27  2  0
 26 28  1  0
 28 29  2  0
 29 30  1  0
 30 31  2  0
 31 32  1  0
 32 33  2  0
 21 34  2  0
 14 35  1  0
 35 36  1  0
 10  5  1  0
 36 11  1  0
 34 17  1  0
 33 23  1  0
 33 28  1  0
  1 37  1  0
  1 38  1  0
  1 39  1  0
  3 40  1  0
  3 41  1  0
  3 42  1  0
  4 43  1  0
  4 44  1  0
  6 45  1  0
  7 46  1  0
  8 47  1  0
 12 48  1  0
 12 49  1  0
 13 50  1  0
 13 51  1  0
 18 52  1  0
 19 53  1  0
 20 54  1  0
 22 55  1  0
 22 56  1  0
 25 57  1  0
 29 58  1  0
 30 59  1  0
 31 60  1  0
 32 61  1  0
 34 62  1  0
 35 63  1  0
 35 64  1  0
 36 65  1  0
 36 66  1  0
M  END
>  <smiles>  (28) 
CN(C)Cc1cccnc1N1CCN(C(=O)c2cccc(Cc3n[nH]c(=O)c4ccccc34)c2)CC1

>  <score_type>  (28) 
oracle

>  <origin>  (28) 
adg

>  <m_score__min__energy>  (28) 
-10.99

>  <m_primary>  (28) 
energy

$$$$
28:0
     RDKit          3D

 44 46  0  0  0  0  0  0  0  0999 V2000
   55.5140   30.5180   44.4980 O   0  0  0  0  0  0  0  0  0  0  0  0
   56.5110   30.0730   43.8930 N   0  0  0  0  0  0  0  0  0  0  0  0
   56.6300   30.3150   42.5430 O   0  0  0  0  0  0  0  0  0  0  0  0
   57.5200   29.3220   44.5930 C   0  0  0  0  0  0  0  0  0  0  0  0
   58.8740   29.7010   44.5260 C   0  0  0  0  0  0  0  0  0  0  0  0
   59.8500   28.9690   45.2060 C   0  0  0  0  0  0  0  0  0  0  0  0
   59.4940   27.8390   45.9570 C   0  0  0  0  0  0  0  0  0  0  0  0
   60.5380   27.0740   46.7170 C   0  0  0  0  0  0  0  0  0  0  0  0
   60.1960   27.1870   48.5030 S   0  0  0  0  0  0  0  0  0  0  0  0
   60.1030   28.9750   48.4900 C   0  0  0  0  0  0  0  0  0  0  0  0
   58.9710   29.6260   48.9880 C   0  0  0  0  0  0  0  0  0  0  0  0
   58.9230   31.0210   48.9740 C   0  0  0  0  0  0  0  0  0  0  0  0
   60.0030   31.7520   48.4640 C   0  0  0  0  0  0  0  0  0  0  0  0
   59.9610   33.5170   48.4500 S   0  0  0  0  0  0  0  0  0  0  0  0
   59.2790   34.0040   49.6990 O   0  0  0  0  0  0  0  0  0  0  0  0
   61.3700   34.0410   48.4550 O   0  0  0  0  0  0  0  0  0  0  0  0
   59.1180   34.1350   47.0500 N   0  0  0  0  0  0  0  0  0  0  0  0
   59.9560   34.0170   45.8440 C   0  0  0  0  0  0  0  0  0  0  0  0
   59.2070   34.5650   44.6080 C   0  0  0  0  0  0  0  0  0  0  0  0
   57.8480   34.8600   44.8830 O   0  0  0  0  0  0  0  0  0  0  0  0
   57.2250   33.7390   45.4770 C   0  0  0  0  0  0  0  0  0  0  0  0
   57.8340   33.4320   46.8620 C   0  0  0  0  0  0  0  0  0  0  0  0
   61.1150   31.0600   47.9670 C   0  0  0  0  0  0  0  0  0  0  0  0
   61.1400   29.7010   47.9920 N   0  0  0  0  0  0  0  0  0  0  0  0
   58.1450   27.4650   46.0380 C   0  0  0  0  0  0  0  0  0  0  0  0
   57.1670   28.1970   45.3580 C   0  0  0  0  0  0  0  0  0  0  0  0
   59.1657   30.5806   43.9334 H   0  0  0  0  0  0  0  0  0  0  0  0
   60.9036   29.2804   45.1523 H   0  0  0  0  0  0  0  0  0  0  0  0
   60.5181   26.0190   46.4061 H   0  0  0  0  0  0  0  0  0  0  0  0
   61.5300   27.5003   46.5065 H   0  0  0  0  0  0  0  0  0  0  0  0
   58.1264   29.0450   49.3869 H   0  0  0  0  0  0  0  0  0  0  0  0
   58.0378   31.5454   49.3631 H   0  0  0  0  0  0  0  0  0  0  0  0
   58.9270   35.1490   47.2310 H   0  0  0  0  0  0  0  0  0  0  0  0
   60.8827   34.5914   45.9896 H   0  0  0  0  0  0  0  0  0  0  0  0
   60.1900   32.9554   45.6761 H   0  0  0  0  0  0  0  0  0  0  0  0
   59.7068   35.4856   44.2723 H   0  0  0  0  0  0  0  0  0  0  0  0
   59.2293   33.7862   43.8315 H   0  0  0  0  0  0  0  0  0  0  0  0
   56.1510   33.9457   45.5949 H   0  0  0  0  0  0  0  0  0  0  0  0
   57.3823   32.8666   44.8257 H   0  0  0  0  0  0  0  0  0  0  0  0
   57.1302   33.7560   47.6429 H   0  0  0  0  0  0  0  0  0  0  0  0
   58.0174   32.3495   46.9288 H   0  0  0  0  0  0  0  0  0  0  0  0
   61.9696   31.6173   47.5557 H   0  0  0  0  0  0  0  0  0  0  0  0
   57.8547   26.5911   46.6397 H   0  0  0  0  0  0  0  0  0  0  0  0
   56.1127   27.8900   45.4222 H   0  0  0  0  0  0  0  0  0  0  0  0
  1  2  2  0
  2  3  1  0
  2  4  1  0
  4  5  2  0
  5  6  1  0
  6  7  2  0
  7  8  1  0
  8  9  1  0
  9 10  1  0
 10 11  2  0
 11 12  1  0
 12 13  2  0
 13 14  1  0
 14 15  2  0
 14 16  2  0
 14 17  1  0
 17 18  1  0
 18 19  1  0
 19 20  1  0
 20 21  1  0
 21 22  1  0
 13 23  1  0
 23 24  2  0
  7 25  1  0
 25 26  2  0
 26  4  1  0
 24 10  1  0
 22 17  1  0
  5 27  1  0
  6 28  1  0
  8 29  1  0
  8 30  1  0
 11 31  1  0
 12 32  1  0
 17 33  1  0
 18 34  1  0
 18 35  1  0
 19 36  1  0
 19 37  1  0
 21 38  1  0
 21 39  1  0
 22 40  1  0
 22 41  1  0
 23 42  1  0
 25 43  1  0
 26 44  1  0
M  CHG  3   2   1   3  -1  17   1
M  END
>  <UniqueID>  (29) 
25

>  <SMILES>  (29) 
O=[N+]([O-])c1ccc(CSc2ccc(S(=O)(=O)[NH+]3CCOCC3)cn2)cc1

>  <Energy>  (29) 
50.022146330416646

>  <Genealogy>  (29) 
O=[N+]([O-])c1ccc(CSc2ccc(S(=O)(=O)[NH+]3CCOCC3)cn2)cc1 (protonated)
O=[N+]([O-])c1ccc(CSc2ccc(S(=O)(=O)[NH+]3CCOCC3)cn2)cc1 (3D coordinates assigned)
O=[N+]([O-])c1ccc(CSc2ccc(S(=O)(=O)[NH+]3CCOCC3)cn2)cc1 (nonaromatic ring conformer: 50.022146330416646 kcal/mol)

>  <smiles>  (29) 
O=[N+]([O-])c1ccc(CSc2ccc(S(=O)(=O)N3CCOCC3)cn2)cc1

>  <score_type>  (29) 
oracle

>  <origin>  (29) 
adg

>  <m_score__min__energy>  (29) 
-7.1799999999999997

>  <m_primary>  (29) 
energy

$$$$
29:0
     RDKit          3D

 46 49  0  0  0  0  0  0  0  0999 V2000
   56.1050   22.1680   48.2550 C   0  0  0  0  0  0  0  0  0  0  0  0
   57.2390   22.6880   47.5700 O   0  0  0  0  0  0  0  0  0  0  0  0
   57.2460   23.8890   46.8440 C   0  0  0  0  0  0  0  0  0  0  0  0
   58.4310   24.2760   46.2130 C   0  0  0  0  0  0  0  0  0  0  0  0
   58.4890   25.4610   45.4760 C   0  0  0  0  0  0  0  0  0  0  0  0
   57.3530   26.2790   45.3450 C   0  0  0  0  0  0  0  0  0  0  0  0
   57.4410   27.5260   44.5480 C   0  0  0  0  0  0  0  0  0  0  0  0
   58.0330   27.5080   43.4340 O   0  0  0  0  0  0  0  0  0  0  0  0
   56.7960   28.7300   44.9950 N   0  0  0  0  0  0  0  0  0  0  0  0
   57.1330   30.0450   44.5170 C   0  0  0  0  0  0  0  0  0  0  0  0
   57.0540   30.3690   43.1520 C   0  0  0  0  0  0  0  0  0  0  0  0
   57.3960   31.6500   42.7120 C   0  0  0  0  0  0  0  0  0  0  0  0
   57.8380   32.6110   43.6240 C   0  0  0  0  0  0  0  0  0  0  0  0
   57.9620   32.2940   44.9860 C   0  0  0  0  0  0  0  0  0  0  0  0
   58.4280   33.3230   45.9440 C   0  0  0  0  0  0  0  0  0  0  0  0
   57.6490   34.2650   46.2570 O   0  0  0  0  0  0  0  0  0  0  0  0
   59.7780   33.2860   46.5420 C   0  0  0  0  0  0  0  0  0  0  0  0
   60.9140   33.8610   45.9720 C   0  0  0  0  0  0  0  0  0  0  0  0
   61.9410   33.5510   46.8360 C   0  0  0  0  0  0  0  0  0  0  0  0
   63.2990   33.8610   46.7780 C   0  0  0  0  0  0  0  0  0  0  0  0
   64.1230   33.3910   47.8170 C   0  0  0  0  0  0  0  0  0  0  0  0
   63.5770   32.6270   48.8740 C   0  0  0  0  0  0  0  0  0  0  0  0
   62.2030   32.3290   48.9010 C   0  0  0  0  0  0  0  0  0  0  0  0
   61.4110   32.8130   47.8610 C   0  0  0  0  0  0  0  0  0  0  0  0
   60.0900   32.6380   47.6920 N   0  0  0  0  0  0  0  0  0  0  0  0
   57.5970   31.0090   45.4250 C   0  0  0  0  0  0  0  0  0  0  0  0
   56.1620   25.9010   45.9990 C   0  0  0  0  0  0  0  0  0  0  0  0
   55.0310   26.7080   45.9500 O   0  0  0  0  0  0  0  0  0  0  0  0
   56.1090   24.7100   46.7340 C   0  0  0  0  0  0  0  0  0  0  0  0
   56.2666   22.2421   49.3405 H   0  0  0  0  0  0  0  0  0  0  0  0
   55.2116   22.7464   47.9769 H   0  0  0  0  0  0  0  0  0  0  0  0
   55.9603   21.1136   47.9769 H   0  0  0  0  0  0  0  0  0  0  0  0
   59.3259   23.6420   46.2974 H   0  0  0  0  0  0  0  0  0  0  0  0
   59.4322   25.7570   44.9936 H   0  0  0  0  0  0  0  0  0  0  0  0
   55.9660   28.6340   45.6230 H   0  0  0  0  0  0  0  0  0  0  0  0
   56.7216   29.6112   42.4272 H   0  0  0  0  0  0  0  0  0  0  0  0
   57.3170   31.9025   41.6443 H   0  0  0  0  0  0  0  0  0  0  0  0
   58.0905   33.6224   43.2730 H   0  0  0  0  0  0  0  0  0  0  0  0
   60.9761   34.4365   45.0366 H   0  0  0  0  0  0  0  0  0  0  0  0
   63.7122   34.4530   45.9481 H   0  0  0  0  0  0  0  0  0  0  0  0
   65.1990   33.6194   47.8069 H   0  0  0  0  0  0  0  0  0  0  0  0
   64.2311   32.2635   49.6802 H   0  0  0  0  0  0  0  0  0  0  0  0
   61.7672   31.7332   49.7165 H   0  0  0  0  0  0  0  0  0  0  0  0
   59.4520   32.0870   48.3080 H   0  0  0  0  0  0  0  0  0  0  0  0
   57.6761   30.7565   46.4927 H   0  0  0  0  0  0  0  0  0  0  0  0
   55.1719   24.4146   47.2286 H   0  0  0  0  0  0  0  0  0  0  0  0
  1  2  1  0
  2  3  1  0
  3  4  2  0
  4  5  1  0
  5  6  2  0
  6  7  1  0
  7  8  2  0
  7  9  1  0
  9 10  1  0
 10 11  2  0
 11 12  1  0
 12 13  2  0
 13 14  1  0
 14 15  1  0
 15 16  2  0
 15 17  1  0
 17 18  2  0
 18 19  1  0
 19 20  2  0
 20 21  1  0
 21 22  2  0
 22 23  1  0
 23 24  2  0
 24 25  1  0
 14 26  2  0
  6 27  1  0
 27 28  1  0
 27 29  2  0
 29  3  1  0
 26 10  1  0
 25 17  1  0
 24 19  1  0
  1 30  1  0
  1 31  1  0
  1 32  1  0
  4 33  1  0
  5 34  1  0
  9 35  1  0
 11 36  1  0
 12 37  1  0
 13 38  1  0
 18 39  1  0
 20 40  1  0
 21 41  1  0
 22 42  1  0
 23 43  1  0
 25 44  1  0
 26 45  1  0
 29 46  1  0
M  CHG  1  28  -1
M  END
>  <UniqueID>  (30) 
26

>  <SMILES>  (30) 
COc1ccc(C(=O)Nc2cccc(C(=O)c3cc4ccccc4[nH]3)c2)c([O-])c1

>  <Energy>  (30) 
94.39586351260002

>  <Genealogy>  (30) 
COc1ccc(C(=O)Nc2cccc(C(=O)c3cc4ccccc4[nH]3)c2)c([O-])c1 (protonated)
COc1ccc(C(=O)Nc2cccc(C(=O)c3cc4ccccc4[nH]3)c2)c([O-])c1 (3D coordinates assigned)
COc1ccc(C(=O)Nc2cccc(C(=O)c3cc4ccccc4[nH]3)c2)c([O-])c1 (optimized conformer: 94.39586351260002 kcal/mol)

>  <smiles>  (30) 
COc1ccc(C(=O)Nc2cccc(C(=O)c3cc4ccccc4[nH]3)c2)c(O)c1

>  <score_type>  (30) 
oracle

>  <origin>  (30) 
adg

>  <m_score__min__energy>  (30) 
-14.050000000000001

>  <m_primary>  (30) 
energy

$$$$
30:0
     RDKit          3D

 41 43  0  0  0  0  0  0  0  0999 V2000
   55.0935   31.5789   52.1205 H   0  0  0  0  0  0  0  0  0  0  0  0
   56.1630   31.3940   51.9420 C   0  0  0  0  0  0  0  0  0  0  0  0
   56.7644   32.1322   51.3912 H   0  0  0  0  0  0  0  0  0  0  0  0
   56.7340   30.2680   52.3960 C   0  0  0  0  0  0  0  0  0  0  0  0
   58.0760   29.9050   52.2420 C   0  0  0  0  0  0  0  0  0  0  0  0
   59.0520   30.6080   51.6340 C   0  0  0  0  0  0  0  0  0  0  0  0
   59.5723   31.3850   52.2132 H   0  0  0  0  0  0  0  0  0  0  0  0
   59.4610   30.3900   50.2280 C   0  0  0  0  0  0  0  0  0  0  0  0
   58.9600   31.2190   49.2150 C   0  0  0  0  0  0  0  0  0  0  0  0
   58.1060   32.2740   49.5190 O   0  0  0  0  0  0  0  0  0  0  0  0
   59.3160   31.0030   47.9220 N   0  0  0  0  0  0  0  0  0  0  0  0
   60.1440   29.9820   47.5840 C   0  0  0  0  0  0  0  0  0  0  0  0
   60.5570   29.7490   46.0220 S   0  0  0  0  0  0  0  0  0  0  0  0
   60.6210   29.1470   48.5430 N   0  0  0  0  0  0  0  0  0  0  0  0
   60.2920   29.3200   49.8500 C   0  0  0  0  0  0  0  0  0  0  0  0
   60.7250   28.5030   50.7070 O   0  0  0  0  0  0  0  0  0  0  0  0
   58.2260   28.6820   52.8780 C   0  0  0  0  0  0  0  0  0  0  0  0
   59.1534   28.0969   52.9654 H   0  0  0  0  0  0  0  0  0  0  0  0
   56.9870   28.3410   53.3800 C   0  0  0  0  0  0  0  0  0  0  0  0
   56.7120   27.0980   54.1710 C   0  0  0  0  0  0  0  0  0  0  0  0
   56.7630   27.3283   55.2454 H   0  0  0  0  0  0  0  0  0  0  0  0
   55.7087   26.7207   53.9241 H   0  0  0  0  0  0  0  0  0  0  0  0
   57.4625   26.3327   53.9241 H   0  0  0  0  0  0  0  0  0  0  0  0
   56.0740   29.3000   53.0870 N   0  0  0  0  0  0  0  0  0  0  0  0
   54.6370   29.2530   53.4040 C   0  0  0  0  0  0  0  0  0  0  0  0
   54.4242   28.3303   53.9637 H   0  0  0  0  0  0  0  0  0  0  0  0
   54.3860   30.1406   54.0034 H   0  0  0  0  0  0  0  0  0  0  0  0
   53.7800   29.2730   52.1300 C   0  0  0  0  0  0  0  0  0  0  0  0
   54.4338   29.4516   51.2636 H   0  0  0  0  0  0  0  0  0  0  0  0
   53.2692   28.3025   52.0457 H   0  0  0  0  0  0  0  0  0  0  0  0
   52.7310   30.3520   52.1800 C   0  0  0  0  0  0  0  0  0  0  0  0
   52.3640   30.9280   53.4080 C   0  0  0  0  0  0  0  0  0  0  0  0
   52.8163   30.5617   54.3414 H   0  0  0  0  0  0  0  0  0  0  0  0
   51.4270   31.9640   53.4490 C   0  0  0  0  0  0  0  0  0  0  0  0
   51.1424   32.4093   54.4137 H   0  0  0  0  0  0  0  0  0  0  0  0
   50.8510   32.4350   52.2660 C   0  0  0  0  0  0  0  0  0  0  0  0
   49.9210   33.4680   52.3130 O   0  0  0  0  0  0  0  0  0  0  0  0
   51.2130   31.8700   51.0370 C   0  0  0  0  0  0  0  0  0  0  0  0
   50.6470   32.3380   49.8580 O   0  0  0  0  0  0  0  0  0  0  0  0
   52.1520   30.8340   50.9940 C   0  0  0  0  0  0  0  0  0  0  0  0
   52.4384   30.3946   50.0271 H   0  0  0  0  0  0  0  0  0  0  0  0
  1  2  1  0
  2  3  1  0
  2  4  2  0
  4  5  1  0
  5  6  2  0
  6  7  1  0
  6  8  1  0
  8  9  2  0
  9 10  1  0
  9 11  1  0
 11 12  1  0
 12 13  2  0
 12 14  1  0
 14 15  1  0
 15 16  2  0
  5 17  1  0
 17 18  1  0
 17 19  2  0
 19 20  1  0
 20 21  1  0
 20 22  1  0
 20 23  1  0
 19 24  1  0
 24 25  1  0
 25 26  1  0
 25 27  1  0
 25 28  1  0
 28 29  1  0
 28 30  1  0
 28 31  1  0
 31 32  2  0
 32 33  1  0
 32 34  1  0
 34 35  1  0
 34 36  2  0
 36 37  1  0
 36 38  1  0
 38 39  1  0
 38 40  2  0
 40 41  1  0
 24  4  1  0
 40 31  1  0
 15  8  1  0
M  CHG  5  10  -1  11  -1  14  -1  37  -1  39  -1
M  END
>  <UniqueID>  (31) 
27

>  <SMILES>  (31) 
C=c1/c(=C/c2c([O-])[n-]c(=S)[n-]c2=O)cc(C)n1CCc1ccc([O-])c([O-])c1

>  <Energy>  (31) 
77.58236552610425

>  <Genealogy>  (31) 
C=c1c(=Cc2c([O-])[n-]c(=S)[n-]c2=O)cc(C)n1CCc1ccc([O-])c([O-])c1 (protonated)
C=c1/c(=C/c2c([O-])[n-]c(=S)[n-]c2=O)cc(C)n1CCc1ccc([O-])c([O-])c1 (cis-trans isomerization)
C=c1/c(=C/c2c([O-])[n-]c(=S)[n-]c2=O)cc(C)n1CCc1ccc([O-])c([O-])c1 (3D coordinates assigned)
C=c1/c(=C/c2c([O-])[n-]c(=S)[n-]c2=O)cc(C)n1CCc1ccc([O-])c([O-])c1 (optimized conformer: 77.58236552610425 kcal/mol)

>  <smiles>  (31) 
C=c1c(=Cc2c(O)[nH]c(=S)[nH]c2=O)cc(C)n1CCc1ccc(O)c(O)c1

>  <score_type>  (31) 
oracle

>  <origin>  (31) 
adg

>  <m_score__min__energy>  (31) 
-18.52

>  <m_primary>  (31) 
energy

$$$$
31:0
     RDKit          3D

 43 45  0  0  0  0  0  0  0  0999 V2000
   58.1910   27.9890   44.1150 O   0  0  0  0  0  0  0  0  0  0  0  0
   57.1970   27.7640   44.8580 C   0  0  0  0  0  0  0  0  0  0  0  0
   56.0650   28.6460   44.8240 N   0  0  0  0  0  0  0  0  0  0  0  0
   56.1080   29.9460   44.1570 C   0  0  0  0  0  0  0  0  0  0  0  0
   57.1430   30.8250   44.8020 C   0  0  0  0  0  0  0  0  0  0  0  0
   57.4530   32.0720   44.2400 C   0  0  0  0  0  0  0  0  0  0  0  0
   58.3950   32.9060   44.8480 C   0  0  0  0  0  0  0  0  0  0  0  0
   59.0390   32.5020   46.0270 C   0  0  0  0  0  0  0  0  0  0  0  0
   60.2400   33.5490   46.7840 S   0  0  0  0  0  0  0  0  0  0  0  0
   59.8500   33.7910   48.2160 O   0  0  0  0  0  0  0  0  0  0  0  0
   60.2370   34.8770   46.0790 O   0  0  0  0  0  0  0  0  0  0  0  0
   61.8560   32.8730   46.7290 N   0  0  0  0  0  0  0  0  0  0  0  0
   62.8880   33.8400   47.1470 C   0  0  0  0  0  0  0  0  0  0  0  0
   63.0410   33.9360   48.6840 C   0  0  0  0  0  0  0  0  0  0  0  0
   62.3280   32.9340   49.3820 O   0  0  0  0  0  0  0  0  0  0  0  0
   62.5970   31.6750   48.8110 C   0  0  0  0  0  0  0  0  0  0  0  0
   61.9540   31.5690   47.4170 C   0  0  0  0  0  0  0  0  0  0  0  0
   58.7190   31.2640   46.5980 C   0  0  0  0  0  0  0  0  0  0  0  0
   57.7770   30.4290   45.9900 C   0  0  0  0  0  0  0  0  0  0  0  0
   57.2050   26.5780   45.7480 C   0  0  0  0  0  0  0  0  0  0  0  0
   56.0050   26.0640   46.2740 C   0  0  0  0  0  0  0  0  0  0  0  0
   54.7850   26.6660   45.9880 O   0  0  0  0  0  0  0  0  0  0  0  0
   56.0290   24.9750   47.0850 N   0  0  0  0  0  0  0  0  0  0  0  0
   57.1970   24.3620   47.4020 C   0  0  0  0  0  0  0  0  0  0  0  0
   57.1940   23.3560   48.1580 O   0  0  0  0  0  0  0  0  0  0  0  0
   58.3670   24.8290   46.9000 N   0  0  0  0  0  0  0  0  0  0  0  0
   58.4000   25.9130   46.0820 C   0  0  0  0  0  0  0  0  0  0  0  0
   59.5070   26.2920   45.6130 O   0  0  0  0  0  0  0  0  0  0  0  0
   55.1680   28.3480   45.2680 H   0  0  0  0  0  0  0  0  0  0  0  0
   56.3628   29.8023   43.0966 H   0  0  0  0  0  0  0  0  0  0  0  0
   55.1228   30.4274   44.2440 H   0  0  0  0  0  0  0  0  0  0  0  0
   56.9519   32.3953   43.3157 H   0  0  0  0  0  0  0  0  0  0  0  0
   58.6324   33.8825   44.4007 H   0  0  0  0  0  0  0  0  0  0  0  0
   63.8523   33.5308   46.7176 H   0  0  0  0  0  0  0  0  0  0  0  0
   62.5757   34.8308   46.7853 H   0  0  0  0  0  0  0  0  0  0  0  0
   64.1080   33.8438   48.9348 H   0  0  0  0  0  0  0  0  0  0  0  0
   62.6243   34.9062   48.9923 H   0  0  0  0  0  0  0  0  0  0  0  0
   63.6853   31.5440   48.7189 H   0  0  0  0  0  0  0  0  0  0  0  0
   62.1752   30.8923   49.4587 H   0  0  0  0  0  0  0  0  0  0  0  0
   62.5627   30.8915   46.8002 H   0  0  0  0  0  0  0  0  0  0  0  0
   60.9305   31.1896   47.5532 H   0  0  0  0  0  0  0  0  0  0  0  0
   59.2112   30.9471   47.5293 H   0  0  0  0  0  0  0  0  0  0  0  0
   57.5317   29.4578   46.4444 H   0  0  0  0  0  0  0  0  0  0  0  0
  1  2  2  0
  2  3  1  0
  3  4  1  0
  4  5  1  0
  5  6  2  0
  6  7  1  0
  7  8  2  0
  8  9  1  0
  9 10  2  0
  9 11  2  0
  9 12  1  0
 12 13  1  0
 13 14  1  0
 14 15  1  0
 15 16  1  0
 16 17  1  0
  8 18  1  0
 18 19  2  0
  2 20  1  0
 20 21  2  0
 21 22  1  0
 21 23  1  0
 23 24  1  0
 24 25  2  0
 24 26  1  0
 26 27  1  0
 27 28  2  0
 19  5  1  0
 27 20  1  0
 17 12  1  0
  3 29  1  0
  4 30  1  0
  4 31  1  0
  6 32  1  0
  7 33  1  0
 13 34  1  0
 13 35  1  0
 14 36  1  0
 14 37  1  0
 16 38  1  0
 16 39  1  0
 17 40  1  0
 17 41  1  0
 18 42  1  0
 19 43  1  0
M  CHG  3  22  -1  23  -1  26  -1
M  END
>  <UniqueID>  (32) 
28

>  <SMILES>  (32) 
O=C(NCc1ccc(S(=O)(=O)N2CCOCC2)cc1)c1c([O-])[n-]c(=O)[n-]c1=O

>  <Energy>  (32) 
59.251100274503365

>  <Genealogy>  (32) 
O=C(NCc1ccc(S(=O)(=O)N2CCOCC2)cc1)c1c([O-])[n-]c(=O)[n-]c1=O (protonated)
O=C(NCc1ccc(S(=O)(=O)N2CCOCC2)cc1)c1c([O-])[n-]c(=O)[n-]c1=O (3D coordinates assigned)
O=C(NCc1ccc(S(=O)(=O)N2CCOCC2)cc1)c1c([O-])[n-]c(=O)[n-]c1=O (nonaromatic ring conformer: 59.251100274503365 kcal/mol)

>  <smiles>  (32) 
O=C(NCc1ccc(S(=O)(=O)N2CCOCC2)cc1)c1c(O)[nH]c(=O)[nH]c1=O

>  <score_type>  (32) 
oracle

>  <origin>  (32) 
adg

>  <m_score__min__energy>  (32) 
-16.57

>  <m_primary>  (32) 
energy

$$$$
32:0
     RDKit          3D

 57 60  0  0  0  0  0  0  0  0999 V2000
   56.5270   24.5370   47.1900 C   0  0  0  0  0  0  0  0  0  0  0  0
   56.3470   25.9070   46.0440 S   0  0  0  0  0  0  0  0  0  0  0  0
   56.7930   25.4940   44.6530 O   0  0  0  0  0  0  0  0  0  0  0  0
   54.8970   26.3160   45.9980 O   0  0  0  0  0  0  0  0  0  0  0  0
   57.2790   27.2570   46.6170 N   0  0  0  0  0  0  0  0  0  0  0  0
   57.3890   28.5120   45.9290 C   0  0  0  0  0  0  0  0  0  0  0  0
   56.7530   28.7040   44.6910 C   0  0  0  0  0  0  0  0  0  0  0  0
   56.8920   29.9040   43.9970 C   0  0  0  0  0  0  0  0  0  0  0  0
   57.7060   30.9270   44.5050 C   0  0  0  0  0  0  0  0  0  0  0  0
   57.9350   32.1310   43.8150 O   0  0  0  0  0  0  0  0  0  0  0  0
   57.4100   33.4110   44.1710 C   0  0  0  0  0  0  0  0  0  0  0  0
   58.2330   34.0990   45.2250 C   0  0  0  0  0  0  0  0  0  0  0  0
   58.9270   35.0930   44.8880 O   0  0  0  0  0  0  0  0  0  0  0  0
   58.2240   33.6470   46.5940 N   0  0  0  0  0  0  0  0  0  0  0  0
   59.0660   34.2030   47.6150 C   0  0  0  0  0  0  0  0  0  0  0  0
   59.6300   35.3240   47.4470 O   0  0  0  0  0  0  0  0  0  0  0  0
   59.2820   33.4720   48.8290 N   0  0  0  0  0  0  0  0  0  0  0  0
   60.2540   33.8930   49.8350 C   0  0  0  0  0  0  0  0  0  0  0  0
   61.6450   33.4980   49.4140 C   0  0  0  0  0  0  0  0  0  0  0  0
   62.7430   33.8210   50.2290 C   0  0  0  0  0  0  0  0  0  0  0  0
   64.0330   33.4370   49.8530 C   0  0  0  0  0  0  0  0  0  0  0  0
   64.2370   32.7290   48.6650 C   0  0  0  0  0  0  0  0  0  0  0  0
   63.1480   32.3970   47.8560 C   0  0  0  0  0  0  0  0  0  0  0  0
   61.8560   32.7790   48.2290 C   0  0  0  0  0  0  0  0  0  0  0  0
   58.3300   30.7490   45.7440 C   0  0  0  0  0  0  0  0  0  0  0  0
   58.1680   29.5590   46.4800 C   0  0  0  0  0  0  0  0  0  0  0  0
   58.8560   29.4240   47.7920 C   0  0  0  0  0  0  0  0  0  0  0  0
   58.8290   30.4670   48.6880 N   0  0  0  0  0  0  0  0  0  0  0  0
   59.4380   30.3830   49.9050 C   0  0  0  0  0  0  0  0  0  0  0  0
   59.4060   31.3530   50.7070 O   0  0  0  0  0  0  0  0  0  0  0  0
   60.0920   29.2020   50.2260 C   0  0  0  0  0  0  0  0  0  0  0  0
   60.7650   28.8960   51.3490 N   0  0  0  0  0  0  0  0  0  0  0  0
   61.2070   27.6300   51.1260 C   0  0  0  0  0  0  0  0  0  0  0  0
   62.0120   26.8820   52.0990 C   0  0  0  0  0  0  0  0  0  0  0  0
   62.3270   27.4110   53.1980 O   0  0  0  0  0  0  0  0  0  0  0  0
   62.4340   25.5880   51.8140 O   0  0  0  0  0  0  0  0  0  0  0  0
   60.8170   27.1440   49.8780 C   0  0  0  0  0  0  0  0  0  0  0  0
   60.1070   28.1790   49.3320 C   0  0  0  0  0  0  0  0  0  0  0  0
   59.5040   28.2630   48.1240 N   0  0  0  0  0  0  0  0  0  0  0  0
   56.4775   24.9136   48.2223 H   0  0  0  0  0  0  0  0  0  0  0  0
   55.7164   23.8120   47.0249 H   0  0  0  0  0  0  0  0  0  0  0  0
   57.4974   24.0460   47.0249 H   0  0  0  0  0  0  0  0  0  0  0  0
   56.1382   27.8975   44.2648 H   0  0  0  0  0  0  0  0  0  0  0  0
   56.3603   30.0500   43.0452 H   0  0  0  0  0  0  0  0  0  0  0  0
   57.3867   34.0449   43.2723 H   0  0  0  0  0  0  0  0  0  0  0  0
   56.4020   33.2556   44.5831 H   0  0  0  0  0  0  0  0  0  0  0  0
   57.6310   32.8260   46.8480 H   0  0  0  0  0  0  0  0  0  0  0  0
   58.7580   32.5740   48.9790 H   0  0  0  0  0  0  0  0  0  0  0  0
   60.2063   34.9858   49.9509 H   0  0  0  0  0  0  0  0  0  0  0  0
   60.0160   33.4025   50.7904 H   0  0  0  0  0  0  0  0  0  0  0  0
   62.5869   34.3773   51.1650 H   0  0  0  0  0  0  0  0  0  0  0  0
   64.8900   33.6925   50.4935 H   0  0  0  0  0  0  0  0  0  0  0  0
   65.2541   32.4337   48.3677 H   0  0  0  0  0  0  0  0  0  0  0  0
   63.3071   31.8343   46.9243 H   0  0  0  0  0  0  0  0  0  0  0  0
   61.0009   32.5142   47.5897 H   0  0  0  0  0  0  0  0  0  0  0  0
   58.9594   31.5538   46.1515 H   0  0  0  0  0  0  0  0  0  0  0  0
   61.0302   26.1595   49.4361 H   0  0  0  0  0  0  0  0  0  0  0  0
  1  2  1  0
  2  3  2  0
  2  4  2  0
  2  5  1  0
  5  6  1  0
  6  7  2  0
  7  8  1  0
  8  9  2  0
  9 10  1  0
 10 11  1  0
 11 12  1  0
 12 13  2  0
 12 14  1  0
 14 15  1  0
 15 16  2  0
 15 17  1  0
 17 18  1  0
 18 19  1  0
 19 20  2  0
 20 21  1  0
 21 22  2  0
 22 23  1  0
 23 24  2  0
  9 25  1  0
 25 26  2  0
 26 27  1  0
 27 28  2  0
 28 29  1  0
 29 30  2  0
 29 31  1  0
 31 32  1  0
 32 33  1  0
 33 34  1  0
 34 35  2  0
 34 36  1  0
 33 37  2  0
 37 38  1  0
 38 39  1  0
 26  6  1  0
 39 27  1  0
 24 19  1  0
 38 31  2  0
  1 40  1  0
  1 41  1  0
  1 42  1  0
  7 43  1  0
  8 44  1  0
 11 45  1  0
 11 46  1  0
 14 47  1  0
 17 48  1  0
 18 49  1  0
 18 50  1  0
 20 51  1  0
 21 52  1  0
 22 53  1  0
 23 54  1  0
 24 55  1  0
 25 56  1  0
 37 57  1  0
M  CHG  4   5  -1  32  -1  36  -1  39  -1
M  END
>  <UniqueID>  (33) 
29

>  <SMILES>  (33) 
CS(=O)(=O)[N-]c1ccc(OCC(=O)NC(=O)NCc2ccccc2)cc1-c1nc(=O)c2[n-]c(C(=O)[O-])cc2[n-]1

>  <Energy>  (33) 
96.38543270358508

>  <Genealogy>  (33) 
CS(=O)(=O)[N-]c1ccc(OCC(=O)NC(=O)NCc2ccccc2)cc1-c1nc(=O)c2[n-]c(C(=O)[O-])cc2[n-]1 (protonated)
CS(=O)(=O)[N-]c1ccc(OCC(=O)NC(=O)NCc2ccccc2)cc1-c1nc(=O)c2[n-]c(C(=O)[O-])cc2[n-]1 (3D coordinates assigned)
CS(=O)(=O)[N-]c1ccc(OCC(=O)NC(=O)NCc2ccccc2)cc1-c1nc(=O)c2[n-]c(C(=O)[O-])cc2[n-]1 (optimized conformer: 96.38543270358508 kcal/mol)

>  <smiles>  (33) 
CS(=O)(=O)Nc1ccc(OCC(=O)NC(=O)NCc2ccccc2)cc1-c1nc(=O)c2[nH]c(C(=O)O)cc2[nH]1

>  <score_type>  (33) 
oracle

>  <origin>  (33) 
adg

>  <m_score__min__energy>  (33) 
-16.27

>  <m_primary>  (33) 
energy

$$$$
33:0
     RDKit          3D

 54 55  0  0  0  0  0  0  0  0999 V2000
   60.1050   29.1670   44.8650 C   0  0  0  0  0  0  0  0  0  0  0  0
   59.0930   28.1400   45.3040 C   0  0  0  0  0  0  0  0  0  0  0  0
   59.5520   26.9600   45.9120 C   0  0  0  0  0  0  0  0  0  0  0  0
   58.6520   25.9890   46.3540 C   0  0  0  0  0  0  0  0  0  0  0  0
   57.2710   26.1870   46.2170 C   0  0  0  0  0  0  0  0  0  0  0  0
   56.3420   25.1710   46.6460 N   0  0  0  0  0  0  0  0  0  0  0  0
   55.8800   24.3920   45.4900 C   0  0  0  0  0  0  0  0  0  0  0  0
   54.3830   24.3700   45.4400 C   0  0  0  0  0  0  0  0  0  0  0  0
   53.7350   25.4330   45.6340 O   0  0  0  0  0  0  0  0  0  0  0  0
   53.7000   23.1320   45.2160 N   0  0  0  0  0  0  0  0  0  0  0  0
   53.4710   22.1380   46.2570 C   0  0  0  0  0  0  0  0  0  0  0  0
   54.7870   21.4670   46.6510 C   0  0  0  0  0  0  0  0  0  0  0  0
   55.5630   22.3180   48.0170 S   0  0  0  0  0  0  0  0  0  0  0  0
   55.3120   21.4270   49.5380 C   0  0  0  0  0  0  0  0  0  0  0  0
   57.0390   22.4230   47.7500 O   0  0  0  0  0  0  0  0  0  0  0  0
   54.9880   23.7010   48.1470 O   0  0  0  0  0  0  0  0  0  0  0  0
   56.8060   27.3660   45.6140 C   0  0  0  0  0  0  0  0  0  0  0  0
   57.7000   28.3530   45.1660 C   0  0  0  0  0  0  0  0  0  0  0  0
   57.0470   29.8290   44.4360 S   0  0  0  0  0  0  0  0  0  0  0  0
   55.6180   30.0300   44.8630 O   0  0  0  0  0  0  0  0  0  0  0  0
   57.0880   29.6870   42.9400 O   0  0  0  0  0  0  0  0  0  0  0  0
   57.9960   31.2090   44.9290 N   0  0  0  0  0  0  0  0  0  0  0  0
   58.1650   31.2090   46.3910 C   0  0  0  0  0  0  0  0  0  0  0  0
   59.1890   32.2820   46.8100 C   0  0  0  0  0  0  0  0  0  0  0  0
   59.3170   33.4090   45.7720 C   0  0  0  0  0  0  0  0  0  0  0  0
   57.9650   33.7140   45.1220 C   0  0  0  0  0  0  0  0  0  0  0  0
   57.3460   32.4550   44.4710 C   0  0  0  0  0  0  0  0  0  0  0  0
   60.5632   29.6320   45.7503 H   0  0  0  0  0  0  0  0  0  0  0  0
   60.8849   28.6789   44.2621 H   0  0  0  0  0  0  0  0  0  0  0  0
   59.6055   29.9397   44.2621 H   0  0  0  0  0  0  0  0  0  0  0  0
   60.6325   26.7993   46.0412 H   0  0  0  0  0  0  0  0  0  0  0  0
   59.0286   25.0628   46.8126 H   0  0  0  0  0  0  0  0  0  0  0  0
   55.5240   25.6210   47.1200 H   0  0  0  0  0  0  0  0  0  0  0  0
   56.8060   24.5350   47.3380 H   0  0  0  0  0  0  0  0  0  0  0  0
   56.2668   24.8488   44.5671 H   0  0  0  0  0  0  0  0  0  0  0  0
   56.2492   23.3601   45.5844 H   0  0  0  0  0  0  0  0  0  0  0  0
   53.0368   22.6306   47.1395 H   0  0  0  0  0  0  0  0  0  0  0  0
   52.7804   21.3723   45.8739 H   0  0  0  0  0  0  0  0  0  0  0  0
   54.5852   20.4263   46.9447 H   0  0  0  0  0  0  0  0  0  0  0  0
   55.4676   21.5014   45.7875 H   0  0  0  0  0  0  0  0  0  0  0  0
   55.5005   22.0962   50.3904 H   0  0  0  0  0  0  0  0  0  0  0  0
   54.2757   21.0607   49.5816 H   0  0  0  0  0  0  0  0  0  0  0  0
   56.0047   20.5736   49.5816 H   0  0  0  0  0  0  0  0  0  0  0  0
   55.7239   27.5198   45.4901 H   0  0  0  0  0  0  0  0  0  0  0  0
   57.1976   31.4243   46.8683 H   0  0  0  0  0  0  0  0  0  0  0  0
   58.5302   30.2215   46.7094 H   0  0  0  0  0  0  0  0  0  0  0  0
   58.8705   32.7189   47.7680 H   0  0  0  0  0  0  0  0  0  0  0  0
   60.1705   31.7928   46.8958 H   0  0  0  0  0  0  0  0  0  0  0  0
   59.6891   34.3163   46.2704 H   0  0  0  0  0  0  0  0  0  0  0  0
   60.0170   33.0847   44.9879 H   0  0  0  0  0  0  0  0  0  0  0  0
   57.2765   34.0922   45.8920 H   0  0  0  0  0  0  0  0  0  0  0  0
   58.1251   34.4641   44.3335 H   0  0  0  0  0  0  0  0  0  0  0  0
   56.2776   32.4122   44.7294 H   0  0  0  0  0  0  0  0  0  0  0  0
   57.4938   32.5314   43.3837 H   0  0  0  0  0  0  0  0  0  0  0  0
  1  2  1  0
  2  3  2  0
  3  4  1  0
  4  5  2  0
  5  6  1  0
  6  7  1  0
  7  8  1  0
  8  9  2  0
  8 10  1  0
 10 11  1  0
 11 12  1  0
 12 13  1  0
 13 14  1  0
 13 15  2  0
 13 16  2  0
  5 17  1  0
 17 18  2  0
 18 19  1  0
 19 20  2  0
 19 21  2  0
 19 22  1  0
 22 23  1  0
 23 24  1  0
 24 25  1  0
 25 26  1  0
 26 27  1  0
 18  2  1  0
 27 22  1  0
  1 28  1  0
  1 29  1  0
  1 30  1  0
  3 31  1  0
  4 32  1  0
  6 33  1  0
  6 34  1  0
  7 35  1  0
  7 36  1  0
 11 37  1  0
 11 38  1  0
 12 39  1  0
 12 40  1  0
 14 41  1  0
 14 42  1  0
 14 43  1  0
 17 44  1  0
 23 45  1  0
 23 46  1  0
 24 47  1  0
 24 48  1  0
 25 49  1  0
 25 50  1  0
 26 51  1  0
 26 52  1  0
 27 53  1  0
 27 54  1  0
M  CHG  2   6   1  10  -1
M  END
>  <UniqueID>  (34) 
30

>  <SMILES>  (34) 
Cc1ccc([NH2+]CC(=O)[N-]CCS(C)(=O)=O)cc1S(=O)(=O)N1CCCCC1

>  <Energy>  (34) 
43.428217437199415

>  <Genealogy>  (34) 
Cc1ccc([NH2+]CC(=O)[N-]CCS(C)(=O)=O)cc1S(=O)(=O)N1CCCCC1 (protonated)
Cc1ccc([NH2+]CC(=O)[N-]CCS(C)(=O)=O)cc1S(=O)(=O)N1CCCCC1 (3D coordinates assigned)
Cc1ccc([NH2+]CC(=O)[N-]CCS(C)(=O)=O)cc1S(=O)(=O)N1CCCCC1 (nonaromatic ring conformer: 43.428217437199415 kcal/mol)

>  <smiles>  (34) 
Cc1ccc(NCC(=O)NCCS(C)(=O)=O)cc1S(=O)(=O)N1CCCCC1

>  <score_type>  (34) 
oracle

>  <origin>  (34) 
adg

>  <m_score__min__energy>  (34) 
-10.34

>  <m_primary>  (34) 
energy

$$$$
34:0
     RDKit          3D

 71 75  0  0  0  0  0  0  0  0999 V2000
   56.2740   31.7340   44.8070 O   0  0  0  0  0  0  0  0  0  0  0  0
   57.4400   31.3530   45.0800 C   0  0  0  0  0  0  0  0  0  0  0  0
   57.7970   29.9870   44.8040 N   0  0  0  0  0  0  0  0  0  0  0  0
   58.0330   28.8520   45.6610 C   0  0  0  0  0  0  0  0  0  0  0  0
   57.1340   27.7800   45.5690 C   0  0  0  0  0  0  0  0  0  0  0  0
   57.2600   26.6660   46.4020 C   0  0  0  0  0  0  0  0  0  0  0  0
   58.2800   26.6170   47.3530 C   0  0  0  0  0  0  0  0  0  0  0  0
   59.1960   27.6730   47.4590 C   0  0  0  0  0  0  0  0  0  0  0  0
   60.2860   27.6410   48.5000 C   0  0  0  0  0  0  0  0  0  0  0  0
   60.1000   28.7220   49.4910 N   0  0  0  0  0  0  0  0  0  0  0  0
   61.1760   29.7160   49.3690 C   0  0  0  0  0  0  0  0  0  0  0  0
   61.1020   30.6810   50.5540 C   0  0  0  0  0  0  0  0  0  0  0  0
   59.7400   31.2080   50.7790 N   0  0  0  0  0  0  0  0  0  0  0  0
   59.2830   31.2190   52.1860 C   0  0  0  0  0  0  0  0  0  0  0  0
   57.8530   30.7550   52.3610 C   0  0  0  0  0  0  0  0  0  0  0  0
   56.7800   31.6320   52.1240 C   0  0  0  0  0  0  0  0  0  0  0  0
   55.4610   31.1900   52.2590 C   0  0  0  0  0  0  0  0  0  0  0  0
   55.1990   29.8730   52.6430 C   0  0  0  0  0  0  0  0  0  0  0  0
   53.9170   29.4510   52.7860 F   0  0  0  0  0  0  0  0  0  0  0  0
   56.2570   28.9880   52.8620 C   0  0  0  0  0  0  0  0  0  0  0  0
   57.5780   29.4210   52.7080 C   0  0  0  0  0  0  0  0  0  0  0  0
   58.7220   30.8420   49.7750 C   0  0  0  0  0  0  0  0  0  0  0  0
   58.7610   29.3500   49.3650 C   0  0  0  0  0  0  0  0  0  0  0  0
   59.0940   28.7710   46.5880 C   0  0  0  0  0  0  0  0  0  0  0  0
   58.3840   32.3450   45.6100 C   0  0  0  0  0  0  0  0  0  0  0  0
   59.5450   31.9000   46.2640 C   0  0  0  0  0  0  0  0  0  0  0  0
   60.4650   32.8360   46.7600 C   0  0  0  0  0  0  0  0  0  0  0  0
   61.7050   32.3830   47.4340 C   0  0  0  0  0  0  0  0  0  0  0  0
   62.2080   31.2720   47.1180 O   0  0  0  0  0  0  0  0  0  0  0  0
   62.3430   33.1760   48.4520 N   0  0  0  0  0  0  0  0  0  0  0  0
   63.7850   33.4240   48.4000 C   0  0  0  0  0  0  0  0  0  0  0  0
   64.3590   33.4240   49.8220 C   0  0  0  0  0  0  0  0  0  0  0  0
   63.6320   34.3070   50.6570 O   0  0  0  0  0  0  0  0  0  0  0  0
   62.3050   33.8380   50.8100 C   0  0  0  0  0  0  0  0  0  0  0  0
   61.5570   33.8760   49.4730 C   0  0  0  0  0  0  0  0  0  0  0  0
   60.2170   34.2010   46.5600 C   0  0  0  0  0  0  0  0  0  0  0  0
   59.0450   34.6050   45.9210 C   0  0  0  0  0  0  0  0  0  0  0  0
   58.1450   33.6870   45.4710 N   0  0  0  0  0  0  0  0  0  0  0  0
   56.9970   34.1570   44.8640 O   0  0  0  0  0  0  0  0  0  0  0  0
   56.3189   27.8168   44.8312 H   0  0  0  0  0  0  0  0  0  0  0  0
   56.5549   25.8269   46.3083 H   0  0  0  0  0  0  0  0  0  0  0  0
   58.3656   25.7475   48.0213 H   0  0  0  0  0  0  0  0  0  0  0  0
   60.2621   26.6703   49.0169 H   0  0  0  0  0  0  0  0  0  0  0  0
   61.2548   27.7856   47.9994 H   0  0  0  0  0  0  0  0  0  0  0  0
   62.1506   29.2059   49.3695 H   0  0  0  0  0  0  0  0  0  0  0  0
   61.0602   30.2743   48.4283 H   0  0  0  0  0  0  0  0  0  0  0  0
   61.4276   30.1499   51.4606 H   0  0  0  0  0  0  0  0  0  0  0  0
   61.7547   31.5365   50.3257 H   0  0  0  0  0  0  0  0  0  0  0  0
   59.9380   30.5556   52.7698 H   0  0  0  0  0  0  0  0  0  0  0  0
   59.3290   32.2620   52.5325 H   0  0  0  0  0  0  0  0  0  0  0  0
   56.9799   32.6731   51.8303 H   0  0  0  0  0  0  0  0  0  0  0  0
   54.6277   31.8807   52.0624 H   0  0  0  0  0  0  0  0  0  0  0  0
   56.0510   27.9483   53.1562 H   0  0  0  0  0  0  0  0  0  0  0  0
   58.4065   28.7134   52.8593 H   0  0  0  0  0  0  0  0  0  0  0  0
   57.7281   31.0617   50.1921 H   0  0  0  0  0  0  0  0  0  0  0  0
   58.9367   31.4298   48.8703 H   0  0  0  0  0  0  0  0  0  0  0  0
   58.0584   28.7971   50.0058 H   0  0  0  0  0  0  0  0  0  0  0  0
   58.4890   29.3063   48.3001 H   0  0  0  0  0  0  0  0  0  0  0  0
   59.8461   29.5727   46.6290 H   0  0  0  0  0  0  0  0  0  0  0  0
   59.7319   30.8229   46.3866 H   0  0  0  0  0  0  0  0  0  0  0  0
   64.2712   32.6338   47.8090 H   0  0  0  0  0  0  0  0  0  0  0  0
   63.9707   34.4017   47.9313 H   0  0  0  0  0  0  0  0  0  0  0  0
   64.2998   32.4062   50.2349 H   0  0  0  0  0  0  0  0  0  0  0  0
   65.4057   33.7595   49.7800 H   0  0  0  0  0  0  0  0  0  0  0  0
   62.3289   32.8026   51.1806 H   0  0  0  0  0  0  0  0  0  0  0  0
   61.7813   34.4888   51.5257 H   0  0  0  0  0  0  0  0  0  0  0  0
   60.5802   33.3829   49.5854 H   0  0  0  0  0  0  0  0  0  0  0  0
   61.4073   34.9218   49.1667 H   0  0  0  0  0  0  0  0  0  0  0  0
   60.9440   34.9507   46.9057 H   0  0  0  0  0  0  0  0  0  0  0  0
   58.8452   35.6773   45.7788 H   0  0  0  0  0  0  0  0  0  0  0  0
   56.2700   33.5440   44.5250 H   0  0  0  0  0  0  0  0  0  0  0  0
  1  2  2  0
  2  3  1  0
  3  4  1  0
  4  5  2  0
  5  6  1  0
  6  7  2  0
  7  8  1  0
  8  9  1  0
  9 10  1  0
 10 11  1  0
 11 12  1  0
 12 13  1  0
 13 14  1  0
 14 15  1  0
 15 16  2  0
 16 17  1  0
 17 18  2  0
 18 19  1  0
 18 20  1  0
 20 21  2  0
 13 22  1  0
 22 23  1  0
  8 24  2  0
  2 25  1  0
 25 26  2  0
 26 27  1  0
 27 28  1  0
 28 29  2  0
 28 30  1  0
 30 31  1  0
 31 32  1  0
 32 33  1  0
 33 34  1  0
 34 35  1  0
 27 36  2  0
 36 37  1  0
 37 38  2  0
 38 39  1  0
 24  4  1  0
 38 25  1  0
 23 10  1  0
 35 30  1  0
 21 15  1  0
  5 40  1  0
  6 41  1  0
  7 42  1  0
  9 43  1  0
  9 44  1  0
 11 45  1  0
 11 46  1  0
 12 47  1  0
 12 48  1  0
 14 49  1  0
 14 50  1  0
 16 51  1  0
 17 52  1  0
 20 53  1  0
 21 54  1  0
 22 55  1  0
 22 56  1  0
 23 57  1  0
 23 58  1  0
 24 59  1  0
 26 60  1  0
 31 61  1  0
 31 62  1  0
 32 63  1  0
 32 64  1  0
 34 65  1  0
 34 66  1  0
 35 67  1  0
 35 68  1  0
 36 69  1  0
 37 70  1  0
 39 71  1  0
M  CHG  2   3  -1  38   1
M  END
>  <UniqueID>  (35) 
31

>  <SMILES>  (35) 
O=C([N-]c1cccc(CN2CCN(Cc3ccc(F)cc3)CC2)c1)c1cc(C(=O)N2CCOCC2)cc[n+]1O

>  <Energy>  (35) 
110.34339849356095

>  <Genealogy>  (35) 
O=C([N-]c1cccc(CN2CCN(Cc3ccc(F)cc3)CC2)c1)c1cc(C(=O)N2CCOCC2)cc[n+]1O (protonated)
O=C([N-]c1cccc(CN2CCN(Cc3ccc(F)cc3)CC2)c1)c1cc(C(=O)N2CCOCC2)cc[n+]1O (3D coordinates assigned)
O=C([N-]c1cccc(CN2CCN(Cc3ccc(F)cc3)CC2)c1)c1cc(C(=O)N2CCOCC2)cc[n+]1O (nonaromatic ring conformer: 110.34339849356095 kcal/mol)

>  <smiles>  (35) 
O=C(Nc1cccc(CN2CCN(Cc3ccc(F)cc3)CC2)c1)c1cc(C(=O)N2CCOCC2)cc[n+]1[O-]

>  <score_type>  (35) 
oracle

>  <origin>  (35) 
adg

>  <m_score__min__energy>  (35) 
-10.02

>  <m_primary>  (35) 
energy

$$$$
35:0
     RDKit          3D

 49 52  0  0  1  0  0  0  0  0999 V2000
   58.1940   25.6920   47.5130 C   0  0  0  0  0  0  0  0  0  0  0  0
   58.1430   26.7970   46.4860 C   0  0  0  0  0  0  0  0  0  0  0  0
   59.0750   27.9550   46.7020 C   0  0  0  0  0  0  0  0  0  0  0  0
   59.7730   28.2310   47.8620 C   0  0  0  0  0  0  0  0  0  0  0  0
   61.7440   33.4000   47.1630 C   0  0  0  0  0  0  0  0  0  0  0  0
   61.2590   34.2350   46.2970 N   0  0  0  0  0  0  0  0  0  0  0  0
   61.7750   31.2900   48.2330 C   0  0  0  0  0  0  0  0  0  0  0  0
   61.2450   32.1460   47.3140 N   0  0  0  0  0  0  0  0  0  0  0  0
   60.4900   29.3780   47.5910 C   0  0  0  0  0  0  0  0  0  0  0  0
   61.2700   29.9710   48.4110 N   0  0  0  0  0  0  0  0  0  0  0  0
   59.8700   34.6660   46.3360 C   0  0  0  0  0  0  0  0  0  0  0  0
   59.0520   33.5670   45.7580 C   0  0  0  0  0  0  0  0  0  0  0  0
   58.8350   33.6120   44.3860 C   0  0  0  0  0  0  0  0  0  0  0  0
   58.0820   32.6150   43.8070 C   0  0  0  0  0  0  0  0  0  0  0  0
   57.5380   31.5760   44.5320 C   0  0  0  0  0  0  0  0  0  0  0  0
   56.5840   30.3280   43.7350 S   0  0  0  0  0  0  0  0  0  0  0  0
   57.5150   28.8990   43.5680 N   0  0  0  0  0  0  0  0  0  0  0  0
   55.3280   30.0650   44.5000 O   0  0  0  0  0  0  0  0  0  0  0  0
   56.2960   30.8430   42.3540 O   0  0  0  0  0  0  0  0  0  0  0  0
   57.7740   31.5630   45.8870 C   0  0  0  0  0  0  0  0  0  0  0  0
   58.5240   32.5430   46.5130 C   0  0  0  0  0  0  0  0  0  0  0  0
   62.7740   33.8420   47.9090 N   0  0  0  0  0  0  0  0  0  0  0  0
   63.3180   33.0050   48.8310 C   0  0  0  0  0  0  0  0  0  0  0  0
   62.8420   31.7180   49.0210 C   0  0  0  0  0  0  0  0  0  0  0  0
   63.4010   30.8830   49.9570 F   0  0  0  0  0  0  0  0  0  0  0  0
   60.2350   29.7800   46.3210 N   0  0  0  0  0  0  0  0  0  0  0  0
   59.3750   28.9130   45.7790 N   0  0  0  0  0  0  0  0  0  0  0  0
   56.8540   27.0590   45.8480 C   0  0  0  0  0  0  0  0  0  0  0  0
   57.9410   26.3620   45.0780 C   0  0  0  0  0  0  0  0  0  0  0  0
   58.1739   26.1285   48.5225 H   0  0  0  0  0  0  0  0  0  0  0  0
   57.3255   25.0297   47.3825 H   0  0  0  0  0  0  0  0  0  0  0  0
   59.1198   25.1125   47.3825 H   0  0  0  0  0  0  0  0  0  0  0  0
   59.7598   27.6584   48.8011 H   0  0  0  0  0  0  0  0  0  0  0  0
   59.5638   34.8573   47.3751 H   0  0  0  0  0  0  0  0  0  0  0  0
   59.7337   35.5961   45.7648 H   0  0  0  0  0  0  0  0  0  0  0  0
   59.2552   34.4255   43.7764 H   0  0  0  0  0  0  0  0  0  0  0  0
   57.9073   32.6489   42.7215 H   0  0  0  0  0  0  0  0  0  0  0  0
   58.1550   29.0220   42.7460 H   0  0  0  0  0  0  0  0  0  0  0  0
   56.8650   28.1130   43.3370 H   0  0  0  0  0  0  0  0  0  0  0  0
   57.3528   30.7470   46.4927 H   0  0  0  0  0  0  0  0  0  0  0  0
   58.6962   32.5048   47.5988 H   0  0  0  0  0  0  0  0  0  0  0  0
   63.1710   34.8020   47.8060 H   0  0  0  0  0  0  0  0  0  0  0  0
   64.1600   33.3594   49.4437 H   0  0  0  0  0  0  0  0  0  0  0  0
   60.6380   30.6220   45.8360 H   0  0  0  0  0  0  0  0  0  0  0  0
   59.0020   28.9760   44.8050 H   0  0  0  0  0  0  0  0  0  0  0  0
   55.9606   26.5009   46.1648 H   0  0  0  0  0  0  0  0  0  0  0  0
   56.2369   27.9545   45.6828 H   0  0  0  0  0  0  0  0  0  0  0  0
   57.8503   25.2928   44.8360 H   0  0  0  0  0  0  0  0  0  0  0  0
   58.4581   26.5287   44.1215 H   0  0  0  0  0  0  0  0  0  0  0  0
  1  2  1  0
  2  3  1  0
  3  4  2  0
  4  5  1  0
  5  6  2  0
  6  7  1  0
  7  8  2  0
  8  9  1  0
  9 10  2  0
 10 11  1  0
 11 12  1  0
 12 13  2  0
 13 14  1  0
 14 15  2  0
 15 16  1  0
 16 17  1  0
 16 18  2  0
 16 19  2  0
 15 20  1  0
 20 21  2  0
  9 22  1  0
 22 23  1  0
 23 24  2  0
 24 25  1  0
  5 26  1  0
 26 27  1  0
  2 28  1  0
 28 29  1  0
 29  2  1  0
 27  3  1  0
 24  7  1  0
 21 12  1  0
  1 30  1  0
  1 31  1  0
  1 32  1  0
  4 33  1  0
 11 34  1  0
 11 35  1  0
 13 36  1  0
 14 37  1  0
 17 38  1  0
 17 39  1  0
 20 40  1  0
 21 41  1  0
 22 42  1  0
 23 43  1  0
 26 44  1  0
 27 45  1  0
 28 46  1  0
 28 47  1  0
 29 48  1  0
 29 49  1  0
M  END
>  <smiles>  (36) 
CC1(c2cc(=Nc3nc(=NCc4ccc(S(N)(=O)=O)cc4)[nH]cc3F)[nH][nH]2)CC1

>  <score_type>  (36) 
oracle

>  <origin>  (36) 
adg

>  <m_score__min__energy>  (36) 
-9.6699999999999999

>  <m_primary>  (36) 
energy

$$$$
36:0
     RDKit          3D

 29 29  0  0  0  0  0  0  0  0999 V2000
   55.1260   27.4640   45.4910 H   0  0  0  0  0  0  0  0  0  0  0  0
   54.8680   26.6390   46.0170 O   0  0  0  0  0  0  0  0  0  0  0  0
   55.7750   25.6180   46.1800 N   0  0  0  0  0  0  0  0  0  0  0  0
   57.0260   25.7960   45.9030 C   0  0  0  0  0  0  0  0  0  0  0  0
   57.5771   25.0199   45.3517 H   0  0  0  0  0  0  0  0  0  0  0  0
   57.7220   27.0300   46.3190 C   0  0  0  0  0  0  0  0  0  0  0  0
   58.4840   26.9520   47.4950 C   0  0  0  0  0  0  0  0  0  0  0  0
   58.3658   26.0876   48.1649 H   0  0  0  0  0  0  0  0  0  0  0  0
   59.3880   27.9590   47.8210 C   0  0  0  0  0  0  0  0  0  0  0  0
   59.9774   27.8983   48.7478 H   0  0  0  0  0  0  0  0  0  0  0  0
   59.5380   29.0420   46.9630 C   0  0  0  0  0  0  0  0  0  0  0  0
   60.2890   29.8158   47.1803 H   0  0  0  0  0  0  0  0  0  0  0  0
   58.7580   29.1450   45.8570 N   0  0  0  0  0  0  0  0  0  0  0  0
   57.8220   28.2130   45.5230 C   0  0  0  0  0  0  0  0  0  0  0  0
   57.0500   28.4890   44.5060 N   0  0  0  0  0  0  0  0  0  0  0  0
   56.0620   29.5180   44.3650 C   0  0  0  0  0  0  0  0  0  0  0  0
   54.8860   29.3390   44.7820 O   0  0  0  0  0  0  0  0  0  0  0  0
   56.4580   30.8570   43.8330 C   0  0  0  0  0  0  0  0  0  0  0  0
   55.5637   31.3966   43.4880 H   0  0  0  0  0  0  0  0  0  0  0  0
   57.1510   30.7325   42.9879 H   0  0  0  0  0  0  0  0  0  0  0  0
   57.0860   31.5900   44.8630 O   0  0  0  0  0  0  0  0  0  0  0  0
   58.2100   32.2920   44.3640 C   0  0  2  0  0  0  0  0  0  0  0  0
   59.1337   31.7565   44.6287 H   0  0  0  0  0  0  0  0  0  0  0  0
   58.2510   33.6420   44.9500 C   0  0  0  0  0  0  0  0  0  0  0  0
   58.2830   34.7020   45.4120 N   0  0  0  0  0  0  0  0  0  0  0  0
   58.0820   32.4010   42.8480 C   0  0  0  0  0  0  0  0  0  0  0  0
   57.2665   33.0955   42.5979 H   0  0  0  0  0  0  0  0  0  0  0  0
   59.0259   32.7769   42.4264 H   0  0  0  0  0  0  0  0  0  0  0  0
   57.8613   31.4093   42.4264 H   0  0  0  0  0  0  0  0  0  0  0  0
  1  2  1  0
  2  3  1  0
  3  4  2  3
  4  5  1  0
  4  6  1  0
  6  7  2  0
  7  8  1  0
  7  9  1  0
  9 10  1  0
  9 11  2  0
 11 12  1  0
 11 13  1  0
 13 14  1  0
 14 15  2  0
 15 16  1  0
 16 17  2  0
 16 18  1  0
 18 19  1  0
 18 20  1  0
 18 21  1  0
 21 22  1  0
 22 23  1  6
 22 24  1  0
 24 25  3  0
 22 26  1  0
 26 27  1  0
 26 28  1  0
 26 29  1  0
 14  6  1  0
M  CHG  1  13  -1
M  END
>  <UniqueID>  (37) 
32

>  <SMILES>  (37) 
C[C@@H](C#N)OCC(=O)/N=c1/[n-]cccc1C=NO

>  <Energy>  (37) 
42.91315169953198

>  <Genealogy>  (37) 
CC(C#N)OCC(=O)N=c1[n-]cccc1C=NO (protonated)
C[C@@H](C#N)OCC(=O)N=c1[n-]cccc1C=NO (chirality)
C[C@@H](C#N)OCC(=O)/N=c1/[n-]cccc1C=NO (cis-trans isomerization)
C[C@@H](C#N)OCC(=O)/N=c1/[n-]cccc1C=NO (3D coordinates assigned)
C[C@@H](C#N)OCC(=O)/N=c1/[n-]cccc1C=NO (optimized conformer: 42.91315169953198 kcal/mol)

>  <smiles>  (37) 
CC(C#N)OCC(=O)N=c1[nH]cccc1C=NO

>  <score_type>  (37) 
oracle

>  <origin>  (37) 
adg

>  <m_score__min__energy>  (37) 
-8.5999999999999996

>  <m_primary>  (37) 
energy

$$$$
37:0
     RDKit          3D

 53 56  0  0  0  0  0  0  0  0999 V2000
   51.5980   24.0890   44.4590 C   0  0  0  0  0  0  0  0  0  0  0  0
   52.6090   23.1530   44.8190 O   0  0  0  0  0  0  0  0  0  0  0  0
   53.7020   23.4480   45.6470 C   0  0  0  0  0  0  0  0  0  0  0  0
   53.9300   22.7760   46.8640 C   0  0  0  0  0  0  0  0  0  0  0  0
   55.0280   23.1160   47.6580 C   0  0  0  0  0  0  0  0  0  0  0  0
   55.9120   24.1150   47.2460 C   0  0  0  0  0  0  0  0  0  0  0  0
   55.7120   24.7770   46.0210 C   0  0  0  0  0  0  0  0  0  0  0  0
   56.5900   25.8270   45.5830 N   0  0  0  0  0  0  0  0  0  0  0  0
   57.7020   26.3240   46.3500 C   0  0  0  0  0  0  0  0  0  0  0  0
   57.9250   25.8870   47.5100 O   0  0  0  0  0  0  0  0  0  0  0  0
   58.5570   27.3450   45.8250 N   0  0  0  0  0  0  0  0  0  0  0  0
   58.1660   28.6890   45.5150 C   0  0  0  0  0  0  0  0  0  0  0  0
   57.0220   28.9620   44.7470 C   0  0  0  0  0  0  0  0  0  0  0  0
   56.6880   30.2790   44.4250 C   0  0  0  0  0  0  0  0  0  0  0  0
   57.4930   31.3390   44.8650 C   0  0  0  0  0  0  0  0  0  0  0  0
   58.6530   31.0730   45.6110 C   0  0  0  0  0  0  0  0  0  0  0  0
   58.9930   29.7460   45.9160 C   0  0  0  0  0  0  0  0  0  0  0  0
   59.5740   32.2000   46.0110 C   0  0  0  0  0  0  0  0  0  0  0  0
   58.8750   33.4930   46.1410 N   0  0  0  0  0  0  0  0  0  0  0  0
   59.6100   34.6100   46.6840 C   0  0  0  0  0  0  0  0  0  0  0  0
   59.6220   35.7080   46.0660 O   0  0  0  0  0  0  0  0  0  0  0  0
   60.3120   34.5200   47.9320 N   0  0  0  0  0  0  0  0  0  0  0  0
   61.5910   33.9050   48.1310 C   0  0  0  0  0  0  0  0  0  0  0  0
   62.4460   33.7730   47.0290 C   0  0  0  0  0  0  0  0  0  0  0  0
   63.7090   33.1970   47.1780 C   0  0  0  0  0  0  0  0  0  0  0  0
   64.1210   32.7280   48.4280 C   0  0  0  0  0  0  0  0  0  0  0  0
   63.2620   32.8220   49.5260 C   0  0  0  0  0  0  0  0  0  0  0  0
   61.9940   33.3980   49.3870 C   0  0  0  0  0  0  0  0  0  0  0  0
   60.8300   33.3830   50.9110 Br  0  0  0  0  0  0  0  0  0  0  0  0
   57.4870   33.6760   45.6810 C   0  0  0  0  0  0  0  0  0  0  0  0
   57.1640   32.7560   44.5050 C   0  0  0  0  0  0  0  0  0  0  0  0
   54.5930   24.4490   45.2420 C   0  0  0  0  0  0  0  0  0  0  0  0
   51.1453   24.5081   45.3697 H   0  0  0  0  0  0  0  0  0  0  0  0
   52.0440   24.9000   43.8646 H   0  0  0  0  0  0  0  0  0  0  0  0
   50.8237   23.5819   43.8646 H   0  0  0  0  0  0  0  0  0  0  0  0
   53.2420   21.9819   47.1897 H   0  0  0  0  0  0  0  0  0  0  0  0
   55.1968   22.5945   48.6117 H   0  0  0  0  0  0  0  0  0  0  0  0
   56.7680   24.3854   47.8816 H   0  0  0  0  0  0  0  0  0  0  0  0
   56.4490   26.1940   44.6170 H   0  0  0  0  0  0  0  0  0  0  0  0
   56.3866   28.1348   44.3978 H   0  0  0  0  0  0  0  0  0  0  0  0
   55.7901   30.4855   43.8240 H   0  0  0  0  0  0  0  0  0  0  0  0
   59.9166   29.5342   46.4746 H   0  0  0  0  0  0  0  0  0  0  0  0
   60.0342   31.9508   46.9785 H   0  0  0  0  0  0  0  0  0  0  0  0
   60.3266   32.3096   45.2163 H   0  0  0  0  0  0  0  0  0  0  0  0
   62.1199   34.1257   46.0394 H   0  0  0  0  0  0  0  0  0  0  0  0
   64.3802   33.1123   46.3107 H   0  0  0  0  0  0  0  0  0  0  0  0
   65.1208   32.2851   48.5476 H   0  0  0  0  0  0  0  0  0  0  0  0
   63.5844   32.4408   50.5062 H   0  0  0  0  0  0  0  0  0  0  0  0
   56.8019   33.4495   46.5113 H   0  0  0  0  0  0  0  0  0  0  0  0
   57.3667   34.7178   45.3489 H   0  0  0  0  0  0  0  0  0  0  0  0
   56.0934   32.8327   44.2645 H   0  0  0  0  0  0  0  0  0  0  0  0
   57.7620   33.0577   43.6324 H   0  0  0  0  0  0  0  0  0  0  0  0
   54.4127   24.9860   44.2991 H   0  0  0  0  0  0  0  0  0  0  0  0
  1  2  1  0
  2  3  1  0
  3  4  2  0
  4  5  1  0
  5  6  2  0
  6  7  1  0
  7  8  1  0
  8  9  1  0
  9 10  2  0
  9 11  1  0
 11 12  1  0
 12 13  2  0
 13 14  1  0
 14 15  2  0
 15 16  1  0
 16 17  2  0
 16 18  1  0
 18 19  1  0
 19 20  1  0
 20 21  2  0
 20 22  1  0
 22 23  1  0
 23 24  2  0
 24 25  1  0
 25 26  2  0
 26 27  1  0
 27 28  2  0
 28 29  1  0
 19 30  1  0
 30 31  1  0
  7 32  2  0
 32  3  1  0
 17 12  1  0
 28 23  1  0
 31 15  1  0
  1 33  1  0
  1 34  1  0
  1 35  1  0
  4 36  1  0
  5 37  1  0
  6 38  1  0
  8 39  1  0
 13 40  1  0
 14 41  1  0
 17 42  1  0
 18 43  1  0
 18 44  1  0
 24 45  1  0
 25 46  1  0
 26 47  1  0
 27 48  1  0
 30 49  1  0
 30 50  1  0
 31 51  1  0
 31 52  1  0
 32 53  1  0
M  CHG  2  11  -1  22  -1
M  END
>  <UniqueID>  (38) 
33

>  <SMILES>  (38) 
COc1cccc(NC(=O)[N-]c2ccc3c(c2)CN(C(=O)[N-]c2ccccc2Br)CC3)c1

>  <Energy>  (38) 
74.92227951692753

>  <Genealogy>  (38) 
COc1cccc(NC(=O)[N-]c2ccc3c(c2)CN(C(=O)[N-]c2ccccc2Br)CC3)c1 (protonated)
COc1cccc(NC(=O)[N-]c2ccc3c(c2)CN(C(=O)[N-]c2ccccc2Br)CC3)c1 (3D coordinates assigned)
COc1cccc(NC(=O)[N-]c2ccc3c(c2)CN(C(=O)[N-]c2ccccc2Br)CC3)c1 (nonaromatic ring conformer: 74.92227951692753 kcal/mol)

>  <smiles>  (38) 
COc1cccc(NC(=O)Nc2ccc3c(c2)CN(C(=O)Nc2ccccc2Br)CC3)c1

>  <score_type>  (38) 
oracle

>  <origin>  (38) 
adg

>  <m_score__min__energy>  (38) 
-12.76

>  <m_primary>  (38) 
energy

$$$$
38:0
     RDKit          3D

 36 38  0  0  0  0  0  0  0  0999 V2000
   55.5540   21.4400   44.5500 O   0  0  0  0  0  0  0  0  0  0  0  0
   55.9950   21.2310   45.6690 C   0  0  0  0  0  0  0  0  0  0  0  0
   56.7910   22.2900   46.3700 C   0  0  0  0  0  0  0  0  0  0  0  0
   56.7390   23.5440   45.6250 N   0  0  0  0  0  0  0  0  0  0  0  0
   57.2060   23.7560   44.2890 C   0  0  0  0  0  0  0  0  0  0  0  0
   57.4830   22.8310   43.4800 O   0  0  0  0  0  0  0  0  0  0  0  0
   57.3440   25.1850   44.0280 C   0  0  0  0  0  0  0  0  0  0  0  0
   57.7700   25.8630   42.8890 C   0  0  0  0  0  0  0  0  0  0  0  0
   57.8310   27.2660   42.9390 C   0  0  0  0  0  0  0  0  0  0  0  0
   57.4570   27.9680   44.1160 C   0  0  0  0  0  0  0  0  0  0  0  0
   57.5410   29.4000   44.1920 N   0  0  0  0  0  0  0  0  0  0  0  0
   56.4550   30.2510   44.6030 C   0  0  0  0  0  0  0  0  0  0  0  0
   55.3250   29.7620   44.8680 O   0  0  0  0  0  0  0  0  0  0  0  0
   56.6270   31.6690   44.6880 N   0  0  0  0  0  0  0  0  0  0  0  0
   57.6650   32.3490   45.4080 C   0  0  0  0  0  0  0  0  0  0  0  0
   58.4610   31.6810   46.3570 C   0  0  0  0  0  0  0  0  0  0  0  0
   59.4410   32.3800   47.0680 C   0  0  0  0  0  0  0  0  0  0  0  0
   59.6220   33.7490   46.8520 C   0  0  0  0  0  0  0  0  0  0  0  0
   60.5720   34.4250   47.5440 F   0  0  0  0  0  0  0  0  0  0  0  0
   58.8150   34.4230   45.9310 C   0  0  0  0  0  0  0  0  0  0  0  0
   57.8330   33.7260   45.2180 C   0  0  0  0  0  0  0  0  0  0  0  0
   57.0590   27.2450   45.2600 C   0  0  0  0  0  0  0  0  0  0  0  0
   57.0030   25.8550   45.1800 C   0  0  0  0  0  0  0  0  0  0  0  0
   56.6430   24.8570   46.1820 C   0  0  0  0  0  0  0  0  0  0  0  0
   56.3230   25.0990   47.3770 O   0  0  0  0  0  0  0  0  0  0  0  0
   55.8083   20.2659   46.1626 H   0  0  0  0  0  0  0  0  0  0  0  0
   56.3756   22.4489   47.3761 H   0  0  0  0  0  0  0  0  0  0  0  0
   57.8381   21.9606   46.4404 H   0  0  0  0  0  0  0  0  0  0  0  0
   58.0506   25.3164   41.9766 H   0  0  0  0  0  0  0  0  0  0  0  0
   58.1723   27.8271   42.0566 H   0  0  0  0  0  0  0  0  0  0  0  0
   58.4730   29.8350   44.0050 H   0  0  0  0  0  0  0  0  0  0  0  0
   58.3118   30.6066   46.5397 H   0  0  0  0  0  0  0  0  0  0  0  0
   60.0708   31.8516   47.7988 H   0  0  0  0  0  0  0  0  0  0  0  0
   58.9519   35.5020   45.7665 H   0  0  0  0  0  0  0  0  0  0  0  0
   57.1900   34.2626   44.5048 H   0  0  0  0  0  0  0  0  0  0  0  0
   56.7990   27.7662   46.1932 H   0  0  0  0  0  0  0  0  0  0  0  0
  1  2  2  0
  2  3  1  0
  3  4  1  0
  4  5  1  0
  5  6  2  0
  5  7  1  0
  7  8  2  0
  8  9  1  0
  9 10  2  0
 10 11  1  0
 11 12  1  0
 12 13  2  0
 12 14  1  0
 14 15  1  0
 15 16  2  0
 16 17  1  0
 17 18  2  0
 18 19  1  0
 18 20  1  0
 20 21  2  0
 10 22  1  0
 22 23  2  0
 23 24  1  0
 24 25  2  0
 24  4  1  0
 23  7  1  0
 21 15  1  0
  2 26  1  0
  3 27  1  0
  3 28  1  0
  8 29  1  0
  9 30  1  0
 11 31  1  0
 16 32  1  0
 17 33  1  0
 20 34  1  0
 21 35  1  0
 22 36  1  0
M  CHG  1  14  -1
M  END
>  <UniqueID>  (39) 
34

>  <SMILES>  (39) 
O=CCN1C(=O)c2ccc(NC(=O)[N-]c3ccc(F)cc3)cc2C1=O

>  <Energy>  (39) 
76.52861483624473

>  <Genealogy>  (39) 
O=CCN1C(=O)c2ccc(NC(=O)[N-]c3ccc(F)cc3)cc2C1=O (protonated)
O=CCN1C(=O)c2ccc(NC(=O)[N-]c3ccc(F)cc3)cc2C1=O (3D coordinates assigned)
O=CCN1C(=O)c2ccc(NC(=O)[N-]c3ccc(F)cc3)cc2C1=O (nonaromatic ring conformer: 76.52861483624473 kcal/mol)

>  <smiles>  (39) 
O=CCN1C(=O)c2ccc(NC(=O)Nc3ccc(F)cc3)cc2C1=O

>  <score_type>  (39) 
oracle

>  <origin>  (39) 
adg

>  <m_score__min__energy>  (39) 
-9.9800000000000004

>  <m_primary>  (39) 
energy

$$$$
39:0
     RDKit          3D

 75 79  0  0  0  0  0  0  0  0999 V2000
   56.3190   27.4540   54.5500 C   0  0  0  0  0  0  0  0  0  0  0  0
   55.7460   28.8680   54.2950 C   0  0  0  0  0  0  0  0  0  0  0  0
   55.3560   29.4810   55.6600 C   0  0  0  0  0  0  0  0  0  0  0  0
   54.4610   28.6870   53.4500 C   0  0  0  0  0  0  0  0  0  0  0  0
   56.7860   29.7530   53.5030 C   0  0  2  0  0  0  0  0  0  0  0  0
   56.1600   30.5130   52.2950 C   0  0  0  0  0  0  0  0  0  0  0  0
   57.1880   31.4310   51.6110 C   0  0  0  0  0  0  0  0  0  0  0  0
   58.3560   30.6140   51.1450 C   0  0  0  0  0  0  0  0  0  0  0  0
   58.7560   29.4970   51.8630 C   0  0  0  0  0  0  0  0  0  0  0  0
   60.0280   28.7580   51.0590 S   0  0  0  0  0  0  0  0  0  0  0  0
   60.0950   29.8650   49.7860 C   0  0  0  0  0  0  0  0  0  0  0  0
   61.0000   29.8060   48.6710 N   0  0  0  0  0  0  0  0  0  0  0  0
   60.6370   29.5430   47.3060 C   0  0  0  0  0  0  0  0  0  0  0  0
   61.2930   30.0600   46.3620 O   0  0  0  0  0  0  0  0  0  0  0  0
   59.5120   28.6270   47.0090 C   0  0  0  0  0  0  0  0  0  0  0  0
   59.3670   27.4520   47.7710 C   0  0  0  0  0  0  0  0  0  0  0  0
   58.3600   26.5310   47.4740 C   0  0  0  0  0  0  0  0  0  0  0  0
   57.4930   26.7640   46.4050 C   0  0  0  0  0  0  0  0  0  0  0  0
   56.2740   25.5700   45.9890 Cl  0  0  0  0  0  0  0  0  0  0  0  0
   57.6320   27.9240   45.6320 C   0  0  0  0  0  0  0  0  0  0  0  0
   58.6320   28.8580   45.9270 C   0  0  0  0  0  0  0  0  0  0  0  0
   58.8010   30.2440   44.8560 Cl  0  0  0  0  0  0  0  0  0  0  0  0
   59.1190   30.8460   49.9810 C   0  0  0  0  0  0  0  0  0  0  0  0
   58.8980   32.0040   49.0970 C   0  0  0  0  0  0  0  0  0  0  0  0
   58.8810   33.1570   49.6010 O   0  0  0  0  0  0  0  0  0  0  0  0
   58.5270   31.8300   47.7250 N   0  0  0  0  0  0  0  0  0  0  0  0
   58.4540   32.8830   46.7570 C   0  0  0  0  0  0  0  0  0  0  0  0
   57.2090   33.2310   46.2080 C   0  0  0  0  0  0  0  0  0  0  0  0
   57.1230   34.2280   45.2360 C   0  0  0  0  0  0  0  0  0  0  0  0
   58.2800   34.8650   44.7840 C   0  0  0  0  0  0  0  0  0  0  0  0
   59.5300   34.4950   45.2840 C   0  0  0  0  0  0  0  0  0  0  0  0
   59.6350   33.4980   46.2690 C   0  0  0  0  0  0  0  0  0  0  0  0
   61.0000   33.0950   46.7750 C   0  0  0  0  0  0  0  0  0  0  0  0
   61.3730   33.8510   48.0260 C   0  0  0  0  0  0  0  0  0  0  0  0
   60.6590   34.8360   48.3420 O   0  0  0  0  0  0  0  0  0  0  0  0
   62.4970   33.4910   48.8690 N   0  0  0  0  0  0  0  0  0  0  0  0
   62.5850   34.1140   50.1990 C   0  0  0  0  0  0  0  0  0  0  0  0
   63.9660   33.9120   50.8320 C   0  0  0  0  0  0  0  0  0  0  0  0
   64.3590   32.5600   50.7420 O   0  0  0  0  0  0  0  0  0  0  0  0
   64.5740   32.2320   49.3880 C   0  0  0  0  0  0  0  0  0  0  0  0
   63.2530   32.2570   48.6140 C   0  0  0  0  0  0  0  0  0  0  0  0
   58.0830   28.9640   53.0950 C   0  0  0  0  0  0  0  0  0  0  0  0
   56.3906   27.2773   55.6333 H   0  0  0  0  0  0  0  0  0  0  0  0
   55.6545   26.7023   54.0990 H   0  0  0  0  0  0  0  0  0  0  0  0
   57.3193   27.3769   54.0990 H   0  0  0  0  0  0  0  0  0  0  0  0
   55.7549   28.8539   56.4710 H   0  0  0  0  0  0  0  0  0  0  0  0
   55.7756   30.4947   55.7400 H   0  0  0  0  0  0  0  0  0  0  0  0
   54.2600   29.5305   55.7400 H   0  0  0  0  0  0  0  0  0  0  0  0
   53.5964   28.5652   54.1190 H   0  0  0  0  0  0  0  0  0  0  0  0
   54.3117   29.5730   52.8154 H   0  0  0  0  0  0  0  0  0  0  0  0
   54.5622   27.7942   52.8154 H   0  0  0  0  0  0  0  0  0  0  0  0
   57.1024   30.5256   54.2193 H   0  0  0  0  0  0  0  0  0  0  0  0
   55.7933   29.7790   51.5624 H   0  0  0  0  0  0  0  0  0  0  0  0
   55.3360   31.1377   52.6703 H   0  0  0  0  0  0  0  0  0  0  0  0
   56.7197   31.9268   50.7479 H   0  0  0  0  0  0  0  0  0  0  0  0
   57.5345   32.1908   52.3269 H   0  0  0  0  0  0  0  0  0  0  0  0
   60.0534   27.2575   48.6083 H   0  0  0  0  0  0  0  0  0  0  0  0
   58.2500   25.6215   48.0828 H   0  0  0  0  0  0  0  0  0  0  0  0
   56.9504   28.1022   44.7872 H   0  0  0  0  0  0  0  0  0  0  0  0
   56.2980   32.7153   46.5458 H   0  0  0  0  0  0  0  0  0  0  0  0
   56.1429   34.5124   44.8255 H   0  0  0  0  0  0  0  0  0  0  0  0
   58.2065   35.6626   44.0300 H   0  0  0  0  0  0  0  0  0  0  0  0
   60.4380   34.9867   44.9048 H   0  0  0  0  0  0  0  0  0  0  0  0
   60.9949   32.0176   46.9969 H   0  0  0  0  0  0  0  0  0  0  0  0
   61.7398   33.3317   45.9961 H   0  0  0  0  0  0  0  0  0  0  0  0
   62.3929   35.1926   50.1003 H   0  0  0  0  0  0  0  0  0  0  0  0
   61.8375   33.6371   50.8500 H   0  0  0  0  0  0  0  0  0  0  0  0
   64.7008   34.5382   50.3047 H   0  0  0  0  0  0  0  0  0  0  0  0
   63.9156   34.1974   51.8931 H   0  0  0  0  0  0  0  0  0  0  0  0
   65.2673   32.9617   48.9444 H   0  0  0  0  0  0  0  0  0  0  0  0
   65.0010   31.2199   49.3305 H   0  0  0  0  0  0  0  0  0  0  0  0
   63.4691   32.1873   47.5377 H   0  0  0  0  0  0  0  0  0  0  0  0
   62.6428   31.4055   48.9495 H   0  0  0  0  0  0  0  0  0  0  0  0
   57.8074   27.9148   52.9129 H   0  0  0  0  0  0  0  0  0  0  0  0
   58.7983   29.0746   53.9233 H   0  0  0  0  0  0  0  0  0  0  0  0
  1  2  1  0
  2  3  1  0
  2  4  1  0
  2  5  1  0
  5  6  1  0
  6  7  1  0
  7  8  1  0
  8  9  2  0
  9 10  1  0
 10 11  1  0
 11 12  1  0
 12 13  1  0
 13 14  2  0
 13 15  1  0
 15 16  2  0
 16 17  1  0
 17 18  2  0
 18 19  1  0
 18 20  1  0
 20 21  2  0
 21 22  1  0
 11 23  2  0
 23 24  1  0
 24 25  2  0
 24 26  1  0
 26 27  1  0
 27 28  2  0
 28 29  1  0
 29 30  2  0
 30 31  1  0
 31 32  2  0
 32 33  1  0
 33 34  1  0
 34 35  2  0
 34 36  1  0
 36 37  1  0
 37 38  1  0
 38 39  1  0
 39 40  1  0
 40 41  1  0
  9 42  1  0
 42  5  1  0
 23  8  1  0
 32 27  1  0
 41 36  1  0
 21 15  1  0
  1 43  1  0
  1 44  1  0
  1 45  1  0
  3 46  1  0
  3 47  1  0
  3 48  1  0
  4 49  1  0
  4 50  1  0
  4 51  1  0
  5 52  1  1
  6 53  1  0
  6 54  1  0
  7 55  1  0
  7 56  1  0
 16 57  1  0
 17 58  1  0
 20 59  1  0
 28 60  1  0
 29 61  1  0
 30 62  1  0
 31 63  1  0
 33 64  1  0
 33 65  1  0
 37 66  1  0
 37 67  1  0
 38 68  1  0
 38 69  1  0
 40 70  1  0
 40 71  1  0
 41 72  1  0
 41 73  1  0
 42 74  1  0
 42 75  1  0
M  CHG  2  12  -1  26  -1
M  END
>  <UniqueID>  (40) 
35

>  <SMILES>  (40) 
CC(C)(C)[C@@H]1CCc2c(sc([N-]C(=O)c3ccc(Cl)cc3Cl)c2C(=O)[N-]c2ccccc2CC(=O)N2CCOCC2)C1

>  <Energy>  (40) 
130.2444559735081

>  <Genealogy>  (40) 
CC(C)(C)C1CCc2c(sc([N-]C(=O)c3ccc(Cl)cc3Cl)c2C(=O)[N-]c2ccccc2CC(=O)N2CCOCC2)C1 (protonated)
CC(C)(C)[C@@H]1CCc2c(sc([N-]C(=O)c3ccc(Cl)cc3Cl)c2C(=O)[N-]c2ccccc2CC(=O)N2CCOCC2)C1 (chirality)
CC(C)(C)[C@@H]1CCc2c(sc([N-]C(=O)c3ccc(Cl)cc3Cl)c2C(=O)[N-]c2ccccc2CC(=O)N2CCOCC2)C1 (3D coordinates assigned)
CC(C)(C)[C@@H]1CCc2c(sc([N-]C(=O)c3ccc(Cl)cc3Cl)c2C(=O)[N-]c2ccccc2CC(=O)N2CCOCC2)C1 (nonaromatic ring conformer: 130.2444559735081 kcal/mol)

>  <smiles>  (40) 
CC(C)(C)C1CCc2c(sc(NC(=O)c3ccc(Cl)cc3Cl)c2C(=O)Nc2ccccc2CC(=O)N2CCOCC2)C1

>  <score_type>  (40) 
oracle

>  <origin>  (40) 
adg

>  <m_score__min__energy>  (40) 
-13.41

>  <m_primary>  (40) 
energy

$$$$
40:0
     RDKit          3D

 34 36  0  0  0  0  0  0  0  0999 V2000
   55.1380   27.5070   45.3680 H   0  0  0  0  0  0  0  0  0  0  0  0
   55.0270   26.7180   45.9930 O   0  0  0  0  0  0  0  0  0  0  0  0
   56.1120   25.9280   46.3630 C   0  0  0  0  0  0  0  0  0  0  0  0
   55.9930   24.7860   47.0600 N   0  0  0  0  0  0  0  0  0  0  0  0
   57.2720   24.3690   47.1700 C   0  0  0  0  0  0  0  0  0  0  0  0
   57.5900   23.3080   47.7690 O   0  0  0  0  0  0  0  0  0  0  0  0
   58.1860   25.1750   46.5860 N   0  0  0  0  0  0  0  0  0  0  0  0
   57.4380   26.1720   46.0800 C   0  0  0  0  0  0  0  0  0  0  0  0
   57.9960   27.3180   45.2890 C   0  0  0  0  0  0  0  0  0  0  0  0
   57.7758   27.1599   44.2229 H   0  0  0  0  0  0  0  0  0  0  0  0
   59.0823   27.3626   45.4564 H   0  0  0  0  0  0  0  0  0  0  0  0
   57.3900   28.6240   45.7280 C   0  0  0  0  0  0  0  0  0  0  0  0
   56.2800   28.9830   45.2510 O   0  0  0  0  0  0  0  0  0  0  0  0
   58.0170   29.4600   46.7130 N   0  0  0  0  0  0  0  0  0  0  0  0
   58.4150   30.6890   46.5570 C   0  0  0  0  0  0  0  0  0  0  0  0
   57.6550   31.6100   45.9260 N   0  0  0  0  0  0  0  0  0  0  0  0
   58.2870   32.8100   45.8320 C   0  0  0  0  0  0  0  0  0  0  0  0
   57.8272   33.6860   45.3512 H   0  0  0  0  0  0  0  0  0  0  0  0
   59.5600   32.8440   46.3910 C   0  0  0  0  0  0  0  0  0  0  0  0
   60.5040   34.0030   46.3520 C   0  0  0  0  0  0  0  0  0  0  0  0
   60.8562   34.1507   45.3204 H   0  0  0  0  0  0  0  0  0  0  0  0
   59.9808   34.9051   46.7019 H   0  0  0  0  0  0  0  0  0  0  0  0
   61.6830   33.7400   47.2470 C   0  0  0  0  0  0  0  0  0  0  0  0
   62.9590   33.5330   46.6970 C   0  0  0  0  0  0  0  0  0  0  0  0
   63.0913   33.5337   45.6050 H   0  0  0  0  0  0  0  0  0  0  0  0
   64.0620   33.3260   47.5320 C   0  0  0  0  0  0  0  0  0  0  0  0
   65.0570   33.1544   47.0955 H   0  0  0  0  0  0  0  0  0  0  0  0
   63.9010   33.3370   48.9210 C   0  0  0  0  0  0  0  0  0  0  0  0
   65.2850   33.0810   49.9670 Cl  0  0  0  0  0  0  0  0  0  0  0  0
   62.6350   33.5570   49.4760 C   0  0  0  0  0  0  0  0  0  0  0  0
   62.5084   33.5678   50.5686 H   0  0  0  0  0  0  0  0  0  0  0  0
   61.5310   33.7630   48.6430 C   0  0  0  0  0  0  0  0  0  0  0  0
   60.5392   33.9439   49.0830 H   0  0  0  0  0  0  0  0  0  0  0  0
   59.9200   31.3170   46.9990 S   0  0  0  0  0  0  0  0  0  0  0  0
  1  2  1  0
  2  3  1  0
  3  4  1  0
  4  5  1  0
  5  6  2  0
  5  7  1  0
  7  8  1  0
  8  9  1  0
  9 10  1  0
  9 11  1  0
  9 12  1  0
 12 13  2  0
 12 14  1  0
 14 15  2  0
 15 16  1  0
 16 17  1  0
 17 18  1  0
 17 19  2  0
 19 20  1  0
 20 21  1  0
 20 22  1  0
 20 23  1  0
 23 24  2  0
 24 25  1  0
 24 26  1  0
 26 27  1  0
 26 28  2  0
 28 29  1  0
 28 30  1  0
 30 31  1  0
 30 32  2  0
 32 33  1  0
 19 34  1  0
  8  3  2  0
 34 15  1  0
 32 23  1  0
M  CHG  3   4  -1   7  -1  16  -1
M  END
>  <UniqueID>  (41) 
36

>  <SMILES>  (41) 
O=C(Cc1[n-]c(=O)[n-]c1O)/N=c1/[n-]cc(Cc2ccc(Cl)cc2)s1

>  <Energy>  (41) 
98.30227525328289

>  <Genealogy>  (41) 
O=C(Cc1[n-]c(=O)[n-]c1O)N=c1[n-]cc(Cc2ccc(Cl)cc2)s1 (protonated)
O=C(Cc1[n-]c(=O)[n-]c1O)/N=c1/[n-]cc(Cc2ccc(Cl)cc2)s1 (cis-trans isomerization)
O=C(Cc1[n-]c(=O)[n-]c1O)/N=c1/[n-]cc(Cc2ccc(Cl)cc2)s1 (3D coordinates assigned)
O=C(Cc1[n-]c(=O)[n-]c1O)/N=c1/[n-]cc(Cc2ccc(Cl)cc2)s1 (optimized conformer: 98.30227525328289 kcal/mol)

>  <smiles>  (41) 
O=C(Cc1[nH]c(=O)[nH]c1O)N=c1[nH]cc(Cc2ccc(Cl)cc2)s1

>  <score_type>  (41) 
oracle

>  <origin>  (41) 
adg

>  <m_score__min__energy>  (41) 
-14.41

>  <m_primary>  (41) 
energy

$$$$
41:0
     RDKit          3D

 49 51  0  0  0  0  0  0  0  0999 V2000
   56.8870   29.3650   43.1640 C   0  0  0  0  0  0  0  0  0  0  0  0
   56.0980   29.3580   44.4430 C   0  0  0  0  0  0  0  0  0  0  0  0
   55.5090   30.4100   44.8030 O   0  0  0  0  0  0  0  0  0  0  0  0
   55.9580   28.1760   45.2450 N   0  0  0  0  0  0  0  0  0  0  0  0
   57.0000   27.5600   46.0180 C   0  0  0  0  0  0  0  0  0  0  0  0
   58.0020   28.3490   46.6090 C   0  0  0  0  0  0  0  0  0  0  0  0
   59.0490   27.7560   47.3270 C   0  0  0  0  0  0  0  0  0  0  0  0
   60.1800   28.5940   47.8520 C   0  0  0  0  0  0  0  0  0  0  0  0
   60.2140   29.8580   47.1270 N   0  0  0  0  0  0  0  0  0  0  0  0
   59.9510   31.1270   47.7390 C   0  0  0  0  0  0  0  0  0  0  0  0
   60.2770   31.3180   48.9410 O   0  0  0  0  0  0  0  0  0  0  0  0
   59.2190   32.1890   46.9940 C   0  0  0  0  0  0  0  0  0  0  0  0
   58.0300   31.8310   46.3470 C   0  0  0  0  0  0  0  0  0  0  0  0
   57.3770   32.7350   45.5250 C   0  0  0  0  0  0  0  0  0  0  0  0
   57.9210   34.0010   45.3170 C   0  0  0  0  0  0  0  0  0  0  0  0
   57.3200   34.7970   44.5340 O   0  0  0  0  0  0  0  0  0  0  0  0
   59.0840   34.3770   45.9480 N   0  0  0  0  0  0  0  0  0  0  0  0
   59.6450   35.7210   45.6790 C   0  0  0  0  0  0  0  0  0  0  0  0
   59.6970   33.5230   46.8490 C   0  0  0  0  0  0  0  0  0  0  0  0
   60.8640   34.0030   47.6880 C   0  0  0  0  0  0  0  0  0  0  0  0
   59.0900   26.3640   47.4570 C   0  0  0  0  0  0  0  0  0  0  0  0
   58.0840   25.5740   46.8990 C   0  0  0  0  0  0  0  0  0  0  0  0
   57.0270   26.1590   46.1810 C   0  0  0  0  0  0  0  0  0  0  0  0
   55.9750   25.2970   45.5890 C   0  0  0  0  0  0  0  0  0  0  0  0
   56.3020   24.2920   44.6610 C   0  0  0  0  0  0  0  0  0  0  0  0
   55.2850   23.5010   44.1180 C   0  0  0  0  0  0  0  0  0  0  0  0
   55.5660   22.6030   43.2790 O   0  0  0  0  0  0  0  0  0  0  0  0
   53.9580   23.7080   44.5060 C   0  0  0  0  0  0  0  0  0  0  0  0
   53.6680   24.7120   45.4350 C   0  0  0  0  0  0  0  0  0  0  0  0
   54.6710   25.4770   45.9480 N   0  0  0  0  0  0  0  0  0  0  0  0
   57.9621   29.3745   43.3965 H   0  0  0  0  0  0  0  0  0  0  0  0
   56.6462   28.4647   42.5797 H   0  0  0  0  0  0  0  0  0  0  0  0
   56.6302   30.2609   42.5797 H   0  0  0  0  0  0  0  0  0  0  0  0
   57.9638   29.4436   46.5068 H   0  0  0  0  0  0  0  0  0  0  0  0
   60.0277   28.7883   48.9239 H   0  0  0  0  0  0  0  0  0  0  0  0
   61.1320   28.0610   47.7120 H   0  0  0  0  0  0  0  0  0  0  0  0
   57.6112   30.8243   46.4925 H   0  0  0  0  0  0  0  0  0  0  0  0
   56.4316   32.4542   45.0378 H   0  0  0  0  0  0  0  0  0  0  0  0
   59.8564   36.2276   46.6322 H   0  0  0  0  0  0  0  0  0  0  0  0
   60.5764   35.6209   45.1025 H   0  0  0  0  0  0  0  0  0  0  0  0
   58.9188   36.3128   45.1025 H   0  0  0  0  0  0  0  0  0  0  0  0
   60.6153   33.9007   48.7546 H   0  0  0  0  0  0  0  0  0  0  0  0
   61.7536   33.3977   47.4592 H   0  0  0  0  0  0  0  0  0  0  0  0
   61.0703   35.0590   47.4592 H   0  0  0  0  0  0  0  0  0  0  0  0
   59.9194   25.8895   48.0019 H   0  0  0  0  0  0  0  0  0  0  0  0
   58.1188   24.4815   47.0225 H   0  0  0  0  0  0  0  0  0  0  0  0
   57.3489   24.1297   44.3650 H   0  0  0  0  0  0  0  0  0  0  0  0
   53.1519   23.0887   44.0857 H   0  0  0  0  0  0  0  0  0  0  0  0
   52.6287   24.8840   45.7517 H   0  0  0  0  0  0  0  0  0  0  0  0
  1  2  1  0
  2  3  2  0
  2  4  1  0
  4  5  1  0
  5  6  2  0
  6  7  1  0
  7  8  1  0
  8  9  1  0
  9 10  1  0
 10 11  2  0
 10 12  1  0
 12 13  1  0
 13 14  2  0
 14 15  1  0
 15 16  2  0
 15 17  1  0
 17 18  1  0
 17 19  1  0
 19 20  1  0
  7 21  2  0
 21 22  1  0
 22 23  2  0
 23 24  1  0
 24 25  2  0
 25 26  1  0
 26 27  2  0
 26 28  1  0
 28 29  2  0
 29 30  1  0
 23  5  1  0
 30 24  1  0
 19 12  2  0
  1 31  1  0
  1 32  1  0
  1 33  1  0
  6 34  1  0
  8 35  1  0
  8 36  1  0
 13 37  1  0
 14 38  1  0
 18 39  1  0
 18 40  1  0
 18 41  1  0
 20 42  1  0
 20 43  1  0
 20 44  1  0
 21 45  1  0
 22 46  1  0
 25 47  1  0
 28 48  1  0
 29 49  1  0
M  CHG  3   4  -1   9  -1  30  -1
M  END
>  <UniqueID>  (42) 
37

>  <SMILES>  (42) 
CC(=O)[N-]c1cc(C[N-]C(=O)c2ccc(=O)n(C)c2C)ccc1-c1cc(=O)cc[n-]1

>  <Energy>  (42) 
71.37897730467337

>  <Genealogy>  (42) 
CC(=O)[N-]c1cc(C[N-]C(=O)c2ccc(=O)n(C)c2C)ccc1-c1cc(=O)cc[n-]1 (protonated)
CC(=O)[N-]c1cc(C[N-]C(=O)c2ccc(=O)n(C)c2C)ccc1-c1cc(=O)cc[n-]1 (3D coordinates assigned)
CC(=O)[N-]c1cc(C[N-]C(=O)c2ccc(=O)n(C)c2C)ccc1-c1cc(=O)cc[n-]1 (optimized conformer: 71.37897730467337 kcal/mol)

>  <smiles>  (42) 
CC(=O)Nc1cc(CNC(=O)c2ccc(=O)n(C)c2C)ccc1-c1cc(=O)cc[nH]1

>  <score_type>  (42) 
oracle

>  <origin>  (42) 
adg

>  <m_score__min__energy>  (42) 
-14.300000000000001

>  <m_primary>  (42) 
energy

$$$$
42:0
     RDKit          3D

 28 29  0  0  0  0  0  0  0  0999 V2000
   59.4580   32.9440   49.5160 N   0  0  0  0  0  0  0  0  0  0  0  0
   59.1020   33.0840   48.4230 C   0  0  0  0  0  0  0  0  0  0  0  0
   58.6590   33.2580   47.0640 C   0  0  0  0  0  0  0  0  0  0  0  0
   59.0320   34.4010   46.3460 C   0  0  0  0  0  0  0  0  0  0  0  0
   58.5910   34.5750   45.0320 C   0  0  0  0  0  0  0  0  0  0  0  0
   57.7860   33.6060   44.4260 C   0  0  0  0  0  0  0  0  0  0  0  0
   57.4270   32.4420   45.1330 C   0  0  0  0  0  0  0  0  0  0  0  0
   56.5840   31.4330   44.5570 N   0  0  0  0  0  0  0  0  0  0  0  0
   56.6100   30.0290   44.8470 C   0  0  0  0  0  0  0  0  0  0  0  0
   55.5420   29.3600   44.8650 O   0  0  0  0  0  0  0  0  0  0  0  0
   57.8700   29.3930   45.1010 N   0  0  0  0  0  0  0  0  0  0  0  0
   58.0350   27.9700   45.2290 C   0  0  0  0  0  0  0  0  0  0  0  0
   57.7770   27.1190   44.1380 C   0  0  0  0  0  0  0  0  0  0  0  0
   57.9650   25.7390   44.2560 C   0  0  0  0  0  0  0  0  0  0  0  0
   58.4240   25.1950   45.4580 C   0  0  0  0  0  0  0  0  0  0  0  0
   58.6610   23.4620   45.6020 Cl  0  0  0  0  0  0  0  0  0  0  0  0
   58.7000   26.0310   46.5420 C   0  0  0  0  0  0  0  0  0  0  0  0
   58.5150   27.4150   46.4330 C   0  0  0  0  0  0  0  0  0  0  0  0
   58.8570   28.4240   47.8330 Cl  0  0  0  0  0  0  0  0  0  0  0  0
   57.8520   32.2860   46.4580 C   0  0  0  0  0  0  0  0  0  0  0  0
   59.6722   35.1617   46.8167 H   0  0  0  0  0  0  0  0  0  0  0  0
   58.8781   35.4774   44.4723 H   0  0  0  0  0  0  0  0  0  0  0  0
   57.4322   33.7529   43.3949 H   0  0  0  0  0  0  0  0  0  0  0  0
   58.6960   30.0120   45.2620 H   0  0  0  0  0  0  0  0  0  0  0  0
   57.4250   27.5429   43.1859 H   0  0  0  0  0  0  0  0  0  0  0  0
   57.7512   25.0805   43.4012 H   0  0  0  0  0  0  0  0  0  0  0  0
   59.0646   25.6003   47.4863 H   0  0  0  0  0  0  0  0  0  0  0  0
   57.5503   31.3943   47.0270 H   0  0  0  0  0  0  0  0  0  0  0  0
  1  2  3  0
  2  3  1  0
  3  4  2  0
  4  5  1  0
  5  6  2  0
  6  7  1  0
  7  8  1  0
  8  9  1  0
  9 10  2  0
  9 11  1  0
 11 12  1  0
 12 13  2  0
 13 14  1  0
 14 15  2  0
 15 16  1  0
 15 17  1  0
 17 18  2  0
 18 19  1  0
  7 20  2  0
 20  3  1  0
 18 12  1  0
  4 21  1  0
  5 22  1  0
  6 23  1  0
 11 24  1  0
 13 25  1  0
 14 26  1  0
 17 27  1  0
 20 28  1  0
M  CHG  1   8  -1
M  END
>  <UniqueID>  (43) 
38

>  <SMILES>  (43) 
N#Cc1cccc([N-]C(=O)Nc2ccc(Cl)cc2Cl)c1

>  <Energy>  (43) 
35.744967049791676

>  <Genealogy>  (43) 
N#Cc1cccc([N-]C(=O)Nc2ccc(Cl)cc2Cl)c1 (protonated)
N#Cc1cccc([N-]C(=O)Nc2ccc(Cl)cc2Cl)c1 (3D coordinates assigned)
N#Cc1cccc([N-]C(=O)Nc2ccc(Cl)cc2Cl)c1 (optimized conformer: 35.744967049791676 kcal/mol)

>  <smiles>  (43) 
N#Cc1cccc(NC(=O)Nc2ccc(Cl)cc2Cl)c1

>  <score_type>  (43) 
oracle

>  <origin>  (43) 
adg

>  <m_score__min__energy>  (43) 
-8.7300000000000004

>  <m_primary>  (43) 
energy

$$$$
43:0
     RDKit          3D

 49 51  0  0  0  0  0  0  0  0999 V2000
   61.4790   30.8290   47.7790 C   0  0  0  0  0  0  0  0  0  0  0  0
   61.1570   32.1240   47.8420 C   0  0  0  0  0  0  0  0  0  0  0  0
   60.0480   32.7220   47.0640 C   0  0  0  0  0  0  0  0  0  0  0  0
   59.3620   31.9040   46.1530 C   0  0  0  0  0  0  0  0  0  0  0  0
   58.2990   32.4110   45.3960 C   0  0  0  0  0  0  0  0  0  0  0  0
   57.4430   31.3390   44.2910 S   0  0  0  0  0  0  0  0  0  0  0  0
   56.0260   31.1040   44.7400 O   0  0  0  0  0  0  0  0  0  0  0  0
   57.4140   31.9750   42.9310 O   0  0  0  0  0  0  0  0  0  0  0  0
   58.2840   29.8260   44.1920 N   0  0  0  0  0  0  0  0  0  0  0  0
   57.9390   28.6350   44.9130 C   0  0  0  0  0  0  0  0  0  0  0  0
   58.9710   27.8380   45.4150 C   0  0  0  0  0  0  0  0  0  0  0  0
   58.6850   26.6730   46.1300 C   0  0  0  0  0  0  0  0  0  0  0  0
   57.3550   26.2680   46.3410 C   0  0  0  0  0  0  0  0  0  0  0  0
   57.0850   25.0230   47.1000 C   0  0  0  0  0  0  0  0  0  0  0  0
   57.7090   24.7740   48.1670 O   0  0  0  0  0  0  0  0  0  0  0  0
   56.1160   24.1270   46.6320 O   0  0  0  0  0  0  0  0  0  0  0  0
   56.3370   23.1990   45.5690 C   0  0  0  0  0  0  0  0  0  0  0  0
   57.8430   23.0600   45.2850 C   0  0  0  0  0  0  0  0  0  0  0  0
   58.1160   22.0200   44.1800 C   0  0  0  0  0  0  0  0  0  0  0  0
   56.9850   21.9200   43.1360 C   0  0  0  0  0  0  0  0  0  0  0  0
   56.2330   23.2460   42.9860 C   0  0  0  0  0  0  0  0  0  0  0  0
   55.5790   23.6830   44.3120 C   0  0  0  0  0  0  0  0  0  0  0  0
   56.3130   27.0670   45.8200 C   0  0  0  0  0  0  0  0  0  0  0  0
   54.9790   26.7100   45.9950 O   0  0  0  0  0  0  0  0  0  0  0  0
   56.6050   28.2420   45.1180 C   0  0  0  0  0  0  0  0  0  0  0  0
   57.9070   33.7460   45.5550 C   0  0  0  0  0  0  0  0  0  0  0  0
   58.5640   34.5630   46.4780 C   0  0  0  0  0  0  0  0  0  0  0  0
   59.6220   34.0610   47.2420 C   0  0  0  0  0  0  0  0  0  0  0  0
   60.2110   34.8860   48.1970 O   0  0  0  0  0  0  0  0  0  0  0  0
   62.3138   30.4399   48.3804 H   0  0  0  0  0  0  0  0  0  0  0  0
   60.9093   30.1517   47.1257 H   0  0  0  0  0  0  0  0  0  0  0  0
   61.7441   32.7777   48.5038 H   0  0  0  0  0  0  0  0  0  0  0  0
   59.6629   30.8528   46.0324 H   0  0  0  0  0  0  0  0  0  0  0  0
   60.0177   28.1307   45.2456 H   0  0  0  0  0  0  0  0  0  0  0  0
   59.5090   26.0656   46.5325 H   0  0  0  0  0  0  0  0  0  0  0  0
   55.9580   22.2074   45.8572 H   0  0  0  0  0  0  0  0  0  0  0  0
   58.2376   24.0351   44.9634 H   0  0  0  0  0  0  0  0  0  0  0  0
   58.3383   22.7219   46.2071 H   0  0  0  0  0  0  0  0  0  0  0  0
   59.0450   22.2990   43.6612 H   0  0  0  0  0  0  0  0  0  0  0  0
   58.1908   21.0385   44.6709 H   0  0  0  0  0  0  0  0  0  0  0  0
   57.4205   21.6453   42.1640 H   0  0  0  0  0  0  0  0  0  0  0  0
   56.2698   21.1572   43.4775 H   0  0  0  0  0  0  0  0  0  0  0  0
   56.9417   24.0235   42.6647 H   0  0  0  0  0  0  0  0  0  0  0  0
   55.4366   23.1064   42.2402 H   0  0  0  0  0  0  0  0  0  0  0  0
   55.5380   24.7820   44.3331 H   0  0  0  0  0  0  0  0  0  0  0  0
   54.5796   23.2245   44.3434 H   0  0  0  0  0  0  0  0  0  0  0  0
   55.7858   28.8616   44.7243 H   0  0  0  0  0  0  0  0  0  0  0  0
   57.0809   34.1516   44.9524 H   0  0  0  0  0  0  0  0  0  0  0  0
   58.2468   35.6086   46.6047 H   0  0  0  0  0  0  0  0  0  0  0  0
  1  2  2  0
  2  3  1  0
  3  4  2  0
  4  5  1  0
  5  6  1  0
  6  7  2  0
  6  8  2  0
  6  9  1  0
  9 10  1  0
 10 11  2  0
 11 12  1  0
 12 13  2  0
 13 14  1  0
 14 15  2  0
 14 16  1  0
 16 17  1  0
 17 18  1  0
 18 19  1  0
 19 20  1  0
 20 21  1  0
 21 22  1  0
 13 23  1  0
 23 24  1  0
 23 25  2  0
  5 26  2  0
 26 27  1  0
 27 28  2  0
 28 29  1  0
 28  3  1  0
 25 10  1  0
 22 17  1  0
  1 30  1  0
  1 31  1  0
  2 32  1  0
  4 33  1  0
 11 34  1  0
 12 35  1  0
 17 36  1  0
 18 37  1  0
 18 38  1  0
 19 39  1  0
 19 40  1  0
 20 41  1  0
 20 42  1  0
 21 43  1  0
 21 44  1  0
 22 45  1  0
 22 46  1  0
 25 47  1  0
 26 48  1  0
 27 49  1  0
M  CHG  3   9  -1  24  -1  29  -1
M  END
>  <UniqueID>  (44) 
39

>  <SMILES>  (44) 
C=Cc1cc(S(=O)(=O)[N-]c2ccc(C(=O)OC3CCCCC3)c([O-])c2)ccc1[O-]

>  <Energy>  (44) 
60.03971555285368

>  <Genealogy>  (44) 
C=Cc1cc(S(=O)(=O)[N-]c2ccc(C(=O)OC3CCCCC3)c([O-])c2)ccc1[O-] (protonated)
C=Cc1cc(S(=O)(=O)[N-]c2ccc(C(=O)OC3CCCCC3)c([O-])c2)ccc1[O-] (3D coordinates assigned)
C=Cc1cc(S(=O)(=O)[N-]c2ccc(C(=O)OC3CCCCC3)c([O-])c2)ccc1[O-] (nonaromatic ring conformer: 60.03971555285368 kcal/mol)

>  <smiles>  (44) 
C=Cc1cc(S(=O)(=O)Nc2ccc(C(=O)OC3CCCCC3)c(O)c2)ccc1O

>  <score_type>  (44) 
oracle

>  <origin>  (44) 
adg

>  <m_score__min__energy>  (44) 
-15.210000000000001

>  <m_primary>  (44) 
energy

$$$$
44:0
     RDKit          3D

 71 74  0  0  1  0  0  0  0  0999 V2000
   63.6870   33.7900   48.0540 C   0  0  0  0  0  0  0  0  0  0  0  0
   62.8330   34.4780   49.0310 N   0  0  0  0  0  0  0  0  0  0  0  0
   61.6110   34.0930   49.1430 C   0  0  0  0  0  0  0  0  0  0  0  0
   60.8830   33.8410   47.9990 C   0  0  0  0  0  0  0  0  0  0  0  0
   59.5690   33.4260   48.0570 C   0  0  0  0  0  0  0  0  0  0  0  0
   58.9210   33.1990   46.8640 O   0  0  0  0  0  0  0  0  0  0  0  0
   58.8790   31.9730   46.2190 C   0  0  0  0  0  0  0  0  0  0  0  0
   59.8600   31.0250   46.3610 C   0  0  0  0  0  0  0  0  0  0  0  0
   59.7160   29.8290   45.6660 C   0  0  0  0  0  0  0  0  0  0  0  0
   58.6210   29.5990   44.8600 C   0  0  0  0  0  0  0  0  0  0  0  0
   58.5410   28.3430   44.1750 N   0  0  0  0  0  0  0  0  0  0  0  0
   57.8230   27.2290   44.7620 C   0  0  0  0  0  0  0  0  0  0  0  0
   57.3070   27.4410   45.8590 O   0  0  0  0  0  0  0  0  0  0  0  0
   57.7610   26.0120   44.0680 N   0  0  0  0  0  0  0  0  0  0  0  0
   57.1030   24.8330   44.5020 C   0  0  0  0  0  0  0  0  0  0  0  0
   56.3270   24.0820   43.6520 C   0  0  0  0  0  0  0  0  0  0  0  0
   55.6670   22.9150   44.0570 C   0  0  0  0  0  0  0  0  0  0  0  0
   55.8010   22.5060   45.3530 C   0  0  0  0  0  0  0  0  0  0  0  0
   56.5840   23.2510   46.2380 C   0  0  0  0  0  0  0  0  0  0  0  0
   56.6630   22.7300   47.5910 C   0  0  0  0  0  0  0  0  0  0  0  0
   56.0960   23.3450   48.5640 O   0  0  0  0  0  0  0  0  0  0  0  0
   57.3270   21.5720   47.9600 O   0  0  0  0  0  0  0  0  0  0  0  0
   57.2350   24.4140   45.8180 C   0  0  0  0  0  0  0  0  0  0  0  0
   58.0260   25.1120   46.8420 C   0  0  0  0  0  0  0  0  0  0  0  0
   57.6430   30.5360   44.7150 C   0  0  0  0  0  0  0  0  0  0  0  0
   57.7750   31.7370   45.4040 C   0  0  0  0  0  0  0  0  0  0  0  0
   56.7900   32.6980   45.2660 O   0  0  0  0  0  0  0  0  0  0  0  0
   57.1270   34.0140   44.9230 C   0  0  0  0  0  0  0  0  0  0  0  0
   59.0070   33.2700   49.2690 N   0  0  0  0  0  0  0  0  0  0  0  0
   59.7320   33.5200   50.3980 C   0  0  0  0  0  0  0  0  0  0  0  0
   59.1520   33.3590   51.6590 O   0  0  0  0  0  0  0  0  0  0  0  0
   58.5120   32.1700   52.0300 C   0  0  0  0  0  0  0  0  0  0  0  0
   57.0450   32.1260   51.6580 C   0  0  0  0  0  0  0  0  0  0  0  0
   56.4530   30.8950   52.3070 C   0  0  0  0  0  0  0  0  0  0  0  0
   57.2150   29.7050   52.0240 N   0  0  0  0  0  0  0  0  0  0  0  0
   57.6030   28.9590   53.1860 C   0  0  0  0  0  0  0  0  0  0  0  0
   58.2410   29.8820   51.0430 C   0  0  0  0  0  0  0  0  0  0  0  0
   59.1880   31.0230   51.3330 C   0  0  0  0  0  0  0  0  0  0  0  0
   61.0180   33.9260   50.3390 N   0  0  0  0  0  0  0  0  0  0  0  0
   64.4374   33.1854   48.5845 H   0  0  0  0  0  0  0  0  0  0  0  0
   63.0681   33.1352   47.4229 H   0  0  0  0  0  0  0  0  0  0  0  0
   64.1951   34.5341   47.4229 H   0  0  0  0  0  0  0  0  0  0  0  0
   61.3615   33.9741   47.0175 H   0  0  0  0  0  0  0  0  0  0  0  0
   60.7336   31.2051   47.0047 H   0  0  0  0  0  0  0  0  0  0  0  0
   60.4894   29.0526   45.7609 H   0  0  0  0  0  0  0  0  0  0  0  0
   59.0110   28.2620   43.2480 H   0  0  0  0  0  0  0  0  0  0  0  0
   58.2640   26.0060   43.1310 H   0  0  0  0  0  0  0  0  0  0  0  0
   56.2196   24.4118   42.6081 H   0  0  0  0  0  0  0  0  0  0  0  0
   55.0542   22.3405   43.3468 H   0  0  0  0  0  0  0  0  0  0  0  0
   55.2941   21.5931   45.6988 H   0  0  0  0  0  0  0  0  0  0  0  0
   58.1690   21.2240   47.4850 H   0  0  0  0  0  0  0  0  0  0  0  0
   57.6817   24.8081   47.8415 H   0  0  0  0  0  0  0  0  0  0  0  0
   59.0883   24.8516   46.7253 H   0  0  0  0  0  0  0  0  0  0  0  0
   57.8998   26.1985   46.7253 H   0  0  0  0  0  0  0  0  0  0  0  0
   56.7720   30.3478   44.0701 H   0  0  0  0  0  0  0  0  0  0  0  0
   57.2782   34.6043   45.8388 H   0  0  0  0  0  0  0  0  0  0  0  0
   58.0538   34.0126   44.3305 H   0  0  0  0  0  0  0  0  0  0  0  0
   56.3136   34.4582   44.3305 H   0  0  0  0  0  0  0  0  0  0  0  0
   58.0090   32.9550   49.3190 H   0  0  0  0  0  0  0  0  0  0  0  0
   58.5818   32.1061   53.1259 H   0  0  0  0  0  0  0  0  0  0  0  0
   56.5357   33.0282   52.0277 H   0  0  0  0  0  0  0  0  0  0  0  0
   56.9213   32.0879   50.5656 H   0  0  0  0  0  0  0  0  0  0  0  0
   56.4273   31.0475   53.3961 H   0  0  0  0  0  0  0  0  0  0  0  0
   55.4426   30.7521   51.8963 H   0  0  0  0  0  0  0  0  0  0  0  0
   57.3145   29.5137   54.0910 H   0  0  0  0  0  0  0  0  0  0  0  0
   57.0992   27.9812   53.1791 H   0  0  0  0  0  0  0  0  0  0  0  0
   58.6928   28.8100   53.1791 H   0  0  0  0  0  0  0  0  0  0  0  0
   58.8276   28.9532   50.9866 H   0  0  0  0  0  0  0  0  0  0  0  0
   57.7343   30.1256   50.0975 H   0  0  0  0  0  0  0  0  0  0  0  0
   60.0019   30.6517   51.9731 H   0  0  0  0  0  0  0  0  0  0  0  0
   59.5678   31.3947   50.3699 H   0  0  0  0  0  0  0  0  0  0  0  0
  1  2  1  0
  2  3  2  0
  3  4  1  0
  4  5  2  0
  5  6  1  0
  6  7  1  0
  7  8  2  0
  8  9  1  0
  9 10  2  0
 10 11  1  0
 11 12  1  0
 12 13  2  0
 12 14  1  0
 14 15  1  0
 15 16  2  0
 16 17  1  0
 17 18  2  0
 18 19  1  0
 19 20  1  0
 20 21  2  0
 20 22  1  0
 19 23  2  0
 23 24  1  0
 10 25  1  0
 25 26  2  0
 26 27  1  0
 27 28  1  0
  5 29  1  0
 29 30  1  0
 30 31  1  0
 31 32  1  0
 32 33  1  0
 33 34  1  0
 34 35  1  0
 35 36  1  0
 35 37  1  0
 37 38  1  0
 30 39  2  0
 39  3  1  0
 26  7  1  0
 38 32  1  0
 23 15  1  0
  1 40  1  0
  1 41  1  0
  1 42  1  0
  4 43  1  0
  8 44  1  0
  9 45  1  0
 11 46  1  0
 14 47  1  0
 16 48  1  0
 17 49  1  0
 18 50  1  0
 22 51  1  0
 24 52  1  0
 24 53  1  0
 24 54  1  0
 25 55  1  0
 28 56  1  0
 28 57  1  0
 28 58  1  0
 29 59  1  0
 32 60  1  0
 33 61  1  0
 33 62  1  0
 34 63  1  0
 34 64  1  0
 36 65  1  0
 36 66  1  0
 36 67  1  0
 37 68  1  0
 37 69  1  0
 38 70  1  0
 38 71  1  0
M  END
>  <smiles>  (45) 
CN=c1cc(Oc2ccc(NC(=O)Nc3cccc(C(=O)O)c3C)cc2OC)[nH]c(OC2CCN(C)CC2)n1

>  <score_type>  (45) 
oracle

>  <origin>  (45) 
adg

>  <m_score__min__energy>  (45) 
-9.4399999999999995

>  <m_primary>  (45) 
energy

$$$$
45:0
     RDKit          3D

 45 47  0  0  0  0  0  0  0  0999 V2000
   56.6400   31.5480   51.3360 N   0  0  0  0  0  0  0  0  0  0  0  0
   57.7860   30.8390   50.8530 C   0  0  0  0  0  0  0  0  0  0  0  0
   57.9410   29.6340   51.1900 O   0  0  0  0  0  0  0  0  0  0  0  0
   58.7960   31.4950   49.9860 C   0  0  0  0  0  0  0  0  0  0  0  0
   59.1020   32.8590   50.1280 C   0  0  0  0  0  0  0  0  0  0  0  0
   60.0500   33.4620   49.2990 C   0  0  0  0  0  0  0  0  0  0  0  0
   60.7060   32.7150   48.3200 C   0  0  0  0  0  0  0  0  0  0  0  0
   60.4210   31.3490   48.1600 C   0  0  0  0  0  0  0  0  0  0  0  0
   61.1110   30.5450   47.1230 C   0  0  0  0  0  0  0  0  0  0  0  0
   62.2910   30.8410   46.7970 O   0  0  0  0  0  0  0  0  0  0  0  0
   60.4940   29.4040   46.5110 N   0  0  0  0  0  0  0  0  0  0  0  0
   59.1280   29.3070   46.0830 C   0  0  0  0  0  0  0  0  0  0  0  0
   58.4820   30.3710   45.4370 C   0  0  0  0  0  0  0  0  0  0  0  0
   57.1570   30.2400   45.0230 C   0  0  0  0  0  0  0  0  0  0  0  0
   56.4640   29.0440   45.2310 C   0  0  0  0  0  0  0  0  0  0  0  0
   55.1440   28.9630   44.8020 O   0  0  0  0  0  0  0  0  0  0  0  0
   57.1060   27.9500   45.8580 C   0  0  0  0  0  0  0  0  0  0  0  0
   56.4100   26.6550   46.0950 C   0  0  0  0  0  0  0  0  0  0  0  0
   55.1540   26.5910   45.9990 O   0  0  0  0  0  0  0  0  0  0  0  0
   57.1490   25.4740   46.4330 N   0  0  0  0  0  0  0  0  0  0  0  0
   56.5440   24.1570   46.5960 C   0  0  0  0  0  0  0  0  0  0  0  0
   56.6620   23.3670   45.3210 C   0  0  0  0  0  0  0  0  0  0  0  0
   57.5290   22.2650   45.2390 C   0  0  0  0  0  0  0  0  0  0  0  0
   57.6170   21.5230   44.0570 C   0  0  0  0  0  0  0  0  0  0  0  0
   56.8370   21.8740   42.9510 C   0  0  0  0  0  0  0  0  0  0  0  0
   55.9700   22.9670   43.0260 C   0  0  0  0  0  0  0  0  0  0  0  0
   55.8810   23.7120   44.2050 C   0  0  0  0  0  0  0  0  0  0  0  0
   58.4450   28.1000   46.2700 C   0  0  0  0  0  0  0  0  0  0  0  0
   59.4520   30.7510   48.9860 C   0  0  0  0  0  0  0  0  0  0  0  0
   55.9210   31.0470   51.9030 H   0  0  0  0  0  0  0  0  0  0  0  0
   56.5400   32.5790   51.2170 H   0  0  0  0  0  0  0  0  0  0  0  0
   58.5911   33.4560   50.8977 H   0  0  0  0  0  0  0  0  0  0  0  0
   60.2807   34.5309   49.4183 H   0  0  0  0  0  0  0  0  0  0  0  0
   61.4503   33.1984   47.6701 H   0  0  0  0  0  0  0  0  0  0  0  0
   59.0223   31.3120   45.2563 H   0  0  0  0  0  0  0  0  0  0  0  0
   56.6534   31.0840   44.5291 H   0  0  0  0  0  0  0  0  0  0  0  0
   57.0589   23.6187   47.4054 H   0  0  0  0  0  0  0  0  0  0  0  0
   55.4793   24.2804   46.8434 H   0  0  0  0  0  0  0  0  0  0  0  0
   58.1415   21.9844   46.1085 H   0  0  0  0  0  0  0  0  0  0  0  0
   58.3001   20.6629   43.9973 H   0  0  0  0  0  0  0  0  0  0  0  0
   56.9060   21.2895   42.0217 H   0  0  0  0  0  0  0  0  0  0  0  0
   55.3563   23.2417   42.1554 H   0  0  0  0  0  0  0  0  0  0  0  0
   55.1970   24.5717   44.2596 H   0  0  0  0  0  0  0  0  0  0  0  0
   58.9622   27.2542   46.7466 H   0  0  0  0  0  0  0  0  0  0  0  0
   59.2033   29.6883   48.8491 H   0  0  0  0  0  0  0  0  0  0  0  0
  1  2  1  0
  2  3  2  0
  2  4  1  0
  4  5  2  0
  5  6  1  0
  6  7  2  0
  7  8  1  0
  8  9  1  0
  9 10  2  0
  9 11  1  0
 11 12  1  0
 12 13  2  0
 13 14  1  0
 14 15  2  0
 15 16  1  0
 15 17  1  0
 17 18  1  0
 18 19  2  0
 18 20  1  0
 20 21  1  0
 21 22  1  0
 22 23  2  0
 23 24  1  0
 24 25  2  0
 25 26  1  0
 26 27  2  0
 17 28  2  0
  8 29  2  0
 29  4  1  0
 28 12  1  0
 27 22  1  0
  1 30  1  0
  1 31  1  0
  5 32  1  0
  6 33  1  0
  7 34  1  0
 13 35  1  0
 14 36  1  0
 21 37  1  0
 21 38  1  0
 23 39  1  0
 24 40  1  0
 25 41  1  0
 26 42  1  0
 27 43  1  0
 28 44  1  0
 29 45  1  0
M  CHG  3  11  -1  16  -1  20  -1
M  END
>  <UniqueID>  (46) 
40

>  <SMILES>  (46) 
NC(=O)c1cccc(C(=O)[N-]c2ccc([O-])c(C(=O)[N-]Cc3ccccc3)c2)c1

>  <Energy>  (46) 
56.64094280750381

>  <Genealogy>  (46) 
NC(=O)c1cccc(C(=O)[N-]c2ccc([O-])c(C(=O)[N-]Cc3ccccc3)c2)c1 (protonated)
NC(=O)c1cccc(C(=O)[N-]c2ccc([O-])c(C(=O)[N-]Cc3ccccc3)c2)c1 (3D coordinates assigned)
NC(=O)c1cccc(C(=O)[N-]c2ccc([O-])c(C(=O)[N-]Cc3ccccc3)c2)c1 (optimized conformer: 56.64094280750381 kcal/mol)

>  <smiles>  (46) 
NC(=O)c1cccc(C(=O)Nc2ccc(O)c(C(=O)NCc3ccccc3)c2)c1

>  <score_type>  (46) 
oracle

>  <origin>  (46) 
adg

>  <m_score__min__energy>  (46) 
-15.289999999999999

>  <m_primary>  (46) 
energy

$$$$
46:0
     RDKit          3D

 27 28  0  0  0  0  0  0  0  0999 V2000
   58.7790   27.7780   44.7490 O   0  0  0  0  0  0  0  0  0  0  0  0
   57.6580   27.5890   45.2880 C   0  0  0  0  0  0  0  0  0  0  0  0
   56.6550   28.6060   45.1820 N   0  0  0  0  0  0  0  0  0  0  0  0
   56.6470   29.6430   44.1580 C   0  0  0  0  0  0  0  0  0  0  0  0
   57.4230   30.8370   44.6480 C   0  0  0  0  0  0  0  0  0  0  0  0
   57.7880   30.9170   46.0030 C   0  0  0  0  0  0  0  0  0  0  0  0
   58.4880   32.0270   46.4830 C   0  0  0  0  0  0  0  0  0  0  0  0
   58.8200   33.0730   45.6200 C   0  0  0  0  0  0  0  0  0  0  0  0
   59.4970   34.1500   46.0890 F   0  0  0  0  0  0  0  0  0  0  0  0
   58.4500   33.0120   44.2740 C   0  0  0  0  0  0  0  0  0  0  0  0
   57.7480   31.9040   43.7820 C   0  0  0  0  0  0  0  0  0  0  0  0
   57.2880   31.8920   42.0820 Cl  0  0  0  0  0  0  0  0  0  0  0  0
   57.4030   26.3190   45.9970 C   0  0  0  0  0  0  0  0  0  0  0  0
   56.0950   25.9140   46.3060 C   0  0  0  0  0  0  0  0  0  0  0  0
   55.0070   26.7130   45.9620 O   0  0  0  0  0  0  0  0  0  0  0  0
   55.8880   24.7410   46.9610 N   0  0  0  0  0  0  0  0  0  0  0  0
   56.9280   23.9530   47.3360 C   0  0  0  0  0  0  0  0  0  0  0  0
   56.6460   22.5520   48.1220 S   0  0  0  0  0  0  0  0  0  0  0  0
   58.2020   24.3360   47.0660 N   0  0  0  0  0  0  0  0  0  0  0  0
   58.4630   25.4970   46.4120 C   0  0  0  0  0  0  0  0  0  0  0  0
   59.6580   25.8200   46.1760 O   0  0  0  0  0  0  0  0  0  0  0  0
   57.1118   29.2552   43.2395 H   0  0  0  0  0  0  0  0  0  0  0  0
   55.6097   29.9413   43.9457 H   0  0  0  0  0  0  0  0  0  0  0  0
   57.5209   30.1005   46.6900 H   0  0  0  0  0  0  0  0  0  0  0  0
   58.7780   32.0768   47.5429 H   0  0  0  0  0  0  0  0  0  0  0  0
   58.7114   33.8386   43.5969 H   0  0  0  0  0  0  0  0  0  0  0  0
   55.1370   27.5720   45.4410 H   0  0  0  0  0  0  0  0  0  0  0  0
  1  2  2  0
  2  3  1  0
  3  4  1  0
  4  5  1  0
  5  6  2  0
  6  7  1  0
  7  8  2  0
  8  9  1  0
  8 10  1  0
 10 11  2  0
 11 12  1  0
  2 13  1  0
 13 14  2  0
 14 15  1  0
 14 16  1  0
 16 17  1  0
 17 18  2  0
 17 19  1  0
 19 20  1  0
 20 21  2  0
 11  5  1  0
 20 13  1  0
  4 22  1  0
  4 23  1  0
  6 24  1  0
  7 25  1  0
 10 26  1  0
 15 27  1  0
M  CHG  3   3  -1  16  -1  19  -1
M  END
>  <UniqueID>  (47) 
41

>  <SMILES>  (47) 
O=C([N-]Cc1ccc(F)cc1Cl)c1c(O)[n-]c(=S)[n-]c1=O

>  <Energy>  (47) 
34.450007762326614

>  <Genealogy>  (47) 
O=C([N-]Cc1ccc(F)cc1Cl)c1c(O)[n-]c(=S)[n-]c1=O (protonated)
O=C([N-]Cc1ccc(F)cc1Cl)c1c(O)[n-]c(=S)[n-]c1=O (3D coordinates assigned)
O=C([N-]Cc1ccc(F)cc1Cl)c1c(O)[n-]c(=S)[n-]c1=O (optimized conformer: 34.450007762326614 kcal/mol)

>  <smiles>  (47) 
O=C(NCc1ccc(F)cc1Cl)c1c(O)[nH]c(=S)[nH]c1=O

>  <score_type>  (47) 
oracle

>  <origin>  (47) 
adg

>  <m_score__min__energy>  (47) 
-12.31

>  <m_primary>  (47) 
energy

$$$$
47:0
     RDKit          3D

 47 50  0  0  0  0  0  0  0  0999 V2000
   59.9740   29.2050   47.6600 H   0  0  0  0  0  0  0  0  0  0  0  0
   60.7760   29.6450   48.0950 O   0  0  0  0  0  0  0  0  0  0  0  0
   61.1770   30.9340   47.7480 C   0  0  0  0  0  0  0  0  0  0  0  0
   62.5310   31.2250   47.5340 C   0  0  0  0  0  0  0  0  0  0  0  0
   63.2886   30.4366   47.6541 H   0  0  0  0  0  0  0  0  0  0  0  0
   62.9190   32.5170   47.1680 C   0  0  0  0  0  0  0  0  0  0  0  0
   63.9812   32.7431   46.9932 H   0  0  0  0  0  0  0  0  0  0  0  0
   61.9580   33.5220   47.0240 C   0  0  0  0  0  0  0  0  0  0  0  0
   62.2667   34.5336   46.7216 H   0  0  0  0  0  0  0  0  0  0  0  0
   60.6050   33.2500   47.2620 C   0  0  0  0  0  0  0  0  0  0  0  0
   59.6510   34.3070   47.0840 N   0  0  0  0  0  0  0  0  0  0  0  0
   59.0910   34.7500   45.8420 C   0  0  0  0  0  0  0  0  0  0  0  0
   59.6150   35.7060   45.2070 O   0  0  0  0  0  0  0  0  0  0  0  0
   57.9270   34.0340   45.2910 C   0  0  0  0  0  0  0  0  0  0  0  0
   56.9611   34.1113   45.8116 H   0  0  0  0  0  0  0  0  0  0  0  0
   58.0040   33.2920   44.1780 C   0  0  0  0  0  0  0  0  0  0  0  0
   58.2357   33.7998   43.2301 H   0  0  0  0  0  0  0  0  0  0  0  0
   57.7940   31.8230   44.1530 C   0  0  0  0  0  0  0  0  0  0  0  0
   56.9450   31.1960   43.2210 C   0  0  0  0  0  0  0  0  0  0  0  0
   56.4197   31.8002   42.4667 H   0  0  0  0  0  0  0  0  0  0  0  0
   56.7660   29.8100   43.2490 C   0  0  0  0  0  0  0  0  0  0  0  0
   56.0978   29.3284   42.5199 H   0  0  0  0  0  0  0  0  0  0  0  0
   57.4330   29.0350   44.2000 C   0  0  0  0  0  0  0  0  0  0  0  0
   57.2855   27.9451   44.2188 H   0  0  0  0  0  0  0  0  0  0  0  0
   58.2870   29.6370   45.1280 C   0  0  0  0  0  0  0  0  0  0  0  0
   58.9480   28.8120   46.0990 N   0  0  0  0  0  0  0  0  0  0  0  0
   58.3520   27.7420   46.8440 C   0  0  0  0  0  0  0  0  0  0  0  0
   58.4660   27.7390   48.0980 O   0  0  0  0  0  0  0  0  0  0  0  0
   57.5680   26.6760   46.1890 C   0  0  0  0  0  0  0  0  0  0  0  0
   58.0640   25.8060   45.2200 C   0  0  0  0  0  0  0  0  0  0  0  0
   59.0805   25.7792   44.8005 H   0  0  0  0  0  0  0  0  0  0  0  0
   57.0020   24.9860   44.9020 C   0  0  0  0  0  0  0  0  0  0  0  0
   56.9080   23.9360   43.9900 C   0  0  0  0  0  0  0  0  0  0  0  0
   57.7708   23.6377   43.3764 H   0  0  0  0  0  0  0  0  0  0  0  0
   55.6730   23.2700   43.8800 C   0  0  0  0  0  0  0  0  0  0  0  0
   55.5320   22.2180   42.9850 O   0  0  0  0  0  0  0  0  0  0  0  0
   54.5750   23.6680   44.6770 C   0  0  0  0  0  0  0  0  0  0  0  0
   53.6137   23.1416   44.5833 H   0  0  0  0  0  0  0  0  0  0  0  0
   54.7020   24.7320   45.5890 C   0  0  0  0  0  0  0  0  0  0  0  0
   53.8545   25.0484   46.2148 H   0  0  0  0  0  0  0  0  0  0  0  0
   55.9380   25.3720   45.6730 C   0  0  0  0  0  0  0  0  0  0  0  0
   56.2700   26.4000   46.4700 N   0  0  0  0  0  0  0  0  0  0  0  0
   55.6550   26.8690   47.1720 H   0  0  0  0  0  0  0  0  0  0  0  0
   58.4390   31.0350   45.1210 C   0  0  0  0  0  0  0  0  0  0  0  0
   59.0701   31.5171   45.8821 H   0  0  0  0  0  0  0  0  0  0  0  0
   60.2170   31.9420   47.6070 C   0  0  0  0  0  0  0  0  0  0  0  0
   59.1535   31.7109   47.7666 H   0  0  0  0  0  0  0  0  0  0  0  0
  1  2  1  0
  2  3  1  0
  3  4  2  0
  4  5  1  0
  4  6  1  0
  6  7  1  0
  6  8  2  0
  8  9  1  0
  8 10  1  0
 10 11  1  0
 11 12  1  0
 12 13  2  0
 12 14  1  0
 14 15  1  0
 14 16  2  0
 16 17  1  0
 16 18  1  0
 18 19  2  0
 19 20  1  0
 19 21  1  0
 21 22  1  0
 21 23  2  0
 23 24  1  0
 23 25  1  0
 25 26  1  0
 26 27  1  0
 27 28  2  0
 27 29  1  0
 29 30  2  0
 30 31  1  0
 30 32  1  0
 32 33  2  0
 33 34  1  0
 33 35  1  0
 35 36  1  0
 35 37  2  0
 37 38  1  0
 37 39  1  0
 39 40  1  0
 39 41  2  0
 41 42  1  0
 42 43  1  0
 25 44  2  0
 44 45  1  0
 10 46  2  0
 46 47  1  0
 46  3  1  0
 44 18  1  0
 42 29  1  0
 41 32  1  0
M  CHG  3  11  -1  26  -1  36  -1
M  END
>  <UniqueID>  (48) 
42

>  <SMILES>  (48) 
O=C(/C=C/c1cccc([N-]C(=O)c2cc3cc([O-])ccc3[nH]2)c1)[N-]c1cccc(O)c1

>  <Energy>  (48) 
93.6029618846589

>  <Genealogy>  (48) 
O=C(C=Cc1cccc([N-]C(=O)c2cc3cc([O-])ccc3[nH]2)c1)[N-]c1cccc(O)c1 (protonated)
O=C(/C=C/c1cccc([N-]C(=O)c2cc3cc([O-])ccc3[nH]2)c1)[N-]c1cccc(O)c1 (cis-trans isomerization)
O=C(/C=C/c1cccc([N-]C(=O)c2cc3cc([O-])ccc3[nH]2)c1)[N-]c1cccc(O)c1 (3D coordinates assigned)
O=C(/C=C/c1cccc([N-]C(=O)c2cc3cc([O-])ccc3[nH]2)c1)[N-]c1cccc(O)c1 (optimized conformer: 93.6029618846589 kcal/mol)

>  <smiles>  (48) 
O=C(C=Cc1cccc(NC(=O)c2cc3cc(O)ccc3[nH]2)c1)Nc1cccc(O)c1

>  <score_type>  (48) 
oracle

>  <origin>  (48) 
adg

>  <m_score__min__energy>  (48) 
-15.59

>  <m_primary>  (48) 
energy

$$$$
48:0
     RDKit          3D

 34 36  0  0  0  0  0  0  0  0999 V2000
   59.9380   30.2780   45.9230 C   0  0  0  0  0  0  0  0  0  0  0  0
   58.5480   29.8850   45.5020 C   0  0  0  0  0  0  0  0  0  0  0  0
   57.7250   30.6520   44.6550 C   0  0  0  0  0  0  0  0  0  0  0  0
   58.0810   31.9440   43.9710 C   0  0  0  0  0  0  0  0  0  0  0  0
   57.9610   33.1390   44.9310 C   0  0  0  0  0  0  0  0  0  0  0  0
   59.2470   33.8340   45.1220 N   0  0  0  0  0  0  0  0  0  0  0  0
   59.4920   34.2190   46.7980 S   0  0  0  0  0  0  0  0  0  0  0  0
   58.5150   33.4540   47.6470 O   0  0  0  0  0  0  0  0  0  0  0  0
   59.2710   35.6900   47.0120 O   0  0  0  0  0  0  0  0  0  0  0  0
   61.1350   33.8090   47.2620 C   0  0  0  0  0  0  0  0  0  0  0  0
   62.2410   33.8650   46.4270 C   0  0  0  0  0  0  0  0  0  0  0  0
   63.4150   33.4260   47.0480 C   0  0  0  0  0  0  0  0  0  0  0  0
   63.2190   33.0250   48.3620 C   0  0  0  0  0  0  0  0  0  0  0  0
   64.4540   32.4040   49.4340 Cl  0  0  0  0  0  0  0  0  0  0  0  0
   61.5960   33.2070   48.7620 S   0  0  0  0  0  0  0  0  0  0  0  0
   56.2540   29.8470   44.4150 S   0  0  0  0  0  0  0  0  0  0  0  0
   56.6520   28.5380   45.3770 C   0  0  0  0  0  0  0  0  0  0  0  0
   55.8860   27.4480   45.6150 N   0  0  0  0  0  0  0  0  0  0  0  0
   56.3790   26.4580   46.4090 C   0  0  0  0  0  0  0  0  0  0  0  0
   55.6830   25.4370   46.6430 O   0  0  0  0  0  0  0  0  0  0  0  0
   57.6280   26.5670   46.9510 N   0  0  0  0  0  0  0  0  0  0  0  0
   58.4140   27.6570   46.7190 C   0  0  0  0  0  0  0  0  0  0  0  0
   59.5610   27.7180   47.2350 O   0  0  0  0  0  0  0  0  0  0  0  0
   57.9210   28.6860   45.9020 C   0  0  0  0  0  0  0  0  0  0  0  0
   59.9975   30.2948   47.0213 H   0  0  0  0  0  0  0  0  0  0  0  0
   60.6607   29.5490   45.5278 H   0  0  0  0  0  0  0  0  0  0  0  0
   60.1720   31.2775   45.5278 H   0  0  0  0  0  0  0  0  0  0  0  0
   59.1164   31.8816   43.6050 H   0  0  0  0  0  0  0  0  0  0  0  0
   57.3806   32.0984   43.1370 H   0  0  0  0  0  0  0  0  0  0  0  0
   57.2313   33.8518   44.5192 H   0  0  0  0  0  0  0  0  0  0  0  0
   57.6379   32.7538   45.9094 H   0  0  0  0  0  0  0  0  0  0  0  0
   60.0480   33.2250   44.8440 H   0  0  0  0  0  0  0  0  0  0  0  0
   62.1993   34.2176   45.3859 H   0  0  0  0  0  0  0  0  0  0  0  0
   64.3935   33.4012   46.5461 H   0  0  0  0  0  0  0  0  0  0  0  0
  1  2  1  0
  2  3  2  0
  3  4  1  0
  4  5  1  0
  5  6  1  0
  6  7  1  0
  7  8  2  0
  7  9  2  0
  7 10  1  0
 10 11  2  0
 11 12  1  0
 12 13  2  0
 13 14  1  0
 13 15  1  0
  3 16  1  0
 16 17  1  0
 17 18  1  0
 18 19  1  0
 19 20  2  0
 19 21  1  0
 21 22  1  0
 22 23  2  0
 22 24  1  0
 24  2  1  0
 15 10  1  0
 24 17  2  0
  1 25  1  0
  1 26  1  0
  1 27  1  0
  4 28  1  0
  4 29  1  0
  5 30  1  0
  5 31  1  0
  6 32  1  0
 11 33  1  0
 12 34  1  0
M  CHG  2  18  -1  21  -1
M  END
>  <UniqueID>  (49) 
43

>  <SMILES>  (49) 
Cc1c(CCNS(=O)(=O)c2ccc(Cl)s2)sc2[n-]c(=O)[n-]c(=O)c12

>  <Energy>  (49) 
89.71321741017593

>  <Genealogy>  (49) 
Cc1c(CCNS(=O)(=O)c2ccc(Cl)s2)sc2[n-]c(=O)[n-]c(=O)c12 (protonated)
Cc1c(CCNS(=O)(=O)c2ccc(Cl)s2)sc2[n-]c(=O)[n-]c(=O)c12 (3D coordinates assigned)
Cc1c(CCNS(=O)(=O)c2ccc(Cl)s2)sc2[n-]c(=O)[n-]c(=O)c12 (optimized conformer: 89.71321741017593 kcal/mol)

>  <smiles>  (49) 
Cc1c(CCNS(=O)(=O)c2ccc(Cl)s2)sc2[nH]c(=O)[nH]c(=O)c12

>  <score_type>  (49) 
oracle

>  <origin>  (49) 
adg

>  <m_score__min__energy>  (49) 
-13.01

>  <m_primary>  (49) 
energy

$$$$
49:0
     RDKit          3D

 57 60  0  0  0  0  0  0  0  0999 V2000
   64.6450   29.6630   51.3350 O   0  0  0  0  0  0  0  0  0  0  0  0
   64.3730   30.8640   51.0460 C   0  0  0  0  0  0  0  0  0  0  0  0
   65.4640   31.8900   51.0600 C   0  0  0  0  0  0  0  0  0  0  0  0
   65.5100   32.6710   49.7430 C   0  0  0  0  0  0  0  0  0  0  0  0
   64.1610   33.2030   49.3700 C   0  0  0  0  0  0  0  0  0  0  0  0
   63.3920   32.6900   48.3910 N   0  0  0  0  0  0  0  0  0  0  0  0
   62.3080   33.4950   48.4560 C   0  0  0  0  0  0  0  0  0  0  0  0
   61.1340   33.3690   47.5660 C   0  0  0  0  0  0  0  0  0  0  0  0
   60.3320   32.2140   47.6040 C   0  0  0  0  0  0  0  0  0  0  0  0
   59.2450   32.0810   46.7360 C   0  0  0  0  0  0  0  0  0  0  0  0
   58.9420   33.0970   45.8190 C   0  0  0  0  0  0  0  0  0  0  0  0
   57.5980   32.8860   44.6980 S   0  0  0  0  0  0  0  0  0  0  0  0
   58.0990   32.8790   43.2790 O   0  0  0  0  0  0  0  0  0  0  0  0
   56.6390   34.0300   44.8660 O   0  0  0  0  0  0  0  0  0  0  0  0
   56.7680   31.3930   45.0190 N   0  0  0  0  0  0  0  0  0  0  0  0
   56.6310   30.6260   43.7860 C   0  0  0  0  0  0  0  0  0  0  0  0
   56.8880   29.1470   44.0720 C   0  0  0  0  0  0  0  0  0  0  0  0
   58.0770   28.9860   44.9830 C   0  0  0  0  0  0  0  0  0  0  0  0
   57.8860   28.6380   46.3320 C   0  0  0  0  0  0  0  0  0  0  0  0
   58.9800   28.5590   47.2000 C   0  0  0  0  0  0  0  0  0  0  0  0
   60.2720   28.8290   46.7280 C   0  0  0  0  0  0  0  0  0  0  0  0
   60.4690   29.1820   45.3900 C   0  0  0  0  0  0  0  0  0  0  0  0
   59.3760   29.2700   44.5200 C   0  0  0  0  0  0  0  0  0  0  0  0
   59.7310   34.2570   45.7850 C   0  0  0  0  0  0  0  0  0  0  0  0
   60.8190   34.3930   46.6520 C   0  0  0  0  0  0  0  0  0  0  0  0
   62.4150   34.4270   49.4280 N   0  0  0  0  0  0  0  0  0  0  0  0
   63.5730   34.2120   49.9720 O   0  0  0  0  0  0  0  0  0  0  0  0
   63.0230   31.2490   50.7570 N   0  0  0  0  0  0  0  0  0  0  0  0
   61.9080   30.3240   50.9570 C   0  0  0  0  0  0  0  0  0  0  0  0
   60.6010   31.0310   50.7770 C   0  0  0  0  0  0  0  0  0  0  0  0
   60.3390   32.3570   51.1030 C   0  0  0  0  0  0  0  0  0  0  0  0
   59.0070   32.7290   50.8720 C   0  0  0  0  0  0  0  0  0  0  0  0
   58.2180   31.6960   50.3780 C   0  0  0  0  0  0  0  0  0  0  0  0
   59.1760   30.3170   50.2310 S   0  0  0  0  0  0  0  0  0  0  0  0
   65.2847   32.5925   51.8872 H   0  0  0  0  0  0  0  0  0  0  0  0
   66.4258   31.3725   51.1907 H   0  0  0  0  0  0  0  0  0  0  0  0
   66.2084   33.5138   49.8520 H   0  0  0  0  0  0  0  0  0  0  0  0
   65.8414   31.9863   48.9485 H   0  0  0  0  0  0  0  0  0  0  0  0
   60.5616   31.4116   48.3205 H   0  0  0  0  0  0  0  0  0  0  0  0
   58.6237   31.1740   46.7725 H   0  0  0  0  0  0  0  0  0  0  0  0
   55.6130   30.7506   43.3884 H   0  0  0  0  0  0  0  0  0  0  0  0
   57.3613   30.9878   43.0473 H   0  0  0  0  0  0  0  0  0  0  0  0
   56.0004   28.7118   44.5545 H   0  0  0  0  0  0  0  0  0  0  0  0
   57.0941   28.6310   43.1226 H   0  0  0  0  0  0  0  0  0  0  0  0
   56.8732   28.4273   46.7058 H   0  0  0  0  0  0  0  0  0  0  0  0
   58.8263   28.2847   48.2541 H   0  0  0  0  0  0  0  0  0  0  0  0
   61.1316   28.7630   47.4112 H   0  0  0  0  0  0  0  0  0  0  0  0
   61.4838   29.3908   45.0204 H   0  0  0  0  0  0  0  0  0  0  0  0
   59.5324   29.5620   43.4711 H   0  0  0  0  0  0  0  0  0  0  0  0
   59.4926   35.0617   45.0739 H   0  0  0  0  0  0  0  0  0  0  0  0
   61.4328   35.3053   46.6202 H   0  0  0  0  0  0  0  0  0  0  0  0
   62.8270   32.2510   50.5240 H   0  0  0  0  0  0  0  0  0  0  0  0
   61.9807   29.5059   50.2252 H   0  0  0  0  0  0  0  0  0  0  0  0
   61.9576   29.9233   51.9802 H   0  0  0  0  0  0  0  0  0  0  0  0
   61.0995   33.0445   51.5017 H   0  0  0  0  0  0  0  0  0  0  0  0
   58.6227   33.7418   51.0634 H   0  0  0  0  0  0  0  0  0  0  0  0
   57.1496   31.7668   50.1259 H   0  0  0  0  0  0  0  0  0  0  0  0
  1  2  2  0
  2  3  1  0
  3  4  1  0
  4  5  1  0
  5  6  2  0
  6  7  1  0
  7  8  1  0
  8  9  2  0
  9 10  1  0
 10 11  2  0
 11 12  1  0
 12 13  2  0
 12 14  2  0
 12 15  1  0
 15 16  1  0
 16 17  1  0
 17 18  1  0
 18 19  2  0
 19 20  1  0
 20 21  2  0
 21 22  1  0
 22 23  2  0
 11 24  1  0
 24 25  2  0
  7 26  2  0
 26 27  1  0
  2 28  1  0
 28 29  1  0
 29 30  1  0
 30 31  2  0
 31 32  1  0
 32 33  2  0
 33 34  1  0
 27  5  1  0
 34 30  1  0
 25  8  1  0
 23 18  1  0
  3 35  1  0
  3 36  1  0
  4 37  1  0
  4 38  1  0
  9 39  1  0
 10 40  1  0
 16 41  1  0
 16 42  1  0
 17 43  1  0
 17 44  1  0
 19 45  1  0
 20 46  1  0
 21 47  1  0
 22 48  1  0
 23 49  1  0
 24 50  1  0
 25 51  1  0
 28 52  1  0
 29 53  1  0
 29 54  1  0
 31 55  1  0
 32 56  1  0
 33 57  1  0
M  CHG  1  15  -1
M  END
>  <UniqueID>  (50) 
44

>  <SMILES>  (50) 
O=C(CCc1nc(-c2ccc(S(=O)(=O)[N-]CCc3ccccc3)cc2)no1)NCc1cccs1

>  <Energy>  (50) 
107.43247602202233

>  <Genealogy>  (50) 
O=C(CCc1nc(-c2ccc(S(=O)(=O)[N-]CCc3ccccc3)cc2)no1)NCc1cccs1 (protonated)
O=C(CCc1nc(-c2ccc(S(=O)(=O)[N-]CCc3ccccc3)cc2)no1)NCc1cccs1 (3D coordinates assigned)
O=C(CCc1nc(-c2ccc(S(=O)(=O)[N-]CCc3ccccc3)cc2)no1)NCc1cccs1 (optimized conformer: 107.43247602202233 kcal/mol)

>  <smiles>  (50) 
O=C(CCc1nc(-c2ccc(S(=O)(=O)NCCc3ccccc3)cc2)no1)NCc1cccs1

>  <score_type>  (50) 
oracle

>  <origin>  (50) 
adg

>  <m_score__min__energy>  (50) 
-10.84

>  <m_primary>  (50) 
energy

$$$$
50:0
     RDKit          3D

 73 77  0  0  0  0  0  0  0  0999 V2000
   57.5410   32.8620   45.0630 C   0  0  0  0  0  0  0  0  0  0  0  0
   58.2250   32.3890   43.7850 C   0  0  0  0  0  0  0  0  0  0  0  0
   58.1530   30.8900   43.6720 C   0  0  0  0  0  0  0  0  0  0  0  0
   59.2060   30.0930   44.1450 C   0  0  0  0  0  0  0  0  0  0  0  0
   59.1010   28.6980   44.1280 C   0  0  0  0  0  0  0  0  0  0  0  0
   57.9290   28.0790   43.6650 C   0  0  0  0  0  0  0  0  0  0  0  0
   57.7760   26.5800   43.7460 C   0  0  0  0  0  0  0  0  0  0  0  0
   57.9230   26.1110   45.1380 N   0  0  0  0  0  0  0  0  0  0  0  0
   58.5750   24.8060   45.3790 C   0  0  0  0  0  0  0  0  0  0  0  0
   57.6350   23.6570   45.1160 C   0  0  0  0  0  0  0  0  0  0  0  0
   57.1530   23.4250   43.8160 C   0  0  0  0  0  0  0  0  0  0  0  0
   56.3030   22.3450   43.5600 C   0  0  0  0  0  0  0  0  0  0  0  0
   55.9250   21.4880   44.5970 C   0  0  0  0  0  0  0  0  0  0  0  0
   56.3970   21.7080   45.8930 C   0  0  0  0  0  0  0  0  0  0  0  0
   57.2470   22.7880   46.1570 C   0  0  0  0  0  0  0  0  0  0  0  0
   57.7020   22.9890   47.4560 O   0  0  0  0  0  0  0  0  0  0  0  0
   57.3480   26.8910   46.2160 C   0  0  0  0  0  0  0  0  0  0  0  0
   56.1390   26.7270   46.5410 O   0  0  0  0  0  0  0  0  0  0  0  0
   58.1140   27.9210   46.9410 C   0  0  0  0  0  0  0  0  0  0  0  0
   59.0940   27.5510   47.8710 C   0  0  0  0  0  0  0  0  0  0  0  0
   59.8210   28.5360   48.5510 C   0  0  0  0  0  0  0  0  0  0  0  0
   60.8240   28.1940   49.4640 C   0  0  0  0  0  0  0  0  0  0  0  0
   61.5410   29.1940   50.1260 C   0  0  0  0  0  0  0  0  0  0  0  0
   61.2650   30.5560   49.8950 C   0  0  0  0  0  0  0  0  0  0  0  0
   62.0020   31.5920   50.5730 N   0  0  0  0  0  0  0  0  0  0  0  0
   63.2160   32.5770   49.8180 S   0  0  0  0  0  0  0  0  0  0  0  0
   63.3380   32.1860   48.0850 C   0  0  0  0  0  0  0  0  0  0  0  0
   62.8880   34.0320   50.0050 O   0  0  0  0  0  0  0  0  0  0  0  0
   64.5420   32.2920   50.4650 O   0  0  0  0  0  0  0  0  0  0  0  0
   60.2610   30.9010   48.9620 C   0  0  0  0  0  0  0  0  0  0  0  0
   59.9690   32.2760   48.6880 N   0  0  0  0  0  0  0  0  0  0  0  0
   60.0350   32.8470   47.3560 C   0  0  0  0  0  0  0  0  0  0  0  0
   60.0430   34.3560   47.5650 C   0  0  0  0  0  0  0  0  0  0  0  0
   59.5740   34.5840   49.0010 C   0  0  0  0  0  0  0  0  0  0  0  0
   59.8100   33.2680   49.7330 C   0  0  0  0  0  0  0  0  0  0  0  0
   59.5390   29.8940   48.2980 C   0  0  0  0  0  0  0  0  0  0  0  0
   58.5620   30.2250   47.4100 N   0  0  0  0  0  0  0  0  0  0  0  0
   57.8460   29.2870   46.7380 C   0  0  0  0  0  0  0  0  0  0  0  0
   56.9530   29.6540   45.9280 O   0  0  0  0  0  0  0  0  0  0  0  0
   56.8900   28.8780   43.1600 C   0  0  0  0  0  0  0  0  0  0  0  0
   56.9960   30.2720   43.1730 C   0  0  0  0  0  0  0  0  0  0  0  0
   58.0915   32.4813   45.9360 H   0  0  0  0  0  0  0  0  0  0  0  0
   57.5299   33.9617   45.0875 H   0  0  0  0  0  0  0  0  0  0  0  0
   56.5082   32.4842   45.0875 H   0  0  0  0  0  0  0  0  0  0  0  0
   57.7234   32.8419   42.9171 H   0  0  0  0  0  0  0  0  0  0  0  0
   59.2817   32.6931   43.8138 H   0  0  0  0  0  0  0  0  0  0  0  0
   60.1199   30.5677   44.5316 H   0  0  0  0  0  0  0  0  0  0  0  0
   59.9420   28.0823   44.4796 H   0  0  0  0  0  0  0  0  0  0  0  0
   56.7796   26.2989   43.3744 H   0  0  0  0  0  0  0  0  0  0  0  0
   58.5603   26.1125   43.1325 H   0  0  0  0  0  0  0  0  0  0  0  0
   59.4458   24.7140   44.7132 H   0  0  0  0  0  0  0  0  0  0  0  0
   58.8806   24.7647   46.4349 H   0  0  0  0  0  0  0  0  0  0  0  0
   57.4462   24.0968   42.9958 H   0  0  0  0  0  0  0  0  0  0  0  0
   55.9309   22.1694   42.5399 H   0  0  0  0  0  0  0  0  0  0  0  0
   55.2553   20.6396   44.3925 H   0  0  0  0  0  0  0  0  0  0  0  0
   56.1001   21.0311   46.7077 H   0  0  0  0  0  0  0  0  0  0  0  0
   59.2925   26.4870   48.0671 H   0  0  0  0  0  0  0  0  0  0  0  0
   61.0488   27.1354   49.6613 H   0  0  0  0  0  0  0  0  0  0  0  0
   62.3319   28.9139   50.8374 H   0  0  0  0  0  0  0  0  0  0  0  0
   61.8900   31.7160   51.6040 H   0  0  0  0  0  0  0  0  0  0  0  0
   63.6637   31.1420   47.9667 H   0  0  0  0  0  0  0  0  0  0  0  0
   62.3554   32.3197   47.6089 H   0  0  0  0  0  0  0  0  0  0  0  0
   64.0702   32.8548   47.6089 H   0  0  0  0  0  0  0  0  0  0  0  0
   60.9533   32.5242   46.8436 H   0  0  0  0  0  0  0  0  0  0  0  0
   59.1904   32.5244   46.7294 H   0  0  0  0  0  0  0  0  0  0  0  0
   61.0584   34.7558   47.4264 H   0  0  0  0  0  0  0  0  0  0  0  0
   59.3902   34.8667   46.8418 H   0  0  0  0  0  0  0  0  0  0  0  0
   60.1555   35.3917   49.4695 H   0  0  0  0  0  0  0  0  0  0  0  0
   58.5156   34.8814   49.0372 H   0  0  0  0  0  0  0  0  0  0  0  0
   60.7186   33.3273   50.3502 H   0  0  0  0  0  0  0  0  0  0  0  0
   58.9810   33.0207   50.4124 H   0  0  0  0  0  0  0  0  0  0  0  0
   55.9859   28.4032   42.7511 H   0  0  0  0  0  0  0  0  0  0  0  0
   56.1685   30.8874   42.7902 H   0  0  0  0  0  0  0  0  0  0  0  0
  1  2  1  0
  2  3  1  0
  3  4  2  0
  4  5  1  0
  5  6  2  0
  6  7  1  0
  7  8  1  0
  8  9  1  0
  9 10  1  0
 10 11  2  0
 11 12  1  0
 12 13  2  0
 13 14  1  0
 14 15  2  0
 15 16  1  0
  8 17  1  0
 17 18  2  0
 17 19  1  0
 19 20  2  0
 20 21  1  0
 21 22  2  0
 22 23  1  0
 23 24  2  0
 24 25  1  0
 25 26  1  0
 26 27  1  0
 26 28  2  0
 26 29  2  0
 24 30  1  0
 30 31  1  0
 31 32  1  0
 32 33  1  0
 33 34  1  0
 34 35  1  0
 30 36  2  0
 36 37  1  0
 37 38  1  0
 38 39  2  0
  6 40  1  0
 40 41  2  0
 41  3  1  0
 15 10  1  0
 38 19  1  0
 36 21  1  0
 35 31  1  0
  1 42  1  0
  1 43  1  0
  1 44  1  0
  2 45  1  0
  2 46  1  0
  4 47  1  0
  5 48  1  0
  7 49  1  0
  7 50  1  0
  9 51  1  0
  9 52  1  0
 11 53  1  0
 12 54  1  0
 13 55  1  0
 14 56  1  0
 20 57  1  0
 22 58  1  0
 23 59  1  0
 25 60  1  0
 27 61  1  0
 27 62  1  0
 27 63  1  0
 32 64  1  0
 32 65  1  0
 33 66  1  0
 33 67  1  0
 34 68  1  0
 34 69  1  0
 35 70  1  0
 35 71  1  0
 40 72  1  0
 41 73  1  0
M  CHG  2  16  -1  37  -1
M  END
>  <UniqueID>  (51) 
45

>  <SMILES>  (51) 
CCc1ccc(CN(Cc2ccccc2[O-])C(=O)c2cc3ccc(NS(C)(=O)=O)c(N4CCCC4)c3[n-]c2=O)cc1

>  <Energy>  (51) 
88.11157491431285

>  <Genealogy>  (51) 
CCc1ccc(CN(Cc2ccccc2[O-])C(=O)c2cc3ccc(NS(C)(=O)=O)c(N4CCCC4)c3[n-]c2=O)cc1 (protonated)
CCc1ccc(CN(Cc2ccccc2[O-])C(=O)c2cc3ccc(NS(C)(=O)=O)c(N4CCCC4)c3[n-]c2=O)cc1 (3D coordinates assigned)
CCc1ccc(CN(Cc2ccccc2[O-])C(=O)c2cc3ccc(NS(C)(=O)=O)c(N4CCCC4)c3[n-]c2=O)cc1 (nonaromatic ring conformer: 88.11157491431285 kcal/mol)

>  <smiles>  (51) 
CCc1ccc(CN(Cc2ccccc2O)C(=O)c2cc3ccc(NS(C)(=O)=O)c(N4CCCC4)c3[nH]c2=O)cc1

>  <score_type>  (51) 
oracle

>  <origin>  (51) 
adg

>  <m_score__min__energy>  (51) 
-14.51

>  <m_primary>  (51) 
energy

$$$$
51:0
     RDKit          3D

 40 42  0  0  0  0  0  0  0  0999 V2000
   58.7050   32.0080   49.9490 C   0  0  0  0  0  0  0  0  0  0  0  0
   58.9210   32.8730   48.7430 C   0  0  0  0  0  0  0  0  0  0  0  0
   59.8340   33.9370   48.7910 C   0  0  0  0  0  0  0  0  0  0  0  0
   60.0010   34.7720   47.6830 C   0  0  0  0  0  0  0  0  0  0  0  0
   59.2540   34.5560   46.5230 C   0  0  0  0  0  0  0  0  0  0  0  0
   58.3330   33.4970   46.4610 C   0  0  0  0  0  0  0  0  0  0  0  0
   57.4900   33.2960   45.2320 C   0  0  0  0  0  0  0  0  0  0  0  0
   57.4570   31.8470   44.8670 C   0  0  0  0  0  0  0  0  0  0  0  0
   56.2700   31.2000   44.7600 N   0  0  0  0  0  0  0  0  0  0  0  0
   56.2040   29.8740   44.4750 C   0  0  0  0  0  0  0  0  0  0  0  0
   54.9430   29.2850   44.3800 O   0  0  0  0  0  0  0  0  0  0  0  0
   57.3980   29.1380   44.2900 C   0  0  0  0  0  0  0  0  0  0  0  0
   57.3820   27.6490   43.9970 C   0  0  0  0  0  0  0  0  0  0  0  0
   57.5660   26.8300   45.2570 C   0  0  0  0  0  0  0  0  0  0  0  0
   58.8580   26.4360   45.6530 C   0  0  0  0  0  0  0  0  0  0  0  0
   59.0450   25.6630   46.8030 C   0  0  0  0  0  0  0  0  0  0  0  0
   57.9440   25.2590   47.5600 C   0  0  0  0  0  0  0  0  0  0  0  0
   56.6550   25.6200   47.1660 C   0  0  0  0  0  0  0  0  0  0  0  0
   56.4580   26.3930   46.0160 C   0  0  0  0  0  0  0  0  0  0  0  0
   55.1600   26.7170   45.6360 O   0  0  0  0  0  0  0  0  0  0  0  0
   58.6170   29.8340   44.4240 C   0  0  0  0  0  0  0  0  0  0  0  0
   59.7190   29.2380   44.2870 O   0  0  0  0  0  0  0  0  0  0  0  0
   58.6170   31.1600   44.7090 N   0  0  0  0  0  0  0  0  0  0  0  0
   58.1580   32.6690   47.5820 C   0  0  0  0  0  0  0  0  0  0  0  0
   58.8542   32.6056   50.8604 H   0  0  0  0  0  0  0  0  0  0  0  0
   57.6798   31.6096   49.9356 H   0  0  0  0  0  0  0  0  0  0  0  0
   59.4226   31.1744   49.9356 H   0  0  0  0  0  0  0  0  0  0  0  0
   60.4207   34.1147   49.7043 H   0  0  0  0  0  0  0  0  0  0  0  0
   60.7225   35.6013   47.7246 H   0  0  0  0  0  0  0  0  0  0  0  0
   59.3873   35.2177   45.6544 H   0  0  0  0  0  0  0  0  0  0  0  0
   56.4661   33.6450   45.4314 H   0  0  0  0  0  0  0  0  0  0  0  0
   57.9234   33.8688   44.3989 H   0  0  0  0  0  0  0  0  0  0  0  0
   54.7800   28.2940   44.4950 H   0  0  0  0  0  0  0  0  0  0  0  0
   56.4175   27.3860   43.5382 H   0  0  0  0  0  0  0  0  0  0  0  0
   58.2160   27.4238   43.3160 H   0  0  0  0  0  0  0  0  0  0  0  0
   59.7283   26.7389   45.0524 H   0  0  0  0  0  0  0  0  0  0  0  0
   60.0603   25.3731   47.1114 H   0  0  0  0  0  0  0  0  0  0  0  0
   58.0926   24.6557   48.4677 H   0  0  0  0  0  0  0  0  0  0  0  0
   55.7894   25.2954   47.7622 H   0  0  0  0  0  0  0  0  0  0  0  0
   57.4184   31.8554   47.5502 H   0  0  0  0  0  0  0  0  0  0  0  0
  1  2  1  0
  2  3  2  0
  3  4  1  0
  4  5  2  0
  5  6  1  0
  6  7  1  0
  7  8  1  0
  8  9  2  0
  9 10  1  0
 10 11  1  0
 10 12  2  0
 12 13  1  0
 13 14  1  0
 14 15  2  0
 15 16  1  0
 16 17  2  0
 17 18  1  0
 18 19  2  0
 19 20  1  0
 12 21  1  0
 21 22  2  0
 21 23  1  0
  6 24  2  0
 24  2  1  0
 23  8  1  0
 19 14  1  0
  1 25  1  0
  1 26  1  0
  1 27  1  0
  3 28  1  0
  4 29  1  0
  5 30  1  0
  7 31  1  0
  7 32  1  0
 11 33  1  0
 13 34  1  0
 13 35  1  0
 15 36  1  0
 16 37  1  0
 17 38  1  0
 18 39  1  0
 24 40  1  0
M  CHG  2  20  -1  23  -1
M  END
>  <UniqueID>  (52) 
46

>  <SMILES>  (52) 
Cc1cccc(Cc2nc(O)c(Cc3ccccc3[O-])c(=O)[n-]2)c1

>  <Energy>  (52) 
44.190590590423085

>  <Genealogy>  (52) 
Cc1cccc(Cc2nc(O)c(Cc3ccccc3[O-])c(=O)[n-]2)c1 (protonated)
Cc1cccc(Cc2nc(O)c(Cc3ccccc3[O-])c(=O)[n-]2)c1 (3D coordinates assigned)
Cc1cccc(Cc2nc(O)c(Cc3ccccc3[O-])c(=O)[n-]2)c1 (optimized conformer: 44.190590590423085 kcal/mol)

>  <smiles>  (52) 
Cc1cccc(Cc2nc(O)c(Cc3ccccc3O)c(=O)[nH]2)c1

>  <score_type>  (52) 
oracle

>  <origin>  (52) 
adg

>  <m_score__min__energy>  (52) 
-13.99

>  <m_primary>  (52) 
energy

$$$$
52:0
     RDKit          3D

 46 49  0  0  0  0  0  0  0  0999 V2000
   59.8070   29.0450   44.6580 C   0  0  0  0  0  0  0  0  0  0  0  0
   59.7360   28.6760   45.9480 C   0  0  0  0  0  0  0  0  0  0  0  0
   58.9560   27.6350   46.4720 C   0  0  0  0  0  0  0  0  0  0  0  0
   58.1450   26.8040   45.7810 C   0  0  0  0  0  0  0  0  0  0  0  0
   57.4250   25.6390   46.3410 C   0  0  0  0  0  0  0  0  0  0  0  0
   57.9890   24.5160   46.8220 N   0  0  0  0  0  0  0  0  0  0  0  0
   56.9350   23.7910   47.2520 C   0  0  0  0  0  0  0  0  0  0  0  0
   57.0640   22.6510   47.7710 O   0  0  0  0  0  0  0  0  0  0  0  0
   55.7350   24.3830   47.0850 N   0  0  0  0  0  0  0  0  0  0  0  0
   56.0630   25.5540   46.5120 C   0  0  0  0  0  0  0  0  0  0  0  0
   55.1360   26.5270   46.1520 O   0  0  0  0  0  0  0  0  0  0  0  0
   59.2100   27.6180   47.8380 C   0  0  0  0  0  0  0  0  0  0  0  0
   60.1070   28.6350   48.0910 C   0  0  0  0  0  0  0  0  0  0  0  0
   60.6820   28.9350   49.4430 C   0  0  0  0  0  0  0  0  0  0  0  0
   60.4320   29.2800   46.9460 N   0  0  0  0  0  0  0  0  0  0  0  0
   61.3470   30.4270   46.8260 C   0  0  0  0  0  0  0  0  0  0  0  0
   60.6150   31.7250   47.0630 C   0  0  0  0  0  0  0  0  0  0  0  0
   60.9350   32.5280   48.1690 C   0  0  0  0  0  0  0  0  0  0  0  0
   60.2610   33.7310   48.3860 C   0  0  0  0  0  0  0  0  0  0  0  0
   59.2730   34.1530   47.4940 C   0  0  0  0  0  0  0  0  0  0  0  0
   58.9580   33.3790   46.3640 C   0  0  0  0  0  0  0  0  0  0  0  0
   57.9020   33.8120   45.4190 C   0  0  0  0  0  0  0  0  0  0  0  0
   58.0150   34.9240   44.8400 O   0  0  0  0  0  0  0  0  0  0  0  0
   56.7760   32.9810   45.0920 N   0  0  0  0  0  0  0  0  0  0  0  0
   56.8350   31.8150   44.5200 C   0  0  0  0  0  0  0  0  0  0  0  0
   57.0300   31.6790   43.1930 N   0  0  0  0  0  0  0  0  0  0  0  0
   56.9980   30.3480   43.0040 C   0  0  0  0  0  0  0  0  0  0  0  0
   56.7790   29.7220   44.2080 C   0  0  0  0  0  0  0  0  0  0  0  0
   56.6700   30.6460   45.1770 N   0  0  0  0  0  0  0  0  0  0  0  0
   59.6290   32.1600   46.1610 C   0  0  0  0  0  0  0  0  0  0  0  0
   60.4565   29.8813   44.3601 H   0  0  0  0  0  0  0  0  0  0  0  0
   59.2156   28.5108   43.8998 H   0  0  0  0  0  0  0  0  0  0  0  0
   58.0082   27.0116   44.7095 H   0  0  0  0  0  0  0  0  0  0  0  0
   54.3450   26.7310   46.7490 H   0  0  0  0  0  0  0  0  0  0  0  0
   58.7784   26.9261   48.5763 H   0  0  0  0  0  0  0  0  0  0  0  0
   59.9936   28.5758   50.2221 H   0  0  0  0  0  0  0  0  0  0  0  0
   61.6526   28.4283   49.5493 H   0  0  0  0  0  0  0  0  0  0  0  0
   60.8217   30.0209   49.5493 H   0  0  0  0  0  0  0  0  0  0  0  0
   62.1512   30.3258   47.5696 H   0  0  0  0  0  0  0  0  0  0  0  0
   61.7648   30.4391   45.8085 H   0  0  0  0  0  0  0  0  0  0  0  0
   61.7211   32.2075   48.8685 H   0  0  0  0  0  0  0  0  0  0  0  0
   60.5089   34.3483   49.2621 H   0  0  0  0  0  0  0  0  0  0  0  0
   58.7382   35.0967   47.6768 H   0  0  0  0  0  0  0  0  0  0  0  0
   57.1269   29.8397   42.0371 H   0  0  0  0  0  0  0  0  0  0  0  0
   56.7046   28.6344   44.3551 H   0  0  0  0  0  0  0  0  0  0  0  0
   59.3795   31.5404   45.2870 H   0  0  0  0  0  0  0  0  0  0  0  0
  1  2  2  0
  2  3  1  0
  3  4  2  3
  4  5  1  0
  5  6  1  0
  6  7  1  0
  7  8  2  0
  7  9  1  0
  9 10  1  0
 10 11  1  0
  3 12  1  0
 12 13  2  0
 13 14  1  0
 13 15  1  0
 15 16  1  0
 16 17  1  0
 17 18  2  0
 18 19  1  0
 19 20  2  0
 20 21  1  0
 21 22  1  0
 22 23  2  0
 22 24  1  0
 24 25  2  3
 25 26  1  0
 26 27  1  0
 27 28  2  0
 28 29  1  0
 21 30  2  0
 15  2  1  0
 30 17  1  0
 10  5  2  0
 29 25  1  0
  1 31  1  0
  1 32  1  0
  4 33  1  0
 11 34  1  0
 12 35  1  0
 14 36  1  0
 14 37  1  0
 14 38  1  0
 16 39  1  0
 16 40  1  0
 18 41  1  0
 19 42  1  0
 20 43  1  0
 27 44  1  0
 28 45  1  0
 30 46  1  0
M  CHG  4   6  -1   9  -1  26  -1  29  -1
M  END
>  <UniqueID>  (53) 
47

>  <SMILES>  (53) 
C=c1c(=Cc2[n-]c(=O)[n-]c2O)cc(C)n1Cc1cccc(C(=O)N=c2[n-]cc[n-]2)c1

>  <Energy>  (53) 
145.64467681045537

>  <Genealogy>  (53) 
C=c1c(=Cc2[n-]c(=O)[n-]c2O)cc(C)n1Cc1cccc(C(=O)N=c2[n-]cc[n-]2)c1 (protonated)
C=c1c(=Cc2[n-]c(=O)[n-]c2O)cc(C)n1Cc1cccc(C(=O)N=c2[n-]cc[n-]2)c1 (3D coordinates assigned)
C=c1c(=Cc2[n-]c(=O)[n-]c2O)cc(C)n1Cc1cccc(C(=O)N=c2[n-]cc[n-]2)c1 (optimized conformer: 145.64467681045537 kcal/mol)

>  <smiles>  (53) 
C=c1c(=Cc2[nH]c(=O)[nH]c2O)cc(C)n1Cc1cccc(C(=O)N=c2[nH]cc[nH]2)c1

>  <score_type>  (53) 
oracle

>  <origin>  (53) 
adg

>  <m_score__min__energy>  (53) 
-15.789999999999999

>  <m_primary>  (53) 
energy

$$$$
53:0
     RDKit          3D

 57 60  0  0  0  0  0  0  0  0999 V2000
   55.7710   28.5180   44.1160 H   0  0  0  0  0  0  0  0  0  0  0  0
   56.0750   29.2440   44.7560 O   0  0  0  0  0  0  0  0  0  0  0  0
   57.4220   29.4260   45.0650 C   0  0  0  0  0  0  0  0  0  0  0  0
   57.9090   30.7010   45.3870 C   0  0  0  0  0  0  0  0  0  0  0  0
   57.2210   31.5591   45.4042 H   0  0  0  0  0  0  0  0  0  0  0  0
   59.2690   30.8920   45.6880 C   0  0  0  0  0  0  0  0  0  0  0  0
   59.7660   32.2020   46.0170 N   0  0  0  0  0  0  0  0  0  0  0  0
   58.9970   33.4050   45.6720 C   0  0  0  0  0  0  0  0  0  0  0  0
   59.5580   34.0007   44.9369 H   0  0  0  0  0  0  0  0  0  0  0  0
   58.0282   33.1106   45.2421 H   0  0  0  0  0  0  0  0  0  0  0  0
   58.7630   34.2410   46.9360 C   0  0  0  0  0  0  0  0  0  0  0  0
   58.3529   35.2159   46.6336 H   0  0  0  0  0  0  0  0  0  0  0  0
   58.0729   33.6664   47.5714 H   0  0  0  0  0  0  0  0  0  0  0  0
   60.0540   34.4940   47.7880 C   0  0  0  0  0  0  0  0  0  0  0  0
   60.2904   35.5681   47.8073 H   0  0  0  0  0  0  0  0  0  0  0  0
   59.8110   34.0820   49.2060 N   0  0  0  0  0  0  0  0  0  0  0  0
   61.0970   33.8480   49.9000 C   0  0  0  0  0  0  0  0  0  0  0  0
   60.9371   33.8771   50.9879 H   0  0  0  0  0  0  0  0  0  0  0  0
   61.4941   32.8629   49.6140 H   0  0  0  0  0  0  0  0  0  0  0  0
   61.8156   34.6301   49.6140 H   0  0  0  0  0  0  0  0  0  0  0  0
   58.9960   32.8580   49.3340 C   0  0  0  0  0  0  0  0  0  0  0  0
   58.8434   32.6288   50.3990 H   0  0  0  0  0  0  0  0  0  0  0  0
   58.0210   33.0143   48.8492 H   0  0  0  0  0  0  0  0  0  0  0  0
   59.5162   32.0187   48.8492 H   0  0  0  0  0  0  0  0  0  0  0  0
   61.2910   33.8040   47.1330 C   0  0  0  0  0  0  0  0  0  0  0  0
   61.5508   34.3414   46.2090 H   0  0  0  0  0  0  0  0  0  0  0  0
   62.1211   33.8339   47.8542 H   0  0  0  0  0  0  0  0  0  0  0  0
   61.0090   32.3360   46.7910 C   0  0  0  0  0  0  0  0  0  0  0  0
   61.8459   31.9381   46.1983 H   0  0  0  0  0  0  0  0  0  0  0  0
   60.8982   31.7737   47.7299 H   0  0  0  0  0  0  0  0  0  0  0  0
   60.1340   29.7860   45.6740 C   0  0  0  0  0  0  0  0  0  0  0  0
   61.1987   29.9216   45.9150 H   0  0  0  0  0  0  0  0  0  0  0  0
   59.6510   28.5150   45.3560 C   0  0  0  0  0  0  0  0  0  0  0  0
   60.3373   27.6554   45.3465 H   0  0  0  0  0  0  0  0  0  0  0  0
   58.2970   28.3290   45.0490 C   0  0  0  0  0  0  0  0  0  0  0  0
   57.8090   27.0170   44.7220 N   0  0  0  0  0  0  0  0  0  0  0  0
   57.8940   26.4340   43.5080 C   0  0  0  0  0  0  0  0  0  0  0  0
   58.5440   27.0530   42.3070 C   0  0  0  0  0  0  0  0  0  0  0  0
   59.3045   27.7773   42.6342 H   0  0  0  0  0  0  0  0  0  0  0  0
   59.0216   26.2675   41.7029 H   0  0  0  0  0  0  0  0  0  0  0  0
   57.7828   27.5683   41.7029 H   0  0  0  0  0  0  0  0  0  0  0  0
   57.2490   25.2140   43.5170 C   0  0  0  0  0  0  0  0  0  0  0  0
   57.1352   24.5268   42.6656 H   0  0  0  0  0  0  0  0  0  0  0  0
   56.7720   25.0200   44.8040 C   0  0  0  0  0  0  0  0  0  0  0  0
   56.1480   23.8880   45.1860 C   0  0  0  0  0  0  0  0  0  0  0  0
   56.7756   23.0000   45.3521 H   0  0  0  0  0  0  0  0  0  0  0  0
   54.7010   23.7370   45.4000 C   0  0  0  0  0  0  0  0  0  0  0  0
   54.0190   22.5860   45.2470 N   0  0  0  0  0  0  0  0  0  0  0  0
   52.7320   22.9640   45.4060 C   0  0  0  0  0  0  0  0  0  0  0  0
   51.7750   22.1480   45.3480 O   0  0  0  0  0  0  0  0  0  0  0  0
   52.5500   24.2850   45.6200 N   0  0  0  0  0  0  0  0  0  0  0  0
   53.8060   24.7600   45.5970 C   0  0  0  0  0  0  0  0  0  0  0  0
   54.1250   26.1030   45.7470 O   0  0  0  0  0  0  0  0  0  0  0  0
   57.0960   26.1840   45.5220 C   0  0  0  0  0  0  0  0  0  0  0  0
   56.6830   26.5220   46.7530 C   0  0  0  0  0  0  0  0  0  0  0  0
   57.0135   27.4697   47.2031 H   0  0  0  0  0  0  0  0  0  0  0  0
   56.0139   25.8514   47.3121 H   0  0  0  0  0  0  0  0  0  0  0  0
  1  2  1  0
  2  3  1  0
  3  4  2  0
  4  5  1  0
  4  6  1  0
  6  7  1  0
  7  8  1  0
  8  9  1  0
  8 10  1  0
  8 11  1  0
 11 12  1  0
 11 13  1  0
 11 14  1  0
 14 15  1  0
 14 16  1  0
 16 17  1  0
 17 18  1  0
 17 19  1  0
 17 20  1  0
 16 21  1  0
 21 22  1  0
 21 23  1  0
 21 24  1  0
 14 25  1  0
 25 26  1  0
 25 27  1  0
 25 28  1  0
 28 29  1  0
 28 30  1  0
  6 31  2  0
 31 32  1  0
 31 33  1  0
 33 34  1  0
 33 35  2  0
 35 36  1  0
 36 37  1  0
 37 38  1  0
 38 39  1  0
 38 40  1  0
 38 41  1  0
 37 42  2  0
 42 43  1  0
 42 44  1  0
 44 45  2  0
 45 46  1  0
 45 47  1  0
 47 48  1  0
 48 49  1  0
 49 50  2  0
 49 51  1  0
 51 52  1  0
 52 53  1  0
 44 54  1  0
 54 55  2  0
 55 56  1  0
 55 57  1  0
 35  3  1  0
 54 36  1  0
 28  7  1  0
 52 47  2  0
M  CHG  3  48  -1  51  -1  53  -1
M  END
>  <UniqueID>  (54) 
48

>  <SMILES>  (54) 
C=c1/c(=C\c2[n-]c(=O)[n-]c2[O-])cc(C)n1-c1ccc(N2CCC(N(C)C)CC2)cc1O

>  <Energy>  (54) 
148.95582990020225

>  <Genealogy>  (54) 
C=c1c(=Cc2[n-]c(=O)[n-]c2[O-])cc(C)n1-c1ccc(N2CCC(N(C)C)CC2)cc1O (protonated)
C=c1/c(=C\c2[n-]c(=O)[n-]c2[O-])cc(C)n1-c1ccc(N2CCC(N(C)C)CC2)cc1O (cis-trans isomerization)
C=c1/c(=C\c2[n-]c(=O)[n-]c2[O-])cc(C)n1-c1ccc(N2CCC(N(C)C)CC2)cc1O (3D coordinates assigned)
C=c1/c(=C\c2[n-]c(=O)[n-]c2[O-])cc(C)n1-c1ccc(N2CCC(N(C)C)CC2)cc1O (nonaromatic ring conformer: 148.95582990020225 kcal/mol)

>  <smiles>  (54) 
C=c1c(=Cc2[nH]c(=O)[nH]c2O)cc(C)n1-c1ccc(N2CCC(N(C)C)CC2)cc1O

>  <score_type>  (54) 
oracle

>  <origin>  (54) 
adg

>  <m_score__min__energy>  (54) 
-15.529999999999999

>  <m_primary>  (54) 
energy

$$$$
54:0
     RDKit          3D

 47 50  0  0  0  0  0  0  0  0999 V2000
   59.6760   30.1160   48.0860 C   0  0  0  0  0  0  0  0  0  0  0  0
   59.1760   30.6100   46.9420 C   0  0  0  0  0  0  0  0  0  0  0  0
   58.6080   29.8710   45.8910 C   0  0  0  0  0  0  0  0  0  0  0  0
   58.6050   28.5480   45.6380 C   0  0  0  0  0  0  0  0  0  0  0  0
   57.5430   27.6020   46.0210 C   0  0  0  0  0  0  0  0  0  0  0  0
   57.7490   26.4300   46.6490 N   0  0  0  0  0  0  0  0  0  0  0  0
   56.5240   25.8620   46.6600 C   0  0  0  0  0  0  0  0  0  0  0  0
   56.3020   24.7400   47.1840 O   0  0  0  0  0  0  0  0  0  0  0  0
   55.5590   26.5860   46.0540 N   0  0  0  0  0  0  0  0  0  0  0  0
   56.2250   27.6780   45.6420 C   0  0  0  0  0  0  0  0  0  0  0  0
   55.6440   28.7220   44.9310 O   0  0  0  0  0  0  0  0  0  0  0  0
   57.9980   30.7900   45.0570 C   0  0  0  0  0  0  0  0  0  0  0  0
   58.2730   32.0400   45.5680 C   0  0  0  0  0  0  0  0  0  0  0  0
   57.7780   33.3230   44.9710 C   0  0  0  0  0  0  0  0  0  0  0  0
   59.0000   31.9390   46.7060 N   0  0  0  0  0  0  0  0  0  0  0  0
   59.3960   33.0650   47.5680 C   0  0  0  0  0  0  0  0  0  0  0  0
   60.8830   33.2740   47.5060 C   0  0  0  0  0  0  0  0  0  0  0  0
   61.6930   33.0170   48.6220 C   0  0  0  0  0  0  0  0  0  0  0  0
   63.0830   33.2200   48.5430 C   0  0  0  0  0  0  0  0  0  0  0  0
   63.9820   32.8650   49.7150 C   0  0  0  0  0  0  0  0  0  0  0  0
   65.3360   33.0310   49.3640 O   0  0  0  0  0  0  0  0  0  0  0  0
   63.6990   31.4980   50.3650 C   0  0  0  0  0  0  0  0  0  0  0  0
   63.4090   32.1870   51.6930 C   0  0  0  0  0  0  0  0  0  0  0  0
   63.6230   33.5490   51.0470 C   0  0  0  0  0  0  0  0  0  0  0  0
   63.6350   33.5970   47.3070 C   0  0  0  0  0  0  0  0  0  0  0  0
   62.7960   33.8450   46.2190 C   0  0  0  0  0  0  0  0  0  0  0  0
   61.4550   33.6820   46.3410 N   0  0  0  0  0  0  0  0  0  0  0  0
   60.0976   30.7960   48.8409 H   0  0  0  0  0  0  0  0  0  0  0  0
   59.6641   29.0313   48.2683 H   0  0  0  0  0  0  0  0  0  0  0  0
   59.4714   28.1383   45.0982 H   0  0  0  0  0  0  0  0  0  0  0  0
   54.7390   28.6060   44.4930 H   0  0  0  0  0  0  0  0  0  0  0  0
   57.4061   30.5660   44.1573 H   0  0  0  0  0  0  0  0  0  0  0  0
   57.5083   34.0221   45.7763 H   0  0  0  0  0  0  0  0  0  0  0  0
   58.5692   33.7674   44.3493 H   0  0  0  0  0  0  0  0  0  0  0  0
   56.8933   33.1209   44.3493 H   0  0  0  0  0  0  0  0  0  0  0  0
   58.8870   33.9787   47.2275 H   0  0  0  0  0  0  0  0  0  0  0  0
   59.1104   32.8378   48.6057 H   0  0  0  0  0  0  0  0  0  0  0  0
   61.2417   32.6570   49.5583 H   0  0  0  0  0  0  0  0  0  0  0  0
   65.4640   32.7240   48.4280 H   0  0  0  0  0  0  0  0  0  0  0  0
   62.8357   30.9676   49.9367 H   0  0  0  0  0  0  0  0  0  0  0  0
   64.4439   30.6906   50.3085 H   0  0  0  0  0  0  0  0  0  0  0  0
   62.3874   32.0250   52.0672 H   0  0  0  0  0  0  0  0  0  0  0  0
   63.9735   31.9083   52.5951 H   0  0  0  0  0  0  0  0  0  0  0  0
   62.7171   34.1713   51.0018 H   0  0  0  0  0  0  0  0  0  0  0  0
   64.3114   34.2771   51.5008 H   0  0  0  0  0  0  0  0  0  0  0  0
   64.7250   33.6964   47.1970 H   0  0  0  0  0  0  0  0  0  0  0  0
   63.2237   34.1735   45.2602 H   0  0  0  0  0  0  0  0  0  0  0  0
  1  2  2  0
  2  3  1  0
  3  4  2  3
  4  5  1  0
  5  6  1  0
  6  7  1  0
  7  8  2  0
  7  9  1  0
  9 10  1  0
 10 11  1  0
  3 12  1  0
 12 13  2  0
 13 14  1  0
 13 15  1  0
 15 16  1  0
 16 17  1  0
 17 18  2  0
 18 19  1  0
 19 20  1  0
 20 21  1  0
 20 22  1  0
 22 23  1  0
 23 24  1  0
 19 25  2  0
 25 26  1  0
 26 27  2  0
 15  2  1  0
 27 17  1  0
 10  5  2  0
 24 20  1  0
  1 28  1  0
  1 29  1  0
  4 30  1  0
 11 31  1  0
 12 32  1  0
 14 33  1  0
 14 34  1  0
 14 35  1  0
 16 36  1  0
 16 37  1  0
 18 38  1  0
 21 39  1  0
 22 40  1  0
 22 41  1  0
 23 42  1  0
 23 43  1  0
 24 44  1  0
 24 45  1  0
 25 46  1  0
 26 47  1  0
M  CHG  2   6  -1   9  -1
M  END
>  <UniqueID>  (55) 
49

>  <SMILES>  (55) 
C=c1c(=Cc2[n-]c(=O)[n-]c2O)cc(C)n1Cc1cc(C2(O)CCC2)ccn1

>  <Energy>  (55) 
182.1111735844128

>  <Genealogy>  (55) 
C=c1c(=Cc2[n-]c(=O)[n-]c2O)cc(C)n1Cc1cc(C2(O)CCC2)ccn1 (protonated)
C=c1c(=Cc2[n-]c(=O)[n-]c2O)cc(C)n1Cc1cc(C2(O)CCC2)ccn1 (3D coordinates assigned)
C=c1c(=Cc2[n-]c(=O)[n-]c2O)cc(C)n1Cc1cc(C2(O)CCC2)ccn1 (nonaromatic ring conformer: 182.1111735844128 kcal/mol)

>  <smiles>  (55) 
C=c1c(=Cc2[nH]c(=O)[nH]c2O)cc(C)n1Cc1cc(C2(O)CCC2)ccn1

>  <score_type>  (55) 
oracle

>  <origin>  (55) 
adg

>  <m_score__min__energy>  (55) 
-13.710000000000001

>  <m_primary>  (55) 
energy

$$$$
55:0
     RDKit          3D

 33 34  0  0  0  0  0  0  0  0999 V2000
   60.0879   35.7136   47.0157 H   0  0  0  0  0  0  0  0  0  0  0  0
   59.5410   34.8810   46.5490 C   0  0  0  0  0  0  0  0  0  0  0  0
   59.1170   33.7950   47.3220 C   0  0  0  0  0  0  0  0  0  0  0  0
   59.3570   33.7810   48.8030 C   0  0  0  0  0  0  0  0  0  0  0  0
   58.3937   33.8372   49.3311 H   0  0  0  0  0  0  0  0  0  0  0  0
   59.8743   32.8511   49.0818 H   0  0  0  0  0  0  0  0  0  0  0  0
   59.9789   34.6444   49.0818 H   0  0  0  0  0  0  0  0  0  0  0  0
   58.4020   32.7580   46.7110 C   0  0  0  0  0  0  0  0  0  0  0  0
   58.0343   31.9139   47.3129 H   0  0  0  0  0  0  0  0  0  0  0  0
   58.1550   32.7960   45.3320 C   0  0  0  0  0  0  0  0  0  0  0  0
   57.4820   31.8150   44.7970 N   0  0  0  0  0  0  0  0  0  0  0  0
   57.4270   31.4340   43.4140 C   0  0  0  0  0  0  0  0  0  0  0  0
   58.0760   32.0750   42.5430 O   0  0  0  0  0  0  0  0  0  0  0  0
   56.7010   30.1860   43.0160 C   0  0  0  0  0  0  0  0  0  0  0  0
   56.2642   30.3303   42.0168 H   0  0  0  0  0  0  0  0  0  0  0  0
   57.4215   29.3548   43.0134 H   0  0  0  0  0  0  0  0  0  0  0  0
   55.3630   29.7800   44.1960 S   0  0  0  0  0  0  0  0  0  0  0  0
   56.3860   28.7420   45.2370 C   0  0  0  0  0  0  0  0  0  0  0  0
   57.6050   29.1840   45.6430 N   0  0  0  0  0  0  0  0  0  0  0  0
   58.3990   28.4210   46.4370 C   0  0  0  0  0  0  0  0  0  0  0  0
   59.7230   28.9470   46.8930 C   0  0  0  0  0  0  0  0  0  0  0  0
   59.7537   28.9592   47.9925 H   0  0  0  0  0  0  0  0  0  0  0  0
   60.5261   28.2996   46.5109 H   0  0  0  0  0  0  0  0  0  0  0  0
   59.8628   29.9690   46.5109 H   0  0  0  0  0  0  0  0  0  0  0  0
   57.9520   27.1620   46.8560 C   0  0  0  0  0  0  0  0  0  0  0  0
   58.5731   26.5336   47.5112 H   0  0  0  0  0  0  0  0  0  0  0  0
   56.7000   26.7230   46.4230 C   0  0  0  0  0  0  0  0  0  0  0  0
   56.2680   25.5940   46.7740 O   0  0  0  0  0  0  0  0  0  0  0  0
   55.9420   27.5180   45.6240 N   0  0  0  0  0  0  0  0  0  0  0  0
   58.5830   33.8760   44.6020 N   0  0  0  0  0  0  0  0  0  0  0  0
   58.3620   33.9740   43.5880 H   0  0  0  0  0  0  0  0  0  0  0  0
   59.2650   34.9000   45.1820 C   0  0  0  0  0  0  0  0  0  0  0  0
   59.6012   35.7490   44.5687 H   0  0  0  0  0  0  0  0  0  0  0  0
  1  2  1  0
  2  3  1  0
  3  4  1  0
  4  5  1  0
  4  6  1  0
  4  7  1  0
  3  8  2  0
  8  9  1  0
  8 10  1  0
 10 11  2  0
 11 12  1  0
 12 13  2  0
 12 14  1  0
 14 15  1  0
 14 16  1  0
 14 17  1  0
 17 18  1  0
 18 19  2  0
 19 20  1  0
 20 21  1  0
 21 22  1  0
 21 23  1  0
 21 24  1  0
 20 25  2  0
 25 26  1  0
 25 27  1  0
 27 28  2  0
 27 29  1  0
 10 30  1  0
 30 31  1  0
 30 32  1  0
 32 33  1  0
 32  2  2  0
 29 18  1  0
M  CHG  1  29  -1
M  END
>  <UniqueID>  (56) 
50

>  <SMILES>  (56) 
Cc1cc[nH]/c(=N\C(=O)CSc2nc(C)cc(=O)[n-]2)c1

>  <Energy>  (56) 
32.879245412075086

>  <Genealogy>  (56) 
Cc1cc[nH]c(=NC(=O)CSc2nc(C)cc(=O)[n-]2)c1 (protonated)
Cc1cc[nH]/c(=N\C(=O)CSc2nc(C)cc(=O)[n-]2)c1 (cis-trans isomerization)
Cc1cc[nH]/c(=N\C(=O)CSc2nc(C)cc(=O)[n-]2)c1 (3D coordinates assigned)
Cc1cc[nH]/c(=N\C(=O)CSc2nc(C)cc(=O)[n-]2)c1 (optimized conformer: 32.879245412075086 kcal/mol)

>  <smiles>  (56) 
Cc1cc[nH]c(=NC(=O)CSc2nc(C)cc(=O)[nH]2)c1

>  <score_type>  (56) 
oracle

>  <origin>  (56) 
adg

>  <m_score__min__energy>  (56) 
-8.5500000000000007

>  <m_primary>  (56) 
energy

$$$$
56:0
     RDKit          3D

 63 66  0  0  0  0  0  0  0  0999 V2000
   58.7339   26.4135   48.1074 H   0  0  0  0  0  0  0  0  0  0  0  0
   58.1430   25.6740   47.5470 C   0  0  0  0  0  0  0  0  0  0  0  0
   57.7734   24.7690   48.0513 H   0  0  0  0  0  0  0  0  0  0  0  0
   57.8730   25.8760   46.2480 C   0  0  0  0  0  0  0  0  0  0  0  0
   57.1370   25.0330   45.3990 C   0  0  0  0  0  0  0  0  0  0  0  0
   56.3280   23.9920   45.6750 C   0  0  0  0  0  0  0  0  0  0  0  0
   56.7950   23.0903   46.0978 H   0  0  0  0  0  0  0  0  0  0  0  0
   54.8710   23.9580   45.4590 C   0  0  0  0  0  0  0  0  0  0  0  0
   54.1500   22.8380   45.2670 N   0  0  0  0  0  0  0  0  0  0  0  0
   52.8750   23.2850   45.2650 C   0  0  0  0  0  0  0  0  0  0  0  0
   51.8900   22.5210   45.0940 O   0  0  0  0  0  0  0  0  0  0  0  0
   52.7390   24.6110   45.4730 N   0  0  0  0  0  0  0  0  0  0  0  0
   54.0120   25.0190   45.6080 C   0  0  0  0  0  0  0  0  0  0  0  0
   54.3790   26.3320   45.8710 O   0  0  0  0  0  0  0  0  0  0  0  0
   57.3600   25.4900   44.1110 C   0  0  0  0  0  0  0  0  0  0  0  0
   56.9868   25.0363   43.1810 H   0  0  0  0  0  0  0  0  0  0  0  0
   58.1390   26.6220   44.2170 C   0  0  0  0  0  0  0  0  0  0  0  0
   58.5860   27.4560   43.0540 C   0  0  0  0  0  0  0  0  0  0  0  0
   59.0753   28.3690   43.4241 H   0  0  0  0  0  0  0  0  0  0  0  0
   59.2969   26.8812   42.4423 H   0  0  0  0  0  0  0  0  0  0  0  0
   57.7137   27.7297   42.4423 H   0  0  0  0  0  0  0  0  0  0  0  0
   58.4520   26.8590   45.5110 N   0  0  0  0  0  0  0  0  0  0  0  0
   59.2610   27.9470   45.9980 C   0  0  0  0  0  0  0  0  0  0  0  0
   59.0260   28.4830   47.2720 C   0  0  0  0  0  0  0  0  0  0  0  0
   58.2288   28.0637   47.9034 H   0  0  0  0  0  0  0  0  0  0  0  0
   59.7990   29.5470   47.7440 C   0  0  0  0  0  0  0  0  0  0  0  0
   59.6134   29.9558   48.7482 H   0  0  0  0  0  0  0  0  0  0  0  0
   60.8110   30.0960   46.9420 C   0  0  0  0  0  0  0  0  0  0  0  0
   61.6420   31.2390   47.4580 C   0  0  0  0  0  0  0  0  0  0  0  0
   62.5951   30.8474   47.8430 H   0  0  0  0  0  0  0  0  0  0  0  0
   61.8240   31.9441   46.6336 H   0  0  0  0  0  0  0  0  0  0  0  0
   60.9430   31.9430   48.5330 N   0  0  0  0  0  0  0  0  0  0  0  0
   61.4190   33.6160   48.6000 S   0  0  0  0  0  0  0  0  0  0  0  0
   62.8070   33.7870   48.0480 O   0  0  0  0  0  0  0  0  0  0  0  0
   61.3840   34.1040   50.0220 O   0  0  0  0  0  0  0  0  0  0  0  0
   60.2810   34.5940   47.6310 C   0  0  0  0  0  0  0  0  0  0  0  0
   59.2763   34.5215   48.0730 H   0  0  0  0  0  0  0  0  0  0  0  0
   60.6252   35.6388   47.6315 H   0  0  0  0  0  0  0  0  0  0  0  0
   60.2300   34.0940   46.1820 C   0  0  0  0  0  0  0  0  0  0  0  0
   60.7880   34.7932   45.5419 H   0  0  0  0  0  0  0  0  0  0  0  0
   60.6782   33.0901   46.1452 H   0  0  0  0  0  0  0  0  0  0  0  0
   58.8340   34.0010   45.6930 N   0  0  0  0  0  0  0  0  0  0  0  0
   57.9750   33.2630   46.6540 C   0  0  0  0  0  0  0  0  0  0  0  0
   58.4204   33.3347   47.6572 H   0  0  0  0  0  0  0  0  0  0  0  0
   56.9724   33.7150   46.6328 H   0  0  0  0  0  0  0  0  0  0  0  0
   57.8380   31.7810   46.2760 C   0  0  0  0  0  0  0  0  0  0  0  0
   58.8393   31.3273   46.2381 H   0  0  0  0  0  0  0  0  0  0  0  0
   57.2138   31.2864   47.0348 H   0  0  0  0  0  0  0  0  0  0  0  0
   57.1850   31.6180   44.9570 N   0  0  0  0  0  0  0  0  0  0  0  0
   57.5560   30.3270   44.3540 C   0  0  0  0  0  0  0  0  0  0  0  0
   57.7657   29.5973   45.1500 H   0  0  0  0  0  0  0  0  0  0  0  0
   56.7265   29.9615   43.7308 H   0  0  0  0  0  0  0  0  0  0  0  0
   58.4529   30.4577   43.7308 H   0  0  0  0  0  0  0  0  0  0  0  0
   57.4400   32.7450   44.0250 C   0  0  0  0  0  0  0  0  0  0  0  0
   57.4594   32.3565   42.9961 H   0  0  0  0  0  0  0  0  0  0  0  0
   56.6353   33.4830   44.1587 H   0  0  0  0  0  0  0  0  0  0  0  0
   58.7770   33.4460   44.3150 C   0  0  0  0  0  0  0  0  0  0  0  0
   59.5924   32.7179   44.1926 H   0  0  0  0  0  0  0  0  0  0  0  0
   58.8784   34.2839   43.6095 H   0  0  0  0  0  0  0  0  0  0  0  0
   61.0490   29.5580   45.6670 C   0  0  0  0  0  0  0  0  0  0  0  0
   61.8435   29.9794   45.0336 H   0  0  0  0  0  0  0  0  0  0  0  0
   60.2790   28.4880   45.2000 C   0  0  0  0  0  0  0  0  0  0  0  0
   60.4730   28.0688   44.2017 H   0  0  0  0  0  0  0  0  0  0  0  0
  1  2  1  0
  2  3  1  0
  2  4  2  0
  4  5  1  0
  5  6  2  0
  6  7  1  0
  6  8  1  0
  8  9  1  0
  9 10  1  0
 10 11  2  0
 10 12  1  0
 12 13  1  0
 13 14  1  0
  5 15  1  0
 15 16  1  0
 15 17  2  0
 17 18  1  0
 18 19  1  0
 18 20  1  0
 18 21  1  0
 17 22  1  0
 22 23  1  0
 23 24  2  0
 24 25  1  0
 24 26  1  0
 26 27  1  0
 26 28  2  0
 28 29  1  0
 29 30  1  0
 29 31  1  0
 29 32  1  0
 32 33  1  0
 33 34  2  0
 33 35  2  0
 33 36  1  0
 36 37  1  0
 36 38  1  0
 36 39  1  0
 39 40  1  0
 39 41  1  0
 39 42  1  0
 42 43  1  0
 43 44  1  0
 43 45  1  0
 43 46  1  0
 46 47  1  0
 46 48  1  0
 46 49  1  0
 49 50  1  0
 50 51  1  0
 50 52  1  0
 50 53  1  0
 49 54  1  0
 54 55  1  0
 54 56  1  0
 54 57  1  0
 57 58  1  0
 57 59  1  0
 28 60  1  0
 60 61  1  0
 60 62  2  0
 62 63  1  0
 22  4  1  0
 62 23  1  0
 13  8  2  0
 57 42  1  0
M  CHG  4   9  -1  12  -1  14  -1  32  -1
M  END
>  <UniqueID>  (57) 
51

>  <SMILES>  (57) 
C=c1/c(=C\c2[n-]c(=O)[n-]c2[O-])cc(C)n1-c1ccc(C[N-]S(=O)(=O)CCN2CCN(C)CC2)cc1

>  <Energy>  (57) 
145.86192201233246

>  <Genealogy>  (57) 
C=c1c(=Cc2[n-]c(=O)[n-]c2[O-])cc(C)n1-c1ccc(C[N-]S(=O)(=O)CCN2CCN(C)CC2)cc1 (protonated)
C=c1/c(=C\c2[n-]c(=O)[n-]c2[O-])cc(C)n1-c1ccc(C[N-]S(=O)(=O)CCN2CCN(C)CC2)cc1 (cis-trans isomerization)
C=c1/c(=C\c2[n-]c(=O)[n-]c2[O-])cc(C)n1-c1ccc(C[N-]S(=O)(=O)CCN2CCN(C)CC2)cc1 (3D coordinates assigned)
C=c1/c(=C\c2[n-]c(=O)[n-]c2[O-])cc(C)n1-c1ccc(C[N-]S(=O)(=O)CCN2CCN(C)CC2)cc1 (nonaromatic ring conformer: 145.86192201233246 kcal/mol)

>  <smiles>  (57) 
C=c1c(=Cc2[nH]c(=O)[nH]c2O)cc(C)n1-c1ccc(CNS(=O)(=O)CCN2CCN(C)CC2)cc1

>  <score_type>  (57) 
oracle

>  <origin>  (57) 
adg

>  <m_score__min__energy>  (57) 
-17.710000000000001

>  <m_primary>  (57) 
energy

$$$$
57:0
     RDKit          3D

 47 49  0  0  1  0  0  0  0  0999 V2000
   60.9110   29.8690   45.9900 O   0  0  0  0  0  0  0  0  0  0  0  0
   60.0960   29.9150   46.9290 C   0  0  0  0  0  0  0  0  0  0  0  0
   60.7130   29.7440   48.3090 C   0  0  0  0  0  0  0  0  0  0  0  0
   60.5620   30.9060   49.0670 N   0  0  0  0  0  0  0  0  0  0  0  0
   59.6760   31.1530   49.9110 C   0  0  0  0  0  0  0  0  0  0  0  0
   59.8730   30.7800   51.1980 N   0  0  0  0  0  0  0  0  0  0  0  0
   58.9700   31.0120   52.1470 N   0  0  0  0  0  0  0  0  0  0  0  0
   57.8230   31.6340   51.8390 C   0  0  0  0  0  0  0  0  0  0  0  0
   57.0020   31.8310   52.7690 O   0  0  0  0  0  0  0  0  0  0  0  0
   57.6230   32.0050   50.5660 N   0  0  0  0  0  0  0  0  0  0  0  0
   58.5030   31.7860   49.6040 C   0  0  0  0  0  0  0  0  0  0  0  0
   58.2370   32.1640   48.4440 O   0  0  0  0  0  0  0  0  0  0  0  0
   58.6980   30.1070   46.7890 N   0  0  0  0  0  0  0  0  0  0  0  0
   58.0140   30.2760   45.5590 C   0  0  0  0  0  0  0  0  0  0  0  0
   57.4100   29.2110   44.9330 C   0  0  0  0  0  0  0  0  0  0  0  0
   56.7360   29.3240   43.7110 C   0  0  0  0  0  0  0  0  0  0  0  0
   56.6800   30.5520   43.1210 C   0  0  0  0  0  0  0  0  0  0  0  0
   57.2900   31.6100   43.7610 C   0  0  0  0  0  0  0  0  0  0  0  0
   57.9580   31.5020   44.9700 C   0  0  0  0  0  0  0  0  0  0  0  0
   58.5210   32.7300   45.5150 C   0  0  0  0  0  0  0  0  0  0  0  0
   57.8940   33.8190   45.6310 O   0  0  0  0  0  0  0  0  0  0  0  0
   59.8770   32.8130   45.9820 N   0  0  0  0  0  0  0  0  0  0  0  0
   60.4430   34.0340   46.5200 C   0  0  0  0  0  0  0  0  0  0  0  0
   61.5000   33.8570   47.5050 C   0  0  0  0  0  0  0  0  0  0  0  0
   61.4340   34.1550   48.8420 C   0  0  0  0  0  0  0  0  0  0  0  0
   62.5010   33.9590   49.7150 C   0  0  0  0  0  0  0  0  0  0  0  0
   63.7000   33.4350   49.2220 C   0  0  0  0  0  0  0  0  0  0  0  0
   63.7870   33.1290   47.8820 C   0  0  0  0  0  0  0  0  0  0  0  0
   62.7200   33.3350   47.0580 C   0  0  0  0  0  0  0  0  0  0  0  0
   60.2160   28.9095   48.8253 H   0  0  0  0  0  0  0  0  0  0  0  0
   61.7869   29.5367   48.1918 H   0  0  0  0  0  0  0  0  0  0  0  0
   60.7640   30.2850   51.4950 H   0  0  0  0  0  0  0  0  0  0  0  0
   59.1760   30.7050   53.1120 H   0  0  0  0  0  0  0  0  0  0  0  0
   56.7200   32.4880   50.3500 H   0  0  0  0  0  0  0  0  0  0  0  0
   58.1950   30.1180   47.7270 H   0  0  0  0  0  0  0  0  0  0  0  0
   57.4587   28.2235   45.4151 H   0  0  0  0  0  0  0  0  0  0  0  0
   56.2655   28.4479   43.2408 H   0  0  0  0  0  0  0  0  0  0  0  0
   56.1624   30.6947   42.1609 H   0  0  0  0  0  0  0  0  0  0  0  0
   57.2435   32.5996   43.2829 H   0  0  0  0  0  0  0  0  0  0  0  0
   60.5090   31.9900   45.9570 H   0  0  0  0  0  0  0  0  0  0  0  0
   60.8557   34.6139   45.6813 H   0  0  0  0  0  0  0  0  0  0  0  0
   59.6211   34.5392   47.0484 H   0  0  0  0  0  0  0  0  0  0  0  0
   60.4962   34.5673   49.2427 H   0  0  0  0  0  0  0  0  0  0  0  0
   62.4018   34.2135   50.7805 H   0  0  0  0  0  0  0  0  0  0  0  0
   64.5572   33.2704   49.8915 H   0  0  0  0  0  0  0  0  0  0  0  0
   64.7217   32.7164   47.4744 H   0  0  0  0  0  0  0  0  0  0  0  0
   62.8225   33.0793   45.9931 H   0  0  0  0  0  0  0  0  0  0  0  0
  1  2  2  0
  2  3  1  0
  3  4  1  0
  4  5  2  0
  5  6  1  0
  6  7  1  0
  7  8  1  0
  8  9  2  0
  8 10  1  0
 10 11  1  0
 11 12  2  0
  2 13  1  0
 13 14  1  0
 14 15  2  0
 15 16  1  0
 16 17  2  0
 17 18  1  0
 18 19  2  0
 19 20  1  0
 20 21  2  0
 20 22  1  0
 22 23  1  0
 23 24  1  0
 24 25  2  0
 25 26  1  0
 26 27  2  0
 27 28  1  0
 28 29  2  0
 11  5  1  0
 19 14  1  0
 29 24  1  0
  3 30  1  0
  3 31  1  0
  6 32  1  0
  7 33  1  0
 10 34  1  0
 13 35  1  0
 15 36  1  0
 16 37  1  0
 17 38  1  0
 18 39  1  0
 22 40  1  0
 23 41  1  0
 23 42  1  0
 25 43  1  0
 26 44  1  0
 27 45  1  0
 28 46  1  0
 29 47  1  0
M  END
>  <smiles>  (58) 
O=C(CN=c1[nH][nH]c(=O)[nH]c1=O)Nc1ccccc1C(=O)NCc1ccccc1

>  <score_type>  (58) 
oracle

>  <origin>  (58) 
adg

>  <m_score__min__energy>  (58) 
-7.7699999999999996

>  <m_primary>  (58) 
energy

$$$$
58:0
     RDKit          3D

 64 66  0  0  0  0  0  0  0  0999 V2000
   58.3660   28.8530   49.0210 N   0  0  0  0  0  0  0  0  0  0  0  0
   58.5450   29.5040   47.9110 C   0  0  0  0  0  0  0  0  0  0  0  0
   57.8050   29.1480   46.7270 N   0  0  0  0  0  0  0  0  0  0  0  0
   57.5630   29.8800   45.6780 C   0  0  0  0  0  0  0  0  0  0  0  0
   58.3980   30.8960   45.3100 N   0  0  0  0  0  0  0  0  0  0  0  0
   58.1560   31.6710   44.2200 C   0  0  0  0  0  0  0  0  0  0  0  0
   57.0260   31.4350   43.4330 C   0  0  0  0  0  0  0  0  0  0  0  0
   56.1530   30.4050   43.7840 C   0  0  0  0  0  0  0  0  0  0  0  0
   56.4170   29.6200   44.9100 C   0  0  0  0  0  0  0  0  0  0  0  0
   55.5460   28.5920   45.2580 O   0  0  0  0  0  0  0  0  0  0  0  0
   59.4930   30.6490   47.8460 C   0  0  0  0  0  0  0  0  0  0  0  0
   60.6550   30.5550   47.0570 C   0  0  0  0  0  0  0  0  0  0  0  0
   61.5520   31.6210   46.9800 C   0  0  0  0  0  0  0  0  0  0  0  0
   61.2990   32.7970   47.6820 C   0  0  0  0  0  0  0  0  0  0  0  0
   60.1490   32.9140   48.4630 C   0  0  0  0  0  0  0  0  0  0  0  0
   59.2350   31.8450   48.5600 C   0  0  0  0  0  0  0  0  0  0  0  0
   58.0740   31.9220   49.3530 O   0  0  0  0  0  0  0  0  0  0  0  0
   58.0120   31.9190   50.7810 C   0  0  0  0  0  0  0  0  0  0  0  0
   56.5680   31.7820   51.2740 C   0  0  0  0  0  0  0  0  0  0  0  0
   56.4440   30.7610   52.3300 N   0  0  0  0  0  0  0  0  0  0  0  0
   55.2090   30.7420   53.1330 C   0  0  0  0  0  0  0  0  0  0  0  0
   54.1960   29.7260   52.5880 C   0  0  0  0  0  0  0  0  0  0  0  0
   53.1290   30.3940   51.7600 C   0  0  0  0  0  0  0  0  0  0  0  0
   52.7540   29.8550   50.5170 C   0  0  0  0  0  0  0  0  0  0  0  0
   51.7980   30.5020   49.7290 C   0  0  0  0  0  0  0  0  0  0  0  0
   51.2200   31.6980   50.1660 C   0  0  0  0  0  0  0  0  0  0  0  0
   50.2760   32.3390   49.3730 O   0  0  0  0  0  0  0  0  0  0  0  0
   51.5960   32.2490   51.3980 C   0  0  0  0  0  0  0  0  0  0  0  0
   51.0350   33.4450   51.8310 O   0  0  0  0  0  0  0  0  0  0  0  0
   52.5450   31.5970   52.1930 C   0  0  0  0  0  0  0  0  0  0  0  0
   57.5330   29.8310   52.5610 C   0  0  0  0  0  0  0  0  0  0  0  0
   57.8220   28.9860   51.6680 O   0  0  0  0  0  0  0  0  0  0  0  0
   58.4250   29.9140   53.7810 C   0  0  0  0  0  0  0  0  0  0  0  0
   59.7810   30.5810   53.4930 C   0  0  0  0  0  0  0  0  0  0  0  0
   60.7420   29.6820   52.6980 C   0  0  0  0  0  0  0  0  0  0  0  0
   60.4420   29.7160   51.2700 N   0  0  0  0  0  0  0  0  0  0  0  0
   61.1930   28.9710   50.3140 C   0  0  0  0  0  0  0  0  0  0  0  0
   60.7580   27.8650   49.9000 O   0  0  0  0  0  0  0  0  0  0  0  0
   58.9450   29.0100   49.8750 H   0  0  0  0  0  0  0  0  0  0  0  0
   58.8494   32.4836   43.9576 H   0  0  0  0  0  0  0  0  0  0  0  0
   56.8268   32.0546   42.5462 H   0  0  0  0  0  0  0  0  0  0  0  0
   55.2577   30.2108   43.1752 H   0  0  0  0  0  0  0  0  0  0  0  0
   60.8580   29.6313   46.4952 H   0  0  0  0  0  0  0  0  0  0  0  0
   62.4594   31.5325   46.3646 H   0  0  0  0  0  0  0  0  0  0  0  0
   62.0079   33.6358   47.6204 H   0  0  0  0  0  0  0  0  0  0  0  0
   59.9535   33.8491   49.0083 H   0  0  0  0  0  0  0  0  0  0  0  0
   58.6032   31.0741   51.1638 H   0  0  0  0  0  0  0  0  0  0  0  0
   58.4158   32.8739   51.1486 H   0  0  0  0  0  0  0  0  0  0  0  0
   56.2353   32.7508   51.6748 H   0  0  0  0  0  0  0  0  0  0  0  0
   55.9445   31.4707   50.4229 H   0  0  0  0  0  0  0  0  0  0  0  0
   55.4613   30.4736   54.1695 H   0  0  0  0  0  0  0  0  0  0  0  0
   54.7527   31.7418   53.0859 H   0  0  0  0  0  0  0  0  0  0  0  0
   54.7269   28.9936   51.9621 H   0  0  0  0  0  0  0  0  0  0  0  0
   53.7094   29.2338   53.4429 H   0  0  0  0  0  0  0  0  0  0  0  0
   53.2146   28.9208   50.1633 H   0  0  0  0  0  0  0  0  0  0  0  0
   51.4995   30.0693   48.7627 H   0  0  0  0  0  0  0  0  0  0  0  0
   52.8357   32.0283   53.1623 H   0  0  0  0  0  0  0  0  0  0  0  0
   57.9054   30.4973   54.5555 H   0  0  0  0  0  0  0  0  0  0  0  0
   58.6292   28.8840   54.1087 H   0  0  0  0  0  0  0  0  0  0  0  0
   59.6028   31.4996   52.9148 H   0  0  0  0  0  0  0  0  0  0  0  0
   60.2555   30.7888   54.4634 H   0  0  0  0  0  0  0  0  0  0  0  0
   61.7729   30.0318   52.8559 H   0  0  0  0  0  0  0  0  0  0  0  0
   60.6230   28.6477   53.0529 H   0  0  0  0  0  0  0  0  0  0  0  0
   62.1504   29.3620   49.9392 H   0  0  0  0  0  0  0  0  0  0  0  0
  1  2  2  3
  2  3  1  0
  3  4  2  3
  4  5  1  0
  5  6  1  0
  6  7  2  0
  7  8  1  0
  8  9  2  0
  9 10  1  0
  2 11  1  0
 11 12  2  0
 12 13  1  0
 13 14  2  0
 14 15  1  0
 15 16  2  0
 16 17  1  0
 17 18  1  0
 18 19  1  0
 19 20  1  0
 20 21  1  0
 21 22  1  0
 22 23  1  0
 23 24  2  0
 24 25  1  0
 25 26  2  0
 26 27  1  0
 26 28  1  0
 28 29  1  0
 28 30  2  0
 20 31  1  0
 31 32  2  0
 31 33  1  0
 33 34  1  0
 34 35  1  0
 35 36  1  0
 36 37  1  0
 37 38  2  0
  9  4  1  0
 16 11  1  0
 30 23  1  0
  1 39  1  0
  6 40  1  0
  7 41  1  0
  8 42  1  0
 12 43  1  0
 13 44  1  0
 14 45  1  0
 15 46  1  0
 18 47  1  0
 18 48  1  0
 19 49  1  0
 19 50  1  0
 21 51  1  0
 21 52  1  0
 22 53  1  0
 22 54  1  0
 24 55  1  0
 25 56  1  0
 30 57  1  0
 33 58  1  0
 33 59  1  0
 34 60  1  0
 34 61  1  0
 35 62  1  0
 35 63  1  0
 37 64  1  0
M  CHG  5   5  -1  10  -1  27  -1  29  -1  36  -1
M  END
>  <UniqueID>  (59) 
52

>  <SMILES>  (59) 
N=C(N=c1[n-]cccc1[O-])c1ccccc1OCCN(CCc1ccc([O-])c([O-])c1)C(=O)CCC[N-]C=O

>  <Energy>  (59) 
62.81719110437713

>  <Genealogy>  (59) 
N=C(N=c1[n-]cccc1[O-])c1ccccc1OCCN(CCc1ccc([O-])c([O-])c1)C(=O)CCC[N-]C=O (protonated)
N=C(N=c1[n-]cccc1[O-])c1ccccc1OCCN(CCc1ccc([O-])c([O-])c1)C(=O)CCC[N-]C=O (3D coordinates assigned)
N=C(N=c1[n-]cccc1[O-])c1ccccc1OCCN(CCc1ccc([O-])c([O-])c1)C(=O)CCC[N-]C=O (optimized conformer: 62.81719110437713 kcal/mol)

>  <smiles>  (59) 
N=C(N=c1[nH]cccc1O)c1ccccc1OCCN(CCc1ccc(O)c(O)c1)C(=O)CCCNC=O

>  <score_type>  (59) 
oracle

>  <origin>  (59) 
adg

>  <m_score__min__energy>  (59) 
-20.23

>  <m_primary>  (59) 
energy

$$$$
59:0
     RDKit          3D

 27 28  0  0  0  0  0  0  0  0999 V2000
   59.6460   25.8980   46.8140 O   0  0  0  0  0  0  0  0  0  0  0  0
   58.6570   26.4980   46.3170 C   0  0  0  0  0  0  0  0  0  0  0  0
   58.8520   27.5860   45.4660 C   0  0  0  0  0  0  0  0  0  0  0  0
   57.7310   28.2390   44.9440 C   0  0  0  0  0  0  0  0  0  0  0  0
   57.9100   29.3510   44.0510 N   0  0  0  0  0  0  0  0  0  0  0  0
   58.0650   30.7140   44.4800 C   0  0  0  0  0  0  0  0  0  0  0  0
   58.3500   31.0310   45.8200 C   0  0  0  0  0  0  0  0  0  0  0  0
   58.5240   32.3620   46.2110 C   0  0  0  0  0  0  0  0  0  0  0  0
   58.4300   33.4000   45.2630 C   0  0  0  0  0  0  0  0  0  0  0  0
   58.5940   34.7530   45.6000 O   0  0  0  0  0  0  0  0  0  0  0  0
   59.6500   35.2810   46.3980 C   0  0  0  0  0  0  0  0  0  0  0  0
   59.2610   35.3390   47.7250 F   0  0  0  0  0  0  0  0  0  0  0  0
   59.9420   36.5600   45.9630 F   0  0  0  0  0  0  0  0  0  0  0  0
   60.7820   34.4980   46.2720 F   0  0  0  0  0  0  0  0  0  0  0  0
   58.1690   33.0770   43.9260 C   0  0  0  0  0  0  0  0  0  0  0  0
   57.9950   31.7470   43.5360 C   0  0  0  0  0  0  0  0  0  0  0  0
   56.4820   27.7760   45.2480 N   0  0  0  0  0  0  0  0  0  0  0  0
   56.3160   26.7110   46.0800 C   0  0  0  0  0  0  0  0  0  0  0  0
   55.1590   26.3010   46.3580 O   0  0  0  0  0  0  0  0  0  0  0  0
   57.3980   26.0840   46.6090 N   0  0  0  0  0  0  0  0  0  0  0  0
   59.8673   27.9235   45.2107 H   0  0  0  0  0  0  0  0  0  0  0  0
   57.9370   29.1550   43.0240 H   0  0  0  0  0  0  0  0  0  0  0  0
   58.4366   30.2267   46.5653 H   0  0  0  0  0  0  0  0  0  0  0  0
   58.7353   32.5999   47.2640 H   0  0  0  0  0  0  0  0  0  0  0  0
   58.1003   33.8782   43.1754 H   0  0  0  0  0  0  0  0  0  0  0  0
   57.8015   31.5088   42.4797 H   0  0  0  0  0  0  0  0  0  0  0  0
   55.6380   28.2220   44.8230 H   0  0  0  0  0  0  0  0  0  0  0  0
  1  2  2  0
  2  3  1  0
  3  4  2  0
  4  5  1  0
  5  6  1  0
  6  7  2  0
  7  8  1  0
  8  9  2  0
  9 10  1  0
 10 11  1  0
 11 12  1  0
 11 13  1  0
 11 14  1  0
  9 15  1  0
 15 16  2  0
  4 17  1  0
 17 18  1  0
 18 19  2  0
 18 20  1  0
 20  2  1  0
 16  6  1  0
  3 21  1  0
  5 22  1  0
  7 23  1  0
  8 24  1  0
 15 25  1  0
 16 26  1  0
 17 27  1  0
M  CHG  1  20  -1
M  END
>  <UniqueID>  (60) 
53

>  <SMILES>  (60) 
O=c1cc(Nc2ccc(OC(F)(F)F)cc2)[nH]c(=O)[n-]1

>  <Energy>  (60) 
33.62045511362926

>  <Genealogy>  (60) 
O=c1cc(Nc2ccc(OC(F)(F)F)cc2)[nH]c(=O)[n-]1 (protonated)
O=c1cc(Nc2ccc(OC(F)(F)F)cc2)[nH]c(=O)[n-]1 (3D coordinates assigned)
O=c1cc(Nc2ccc(OC(F)(F)F)cc2)[nH]c(=O)[n-]1 (optimized conformer: 33.62045511362926 kcal/mol)

>  <smiles>  (60) 
O=c1cc(Nc2ccc(OC(F)(F)F)cc2)[nH]c(=O)[nH]1

>  <score_type>  (60) 
oracle

>  <origin>  (60) 
adg

>  <m_score__min__energy>  (60) 
-8.0700000000000003

>  <m_primary>  (60) 
energy

$$$$
60:0
     RDKit          3D

 43 45  0  0  0  0  0  0  0  0999 V2000
   54.7690   27.0920   45.2290 H   0  0  0  0  0  0  0  0  0  0  0  0
   54.5470   26.2810   45.7920 O   0  0  0  0  0  0  0  0  0  0  0  0
   55.1930   25.0510   45.6450 C   0  0  0  0  0  0  0  0  0  0  0  0
   54.4690   23.9860   45.0960 C   0  0  0  0  0  0  0  0  0  0  0  0
   53.4174   24.1317   44.8082 H   0  0  0  0  0  0  0  0  0  0  0  0
   55.0720   22.7400   44.9110 C   0  0  0  0  0  0  0  0  0  0  0  0
   54.4976   21.9111   44.4716 H   0  0  0  0  0  0  0  0  0  0  0  0
   56.4020   22.5460   45.2830 C   0  0  0  0  0  0  0  0  0  0  0  0
   56.8750   21.5634   45.1389 H   0  0  0  0  0  0  0  0  0  0  0  0
   57.1350   23.5990   45.8390 C   0  0  0  0  0  0  0  0  0  0  0  0
   58.1808   23.4376   46.1394 H   0  0  0  0  0  0  0  0  0  0  0  0
   56.5440   24.8640   46.0170 C   0  0  0  0  0  0  0  0  0  0  0  0
   57.3150   25.9580   46.6570 C   0  0  0  0  0  0  0  0  0  0  0  0
   57.6421   25.8226   47.6985 H   0  0  0  0  0  0  0  0  0  0  0  0
   57.6370   27.1090   46.0330 C   0  0  0  0  0  0  0  0  0  0  0  0
   56.6660   28.0000   45.7190 N   0  0  0  0  0  0  0  0  0  0  0  0
   56.9280   29.1770   45.1060 C   0  0  0  0  0  0  0  0  0  0  0  0
   55.9600   29.9400   44.8400 O   0  0  0  0  0  0  0  0  0  0  0  0
   58.2170   29.5280   44.7780 N   0  0  0  0  0  0  0  0  0  0  0  0
   58.4570   30.8290   44.1010 C   0  0  0  0  0  0  0  0  0  0  0  0
   59.4862   30.8455   43.7130 H   0  0  0  0  0  0  0  0  0  0  0  0
   57.7285   30.9321   43.2833 H   0  0  0  0  0  0  0  0  0  0  0  0
   58.2710   31.9930   45.0530 C   0  0  0  0  0  0  0  0  0  0  0  0
   57.4240   33.0560   44.6910 C   0  0  0  0  0  0  0  0  0  0  0  0
   56.9176   33.0408   43.7146 H   0  0  0  0  0  0  0  0  0  0  0  0
   57.2200   34.1300   45.5590 C   0  0  0  0  0  0  0  0  0  0  0  0
   56.5646   34.9613   45.2601 H   0  0  0  0  0  0  0  0  0  0  0  0
   57.8460   34.1500   46.8040 C   0  0  0  0  0  0  0  0  0  0  0  0
   57.6898   35.0007   47.4836 H   0  0  0  0  0  0  0  0  0  0  0  0
   58.6710   33.0920   47.1900 C   0  0  0  0  0  0  0  0  0  0  0  0
   59.1579   33.1115   48.1762 H   0  0  0  0  0  0  0  0  0  0  0  0
   58.8850   31.9990   46.3260 C   0  0  0  0  0  0  0  0  0  0  0  0
   59.6960   30.9150   46.7020 O   0  0  0  0  0  0  0  0  0  0  0  0
   60.8750   31.0200   47.4940 C   0  0  0  0  0  0  0  0  0  0  0  0
   60.6041   30.9959   48.5598 H   0  0  0  0  0  0  0  0  0  0  0  0
   61.5454   30.1780   47.2669 H   0  0  0  0  0  0  0  0  0  0  0  0
   61.3861   31.9672   47.2669 H   0  0  0  0  0  0  0  0  0  0  0  0
   59.2540   28.6560   45.0750 C   0  0  0  0  0  0  0  0  0  0  0  0
   60.5390   28.9440   44.7650 C   0  0  0  0  0  0  0  0  0  0  0  0
   60.7851   29.8932   44.2665 H   0  0  0  0  0  0  0  0  0  0  0  0
   61.3378   28.2290   45.0114 H   0  0  0  0  0  0  0  0  0  0  0  0
   58.9690   27.4250   45.7170 C   0  0  0  0  0  0  0  0  0  0  0  0
   59.8990   26.6160   46.0030 O   0  0  0  0  0  0  0  0  0  0  0  0
  1  2  1  0
  2  3  1  0
  3  4  2  0
  4  5  1  0
  4  6  1  0
  6  7  1  0
  6  8  2  0
  8  9  1  0
  8 10  1  0
 10 11  1  0
 10 12  2  0
 12 13  1  0
 13 14  1  0
 13 15  2  0
 15 16  1  0
 16 17  1  0
 17 18  2  0
 17 19  1  0
 19 20  1  0
 20 21  1  0
 20 22  1  0
 20 23  1  0
 23 24  2  0
 24 25  1  0
 24 26  1  0
 26 27  1  0
 26 28  2  0
 28 29  1  0
 28 30  1  0
 30 31  1  0
 30 32  2  0
 32 33  1  0
 33 34  1  0
 34 35  1  0
 34 36  1  0
 34 37  1  0
 19 38  1  0
 38 39  2  0
 39 40  1  0
 39 41  1  0
 38 42  1  0
 42 43  2  0
 12  3  1  0
 42 15  1  0
 32 23  1  0
M  CHG  1  16  -1
M  END
>  <UniqueID>  (61) 
54

>  <SMILES>  (61) 
C=c1c(=O)/c(=C/c2ccccc2O)[n-]c(=O)n1Cc1ccccc1OC

>  <Energy>  (61) 
66.08600409958127

>  <Genealogy>  (61) 
C=c1c(=O)c(=Cc2ccccc2O)[n-]c(=O)n1Cc1ccccc1OC (protonated)
C=c1c(=O)/c(=C/c2ccccc2O)[n-]c(=O)n1Cc1ccccc1OC (cis-trans isomerization)
C=c1c(=O)/c(=C/c2ccccc2O)[n-]c(=O)n1Cc1ccccc1OC (3D coordinates assigned)
C=c1c(=O)/c(=C/c2ccccc2O)[n-]c(=O)n1Cc1ccccc1OC (optimized conformer: 66.08600409958127 kcal/mol)

>  <smiles>  (61) 
C=c1c(=O)c(=Cc2ccccc2O)[nH]c(=O)n1Cc1ccccc1OC

>  <score_type>  (61) 
oracle

>  <origin>  (61) 
adg

>  <m_score__min__energy>  (61) 
-10.699999999999999

>  <m_primary>  (61) 
energy

$$$$
61:0
     RDKit          3D

 43 45  0  0  0  0  0  0  0  0999 V2000
   59.1310   27.6060   46.6490 O   0  0  0  0  0  0  0  0  0  0  0  0
   57.9640   27.9890   46.3680 C   0  0  0  0  0  0  0  0  0  0  0  0
   56.8680   27.1030   46.6330 N   0  0  0  0  0  0  0  0  0  0  0  0
   56.5920   25.9640   46.0580 C   0  0  0  0  0  0  0  0  0  0  0  0
   57.6360   25.1580   45.7200 N   0  0  0  0  0  0  0  0  0  0  0  0
   57.4650   23.9430   45.1350 C   0  0  0  0  0  0  0  0  0  0  0  0
   56.1820   23.4780   44.8550 C   0  0  0  0  0  0  0  0  0  0  0  0
   55.0870   24.2820   45.1580 C   0  0  0  0  0  0  0  0  0  0  0  0
   55.2750   25.5370   45.7480 C   0  0  0  0  0  0  0  0  0  0  0  0
   54.1600   26.3370   45.9660 O   0  0  0  0  0  0  0  0  0  0  0  0
   57.7410   29.3710   45.8600 C   0  0  0  0  0  0  0  0  0  0  0  0
   56.5350   29.7170   45.2350 C   0  0  0  0  0  0  0  0  0  0  0  0
   55.5260   28.7780   45.0560 O   0  0  0  0  0  0  0  0  0  0  0  0
   56.3310   30.9870   44.8170 N   0  0  0  0  0  0  0  0  0  0  0  0
   57.2670   31.9520   44.9830 C   0  0  0  0  0  0  0  0  0  0  0  0
   57.0080   33.1210   44.5870 O   0  0  0  0  0  0  0  0  0  0  0  0
   58.4710   31.6570   45.5730 N   0  0  0  0  0  0  0  0  0  0  0  0
   59.4830   32.7170   45.7840 C   0  0  0  0  0  0  0  0  0  0  0  0
   59.5030   33.1910   47.2460 C   0  0  0  0  0  0  0  0  0  0  0  0
   60.9010   33.1990   47.8160 C   0  0  0  0  0  0  0  0  0  0  0  0
   61.3080   34.1890   48.6290 C   0  0  0  0  0  0  0  0  0  0  0  0
   62.7150   34.1760   49.1590 C   0  0  0  0  0  0  0  0  0  0  0  0
   63.7120   33.8530   48.0310 C   0  0  0  0  0  0  0  0  0  0  0  0
   63.2540   32.6980   47.1000 C   0  0  0  0  0  0  0  0  0  0  0  0
   61.8820   32.1040   47.4690 C   0  0  0  0  0  0  0  0  0  0  0  0
   58.7200   30.3760   46.0010 C   0  0  0  0  0  0  0  0  0  0  0  0
   59.8390   30.0900   46.5120 O   0  0  0  0  0  0  0  0  0  0  0  0
   58.3403   23.3265   44.8825 H   0  0  0  0  0  0  0  0  0  0  0  0
   56.0361   22.4873   44.3999 H   0  0  0  0  0  0  0  0  0  0  0  0
   54.0696   23.9295   44.9328 H   0  0  0  0  0  0  0  0  0  0  0  0
   60.4755   32.3213   45.5226 H   0  0  0  0  0  0  0  0  0  0  0  0
   59.2239   33.5746   45.1458 H   0  0  0  0  0  0  0  0  0  0  0  0
   59.0931   34.2106   47.2949 H   0  0  0  0  0  0  0  0  0  0  0  0
   58.8967   32.4910   47.8397 H   0  0  0  0  0  0  0  0  0  0  0  0
   60.6185   35.0008   48.9039 H   0  0  0  0  0  0  0  0  0  0  0  0
   62.9525   35.1640   49.5804 H   0  0  0  0  0  0  0  0  0  0  0  0
   62.7953   33.4030   49.9375 H   0  0  0  0  0  0  0  0  0  0  0  0
   63.8488   34.7573   47.4198 H   0  0  0  0  0  0  0  0  0  0  0  0
   64.6448   33.5247   48.5128 H   0  0  0  0  0  0  0  0  0  0  0  0
   63.1987   33.0838   46.0714 H   0  0  0  0  0  0  0  0  0  0  0  0
   63.9913   31.8891   47.2094 H   0  0  0  0  0  0  0  0  0  0  0  0
   61.4951   31.5305   46.6137 H   0  0  0  0  0  0  0  0  0  0  0  0
   62.0044   31.4490   48.3442 H   0  0  0  0  0  0  0  0  0  0  0  0
  1  2  2  0
  2  3  1  0
  3  4  2  3
  4  5  1  0
  5  6  1  0
  6  7  2  0
  7  8  1  0
  8  9  2  0
  9 10  1  0
  2 11  1  0
 11 12  2  0
 12 13  1  0
 12 14  1  0
 14 15  1  0
 15 16  2  0
 15 17  1  0
 17 18  1  0
 18 19  1  0
 19 20  1  0
 20 21  2  0
 21 22  1  0
 22 23  1  0
 23 24  1  0
 24 25  1  0
 17 26  1  0
 26 27  2  0
  9  4  1  0
 26 11  1  0
 25 20  1  0
  6 28  1  0
  7 29  1  0
  8 30  1  0
 18 31  1  0
 18 32  1  0
 19 33  1  0
 19 34  1  0
 21 35  1  0
 22 36  1  0
 22 37  1  0
 23 38  1  0
 23 39  1  0
 24 40  1  0
 24 41  1  0
 25 42  1  0
 25 43  1  0
M  CHG  4   5  -1  10  -1  13  -1  14  -1
M  END
>  <UniqueID>  (62) 
55

>  <SMILES>  (62) 
O=C(N=c1[n-]cccc1[O-])c1c([O-])[n-]c(=O)n(CCC2=CCCCC2)c1=O

>  <Energy>  (62) 
62.07631619885992

>  <Genealogy>  (62) 
O=C(N=c1[n-]cccc1[O-])c1c([O-])[n-]c(=O)n(CCC2=CCCCC2)c1=O (protonated)
O=C(N=c1[n-]cccc1[O-])c1c([O-])[n-]c(=O)n(CCC2=CCCCC2)c1=O (3D coordinates assigned)
O=C(N=c1[n-]cccc1[O-])c1c([O-])[n-]c(=O)n(CCC2=CCCCC2)c1=O (nonaromatic ring conformer: 62.07631619885992 kcal/mol)

>  <smiles>  (62) 
O=C(N=c1[nH]cccc1O)c1c(O)[nH]c(=O)n(CCC2=CCCCC2)c1=O

>  <score_type>  (62) 
oracle

>  <origin>  (62) 
adg

>  <m_score__min__energy>  (62) 
-18.059999999999999

>  <m_primary>  (62) 
energy

$$$$
62:0
     RDKit          3D

 38 42  0  0  0  0  0  0  0  0999 V2000
   54.5718   31.5767   50.6646 H   0  0  0  0  0  0  0  0  0  0  0  0
   54.7660   30.9680   51.5600 C   0  0  0  0  0  0  0  0  0  0  0  0
   55.9290   30.7750   52.1040 N   0  0  0  0  0  0  0  0  0  0  0  0
   55.7460   29.9630   53.2330 N   0  0  0  0  0  0  0  0  0  0  0  0
   56.5210   28.9400   53.6650 C   0  0  0  0  0  0  0  0  0  0  0  0
   57.8230   28.9250   53.7970 N   0  0  0  0  0  0  0  0  0  0  0  0
   58.9900   29.0460   52.9050 C   0  0  0  0  0  0  0  0  0  0  0  0
   59.4383   28.1076   53.2635 H   0  0  0  0  0  0  0  0  0  0  0  0
   59.5540   30.4230   52.6130 C   0  0  0  0  0  0  0  0  0  0  0  0
   59.1407   31.3069   53.1208 H   0  0  0  0  0  0  0  0  0  0  0  0
   60.5552   30.8779   52.6396 H   0  0  0  0  0  0  0  0  0  0  0  0
   58.7230   29.6850   51.5580 C   0  0  0  0  0  0  0  0  0  0  0  0
   57.7122   30.0386   51.3067 H   0  0  0  0  0  0  0  0  0  0  0  0
   58.8786   29.3890   50.5101 H   0  0  0  0  0  0  0  0  0  0  0  0
   55.7660   27.8740   54.0220 N   0  0  0  0  0  0  0  0  0  0  0  0
   54.5040   28.2970   53.7740 C   0  0  0  0  0  0  0  0  0  0  0  0
   53.3700   27.3650   53.7130 C   0  0  0  0  0  0  0  0  0  0  0  0
   53.5740   26.0470   53.2770 C   0  0  0  0  0  0  0  0  0  0  0  0
   54.5809   25.7151   52.9836 H   0  0  0  0  0  0  0  0  0  0  0  0
   52.4990   25.1550   53.2150 C   0  0  0  0  0  0  0  0  0  0  0  0
   52.6643   24.1182   52.8869 H   0  0  0  0  0  0  0  0  0  0  0  0
   51.2150   25.5780   53.5690 C   0  0  0  0  0  0  0  0  0  0  0  0
   50.3724   24.8722   53.5266 H   0  0  0  0  0  0  0  0  0  0  0  0
   51.0010   26.8980   53.9770 C   0  0  0  0  0  0  0  0  0  0  0  0
   49.9885   27.2326   54.2470 H   0  0  0  0  0  0  0  0  0  0  0  0
   52.0730   27.7930   54.0420 C   0  0  0  0  0  0  0  0  0  0  0  0
   51.9006   28.8344   54.3514 H   0  0  0  0  0  0  0  0  0  0  0  0
   54.4970   29.5810   53.3490 N   0  0  0  0  0  0  0  0  0  0  0  0
   53.7560   30.2440   52.3320 C   0  0  0  0  0  0  0  0  0  0  0  0
   52.4280   30.3610   52.2120 C   0  0  0  0  0  0  0  0  0  0  0  0
   51.8102   30.1132   53.0878 H   0  0  0  0  0  0  0  0  0  0  0  0
   51.7380   30.7990   50.9870 C   0  0  0  0  0  0  0  0  0  0  0  0
   51.6860   30.0580   49.8670 N   0  0  0  0  0  0  0  0  0  0  0  0
   51.0150   30.8450   48.9990 C   0  0  0  0  0  0  0  0  0  0  0  0
   50.7480   30.4840   47.8230 O   0  0  0  0  0  0  0  0  0  0  0  0
   50.6570   32.0510   49.4880 N   0  0  0  0  0  0  0  0  0  0  0  0
   51.1300   32.0130   50.7440 C   0  0  0  0  0  0  0  0  0  0  0  0
   51.0380   33.0780   51.6310 O   0  0  0  0  0  0  0  0  0  0  0  0
  1  2  1  0
  2  3  2  0
  3  4  1  0
  4  5  1  0
  5  6  2  0
  6  7  1  0
  7  8  1  0
  7  9  1  0
  9 10  1  0
  9 11  1  0
  9 12  1  0
 12 13  1  0
 12 14  1  0
  5 15  1  0
 15 16  2  0
 16 17  1  0
 17 18  2  0
 18 19  1  0
 18 20  1  0
 20 21  1  0
 20 22  2  0
 22 23  1  0
 22 24  1  0
 24 25  1  0
 24 26  2  0
 26 27  1  0
 16 28  1  0
 28 29  1  0
 29 30  2  0
 30 31  1  0
 30 32  1  0
 32 33  1  0
 33 34  1  0
 34 35  2  0
 34 36  1  0
 36 37  1  0
 37 38  1  0
 29  2  1  0
 37 32  2  0
 28  4  1  0
 12  7  1  0
 26 17  1  0
M  CHG  3  33  -1  36  -1  38  -1
M  END
>  <UniqueID>  (63) 
56

>  <SMILES>  (63) 
O=c1[n-]c([O-])c(/C=C2/C=Nn3/c(=N\C4CC4)nc(-c4ccccc4)n32)[n-]1

>  <Energy>  (63) 
458.8462390409439

>  <Genealogy>  (63) 
O=c1[n-]c([O-])c(C=C2C=Nn3c(=NC4CC4)nc(-c4ccccc4)n32)[n-]1 (protonated)
O=c1[n-]c([O-])c(/C=C2/C=Nn3/c(=N\C4CC4)nc(-c4ccccc4)n32)[n-]1 (cis-trans isomerization)
O=c1[n-]c([O-])c(/C=C2/C=Nn3/c(=N\C4CC4)nc(-c4ccccc4)n32)[n-]1 (3D coordinates assigned)
O=c1[n-]c([O-])c(/C=C2/C=Nn3/c(=N\C4CC4)nc(-c4ccccc4)n32)[n-]1 (nonaromatic ring conformer: 458.8462390409439 kcal/mol)

>  <smiles>  (63) 
O=c1[nH]c(O)c(C=C2C=Nn3c(=NC4CC4)nc(-c4ccccc4)n32)[nH]1

>  <score_type>  (63) 
oracle

>  <origin>  (63) 
adg

>  <m_score__min__energy>  (63) 
-15.27

>  <m_primary>  (63) 
energy

$$$$
63:0
     RDKit          3D

 39 41  0  0  0  0  0  0  0  0999 V2000
   54.5618   29.8891   55.7369 H   0  0  0  0  0  0  0  0  0  0  0  0
   53.9120   30.0260   54.8600 C   0  0  0  0  0  0  0  0  0  0  0  0
   52.8195   29.9596   54.9693 H   0  0  0  0  0  0  0  0  0  0  0  0
   54.4520   30.2740   53.6570 C   0  0  0  0  0  0  0  0  0  0  0  0
   53.7420   30.4670   52.4670 C   0  0  0  0  0  0  0  0  0  0  0  0
   52.4060   30.4160   52.2900 C   0  0  0  0  0  0  0  0  0  0  0  0
   51.7887   30.0495   53.1234 H   0  0  0  0  0  0  0  0  0  0  0  0
   51.7220   30.8210   51.0490 C   0  0  0  0  0  0  0  0  0  0  0  0
   51.7020   30.0650   49.9380 N   0  0  0  0  0  0  0  0  0  0  0  0
   51.0560   30.8410   49.0400 C   0  0  0  0  0  0  0  0  0  0  0  0
   50.8270   30.4650   47.8610 O   0  0  0  0  0  0  0  0  0  0  0  0
   50.6870   32.0540   49.5020 N   0  0  0  0  0  0  0  0  0  0  0  0
   51.1250   32.0310   50.7720 C   0  0  0  0  0  0  0  0  0  0  0  0
   51.0240   33.1140   51.6370 O   0  0  0  0  0  0  0  0  0  0  0  0
   54.6800   30.8060   51.5050 C   0  0  0  0  0  0  0  0  0  0  0  0
   54.4816   31.0428   50.4493 H   0  0  0  0  0  0  0  0  0  0  0  0
   55.9110   30.7890   52.1280 C   0  0  0  0  0  0  0  0  0  0  0  0
   57.1880   31.2190   51.4660 C   0  0  0  0  0  0  0  0  0  0  0  0
   57.9333   31.4700   52.2351 H   0  0  0  0  0  0  0  0  0  0  0  0
   57.5698   30.3999   50.8389 H   0  0  0  0  0  0  0  0  0  0  0  0
   56.9966   32.1022   50.8389 H   0  0  0  0  0  0  0  0  0  0  0  0
   55.7860   30.4270   53.4290 N   0  0  0  0  0  0  0  0  0  0  0  0
   56.8900   30.3310   54.4030 C   0  0  0  0  0  0  0  0  0  0  0  0
   57.4467   31.2797   54.3986 H   0  0  0  0  0  0  0  0  0  0  0  0
   56.4469   30.1240   55.3883 H   0  0  0  0  0  0  0  0  0  0  0  0
   57.8560   29.1980   54.0860 C   0  0  0  0  0  0  0  0  0  0  0  0
   57.4050   27.8630   54.1870 C   0  0  0  0  0  0  0  0  0  0  0  0
   56.1280   27.5840   54.5560 F   0  0  0  0  0  0  0  0  0  0  0  0
   58.2580   26.7980   53.8940 C   0  0  0  0  0  0  0  0  0  0  0  0
   57.8880   25.7645   53.9647 H   0  0  0  0  0  0  0  0  0  0  0  0
   59.5740   27.0380   53.5130 C   0  0  0  0  0  0  0  0  0  0  0  0
   60.2384   26.1953   53.2714 H   0  0  0  0  0  0  0  0  0  0  0  0
   60.0520   28.3460   53.4370 C   0  0  0  0  0  0  0  0  0  0  0  0
   61.0942   28.5279   53.1360 H   0  0  0  0  0  0  0  0  0  0  0  0
   59.2160   29.4340   53.7410 C   0  0  0  0  0  0  0  0  0  0  0  0
   59.7970   30.8210   53.6760 C   0  0  0  0  0  0  0  0  0  0  0  0
   59.9558   31.2002   54.6963 H   0  0  0  0  0  0  0  0  0  0  0  0
   60.7583   30.7912   53.1421 H   0  0  0  0  0  0  0  0  0  0  0  0
   59.1015   31.4852   53.1421 H   0  0  0  0  0  0  0  0  0  0  0  0
  1  2  1  0
  2  3  1  0
  2  4  2  0
  4  5  1  0
  5  6  2  0
  6  7  1  0
  6  8  1  0
  8  9  1  0
  9 10  1  0
 10 11  2  0
 10 12  1  0
 12 13  1  0
 13 14  1  0
  5 15  1  0
 15 16  1  0
 15 17  2  0
 17 18  1  0
 18 19  1  0
 18 20  1  0
 18 21  1  0
 17 22  1  0
 22 23  1  0
 23 24  1  0
 23 25  1  0
 23 26  1  0
 26 27  2  0
 27 28  1  0
 27 29  1  0
 29 30  1  0
 29 31  2  0
 31 32  1  0
 31 33  1  0
 33 34  1  0
 33 35  2  0
 35 36  1  0
 36 37  1  0
 36 38  1  0
 36 39  1  0
 22  4  1  0
 35 26  1  0
 13  8  2  0
M  CHG  3   9  -1  12  -1  14  -1
M  END
>  <UniqueID>  (64) 
57

>  <SMILES>  (64) 
C=c1/c(=C/c2[n-]c(=O)[n-]c2[O-])cc(C)n1Cc1c(C)cccc1F

>  <Energy>  (64) 
109.0601437889244

>  <Genealogy>  (64) 
C=c1c(=Cc2[n-]c(=O)[n-]c2[O-])cc(C)n1Cc1c(C)cccc1F (protonated)
C=c1/c(=C/c2[n-]c(=O)[n-]c2[O-])cc(C)n1Cc1c(C)cccc1F (cis-trans isomerization)
C=c1/c(=C/c2[n-]c(=O)[n-]c2[O-])cc(C)n1Cc1c(C)cccc1F (3D coordinates assigned)
C=c1/c(=C/c2[n-]c(=O)[n-]c2[O-])cc(C)n1Cc1c(C)cccc1F (optimized conformer: 109.0601437889244 kcal/mol)

>  <smiles>  (64) 
C=c1c(=Cc2[nH]c(=O)[nH]c2O)cc(C)n1Cc1c(C)cccc1F

>  <score_type>  (64) 
oracle

>  <origin>  (64) 
adg

>  <m_score__min__energy>  (64) 
-15.52

>  <m_primary>  (64) 
energy

$$$$
64:0
     RDKit          3D

 56 59  0  0  0  0  0  0  0  0999 V2000
   55.1130   22.9130   44.8770 C   0  0  0  0  0  0  0  0  0  0  0  0
   55.9670   24.1350   45.0460 C   0  0  0  0  0  0  0  0  0  0  0  0
   56.9120   24.4770   44.0670 C   0  0  0  0  0  0  0  0  0  0  0  0
   57.7350   25.5940   44.2410 C   0  0  0  0  0  0  0  0  0  0  0  0
   57.6270   26.3750   45.4000 C   0  0  0  0  0  0  0  0  0  0  0  0
   58.6790   27.7680   45.6440 S   0  0  0  0  0  0  0  0  0  0  0  0
   58.3530   28.4340   46.9530 O   0  0  0  0  0  0  0  0  0  0  0  0
   60.1040   27.2920   45.6900 O   0  0  0  0  0  0  0  0  0  0  0  0
   58.4800   28.9040   44.3310 N   0  0  0  0  0  0  0  0  0  0  0  0
   57.1530   28.7170   43.7010 C   0  0  0  0  0  0  0  0  0  0  0  0
   56.7460   29.9400   42.8720 C   0  0  0  0  0  0  0  0  0  0  0  0
   56.6210   31.1960   43.7540 C   0  0  0  0  0  0  0  0  0  0  0  0
   57.4780   31.1090   45.0360 C   0  0  2  0  0  0  0  0  0  0  0  0
   57.7860   32.4900   45.5540 C   0  0  0  0  0  0  0  0  0  0  0  0
   57.3680   32.8430   46.6920 O   0  0  0  0  0  0  0  0  0  0  0  0
   58.6140   33.3750   44.7870 N   0  0  0  0  0  0  0  0  0  0  0  0
   59.0890   34.6530   45.3100 C   0  0  0  0  0  0  0  0  0  0  0  0
   59.9390   34.4300   46.5320 C   0  0  0  0  0  0  0  0  0  0  0  0
   59.4140   34.6510   47.8160 C   0  0  0  0  0  0  0  0  0  0  0  0
   60.1960   34.4180   48.9500 C   0  0  0  0  0  0  0  0  0  0  0  0
   61.5120   33.9540   48.8170 C   0  0  0  0  0  0  0  0  0  0  0  0
   62.3040   33.7110   49.9500 C   0  0  0  0  0  0  0  0  0  0  0  0
   63.6130   33.2460   49.8040 C   0  0  0  0  0  0  0  0  0  0  0  0
   64.1420   33.0180   48.5300 C   0  0  0  0  0  0  0  0  0  0  0  0
   63.3640   33.2560   47.3940 C   0  0  0  0  0  0  0  0  0  0  0  0
   62.0470   33.7250   47.5260 C   0  0  0  0  0  0  0  0  0  0  0  0
   61.2550   33.9650   46.3930 C   0  0  0  0  0  0  0  0  0  0  0  0
   58.7610   30.2910   44.7800 C   0  0  0  0  0  0  0  0  0  0  0  0
   56.7020   26.0200   46.3900 C   0  0  0  0  0  0  0  0  0  0  0  0
   55.8790   24.9040   46.2170 C   0  0  0  0  0  0  0  0  0  0  0  0
   54.8374   22.5186   45.8662 H   0  0  0  0  0  0  0  0  0  0  0  0
   54.2016   23.1767   44.3205 H   0  0  0  0  0  0  0  0  0  0  0  0
   55.6739   22.1478   44.3205 H   0  0  0  0  0  0  0  0  0  0  0  0
   57.0059   23.8638   43.1586 H   0  0  0  0  0  0  0  0  0  0  0  0
   58.4691   25.8605   43.4664 H   0  0  0  0  0  0  0  0  0  0  0  0
   57.1908   27.8361   43.0432 H   0  0  0  0  0  0  0  0  0  0  0  0
   56.4090   28.5788   44.4993 H   0  0  0  0  0  0  0  0  0  0  0  0
   57.5080   30.1190   42.0992 H   0  0  0  0  0  0  0  0  0  0  0  0
   55.7668   29.7387   42.4130 H   0  0  0  0  0  0  0  0  0  0  0  0
   56.9470   32.0699   43.1709 H   0  0  0  0  0  0  0  0  0  0  0  0
   55.5686   31.2835   44.0620 H   0  0  0  0  0  0  0  0  0  0  0  0
   56.9050   30.5816   45.8129 H   0  0  0  0  0  0  0  0  0  0  0  0
   58.9220   33.0860   43.8310 H   0  0  0  0  0  0  0  0  0  0  0  0
   59.6868   35.1616   44.5393 H   0  0  0  0  0  0  0  0  0  0  0  0
   58.2229   35.2736   45.5832 H   0  0  0  0  0  0  0  0  0  0  0  0
   58.3804   35.0099   47.9294 H   0  0  0  0  0  0  0  0  0  0  0  0
   59.7774   34.5993   49.9510 H   0  0  0  0  0  0  0  0  0  0  0  0
   61.8930   33.8871   50.9550 H   0  0  0  0  0  0  0  0  0  0  0  0
   64.2302   33.0584   50.6950 H   0  0  0  0  0  0  0  0  0  0  0  0
   65.1731   32.6504   48.4217 H   0  0  0  0  0  0  0  0  0  0  0  0
   63.7843   33.0755   46.3936 H   0  0  0  0  0  0  0  0  0  0  0  0
   61.6687   33.7874   45.3894 H   0  0  0  0  0  0  0  0  0  0  0  0
   59.3522   30.7986   44.0036 H   0  0  0  0  0  0  0  0  0  0  0  0
   59.3075   30.2261   45.7324 H   0  0  0  0  0  0  0  0  0  0  0  0
   56.6231   26.6220   47.3072 H   0  0  0  0  0  0  0  0  0  0  0  0
   55.1594   24.6271   47.0015 H   0  0  0  0  0  0  0  0  0  0  0  0
  1  2  1  0
  2  3  2  0
  3  4  1  0
  4  5  2  0
  5  6  1  0
  6  7  2  0
  6  8  2  0
  6  9  1  0
  9 10  1  0
 10 11  1  0
 11 12  1  0
 12 13  1  0
 13 14  1  0
 14 15  2  0
 14 16  1  0
 16 17  1  0
 17 18  1  0
 18 19  2  0
 19 20  1  0
 20 21  2  0
 21 22  1  0
 22 23  2  0
 23 24  1  0
 24 25  2  0
 25 26  1  0
 26 27  2  0
 13 28  1  0
  5 29  1  0
 29 30  2  0
 30  2  1  0
 28  9  1  0
 27 18  1  0
 26 21  1  0
  1 31  1  0
  1 32  1  0
  1 33  1  0
  3 34  1  0
  4 35  1  0
 10 36  1  0
 10 37  1  0
 11 38  1  0
 11 39  1  0
 12 40  1  0
 12 41  1  0
 13 42  1  1
 16 43  1  0
 17 44  1  0
 17 45  1  0
 19 46  1  0
 20 47  1  0
 22 48  1  0
 23 49  1  0
 24 50  1  0
 25 51  1  0
 27 52  1  0
 28 53  1  0
 28 54  1  0
 29 55  1  0
 30 56  1  0
M  END
>  <UniqueID>  (65) 
58

>  <SMILES>  (65) 
Cc1ccc(S(=O)(=O)N2CCC[C@H](C(=O)NCc3ccc4ccccc4c3)C2)cc1

>  <Energy>  (65) 
63.91976590259184

>  <Genealogy>  (65) 
Cc1ccc(S(=O)(=O)N2CCC[C@H](C(=O)NCc3ccc4ccccc4c3)C2)cc1 (chirality)
Cc1ccc(S(=O)(=O)N2CCC[C@H](C(=O)NCc3ccc4ccccc4c3)C2)cc1 (3D coordinates assigned)
Cc1ccc(S(=O)(=O)N2CCC[C@H](C(=O)NCc3ccc4ccccc4c3)C2)cc1 (nonaromatic ring conformer: 63.91976590259184 kcal/mol)

>  <smiles>  (65) 
Cc1ccc(S(=O)(=O)N2CCCC(C(=O)NCc3ccc4ccccc4c3)C2)cc1

>  <score_type>  (65) 
oracle

>  <origin>  (65) 
adg

>  <m_score__min__energy>  (65) 
-10.17

>  <m_primary>  (65) 
energy

$$$$
65:0
     RDKit          3D

 69 72  0  0  0  0  0  0  0  0999 V2000
   61.2250   33.8460   46.3600 C   0  0  0  0  0  0  0  0  0  0  0  0
   61.5660   33.6200   47.8320 C   0  0  0  0  0  0  0  0  0  0  0  0
   60.7820   32.4920   48.3800 N   0  0  0  0  0  0  0  0  0  0  0  0
   61.1010   31.1860   48.0740 C   0  0  0  0  0  0  0  0  0  0  0  0
   62.2370   30.8740   47.2540 N   0  0  0  0  0  0  0  0  0  0  0  0
   60.3350   30.1300   48.6150 C   0  0  0  0  0  0  0  0  0  0  0  0
   60.5970   28.7600   48.2730 N   0  0  0  0  0  0  0  0  0  0  0  0
   60.4690   28.3070   46.8870 C   0  0  0  0  0  0  0  0  0  0  0  0
   59.0510   27.8920   46.6050 C   0  0  0  0  0  0  0  0  0  0  0  0
   58.6010   26.6160   46.9720 C   0  0  0  0  0  0  0  0  0  0  0  0
   57.3000   26.1950   46.6550 C   0  0  0  0  0  0  0  0  0  0  0  0
   56.8290   24.7970   47.0330 C   0  0  0  0  0  0  0  0  0  0  0  0
   56.7290   23.8350   45.9030 N   0  0  0  0  0  0  0  0  0  0  0  0
   55.4080   23.6880   45.2630 C   0  0  0  0  0  0  0  0  0  0  0  0
   55.6570   23.4730   43.7770 C   0  0  0  0  0  0  0  0  0  0  0  0
   57.0090   24.1080   43.5220 C   0  0  0  0  0  0  0  0  0  0  0  0
   57.7430   24.0090   44.8490 C   0  0  0  0  0  0  0  0  0  0  0  0
   56.4370   27.0870   45.9800 C   0  0  0  0  0  0  0  0  0  0  0  0
   55.1380   26.7060   45.6550 O   0  0  0  0  0  0  0  0  0  0  0  0
   56.8700   28.3720   45.6300 C   0  0  0  0  0  0  0  0  0  0  0  0
   55.9530   29.2280   44.9880 O   0  0  0  0  0  0  0  0  0  0  0  0
   56.1700   29.9280   43.7610 C   0  0  0  0  0  0  0  0  0  0  0  0
   57.4610   30.7540   43.8210 C   0  0  0  0  0  0  0  0  0  0  0  0
   57.2510   31.9630   44.6480 N   0  0  0  0  0  0  0  0  0  0  0  0
   57.7770   33.1720   43.9920 C   0  0  0  0  0  0  0  0  0  0  0  0
   57.5510   34.3900   44.8980 C   0  0  0  0  0  0  0  0  0  0  0  0
   58.1750   34.2040   46.1530 O   0  0  0  0  0  0  0  0  0  0  0  0
   57.6090   33.0860   46.8070 C   0  0  0  0  0  0  0  0  0  0  0  0
   57.8380   31.8090   45.9920 C   0  0  0  0  0  0  0  0  0  0  0  0
   58.1890   28.7570   45.9250 C   0  0  0  0  0  0  0  0  0  0  0  0
   59.2780   30.4460   49.4720 C   0  0  0  0  0  0  0  0  0  0  0  0
   58.5750   29.5350   49.9880 O   0  0  0  0  0  0  0  0  0  0  0  0
   58.9850   31.7400   49.7330 N   0  0  0  0  0  0  0  0  0  0  0  0
   59.7040   32.7540   49.1930 C   0  0  0  0  0  0  0  0  0  0  0  0
   59.3630   33.9390   49.4540 O   0  0  0  0  0  0  0  0  0  0  0  0
   60.3103   34.4522   46.2844 H   0  0  0  0  0  0  0  0  0  0  0  0
   62.0558   34.3729   45.8679 H   0  0  0  0  0  0  0  0  0  0  0  0
   61.0634   32.8756   45.8679 H   0  0  0  0  0  0  0  0  0  0  0  0
   62.6385   33.3935   47.9241 H   0  0  0  0  0  0  0  0  0  0  0  0
   61.3199   34.5310   48.3973 H   0  0  0  0  0  0  0  0  0  0  0  0
   62.1400   30.4330   46.3120 H   0  0  0  0  0  0  0  0  0  0  0  0
   63.2040   31.0590   47.6010 H   0  0  0  0  0  0  0  0  0  0  0  0
   60.4210   28.0470   49.0130 H   0  0  0  0  0  0  0  0  0  0  0  0
   60.7492   29.1270   46.2094 H   0  0  0  0  0  0  0  0  0  0  0  0
   61.1336   27.4449   46.7283 H   0  0  0  0  0  0  0  0  0  0  0  0
   59.2752   25.9369   47.5146 H   0  0  0  0  0  0  0  0  0  0  0  0
   57.5372   24.3864   47.7677 H   0  0  0  0  0  0  0  0  0  0  0  0
   55.8079   24.9146   47.4249 H   0  0  0  0  0  0  0  0  0  0  0  0
   54.8769   22.8228   45.6864 H   0  0  0  0  0  0  0  0  0  0  0  0
   54.7873   24.5801   45.4327 H   0  0  0  0  0  0  0  0  0  0  0  0
   55.6806   22.3995   43.5382 H   0  0  0  0  0  0  0  0  0  0  0  0
   54.8648   23.9120   43.1528 H   0  0  0  0  0  0  0  0  0  0  0  0
   57.5520   23.5607   42.7374 H   0  0  0  0  0  0  0  0  0  0  0  0
   56.9196   25.1478   43.1744 H   0  0  0  0  0  0  0  0  0  0  0  0
   58.4250   23.1460   44.8376 H   0  0  0  0  0  0  0  0  0  0  0  0
   58.3396   24.9151   45.0307 H   0  0  0  0  0  0  0  0  0  0  0  0
   56.2465   29.1999   42.9400 H   0  0  0  0  0  0  0  0  0  0  0  0
   55.3243   30.6109   43.5925 H   0  0  0  0  0  0  0  0  0  0  0  0
   58.2629   30.1448   44.2636 H   0  0  0  0  0  0  0  0  0  0  0  0
   57.7424   31.0582   42.8020 H   0  0  0  0  0  0  0  0  0  0  0  0
   58.8542   33.0486   43.8068 H   0  0  0  0  0  0  0  0  0  0  0  0
   57.2539   33.3257   43.0366 H   0  0  0  0  0  0  0  0  0  0  0  0
   57.9732   35.2830   44.4140 H   0  0  0  0  0  0  0  0  0  0  0  0
   56.4698   34.5160   45.0567 H   0  0  0  0  0  0  0  0  0  0  0  0
   58.0761   32.9717   47.7963 H   0  0  0  0  0  0  0  0  0  0  0  0
   56.5263   33.2488   46.9128 H   0  0  0  0  0  0  0  0  0  0  0  0
   58.9183   31.6233   45.8997 H   0  0  0  0  0  0  0  0  0  0  0  0
   57.3588   30.9609   46.5029 H   0  0  0  0  0  0  0  0  0  0  0  0
   58.5471   29.7505   45.6172 H   0  0  0  0  0  0  0  0  0  0  0  0
  1  2  1  0
  2  3  1  0
  3  4  1  0
  4  5  1  0
  4  6  2  0
  6  7  1  0
  7  8  1  0
  8  9  1  0
  9 10  2  0
 10 11  1  0
 11 12  1  0
 12 13  1  0
 13 14  1  0
 14 15  1  0
 15 16  1  0
 16 17  1  0
 11 18  2  0
 18 19  1  0
 18 20  1  0
 20 21  1  0
 21 22  1  0
 22 23  1  0
 23 24  1  0
 24 25  1  0
 25 26  1  0
 26 27  1  0
 27 28  1  0
 28 29  1  0
 20 30  2  0
  6 31  1  0
 31 32  2  0
 31 33  1  0
 33 34  1  0
 34 35  2  0
 34  3  1  0
 30  9  1  0
 17 13  1  0
 29 24  1  0
  1 36  1  0
  1 37  1  0
  1 38  1  0
  2 39  1  0
  2 40  1  0
  5 41  1  0
  5 42  1  0
  7 43  1  0
  8 44  1  0
  8 45  1  0
 10 46  1  0
 12 47  1  0
 12 48  1  0
 14 49  1  0
 14 50  1  0
 15 51  1  0
 15 52  1  0
 16 53  1  0
 16 54  1  0
 17 55  1  0
 17 56  1  0
 22 57  1  0
 22 58  1  0
 23 59  1  0
 23 60  1  0
 25 61  1  0
 25 62  1  0
 26 63  1  0
 26 64  1  0
 28 65  1  0
 28 66  1  0
 29 67  1  0
 29 68  1  0
 30 69  1  0
M  CHG  2  19  -1  33  -1
M  END
>  <UniqueID>  (66) 
59

>  <SMILES>  (66) 
CCn1c(N)c(NCc2cc(CN3CCCC3)c([O-])c(OCCN3CCOCC3)c2)c(=O)[n-]c1=O

>  <Energy>  (66) 
89.20343608775401

>  <Genealogy>  (66) 
CCn1c(N)c(NCc2cc(CN3CCCC3)c([O-])c(OCCN3CCOCC3)c2)c(=O)[n-]c1=O (protonated)
CCn1c(N)c(NCc2cc(CN3CCCC3)c([O-])c(OCCN3CCOCC3)c2)c(=O)[n-]c1=O (3D coordinates assigned)
CCn1c(N)c(NCc2cc(CN3CCCC3)c([O-])c(OCCN3CCOCC3)c2)c(=O)[n-]c1=O (nonaromatic ring conformer: 89.20343608775401 kcal/mol)

>  <smiles>  (66) 
CCn1c(N)c(NCc2cc(CN3CCCC3)c(O)c(OCCN3CCOCC3)c2)c(=O)[nH]c1=O

>  <score_type>  (66) 
oracle

>  <origin>  (66) 
adg

>  <m_score__min__energy>  (66) 
-13.69

>  <m_primary>  (66) 
energy

$$$$
66:0
     RDKit          3D

 39 41  0  0  0  0  0  0  0  0999 V2000
   57.6417   23.0803   45.3717 H   0  0  0  0  0  0  0  0  0  0  0  0
   57.4190   24.1380   45.5760 C   0  0  0  0  0  0  0  0  0  0  0  0
   56.0910   24.5670   45.6630 C   0  0  0  0  0  0  0  0  0  0  0  0
   55.2702   23.8465   45.5316 H   0  0  0  0  0  0  0  0  0  0  0  0
   55.8070   25.9120   45.9170 C   0  0  0  0  0  0  0  0  0  0  0  0
   54.4870   26.3400   45.9960 O   0  0  0  0  0  0  0  0  0  0  0  0
   56.8490   26.8290   46.0890 C   0  0  0  0  0  0  0  0  0  0  0  0
   56.6217   27.8878   46.2819 H   0  0  0  0  0  0  0  0  0  0  0  0
   58.1860   26.4010   46.0160 C   0  0  0  0  0  0  0  0  0  0  0  0
   59.3080   27.3920   46.1580 C   0  0  0  0  0  0  0  0  0  0  0  0
   60.1775   27.0427   45.5819 H   0  0  0  0  0  0  0  0  0  0  0  0
   59.5767   27.4832   47.2208 H   0  0  0  0  0  0  0  0  0  0  0  0
   58.8780   28.7290   45.6440 C   0  0  0  0  0  0  0  0  0  0  0  0
   57.7370   29.7310   46.3750 S   0  0  0  0  0  0  0  0  0  0  0  0
   57.7830   30.8520   45.1240 C   0  0  0  0  0  0  0  0  0  0  0  0
   57.0260   31.9100   45.0930 N   0  0  0  0  0  0  0  0  0  0  0  0
   57.2740   33.1640   45.7440 C   0  0  0  0  0  0  0  0  0  0  0  0
   57.0360   33.3150   46.9720 O   0  0  0  0  0  0  0  0  0  0  0  0
   57.7470   34.3320   44.9380 C   0  0  0  0  0  0  0  0  0  0  0  0
   57.2360   34.3255   43.9639 H   0  0  0  0  0  0  0  0  0  0  0  0
   57.5156   35.2530   45.4932 H   0  0  0  0  0  0  0  0  0  0  0  0
   59.5540   34.2630   44.6630 S   0  0  0  0  0  0  0  0  0  0  0  0
   59.9690   33.9420   46.3820 C   0  0  0  0  0  0  0  0  0  0  0  0
   60.6740   32.7850   46.7340 C   0  0  0  0  0  0  0  0  0  0  0  0
   60.9734   32.0663   45.9569 H   0  0  0  0  0  0  0  0  0  0  0  0
   60.9980   32.5420   48.0720 C   0  0  0  0  0  0  0  0  0  0  0  0
   61.5552   31.6341   48.3463 H   0  0  0  0  0  0  0  0  0  0  0  0
   60.6140   33.4530   49.0630 C   0  0  0  0  0  0  0  0  0  0  0  0
   61.0230   33.1490   50.7420 Cl  0  0  0  0  0  0  0  0  0  0  0  0
   59.9000   34.6050   48.7140 C   0  0  0  0  0  0  0  0  0  0  0  0
   59.5962   35.3207   49.4922 H   0  0  0  0  0  0  0  0  0  0  0  0
   59.5730   34.8460   47.3770 C   0  0  0  0  0  0  0  0  0  0  0  0
   59.0037   35.7470   47.1050 H   0  0  0  0  0  0  0  0  0  0  0  0
   58.6320   30.4660   44.1390 N   0  0  0  0  0  0  0  0  0  0  0  0
   58.7820   30.9620   43.2340 H   0  0  0  0  0  0  0  0  0  0  0  0
   59.2400   29.2850   44.4210 C   0  0  0  0  0  0  0  0  0  0  0  0
   59.9591   28.8075   43.7391 H   0  0  0  0  0  0  0  0  0  0  0  0
   58.4640   25.0500   45.7480 C   0  0  0  0  0  0  0  0  0  0  0  0
   59.5072   24.7091   45.6733 H   0  0  0  0  0  0  0  0  0  0  0  0
  1  2  1  0
  2  3  2  0
  3  4  1  0
  3  5  1  0
  5  6  1  0
  5  7  2  0
  7  8  1  0
  7  9  1  0
  9 10  1  0
 10 11  1  0
 10 12  1  0
 10 13  1  0
 13 14  1  0
 14 15  1  0
 15 16  2  0
 16 17  1  0
 17 18  2  0
 17 19  1  0
 19 20  1  0
 19 21  1  0
 19 22  1  0
 22 23  1  0
 23 24  2  0
 24 25  1  0
 24 26  1  0
 26 27  1  0
 26 28  2  0
 28 29  1  0
 28 30  1  0
 30 31  1  0
 30 32  2  0
 32 33  1  0
 15 34  1  0
 34 35  1  0
 34 36  1  0
 36 37  1  0
  9 38  2  0
 38 39  1  0
 38  2  1  0
 36 13  2  0
 32 23  1  0
M  CHG  1   6  -1
M  END
>  <UniqueID>  (67) 
60

>  <SMILES>  (67) 
O=C(CSc1ccc(Cl)cc1)/N=c1\[nH]cc(Cc2cccc([O-])c2)s1

>  <Energy>  (67) 
68.12313515995886

>  <Genealogy>  (67) 
O=C(CSc1ccc(Cl)cc1)N=c1[nH]cc(Cc2cccc([O-])c2)s1 (protonated)
O=C(CSc1ccc(Cl)cc1)/N=c1\[nH]cc(Cc2cccc([O-])c2)s1 (cis-trans isomerization)
O=C(CSc1ccc(Cl)cc1)/N=c1\[nH]cc(Cc2cccc([O-])c2)s1 (3D coordinates assigned)
O=C(CSc1ccc(Cl)cc1)/N=c1\[nH]cc(Cc2cccc([O-])c2)s1 (optimized conformer: 68.12313515995886 kcal/mol)

>  <smiles>  (67) 
O=C(CSc1ccc(Cl)cc1)N=c1[nH]cc(Cc2cccc(O)c2)s1

>  <score_type>  (67) 
oracle

>  <origin>  (67) 
adg

>  <m_score__min__energy>  (67) 
-12.789999999999999

>  <m_primary>  (67) 
energy

$$$$
67:0
     RDKit          3D

 60 63  0  0  0  0  0  0  0  0999 V2000
   54.7890   26.6970   45.2410 H   0  0  0  0  0  0  0  0  0  0  0  0
   54.1580   25.9640   45.6350 N   0  0  0  0  0  0  0  0  0  0  0  0
   54.5160   24.5910   45.5820 C   0  0  0  0  0  0  0  0  0  0  0  0
   53.9120   23.8230   44.7830 O   0  0  0  0  0  0  0  0  0  0  0  0
   55.6270   24.0640   46.3940 C   0  0  0  0  0  0  0  0  0  0  0  0
   55.5610   22.8690   47.0840 C   0  0  0  0  0  0  0  0  0  0  0  0
   54.7353   22.1424   47.1026 H   0  0  0  0  0  0  0  0  0  0  0  0
   56.7660   22.7980   47.7420 C   0  0  0  0  0  0  0  0  0  0  0  0
   57.0930   21.8480   48.5670 N   0  0  0  0  0  0  0  0  0  0  0  0
   56.8610   21.8270   49.9860 C   0  0  0  0  0  0  0  0  0  0  0  0
   57.9000   22.2180   50.8380 C   0  0  0  0  0  0  0  0  0  0  0  0
   58.8633   22.5372   50.4135 H   0  0  0  0  0  0  0  0  0  0  0  0
   57.7230   22.2060   52.2230 C   0  0  0  0  0  0  0  0  0  0  0  0
   58.5505   22.5027   52.8843 H   0  0  0  0  0  0  0  0  0  0  0  0
   56.4940   21.8170   52.7730 C   0  0  0  0  0  0  0  0  0  0  0  0
   56.2890   21.7900   54.5220 S   0  0  0  0  0  0  0  0  0  0  0  0
   57.3570   20.9420   55.1560 O   0  0  0  0  0  0  0  0  0  0  0  0
   56.3990   23.1890   55.0590 O   0  0  0  0  0  0  0  0  0  0  0  0
   54.6910   21.1190   54.9220 C   0  0  0  0  0  0  0  0  0  0  0  0
   54.5766   21.0710   56.0150 H   0  0  0  0  0  0  0  0  0  0  0  0
   53.9063   21.7636   54.4992 H   0  0  0  0  0  0  0  0  0  0  0  0
   54.6018   20.1074   54.4992 H   0  0  0  0  0  0  0  0  0  0  0  0
   55.4340   21.4710   51.9250 C   0  0  0  0  0  0  0  0  0  0  0  0
   54.4590   21.1923   52.3513 H   0  0  0  0  0  0  0  0  0  0  0  0
   55.6120   21.4790   50.5380 C   0  0  0  0  0  0  0  0  0  0  0  0
   54.7747   21.2129   49.8760 H   0  0  0  0  0  0  0  0  0  0  0  0
   57.5090   23.8910   47.4910 N   0  0  0  0  0  0  0  0  0  0  0  0
   56.8210   24.6650   46.6630 N   0  0  0  0  0  0  0  0  0  0  0  0
   57.3220   25.9960   46.2780 C   0  0  1  0  0  0  0  0  0  0  0  0
   56.4469   26.6326   46.0809 H   0  0  0  0  0  0  0  0  0  0  0  0
   58.0780   26.6940   47.4330 C   0  0  0  0  0  0  0  0  0  0  0  0
   57.4057   27.4349   47.8902 H   0  0  0  0  0  0  0  0  0  0  0  0
   58.3801   25.9077   48.1405 H   0  0  0  0  0  0  0  0  0  0  0  0
   59.3640   27.4150   46.9860 C   0  0  0  0  0  0  0  0  0  0  0  0
   59.6250   28.1752   47.7370 H   0  0  0  0  0  0  0  0  0  0  0  0
   60.1610   26.6630   46.8899 H   0  0  0  0  0  0  0  0  0  0  0  0
   59.1980   28.0720   45.6830 N   0  0  0  0  0  0  0  0  0  0  0  0
   59.8600   29.3300   45.4670 C   0  0  0  0  0  0  0  0  0  0  0  0
   61.0850   29.3330   45.1680 O   0  0  0  0  0  0  0  0  0  0  0  0
   59.1300   30.6120   45.5820 C   0  0  0  0  0  0  0  0  0  0  0  0
   58.4630   31.1570   44.4690 C   0  0  0  0  0  0  0  0  0  0  0  0
   58.4883   30.6293   43.5042 H   0  0  0  0  0  0  0  0  0  0  0  0
   57.7690   32.3640   44.5820 C   0  0  0  0  0  0  0  0  0  0  0  0
   57.2457   32.7791   43.7080 H   0  0  0  0  0  0  0  0  0  0  0  0
   57.7370   33.0470   45.8030 C   0  0  0  0  0  0  0  0  0  0  0  0
   57.0380   34.2460   45.9310 O   0  0  0  0  0  0  0  0  0  0  0  0
   56.2820   34.3500   46.5970 H   0  0  0  0  0  0  0  0  0  0  0  0
   58.4140   32.5210   46.9100 C   0  0  0  0  0  0  0  0  0  0  0  0
   58.3984   33.0595   47.8690 H   0  0  0  0  0  0  0  0  0  0  0  0
   59.1100   31.3130   46.8000 C   0  0  0  0  0  0  0  0  0  0  0  0
   59.6451   30.9090   47.6721 H   0  0  0  0  0  0  0  0  0  0  0  0
   58.5790   27.3650   44.5450 C   0  0  2  0  0  0  0  0  0  0  0  0
   59.3371   27.2337   43.7588 H   0  0  0  0  0  0  0  0  0  0  0  0
   57.4300   28.2030   43.9620 C   0  0  0  0  0  0  0  0  0  0  0  0
   56.8381   28.6347   44.7825 H   0  0  0  0  0  0  0  0  0  0  0  0
   57.8440   29.0127   43.3431 H   0  0  0  0  0  0  0  0  0  0  0  0
   56.7856   27.5614   43.3431 H   0  0  0  0  0  0  0  0  0  0  0  0
   58.1080   25.9540   44.9540 C   0  0  0  0  0  0  0  0  0  0  0  0
   57.4596   25.5481   44.1636 H   0  0  0  0  0  0  0  0  0  0  0  0
   58.9931   25.3157   45.0923 H   0  0  0  0  0  0  0  0  0  0  0  0
  1  2  1  0
  2  3  1  0
  3  4  2  0
  3  5  1  0
  5  6  2  0
  6  7  1  0
  6  8  1  0
  8  9  2  0
  9 10  1  0
 10 11  2  0
 11 12  1  0
 11 13  1  0
 13 14  1  0
 13 15  2  0
 15 16  1  0
 16 17  2  0
 16 18  2  0
 16 19  1  0
 19 20  1  0
 19 21  1  0
 19 22  1  0
 15 23  1  0
 23 24  1  0
 23 25  2  0
 25 26  1  0
  8 27  1  0
 27 28  1  0
 28 29  1  0
 29 30  1  6
 29 31  1  0
 31 32  1  0
 31 33  1  0
 31 34  1  0
 34 35  1  0
 34 36  1  0
 34 37  1  0
 37 38  1  0
 38 39  2  0
 38 40  1  0
 40 41  2  0
 41 42  1  0
 41 43  1  0
 43 44  1  0
 43 45  2  0
 45 46  1  0
 46 47  1  0
 45 48  1  0
 48 49  1  0
 48 50  2  0
 50 51  1  0
 37 52  1  0
 52 53  1  6
 52 54  1  0
 54 55  1  0
 54 56  1  0
 54 57  1  0
 52 58  1  0
 58 59  1  0
 58 60  1  0
 28  5  1  0
 58 29  1  0
 25 10  1  0
 50 40  1  0
M  CHG  2   2  -1  27  -1
M  END
>  <UniqueID>  (68) 
61

>  <SMILES>  (68) 
C[C@@H]1C[C@@H](n2[n-]/c(=N\c3ccc(S(C)(=O)=O)cc3)cc2C([NH-])=O)CCN1C(=O)c1ccc(O)cc1

>  <Energy>  (68) 
110.42901349663278

>  <Genealogy>  (68) 
CC1CC(n2[n-]c(=Nc3ccc(S(C)(=O)=O)cc3)cc2C([NH-])=O)CCN1C(=O)c1ccc(O)cc1 (protonated)
C[C@@H]1C[C@@H](n2[n-]c(=Nc3ccc(S(C)(=O)=O)cc3)cc2C([NH-])=O)CCN1C(=O)c1ccc(O)cc1 (chirality)
C[C@@H]1C[C@@H](n2[n-]/c(=N\c3ccc(S(C)(=O)=O)cc3)cc2C([NH-])=O)CCN1C(=O)c1ccc(O)cc1 (cis-trans isomerization)
C[C@@H]1C[C@@H](n2[n-]/c(=N\c3ccc(S(C)(=O)=O)cc3)cc2C([NH-])=O)CCN1C(=O)c1ccc(O)cc1 (3D coordinates assigned)
C[C@@H]1C[C@@H](n2[n-]/c(=N\c3ccc(S(C)(=O)=O)cc3)cc2C([NH-])=O)CCN1C(=O)c1ccc(O)cc1 (nonaromatic ring conformer: 110.42901349663278 kcal/mol)

>  <smiles>  (68) 
CC1CC(n2[nH]c(=Nc3ccc(S(C)(=O)=O)cc3)cc2C(N)=O)CCN1C(=O)c1ccc(O)cc1

>  <score_type>  (68) 
oracle

>  <origin>  (68) 
adg

>  <m_score__min__energy>  (68) 
-12.83

>  <m_primary>  (68) 
energy

$$$$
68:0
     RDKit          3D

 38 40  0  0  0  0  0  0  0  0999 V2000
   59.4499   29.6687   48.3022 H   0  0  0  0  0  0  0  0  0  0  0  0
   58.9350   28.7330   48.0390 C   0  0  0  0  0  0  0  0  0  0  0  0
   58.4578   28.1282   48.8241 H   0  0  0  0  0  0  0  0  0  0  0  0
   58.8890   28.3290   46.7590 C   0  0  0  0  0  0  0  0  0  0  0  0
   58.2780   27.1690   46.2520 C   0  0  0  0  0  0  0  0  0  0  0  0
   57.7570   26.0940   46.8790 C   0  0  0  0  0  0  0  0  0  0  0  0
   58.3081   25.6991   47.7452 H   0  0  0  0  0  0  0  0  0  0  0  0
   56.5090   25.4040   46.4990 C   0  0  0  0  0  0  0  0  0  0  0  0
   55.4330   26.1040   45.9260 C   0  0  0  0  0  0  0  0  0  0  0  0
   55.5280   27.4670   45.6690 O   0  0  0  0  0  0  0  0  0  0  0  0
   54.2820   25.4480   45.6260 N   0  0  0  0  0  0  0  0  0  0  0  0
   54.1420   24.1230   45.8860 C   0  0  0  0  0  0  0  0  0  0  0  0
   53.0670   23.5360   45.5960 O   0  0  0  0  0  0  0  0  0  0  0  0
   55.1560   23.4320   46.4650 N   0  0  0  0  0  0  0  0  0  0  0  0
   56.3270   24.0410   46.7850 C   0  0  0  0  0  0  0  0  0  0  0  0
   57.2460   23.3710   47.3270 O   0  0  0  0  0  0  0  0  0  0  0  0
   58.3150   27.3380   44.8720 C   0  0  0  0  0  0  0  0  0  0  0  0
   57.7860   26.3980   43.8330 C   0  0  0  0  0  0  0  0  0  0  0  0
   57.3036   25.5409   44.3256 H   0  0  0  0  0  0  0  0  0  0  0  0
   57.0502   26.9219   43.2052 H   0  0  0  0  0  0  0  0  0  0  0  0
   58.6156   26.0409   43.2052 H   0  0  0  0  0  0  0  0  0  0  0  0
   58.9500   28.4860   44.5830 N   0  0  0  0  0  0  0  0  0  0  0  0
   59.1140   28.8650   43.6230 H   0  0  0  0  0  0  0  0  0  0  0  0
   59.3250   29.0760   45.7090 N   0  0  0  0  0  0  0  0  0  0  0  0
   59.9850   30.3910   45.7550 C   0  0  0  0  0  0  0  0  0  0  0  0
   60.5831   30.4599   46.6756 H   0  0  0  0  0  0  0  0  0  0  0  0
   60.6262   30.4894   44.8667 H   0  0  0  0  0  0  0  0  0  0  0  0
   58.9730   31.5130   45.7400 C   0  0  0  0  0  0  0  0  0  0  0  0
   57.8330   31.4090   44.9220 C   0  0  0  0  0  0  0  0  0  0  0  0
   57.6775   30.5063   44.3129 H   0  0  0  0  0  0  0  0  0  0  0  0
   56.8980   32.4450   44.8790 C   0  0  0  0  0  0  0  0  0  0  0  0
   56.0072   32.3541   44.2401 H   0  0  0  0  0  0  0  0  0  0  0  0
   57.0910   33.5960   45.6450 C   0  0  0  0  0  0  0  0  0  0  0  0
   56.3520   34.4100   45.6095 H   0  0  0  0  0  0  0  0  0  0  0  0
   58.2210   33.7150   46.4560 C   0  0  0  0  0  0  0  0  0  0  0  0
   58.3701   34.6238   47.0576 H   0  0  0  0  0  0  0  0  0  0  0  0
   59.1660   32.6820   46.5070 C   0  0  0  0  0  0  0  0  0  0  0  0
   60.5810   32.8890   47.5350 Cl  0  0  0  0  0  0  0  0  0  0  0  0
  1  2  1  0
  2  3  1  0
  2  4  2  0
  4  5  1  0
  5  6  2  0
  6  7  1  0
  6  8  1  0
  8  9  2  0
  9 10  1  0
  9 11  1  0
 11 12  1  0
 12 13  2  0
 12 14  1  0
 14 15  1  0
 15 16  2  0
  5 17  1  0
 17 18  1  0
 18 19  1  0
 18 20  1  0
 18 21  1  0
 17 22  2  0
 22 23  1  0
 22 24  1  0
 24 25  1  0
 25 26  1  0
 25 27  1  0
 25 28  1  0
 28 29  2  0
 29 30  1  0
 29 31  1  0
 31 32  1  0
 31 33  2  0
 33 34  1  0
 33 35  1  0
 35 36  1  0
 35 37  2  0
 37 38  1  0
 24  4  1  0
 37 28  1  0
 15  8  1  0
M  CHG  4  10  -1  11  -1  14  -1  22   1
M  END
>  <UniqueID>  (69) 
62

>  <SMILES>  (69) 
C=c1/c(=C\c2c([O-])[n-]c(=O)[n-]c2=O)c(C)[nH+]n1Cc1ccccc1Cl

>  <Energy>  (69) 
89.08478490022806

>  <Genealogy>  (69) 
C=c1c(=Cc2c([O-])[n-]c(=O)[n-]c2=O)c(C)[nH+]n1Cc1ccccc1Cl (protonated)
C=c1/c(=C\c2c([O-])[n-]c(=O)[n-]c2=O)c(C)[nH+]n1Cc1ccccc1Cl (cis-trans isomerization)
C=c1/c(=C\c2c([O-])[n-]c(=O)[n-]c2=O)c(C)[nH+]n1Cc1ccccc1Cl (3D coordinates assigned)
C=c1/c(=C\c2c([O-])[n-]c(=O)[n-]c2=O)c(C)[nH+]n1Cc1ccccc1Cl (optimized conformer: 89.08478490022806 kcal/mol)

>  <smiles>  (69) 
C=c1c(=Cc2c(O)[nH]c(=O)[nH]c2=O)c(C)nn1Cc1ccccc1Cl

>  <score_type>  (69) 
oracle

>  <origin>  (69) 
adg

>  <m_score__min__energy>  (69) 
-14.369999999999999

>  <m_primary>  (69) 
energy

$$$$
69:0
     RDKit          3D

 52 54  0  0  0  0  0  0  0  0999 V2000
   62.4260   32.2560   50.6250 C   0  0  0  0  0  0  0  0  0  0  0  0
   62.0150   32.8000   49.2750 C   0  0  0  0  0  0  0  0  0  0  0  0
   60.6860   33.2150   49.0250 C   0  0  0  0  0  0  0  0  0  0  0  0
   59.6740   33.0850   50.1020 C   0  0  0  0  0  0  0  0  0  0  0  0
   58.8060   31.9860   50.1180 C   0  0  0  0  0  0  0  0  0  0  0  0
   57.8720   31.8680   51.1480 C   0  0  0  0  0  0  0  0  0  0  0  0
   57.8070   32.8140   52.1230 N   0  0  0  0  0  0  0  0  0  0  0  0
   58.6430   33.8900   52.1340 C   0  0  0  0  0  0  0  0  0  0  0  0
   58.5550   34.7700   53.0770 N   0  0  0  0  0  0  0  0  0  0  0  0
   59.5970   34.0420   51.1220 C   0  0  0  0  0  0  0  0  0  0  0  0
   60.3360   33.7030   47.7810 N   0  0  0  0  0  0  0  0  0  0  0  0
   58.9500   34.1420   47.5030 C   0  0  0  0  0  0  0  0  0  0  0  0
   58.1900   33.0740   46.7700 C   0  0  0  0  0  0  0  0  0  0  0  0
   56.9300   33.1070   46.7680 O   0  0  0  0  0  0  0  0  0  0  0  0
   58.8980   32.0380   46.0690 N   0  0  0  0  0  0  0  0  0  0  0  0
   58.2690   30.8880   45.4750 C   0  0  0  0  0  0  0  0  0  0  0  0
   57.8170   30.9110   44.1440 C   0  0  0  0  0  0  0  0  0  0  0  0
   57.2160   29.7830   43.5830 C   0  0  0  0  0  0  0  0  0  0  0  0
   57.0340   28.6320   44.3500 C   0  0  0  0  0  0  0  0  0  0  0  0
   57.4270   28.6050   45.6910 C   0  0  0  0  0  0  0  0  0  0  0  0
   57.2150   27.4300   46.4260 O   0  0  0  0  0  0  0  0  0  0  0  0
   56.4560   26.3390   45.9820 C   0  0  0  0  0  0  0  0  0  0  0  0
   55.1940   26.3900   46.0060 O   0  0  0  0  0  0  0  0  0  0  0  0
   57.1180   25.1790   45.4510 N   0  0  0  0  0  0  0  0  0  0  0  0
   56.3260   24.0450   44.9660 C   0  0  0  0  0  0  0  0  0  0  0  0
   58.5810   25.1430   45.4120 C   0  0  0  0  0  0  0  0  0  0  0  0
   58.0570   29.7340   46.2520 C   0  0  0  0  0  0  0  0  0  0  0  0
   58.5220   29.6940   47.5260 F   0  0  0  0  0  0  0  0  0  0  0  0
   61.2740   33.7340   46.7780 C   0  0  0  0  0  0  0  0  0  0  0  0
   60.9740   34.1430   45.6230 O   0  0  0  0  0  0  0  0  0  0  0  0
   62.5410   33.3180   47.0090 N   0  0  0  0  0  0  0  0  0  0  0  0
   62.9330   32.8550   48.2180 C   0  0  0  0  0  0  0  0  0  0  0  0
   64.1240   32.4750   48.3730 O   0  0  0  0  0  0  0  0  0  0  0  0
   61.9676   32.8627   51.4198 H   0  0  0  0  0  0  0  0  0  0  0  0
   62.0880   31.2134   50.7185 H   0  0  0  0  0  0  0  0  0  0  0  0
   63.5213   32.2962   50.7185 H   0  0  0  0  0  0  0  0  0  0  0  0
   58.8600   31.2237   49.3268 H   0  0  0  0  0  0  0  0  0  0  0  0
   57.1867   31.0079   51.1714 H   0  0  0  0  0  0  0  0  0  0  0  0
   58.2040   35.7370   52.8910 H   0  0  0  0  0  0  0  0  0  0  0  0
   60.2798   34.9044   51.1273 H   0  0  0  0  0  0  0  0  0  0  0  0
   58.4421   34.3576   48.4546 H   0  0  0  0  0  0  0  0  0  0  0  0
   58.9849   35.0444   46.8750 H   0  0  0  0  0  0  0  0  0  0  0  0
   59.9210   32.1760   45.9030 H   0  0  0  0  0  0  0  0  0  0  0  0
   57.9377   31.8232   43.5412 H   0  0  0  0  0  0  0  0  0  0  0  0
   56.8852   29.8017   42.5341 H   0  0  0  0  0  0  0  0  0  0  0  0
   56.5781   27.7396   43.8963 H   0  0  0  0  0  0  0  0  0  0  0  0
   55.9314   23.4800   45.8233 H   0  0  0  0  0  0  0  0  0  0  0  0
   55.4898   24.4163   44.3553 H   0  0  0  0  0  0  0  0  0  0  0  0
   56.9625   23.3877   44.3553 H   0  0  0  0  0  0  0  0  0  0  0  0
   58.9750   25.1333   46.4390 H   0  0  0  0  0  0  0  0  0  0  0  0
   58.9115   24.2364   44.8839 H   0  0  0  0  0  0  0  0  0  0  0  0
   58.9557   26.0322   44.8839 H   0  0  0  0  0  0  0  0  0  0  0  0
  1  2  1  0
  2  3  2  0
  3  4  1  0
  4  5  1  0
  5  6  2  0
  6  7  1  0
  7  8  1  0
  8  9  2  3
  8 10  1  0
  3 11  1  0
 11 12  1  0
 12 13  1  0
 13 14  2  0
 13 15  1  0
 15 16  1  0
 16 17  2  0
 17 18  1  0
 18 19  2  0
 19 20  1  0
 20 21  1  0
 21 22  1  0
 22 23  2  0
 22 24  1  0
 24 25  1  0
 24 26  1  0
 20 27  2  0
 27 28  1  0
 11 29  1  0
 29 30  2  0
 29 31  1  0
 31 32  1  0
 32 33  2  0
 32  2  1  0
 10  4  2  0
 27 16  1  0
  1 34  1  0
  1 35  1  0
  1 36  1  0
  5 37  1  0
  6 38  1  0
  9 39  1  0
 10 40  1  0
 12 41  1  0
 12 42  1  0
 15 43  1  0
 17 44  1  0
 18 45  1  0
 19 46  1  0
 25 47  1  0
 25 48  1  0
 25 49  1  0
 26 50  1  0
 26 51  1  0
 26 52  1  0
M  CHG  2   7  -1  31  -1
M  END
>  <UniqueID>  (70) 
63

>  <SMILES>  (70) 
Cc1c(-c2cc[n-]c(=N)c2)n(CC(=O)Nc2cccc(OC(=O)N(C)C)c2F)c(=O)[n-]c1=O

>  <Energy>  (70) 
72.25835900195317

>  <Genealogy>  (70) 
Cc1c(-c2cc[n-]c(=N)c2)n(CC(=O)Nc2cccc(OC(=O)N(C)C)c2F)c(=O)[n-]c1=O (protonated)
Cc1c(-c2cc[n-]c(=N)c2)n(CC(=O)Nc2cccc(OC(=O)N(C)C)c2F)c(=O)[n-]c1=O (3D coordinates assigned)
Cc1c(-c2cc[n-]c(=N)c2)n(CC(=O)Nc2cccc(OC(=O)N(C)C)c2F)c(=O)[n-]c1=O (optimized conformer: 72.25835900195317 kcal/mol)

>  <smiles>  (70) 
Cc1c(-c2cc[nH]c(=N)c2)n(CC(=O)Nc2cccc(OC(=O)N(C)C)c2F)c(=O)[nH]c1=O

>  <score_type>  (70) 
oracle

>  <origin>  (70) 
adg

>  <m_score__min__energy>  (70) 
-11.58

>  <m_primary>  (70) 
energy

$$$$
70:0
     RDKit          3D

 52 54  0  0  0  0  0  0  0  0999 V2000
   57.8748   30.1691   43.0596 H   0  0  0  0  0  0  0  0  0  0  0  0
   58.0710   30.1640   44.1420 C   0  0  0  0  0  0  0  0  0  0  0  0
   57.5620   31.3090   44.9230 C   0  0  0  0  0  0  0  0  0  0  0  0
   56.6600   32.0290   44.4160 O   0  0  0  0  0  0  0  0  0  0  0  0
   58.1470   31.7030   46.2540 C   0  0  0  0  0  0  0  0  0  0  0  0
   57.3463   31.7227   47.0079 H   0  0  0  0  0  0  0  0  0  0  0  0
   58.9171   30.9681   46.5314 H   0  0  0  0  0  0  0  0  0  0  0  0
   58.7860   33.0650   46.1770 C   0  0  0  0  0  0  0  0  0  0  0  0
   59.5700   33.3150   45.2230 O   0  0  0  0  0  0  0  0  0  0  0  0
   58.6260   34.0820   47.2390 C   0  0  0  0  0  0  0  0  0  0  0  0
   57.5988   34.3418   47.5346 H   0  0  0  0  0  0  0  0  0  0  0  0
   59.6240   34.7150   47.8730 C   0  0  0  0  0  0  0  0  0  0  0  0
   59.5010   35.7918   48.0610 H   0  0  0  0  0  0  0  0  0  0  0  0
   60.8770   34.0820   48.3400 C   0  0  0  0  0  0  0  0  0  0  0  0
   61.9350   33.8610   47.4400 C   0  0  0  0  0  0  0  0  0  0  0  0
   61.8417   34.1916   46.3950 H   0  0  0  0  0  0  0  0  0  0  0  0
   63.1040   33.2240   47.8650 C   0  0  0  0  0  0  0  0  0  0  0  0
   63.9357   33.0746   47.1608 H   0  0  0  0  0  0  0  0  0  0  0  0
   63.2170   32.7770   49.1830 C   0  0  0  0  0  0  0  0  0  0  0  0
   64.6830   31.9720   49.7130 Cl  0  0  0  0  0  0  0  0  0  0  0  0
   62.1600   32.9640   50.0780 C   0  0  0  0  0  0  0  0  0  0  0  0
   62.2495   32.6037   51.1135 H   0  0  0  0  0  0  0  0  0  0  0  0
   60.9870   33.6080   49.6630 C   0  0  0  0  0  0  0  0  0  0  0  0
   59.6900   33.8270   50.8320 Cl  0  0  0  0  0  0  0  0  0  0  0  0
   58.7520   29.1170   44.6350 C   0  0  0  0  0  0  0  0  0  0  0  0
   59.8488   29.1513   44.5587 H   0  0  0  0  0  0  0  0  0  0  0  0
   58.1570   27.9210   45.2720 C   0  0  0  0  0  0  0  0  0  0  0  0
   58.9520   26.9180   45.8470 C   0  0  0  0  0  0  0  0  0  0  0  0
   60.0481   27.0070   45.8232 H   0  0  0  0  0  0  0  0  0  0  0  0
   58.3580   25.8080   46.4490 C   0  0  0  0  0  0  0  0  0  0  0  0
   58.9938   25.0184   46.8759 H   0  0  0  0  0  0  0  0  0  0  0  0
   56.9650   25.6840   46.5180 C   0  0  0  0  0  0  0  0  0  0  0  0
   56.4600   24.5260   47.1380 O   0  0  0  0  0  0  0  0  0  0  0  0
   56.1840   23.2680   46.5170 C   0  0  2  0  0  0  0  0  0  0  0  0
   55.3772   22.7471   47.0535 H   0  0  0  0  0  0  0  0  0  0  0  0
   57.3240   22.4180   46.5920 O   0  0  0  0  0  0  0  0  0  0  0  0
   58.2810   22.7660   45.6100 C   0  0  0  0  0  0  0  0  0  0  0  0
   59.2185   22.2274   45.8127 H   0  0  0  0  0  0  0  0  0  0  0  0
   58.4485   23.8525   45.6492 H   0  0  0  0  0  0  0  0  0  0  0  0
   57.7790   22.3940   44.2050 C   0  0  0  0  0  0  0  0  0  0  0  0
   58.1212   21.3776   43.9606 H   0  0  0  0  0  0  0  0  0  0  0  0
   58.1823   23.1254   43.4893 H   0  0  0  0  0  0  0  0  0  0  0  0
   56.2460   22.4370   44.1260 C   0  0  0  0  0  0  0  0  0  0  0  0
   55.8415   21.4550   44.4124 H   0  0  0  0  0  0  0  0  0  0  0  0
   55.9506   22.6842   43.0956 H   0  0  0  0  0  0  0  0  0  0  0  0
   55.6890   23.5040   45.0680 C   0  0  0  0  0  0  0  0  0  0  0  0
   54.5899   23.4627   45.0507 H   0  0  0  0  0  0  0  0  0  0  0  0
   56.0393   24.4908   44.7310 H   0  0  0  0  0  0  0  0  0  0  0  0
   56.1610   26.7130   45.9700 C   0  0  0  0  0  0  0  0  0  0  0  0
   54.7730   26.6580   46.0020 O   0  0  0  0  0  0  0  0  0  0  0  0
   56.7630   27.8240   45.3690 C   0  0  0  0  0  0  0  0  0  0  0  0
   56.1334   28.6317   44.9675 H   0  0  0  0  0  0  0  0  0  0  0  0
  1  2  1  0
  2  3  1  0
  3  4  2  0
  3  5  1  0
  5  6  1  0
  5  7  1  0
  5  8  1  0
  8  9  2  0
  8 10  1  0
 10 11  1  0
 10 12  2  0
 12 13  1  0
 12 14  1  0
 14 15  2  0
 15 16  1  0
 15 17  1  0
 17 18  1  0
 17 19  2  0
 19 20  1  0
 19 21  1  0
 21 22  1  0
 21 23  2  0
 23 24  1  0
  2 25  2  0
 25 26  1  0
 25 27  1  0
 27 28  2  0
 28 29  1  0
 28 30  1  0
 30 31  1  0
 30 32  2  0
 32 33  1  0
 33 34  1  0
 34 35  1  1
 34 36  1  0
 36 37  1  0
 37 38  1  0
 37 39  1  0
 37 40  1  0
 40 41  1  0
 40 42  1  0
 40 43  1  0
 43 44  1  0
 43 45  1  0
 43 46  1  0
 46 47  1  0
 46 48  1  0
 32 49  1  0
 49 50  1  0
 49 51  2  0
 51 52  1  0
 23 14  1  0
 51 27  1  0
 46 34  1  0
M  CHG  1  50  -1
M  END
>  <UniqueID>  (71) 
64

>  <SMILES>  (71) 
O=C(/C=C\c1ccc(O[C@H]2CCCCO2)c([O-])c1)CC(=O)/C=C\c1ccc(Cl)cc1Cl

>  <Energy>  (71) 
76.73990807373126

>  <Genealogy>  (71) 
O=C(C=Cc1ccc(OC2CCCCO2)c([O-])c1)CC(=O)C=Cc1ccc(Cl)cc1Cl (protonated)
O=C(C=Cc1ccc(O[C@H]2CCCCO2)c([O-])c1)CC(=O)C=Cc1ccc(Cl)cc1Cl (chirality)
O=C(/C=C\c1ccc(O[C@H]2CCCCO2)c([O-])c1)CC(=O)/C=C\c1ccc(Cl)cc1Cl (cis-trans isomerization)
O=C(/C=C\c1ccc(O[C@H]2CCCCO2)c([O-])c1)CC(=O)/C=C\c1ccc(Cl)cc1Cl (3D coordinates assigned)
O=C(/C=C\c1ccc(O[C@H]2CCCCO2)c([O-])c1)CC(=O)/C=C\c1ccc(Cl)cc1Cl (nonaromatic ring conformer: 76.73990807373126 kcal/mol)

>  <smiles>  (71) 
O=C(C=Cc1ccc(OC2CCCCO2)c(O)c1)CC(=O)C=Cc1ccc(Cl)cc1Cl

>  <score_type>  (71) 
oracle

>  <origin>  (71) 
adg

>  <m_score__min__energy>  (71) 
-13.619999999999999

>  <m_primary>  (71) 
energy

$$$$
71:0
     RDKit          3D

 48 50  0  0  0  0  0  0  0  0999 V2000
   59.4510   33.8500   50.9200 C   0  0  0  0  0  0  0  0  0  0  0  0
   59.5280   34.1900   49.5390 O   0  0  0  0  0  0  0  0  0  0  0  0
   60.5800   33.8220   48.6850 C   0  0  0  0  0  0  0  0  0  0  0  0
   61.8630   33.5180   49.1790 C   0  0  0  0  0  0  0  0  0  0  0  0
   62.8960   33.1770   48.3030 C   0  0  0  0  0  0  0  0  0  0  0  0
   62.6640   33.1370   46.9290 C   0  0  0  0  0  0  0  0  0  0  0  0
   61.3980   33.4370   46.4240 C   0  0  0  0  0  0  0  0  0  0  0  0
   60.3460   33.7730   47.2920 C   0  0  0  0  0  0  0  0  0  0  0  0
   59.0060   34.1610   46.7110 C   0  0  0  0  0  0  0  0  0  0  0  0
   57.8980   33.1820   47.1300 C   0  0  0  0  0  0  0  0  0  0  0  0
   58.3690   31.7800   47.0760 N   0  0  0  0  0  0  0  0  0  0  0  0
   58.5400   31.1420   45.8590 C   0  0  0  0  0  0  0  0  0  0  0  0
   58.0890   31.9290   44.2960 S   0  0  0  0  0  0  0  0  0  0  0  0
   56.4250   31.1800   44.2260 C   0  0  0  0  0  0  0  0  0  0  0  0
   56.5130   29.6920   44.3280 C   0  0  0  0  0  0  0  0  0  0  0  0
   55.5210   28.9660   45.0500 N   0  0  0  0  0  0  0  0  0  0  0  0
   57.4770   29.0800   43.7960 O   0  0  0  0  0  0  0  0  0  0  0  0
   59.0790   29.8920   45.8050 N   0  0  0  0  0  0  0  0  0  0  0  0
   59.4360   29.2690   46.9480 C   0  0  0  0  0  0  0  0  0  0  0  0
   60.1400   27.7560   47.0840 S   0  0  0  0  0  0  0  0  0  0  0  0
   60.2570   27.8140   48.7710 C   0  0  0  0  0  0  0  0  0  0  0  0
   60.8450   26.7180   49.6020 C   0  0  0  0  0  0  0  0  0  0  0  0
   59.7420   29.0340   49.2390 C   0  0  0  0  0  0  0  0  0  0  0  0
   59.7190   29.4320   50.6890 C   0  0  0  0  0  0  0  0  0  0  0  0
   59.2750   29.8500   48.1850 C   0  0  0  0  0  0  0  0  0  0  0  0
   58.7190   31.1340   48.2440 C   0  0  0  0  0  0  0  0  0  0  0  0
   58.5570   31.6980   49.3620 O   0  0  0  0  0  0  0  0  0  0  0  0
   59.6533   34.7432   51.5293 H   0  0  0  0  0  0  0  0  0  0  0  0
   58.4442   33.4705   51.1486 H   0  0  0  0  0  0  0  0  0  0  0  0
   60.1961   33.0737   51.1486 H   0  0  0  0  0  0  0  0  0  0  0  0
   62.0530   33.5493   50.2620 H   0  0  0  0  0  0  0  0  0  0  0  0
   63.8947   32.9395   48.6981 H   0  0  0  0  0  0  0  0  0  0  0  0
   63.4799   32.8686   46.2418 H   0  0  0  0  0  0  0  0  0  0  0  0
   61.2227   33.4101   45.3384 H   0  0  0  0  0  0  0  0  0  0  0  0
   58.7430   35.1690   47.0643 H   0  0  0  0  0  0  0  0  0  0  0  0
   59.0882   34.1357   45.6144 H   0  0  0  0  0  0  0  0  0  0  0  0
   57.5842   33.4150   48.1582 H   0  0  0  0  0  0  0  0  0  0  0  0
   57.0557   33.2919   46.4311 H   0  0  0  0  0  0  0  0  0  0  0  0
   55.8202   31.5644   45.0606 H   0  0  0  0  0  0  0  0  0  0  0  0
   55.9583   31.4425   43.2651 H   0  0  0  0  0  0  0  0  0  0  0  0
   54.5540   29.3450   45.1600 H   0  0  0  0  0  0  0  0  0  0  0  0
   59.2260   29.4160   44.8860 H   0  0  0  0  0  0  0  0  0  0  0  0
   60.7168   26.9570   50.6680 H   0  0  0  0  0  0  0  0  0  0  0  0
   60.3339   25.7709   49.3745 H   0  0  0  0  0  0  0  0  0  0  0  0
   61.9168   26.6201   49.3745 H   0  0  0  0  0  0  0  0  0  0  0  0
   59.7711   28.5307   51.3175 H   0  0  0  0  0  0  0  0  0  0  0  0
   60.5812   30.0800   50.9051 H   0  0  0  0  0  0  0  0  0  0  0  0
   58.7879   29.9764   50.9051 H   0  0  0  0  0  0  0  0  0  0  0  0
  1  2  1  0
  2  3  1  0
  3  4  2  0
  4  5  1  0
  5  6  2  0
  6  7  1  0
  7  8  2  0
  8  9  1  0
  9 10  1  0
 10 11  1  0
 11 12  1  0
 12 13  1  0
 13 14  1  0
 14 15  1  0
 15 16  1  0
 15 17  2  0
 12 18  2  0
 18 19  1  0
 19 20  1  0
 20 21  1  0
 21 22  1  0
 21 23  2  0
 23 24  1  0
 23 25  1  0
 25 26  1  0
 26 27  2  0
  8  3  1  0
 26 11  1  0
 25 19  2  0
  1 28  1  0
  1 29  1  0
  1 30  1  0
  4 31  1  0
  5 32  1  0
  6 33  1  0
  7 34  1  0
  9 35  1  0
  9 36  1  0
 10 37  1  0
 10 38  1  0
 14 39  1  0
 14 40  1  0
 16 41  1  0
 18 42  1  0
 22 43  1  0
 22 44  1  0
 22 45  1  0
 24 46  1  0
 24 47  1  0
 24 48  1  0
M  CHG  2  16  -1  18   1
M  END
>  <UniqueID>  (72) 
65

>  <SMILES>  (72) 
COc1ccccc1CCn1c(SCC([NH-])=O)[nH+]c2sc(C)c(C)c2c1=O

>  <Energy>  (72) 
74.21039293565278

>  <Genealogy>  (72) 
COc1ccccc1CCn1c(SCC([NH-])=O)[nH+]c2sc(C)c(C)c2c1=O (protonated)
COc1ccccc1CCn1c(SCC([NH-])=O)[nH+]c2sc(C)c(C)c2c1=O (3D coordinates assigned)
COc1ccccc1CCn1c(SCC([NH-])=O)[nH+]c2sc(C)c(C)c2c1=O (optimized conformer: 74.21039293565278 kcal/mol)

>  <smiles>  (72) 
COc1ccccc1CCn1c(SCC(N)=O)nc2sc(C)c(C)c2c1=O

>  <score_type>  (72) 
oracle

>  <origin>  (72) 
adg

>  <m_score__min__energy>  (72) 
-9.5099999999999998

>  <m_primary>  (72) 
energy

$$$$
72:0
     RDKit          3D

 34 35  0  0  0  0  0  0  0  0999 V2000
   64.7640   32.9830   49.0530 O   0  0  0  0  0  0  0  0  0  0  0  0
   63.8570   32.2670   48.6610 C   0  0  0  0  0  0  0  0  0  0  0  0
   63.4220   32.3310   47.2240 C   0  0  0  0  0  0  0  0  0  0  0  0
   62.5950   33.5900   46.9120 C   0  0  0  0  0  0  0  0  0  0  0  0
   61.8640   34.1440   48.1450 C   0  0  0  0  0  0  0  0  0  0  0  0
   60.5020   34.4610   47.8540 O   0  0  0  0  0  0  0  0  0  0  0  0
   59.6340   33.6880   47.0650 C   0  0  0  0  0  0  0  0  0  0  0  0
   59.0160   32.5140   47.5350 C   0  0  0  0  0  0  0  0  0  0  0  0
   58.1670   31.7810   46.7010 C   0  0  0  0  0  0  0  0  0  0  0  0
   57.9110   32.2140   45.3920 C   0  0  0  0  0  0  0  0  0  0  0  0
   57.0330   31.4020   44.4800 C   0  0  0  0  0  0  0  0  0  0  0  0
   57.3990   29.9530   44.5670 C   0  0  0  0  0  0  0  0  0  0  0  0
   58.9750   29.3480   44.5550 S   0  0  0  0  0  0  0  0  0  0  0  0
   58.4610   27.7640   44.7880 C   0  0  0  0  0  0  0  0  0  0  0  0
   59.2290   26.7700   44.8660 O   0  0  0  0  0  0  0  0  0  0  0  0
   57.1180   27.6730   44.8860 N   0  0  0  0  0  0  0  0  0  0  0  0
   56.5230   28.8890   44.7730 C   0  0  0  0  0  0  0  0  0  0  0  0
   55.1460   29.0440   44.8630 O   0  0  0  0  0  0  0  0  0  0  0  0
   58.5310   33.3810   44.9210 C   0  0  0  0  0  0  0  0  0  0  0  0
   59.3800   34.1140   45.7560 C   0  0  0  0  0  0  0  0  0  0  0  0
   63.3591   31.5765   49.3577 H   0  0  0  0  0  0  0  0  0  0  0  0
   64.3170   32.3300   46.5846 H   0  0  0  0  0  0  0  0  0  0  0  0
   62.7837   31.4564   47.0298 H   0  0  0  0  0  0  0  0  0  0  0  0
   63.2706   34.3673   46.5255 H   0  0  0  0  0  0  0  0  0  0  0  0
   61.8305   33.3088   46.1728 H   0  0  0  0  0  0  0  0  0  0  0  0
   61.8912   33.3890   48.9446 H   0  0  0  0  0  0  0  0  0  0  0  0
   62.3717   35.0683   48.4579 H   0  0  0  0  0  0  0  0  0  0  0  0
   59.2021   32.1717   48.5637 H   0  0  0  0  0  0  0  0  0  0  0  0
   57.6969   30.8590   47.0737 H   0  0  0  0  0  0  0  0  0  0  0  0
   55.9820   31.5300   44.7783 H   0  0  0  0  0  0  0  0  0  0  0  0
   57.1737   31.7467   43.4449 H   0  0  0  0  0  0  0  0  0  0  0  0
   56.5990   26.7800   45.0400 H   0  0  0  0  0  0  0  0  0  0  0  0
   58.3485   33.7207   43.8908 H   0  0  0  0  0  0  0  0  0  0  0  0
   59.8526   35.0337   45.3808 H   0  0  0  0  0  0  0  0  0  0  0  0
  1  2  2  0
  2  3  1  0
  3  4  1  0
  4  5  1  0
  5  6  1  0
  6  7  1  0
  7  8  2  0
  8  9  1  0
  9 10  2  0
 10 11  1  0
 11 12  1  0
 12 13  1  0
 13 14  1  0
 14 15  2  0
 14 16  1  0
 16 17  1  0
 17 18  1  0
 10 19  1  0
 19 20  2  0
 20  7  1  0
 17 12  2  0
  2 21  1  0
  3 22  1  0
  3 23  1  0
  4 24  1  0
  4 25  1  0
  5 26  1  0
  5 27  1  0
  8 28  1  0
  9 29  1  0
 11 30  1  0
 11 31  1  0
 16 32  1  0
 19 33  1  0
 20 34  1  0
M  CHG  1  18  -1
M  END
>  <UniqueID>  (73) 
66

>  <SMILES>  (73) 
O=CCCCOc1ccc(Cc2sc(=O)[nH]c2[O-])cc1

>  <Energy>  (73) 
58.767449128945366

>  <Genealogy>  (73) 
O=CCCCOc1ccc(Cc2sc(=O)[nH]c2[O-])cc1 (protonated)
O=CCCCOc1ccc(Cc2sc(=O)[nH]c2[O-])cc1 (3D coordinates assigned)
O=CCCCOc1ccc(Cc2sc(=O)[nH]c2[O-])cc1 (optimized conformer: 58.767449128945366 kcal/mol)

>  <smiles>  (73) 
O=CCCCOc1ccc(Cc2sc(=O)[nH]c2O)cc1

>  <score_type>  (73) 
oracle

>  <origin>  (73) 
adg

>  <m_score__min__energy>  (73) 
-9.8399999999999999

>  <m_primary>  (73) 
energy

$$$$
73:0
     RDKit          3D

 50 53  0  0  0  0  0  0  0  0999 V2000
   54.8860   26.2110   45.9460 N   0  0  0  0  0  0  0  0  0  0  0  0
   56.1870   25.7230   45.6240 C   0  0  0  0  0  0  0  0  0  0  0  0
   56.2960   24.7200   44.8680 O   0  0  0  0  0  0  0  0  0  0  0  0
   57.3920   26.4180   46.1380 C   0  0  0  0  0  0  0  0  0  0  0  0
   57.9800   25.9640   47.3290 C   0  0  0  0  0  0  0  0  0  0  0  0
   59.0330   26.6230   47.8770 N   0  0  0  0  0  0  0  0  0  0  0  0
   59.5760   27.7230   47.3000 C   0  0  0  0  0  0  0  0  0  0  0  0
   60.6410   28.3670   47.9490 O   0  0  0  0  0  0  0  0  0  0  0  0
   60.6380   29.6960   48.3950 C   0  0  0  0  0  0  0  0  0  0  0  0
   59.9900   30.0780   49.5830 C   0  0  0  0  0  0  0  0  0  0  0  0
   60.0050   31.4140   49.9960 C   0  0  0  0  0  0  0  0  0  0  0  0
   60.6500   32.3840   49.2170 C   0  0  0  0  0  0  0  0  0  0  0  0
   60.6680   34.0710   49.7190 S   0  0  0  0  0  0  0  0  0  0  0  0
   60.2330   34.1590   51.1550 O   0  0  0  0  0  0  0  0  0  0  0  0
   59.7310   34.8890   48.8730 O   0  0  0  0  0  0  0  0  0  0  0  0
   62.2710   34.7140   49.5680 N   0  0  0  0  0  0  0  0  0  0  0  0
   63.3370   34.0210   49.8220 C   0  0  0  0  0  0  0  0  0  0  0  0
   64.0330   33.3340   48.8890 N   0  0  0  0  0  0  0  0  0  0  0  0
   65.1010   32.6970   49.4380 C   0  0  0  0  0  0  0  0  0  0  0  0
   65.2560   32.8780   50.8090 C   0  0  0  0  0  0  0  0  0  0  0  0
   64.0100   33.8720   51.3520 S   0  0  0  0  0  0  0  0  0  0  0  0
   61.2750   32.0090   48.0210 C   0  0  0  0  0  0  0  0  0  0  0  0
   61.2610   30.6730   47.6100 C   0  0  0  0  0  0  0  0  0  0  0  0
   59.0310   28.2110   46.1050 C   0  0  0  0  0  0  0  0  0  0  0  0
   57.9400   27.5610   45.5070 C   0  0  0  0  0  0  0  0  0  0  0  0
   57.4340   28.0290   44.2440 N   0  0  0  0  0  0  0  0  0  0  0  0
   56.4010   29.4170   44.1010 S   0  0  0  0  0  0  0  0  0  0  0  0
   55.2200   29.2570   45.0150 O   0  0  0  0  0  0  0  0  0  0  0  0
   55.9150   29.5250   42.6830 O   0  0  0  0  0  0  0  0  0  0  0  0
   57.2830   30.8690   44.5690 C   0  0  0  0  0  0  0  0  0  0  0  0
   57.7980   30.9790   45.8680 C   0  0  0  0  0  0  0  0  0  0  0  0
   58.5330   32.1080   46.2400 C   0  0  0  0  0  0  0  0  0  0  0  0
   58.7600   33.1330   45.3150 C   0  0  0  0  0  0  0  0  0  0  0  0
   59.6880   34.5460   45.7810 Cl  0  0  0  0  0  0  0  0  0  0  0  0
   58.2470   33.0270   44.0170 C   0  0  0  0  0  0  0  0  0  0  0  0
   57.5110   31.8980   43.6440 C   0  0  0  0  0  0  0  0  0  0  0  0
   54.7620   27.0970   46.4850 H   0  0  0  0  0  0  0  0  0  0  0  0
   57.5835   25.0650   47.8235 H   0  0  0  0  0  0  0  0  0  0  0  0
   59.4691   29.3229   50.1900 H   0  0  0  0  0  0  0  0  0  0  0  0
   59.5095   31.7041   50.9343 H   0  0  0  0  0  0  0  0  0  0  0  0
   65.7923   32.0832   48.8419 H   0  0  0  0  0  0  0  0  0  0  0  0
   66.0544   32.4464   51.4305 H   0  0  0  0  0  0  0  0  0  0  0  0
   61.7781   32.7677   47.4036 H   0  0  0  0  0  0  0  0  0  0  0  0
   61.7429   30.3876   46.6632 H   0  0  0  0  0  0  0  0  0  0  0  0
   59.4600   29.1074   45.6334 H   0  0  0  0  0  0  0  0  0  0  0  0
   57.6750   27.5200   43.3660 H   0  0  0  0  0  0  0  0  0  0  0  0
   57.6231   30.1741   46.5970 H   0  0  0  0  0  0  0  0  0  0  0  0
   58.9335   32.1909   47.2611 H   0  0  0  0  0  0  0  0  0  0  0  0
   58.4231   33.8329   43.2893 H   0  0  0  0  0  0  0  0  0  0  0  0
   57.1101   31.8169   42.6229 H   0  0  0  0  0  0  0  0  0  0  0  0
  1  2  1  0
  2  3  2  0
  2  4  1  0
  4  5  2  0
  5  6  1  0
  6  7  2  0
  7  8  1  0
  8  9  1  0
  9 10  2  0
 10 11  1  0
 11 12  2  0
 12 13  1  0
 13 14  2  0
 13 15  2  0
 13 16  1  0
 16 17  2  3
 17 18  1  0
 18 19  1  0
 19 20  2  0
 20 21  1  0
 12 22  1  0
 22 23  2  0
  7 24  1  0
 24 25  2  0
 25 26  1  0
 26 27  1  0
 27 28  2  0
 27 29  2  0
 27 30  1  0
 30 31  2  0
 31 32  1  0
 32 33  2  0
 33 34  1  0
 33 35  1  0
 35 36  2  0
 25  4  1  0
 36 30  1  0
 23  9  1  0
 21 17  1  0
  1 37  1  0
  5 38  1  0
 10 39  1  0
 11 40  1  0
 19 41  1  0
 20 42  1  0
 22 43  1  0
 23 44  1  0
 24 45  1  0
 26 46  1  0
 31 47  1  0
 32 48  1  0
 35 49  1  0
 36 50  1  0
M  CHG  2   1  -1  18  -1
M  END
>  <UniqueID>  (74) 
67

>  <SMILES>  (74) 
[NH-]C(=O)c1cnc(Oc2ccc(S(=O)(=O)N=c3[n-]ccs3)cc2)cc1NS(=O)(=O)c1ccc(Cl)cc1

>  <Energy>  (74) 
101.27738536801846

>  <Genealogy>  (74) 
[NH-]C(=O)c1cnc(Oc2ccc(S(=O)(=O)N=c3[n-]ccs3)cc2)cc1NS(=O)(=O)c1ccc(Cl)cc1 (protonated)
[NH-]C(=O)c1cnc(Oc2ccc(S(=O)(=O)N=c3[n-]ccs3)cc2)cc1NS(=O)(=O)c1ccc(Cl)cc1 (3D coordinates assigned)
[NH-]C(=O)c1cnc(Oc2ccc(S(=O)(=O)N=c3[n-]ccs3)cc2)cc1NS(=O)(=O)c1ccc(Cl)cc1 (optimized conformer: 101.27738536801846 kcal/mol)

>  <smiles>  (74) 
NC(=O)c1cnc(Oc2ccc(S(=O)(=O)N=c3[nH]ccs3)cc2)cc1NS(=O)(=O)c1ccc(Cl)cc1

>  <score_type>  (74) 
oracle

>  <origin>  (74) 
adg

>  <m_score__min__energy>  (74) 
-14.369999999999999

>  <m_primary>  (74) 
energy

$$$$
74:0
     RDKit          3D

 43 45  0  0  0  0  0  0  0  0999 V2000
   56.0680   30.8910   44.6060 O   0  0  0  0  0  0  0  0  0  0  0  0
   56.8840   30.0020   44.9730 C   0  0  0  0  0  0  0  0  0  0  0  0
   56.7050   28.5930   44.4950 C   0  0  0  0  0  0  0  0  0  0  0  0
   57.0400   27.6410   45.5990 C   0  0  0  0  0  0  0  0  0  0  0  0
   58.2880   27.4060   46.0440 N   0  0  0  0  0  0  0  0  0  0  0  0
   58.1140   26.4190   46.9540 C   0  0  0  0  0  0  0  0  0  0  0  0
   59.0710   25.9190   47.6030 O   0  0  0  0  0  0  0  0  0  0  0  0
   56.8380   26.0040   47.1020 N   0  0  0  0  0  0  0  0  0  0  0  0
   56.1720   26.7810   46.2300 C   0  0  0  0  0  0  0  0  0  0  0  0
   54.8040   26.6820   45.9980 O   0  0  0  0  0  0  0  0  0  0  0  0
   57.9970   30.3390   45.8150 N   0  0  0  0  0  0  0  0  0  0  0  0
   58.4330   31.6920   46.0350 C   0  0  0  0  0  0  0  0  0  0  0  0
   57.5860   32.7640   45.7010 C   0  0  0  0  0  0  0  0  0  0  0  0
   58.0080   34.0840   45.8690 C   0  0  0  0  0  0  0  0  0  0  0  0
   59.2810   34.3500   46.3710 C   0  0  0  0  0  0  0  0  0  0  0  0
   60.1370   33.2970   46.7040 C   0  0  0  0  0  0  0  0  0  0  0  0
   59.7290   31.9610   46.5340 C   0  0  0  0  0  0  0  0  0  0  0  0
   60.6670   30.8450   46.9430 C   0  0  0  0  0  0  0  0  0  0  0  0
   61.2270   31.0390   48.3360 C   0  0  0  0  0  0  0  0  0  0  0  0
   60.5860   30.5840   49.3270 O   0  0  0  0  0  0  0  0  0  0  0  0
   62.4570   31.7720   48.5560 N   0  0  0  0  0  0  0  0  0  0  0  0
   63.1280   31.6670   49.8620 C   0  0  0  0  0  0  0  0  0  0  0  0
   64.0300   32.8800   50.1050 C   0  0  0  0  0  0  0  0  0  0  0  0
   64.8970   33.0870   49.0060 O   0  0  0  0  0  0  0  0  0  0  0  0
   64.1360   33.4560   47.8750 C   0  0  0  0  0  0  0  0  0  0  0  0
   63.2280   32.3050   47.4230 C   0  0  0  0  0  0  0  0  0  0  0  0
   55.6603   28.4415   44.1857 H   0  0  0  0  0  0  0  0  0  0  0  0
   57.3729   28.4101   43.6403 H   0  0  0  0  0  0  0  0  0  0  0  0
   58.5390   29.5610   46.2480 H   0  0  0  0  0  0  0  0  0  0  0  0
   56.5808   32.5602   45.3034 H   0  0  0  0  0  0  0  0  0  0  0  0
   57.3361   34.9141   45.6053 H   0  0  0  0  0  0  0  0  0  0  0  0
   59.6121   35.3904   46.5052 H   0  0  0  0  0  0  0  0  0  0  0  0
   61.1389   33.5144   47.1027 H   0  0  0  0  0  0  0  0  0  0  0  0
   60.1165   29.8931   46.9136 H   0  0  0  0  0  0  0  0  0  0  0  0
   61.5130   30.8452   46.2399 H   0  0  0  0  0  0  0  0  0  0  0  0
   62.3680   31.6172   50.6557 H   0  0  0  0  0  0  0  0  0  0  0  0
   63.7474   30.7580   49.8697 H   0  0  0  0  0  0  0  0  0  0  0  0
   63.4037   33.7735   50.2441 H   0  0  0  0  0  0  0  0  0  0  0  0
   64.6365   32.6952   51.0039 H   0  0  0  0  0  0  0  0  0  0  0  0
   63.5135   34.3266   48.1289 H   0  0  0  0  0  0  0  0  0  0  0  0
   64.8256   33.7012   47.0538 H   0  0  0  0  0  0  0  0  0  0  0  0
   62.5322   32.6747   46.6554 H   0  0  0  0  0  0  0  0  0  0  0  0
   63.8564   31.4999   47.0144 H   0  0  0  0  0  0  0  0  0  0  0  0
  1  2  2  0
  2  3  1  0
  3  4  1  0
  4  5  1  0
  5  6  1  0
  6  7  2  0
  6  8  1  0
  8  9  1  0
  9 10  1  0
  2 11  1  0
 11 12  1  0
 12 13  2  0
 13 14  1  0
 14 15  2  0
 15 16  1  0
 16 17  2  0
 17 18  1  0
 18 19  1  0
 19 20  2  0
 19 21  1  0
 21 22  1  0
 22 23  1  0
 23 24  1  0
 24 25  1  0
 25 26  1  0
  9  4  2  0
 17 12  1  0
 26 21  1  0
  3 27  1  0
  3 28  1  0
 11 29  1  0
 13 30  1  0
 14 31  1  0
 15 32  1  0
 16 33  1  0
 18 34  1  0
 18 35  1  0
 22 36  1  0
 22 37  1  0
 23 38  1  0
 23 39  1  0
 25 40  1  0
 25 41  1  0
 26 42  1  0
 26 43  1  0
M  CHG  3   5  -1   8  -1  10  -1
M  END
>  <UniqueID>  (75) 
68

>  <SMILES>  (75) 
O=C(Cc1[n-]c(=O)[n-]c1[O-])Nc1ccccc1CC(=O)N1CCOCC1

>  <Energy>  (75) 
78.0034123680597

>  <Genealogy>  (75) 
O=C(Cc1[n-]c(=O)[n-]c1[O-])Nc1ccccc1CC(=O)N1CCOCC1 (protonated)
O=C(Cc1[n-]c(=O)[n-]c1[O-])Nc1ccccc1CC(=O)N1CCOCC1 (3D coordinates assigned)
O=C(Cc1[n-]c(=O)[n-]c1[O-])Nc1ccccc1CC(=O)N1CCOCC1 (nonaromatic ring conformer: 78.0034123680597 kcal/mol)

>  <smiles>  (75) 
O=C(Cc1[nH]c(=O)[nH]c1O)Nc1ccccc1CC(=O)N1CCOCC1

>  <score_type>  (75) 
oracle

>  <origin>  (75) 
adg

>  <m_score__min__energy>  (75) 
-15.93

>  <m_primary>  (75) 
energy

$$$$
75:0
     RDKit          3D

 57 60  0  0  0  0  0  0  0  0999 V2000
   57.1911   21.8784   45.5675 H   0  0  0  0  0  0  0  0  0  0  0  0
   56.5960   22.7960   45.6850 C   0  0  0  0  0  0  0  0  0  0  0  0
   57.1660   23.9120   46.2110 N   0  0  0  0  0  0  0  0  0  0  0  0
   56.4800   25.0790   46.3800 C   0  0  0  0  0  0  0  0  0  0  0  0
   57.1250   26.0860   46.9040 N   0  0  0  0  0  0  0  0  0  0  0  0
   58.2810   26.7770   46.4070 C   0  0  0  0  0  0  0  0  0  0  0  0
   59.3260   26.1220   46.1370 O   0  0  0  0  0  0  0  0  0  0  0  0
   58.2120   28.2220   46.0530 C   0  0  0  0  0  0  0  0  0  0  0  0
   57.4040   28.6080   44.9680 C   0  0  0  0  0  0  0  0  0  0  0  0
   56.8476   27.8431   44.4064 H   0  0  0  0  0  0  0  0  0  0  0  0
   57.3020   29.9120   44.6050 N   0  0  0  0  0  0  0  0  0  0  0  0
   57.9570   30.9050   45.2560 C   0  0  0  0  0  0  0  0  0  0  0  0
   57.8080   32.1260   44.8300 N   0  0  0  0  0  0  0  0  0  0  0  0
   57.8240   33.5750   45.7910 S   0  0  0  0  0  0  0  0  0  0  0  0
   57.7340   34.7730   44.8860 O   0  0  0  0  0  0  0  0  0  0  0  0
   56.6320   33.5690   46.7040 O   0  0  0  0  0  0  0  0  0  0  0  0
   59.2870   33.6340   46.7680 C   0  0  0  0  0  0  0  0  0  0  0  0
   60.5320   33.7750   46.1520 C   0  0  0  0  0  0  0  0  0  0  0  0
   60.5918   33.8750   45.0582 H   0  0  0  0  0  0  0  0  0  0  0  0
   61.7030   33.7900   46.9150 C   0  0  0  0  0  0  0  0  0  0  0  0
   62.6745   33.9056   46.4122 H   0  0  0  0  0  0  0  0  0  0  0  0
   61.6600   33.6590   48.3240 C   0  0  0  0  0  0  0  0  0  0  0  0
   62.8840   33.6500   49.1260 N   0  0  0  0  0  0  0  0  0  0  0  0
   64.0750   32.9420   48.6050 C   0  0  0  0  0  0  0  0  0  0  0  0
   63.8286   31.8731   48.5232 H   0  0  0  0  0  0  0  0  0  0  0  0
   64.3133   33.4088   47.6379 H   0  0  0  0  0  0  0  0  0  0  0  0
   65.3350   33.0760   49.4700 C   0  0  0  0  0  0  0  0  0  0  0  0
   65.9965   32.2228   49.2595 H   0  0  0  0  0  0  0  0  0  0  0  0
   65.8074   34.0361   49.2150 H   0  0  0  0  0  0  0  0  0  0  0  0
   65.0460   33.0990   50.9080 N   0  0  0  0  0  0  0  0  0  0  0  0
   64.4960   31.8270   51.4040 C   0  0  0  0  0  0  0  0  0  0  0  0
   64.4977   31.8309   52.5040 H   0  0  0  0  0  0  0  0  0  0  0  0
   63.4653   31.7062   51.0393 H   0  0  0  0  0  0  0  0  0  0  0  0
   65.1140   30.9933   51.0393 H   0  0  0  0  0  0  0  0  0  0  0  0
   64.1970   34.2510   51.2220 C   0  0  0  0  0  0  0  0  0  0  0  0
   64.0057   34.2588   52.3052 H   0  0  0  0  0  0  0  0  0  0  0  0
   64.7339   35.1517   50.8894 H   0  0  0  0  0  0  0  0  0  0  0  0
   62.8480   34.2290   50.4890 C   0  0  0  0  0  0  0  0  0  0  0  0
   62.1421   33.6387   51.0917 H   0  0  0  0  0  0  0  0  0  0  0  0
   62.5474   35.2802   50.3680 H   0  0  0  0  0  0  0  0  0  0  0  0
   60.3840   33.5400   48.9290 C   0  0  0  0  0  0  0  0  0  0  0  0
   60.3098   33.4597   50.0236 H   0  0  0  0  0  0  0  0  0  0  0  0
   59.2180   33.5230   48.1580 C   0  0  0  0  0  0  0  0  0  0  0  0
   58.2394   33.4215   48.6499 H   0  0  0  0  0  0  0  0  0  0  0  0
   58.7720   30.5770   46.3530 C   0  0  0  0  0  0  0  0  0  0  0  0
   59.2916   31.3730   46.9065 H   0  0  0  0  0  0  0  0  0  0  0  0
   58.9260   29.2360   46.7460 C   0  0  0  0  0  0  0  0  0  0  0  0
   59.8610   28.9290   47.8910 C   0  0  0  0  0  0  0  0  0  0  0  0
   59.3408   29.0998   48.8451 H   0  0  0  0  0  0  0  0  0  0  0  0
   60.1815   27.8784   47.8311 H   0  0  0  0  0  0  0  0  0  0  0  0
   60.7419   29.5851   47.8311 H   0  0  0  0  0  0  0  0  0  0  0  0
   55.1280   25.1450   45.9430 C   0  0  0  0  0  0  0  0  0  0  0  0
   54.3900   26.3260   45.9600 O   0  0  0  0  0  0  0  0  0  0  0  0
   54.5250   23.9940   45.4220 C   0  0  0  0  0  0  0  0  0  0  0  0
   53.4698   24.0207   45.1123 H   0  0  0  0  0  0  0  0  0  0  0  0
   55.2570   22.8130   45.2940 C   0  0  0  0  0  0  0  0  0  0  0  0
   54.7838   21.9061   44.8895 H   0  0  0  0  0  0  0  0  0  0  0  0
  1  2  1  0
  2  3  1  0
  3  4  1  0
  4  5  2  0
  5  6  1  0
  6  7  2  0
  6  8  1  0
  8  9  2  0
  9 10  1  0
  9 11  1  0
 11 12  1  0
 12 13  2  3
 13 14  1  0
 14 15  2  0
 14 16  2  0
 14 17  1  0
 17 18  2  0
 18 19  1  0
 18 20  1  0
 20 21  1  0
 20 22  2  0
 22 23  1  0
 23 24  1  0
 24 25  1  0
 24 26  1  0
 24 27  1  0
 27 28  1  0
 27 29  1  0
 27 30  1  0
 30 31  1  0
 31 32  1  0
 31 33  1  0
 31 34  1  0
 30 35  1  0
 35 36  1  0
 35 37  1  0
 35 38  1  0
 38 39  1  0
 38 40  1  0
 22 41  1  0
 41 42  1  0
 41 43  2  0
 43 44  1  0
 12 45  1  0
 45 46  1  0
 45 47  2  0
 47 48  1  0
 48 49  1  0
 48 50  1  0
 48 51  1  0
  4 52  1  0
 52 53  1  0
 52 54  2  0
 54 55  1  0
 54 56  1  0
 56 57  1  0
 56  2  2  0
 47  8  1  0
 43 17  1  0
 38 23  1  0
M  CHG  3   3  -1  11  -1  53  -1
M  END
>  <UniqueID>  (76) 
69

>  <SMILES>  (76) 
Cc1cc(=NS(=O)(=O)c2ccc(N3CCN(C)CC3)cc2)[n-]cc1C(=O)/N=c1/[n-]cccc1[O-]

>  <Energy>  (76) 
94.52412584180512

>  <Genealogy>  (76) 
Cc1cc(=NS(=O)(=O)c2ccc(N3CCN(C)CC3)cc2)[n-]cc1C(=O)N=c1[n-]cccc1[O-] (protonated)
Cc1cc(=NS(=O)(=O)c2ccc(N3CCN(C)CC3)cc2)[n-]cc1C(=O)/N=c1/[n-]cccc1[O-] (cis-trans isomerization)
Cc1cc(=NS(=O)(=O)c2ccc(N3CCN(C)CC3)cc2)[n-]cc1C(=O)/N=c1/[n-]cccc1[O-] (3D coordinates assigned)
Cc1cc(=NS(=O)(=O)c2ccc(N3CCN(C)CC3)cc2)[n-]cc1C(=O)/N=c1/[n-]cccc1[O-] (nonaromatic ring conformer: 94.52412584180512 kcal/mol)

>  <smiles>  (76) 
Cc1cc(=NS(=O)(=O)c2ccc(N3CCN(C)CC3)cc2)[nH]cc1C(=O)N=c1[nH]cccc1O

>  <score_type>  (76) 
oracle

>  <origin>  (76) 
adg

>  <m_score__min__energy>  (76) 
-16.190000000000001

>  <m_primary>  (76) 
energy

$$$$
76:0
     RDKit          3D

 34 36  0  0  0  0  0  0  0  0999 V2000
   56.1643   30.9251   44.4321 H   0  0  0  0  0  0  0  0  0  0  0  0
   56.4100   29.8550   44.5000 C   0  0  0  0  0  0  0  0  0  0  0  0
   55.6834   29.1014   44.1622 H   0  0  0  0  0  0  0  0  0  0  0  0
   57.5960   29.4690   44.9950 C   0  0  0  0  0  0  0  0  0  0  0  0
   58.0670   28.1540   45.1510 C   0  0  0  0  0  0  0  0  0  0  0  0
   57.5690   26.9780   44.7250 C   0  0  0  0  0  0  0  0  0  0  0  0
   57.5186   26.8177   43.6379 H   0  0  0  0  0  0  0  0  0  0  0  0
   57.0860   25.8880   45.5890 C   0  0  0  0  0  0  0  0  0  0  0  0
   55.8560   25.8210   46.2010 C   0  0  0  0  0  0  0  0  0  0  0  0
   54.8050   26.7080   46.0080 O   0  0  0  0  0  0  0  0  0  0  0  0
   55.8010   24.7660   47.0370 N   0  0  0  0  0  0  0  0  0  0  0  0
   57.0340   24.2290   46.9230 C   0  0  0  0  0  0  0  0  0  0  0  0
   57.4000   23.2130   47.5690 O   0  0  0  0  0  0  0  0  0  0  0  0
   57.8440   24.8870   46.0690 N   0  0  0  0  0  0  0  0  0  0  0  0
   58.8470   24.6840   45.8600 H   0  0  0  0  0  0  0  0  0  0  0  0
   59.2530   28.2500   45.8630 C   0  0  0  0  0  0  0  0  0  0  0  0
   59.8825   27.4141   46.2021 H   0  0  0  0  0  0  0  0  0  0  0  0
   59.4930   29.5920   46.0650 C   0  0  0  0  0  0  0  0  0  0  0  0
   60.6930   30.1510   46.7680 C   0  0  0  0  0  0  0  0  0  0  0  0
   60.5456   30.0823   47.8559 H   0  0  0  0  0  0  0  0  0  0  0  0
   61.5863   29.5763   46.4820 H   0  0  0  0  0  0  0  0  0  0  0  0
   60.8278   31.2046   46.4820 H   0  0  0  0  0  0  0  0  0  0  0  0
   58.4970   30.3340   45.5310 N   0  0  0  0  0  0  0  0  0  0  0  0
   58.3970   31.7660   45.6070 C   0  0  0  0  0  0  0  0  0  0  0  0
   58.3940   32.5390   44.4350 C   0  0  0  0  0  0  0  0  0  0  0  0
   58.4823   32.0490   43.4541 H   0  0  0  0  0  0  0  0  0  0  0  0
   58.2790   33.9310   44.5120 C   0  0  0  0  0  0  0  0  0  0  0  0
   58.2814   34.5345   43.5923 H   0  0  0  0  0  0  0  0  0  0  0  0
   58.1610   34.5560   45.7580 C   0  0  0  0  0  0  0  0  0  0  0  0
   58.0721   35.6508   45.8178 H   0  0  0  0  0  0  0  0  0  0  0  0
   58.1560   33.7890   46.9280 C   0  0  0  0  0  0  0  0  0  0  0  0
   58.0608   34.2808   47.9073 H   0  0  0  0  0  0  0  0  0  0  0  0
   58.2720   32.3970   46.8530 C   0  0  0  0  0  0  0  0  0  0  0  0
   58.2651   31.7957   47.7741 H   0  0  0  0  0  0  0  0  0  0  0  0
  1  2  1  0
  2  3  1  0
  2  4  2  0
  4  5  1  0
  5  6  2  0
  6  7  1  0
  6  8  1  0
  8  9  2  0
  9 10  1  0
  9 11  1  0
 11 12  1  0
 12 13  2  0
 12 14  1  0
 14 15  1  0
  5 16  1  0
 16 17  1  0
 16 18  2  0
 18 19  1  0
 19 20  1  0
 19 21  1  0
 19 22  1  0
 18 23  1  0
 23 24  1  0
 24 25  2  0
 25 26  1  0
 25 27  1  0
 27 28  1  0
 27 29  2  0
 29 30  1  0
 29 31  1  0
 31 32  1  0
 31 33  2  0
 33 34  1  0
 23  4  1  0
 33 24  1  0
 14  8  1  0
M  CHG  2  10  -1  11  -1
M  END
>  <UniqueID>  (77) 
70

>  <SMILES>  (77) 
C=c1/c(=C\c2[nH]c(=O)[n-]c2[O-])cc(C)n1-c1ccccc1

>  <Energy>  (77) 
112.92108319440884

>  <Genealogy>  (77) 
C=c1c(=Cc2[nH]c(=O)[n-]c2[O-])cc(C)n1-c1ccccc1 (protonated)
C=c1/c(=C\c2[nH]c(=O)[n-]c2[O-])cc(C)n1-c1ccccc1 (cis-trans isomerization)
C=c1/c(=C\c2[nH]c(=O)[n-]c2[O-])cc(C)n1-c1ccccc1 (3D coordinates assigned)
C=c1/c(=C\c2[nH]c(=O)[n-]c2[O-])cc(C)n1-c1ccccc1 (optimized conformer: 112.92108319440884 kcal/mol)

>  <smiles>  (77) 
C=c1c(=Cc2[nH]c(=O)[nH]c2O)cc(C)n1-c1ccccc1

>  <score_type>  (77) 
oracle

>  <origin>  (77) 
adg

>  <m_score__min__energy>  (77) 
-13.48

>  <m_primary>  (77) 
energy

$$$$
77:0
     RDKit          3D

 62 66  0  0  0  0  0  0  0  0999 V2000
   59.1737   27.4407   45.7241 H   0  0  0  0  0  0  0  0  0  0  0  0
   58.1030   27.2050   45.6340 C   0  0  0  0  0  0  0  0  0  0  0  0
   57.7561   26.1681   45.7541 H   0  0  0  0  0  0  0  0  0  0  0  0
   57.2250   28.1770   45.3790 C   0  0  0  0  0  0  0  0  0  0  0  0
   55.9020   27.9290   45.2610 N   0  0  0  0  0  0  0  0  0  0  0  0
   55.3320   29.0310   44.8710 O   0  0  0  0  0  0  0  0  0  0  0  0
   56.2170   29.9830   44.7270 C   0  0  0  0  0  0  0  0  0  0  0  0
   55.9320   31.1510   44.3560 O   0  0  0  0  0  0  0  0  0  0  0  0
   57.4720   29.5180   45.0650 C   0  0  0  0  0  0  0  0  0  0  0  0
   58.5990   30.2570   45.0700 C   0  0  0  0  0  0  0  0  0  0  0  0
   59.5050   29.7882   44.6586 H   0  0  0  0  0  0  0  0  0  0  0  0
   58.7300   31.6360   45.5760 C   0  0  0  0  0  0  0  0  0  0  0  0
   58.4580   32.7090   44.7120 C   0  0  0  0  0  0  0  0  0  0  0  0
   58.2645   32.5180   43.6461 H   0  0  0  0  0  0  0  0  0  0  0  0
   58.4320   34.0160   45.1990 C   0  0  0  0  0  0  0  0  0  0  0  0
   58.2397   34.8530   44.5116 H   0  0  0  0  0  0  0  0  0  0  0  0
   58.6490   34.2660   46.5550 C   0  0  0  0  0  0  0  0  0  0  0  0
   58.6228   35.2989   46.9323 H   0  0  0  0  0  0  0  0  0  0  0  0
   58.8990   33.2120   47.4340 C   0  0  0  0  0  0  0  0  0  0  0  0
   59.0630   33.4940   48.7950 O   0  0  0  0  0  0  0  0  0  0  0  0
   60.3010   33.5850   49.4410 C   0  0  0  0  0  0  0  0  0  0  0  0
   61.3470   34.2590   48.8050 C   0  0  0  0  0  0  0  0  0  0  0  0
   61.1841   34.7146   47.8171 H   0  0  0  0  0  0  0  0  0  0  0  0
   62.5990   34.3570   49.4180 C   0  0  0  0  0  0  0  0  0  0  0  0
   63.4096   34.9106   48.9216 H   0  0  0  0  0  0  0  0  0  0  0  0
   62.8270   33.7530   50.6630 C   0  0  0  0  0  0  0  0  0  0  0  0
   64.1650   33.8220   51.2890 C   0  0  0  0  0  0  0  0  0  0  0  0
   64.6400   34.9460   51.6040 O   0  0  0  0  0  0  0  0  0  0  0  0
   64.9200   32.6300   51.5670 N   0  0  0  0  0  0  0  0  0  0  0  0
   65.0110   31.5490   50.5780 C   0  0  0  0  0  0  0  0  0  0  0  0
   64.1699   31.6338   49.8742 H   0  0  0  0  0  0  0  0  0  0  0  0
   65.9696   31.6407   50.0463 H   0  0  0  0  0  0  0  0  0  0  0  0
   64.9590   30.1670   51.2620 C   0  0  0  0  0  0  0  0  0  0  0  0
   63.9292   29.7857   51.1986 H   0  0  0  0  0  0  0  0  0  0  0  0
   65.6767   29.5191   50.7375 H   0  0  0  0  0  0  0  0  0  0  0  0
   65.3620   30.1980   52.6920 N   0  0  0  0  0  0  0  0  0  0  0  0
   65.8000   28.8560   53.1310 C   0  0  0  0  0  0  0  0  0  0  0  0
   66.5115   28.9639   53.9630 H   0  0  0  0  0  0  0  0  0  0  0  0
   64.9158   28.2860   53.4522 H   0  0  0  0  0  0  0  0  0  0  0  0
   66.4690   28.1110   52.0030 C   0  0  0  0  0  0  0  0  0  0  0  0
   65.9670   26.8720   51.5680 C   0  0  0  0  0  0  0  0  0  0  0  0
   65.0797   26.4388   52.0527 H   0  0  0  0  0  0  0  0  0  0  0  0
   66.5940   26.1880   50.5190 C   0  0  0  0  0  0  0  0  0  0  0  0
   66.1989   25.2181   50.1828 H   0  0  0  0  0  0  0  0  0  0  0  0
   67.7230   26.7360   49.8970 C   0  0  0  0  0  0  0  0  0  0  0  0
   68.2152   26.1961   49.0746 H   0  0  0  0  0  0  0  0  0  0  0  0
   68.2240   27.9710   50.3230 C   0  0  0  0  0  0  0  0  0  0  0  0
   69.1069   28.4048   49.8307 H   0  0  0  0  0  0  0  0  0  0  0  0
   67.6040   28.6550   51.3740 C   0  0  0  0  0  0  0  0  0  0  0  0
   68.0055   29.6224   51.7102 H   0  0  0  0  0  0  0  0  0  0  0  0
   66.4130   31.2080   52.9310 C   0  0  0  0  0  0  0  0  0  0  0  0
   66.7878   31.1134   53.9608 H   0  0  0  0  0  0  0  0  0  0  0  0
   67.2445   31.0521   52.2280 H   0  0  0  0  0  0  0  0  0  0  0  0
   65.8180   32.6070   52.7270 C   0  0  0  0  0  0  0  0  0  0  0  0
   65.2522   32.8923   53.6262 H   0  0  0  0  0  0  0  0  0  0  0  0
   66.6400   33.3160   52.5492 H   0  0  0  0  0  0  0  0  0  0  0  0
   61.7750   33.0700   51.3010 C   0  0  0  0  0  0  0  0  0  0  0  0
   61.9408   32.6003   52.2818 H   0  0  0  0  0  0  0  0  0  0  0  0
   60.5210   32.9870   50.6920 C   0  0  0  0  0  0  0  0  0  0  0  0
   59.7024   32.4509   51.1945 H   0  0  0  0  0  0  0  0  0  0  0  0
   58.9220   31.8920   46.9450 C   0  0  0  0  0  0  0  0  0  0  0  0
   59.0913   31.0553   47.6387 H   0  0  0  0  0  0  0  0  0  0  0  0
  1  2  1  0
  2  3  1  0
  2  4  2  0
  4  5  1  0
  5  6  1  0
  6  7  1  0
  7  8  2  0
  7  9  1  0
  9 10  2  0
 10 11  1  0
 10 12  1  0
 12 13  2  0
 13 14  1  0
 13 15  1  0
 15 16  1  0
 15 17  2  0
 17 18  1  0
 17 19  1  0
 19 20  1  0
 20 21  1  0
 21 22  2  0
 22 23  1  0
 22 24  1  0
 24 25  1  0
 24 26  2  0
 26 27  1  0
 27 28  2  0
 27 29  1  0
 29 30  1  0
 30 31  1  0
 30 32  1  0
 30 33  1  0
 33 34  1  0
 33 35  1  0
 33 36  1  0
 36 37  1  0
 37 38  1  0
 37 39  1  0
 37 40  1  0
 40 41  2  0
 41 42  1  0
 41 43  1  0
 43 44  1  0
 43 45  2  0
 45 46  1  0
 45 47  1  0
 47 48  1  0
 47 49  2  0
 49 50  1  0
 36 51  1  0
 51 52  1  0
 51 53  1  0
 51 54  1  0
 54 55  1  0
 54 56  1  0
 26 57  1  0
 57 58  1  0
 57 59  2  0
 59 60  1  0
 19 61  2  0
 61 62  1  0
  9  4  1  0
 61 12  1  0
 59 21  1  0
 54 29  1  0
 49 40  1  0
M  CHG  1   5  -1
M  END
>  <UniqueID>  (78) 
71

>  <SMILES>  (78) 
C=c1[n-]oc(=O)/c1=C/c1cccc(Oc2ccc(C(=O)N3CCN(Cc4ccccc4)CC3)cc2)c1

>  <Energy>  (78) 
128.66942859057713

>  <Genealogy>  (78) 
C=c1[n-]oc(=O)c1=Cc1cccc(Oc2ccc(C(=O)N3CCN(Cc4ccccc4)CC3)cc2)c1 (protonated)
C=c1[n-]oc(=O)/c1=C/c1cccc(Oc2ccc(C(=O)N3CCN(Cc4ccccc4)CC3)cc2)c1 (cis-trans isomerization)
C=c1[n-]oc(=O)/c1=C/c1cccc(Oc2ccc(C(=O)N3CCN(Cc4ccccc4)CC3)cc2)c1 (3D coordinates assigned)
C=c1[n-]oc(=O)/c1=C/c1cccc(Oc2ccc(C(=O)N3CCN(Cc4ccccc4)CC3)cc2)c1 (nonaromatic ring conformer: 128.66942859057713 kcal/mol)

>  <smiles>  (78) 
C=c1[nH]oc(=O)c1=Cc1cccc(Oc2ccc(C(=O)N3CCN(Cc4ccccc4)CC3)cc2)c1

>  <score_type>  (78) 
oracle

>  <origin>  (78) 
adg

>  <m_score__min__energy>  (78) 
-14.58

>  <m_primary>  (78) 
energy

$$$$
78:0
     RDKit          3D

 52 55  0  0  0  0  0  0  0  0999 V2000
   62.4740   32.2930   48.7599 H   0  0  0  0  0  0  0  0  0  0  0  0
   61.8290   31.4410   48.4990 C   0  0  0  0  0  0  0  0  0  0  0  0
   61.3150   30.6200   49.5060 C   0  0  0  0  0  0  0  0  0  0  0  0
   61.5633   30.8207   50.5587 H   0  0  0  0  0  0  0  0  0  0  0  0
   60.4850   29.5430   49.1770 C   0  0  0  0  0  0  0  0  0  0  0  0
   60.0957   28.8884   49.9707 H   0  0  0  0  0  0  0  0  0  0  0  0
   60.1460   29.2940   47.8320 C   0  0  0  0  0  0  0  0  0  0  0  0
   56.4450   30.4370   44.6520 N   0  0  0  0  0  0  0  0  0  0  0  0
   56.7470   29.3460   45.2970 C   0  0  0  0  0  0  0  0  0  0  0  0
   57.4410   27.1180   46.6900 N   0  0  0  0  0  0  0  0  0  0  0  0
   56.3060   27.1140   45.9420 C   0  0  0  0  0  0  0  0  0  0  0  0
   55.5280   26.0700   45.9070 N   0  0  0  0  0  0  0  0  0  0  0  0
   55.9000   24.7300   45.5380 C   0  0  0  0  0  0  0  0  0  0  0  0
   57.2510   24.3640   45.3860 C   0  0  0  0  0  0  0  0  0  0  0  0
   58.0411   25.1049   45.5781 H   0  0  0  0  0  0  0  0  0  0  0  0
   57.5990   23.0640   44.9920 C   0  0  0  0  0  0  0  0  0  0  0  0
   59.0430   22.6710   44.8810 C   0  0  0  0  0  0  0  0  0  0  0  0
   59.4698   22.5548   45.8881 H   0  0  0  0  0  0  0  0  0  0  0  0
   59.1230   21.7184   44.3368 H   0  0  0  0  0  0  0  0  0  0  0  0
   59.5947   23.4517   44.3368 H   0  0  0  0  0  0  0  0  0  0  0  0
   56.5910   22.1200   44.7600 C   0  0  0  0  0  0  0  0  0  0  0  0
   56.8587   21.0891   44.4852 H   0  0  0  0  0  0  0  0  0  0  0  0
   55.2480   22.4820   44.8760 C   0  0  0  0  0  0  0  0  0  0  0  0
   54.4627   21.7385   44.6747 H   0  0  0  0  0  0  0  0  0  0  0  0
   54.8920   23.7890   45.2480 C   0  0  0  0  0  0  0  0  0  0  0  0
   53.4400   24.1620   45.3730 C   0  0  0  0  0  0  0  0  0  0  0  0
   53.1696   24.2315   46.4370 H   0  0  0  0  0  0  0  0  0  0  0  0
   53.2678   25.1335   44.8867 H   0  0  0  0  0  0  0  0  0  0  0  0
   52.8209   23.3937   44.8867 H   0  0  0  0  0  0  0  0  0  0  0  0
   55.9550   28.2330   45.2520 N   0  0  0  0  0  0  0  0  0  0  0  0
   55.0770   28.2120   44.6860 H   0  0  0  0  0  0  0  0  0  0  0  0
   58.2300   28.2180   46.7460 C   0  0  0  0  0  0  0  0  0  0  0  0
   59.3260   28.1780   47.4460 N   0  0  0  0  0  0  0  0  0  0  0  0
   57.3560   31.2910   43.8890 C   0  0  0  0  0  0  0  0  0  0  0  0
   58.1976   30.6840   43.5240 H   0  0  0  0  0  0  0  0  0  0  0  0
   56.8028   31.7285   43.0449 H   0  0  0  0  0  0  0  0  0  0  0  0
   57.8900   32.4100   44.7460 C   0  0  0  0  0  0  0  0  0  0  0  0
   58.4890   33.5320   44.1480 C   0  0  0  0  0  0  0  0  0  0  0  0
   58.5727   33.5899   43.0527 H   0  0  0  0  0  0  0  0  0  0  0  0
   58.9790   34.5750   44.9400 C   0  0  0  0  0  0  0  0  0  0  0  0
   59.4535   35.4474   44.4669 H   0  0  0  0  0  0  0  0  0  0  0  0
   58.8670   34.5110   46.3310 C   0  0  0  0  0  0  0  0  0  0  0  0
   59.2542   35.3320   46.9524 H   0  0  0  0  0  0  0  0  0  0  0  0
   58.2630   33.4040   46.9330 C   0  0  0  0  0  0  0  0  0  0  0  0
   58.1753   33.3547   48.0284 H   0  0  0  0  0  0  0  0  0  0  0  0
   57.7700   32.3590   46.1460 C   0  0  0  0  0  0  0  0  0  0  0  0
   57.2866   31.4940   46.6236 H   0  0  0  0  0  0  0  0  0  0  0  0
   57.8830   29.3240   46.0380 N   0  0  0  0  0  0  0  0  0  0  0  0
   60.6940   30.1050   46.8290 C   0  0  0  0  0  0  0  0  0  0  0  0
   60.4695   29.8943   45.7730 H   0  0  0  0  0  0  0  0  0  0  0  0
   61.5240   31.1800   47.1610 C   0  0  0  0  0  0  0  0  0  0  0  0
   61.9371   31.8207   46.3680 H   0  0  0  0  0  0  0  0  0  0  0  0
  1  2  1  0
  2  3  2  0
  3  4  1  0
  3  5  1  0
  5  6  1  0
  5  7  2  0
  7  8  1  0
  8  9  2  0
  9 10  1  0
 10 11  1  0
 11 12  2  3
 12 13  1  0
 13 14  2  0
 14 15  1  0
 14 16  1  0
 16 17  1  0
 17 18  1  0
 17 19  1  0
 17 20  1  0
 16 21  2  0
 21 22  1  0
 21 23  1  0
 23 24  1  0
 23 25  2  0
 25 26  1  0
 26 27  1  0
 26 28  1  0
 26 29  1  0
 11 30  1  0
 30 31  1  0
 30 32  1  0
 32 33  2  0
 33 34  1  0
 34 35  1  0
 34 36  1  0
 34 37  1  0
 37 38  2  0
 38 39  1  0
 38 40  1  0
 40 41  1  0
 40 42  2  0
 42 43  1  0
 42 44  1  0
 44 45  1  0
 44 46  2  0
 46 47  1  0
 32 48  1  0
  7 49  1  0
 49 50  1  0
 49 51  2  0
 51 52  1  0
 51  2  1  0
 48  9  1  0
 25 13  1  0
 46 37  1  0
M  CHG  2  10  -1  48  -1
M  END
>  <UniqueID>  (79) 
72

>  <SMILES>  (79) 
Cc1ccc(C)c(N=c2[n-]/c(=N/c3ccccc3)[n-]/c(=N/Cc3ccccc3)[nH]2)c1

>  <Energy>  (79) 
69.54308761992914

>  <Genealogy>  (79) 
Cc1ccc(C)c(N=c2[n-]c(=Nc3ccccc3)[n-]c(=NCc3ccccc3)[nH]2)c1 (protonated)
Cc1ccc(C)c(N=c2[n-]/c(=N/c3ccccc3)[n-]/c(=N/Cc3ccccc3)[nH]2)c1 (cis-trans isomerization)
Cc1ccc(C)c(N=c2[n-]/c(=N/c3ccccc3)[n-]/c(=N/Cc3ccccc3)[nH]2)c1 (3D coordinates assigned)
Cc1ccc(C)c(N=c2[n-]/c(=N/c3ccccc3)[n-]/c(=N/Cc3ccccc3)[nH]2)c1 (optimized conformer: 69.54308761992914 kcal/mol)

>  <smiles>  (79) 
Cc1ccc(C)c(N=c2[nH]c(=NCc3ccccc3)[nH]c(=Nc3ccccc3)[nH]2)c1

>  <score_type>  (79) 
oracle

>  <origin>  (79) 
adg

>  <m_score__min__energy>  (79) 
-12.51

>  <m_primary>  (79) 
energy

$$$$
79:0
     RDKit          3D

 35 37  0  0  0  0  0  0  0  0999 V2000
   58.5220   29.3400   50.0270 O   0  0  0  0  0  0  0  0  0  0  0  0
   59.4870   29.5480   49.2450 C   0  0  0  0  0  0  0  0  0  0  0  0
   60.6660   30.0670   49.7610 O   0  0  0  0  0  0  0  0  0  0  0  0
   59.3300   29.2900   47.7980 C   0  0  0  0  0  0  0  0  0  0  0  0
   58.4850   28.2710   47.3230 C   0  0  0  0  0  0  0  0  0  0  0  0
   58.4500   28.1720   45.9380 C   0  0  0  0  0  0  0  0  0  0  0  0
   57.5970   27.2290   45.1480 C   0  0  0  0  0  0  0  0  0  0  0  0
   57.2160   26.0370   45.9940 C   0  0  0  0  0  0  0  0  0  0  0  0
   55.8800   25.8160   46.3740 C   0  0  0  0  0  0  0  0  0  0  0  0
   54.8800   26.7090   46.0080 O   0  0  0  0  0  0  0  0  0  0  0  0
   55.5550   24.7210   47.1070 N   0  0  0  0  0  0  0  0  0  0  0  0
   56.4990   23.8190   47.4780 C   0  0  0  0  0  0  0  0  0  0  0  0
   56.1730   22.8120   48.1590 O   0  0  0  0  0  0  0  0  0  0  0  0
   57.7930   24.0000   47.1140 N   0  0  0  0  0  0  0  0  0  0  0  0
   58.1710   25.0790   46.3810 C   0  0  0  0  0  0  0  0  0  0  0  0
   59.3820   25.2080   46.0540 O   0  0  0  0  0  0  0  0  0  0  0  0
   59.4550   29.3470   45.2820 S   0  0  0  0  0  0  0  0  0  0  0  0
   59.9510   30.0000   46.7550 C   0  0  0  0  0  0  0  0  0  0  0  0
   60.9890   30.9890   46.8700 N   0  0  0  0  0  0  0  0  0  0  0  0
   60.4070   32.3080   46.8540 C   0  0  0  0  0  0  0  0  0  0  0  0
   60.9420   33.3310   47.6600 C   0  0  0  0  0  0  0  0  0  0  0  0
   60.3600   34.6020   47.6680 C   0  0  0  0  0  0  0  0  0  0  0  0
   59.2390   34.8650   46.8760 C   0  0  0  0  0  0  0  0  0  0  0  0
   58.6970   33.8570   46.0740 C   0  0  0  0  0  0  0  0  0  0  0  0
   57.2890   34.1890   45.0820 Cl  0  0  0  0  0  0  0  0  0  0  0  0
   59.2770   32.5830   46.0620 C   0  0  0  0  0  0  0  0  0  0  0  0
   57.9053   27.6131   47.9871 H   0  0  0  0  0  0  0  0  0  0  0  0
   56.6846   27.7501   44.8225 H   0  0  0  0  0  0  0  0  0  0  0  0
   58.1634   26.8809   44.2717 H   0  0  0  0  0  0  0  0  0  0  0  0
   61.4930   30.8430   47.7760 H   0  0  0  0  0  0  0  0  0  0  0  0
   61.7010   30.8810   46.1170 H   0  0  0  0  0  0  0  0  0  0  0  0
   61.8230   33.1290   48.2870 H   0  0  0  0  0  0  0  0  0  0  0  0
   60.7852   35.3965   48.2988 H   0  0  0  0  0  0  0  0  0  0  0  0
   58.7830   35.8660   46.8839 H   0  0  0  0  0  0  0  0  0  0  0  0
   58.8469   31.7923   45.4297 H   0  0  0  0  0  0  0  0  0  0  0  0
  1  2  2  0
  2  3  1  0
  2  4  1  0
  4  5  1  0
  5  6  2  0
  6  7  1  0
  7  8  1  0
  8  9  2  0
  9 10  1  0
  9 11  1  0
 11 12  1  0
 12 13  2  0
 12 14  1  0
 14 15  1  0
 15 16  2  0
  6 17  1  0
 17 18  1  0
 18 19  1  0
 19 20  1  0
 20 21  2  0
 21 22  1  0
 22 23  2  0
 23 24  1  0
 24 25  1  0
 24 26  2  0
 18  4  2  0
 26 20  1  0
 15  8  1  0
  5 27  1  0
  7 28  1  0
  7 29  1  0
 19 30  1  0
 19 31  1  0
 21 32  1  0
 22 33  1  0
 23 34  1  0
 26 35  1  0
M  CHG  5   3  -1  10  -1  11  -1  14  -1  19   1
M  END
>  <UniqueID>  (80) 
73

>  <SMILES>  (80) 
O=C([O-])c1cc(Cc2c([O-])[n-]c(=O)[n-]c2=O)sc1[NH2+]c1cccc(Cl)c1

>  <Energy>  (80) 
69.16366544421834

>  <Genealogy>  (80) 
O=C([O-])c1cc(Cc2c([O-])[n-]c(=O)[n-]c2=O)sc1[NH2+]c1cccc(Cl)c1 (protonated)
O=C([O-])c1cc(Cc2c([O-])[n-]c(=O)[n-]c2=O)sc1[NH2+]c1cccc(Cl)c1 (3D coordinates assigned)
O=C([O-])c1cc(Cc2c([O-])[n-]c(=O)[n-]c2=O)sc1[NH2+]c1cccc(Cl)c1 (optimized conformer: 69.16366544421834 kcal/mol)

>  <smiles>  (80) 
O=C(O)c1cc(Cc2c(O)[nH]c(=O)[nH]c2=O)sc1Nc1cccc(Cl)c1

>  <score_type>  (80) 
oracle

>  <origin>  (80) 
adg

>  <m_score__min__energy>  (80) 
-14.91

>  <m_primary>  (80) 
energy

$$$$
80:0
     RDKit          3D

 38 40  0  0  0  0  0  0  0  0999 V2000
   56.7159   30.9011   44.1665 H   0  0  0  0  0  0  0  0  0  0  0  0
   56.8800   29.8270   44.3380 C   0  0  0  0  0  0  0  0  0  0  0  0
   56.1963   29.0884   43.8941 H   0  0  0  0  0  0  0  0  0  0  0  0
   57.9160   29.4170   45.0900 C   0  0  0  0  0  0  0  0  0  0  0  0
   58.2350   28.0870   45.3840 C   0  0  0  0  0  0  0  0  0  0  0  0
   57.6020   26.9750   44.9560 C   0  0  0  0  0  0  0  0  0  0  0  0
   57.3751   26.8838   43.8835 H   0  0  0  0  0  0  0  0  0  0  0  0
   57.1970   25.8710   45.8560 C   0  0  0  0  0  0  0  0  0  0  0  0
   55.8850   25.7650   46.3510 C   0  0  0  0  0  0  0  0  0  0  0  0
   54.9180   26.7050   46.0120 O   0  0  0  0  0  0  0  0  0  0  0  0
   55.5470   24.7250   47.1550 N   0  0  0  0  0  0  0  0  0  0  0  0
   56.4510   23.7670   47.4800 C   0  0  0  0  0  0  0  0  0  0  0  0
   56.0140   22.5290   48.4490 S   0  0  0  0  0  0  0  0  0  0  0  0
   57.7140   23.8300   46.9890 N   0  0  0  0  0  0  0  0  0  0  0  0
   58.1050   24.8510   46.1830 C   0  0  0  0  0  0  0  0  0  0  0  0
   59.2860   24.8760   45.7440 O   0  0  0  0  0  0  0  0  0  0  0  0
   59.3750   28.1210   46.1700 C   0  0  0  0  0  0  0  0  0  0  0  0
   59.9162   27.2555   46.5799 H   0  0  0  0  0  0  0  0  0  0  0  0
   59.7000   29.4510   46.3390 C   0  0  0  0  0  0  0  0  0  0  0  0
   60.9150   29.9320   47.0740 C   0  0  0  0  0  0  0  0  0  0  0  0
   60.7394   29.8625   48.1577 H   0  0  0  0  0  0  0  0  0  0  0  0
   61.7791   29.3081   46.8018 H   0  0  0  0  0  0  0  0  0  0  0  0
   61.1179   30.9783   46.8018 H   0  0  0  0  0  0  0  0  0  0  0  0
   58.8190   30.2460   45.6840 N   0  0  0  0  0  0  0  0  0  0  0  0
   58.9000   31.7140   45.5990 C   0  0  0  0  0  0  0  0  0  0  0  0
   59.6634   31.9916   44.8573 H   0  0  0  0  0  0  0  0  0  0  0  0
   57.9173   32.1067   45.2988 H   0  0  0  0  0  0  0  0  0  0  0  0
   59.2710   32.3030   46.9360 C   0  0  0  0  0  0  0  0  0  0  0  0
   58.3700   32.2490   48.0130 C   0  0  0  0  0  0  0  0  0  0  0  0
   57.3827   31.7831   47.8779 H   0  0  0  0  0  0  0  0  0  0  0  0
   58.7220   32.7840   49.2540 C   0  0  0  0  0  0  0  0  0  0  0  0
   58.0117   32.7370   50.0926 H   0  0  0  0  0  0  0  0  0  0  0  0
   59.9740   33.3790   49.4340 C   0  0  0  0  0  0  0  0  0  0  0  0
   60.3130   33.9080   50.6750 O   0  0  0  0  0  0  0  0  0  0  0  0
   60.8780   33.4420   48.3660 C   0  0  0  0  0  0  0  0  0  0  0  0
   62.4550   34.1860   48.5720 Cl  0  0  0  0  0  0  0  0  0  0  0  0
   60.5270   32.9070   47.1210 C   0  0  0  0  0  0  0  0  0  0  0  0
   61.2376   32.9594   46.2830 H   0  0  0  0  0  0  0  0  0  0  0  0
  1  2  1  0
  2  3  1  0
  2  4  2  0
  4  5  1  0
  5  6  2  0
  6  7  1  0
  6  8  1  0
  8  9  2  0
  9 10  1  0
  9 11  1  0
 11 12  1  0
 12 13  2  0
 12 14  1  0
 14 15  1  0
 15 16  2  0
  5 17  1  0
 17 18  1  0
 17 19  2  0
 19 20  1  0
 20 21  1  0
 20 22  1  0
 20 23  1  0
 19 24  1  0
 24 25  1  0
 25 26  1  0
 25 27  1  0
 25 28  1  0
 28 29  2  0
 29 30  1  0
 29 31  1  0
 31 32  1  0
 31 33  2  0
 33 34  1  0
 33 35  1  0
 35 36  1  0
 35 37  2  0
 37 38  1  0
 24  4  1  0
 37 28  1  0
 15  8  1  0
M  CHG  4  10  -1  11  -1  14  -1  34  -1
M  END
>  <UniqueID>  (81) 
74

>  <SMILES>  (81) 
C=c1/c(=C/c2c([O-])[n-]c(=S)[n-]c2=O)cc(C)n1Cc1ccc([O-])c(Cl)c1

>  <Energy>  (81) 
79.10490695358888

>  <Genealogy>  (81) 
C=c1c(=Cc2c([O-])[n-]c(=S)[n-]c2=O)cc(C)n1Cc1ccc([O-])c(Cl)c1 (protonated)
C=c1/c(=C/c2c([O-])[n-]c(=S)[n-]c2=O)cc(C)n1Cc1ccc([O-])c(Cl)c1 (cis-trans isomerization)
C=c1/c(=C/c2c([O-])[n-]c(=S)[n-]c2=O)cc(C)n1Cc1ccc([O-])c(Cl)c1 (3D coordinates assigned)
C=c1/c(=C/c2c([O-])[n-]c(=S)[n-]c2=O)cc(C)n1Cc1ccc([O-])c(Cl)c1 (optimized conformer: 79.10490695358888 kcal/mol)

>  <smiles>  (81) 
C=c1c(=Cc2c(O)[nH]c(=S)[nH]c2=O)cc(C)n1Cc1ccc(O)c(Cl)c1

>  <score_type>  (81) 
oracle

>  <origin>  (81) 
adg

>  <m_score__min__energy>  (81) 
-15.890000000000001

>  <m_primary>  (81) 
energy

$$$$
81:0
     RDKit          3D

 41 42  0  0  0  0  0  0  0  0999 V2000
   55.1310   29.3450   44.9340 O   0  0  0  0  0  0  0  0  0  0  0  0
   56.3860   29.4300   44.8750 C   0  0  0  0  0  0  0  0  0  0  0  0
   57.1740   28.2590   44.3530 C   0  0  0  0  0  0  0  0  0  0  0  0
   57.4960   27.2790   45.4520 C   0  0  0  0  0  0  0  0  0  0  0  0
   58.8320   27.0700   45.8370 C   0  0  0  0  0  0  0  0  0  0  0  0
   59.1400   26.1590   46.8510 C   0  0  0  0  0  0  0  0  0  0  0  0
   58.1200   25.4430   47.4820 C   0  0  0  0  0  0  0  0  0  0  0  0
   56.7900   25.6360   47.1010 C   0  0  0  0  0  0  0  0  0  0  0  0
   56.4740   26.5480   46.0880 C   0  0  0  0  0  0  0  0  0  0  0  0
   55.1440   26.7230   45.7180 O   0  0  0  0  0  0  0  0  0  0  0  0
   57.0080   30.6730   45.2270 N   0  0  0  0  0  0  0  0  0  0  0  0
   57.7850   31.5340   44.3380 C   0  0  0  0  0  0  0  0  0  0  0  0
   58.2090   32.8310   44.9810 C   0  0  0  0  0  0  0  0  0  0  0  0
   58.5300   33.7880   44.2250 O   0  0  0  0  0  0  0  0  0  0  0  0
   58.2860   32.9940   46.4080 N   0  0  0  0  0  0  0  0  0  0  0  0
   58.7840   34.2180   47.0390 C   0  0  0  0  0  0  0  0  0  0  0  0
   60.1540   34.6420   46.4860 C   0  0  0  0  0  0  0  0  0  0  0  0
   61.2900   33.8190   47.0400 C   0  0  0  0  0  0  0  0  0  0  0  0
   62.5500   33.8370   46.4160 C   0  0  0  0  0  0  0  0  0  0  0  0
   63.5970   33.0580   46.9180 C   0  0  0  0  0  0  0  0  0  0  0  0
   63.3970   32.2590   48.0470 C   0  0  0  0  0  0  0  0  0  0  0  0
   62.1470   32.2320   48.6710 C   0  0  0  0  0  0  0  0  0  0  0  0
   61.0950   33.0050   48.1680 C   0  0  0  0  0  0  0  0  0  0  0  0
   56.5838   27.7471   43.5786 H   0  0  0  0  0  0  0  0  0  0  0  0
   58.1200   28.6361   43.9373 H   0  0  0  0  0  0  0  0  0  0  0  0
   59.6389   27.6264   45.3376 H   0  0  0  0  0  0  0  0  0  0  0  0
   60.1867   26.0056   47.1525 H   0  0  0  0  0  0  0  0  0  0  0  0
   58.3644   24.7263   48.2799 H   0  0  0  0  0  0  0  0  0  0  0  0
   55.9891   25.0696   47.5986 H   0  0  0  0  0  0  0  0  0  0  0  0
   58.6875   30.9885   44.0251 H   0  0  0  0  0  0  0  0  0  0  0  0
   57.1379   31.7899   43.4861 H   0  0  0  0  0  0  0  0  0  0  0  0
   58.0800   32.1890   47.0380 H   0  0  0  0  0  0  0  0  0  0  0  0
   58.0628   35.0285   46.8575 H   0  0  0  0  0  0  0  0  0  0  0  0
   58.9015   34.0190   48.1145 H   0  0  0  0  0  0  0  0  0  0  0  0
   60.1407   34.5305   45.3917 H   0  0  0  0  0  0  0  0  0  0  0  0
   60.3239   35.6858   46.7888 H   0  0  0  0  0  0  0  0  0  0  0  0
   62.7127   34.4668   45.5289 H   0  0  0  0  0  0  0  0  0  0  0  0
   64.5795   33.0741   46.4236 H   0  0  0  0  0  0  0  0  0  0  0  0
   64.2234   31.6515   48.4444 H   0  0  0  0  0  0  0  0  0  0  0  0
   61.9899   31.6021   49.5590 H   0  0  0  0  0  0  0  0  0  0  0  0
   60.1107   32.9752   48.6581 H   0  0  0  0  0  0  0  0  0  0  0  0
  1  2  2  0
  2  3  1  0
  3  4  1  0
  4  5  2  0
  5  6  1  0
  6  7  2  0
  7  8  1  0
  8  9  2  0
  9 10  1  0
  2 11  1  0
 11 12  1  0
 12 13  1  0
 13 14  2  0
 13 15  1  0
 15 16  1  0
 16 17  1  0
 17 18  1  0
 18 19  2  0
 19 20  1  0
 20 21  2  0
 21 22  1  0
 22 23  2  0
  9  4  1  0
 23 18  1  0
  3 24  1  0
  3 25  1  0
  5 26  1  0
  6 27  1  0
  7 28  1  0
  8 29  1  0
 12 30  1  0
 12 31  1  0
 15 32  1  0
 16 33  1  0
 16 34  1  0
 17 35  1  0
 17 36  1  0
 19 37  1  0
 20 38  1  0
 21 39  1  0
 22 40  1  0
 23 41  1  0
M  CHG  2  10  -1  11  -1
M  END
>  <UniqueID>  (82) 
75

>  <SMILES>  (82) 
O=C(Cc1ccccc1[O-])[N-]CC(=O)NCCc1ccccc1

>  <Energy>  (82) 
33.17489453538969

>  <Genealogy>  (82) 
O=C(Cc1ccccc1[O-])[N-]CC(=O)NCCc1ccccc1 (protonated)
O=C(Cc1ccccc1[O-])[N-]CC(=O)NCCc1ccccc1 (3D coordinates assigned)
O=C(Cc1ccccc1[O-])[N-]CC(=O)NCCc1ccccc1 (optimized conformer: 33.17489453538969 kcal/mol)

>  <smiles>  (82) 
O=C(CNC(=O)Cc1ccccc1O)NCCc1ccccc1

>  <score_type>  (82) 
oracle

>  <origin>  (82) 
adg

>  <m_score__min__energy>  (82) 
-13.289999999999999

>  <m_primary>  (82) 
energy

$$$$
82:0
     RDKit          3D

 66 70  0  0  0  0  0  0  0  0999 V2000
   59.9670   29.7000   46.7010 C   0  0  0  0  0  0  0  0  0  0  0  0
   59.1640   30.2340   45.7690 C   0  0  0  0  0  0  0  0  0  0  0  0
   58.3780   29.5580   44.8150 C   0  0  0  0  0  0  0  0  0  0  0  0
   58.2860   28.2510   44.5000 C   0  0  0  0  0  0  0  0  0  0  0  0
   57.5850   27.2310   45.2970 C   0  0  0  0  0  0  0  0  0  0  0  0
   56.2370   27.4030   45.6420 C   0  0  0  0  0  0  0  0  0  0  0  0
   55.5380   28.5310   45.2270 O   0  0  0  0  0  0  0  0  0  0  0  0
   55.6070   26.4660   46.3970 N   0  0  0  0  0  0  0  0  0  0  0  0
   56.2570   25.3490   46.8150 C   0  0  0  0  0  0  0  0  0  0  0  0
   55.6570   24.5010   47.5260 O   0  0  0  0  0  0  0  0  0  0  0  0
   57.5520   25.1430   46.4630 N   0  0  0  0  0  0  0  0  0  0  0  0
   58.2270   26.0500   45.7080 C   0  0  0  0  0  0  0  0  0  0  0  0
   59.4250   25.8240   45.3890 O   0  0  0  0  0  0  0  0  0  0  0  0
   57.6330   30.5320   44.1680 C   0  0  0  0  0  0  0  0  0  0  0  0
   58.0040   31.7470   44.7080 C   0  0  0  0  0  0  0  0  0  0  0  0
   57.4320   33.0740   44.3130 C   0  0  0  0  0  0  0  0  0  0  0  0
   58.9320   31.5660   45.6710 N   0  0  0  0  0  0  0  0  0  0  0  0
   59.5340   32.6150   46.4400 C   0  0  0  0  0  0  0  0  0  0  0  0
   60.9310   32.7410   46.4770 C   0  0  0  0  0  0  0  0  0  0  0  0
   61.5350   33.6610   47.3500 C   0  0  0  0  0  0  0  0  0  0  0  0
   63.0080   33.7730   47.4520 C   0  0  0  0  0  0  0  0  0  0  0  0
   63.5950   34.5030   46.6040 O   0  0  0  0  0  0  0  0  0  0  0  0
   63.7870   32.9920   48.4120 N   0  0  1  0  0  0  0  0  0  0  0  0
   63.8420   33.6420   49.7480 C   0  0  0  0  0  0  0  0  0  0  0  0
   62.4640   33.6620   50.4490 C   0  0  0  0  0  0  0  0  0  0  0  0
   61.8830   32.2310   50.5550 C   0  0  1  0  0  0  0  0  0  0  0  0
   60.5350   32.1550   51.1840 N   0  0  0  0  0  0  0  0  0  0  0  0
   59.9710   33.4800   51.4970 C   0  0  0  0  0  0  0  0  0  0  0  0
   58.7240   33.3150   52.3950 C   0  0  0  0  0  0  0  0  0  0  0  0
   58.2220   31.9870   52.4070 O   0  0  0  0  0  0  0  0  0  0  0  0
   58.1340   31.4930   51.0870 C   0  0  0  0  0  0  0  0  0  0  0  0
   59.5420   31.2970   50.4930 C   0  0  0  0  0  0  0  0  0  0  0  0
   61.9020   31.5340   49.1850 C   0  0  0  0  0  0  0  0  0  0  0  0
   63.3090   31.5960   48.5730 C   0  0  0  0  0  0  0  0  0  0  0  0
   60.7260   34.4980   48.1380 C   0  0  0  0  0  0  0  0  0  0  0  0
   59.3350   34.3890   48.0820 C   0  0  0  0  0  0  0  0  0  0  0  0
   58.7380   33.4480   47.2390 C   0  0  0  0  0  0  0  0  0  0  0  0
   57.3890   33.3230   47.2240 F   0  0  0  0  0  0  0  0  0  0  0  0
   60.5262   30.3546   47.3857 H   0  0  0  0  0  0  0  0  0  0  0  0
   60.0665   28.6074   46.7807 H   0  0  0  0  0  0  0  0  0  0  0  0
   58.7744   27.9193   43.5719 H   0  0  0  0  0  0  0  0  0  0  0  0
   56.8882   30.3678   43.3754 H   0  0  0  0  0  0  0  0  0  0  0  0
   57.1838   33.6499   45.2167 H   0  0  0  0  0  0  0  0  0  0  0  0
   58.1709   33.6288   43.7161 H   0  0  0  0  0  0  0  0  0  0  0  0
   56.5213   32.9177   43.7161 H   0  0  0  0  0  0  0  0  0  0  0  0
   61.5553   32.1173   45.8202 H   0  0  0  0  0  0  0  0  0  0  0  0
   64.7660   32.9530   48.0430 H   0  0  0  0  0  0  0  0  0  0  0  0
   64.1902   34.6779   49.6231 H   0  0  0  0  0  0  0  0  0  0  0  0
   64.5308   33.0592   50.3772 H   0  0  0  0  0  0  0  0  0  0  0  0
   61.7726   34.2903   49.8683 H   0  0  0  0  0  0  0  0  0  0  0  0
   62.5892   34.0688   51.4633 H   0  0  0  0  0  0  0  0  0  0  0  0
   62.5478   31.6914   51.2455 H   0  0  0  0  0  0  0  0  0  0  0  0
   60.7246   34.0831   52.0246 H   0  0  0  0  0  0  0  0  0  0  0  0
   59.6835   33.9841   50.5625 H   0  0  0  0  0  0  0  0  0  0  0  0
   58.9926   33.5977   53.4236 H   0  0  0  0  0  0  0  0  0  0  0  0
   57.9346   33.9619   51.9847 H   0  0  0  0  0  0  0  0  0  0  0  0
   57.6064   30.5278   51.0954 H   0  0  0  0  0  0  0  0  0  0  0  0
   57.5838   32.2186   50.4699 H   0  0  0  0  0  0  0  0  0  0  0  0
   59.8366   30.2432   50.6062 H   0  0  0  0  0  0  0  0  0  0  0  0
   59.5159   31.5780   49.4298 H   0  0  0  0  0  0  0  0  0  0  0  0
   61.1916   32.0370   48.5124 H   0  0  0  0  0  0  0  0  0  0  0  0
   61.6160   30.4800   49.3166 H   0  0  0  0  0  0  0  0  0  0  0  0
   63.2878   31.1123   47.5853 H   0  0  0  0  0  0  0  0  0  0  0  0
   63.9986   31.0786   49.2562 H   0  0  0  0  0  0  0  0  0  0  0  0
   61.1907   35.2421   48.8016 H   0  0  0  0  0  0  0  0  0  0  0  0
   58.7077   35.0454   48.7030 H   0  0  0  0  0  0  0  0  0  0  0  0
  1  2  2  0
  2  3  1  0
  3  4  2  3
  4  5  1  0
  5  6  2  0
  6  7  1  0
  6  8  1  0
  8  9  1  0
  9 10  2  0
  9 11  1  0
 11 12  1  0
 12 13  2  0
  3 14  1  0
 14 15  2  0
 15 16  1  0
 15 17  1  0
 17 18  1  0
 18 19  2  0
 19 20  1  0
 20 21  1  0
 21 22  2  0
 21 23  1  0
 23 24  1  0
 24 25  1  0
 25 26  1  0
 26 27  1  0
 27 28  1  0
 28 29  1  0
 29 30  1  0
 30 31  1  0
 31 32  1  0
 26 33  1  0
 33 34  1  0
 20 35  2  0
 35 36  1  0
 36 37  2  0
 37 38  1  0
 17  2  1  0
 37 18  1  0
 12  5  1  0
 34 23  1  0
 32 27  1  0
  1 39  1  0
  1 40  1  0
  4 41  1  0
 14 42  1  0
 16 43  1  0
 16 44  1  0
 16 45  1  0
 19 46  1  0
 23 47  1  6
 24 48  1  0
 24 49  1  0
 25 50  1  0
 25 51  1  0
 26 52  1  1
 28 53  1  0
 28 54  1  0
 29 55  1  0
 29 56  1  0
 31 57  1  0
 31 58  1  0
 32 59  1  0
 32 60  1  0
 33 61  1  0
 33 62  1  0
 34 63  1  0
 34 64  1  0
 35 65  1  0
 36 66  1  0
M  CHG  4   7  -1   8  -1  11  -1  23   1
M  END
>  <UniqueID>  (83) 
76

>  <SMILES>  (83) 
C=c1c(=Cc2c([O-])[n-]c(=O)[n-]c2=O)cc(C)n1-c1cc(C(=O)[NH+]2CCC(N3CCOCC3)CC2)ccc1F

>  <Energy>  (83) 
144.72516224818298

>  <Genealogy>  (83) 
C=c1c(=Cc2c([O-])[n-]c(=O)[n-]c2=O)cc(C)n1-c1cc(C(=O)[NH+]2CCC(N3CCOCC3)CC2)ccc1F (protonated)
C=c1c(=Cc2c([O-])[n-]c(=O)[n-]c2=O)cc(C)n1-c1cc(C(=O)[NH+]2CCC(N3CCOCC3)CC2)ccc1F (3D coordinates assigned)
C=c1c(=Cc2c([O-])[n-]c(=O)[n-]c2=O)cc(C)n1-c1cc(C(=O)[NH+]2CCC(N3CCOCC3)CC2)ccc1F (nonaromatic ring conformer: 144.72516224818298 kcal/mol)

>  <smiles>  (83) 
C=c1c(=Cc2c(O)[nH]c(=O)[nH]c2=O)cc(C)n1-c1cc(C(=O)N2CCC(N3CCOCC3)CC2)ccc1F

>  <score_type>  (83) 
oracle

>  <origin>  (83) 
adg

>  <m_score__min__energy>  (83) 
-16.620000000000001

>  <m_primary>  (83) 
energy

$$$$
83:0
     RDKit          3D

 51 54  0  0  0  0  0  0  0  0999 V2000
   50.2150   33.1360   49.3780 H   0  0  0  0  0  0  0  0  0  0  0  0
   50.6410   32.2340   49.2080 O   0  0  0  0  0  0  0  0  0  0  0  0
   51.3870   31.5830   50.1900 C   0  0  0  0  0  0  0  0  0  0  0  0
   51.9540   30.3280   49.9370 C   0  0  0  0  0  0  0  0  0  0  0  0
   51.8131   29.8519   48.9554 H   0  0  0  0  0  0  0  0  0  0  0  0
   52.6980   29.6770   50.9250 C   0  0  0  0  0  0  0  0  0  0  0  0
   53.1452   28.6941   50.7151 H   0  0  0  0  0  0  0  0  0  0  0  0
   52.8780   30.2740   52.1890 C   0  0  0  0  0  0  0  0  0  0  0  0
   53.6720   29.6340   53.2670 C   0  0  0  0  0  0  0  0  0  0  0  0
   53.4989   29.9590   54.3035 H   0  0  0  0  0  0  0  0  0  0  0  0
   54.5890   28.6810   53.0460 C   0  0  0  0  0  0  0  0  0  0  0  0
   54.2765   27.7451   52.5597 H   0  0  0  0  0  0  0  0  0  0  0  0
   56.0060   28.8460   53.4340 C   0  0  0  0  0  0  0  0  0  0  0  0
   56.3360   28.8320   54.6500 O   0  0  0  0  0  0  0  0  0  0  0  0
   57.0380   28.9520   52.4440 N   0  0  0  0  0  0  0  0  0  0  0  0
   57.4710   30.1540   51.7930 C   0  0  0  0  0  0  0  0  0  0  0  0
   57.1550   31.4250   52.3030 C   0  0  0  0  0  0  0  0  0  0  0  0
   56.5484   31.5136   53.2163 H   0  0  0  0  0  0  0  0  0  0  0  0
   57.6080   32.5750   51.6550 C   0  0  0  0  0  0  0  0  0  0  0  0
   57.3401   33.5671   52.0474 H   0  0  0  0  0  0  0  0  0  0  0  0
   58.4010   32.4700   50.5090 C   0  0  0  0  0  0  0  0  0  0  0  0
   58.7400   33.3801   49.9925 H   0  0  0  0  0  0  0  0  0  0  0  0
   58.7670   31.2080   50.0140 C   0  0  0  0  0  0  0  0  0  0  0  0
   59.6260   31.0900   48.7800 C   0  0  0  0  0  0  0  0  0  0  0  0
   60.4299   31.8391   48.8308 H   0  0  0  0  0  0  0  0  0  0  0  0
   60.0418   30.0722   48.7442 H   0  0  0  0  0  0  0  0  0  0  0  0
   58.8220   31.3180   47.5250 C   0  0  0  0  0  0  0  0  0  0  0  0
   58.2560   30.2360   46.9240 N   0  0  0  0  0  0  0  0  0  0  0  0
   57.5410   30.3400   45.8040 N   0  0  0  0  0  0  0  0  0  0  0  0
   57.3420   31.5350   45.1960 C   0  0  0  0  0  0  0  0  0  0  0  0
   56.6470   31.5870   44.1460 O   0  0  0  0  0  0  0  0  0  0  0  0
   57.9110   32.6920   45.7450 C   0  0  0  0  0  0  0  0  0  0  0  0
   58.6620   32.5890   46.9290 C   0  0  0  0  0  0  0  0  0  0  0  0
   59.2060   33.8700   47.5200 C   0  0  0  0  0  0  0  0  0  0  0  0
   58.3832   34.4305   47.9878 H   0  0  0  0  0  0  0  0  0  0  0  0
   59.9696   33.6184   48.2708 H   0  0  0  0  0  0  0  0  0  0  0  0
   59.8510   34.7370   46.4280 C   0  0  0  0  0  0  0  0  0  0  0  0
   60.0135   35.7442   46.8392 H   0  0  0  0  0  0  0  0  0  0  0  0
   60.7872   34.2361   46.1405 H   0  0  0  0  0  0  0  0  0  0  0  0
   59.0040   34.8710   45.1350 C   0  0  0  0  0  0  0  0  0  0  0  0
   58.7485   35.9324   45.0000 H   0  0  0  0  0  0  0  0  0  0  0  0
   59.6179   34.4691   44.3155 H   0  0  0  0  0  0  0  0  0  0  0  0
   57.6970   34.0590   45.1420 C   0  0  0  0  0  0  0  0  0  0  0  0
   56.9419   34.5983   45.7328 H   0  0  0  0  0  0  0  0  0  0  0  0
   57.3573   33.9339   44.1033 H   0  0  0  0  0  0  0  0  0  0  0  0
   58.2890   30.0530   50.6610 C   0  0  0  0  0  0  0  0  0  0  0  0
   58.5610   29.0602   50.2732 H   0  0  0  0  0  0  0  0  0  0  0  0
   52.3200   31.5410   52.4280 C   0  0  0  0  0  0  0  0  0  0  0  0
   52.4712   32.0279   53.4027 H   0  0  0  0  0  0  0  0  0  0  0  0
   51.5740   32.1890   51.4380 C   0  0  0  0  0  0  0  0  0  0  0  0
   51.0200   33.4380   51.6970 O   0  0  0  0  0  0  0  0  0  0  0  0
  1  2  1  0
  2  3  1  0
  3  4  2  0
  4  5  1  0
  4  6  1  0
  6  7  1  0
  6  8  2  0
  8  9  1  0
  9 10  1  0
  9 11  2  0
 11 12  1  0
 11 13  1  0
 13 14  2  0
 13 15  1  0
 15 16  1  0
 16 17  2  0
 17 18  1  0
 17 19  1  0
 19 20  1  0
 19 21  2  0
 21 22  1  0
 21 23  1  0
 23 24  1  0
 24 25  1  0
 24 26  1  0
 24 27  1  0
 27 28  2  0
 28 29  1  0
 29 30  1  0
 30 31  2  0
 30 32  1  0
 32 33  2  0
 33 34  1  0
 34 35  1  0
 34 36  1  0
 34 37  1  0
 37 38  1  0
 37 39  1  0
 37 40  1  0
 40 41  1  0
 40 42  1  0
 40 43  1  0
 43 44  1  0
 43 45  1  0
 23 46  2  0
 46 47  1  0
  8 48  1  0
 48 49  1  0
 48 50  2  0
 50 51  1  0
 50  3  1  0
 46 16  1  0
 33 27  1  0
 43 32  1  0
M  CHG  3  15  -1  29  -1  51  -1
M  END
>  <UniqueID>  (84) 
77

>  <SMILES>  (84) 
O=C(/C=C/c1ccc(O)c([O-])c1)[N-]c1cccc(Cc2n[n-]c(=O)c3c2CCCC3)c1

>  <Energy>  (84) 
68.31624051351113

>  <Genealogy>  (84) 
O=C(C=Cc1ccc(O)c([O-])c1)[N-]c1cccc(Cc2n[n-]c(=O)c3c2CCCC3)c1 (protonated)
O=C(/C=C/c1ccc(O)c([O-])c1)[N-]c1cccc(Cc2n[n-]c(=O)c3c2CCCC3)c1 (cis-trans isomerization)
O=C(/C=C/c1ccc(O)c([O-])c1)[N-]c1cccc(Cc2n[n-]c(=O)c3c2CCCC3)c1 (3D coordinates assigned)
O=C(/C=C/c1ccc(O)c([O-])c1)[N-]c1cccc(Cc2n[n-]c(=O)c3c2CCCC3)c1 (nonaromatic ring conformer: 68.31624051351113 kcal/mol)

>  <smiles>  (84) 
O=C(C=Cc1ccc(O)c(O)c1)Nc1cccc(Cc2n[nH]c(=O)c3c2CCCC3)c1

>  <score_type>  (84) 
oracle

>  <origin>  (84) 
adg

>  <m_score__min__energy>  (84) 
-17.170000000000002

>  <m_primary>  (84) 
energy

$$$$
84:0
     RDKit          3D

 45 47  0  0  0  0  0  0  0  0999 V2000
   58.8370   34.7980   45.2660 C   0  0  0  0  0  0  0  0  0  0  0  0
   59.3550   33.7180   46.1660 C   0  0  0  0  0  0  0  0  0  0  0  0
   60.4930   33.9360   46.8750 N   0  0  0  0  0  0  0  0  0  0  0  0
   61.0090   32.9900   47.7060 C   0  0  0  0  0  0  0  0  0  0  0  0
   62.2300   33.2440   48.4320 N   0  0  0  0  0  0  0  0  0  0  0  0
   62.2780   34.3220   49.4300 C   0  0  0  0  0  0  0  0  0  0  0  0
   63.3780   34.0430   50.4560 C   0  0  0  0  0  0  0  0  0  0  0  0
   64.6100   33.7910   49.8080 O   0  0  0  0  0  0  0  0  0  0  0  0
   64.5180   32.5770   49.0860 C   0  0  0  0  0  0  0  0  0  0  0  0
   63.5030   32.6920   47.9420 C   0  0  0  0  0  0  0  0  0  0  0  0
   60.3580   31.8050   47.8500 N   0  0  0  0  0  0  0  0  0  0  0  0
   59.2110   31.5300   47.1740 C   0  0  0  0  0  0  0  0  0  0  0  0
   58.5290   30.2180   47.4260 C   0  0  0  0  0  0  0  0  0  0  0  0
   58.7010   32.4790   46.2660 C   0  0  0  0  0  0  0  0  0  0  0  0
   57.5080   32.2340   45.5080 N   0  0  0  0  0  0  0  0  0  0  0  0
   57.4680   32.0320   44.0890 C   0  0  0  0  0  0  0  0  0  0  0  0
   57.9570   32.9150   43.3360 O   0  0  0  0  0  0  0  0  0  0  0  0
   56.9510   30.7570   43.4790 C   0  0  0  0  0  0  0  0  0  0  0  0
   57.4290   29.5700   44.2740 C   0  0  0  0  0  0  0  0  0  0  0  0
   58.8020   29.2780   44.3320 C   0  0  0  0  0  0  0  0  0  0  0  0
   59.2570   28.1660   45.0440 C   0  0  0  0  0  0  0  0  0  0  0  0
   58.3490   27.3350   45.7040 C   0  0  0  0  0  0  0  0  0  0  0  0
   56.9790   27.6120   45.6470 C   0  0  0  0  0  0  0  0  0  0  0  0
   56.5140   28.7170   44.9250 C   0  0  0  0  0  0  0  0  0  0  0  0
   55.1450   28.9640   44.8660 O   0  0  0  0  0  0  0  0  0  0  0  0
   58.4408   35.6240   45.8749 H   0  0  0  0  0  0  0  0  0  0  0  0
   59.6548   35.1699   44.6312 H   0  0  0  0  0  0  0  0  0  0  0  0
   58.0351   34.3930   44.6312 H   0  0  0  0  0  0  0  0  0  0  0  0
   62.4863   35.2764   48.9243 H   0  0  0  0  0  0  0  0  0  0  0  0
   61.3090   34.3753   49.9479 H   0  0  0  0  0  0  0  0  0  0  0  0
   63.4881   34.9169   51.1149 H   0  0  0  0  0  0  0  0  0  0  0  0
   63.0983   33.1564   51.0440 H   0  0  0  0  0  0  0  0  0  0  0  0
   65.5053   32.3320   48.6674 H   0  0  0  0  0  0  0  0  0  0  0  0
   64.1829   31.7859   49.7729 H   0  0  0  0  0  0  0  0  0  0  0  0
   63.9089   33.3553   47.1640 H   0  0  0  0  0  0  0  0  0  0  0  0
   63.3190   31.6891   47.5293 H   0  0  0  0  0  0  0  0  0  0  0  0
   58.4426   30.0519   48.5099 H   0  0  0  0  0  0  0  0  0  0  0  0
   57.5252   30.2342   46.9764 H   0  0  0  0  0  0  0  0  0  0  0  0
   59.1190   29.4057   46.9764 H   0  0  0  0  0  0  0  0  0  0  0  0
   55.8511   30.7745   43.4776 H   0  0  0  0  0  0  0  0  0  0  0  0
   57.3261   30.6738   42.4483 H   0  0  0  0  0  0  0  0  0  0  0  0
   59.5222   29.9284   43.8141 H   0  0  0  0  0  0  0  0  0  0  0  0
   60.3336   27.9440   45.0851 H   0  0  0  0  0  0  0  0  0  0  0  0
   58.7110   26.4630   46.2684 H   0  0  0  0  0  0  0  0  0  0  0  0
   56.2652   26.9595   46.1711 H   0  0  0  0  0  0  0  0  0  0  0  0
  1  2  1  0
  2  3  2  0
  3  4  1  0
  4  5  1  0
  5  6  1  0
  6  7  1  0
  7  8  1  0
  8  9  1  0
  9 10  1  0
  4 11  2  0
 11 12  1  0
 12 13  1  0
 12 14  2  0
 14 15  1  0
 15 16  1  0
 16 17  2  0
 16 18  1  0
 18 19  1  0
 19 20  2  0
 20 21  1  0
 21 22  2  0
 22 23  1  0
 23 24  2  0
 24 25  1  0
 14  2  1  0
 24 19  1  0
 10  5  1  0
  1 26  1  0
  1 27  1  0
  1 28  1  0
  6 29  1  0
  6 30  1  0
  7 31  1  0
  7 32  1  0
  9 33  1  0
  9 34  1  0
 10 35  1  0
 10 36  1  0
 13 37  1  0
 13 38  1  0
 13 39  1  0
 18 40  1  0
 18 41  1  0
 20 42  1  0
 21 43  1  0
 22 44  1  0
 23 45  1  0
M  CHG  2  15  -1  25  -1
M  END
>  <UniqueID>  (85) 
78

>  <SMILES>  (85) 
Cc1nc(N2CCOCC2)nc(C)c1[N-]C(=O)Cc1ccccc1[O-]

>  <Energy>  (85) 
52.79826475555999

>  <Genealogy>  (85) 
Cc1nc(N2CCOCC2)nc(C)c1[N-]C(=O)Cc1ccccc1[O-] (protonated)
Cc1nc(N2CCOCC2)nc(C)c1[N-]C(=O)Cc1ccccc1[O-] (3D coordinates assigned)
Cc1nc(N2CCOCC2)nc(C)c1[N-]C(=O)Cc1ccccc1[O-] (nonaromatic ring conformer: 52.79826475555999 kcal/mol)

>  <smiles>  (85) 
Cc1nc(N2CCOCC2)nc(C)c1NC(=O)Cc1ccccc1O

>  <score_type>  (85) 
oracle

>  <origin>  (85) 
adg

>  <m_score__min__energy>  (85) 
-12.279999999999999

>  <m_primary>  (85) 
energy

$$$$
85:0
     RDKit          3D

 56 59  0  0  0  0  0  0  0  0999 V2000
   59.0960   26.1680   46.0710 O   0  0  0  0  0  0  0  0  0  0  0  0
   59.6400   27.2810   45.8330 C   0  0  0  0  0  0  0  0  0  0  0  0
   59.4690   27.9490   44.4980 C   0  0  0  0  0  0  0  0  0  0  0  0
   58.3120   28.9230   44.4740 C   0  0  0  0  0  0  0  0  0  0  0  0
   58.5520   30.2590   44.1050 C   0  0  0  0  0  0  0  0  0  0  0  0
   57.5080   31.1860   44.0710 C   0  0  0  0  0  0  0  0  0  0  0  0
   56.2140   30.7930   44.4110 C   0  0  0  0  0  0  0  0  0  0  0  0
   55.9610   29.4750   44.7940 C   0  0  0  0  0  0  0  0  0  0  0  0
   56.9980   28.5350   44.8370 C   0  0  0  0  0  0  0  0  0  0  0  0
   56.6910   27.2370   45.2500 O   0  0  0  0  0  0  0  0  0  0  0  0
   60.4180   27.9410   46.8390 N   0  0  0  0  0  0  0  0  0  0  0  0
   59.9150   28.6170   48.0000 C   0  0  0  0  0  0  0  0  0  0  0  0
   59.1510   29.7760   47.8220 C   0  0  0  0  0  0  0  0  0  0  0  0
   58.6600   30.4790   48.9270 C   0  0  0  0  0  0  0  0  0  0  0  0
   58.9470   30.0450   50.2310 C   0  0  0  0  0  0  0  0  0  0  0  0
   58.4310   30.7610   51.3700 N   0  0  0  0  0  0  0  0  0  0  0  0
   58.6310   30.2670   52.7350 C   0  0  0  0  0  0  0  0  0  0  0  0
   57.2800   30.1420   53.4700 C   0  0  0  0  0  0  0  0  0  0  0  0
   56.2320   31.0730   52.9710 N   0  0  0  0  0  0  0  0  0  0  0  0
   55.2790   30.3950   52.0620 C   0  0  0  0  0  0  0  0  0  0  0  0
   53.8530   30.7310   52.4120 C   0  0  0  0  0  0  0  0  0  0  0  0
   53.2840   30.2360   53.5970 C   0  0  0  0  0  0  0  0  0  0  0  0
   51.9680   30.5620   53.9360 C   0  0  0  0  0  0  0  0  0  0  0  0
   51.2120   31.3860   53.0980 C   0  0  0  0  0  0  0  0  0  0  0  0
   51.7720   31.8870   51.9180 C   0  0  0  0  0  0  0  0  0  0  0  0
   51.0190   32.7080   51.0870 O   0  0  0  0  0  0  0  0  0  0  0  0
   53.0880   31.5610   51.5750 C   0  0  0  0  0  0  0  0  0  0  0  0
   56.8090   32.3140   52.3980 C   0  0  0  0  0  0  0  0  0  0  0  0
   57.7040   32.0210   51.1830 C   0  0  0  0  0  0  0  0  0  0  0  0
   59.7260   28.8900   50.4090 C   0  0  0  0  0  0  0  0  0  0  0  0
   60.2160   28.1860   49.3040 C   0  0  0  0  0  0  0  0  0  0  0  0
   60.3931   28.4950   44.2572 H   0  0  0  0  0  0  0  0  0  0  0  0
   59.2554   27.1626   43.7591 H   0  0  0  0  0  0  0  0  0  0  0  0
   59.5715   30.5766   43.8408 H   0  0  0  0  0  0  0  0  0  0  0  0
   57.7066   32.2269   43.7758 H   0  0  0  0  0  0  0  0  0  0  0  0
   55.3916   31.5227   44.3773 H   0  0  0  0  0  0  0  0  0  0  0  0
   54.9386   29.1721   45.0643 H   0  0  0  0  0  0  0  0  0  0  0  0
   57.2390   26.4270   44.9920 H   0  0  0  0  0  0  0  0  0  0  0  0
   58.9351   30.1368   46.8055 H   0  0  0  0  0  0  0  0  0  0  0  0
   58.0449   31.3779   48.7733 H   0  0  0  0  0  0  0  0  0  0  0  0
   59.1137   29.2794   52.6951 H   0  0  0  0  0  0  0  0  0  0  0  0
   59.2673   30.9794   53.2806 H   0  0  0  0  0  0  0  0  0  0  0  0
   56.9140   29.1118   53.3485 H   0  0  0  0  0  0  0  0  0  0  0  0
   57.4643   30.4043   54.5223 H   0  0  0  0  0  0  0  0  0  0  0  0
   55.4793   30.7160   51.0291 H   0  0  0  0  0  0  0  0  0  0  0  0
   55.4145   29.3083   52.1659 H   0  0  0  0  0  0  0  0  0  0  0  0
   53.8766   29.5892   54.2608 H   0  0  0  0  0  0  0  0  0  0  0  0
   51.5266   30.1694   54.8639 H   0  0  0  0  0  0  0  0  0  0  0  0
   50.1761   31.6408   53.3663 H   0  0  0  0  0  0  0  0  0  0  0  0
   53.5260   31.9558   50.6464 H   0  0  0  0  0  0  0  0  0  0  0  0
   55.9885   32.9760   52.0841 H   0  0  0  0  0  0  0  0  0  0  0  0
   57.4289   32.7910   53.1714 H   0  0  0  0  0  0  0  0  0  0  0  0
   57.0775   31.9467   50.2819 H   0  0  0  0  0  0  0  0  0  0  0  0
   58.4323   32.8381   51.0734 H   0  0  0  0  0  0  0  0  0  0  0  0
   59.9526   28.5361   51.4256 H   0  0  0  0  0  0  0  0  0  0  0  0
   60.8389   27.2922   49.4558 H   0  0  0  0  0  0  0  0  0  0  0  0
  1  2  2  0
  2  3  1  0
  3  4  1  0
  4  5  2  0
  5  6  1  0
  6  7  2  0
  7  8  1  0
  8  9  2  0
  9 10  1  0
  2 11  1  0
 11 12  1  0
 12 13  2  0
 13 14  1  0
 14 15  2  0
 15 16  1  0
 16 17  1  0
 17 18  1  0
 18 19  1  0
 19 20  1  0
 20 21  1  0
 21 22  2  0
 22 23  1  0
 23 24  2  0
 24 25  1  0
 25 26  1  0
 25 27  2  0
 19 28  1  0
 28 29  1  0
 15 30  1  0
 30 31  2  0
  9  4  1  0
 31 12  1  0
 29 16  1  0
 27 21  1  0
  3 32  1  0
  3 33  1  0
  5 34  1  0
  6 35  1  0
  7 36  1  0
  8 37  1  0
 10 38  1  0
 13 39  1  0
 14 40  1  0
 17 41  1  0
 17 42  1  0
 18 43  1  0
 18 44  1  0
 20 45  1  0
 20 46  1  0
 22 47  1  0
 23 48  1  0
 24 49  1  0
 27 50  1  0
 28 51  1  0
 28 52  1  0
 29 53  1  0
 29 54  1  0
 30 55  1  0
 31 56  1  0
M  CHG  2  11  -1  26  -1
M  END
>  <UniqueID>  (86) 
79

>  <SMILES>  (86) 
O=C(Cc1ccccc1O)[N-]c1ccc(N2CCN(Cc3cccc([O-])c3)CC2)cc1

>  <Energy>  (86) 
76.90216170651765

>  <Genealogy>  (86) 
O=C(Cc1ccccc1O)[N-]c1ccc(N2CCN(Cc3cccc([O-])c3)CC2)cc1 (protonated)
O=C(Cc1ccccc1O)[N-]c1ccc(N2CCN(Cc3cccc([O-])c3)CC2)cc1 (3D coordinates assigned)
O=C(Cc1ccccc1O)[N-]c1ccc(N2CCN(Cc3cccc([O-])c3)CC2)cc1 (nonaromatic ring conformer: 76.90216170651765 kcal/mol)

>  <smiles>  (86) 
O=C(Cc1ccccc1O)Nc1ccc(N2CCN(Cc3cccc(O)c3)CC2)cc1

>  <score_type>  (86) 
oracle

>  <origin>  (86) 
adg

>  <m_score__min__energy>  (86) 
-13.92

>  <m_primary>  (86) 
energy

$$$$
86:0
     RDKit          3D

 37 39  0  0  0  0  0  0  0  0999 V2000
   59.2250   28.9770   44.2270 O   0  0  0  0  0  0  0  0  0  0  0  0
   58.5320   29.0270   45.2780 C   0  0  0  0  0  0  0  0  0  0  0  0
   57.7130   27.8590   45.6630 C   0  0  0  0  0  0  0  0  0  0  0  0
   58.2330   26.6300   46.0850 C   0  0  0  0  0  0  0  0  0  0  0  0
   59.5760   26.3180   46.2750 O   0  0  0  0  0  0  0  0  0  0  0  0
   56.9740   25.5500   46.3770 S   0  0  0  0  0  0  0  0  0  0  0  0
   55.7540   26.6280   45.9670 C   0  0  0  0  0  0  0  0  0  0  0  0
   54.3960   26.3400   45.9910 O   0  0  0  0  0  0  0  0  0  0  0  0
   56.3090   27.8410   45.5940 C   0  0  0  0  0  0  0  0  0  0  0  0
   55.5420   28.9210   45.1720 O   0  0  0  0  0  0  0  0  0  0  0  0
   58.5190   30.2400   46.0580 N   0  0  0  0  0  0  0  0  0  0  0  0
   57.6400   31.3590   45.6740 C   0  0  0  0  0  0  0  0  0  0  0  0
   58.2940   32.6930   45.9490 C   0  0  0  0  0  0  0  0  0  0  0  0
   58.3050   33.2260   47.2500 C   0  0  0  0  0  0  0  0  0  0  0  0
   58.9010   34.4650   47.5010 C   0  0  0  0  0  0  0  0  0  0  0  0
   59.4810   35.1880   46.4560 C   0  0  0  0  0  0  0  0  0  0  0  0
   59.4570   34.6770   45.1560 C   0  0  0  0  0  0  0  0  0  0  0  0
   58.8610   33.4390   44.9000 C   0  0  0  0  0  0  0  0  0  0  0  0
   59.3620   30.3270   47.2270 C   0  0  0  0  0  0  0  0  0  0  0  0
   58.8620   29.9430   48.4860 C   0  0  0  0  0  0  0  0  0  0  0  0
   59.6710   30.0180   49.6240 C   0  0  0  0  0  0  0  0  0  0  0  0
   60.9850   30.4780   49.5200 C   0  0  0  0  0  0  0  0  0  0  0  0
   61.7880   30.5520   50.6520 O   0  0  0  0  0  0  0  0  0  0  0  0
   61.4920   30.8640   48.2760 C   0  0  0  0  0  0  0  0  0  0  0  0
   60.6870   30.7900   47.1360 C   0  0  0  0  0  0  0  0  0  0  0  0
   60.3200   26.9210   45.9490 H   0  0  0  0  0  0  0  0  0  0  0  0
   57.4153   31.2852   44.5997 H   0  0  0  0  0  0  0  0  0  0  0  0
   56.7181   31.2957   46.2708 H   0  0  0  0  0  0  0  0  0  0  0  0
   57.8419   32.6647   48.0749 H   0  0  0  0  0  0  0  0  0  0  0  0
   58.9134   34.8714   48.5231 H   0  0  0  0  0  0  0  0  0  0  0  0
   59.9565   36.1594   46.6566 H   0  0  0  0  0  0  0  0  0  0  0  0
   59.9080   35.2500   44.3324 H   0  0  0  0  0  0  0  0  0  0  0  0
   58.8352   33.0460   43.8729 H   0  0  0  0  0  0  0  0  0  0  0  0
   57.8270   29.5812   48.5750 H   0  0  0  0  0  0  0  0  0  0  0  0
   59.2715   29.7141   50.6028 H   0  0  0  0  0  0  0  0  0  0  0  0
   62.5272   31.2269   48.1941 H   0  0  0  0  0  0  0  0  0  0  0  0
   61.0926   31.0961   46.1604 H   0  0  0  0  0  0  0  0  0  0  0  0
  1  2  2  0
  2  3  1  0
  3  4  2  0
  4  5  1  0
  4  6  1  0
  6  7  1  0
  7  8  1  0
  7  9  2  0
  9 10  1  0
  2 11  1  0
 11 12  1  0
 12 13  1  0
 13 14  2  0
 14 15  1  0
 15 16  2  0
 16 17  1  0
 17 18  2  0
 11 19  1  0
 19 20  2  0
 20 21  1  0
 21 22  2  0
 22 23  1  0
 22 24  1  0
 24 25  2  0
  9  3  1  0
 18 13  1  0
 25 19  1  0
  5 26  1  0
 12 27  1  0
 12 28  1  0
 14 29  1  0
 15 30  1  0
 16 31  1  0
 17 32  1  0
 18 33  1  0
 20 34  1  0
 21 35  1  0
 24 36  1  0
 25 37  1  0
M  CHG  3   8  -1  10  -1  23  -1
M  END
>  <UniqueID>  (87) 
80

>  <SMILES>  (87) 
O=C(c1c(O)sc([O-])c1[O-])N(Cc1ccccc1)c1ccc([O-])cc1

>  <Energy>  (87) 
78.8464762427402

>  <Genealogy>  (87) 
O=C(c1c(O)sc([O-])c1[O-])N(Cc1ccccc1)c1ccc([O-])cc1 (protonated)
O=C(c1c(O)sc([O-])c1[O-])N(Cc1ccccc1)c1ccc([O-])cc1 (3D coordinates assigned)
O=C(c1c(O)sc([O-])c1[O-])N(Cc1ccccc1)c1ccc([O-])cc1 (optimized conformer: 78.8464762427402 kcal/mol)

>  <smiles>  (87) 
O=C(c1c(O)sc(O)c1O)N(Cc1ccccc1)c1ccc(O)cc1

>  <score_type>  (87) 
oracle

>  <origin>  (87) 
adg

>  <m_score__min__energy>  (87) 
-14.300000000000001

>  <m_primary>  (87) 
energy

$$$$
87:0
     RDKit          3D

 77 81  0  0  0  0  0  0  0  0999 V2000
   59.9628   35.1932   43.8772 H   0  0  0  0  0  0  0  0  0  0  0  0
   59.4300   34.6040   44.6380 C   0  0  0  0  0  0  0  0  0  0  0  0
   59.5560   34.9340   45.9900 C   0  0  0  0  0  0  0  0  0  0  0  0
   60.1930   35.7781   46.2928 H   0  0  0  0  0  0  0  0  0  0  0  0
   58.8720   34.1910   46.9590 C   0  0  0  0  0  0  0  0  0  0  0  0
   58.9890   34.5170   48.2700 F   0  0  0  0  0  0  0  0  0  0  0  0
   58.0700   33.1100   46.5760 C   0  0  0  0  0  0  0  0  0  0  0  0
   57.5281   32.5318   47.3389 H   0  0  0  0  0  0  0  0  0  0  0  0
   57.9550   32.7610   45.2190 C   0  0  0  0  0  0  0  0  0  0  0  0
   57.0700   31.6190   44.8110 C   0  0  0  0  0  0  0  0  0  0  0  0
   57.0935   31.5091   43.7168 H   0  0  0  0  0  0  0  0  0  0  0  0
   56.0383   31.8189   45.1362 H   0  0  0  0  0  0  0  0  0  0  0  0
   57.5480   30.3900   45.4340 N   0  0  0  0  0  0  0  0  0  0  0  0
   56.8900   29.1220   45.3340 C   0  0  0  0  0  0  0  0  0  0  0  0
   55.6490   29.0980   45.1380 O   0  0  0  0  0  0  0  0  0  0  0  0
   57.6210   27.8500   45.5130 C   0  0  0  0  0  0  0  0  0  0  0  0
   57.3920   26.7660   44.6430 C   0  0  0  0  0  0  0  0  0  0  0  0
   56.6429   26.8607   43.8431 H   0  0  0  0  0  0  0  0  0  0  0  0
   58.1090   25.5640   44.7840 C   0  0  0  0  0  0  0  0  0  0  0  0
   57.9042   24.7250   44.1027 H   0  0  0  0  0  0  0  0  0  0  0  0
   59.0890   25.4230   45.7910 C   0  0  0  0  0  0  0  0  0  0  0  0
   59.8330   24.2460   45.9670 O   0  0  0  0  0  0  0  0  0  0  0  0
   59.6050   23.0390   45.2460 C   0  0  0  0  0  0  0  0  0  0  0  0
   59.4489   22.2124   45.9548 H   0  0  0  0  0  0  0  0  0  0  0  0
   58.7125   23.1529   44.6132 H   0  0  0  0  0  0  0  0  0  0  0  0
   60.4776   22.8195   44.6132 H   0  0  0  0  0  0  0  0  0  0  0  0
   59.3230   26.5090   46.6390 C   0  0  0  0  0  0  0  0  0  0  0  0
   60.2330   26.4980   47.6460 N   0  0  0  0  0  0  0  0  0  0  0  0
   60.2520   27.6790   48.3050 C   0  0  0  0  0  0  0  0  0  0  0  0
   61.0260   27.8740   49.3310 N   0  0  0  0  0  0  0  0  0  0  0  0
   60.6310   28.2410   50.6600 C   0  0  0  0  0  0  0  0  0  0  0  0
   61.1750   27.6560   51.6320 O   0  0  0  0  0  0  0  0  0  0  0  0
   59.7150   29.3220   50.8960 N   0  0  0  0  0  0  0  0  0  0  0  0
   59.3490   29.8770   50.0880 H   0  0  0  0  0  0  0  0  0  0  0  0
   59.4310   29.8180   52.2430 C   0  0  0  0  0  0  0  0  0  0  0  0
   59.5970   29.0095   52.9701 H   0  0  0  0  0  0  0  0  0  0  0  0
   60.0994   30.6638   52.4617 H   0  0  0  0  0  0  0  0  0  0  0  0
   57.9930   30.2880   52.3370 C   0  0  0  0  0  0  0  0  0  0  0  0
   56.9900   29.3020   52.4280 C   0  0  0  0  0  0  0  0  0  0  0  0
   57.2745   28.2401   52.4664 H   0  0  0  0  0  0  0  0  0  0  0  0
   55.6420   29.6550   52.4700 C   0  0  0  0  0  0  0  0  0  0  0  0
   54.8714   28.8730   52.5381 H   0  0  0  0  0  0  0  0  0  0  0  0
   55.2700   30.9940   52.4260 C   0  0  0  0  0  0  0  0  0  0  0  0
   54.2050   31.2690   52.4362 H   0  0  0  0  0  0  0  0  0  0  0  0
   56.2450   31.9880   52.3690 C   0  0  0  0  0  0  0  0  0  0  0  0
   55.9404   33.0445   52.3376 H   0  0  0  0  0  0  0  0  0  0  0  0
   57.6150   31.6600   52.3510 C   0  0  0  0  0  0  0  0  0  0  0  0
   58.8150   32.9740   52.3470 S   0  0  0  0  0  0  0  0  0  0  0  0
   60.0510   32.5050   53.0600 O   0  0  0  0  0  0  0  0  0  0  0  0
   58.2550   34.1750   53.0610 O   0  0  0  0  0  0  0  0  0  0  0  0
   59.2960   33.4880   50.6950 C   0  0  0  0  0  0  0  0  0  0  0  0
   58.4604   34.0393   50.2392 H   0  0  0  0  0  0  0  0  0  0  0  0
   60.1923   34.1190   50.7877 H   0  0  0  0  0  0  0  0  0  0  0  0
   59.6470   32.3160   49.8060 C   0  0  0  0  0  0  0  0  0  0  0  0
   58.7370   31.4970   49.5030 O   0  0  0  0  0  0  0  0  0  0  0  0
   60.9700   32.1570   49.2370 N   0  0  0  0  0  0  0  0  0  0  0  0
   61.2580   31.0490   48.3170 C   0  0  0  0  0  0  0  0  0  0  0  0
   61.8422   30.2805   48.8443 H   0  0  0  0  0  0  0  0  0  0  0  0
   60.3097   30.6193   47.9620 H   0  0  0  0  0  0  0  0  0  0  0  0
   62.0620   31.5610   47.1110 C   0  0  0  0  0  0  0  0  0  0  0  0
   62.4595   30.6919   46.5664 H   0  0  0  0  0  0  0  0  0  0  0  0
   61.3723   32.1640   46.5021 H   0  0  0  0  0  0  0  0  0  0  0  0
   63.2020   32.4470   47.4740 N   0  0  0  0  0  0  0  0  0  0  0  0
   63.1420   33.7300   46.7510 C   0  0  0  0  0  0  0  0  0  0  0  0
   63.1033   34.5573   47.4749 H   0  0  0  0  0  0  0  0  0  0  0  0
   64.0361   33.8370   46.1193 H   0  0  0  0  0  0  0  0  0  0  0  0
   62.2418   33.7531   46.1193 H   0  0  0  0  0  0  0  0  0  0  0  0
   63.3850   32.6500   48.9280 C   0  0  0  0  0  0  0  0  0  0  0  0
   63.7579   31.7152   49.3720 H   0  0  0  0  0  0  0  0  0  0  0  0
   64.1017   33.4729   49.0664 H   0  0  0  0  0  0  0  0  0  0  0  0
   62.0770   33.0420   49.6280 C   0  0  0  0  0  0  0  0  0  0  0  0
   62.2204   32.9754   50.7166 H   0  0  0  0  0  0  0  0  0  0  0  0
   61.8199   34.0688   49.3288 H   0  0  0  0  0  0  0  0  0  0  0  0
   59.1130   28.7740   47.6830 S   0  0  0  0  0  0  0  0  0  0  0  0
   58.6060   27.6910   46.4970 C   0  0  0  0  0  0  0  0  0  0  0  0
   58.6270   33.5250   44.2500 C   0  0  0  0  0  0  0  0  0  0  0  0
   58.5219   33.2747   43.1840 H   0  0  0  0  0  0  0  0  0  0  0  0
  1  2  1  0
  2  3  2  0
  3  4  1  0
  3  5  1  0
  5  6  1  0
  5  7  2  0
  7  8  1  0
  7  9  1  0
  9 10  1  0
 10 11  1  0
 10 12  1  0
 10 13  1  0
 13 14  1  0
 14 15  2  0
 14 16  1  0
 16 17  2  0
 17 18  1  0
 17 19  1  0
 19 20  1  0
 19 21  2  0
 21 22  1  0
 22 23  1  0
 23 24  1  0
 23 25  1  0
 23 26  1  0
 21 27  1  0
 27 28  1  0
 28 29  1  0
 29 30  2  0
 30 31  1  0
 31 32  2  0
 31 33  1  0
 33 34  1  0
 33 35  1  0
 35 36  1  0
 35 37  1  0
 35 38  1  0
 38 39  2  0
 39 40  1  0
 39 41  1  0
 41 42  1  0
 41 43  2  0
 43 44  1  0
 43 45  1  0
 45 46  1  0
 45 47  2  0
 47 48  1  0
 48 49  2  0
 48 50  2  0
 48 51  1  0
 51 52  1  0
 51 53  1  0
 51 54  1  0
 54 55  2  0
 54 56  1  0
 56 57  1  0
 57 58  1  0
 57 59  1  0
 57 60  1  0
 60 61  1  0
 60 62  1  0
 60 63  1  0
 63 64  1  0
 64 65  1  0
 64 66  1  0
 64 67  1  0
 63 68  1  0
 68 69  1  0
 68 70  1  0
 68 71  1  0
 71 72  1  0
 71 73  1  0
 29 74  1  0
 74 75  1  0
  9 76  2  0
 76 77  1  0
 76  2  1  0
 75 16  1  0
 75 27  2  0
 47 38  1  0
 71 56  1  0
M  CHG  2  13  -1  28  -1
M  END
>  <UniqueID>  (88) 
81

>  <SMILES>  (88) 
COc1ccc(C(=O)[N-]Cc2cccc(F)c2)c2s/c(=N\C(=O)NCc3ccccc3S(=O)(=O)CC(=O)N3CCN(C)CC3)[n-]c12

>  <Energy>  (88) 
135.5636889929863

>  <Genealogy>  (88) 
COc1ccc(C(=O)[N-]Cc2cccc(F)c2)c2sc(=NC(=O)NCc3ccccc3S(=O)(=O)CC(=O)N3CCN(C)CC3)[n-]c12 (protonated)
COc1ccc(C(=O)[N-]Cc2cccc(F)c2)c2s/c(=N\C(=O)NCc3ccccc3S(=O)(=O)CC(=O)N3CCN(C)CC3)[n-]c12 (cis-trans isomerization)
COc1ccc(C(=O)[N-]Cc2cccc(F)c2)c2s/c(=N\C(=O)NCc3ccccc3S(=O)(=O)CC(=O)N3CCN(C)CC3)[n-]c12 (3D coordinates assigned)
COc1ccc(C(=O)[N-]Cc2cccc(F)c2)c2s/c(=N\C(=O)NCc3ccccc3S(=O)(=O)CC(=O)N3CCN(C)CC3)[n-]c12 (nonaromatic ring conformer: 135.5636889929863 kcal/mol)

>  <smiles>  (88) 
COc1ccc(C(=O)NCc2cccc(F)c2)c2sc(=NC(=O)NCc3ccccc3S(=O)(=O)CC(=O)N3CCN(C)CC3)[nH]c12

>  <score_type>  (88) 
oracle

>  <origin>  (88) 
adg

>  <m_score__min__energy>  (88) 
-12.77

>  <m_primary>  (88) 
energy

$$$$
88:0
     RDKit          3D

 61 64  0  0  0  0  0  0  0  0999 V2000
   59.2160   34.9830   47.1190 C   0  0  0  0  0  0  0  0  0  0  0  0
   58.7150   34.0370   46.0710 C   0  0  0  0  0  0  0  0  0  0  0  0
   58.0250   32.8740   46.4330 C   0  0  0  0  0  0  0  0  0  0  0  0
   57.5820   32.0000   45.4380 C   0  0  0  0  0  0  0  0  0  0  0  0
   57.8290   32.2920   44.0910 C   0  0  0  0  0  0  0  0  0  0  0  0
   57.3870   31.3530   43.0000 C   0  0  0  0  0  0  0  0  0  0  0  0
   56.2190   30.5990   43.4410 N   0  0  0  0  0  0  0  0  0  0  0  0
   56.2910   29.5230   44.3800 C   0  0  0  0  0  0  0  0  0  0  0  0
   55.3540   29.3380   45.2050 O   0  0  0  0  0  0  0  0  0  0  0  0
   57.4440   28.6760   44.3950 N   0  0  0  0  0  0  0  0  0  0  0  0
   57.6090   27.6650   45.3940 C   0  0  0  0  0  0  0  0  0  0  0  0
   56.5630   26.7610   45.6290 C   0  0  0  0  0  0  0  0  0  0  0  0
   56.7030   25.7500   46.5850 C   0  0  0  0  0  0  0  0  0  0  0  0
   57.8820   25.6450   47.3200 C   0  0  0  0  0  0  0  0  0  0  0  0
   58.9320   26.5400   47.0900 C   0  0  0  0  0  0  0  0  0  0  0  0
   58.8150   27.5510   46.1200 C   0  0  0  0  0  0  0  0  0  0  0  0
   59.9360   28.5000   45.9160 C   0  0  0  0  0  0  0  0  0  0  0  0
   60.1710   28.9470   44.7610 O   0  0  0  0  0  0  0  0  0  0  0  0
   60.7380   28.9650   47.0020 N   0  0  0  0  0  0  0  0  0  0  0  0
   60.4670   30.1280   47.7920 C   0  0  0  0  0  0  0  0  0  0  0  0
   59.3130   30.2180   48.5860 C   0  0  0  0  0  0  0  0  0  0  0  0
   59.0810   31.3610   49.3550 C   0  0  0  0  0  0  0  0  0  0  0  0
   59.9910   32.4250   49.3250 C   0  0  0  0  0  0  0  0  0  0  0  0
   61.1380   32.3460   48.5240 C   0  0  0  0  0  0  0  0  0  0  0  0
   62.2530   33.7080   48.4210 S   0  0  0  0  0  0  0  0  0  0  0  0
   62.5740   33.9810   46.9770 O   0  0  0  0  0  0  0  0  0  0  0  0
   61.5710   34.9300   48.9740 O   0  0  0  0  0  0  0  0  0  0  0  0
   63.7360   33.4300   49.3110 N   0  0  0  0  0  0  0  0  0  0  0  0
   64.1260   32.0040   49.3390 C   0  0  0  0  0  0  0  0  0  0  0  0
   63.3970   31.1950   50.4410 C   0  0  0  0  0  0  0  0  0  0  0  0
   62.6570   32.0040   51.3330 O   0  0  0  0  0  0  0  0  0  0  0  0
   63.4580   33.0700   51.7840 C   0  0  0  0  0  0  0  0  0  0  0  0
   63.7320   34.0670   50.6440 C   0  0  0  0  0  0  0  0  0  0  0  0
   61.3860   31.1820   47.7880 C   0  0  0  0  0  0  0  0  0  0  0  0
   58.5380   33.4610   43.7730 C   0  0  0  0  0  0  0  0  0  0  0  0
   58.9610   34.2940   44.7580 N   0  0  0  0  0  0  0  0  0  0  0  0
   58.9991   34.5734   48.1166 H   0  0  0  0  0  0  0  0  0  0  0  0
   60.3021   35.1148   47.0050 H   0  0  0  0  0  0  0  0  0  0  0  0
   58.7147   35.9555   47.0050 H   0  0  0  0  0  0  0  0  0  0  0  0
   57.8333   32.6504   47.4928 H   0  0  0  0  0  0  0  0  0  0  0  0
   57.0396   31.0831   45.7121 H   0  0  0  0  0  0  0  0  0  0  0  0
   57.1296   31.9326   42.1012 H   0  0  0  0  0  0  0  0  0  0  0  0
   58.2045   30.6543   42.7686 H   0  0  0  0  0  0  0  0  0  0  0  0
   58.2510   28.9080   43.7800 H   0  0  0  0  0  0  0  0  0  0  0  0
   55.6268   26.8477   45.0580 H   0  0  0  0  0  0  0  0  0  0  0  0
   55.8825   25.0378   46.7567 H   0  0  0  0  0  0  0  0  0  0  0  0
   57.9871   24.8580   48.0814 H   0  0  0  0  0  0  0  0  0  0  0  0
   59.8596   26.4519   47.6746 H   0  0  0  0  0  0  0  0  0  0  0  0
   58.5911   29.3882   48.6027 H   0  0  0  0  0  0  0  0  0  0  0  0
   58.1818   31.4254   49.9853 H   0  0  0  0  0  0  0  0  0  0  0  0
   59.8051   33.3240   49.9310 H   0  0  0  0  0  0  0  0  0  0  0  0
   63.8889   31.5572   48.3622 H   0  0  0  0  0  0  0  0  0  0  0  0
   65.2026   31.9632   49.5608 H   0  0  0  0  0  0  0  0  0  0  0  0
   62.7070   30.4885   49.9564 H   0  0  0  0  0  0  0  0  0  0  0  0
   64.1694   30.6814   51.0322 H   0  0  0  0  0  0  0  0  0  0  0  0
   62.9384   33.5909   52.6017 H   0  0  0  0  0  0  0  0  0  0  0  0
   64.4179   32.6653   52.1372 H   0  0  0  0  0  0  0  0  0  0  0  0
   62.9514   34.8418   50.6603 H   0  0  0  0  0  0  0  0  0  0  0  0
   64.7334   34.4909   50.8100 H   0  0  0  0  0  0  0  0  0  0  0  0
   62.3122   31.0953   47.2010 H   0  0  0  0  0  0  0  0  0  0  0  0
   58.7517   33.7031   42.7215 H   0  0  0  0  0  0  0  0  0  0  0  0
  1  2  1  0
  2  3  2  0
  3  4  1  0
  4  5  2  0
  5  6  1  0
  6  7  1  0
  7  8  1  0
  8  9  2  0
  8 10  1  0
 10 11  1  0
 11 12  2  0
 12 13  1  0
 13 14  2  0
 14 15  1  0
 15 16  2  0
 16 17  1  0
 17 18  2  0
 17 19  1  0
 19 20  1  0
 20 21  2  0
 21 22  1  0
 22 23  2  0
 23 24  1  0
 24 25  1  0
 25 26  2  0
 25 27  2  0
 25 28  1  0
 28 29  1  0
 29 30  1  0
 30 31  1  0
 31 32  1  0
 32 33  1  0
 24 34  2  0
  5 35  1  0
 35 36  2  0
 36  2  1  0
 16 11  1  0
 34 20  1  0
 33 28  1  0
  1 37  1  0
  1 38  1  0
  1 39  1  0
  3 40  1  0
  4 41  1  0
  6 42  1  0
  6 43  1  0
 10 44  1  0
 12 45  1  0
 13 46  1  0
 14 47  1  0
 15 48  1  0
 21 49  1  0
 22 50  1  0
 23 51  1  0
 29 52  1  0
 29 53  1  0
 30 54  1  0
 30 55  1  0
 32 56  1  0
 32 57  1  0
 33 58  1  0
 33 59  1  0
 34 60  1  0
 35 61  1  0
M  CHG  2   7  -1  19  -1
M  END
>  <UniqueID>  (89) 
82

>  <SMILES>  (89) 
Cc1ccc(C[N-]C(=O)Nc2ccccc2C(=O)[N-]c2cccc(S(=O)(=O)N3CCOCC3)c2)cn1

>  <Energy>  (89) 
85.06681099489965

>  <Genealogy>  (89) 
Cc1ccc(C[N-]C(=O)Nc2ccccc2C(=O)[N-]c2cccc(S(=O)(=O)N3CCOCC3)c2)cn1 (protonated)
Cc1ccc(C[N-]C(=O)Nc2ccccc2C(=O)[N-]c2cccc(S(=O)(=O)N3CCOCC3)c2)cn1 (3D coordinates assigned)
Cc1ccc(C[N-]C(=O)Nc2ccccc2C(=O)[N-]c2cccc(S(=O)(=O)N3CCOCC3)c2)cn1 (nonaromatic ring conformer: 85.06681099489965 kcal/mol)

>  <smiles>  (89) 
Cc1ccc(CNC(=O)Nc2ccccc2C(=O)Nc2cccc(S(=O)(=O)N3CCOCC3)c2)cn1

>  <score_type>  (89) 
oracle

>  <origin>  (89) 
adg

>  <m_score__min__energy>  (89) 
-14.83

>  <m_primary>  (89) 
energy

$$$$
89:0
     RDKit          3D

 46 48  0  0  0  0  0  0  0  0999 V2000
   51.6330   22.4780   46.5420 C   0  0  0  0  0  0  0  0  0  0  0  0
   53.0050   23.0390   46.3210 C   0  0  0  0  0  0  0  0  0  0  0  0
   53.3040   23.7700   45.1580 C   0  0  0  0  0  0  0  0  0  0  0  0
   54.5970   24.2570   44.9450 C   0  0  0  0  0  0  0  0  0  0  0  0
   55.6120   24.0140   45.8860 C   0  0  0  0  0  0  0  0  0  0  0  0
   57.0170   24.4850   45.6330 C   0  0  0  0  0  0  0  0  0  0  0  0
   57.0040   25.8960   45.2530 N   0  0  0  0  0  0  0  0  0  0  0  0
   58.0410   26.8080   45.6470 C   0  0  0  0  0  0  0  0  0  0  0  0
   59.0110   26.3950   46.3390 O   0  0  0  0  0  0  0  0  0  0  0  0
   57.9630   28.2450   45.2960 C   0  0  0  0  0  0  0  0  0  0  0  0
   59.1510   28.9670   45.0860 C   0  0  0  0  0  0  0  0  0  0  0  0
   59.1130   30.3280   44.7780 C   0  0  0  0  0  0  0  0  0  0  0  0
   57.8830   30.9940   44.6650 C   0  0  0  0  0  0  0  0  0  0  0  0
   57.7960   32.3920   44.3570 N   0  0  0  0  0  0  0  0  0  0  0  0
   58.0640   33.6830   45.4840 S   0  0  0  0  0  0  0  0  0  0  0  0
   58.1980   34.9770   44.7320 O   0  0  0  0  0  0  0  0  0  0  0  0
   56.8880   33.7840   46.4150 O   0  0  0  0  0  0  0  0  0  0  0  0
   59.5540   33.3860   46.3730 C   0  0  0  0  0  0  0  0  0  0  0  0
   59.6070   32.4150   47.3840 C   0  0  0  0  0  0  0  0  0  0  0  0
   60.8050   32.1750   48.0650 C   0  0  0  0  0  0  0  0  0  0  0  0
   61.9560   32.9030   47.7390 C   0  0  0  0  0  0  0  0  0  0  0  0
   63.5910   32.5720   48.6670 Br  0  0  0  0  0  0  0  0  0  0  0  0
   61.9050   33.8750   46.7330 C   0  0  0  0  0  0  0  0  0  0  0  0
   60.7080   34.1150   46.0510 C   0  0  0  0  0  0  0  0  0  0  0  0
   56.6960   30.2740   44.8470 C   0  0  0  0  0  0  0  0  0  0  0  0
   56.7280   28.9090   45.1510 C   0  0  0  0  0  0  0  0  0  0  0  0
   55.5250   28.2190   45.2700 O   0  0  0  0  0  0  0  0  0  0  0  0
   55.3170   23.2650   47.0370 C   0  0  0  0  0  0  0  0  0  0  0  0
   54.0230   22.7820   47.2530 C   0  0  0  0  0  0  0  0  0  0  0  0
   51.4389   22.3986   47.6218 H   0  0  0  0  0  0  0  0  0  0  0  0
   50.8866   23.1431   46.0832 H   0  0  0  0  0  0  0  0  0  0  0  0
   51.5665   21.4805   46.0832 H   0  0  0  0  0  0  0  0  0  0  0  0
   52.5175   23.9595   44.4127 H   0  0  0  0  0  0  0  0  0  0  0  0
   54.8212   24.8337   44.0355 H   0  0  0  0  0  0  0  0  0  0  0  0
   57.6151   24.3584   46.5475 H   0  0  0  0  0  0  0  0  0  0  0  0
   57.4578   23.8928   44.8175 H   0  0  0  0  0  0  0  0  0  0  0  0
   56.1110   26.2790   44.8700 H   0  0  0  0  0  0  0  0  0  0  0  0
   60.1208   28.4539   45.1652 H   0  0  0  0  0  0  0  0  0  0  0  0
   60.0513   30.8808   44.6232 H   0  0  0  0  0  0  0  0  0  0  0  0
   58.7046   31.8412   47.6418 H   0  0  0  0  0  0  0  0  0  0  0  0
   60.8431   31.4133   48.8577 H   0  0  0  0  0  0  0  0  0  0  0  0
   62.8073   34.4505   46.4787 H   0  0  0  0  0  0  0  0  0  0  0  0
   60.6714   34.8780   45.2595 H   0  0  0  0  0  0  0  0  0  0  0  0
   55.7279   30.7873   44.7499 H   0  0  0  0  0  0  0  0  0  0  0  0
   56.1083   23.0574   47.7723 H   0  0  0  0  0  0  0  0  0  0  0  0
   53.8013   22.1975   48.1581 H   0  0  0  0  0  0  0  0  0  0  0  0
  1  2  1  0
  2  3  2  0
  3  4  1  0
  4  5  2  0
  5  6  1  0
  6  7  1  0
  7  8  1  0
  8  9  2  0
  8 10  1  0
 10 11  2  0
 11 12  1  0
 12 13  2  0
 13 14  1  0
 14 15  1  0
 15 16  2  0
 15 17  2  0
 15 18  1  0
 18 19  2  0
 19 20  1  0
 20 21  2  0
 21 22  1  0
 21 23  1  0
 23 24  2  0
 13 25  1  0
 25 26  2  0
 26 27  1  0
  5 28  1  0
 28 29  2  0
 29  2  1  0
 26 10  1  0
 24 18  1  0
  1 30  1  0
  1 31  1  0
  1 32  1  0
  3 33  1  0
  4 34  1  0
  6 35  1  0
  6 36  1  0
  7 37  1  0
 11 38  1  0
 12 39  1  0
 19 40  1  0
 20 41  1  0
 23 42  1  0
 24 43  1  0
 25 44  1  0
 28 45  1  0
 29 46  1  0
M  CHG  2  14  -1  27  -1
M  END
>  <UniqueID>  (90) 
83

>  <SMILES>  (90) 
Cc1ccc(CNC(=O)c2ccc([N-]S(=O)(=O)c3ccc(Br)cc3)cc2[O-])cc1

>  <Energy>  (90) 
53.25562648211752

>  <Genealogy>  (90) 
Cc1ccc(CNC(=O)c2ccc([N-]S(=O)(=O)c3ccc(Br)cc3)cc2[O-])cc1 (protonated)
Cc1ccc(CNC(=O)c2ccc([N-]S(=O)(=O)c3ccc(Br)cc3)cc2[O-])cc1 (3D coordinates assigned)
Cc1ccc(CNC(=O)c2ccc([N-]S(=O)(=O)c3ccc(Br)cc3)cc2[O-])cc1 (optimized conformer: 53.25562648211752 kcal/mol)

>  <smiles>  (90) 
Cc1ccc(CNC(=O)c2ccc(NS(=O)(=O)c3ccc(Br)cc3)cc2O)cc1

>  <score_type>  (90) 
oracle

>  <origin>  (90) 
adg

>  <m_score__min__energy>  (90) 
-14.25

>  <m_primary>  (90) 
energy

$$$$
90:0
     RDKit          3D

 49 50  0  0  0  0  0  0  0  0999 V2000
   66.0920   33.0730   48.7860 H   0  0  0  0  0  0  0  0  0  0  0  0
   65.1680   33.0670   49.2730 N   0  0  0  0  0  0  0  0  0  0  0  0
   64.0860   32.6990   48.6680 C   0  0  0  0  0  0  0  0  0  0  0  0
   63.3760   31.6310   49.1240 N   0  0  0  0  0  0  0  0  0  0  0  0
   62.2320   31.2170   48.5160 C   0  0  0  0  0  0  0  0  0  0  0  0
   61.6812   30.3507   48.9112 H   0  0  0  0  0  0  0  0  0  0  0  0
   61.7560   31.8940   47.3870 C   0  0  0  0  0  0  0  0  0  0  0  0
   60.5410   31.4720   46.7440 C   0  0  0  0  0  0  0  0  0  0  0  0
   59.5170   31.1170   46.2160 C   0  0  0  0  0  0  0  0  0  0  0  0
   58.2880   30.6890   45.5990 C   0  0  0  0  0  0  0  0  0  0  0  0
   57.8180   29.4470   45.8800 N   0  0  0  0  0  0  0  0  0  0  0  0
   56.6540   28.9880   45.3420 C   0  0  0  0  0  0  0  0  0  0  0  0
   56.2160   27.7970   45.6170 N   0  0  0  0  0  0  0  0  0  0  0  0
   57.0470   26.7340   46.1810 C   0  0  0  0  0  0  0  0  0  0  0  0
   58.0868   27.0857   46.2533 H   0  0  0  0  0  0  0  0  0  0  0  0
   56.6673   26.4743   47.1802 H   0  0  0  0  0  0  0  0  0  0  0  0
   56.9950   25.4920   45.2900 C   0  0  0  0  0  0  0  0  0  0  0  0
   57.2085   25.7890   44.2526 H   0  0  0  0  0  0  0  0  0  0  0  0
   57.7439   24.7756   45.6587 H   0  0  0  0  0  0  0  0  0  0  0  0
   55.6430   24.8230   45.3380 C   0  0  0  0  0  0  0  0  0  0  0  0
   54.7120   25.3710   45.9890 O   0  0  0  0  0  0  0  0  0  0  0  0
   55.3640   23.6070   44.6260 N   0  0  0  0  0  0  0  0  0  0  0  0
   56.1210   23.1120   43.4830 C   0  0  0  0  0  0  0  0  0  0  0  0
   56.9921   22.5424   43.8390 H   0  0  0  0  0  0  0  0  0  0  0  0
   55.4796   22.4583   42.8737 H   0  0  0  0  0  0  0  0  0  0  0  0
   56.4626   23.9617   42.8737 H   0  0  0  0  0  0  0  0  0  0  0  0
   55.9390   29.7880   44.5110 N   0  0  0  0  0  0  0  0  0  0  0  0
   56.3660   31.0380   44.1960 C   0  0  0  0  0  0  0  0  0  0  0  0
   55.7654   31.6695   43.5248 H   0  0  0  0  0  0  0  0  0  0  0  0
   57.5690   31.5260   44.7230 C   0  0  0  0  0  0  0  0  0  0  0  0
   58.0290   32.9260   44.3880 C   0  0  0  0  0  0  0  0  0  0  0  0
   59.0997   33.0197   44.6219 H   0  0  0  0  0  0  0  0  0  0  0  0
   57.8543   33.1085   43.3174 H   0  0  0  0  0  0  0  0  0  0  0  0
   57.2450   33.9630   45.1980 C   0  0  0  0  0  0  0  0  0  0  0  0
   57.3096   34.9395   44.6957 H   0  0  0  0  0  0  0  0  0  0  0  0
   56.1951   33.6422   45.2672 H   0  0  0  0  0  0  0  0  0  0  0  0
   57.7950   34.0780   46.5460 N   0  0  0  0  0  0  0  0  0  0  0  0
   57.1990   33.7850   47.3530 H   0  0  0  0  0  0  0  0  0  0  0  0
   59.1450   34.4980   46.7930 C   0  0  0  0  0  0  0  0  0  0  0  0
   59.9060   34.7790   45.8270 O   0  0  0  0  0  0  0  0  0  0  0  0
   59.6380   34.5940   48.1790 C   0  0  0  0  0  0  0  0  0  0  0  0
   60.1538   35.5130   48.4943 H   0  0  0  0  0  0  0  0  0  0  0  0
   59.4830   33.6110   49.0640 C   0  0  0  0  0  0  0  0  0  0  0  0
   59.8676   33.7272   50.0880 H   0  0  0  0  0  0  0  0  0  0  0  0
   58.9704   32.6829   48.7710 H   0  0  0  0  0  0  0  0  0  0  0  0
   62.4700   32.9960   46.9000 C   0  0  0  0  0  0  0  0  0  0  0  0
   62.1099   33.5385   46.0134 H   0  0  0  0  0  0  0  0  0  0  0  0
   63.6400   33.4040   47.5430 C   0  0  0  0  0  0  0  0  0  0  0  0
   64.2059   34.2704   47.1699 H   0  0  0  0  0  0  0  0  0  0  0  0
  1  2  1  0
  2  3  2  0
  3  4  1  0
  4  5  1  0
  5  6  1  0
  5  7  2  0
  7  8  1  0
  8  9  3  0
  9 10  1  0
 10 11  1  0
 11 12  1  0
 12 13  2  0
 13 14  1  0
 14 15  1  0
 14 16  1  0
 14 17  1  0
 17 18  1  0
 17 19  1  0
 17 20  1  0
 20 21  2  0
 20 22  1  0
 22 23  1  0
 23 24  1  0
 23 25  1  0
 23 26  1  0
 12 27  1  0
 27 28  2  0
 28 29  1  0
 28 30  1  0
 30 31  1  0
 31 32  1  0
 31 33  1  0
 31 34  1  0
 34 35  1  0
 34 36  1  0
 34 37  1  0
 37 38  1  0
 37 39  1  0
 39 40  2  0
 39 41  1  0
 41 42  1  0
 41 43  2  0
 43 44  1  0
 43 45  1  0
  7 46  1  0
 46 47  1  0
 46 48  2  0
 48 49  1  0
 48  3  1  0
 30 10  2  0
M  CHG  3   4  -1  11  -1  22  -1
M  END
>  <UniqueID>  (91) 
84

>  <SMILES>  (91) 
[H]/N=c1/ccc(C#Cc2[n-]/c(=N\CCC(=O)[N-]C)ncc2CCNC(=O)C=C)c[n-]1

>  <Energy>  (91) 
34.33601246762197

>  <Genealogy>  (91) 
C=CC(=O)NCCc1cnc(=NCCC(=O)[N-]C)[n-]c1C#Cc1ccc(=N)[n-]c1 (protonated)
[H]/N=c1/ccc(C#Cc2[n-]/c(=N\CCC(=O)[N-]C)ncc2CCNC(=O)C=C)c[n-]1 (cis-trans isomerization)
[H]/N=c1/ccc(C#Cc2[n-]/c(=N\CCC(=O)[N-]C)ncc2CCNC(=O)C=C)c[n-]1 (3D coordinates assigned)
[H]/N=c1/ccc(C#Cc2[n-]/c(=N\CCC(=O)[N-]C)ncc2CCNC(=O)C=C)c[n-]1 (optimized conformer: 34.33601246762197 kcal/mol)

>  <smiles>  (91) 
C=CC(=O)NCCc1cnc(=NCCC(=O)NC)[nH]c1C#Cc1ccc(=N)[nH]c1

>  <score_type>  (91) 
oracle

>  <origin>  (91) 
adg

>  <m_score__min__energy>  (91) 
-12.109999999999999

>  <m_primary>  (91) 
energy

$$$$
91:0
     RDKit          3D

 87 91  0  0  0  0  0  0  0  0999 V2000
   69.0110   34.5420   50.1340 C   0  0  0  0  0  0  0  0  0  0  0  0
   67.9090   34.8190   51.1150 C   0  0  0  0  0  0  0  0  0  0  0  0
   67.9690   35.8840   51.7900 O   0  0  0  0  0  0  0  0  0  0  0  0
   66.7910   33.9130   51.2870 N   0  0  0  0  0  0  0  0  0  0  0  0
   65.6320   34.2880   52.1030 C   0  0  0  0  0  0  0  0  0  0  0  0
   64.3770   34.2830   51.2330 C   0  0  0  0  0  0  0  0  0  0  0  0
   64.1760   32.9200   50.5370 C   0  0  0  0  0  0  0  0  0  0  0  0
   63.6620   31.8710   51.5120 C   0  0  0  0  0  0  0  0  0  0  0  0
   63.6770   30.6510   51.1960 O   0  0  0  0  0  0  0  0  0  0  0  0
   63.2440   32.2190   52.8410 N   0  0  0  0  0  0  0  0  0  0  0  0
   62.0030   32.8470   53.1830 C   0  0  0  0  0  0  0  0  0  0  0  0
   61.8740   33.6170   54.3510 C   0  0  0  0  0  0  0  0  0  0  0  0
   60.6570   34.2290   54.6590 C   0  0  0  0  0  0  0  0  0  0  0  0
   59.5610   34.0790   53.8050 C   0  0  0  0  0  0  0  0  0  0  0  0
   59.6780   33.3070   52.6340 C   0  0  0  0  0  0  0  0  0  0  0  0
   58.4930   33.1130   51.7280 C   0  0  0  0  0  0  0  0  0  0  0  0
   58.9150   32.9270   50.2970 C   0  0  0  0  0  0  0  0  0  0  0  0
   59.6340   33.7930   49.7270 O   0  0  0  0  0  0  0  0  0  0  0  0
   58.5090   31.7460   49.5970 N   0  0  0  0  0  0  0  0  0  0  0  0
   59.1820   30.6350   49.5020 C   0  0  0  0  0  0  0  0  0  0  0  0
   60.3610   30.3980   50.2350 C   0  0  0  0  0  0  0  0  0  0  0  0
   61.0060   29.1610   50.1190 C   0  0  0  0  0  0  0  0  0  0  0  0
   60.4790   28.1690   49.2910 C   0  0  0  0  0  0  0  0  0  0  0  0
   59.2840   28.4210   48.5900 C   0  0  0  0  0  0  0  0  0  0  0  0
   58.6650   27.4500   47.7340 N   0  0  0  0  0  0  0  0  0  0  0  0
   59.1310   26.9140   46.4850 C   0  0  0  0  0  0  0  0  0  0  0  0
   59.0580   25.6810   46.2360 O   0  0  0  0  0  0  0  0  0  0  0  0
   59.6970   27.8480   45.4540 C   0  0  0  0  0  0  0  0  0  0  0  0
   58.6390   28.7010   44.7910 C   0  0  0  0  0  0  0  0  0  0  0  0
   57.9010   28.2040   43.7070 C   0  0  0  0  0  0  0  0  0  0  0  0
   56.9130   28.9910   43.1050 C   0  0  0  0  0  0  0  0  0  0  0  0
   56.6280   30.2610   43.6040 C   0  0  0  0  0  0  0  0  0  0  0  0
   57.3140   30.7520   44.7230 C   0  0  0  0  0  0  0  0  0  0  0  0
   57.0000   32.0590   45.2190 N   0  0  0  0  0  0  0  0  0  0  0  0
   57.7290   33.2550   44.9320 C   0  0  0  0  0  0  0  0  0  0  0  0
   58.1100   33.4520   43.7520 O   0  0  0  0  0  0  0  0  0  0  0  0
   57.9820   34.2570   45.9970 C   0  0  0  0  0  0  0  0  0  0  0  0
   58.9140   34.1700   46.9610 C   0  0  0  0  0  0  0  0  0  0  0  0
   60.3790   34.4630   46.7960 C   0  0  0  0  0  0  0  0  0  0  0  0
   61.1770   33.2350   46.8380 N   0  0  0  0  0  0  0  0  0  0  0  0
   60.6180   31.8920   46.8150 C   0  0  0  0  0  0  0  0  0  0  0  0
   61.7760   30.9300   47.1300 C   0  0  0  0  0  0  0  0  0  0  0  0
   62.9670   31.7890   47.5740 C   0  0  0  0  0  0  0  0  0  0  0  0
   62.5050   33.1670   47.3280 C   0  0  0  0  0  0  0  0  0  0  0  0
   63.2060   34.1890   47.5520 O   0  0  0  0  0  0  0  0  0  0  0  0
   58.3390   29.9800   45.2950 C   0  0  0  0  0  0  0  0  0  0  0  0
   58.6920   29.6430   48.7080 N   0  0  0  0  0  0  0  0  0  0  0  0
   60.9150   32.7250   52.3110 C   0  0  0  0  0  0  0  0  0  0  0  0
   65.4620   32.4930   49.7820 C   0  0  0  0  0  0  0  0  0  0  0  0
   66.7310   32.5960   50.6420 C   0  0  0  0  0  0  0  0  0  0  0  0
   69.9375   34.3091   50.6794 H   0  0  0  0  0  0  0  0  0  0  0  0
   68.7326   33.6859   49.5019 H   0  0  0  0  0  0  0  0  0  0  0  0
   69.1705   35.4280   49.5019 H   0  0  0  0  0  0  0  0  0  0  0  0
   65.5122   33.5661   52.9243 H   0  0  0  0  0  0  0  0  0  0  0  0
   65.7861   35.2940   52.5203 H   0  0  0  0  0  0  0  0  0  0  0  0
   63.5024   34.4933   51.8662 H   0  0  0  0  0  0  0  0  0  0  0  0
   64.4927   35.0532   50.4562 H   0  0  0  0  0  0  0  0  0  0  0  0
   63.3913   33.0231   49.7731 H   0  0  0  0  0  0  0  0  0  0  0  0
   62.7346   33.7383   55.0253 H   0  0  0  0  0  0  0  0  0  0  0  0
   60.5610   34.8301   55.5752 H   0  0  0  0  0  0  0  0  0  0  0  0
   58.6049   34.5653   54.0485 H   0  0  0  0  0  0  0  0  0  0  0  0
   57.9360   32.2224   52.0546 H   0  0  0  0  0  0  0  0  0  0  0  0
   57.8638   34.0134   51.7869 H   0  0  0  0  0  0  0  0  0  0  0  0
   60.7715   31.1781   50.8930 H   0  0  0  0  0  0  0  0  0  0  0  0
   61.9313   28.9703   50.6824 H   0  0  0  0  0  0  0  0  0  0  0  0
   60.9913   27.2011   49.1871 H   0  0  0  0  0  0  0  0  0  0  0  0
   60.4267   28.5103   45.9428 H   0  0  0  0  0  0  0  0  0  0  0  0
   60.1642   27.2326   44.6711 H   0  0  0  0  0  0  0  0  0  0  0  0
   58.0998   27.1906   43.3282 H   0  0  0  0  0  0  0  0  0  0  0  0
   56.3597   28.6064   42.2356 H   0  0  0  0  0  0  0  0  0  0  0  0
   55.8608   30.8809   43.1170 H   0  0  0  0  0  0  0  0  0  0  0  0
   57.3470   35.1552   45.9973 H   0  0  0  0  0  0  0  0  0  0  0  0
   58.5748   33.8566   47.9594 H   0  0  0  0  0  0  0  0  0  0  0  0
   60.5378   34.9603   45.8278 H   0  0  0  0  0  0  0  0  0  0  0  0
   60.6981   35.1121   47.6247 H   0  0  0  0  0  0  0  0  0  0  0  0
   59.8278   31.7965   47.5742 H   0  0  0  0  0  0  0  0  0  0  0  0
   60.1684   31.6656   45.8370 H   0  0  0  0  0  0  0  0  0  0  0  0
   61.4857   30.2413   47.9371 H   0  0  0  0  0  0  0  0  0  0  0  0
   62.0354   30.3268   46.2475 H   0  0  0  0  0  0  0  0  0  0  0  0
   63.1893   31.6328   48.6399 H   0  0  0  0  0  0  0  0  0  0  0  0
   63.8959   31.5453   47.0375 H   0  0  0  0  0  0  0  0  0  0  0  0
   58.9123   30.3791   46.1447 H   0  0  0  0  0  0  0  0  0  0  0  0
   61.0292   32.1705   51.3679 H   0  0  0  0  0  0  0  0  0  0  0  0
   65.3451   31.4493   49.4549 H   0  0  0  0  0  0  0  0  0  0  0  0
   65.5860   33.1808   48.9325 H   0  0  0  0  0  0  0  0  0  0  0  0
   66.7134   31.8123   51.4137 H   0  0  0  0  0  0  0  0  0  0  0  0
   67.6151   32.4660   50.0005 H   0  0  0  0  0  0  0  0  0  0  0  0
  1  2  1  0
  2  3  2  0
  2  4  1  0
  4  5  1  0
  5  6  1  0
  6  7  1  0
  7  8  1  0
  8  9  2  0
  8 10  1  0
 10 11  1  0
 11 12  2  0
 12 13  1  0
 13 14  2  0
 14 15  1  0
 15 16  1  0
 16 17  1  0
 17 18  2  0
 17 19  1  0
 19 20  2  3
 20 21  1  0
 21 22  2  0
 22 23  1  0
 23 24  2  0
 24 25  1  0
 25 26  1  0
 26 27  2  0
 26 28  1  0
 28 29  1  0
 29 30  2  0
 30 31  1  0
 31 32  2  0
 32 33  1  0
 33 34  1  0
 34 35  1  0
 35 36  2  0
 35 37  1  0
 37 38  2  3
 38 39  1  0
 39 40  1  0
 40 41  1  0
 41 42  1  0
 42 43  1  0
 43 44  1  0
 44 45  2  0
 33 46  2  0
 24 47  1  0
 15 48  2  0
  7 49  1  0
 49 50  1  0
 50  4  1  0
 48 11  1  0
 47 20  1  0
 46 29  1  0
 44 40  1  0
  1 51  1  0
  1 52  1  0
  1 53  1  0
  5 54  1  0
  5 55  1  0
  6 56  1  0
  6 57  1  0
  7 58  1  0
 12 59  1  0
 13 60  1  0
 14 61  1  0
 16 62  1  0
 16 63  1  0
 21 64  1  0
 22 65  1  0
 23 66  1  0
 28 67  1  0
 28 68  1  0
 30 69  1  0
 31 70  1  0
 32 71  1  0
 37 72  1  0
 38 73  1  0
 39 74  1  0
 39 75  1  0
 41 76  1  0
 41 77  1  0
 42 78  1  0
 42 79  1  0
 43 80  1  0
 43 81  1  0
 46 82  1  0
 48 83  1  0
 49 84  1  0
 49 85  1  0
 50 86  1  0
 50 87  1  0
M  CHG  4  10  -1  25  -1  34  -1  47  -1
M  END
>  <UniqueID>  (92) 
85

>  <SMILES>  (92) 
CC(=O)N1CCC(C(=O)[N-]c2cccc(CC(=O)N=c3cccc([N-]C(=O)Cc4cccc([N-]C(=O)C=CCN5CCCC5=O)c4)[n-]3)c2)CC1

>  <Energy>  (92) 
121.1459779863898

>  <Genealogy>  (92) 
CC(=O)N1CCC(C(=O)[N-]c2cccc(CC(=O)N=c3cccc([N-]C(=O)Cc4cccc([N-]C(=O)C=CCN5CCCC5=O)c4)[n-]3)c2)CC1 (protonated)
CC(=O)N1CCC(C(=O)[N-]c2cccc(CC(=O)N=c3cccc([N-]C(=O)Cc4cccc([N-]C(=O)C=CCN5CCCC5=O)c4)[n-]3)c2)CC1 (3D coordinates assigned)
CC(=O)N1CCC(C(=O)[N-]c2cccc(CC(=O)N=c3cccc([N-]C(=O)Cc4cccc([N-]C(=O)C=CCN5CCCC5=O)c4)[n-]3)c2)CC1 (nonaromatic ring conformer: 121.1459779863898 kcal/mol)

>  <smiles>  (92) 
CC(=O)N1CCC(C(=O)Nc2cccc(CC(=O)N=c3cccc(NC(=O)Cc4cccc(NC(=O)C=CCN5CCCC5=O)c4)[nH]3)c2)CC1

>  <score_type>  (92) 
oracle

>  <origin>  (92) 
adg

>  <m_score__min__energy>  (92) 
-16.699999999999999

>  <m_primary>  (92) 
energy

$$$$
92:0
     RDKit          3D

 42 44  0  0  0  0  0  0  0  0999 V2000
   60.3840   27.7240   48.9110 C   0  0  0  0  0  0  0  0  0  0  0  0
   59.8050   28.1380   47.5900 C   0  0  0  0  0  0  0  0  0  0  0  0
   60.5250   28.9920   46.7430 C   0  0  0  0  0  0  0  0  0  0  0  0
   59.9700   29.4170   45.5320 C   0  0  0  0  0  0  0  0  0  0  0  0
   58.6730   29.0150   45.1640 C   0  0  0  0  0  0  0  0  0  0  0  0
   58.0520   29.4480   43.9820 O   0  0  0  0  0  0  0  0  0  0  0  0
   57.0060   30.7990   43.8800 S   0  0  0  0  0  0  0  0  0  0  0  0
   56.7820   31.1510   42.4360 O   0  0  0  0  0  0  0  0  0  0  0  0
   55.6840   30.4580   44.5090 O   0  0  0  0  0  0  0  0  0  0  0  0
   57.7330   32.1480   44.7480 C   0  0  0  0  0  0  0  0  0  0  0  0
   57.7780   33.4090   44.1420 C   0  0  0  0  0  0  0  0  0  0  0  0
   58.2300   34.5170   44.8600 C   0  0  0  0  0  0  0  0  0  0  0  0
   58.6210   34.3760   46.1940 C   0  0  0  0  0  0  0  0  0  0  0  0
   58.5820   33.1150   46.8140 C   0  0  0  0  0  0  0  0  0  0  0  0
   58.9210   32.9730   48.2460 C   0  0  0  0  0  0  0  0  0  0  0  0
   58.1400   32.3480   49.0120 O   0  0  0  0  0  0  0  0  0  0  0  0
   60.1520   33.4860   48.7790 N   0  0  0  0  0  0  0  0  0  0  0  0
   61.3580   33.2320   48.3490 C   0  0  0  0  0  0  0  0  0  0  0  0
   61.8020   33.8690   47.1850 C   0  0  0  0  0  0  0  0  0  0  0  0
   63.0870   33.6140   46.6980 C   0  0  0  0  0  0  0  0  0  0  0  0
   63.9030   32.7400   47.3440 N   0  0  0  0  0  0  0  0  0  0  0  0
   63.4970   32.0890   48.4660 C   0  0  0  0  0  0  0  0  0  0  0  0
   62.2200   32.3140   48.9870 C   0  0  0  0  0  0  0  0  0  0  0  0
   58.1610   31.9980   46.0760 C   0  0  0  0  0  0  0  0  0  0  0  0
   57.9600   28.1570   46.0100 C   0  0  0  0  0  0  0  0  0  0  0  0
   58.5160   27.7280   47.2190 C   0  0  0  0  0  0  0  0  0  0  0  0
   59.7828   28.1539   49.7257 H   0  0  0  0  0  0  0  0  0  0  0  0
   60.3744   26.6267   48.9878 H   0  0  0  0  0  0  0  0  0  0  0  0
   61.4192   28.0879   48.9878 H   0  0  0  0  0  0  0  0  0  0  0  0
   61.5312   29.3293   47.0324 H   0  0  0  0  0  0  0  0  0  0  0  0
   60.5508   30.0693   44.8633 H   0  0  0  0  0  0  0  0  0  0  0  0
   57.4561   33.5269   43.0968 H   0  0  0  0  0  0  0  0  0  0  0  0
   58.2785   35.5031   44.3749 H   0  0  0  0  0  0  0  0  0  0  0  0
   58.9606   35.2551   46.7612 H   0  0  0  0  0  0  0  0  0  0  0  0
   61.1407   34.5695   46.6540 H   0  0  0  0  0  0  0  0  0  0  0  0
   63.4392   34.1226   45.7885 H   0  0  0  0  0  0  0  0  0  0  0  0
   64.8600   32.5580   46.9660 H   0  0  0  0  0  0  0  0  0  0  0  0
   64.1761   31.3825   48.9657 H   0  0  0  0  0  0  0  0  0  0  0  0
   61.8884   31.7789   49.8890 H   0  0  0  0  0  0  0  0  0  0  0  0
   58.1665   31.0009   46.5404 H   0  0  0  0  0  0  0  0  0  0  0  0
   56.9543   27.8177   45.7212 H   0  0  0  0  0  0  0  0  0  0  0  0
   57.9399   27.0660   47.8822 H   0  0  0  0  0  0  0  0  0  0  0  0
  1  2  1  0
  2  3  2  0
  3  4  1  0
  4  5  2  0
  5  6  1  0
  6  7  1  0
  7  8  2  0
  7  9  2  0
  7 10  1  0
 10 11  2  0
 11 12  1  0
 12 13  2  0
 13 14  1  0
 14 15  1  0
 15 16  2  0
 15 17  1  0
 17 18  2  3
 18 19  1  0
 19 20  2  0
 20 21  1  0
 21 22  1  0
 22 23  2  0
 14 24  2  0
  5 25  1  0
 25 26  2  0
 26  2  1  0
 24 10  1  0
 23 18  1  0
  1 27  1  0
  1 28  1  0
  1 29  1  0
  3 30  1  0
  4 31  1  0
 11 32  1  0
 12 33  1  0
 13 34  1  0
 19 35  1  0
 20 36  1  0
 21 37  1  0
 22 38  1  0
 23 39  1  0
 24 40  1  0
 25 41  1  0
 26 42  1  0
M  END
>  <UniqueID>  (93) 
86

>  <SMILES>  (93) 
Cc1ccc(OS(=O)(=O)c2cccc(C(=O)N=c3cc[nH]cc3)c2)cc1

>  <Energy>  (93) 
53.65713625483394

>  <Genealogy>  (93) 
Cc1ccc(OS(=O)(=O)c2cccc(C(=O)N=c3cc[nH]cc3)c2)cc1 (3D coordinates assigned)
Cc1ccc(OS(=O)(=O)c2cccc(C(=O)N=c3cc[nH]cc3)c2)cc1 (optimized conformer: 53.65713625483394 kcal/mol)

>  <smiles>  (93) 
Cc1ccc(OS(=O)(=O)c2cccc(C(=O)N=c3cc[nH]cc3)c2)cc1

>  <score_type>  (93) 
oracle

>  <origin>  (93) 
adg

>  <m_score__min__energy>  (93) 
-9.1300000000000008

>  <m_primary>  (93) 
energy

$$$$
93:0
     RDKit          3D

 31 32  0  0  0  0  0  0  0  0999 V2000
   55.1850   27.4120   46.0070 H   0  0  0  0  0  0  0  0  0  0  0  0
   55.1070   26.3700   45.9830 N   0  0  0  0  0  0  0  0  0  0  0  0
   56.7140   25.7410   46.0890 S   0  0  0  0  0  0  0  0  0  0  0  0
   57.0360   25.0270   44.8060 O   0  0  0  0  0  0  0  0  0  0  0  0
   56.7990   24.7730   47.2340 O   0  0  0  0  0  0  0  0  0  0  0  0
   57.8550   27.0570   46.3480 C   0  0  0  0  0  0  0  0  0  0  0  0
   57.7760   27.8370   47.5070 C   0  0  0  0  0  0  0  0  0  0  0  0
   57.0010   27.6243   48.2581 H   0  0  0  0  0  0  0  0  0  0  0  0
   58.6770   28.8850   47.7150 C   0  0  0  0  0  0  0  0  0  0  0  0
   58.6033   29.4950   48.6274 H   0  0  0  0  0  0  0  0  0  0  0  0
   59.6780   29.1660   46.7660 C   0  0  0  0  0  0  0  0  0  0  0  0
   60.6300   30.2810   46.9850 C   0  0  0  0  0  0  0  0  0  0  0  0
   61.6500   30.1000   47.7050 O   0  0  0  0  0  0  0  0  0  0  0  0
   60.3820   31.5600   46.3740 N   0  0  0  0  0  0  0  0  0  0  0  0
   59.2610   32.0040   45.8810 C   0  0  0  0  0  0  0  0  0  0  0  0
   58.6140   33.5520   46.0690 S   0  0  0  0  0  0  0  0  0  0  0  0
   57.2380   33.2100   45.1610 C   0  0  0  0  0  0  0  0  0  0  0  0
   56.4140   33.9068   44.9478 H   0  0  0  0  0  0  0  0  0  0  0  0
   57.3270   31.8880   44.7270 C   0  0  0  0  0  0  0  0  0  0  0  0
   56.2490   31.2150   43.9330 C   0  0  0  0  0  0  0  0  0  0  0  0
   55.2850   31.7020   44.1415 H   0  0  0  0  0  0  0  0  0  0  0  0
   56.4845   31.2975   42.8617 H   0  0  0  0  0  0  0  0  0  0  0  0
   56.1650   29.7710   44.3070 C   0  0  0  0  0  0  0  0  0  0  0  0
   55.1780   29.3420   44.9590 O   0  0  0  0  0  0  0  0  0  0  0  0
   57.2040   28.9060   43.9820 O   0  0  0  0  0  0  0  0  0  0  0  0
   58.4450   31.2260   45.1370 N   0  0  0  0  0  0  0  0  0  0  0  0
   58.6460   30.2260   44.9080 H   0  0  0  0  0  0  0  0  0  0  0  0
   59.7600   28.3700   45.6090 C   0  0  0  0  0  0  0  0  0  0  0  0
   60.5406   28.5721   44.8608 H   0  0  0  0  0  0  0  0  0  0  0  0
   58.8550   27.3230   45.4040 C   0  0  0  0  0  0  0  0  0  0  0  0
   58.9292   26.7055   44.4967 H   0  0  0  0  0  0  0  0  0  0  0  0
  1  2  1  0
  2  3  1  0
  3  4  2  0
  3  5  2  0
  3  6  1  0
  6  7  2  0
  7  8  1  0
  7  9  1  0
  9 10  1  0
  9 11  2  0
 11 12  1  0
 12 13  2  0
 12 14  1  0
 14 15  2  0
 15 16  1  0
 16 17  1  0
 17 18  1  0
 17 19  2  0
 19 20  1  0
 20 21  1  0
 20 22  1  0
 20 23  1  0
 23 24  2  0
 23 25  1  0
 19 26  1  0
 26 27  1  0
 11 28  1  0
 28 29  1  0
 28 30  2  0
 30 31  1  0
 30  6  1  0
 26 15  1  0
M  CHG  2   2  -1  25  -1
M  END
>  <UniqueID>  (94) 
87

>  <SMILES>  (94) 
[NH-]S(=O)(=O)c1ccc(C(=O)/N=c2/[nH]c(CC(=O)[O-])cs2)cc1

>  <Energy>  (94) 
62.89248879442707

>  <Genealogy>  (94) 
[NH-]S(=O)(=O)c1ccc(C(=O)N=c2[nH]c(CC(=O)[O-])cs2)cc1 (protonated)
[NH-]S(=O)(=O)c1ccc(C(=O)/N=c2/[nH]c(CC(=O)[O-])cs2)cc1 (cis-trans isomerization)
[NH-]S(=O)(=O)c1ccc(C(=O)/N=c2/[nH]c(CC(=O)[O-])cs2)cc1 (3D coordinates assigned)
[NH-]S(=O)(=O)c1ccc(C(=O)/N=c2/[nH]c(CC(=O)[O-])cs2)cc1 (optimized conformer: 62.89248879442707 kcal/mol)

>  <smiles>  (94) 
NS(=O)(=O)c1ccc(C(=O)N=c2[nH]c(CC(=O)O)cs2)cc1

>  <score_type>  (94) 
oracle

>  <origin>  (94) 
adg

>  <m_score__min__energy>  (94) 
-11.23

>  <m_primary>  (94) 
energy

$$$$
94:0
     RDKit          3D

 60 63  0  0  0  0  0  0  0  0999 V2000
   56.2890   31.9400   51.8840 N   0  0  0  0  0  0  0  0  0  0  0  0
   57.6480   32.4090   51.6210 C   0  0  0  0  0  0  0  0  0  0  0  0
   58.3720   31.4680   50.6920 C   0  0  0  0  0  0  0  0  0  0  0  0
   58.9510   30.2900   51.1900 C   0  0  0  0  0  0  0  0  0  0  0  0
   59.6890   29.4540   50.3460 C   0  0  0  0  0  0  0  0  0  0  0  0
   59.8600   29.7870   48.9910 C   0  0  0  0  0  0  0  0  0  0  0  0
   60.6940   28.9180   48.0900 C   0  0  0  0  0  0  0  0  0  0  0  0
   60.1640   28.9450   46.7330 N   0  0  0  0  0  0  0  0  0  0  0  0
   59.5990   27.8020   46.0820 C   0  0  0  0  0  0  0  0  0  0  0  0
   60.3190   26.8000   45.8180 O   0  0  0  0  0  0  0  0  0  0  0  0
   58.1610   27.8320   45.6490 C   0  0  1  0  0  0  0  0  0  0  0  0
   57.2630   27.2230   46.7420 C   0  0  0  0  0  0  0  0  0  0  0  0
   56.3400   26.1660   46.2070 C   0  0  0  0  0  0  0  0  0  0  0  0
   56.6800   24.8620   45.9320 C   0  0  0  0  0  0  0  0  0  0  0  0
   55.5760   24.1960   45.5510 N   0  0  0  0  0  0  0  0  0  0  0  0
   54.5960   25.1240   45.6010 C   0  0  0  0  0  0  0  0  0  0  0  0
   55.0190   26.3350   46.0200 N   0  0  0  0  0  0  0  0  0  0  0  0
   57.7700   29.2180   45.3910 N   0  0  0  0  0  0  0  0  0  0  0  0
   56.5750   29.6550   44.7260 C   0  0  0  0  0  0  0  0  0  0  0  0
   55.5280   28.9680   44.8640 O   0  0  0  0  0  0  0  0  0  0  0  0
   56.5550   30.8840   43.8470 C   0  0  0  0  0  0  0  0  0  0  0  0
   57.1560   32.0770   44.5280 C   0  0  0  0  0  0  0  0  0  0  0  0
   58.3860   32.6380   44.2630 C   0  0  0  0  0  0  0  0  0  0  0  0
   58.4470   33.7010   45.1390 C   0  0  0  0  0  0  0  0  0  0  0  0
   59.5930   34.6510   45.2910 C   0  0  0  0  0  0  0  0  0  0  0  0
   60.3820   34.3220   46.5290 C   0  0  0  0  0  0  0  0  0  0  0  0
   59.8180   34.5160   47.8020 C   0  0  0  0  0  0  0  0  0  0  0  0
   60.5620   34.2330   48.9510 C   0  0  0  0  0  0  0  0  0  0  0  0
   61.8770   33.7660   48.8390 C   0  0  0  0  0  0  0  0  0  0  0  0
   62.4490   33.5840   47.5780 C   0  0  0  0  0  0  0  0  0  0  0  0
   61.7060   33.8630   46.4260 C   0  0  0  0  0  0  0  0  0  0  0  0
   57.3250   33.7460   45.8800 N   0  0  0  0  0  0  0  0  0  0  0  0
   56.5740   32.7580   45.4860 O   0  0  0  0  0  0  0  0  0  0  0  0
   59.2790   30.9650   48.4940 C   0  0  0  0  0  0  0  0  0  0  0  0
   58.5450   31.8020   49.3390 C   0  0  0  0  0  0  0  0  0  0  0  0
   55.7410   32.7210   52.3160 H   0  0  0  0  0  0  0  0  0  0  0  0
   55.8350   31.6910   50.9740 H   0  0  0  0  0  0  0  0  0  0  0  0
   57.6017   33.4062   51.1591 H   0  0  0  0  0  0  0  0  0  0  0  0
   58.1954   32.4519   52.5742 H   0  0  0  0  0  0  0  0  0  0  0  0
   58.8235   30.0232   52.2495 H   0  0  0  0  0  0  0  0  0  0  0  0
   60.1376   28.5319   50.7442 H   0  0  0  0  0  0  0  0  0  0  0  0
   61.7292   29.2898   48.0832 H   0  0  0  0  0  0  0  0  0  0  0  0
   60.6686   27.8841   48.4646 H   0  0  0  0  0  0  0  0  0  0  0  0
   58.0414   27.2377   44.7311 H   0  0  0  0  0  0  0  0  0  0  0  0
   57.9039   26.7732   47.5146 H   0  0  0  0  0  0  0  0  0  0  0  0
   56.6412   28.0324   47.1522 H   0  0  0  0  0  0  0  0  0  0  0  0
   57.6902   24.4339   46.0109 H   0  0  0  0  0  0  0  0  0  0  0  0
   53.5520   24.9127   45.3262 H   0  0  0  0  0  0  0  0  0  0  0  0
   57.1265   30.6737   42.9309 H   0  0  0  0  0  0  0  0  0  0  0  0
   55.5049   31.1189   43.6186 H   0  0  0  0  0  0  0  0  0  0  0  0
   59.1388   32.3153   43.5287 H   0  0  0  0  0  0  0  0  0  0  0  0
   60.2486   34.5727   44.4112 H   0  0  0  0  0  0  0  0  0  0  0  0
   59.2004   35.6749   45.3780 H   0  0  0  0  0  0  0  0  0  0  0  0
   58.7882   34.8916   47.8941 H   0  0  0  0  0  0  0  0  0  0  0  0
   60.1135   34.3775   49.9449 H   0  0  0  0  0  0  0  0  0  0  0  0
   62.4600   33.5423   49.7446 H   0  0  0  0  0  0  0  0  0  0  0  0
   63.4838   33.2213   47.4906 H   0  0  0  0  0  0  0  0  0  0  0  0
   62.1607   33.7223   45.4343 H   0  0  0  0  0  0  0  0  0  0  0  0
   59.4023   31.2304   47.4337 H   0  0  0  0  0  0  0  0  0  0  0  0
   58.1007   32.7268   48.9424 H   0  0  0  0  0  0  0  0  0  0  0  0
  1  2  1  0
  2  3  1  0
  3  4  2  0
  4  5  1  0
  5  6  2  0
  6  7  1  0
  7  8  1  0
  8  9  1  0
  9 10  2  0
  9 11  1  0
 11 12  1  0
 12 13  1  0
 13 14  2  0
 14 15  1  0
 15 16  1  0
 16 17  2  0
 11 18  1  0
 18 19  1  0
 19 20  2  0
 19 21  1  0
 21 22  1  0
 22 23  2  0
 23 24  1  0
 24 25  1  0
 25 26  1  0
 26 27  2  0
 27 28  1  0
 28 29  2  0
 29 30  1  0
 30 31  2  0
 24 32  2  0
 32 33  1  0
  6 34  1  0
 34 35  2  0
 35  3  1  0
 17 13  1  0
 33 22  1  0
 31 26  1  0
  1 36  1  0
  1 37  1  0
  2 38  1  0
  2 39  1  0
  4 40  1  0
  5 41  1  0
  7 42  1  0
  7 43  1  0
 11 44  1  6
 12 45  1  0
 12 46  1  0
 14 47  1  0
 16 48  1  0
 21 49  1  0
 21 50  1  0
 23 51  1  0
 25 52  1  0
 25 53  1  0
 27 54  1  0
 28 55  1  0
 29 56  1  0
 30 57  1  0
 31 58  1  0
 34 59  1  0
 35 60  1  0
M  CHG  3   8  -1  15  -1  18  -1
M  END
>  <UniqueID>  (95) 
88

>  <SMILES>  (95) 
NCc1ccc(C[N-]C(=O)[C@@H](Cc2c[n-]cn2)[N-]C(=O)Cc2cc(Cc3ccccc3)no2)cc1

>  <Energy>  (95) 
109.79190999176814

>  <Genealogy>  (95) 
NCc1ccc(C[N-]C(=O)C(Cc2c[n-]cn2)[N-]C(=O)Cc2cc(Cc3ccccc3)no2)cc1 (protonated)
NCc1ccc(C[N-]C(=O)[C@@H](Cc2c[n-]cn2)[N-]C(=O)Cc2cc(Cc3ccccc3)no2)cc1 (chirality)
NCc1ccc(C[N-]C(=O)[C@@H](Cc2c[n-]cn2)[N-]C(=O)Cc2cc(Cc3ccccc3)no2)cc1 (3D coordinates assigned)
NCc1ccc(C[N-]C(=O)[C@@H](Cc2c[n-]cn2)[N-]C(=O)Cc2cc(Cc3ccccc3)no2)cc1 (optimized conformer: 109.79190999176814 kcal/mol)

>  <smiles>  (95) 
NCc1ccc(CNC(=O)C(Cc2c[nH]cn2)NC(=O)Cc2cc(Cc3ccccc3)no2)cc1

>  <score_type>  (95) 
oracle

>  <origin>  (95) 
adg

>  <m_score__min__energy>  (95) 
-14.550000000000001

>  <m_primary>  (95) 
energy

$$$$
