0:0
     RDKit          3D

 41 43  0  0  0  0  0  0  0  0999 V2000
   61.1330   29.5470   48.4440 O   0  0  0  0  0  0  0  0  0  0  0  0
   61.2490   30.5820   47.7340 C   0  0  0  0  0  0  0  0  0  0  0  0
   60.3680   30.8000   46.6220 N   0  0  0  0  0  0  0  0  0  0  0  0
   59.6190   29.7480   45.9890 C   0  0  0  0  0  0  0  0  0  0  0  0
   59.8370   28.5440   46.2960 O   0  0  0  0  0  0  0  0  0  0  0  0
   58.6070   30.0660   44.9520 C   0  0  0  0  0  0  0  0  0  0  0  0
   57.8830   29.0240   44.3450 C   0  0  0  0  0  0  0  0  0  0  0  0
   56.9240   29.3010   43.3700 C   0  0  0  0  0  0  0  0  0  0  0  0
   56.6770   30.6180   42.9870 C   0  0  0  0  0  0  0  0  0  0  0  0
   57.3870   31.6640   43.5780 C   0  0  0  0  0  0  0  0  0  0  0  0
   58.3550   31.4030   44.5690 C   0  0  0  0  0  0  0  0  0  0  0  0
   59.0650   32.4400   45.2000 O   0  0  0  0  0  0  0  0  0  0  0  0
   58.4820   33.5380   45.9030 C   0  0  0  0  0  0  0  0  0  0  0  0
   58.9860   33.5870   47.3210 C   0  0  0  0  0  0  0  0  0  0  0  0
   59.9590   34.5310   47.6880 C   0  0  0  0  0  0  0  0  0  0  0  0
   60.4300   34.5820   49.0040 C   0  0  0  0  0  0  0  0  0  0  0  0
   59.9270   33.6980   49.9620 C   0  0  0  0  0  0  0  0  0  0  0  0
   58.9510   32.7620   49.6080 C   0  0  0  0  0  0  0  0  0  0  0  0
   58.3190   31.6540   50.8130 Cl  0  0  0  0  0  0  0  0  0  0  0  0
   58.4770   32.7090   48.2930 C   0  0  0  0  0  0  0  0  0  0  0  0
   62.2540   31.6020   48.1040 C   0  0  0  0  0  0  0  0  0  0  0  0
   62.7670   32.4450   47.1070 C   0  0  0  0  0  0  0  0  0  0  0  0
   63.7300   33.4000   47.4350 C   0  0  0  0  0  0  0  0  0  0  0  0
   64.1590   33.5230   48.7170 N   0  0  0  0  0  0  0  0  0  0  0  0
   63.6720   32.7350   49.7110 C   0  0  0  0  0  0  0  0  0  0  0  0
   62.7050   31.7610   49.4330 C   0  0  0  0  0  0  0  0  0  0  0  0
   61.9780   30.7680   50.9070 Br  0  0  0  0  0  0  0  0  0  0  0  0
   60.3020   31.7650   46.2310 H   0  0  0  0  0  0  0  0  0  0  0  0
   58.0744   27.9821   44.6414 H   0  0  0  0  0  0  0  0  0  0  0  0
   56.3621   28.4787   42.9030 H   0  0  0  0  0  0  0  0  0  0  0  0
   55.9211   30.8334   42.2175 H   0  0  0  0  0  0  0  0  0  0  0  0
   57.1897   32.7008   43.2680 H   0  0  0  0  0  0  0  0  0  0  0  0
   58.7469   34.4757   45.3926 H   0  0  0  0  0  0  0  0  0  0  0  0
   57.3897   33.4090   45.9191 H   0  0  0  0  0  0  0  0  0  0  0  0
   60.3521   35.2328   46.9377 H   0  0  0  0  0  0  0  0  0  0  0  0
   61.1971   35.3187   49.2850 H   0  0  0  0  0  0  0  0  0  0  0  0
   60.2995   33.7387   50.9962 H   0  0  0  0  0  0  0  0  0  0  0  0
   57.7029   31.9772   48.0187 H   0  0  0  0  0  0  0  0  0  0  0  0
   62.4113   32.3535   46.0701 H   0  0  0  0  0  0  0  0  0  0  0  0
   64.1424   34.0546   46.6531 H   0  0  0  0  0  0  0  0  0  0  0  0
   64.0394   32.8629   50.7399 H   0  0  0  0  0  0  0  0  0  0  0  0
  1  2  2  0
  2  3  1  0
  3  4  1  0
  4  5  2  0
  4  6  1  0
  6  7  2  0
  7  8  1  0
  8  9  2  0
  9 10  1  0
 10 11  2  0
 11 12  1  0
 12 13  1  0
 13 14  1  0
 14 15  2  0
 15 16  1  0
 16 17  2  0
 17 18  1  0
 18 19  1  0
 18 20  2  0
  2 21  1  0
 21 22  2  0
 22 23  1  0
 23 24  2  0
 24 25  1  0
 25 26  2  0
 26 27  1  0
 11  6  1  0
 20 14  1  0
 26 21  1  0
  3 28  1  0
  7 29  1  0
  8 30  1  0
  9 31  1  0
 10 32  1  0
 13 33  1  0
 13 34  1  0
 15 35  1  0
 16 36  1  0
 17 37  1  0
 20 38  1  0
 22 39  1  0
 23 40  1  0
 25 41  1  0
M  END
>  <UniqueID>  (1) 
1

>  <SMILES>  (1) 
O=C(NC(=O)c1ccccc1OCc1cccc(Cl)c1)c1ccncc1Br

>  <Energy>  (1) 
54.305849744472894

>  <Genealogy>  (1) 
O=C(NC(=O)c1ccccc1OCc1cccc(Cl)c1)c1ccncc1Br (3D coordinates assigned)
O=C(NC(=O)c1ccccc1OCc1cccc(Cl)c1)c1ccncc1Br (optimized conformer: 54.305849744472894 kcal/mol)

>  <smiles>  (1) 
O=C(NC(=O)c1ccccc1OCc1cccc(Cl)c1)c1ccncc1Br

>  <score_type>  (1) 
oracle

>  <origin>  (1) 
adg

>  <m_score__min__energy>  (1) 
-8.7899999999999991

>  <m_primary>  (1) 
energy

$$$$
1:0
     RDKit          3D

 47 49  0  0  0  0  0  0  0  0999 V2000
   58.5730   34.3750   46.2230 C   0  0  0  0  0  0  0  0  0  0  0  0
   57.7340   34.1270   44.9740 C   0  0  0  0  0  0  0  0  0  0  0  0
   58.4480   33.3210   44.0390 O   0  0  0  0  0  0  0  0  0  0  0  0
   58.0570   32.0240   43.6780 C   0  0  0  0  0  0  0  0  0  0  0  0
   57.3360   31.8460   42.6590 O   0  0  0  0  0  0  0  0  0  0  0  0
   58.4740   30.8980   44.4770 N   0  0  0  0  0  0  0  0  0  0  0  0
   57.8850   29.5690   44.2340 C   0  0  0  0  0  0  0  0  0  0  0  0
   58.9020   28.4700   44.5420 C   0  0  0  0  0  0  0  0  0  0  0  0
   59.4850   28.7140   45.8630 N   0  0  0  0  0  0  0  0  0  0  0  0
   59.1730   27.9020   47.0110 C   0  0  0  0  0  0  0  0  0  0  0  0
   60.0540   27.7240   47.8950 O   0  0  0  0  0  0  0  0  0  0  0  0
   57.7780   27.3840   47.2540 C   0  0  0  0  0  0  0  0  0  0  0  0
   57.4790   26.2560   46.3690 N   0  0  0  0  0  0  0  0  0  0  0  0
   56.2810   25.9590   45.8210 C   0  0  0  0  0  0  0  0  0  0  0  0
   55.1300   26.7210   45.9920 O   0  0  0  0  0  0  0  0  0  0  0  0
   56.3620   24.7940   45.0860 C   0  0  0  0  0  0  0  0  0  0  0  0
   57.6550   24.3510   45.1950 C   0  0  0  0  0  0  0  0  0  0  0  0
   58.3190   25.2610   45.9950 C   0  0  0  0  0  0  0  0  0  0  0  0
   59.6560   25.1590   46.3750 O   0  0  0  0  0  0  0  0  0  0  0  0
   58.1650   23.0900   44.5780 C   0  0  0  0  0  0  0  0  0  0  0  0
   57.1020   22.4050   43.7430 C   0  0  0  0  0  0  0  0  0  0  0  0
   55.8270   22.8420   43.6340 C   0  0  0  0  0  0  0  0  0  0  0  0
   55.2900   24.0750   44.3330 C   0  0  0  0  0  0  0  0  0  0  0  0
   60.1710   29.9950   46.0370 C   0  0  0  0  0  0  0  0  0  0  0  0
   59.1900   31.1330   45.7440 C   0  0  0  0  0  0  0  0  0  0  0  0
   57.9601   34.1938   47.1183 H   0  0  0  0  0  0  0  0  0  0  0  0
   59.4366   33.6937   46.2258 H   0  0  0  0  0  0  0  0  0  0  0  0
   58.9274   35.4163   46.2258 H   0  0  0  0  0  0  0  0  0  0  0  0
   56.8050   33.6118   45.2595 H   0  0  0  0  0  0  0  0  0  0  0  0
   57.5047   35.0948   44.5041 H   0  0  0  0  0  0  0  0  0  0  0  0
   57.0045   29.4393   44.8804 H   0  0  0  0  0  0  0  0  0  0  0  0
   57.5918   29.4971   43.1762 H   0  0  0  0  0  0  0  0  0  0  0  0
   58.4000   27.4912   44.5359 H   0  0  0  0  0  0  0  0  0  0  0  0
   59.6953   28.4747   43.7800 H   0  0  0  0  0  0  0  0  0  0  0  0
   57.6933   27.0538   48.2998 H   0  0  0  0  0  0  0  0  0  0  0  0
   57.0614   28.1927   47.0478 H   0  0  0  0  0  0  0  0  0  0  0  0
   60.1320   25.9130   46.8520 H   0  0  0  0  0  0  0  0  0  0  0  0
   59.0241   23.3301   43.9344 H   0  0  0  0  0  0  0  0  0  0  0  0
   58.4584   22.4061   45.3880 H   0  0  0  0  0  0  0  0  0  0  0  0
   57.3850   21.4963   43.1916 H   0  0  0  0  0  0  0  0  0  0  0  0
   55.1370   22.2672   42.9988 H   0  0  0  0  0  0  0  0  0  0  0  0
   54.8656   24.7553   43.5800 H   0  0  0  0  0  0  0  0  0  0  0  0
   54.5217   23.7545   45.0520 H   0  0  0  0  0  0  0  0  0  0  0  0
   60.5354   30.0801   47.0714 H   0  0  0  0  0  0  0  0  0  0  0  0
   61.0247   30.0548   45.3459 H   0  0  0  0  0  0  0  0  0  0  0  0
   58.4593   31.1985   46.5637 H   0  0  0  0  0  0  0  0  0  0  0  0
   59.7567   32.0718   45.6582 H   0  0  0  0  0  0  0  0  0  0  0  0
  1  2  1  0
  2  3  1  0
  3  4  1  0
  4  5  2  0
  4  6  1  0
  6  7  1  0
  7  8  1  0
  8  9  1  0
  9 10  1  0
 10 11  2  0
 10 12  1  0
 12 13  1  0
 13 14  1  0
 14 15  1  0
 14 16  2  0
 16 17  1  0
 17 18  2  0
 18 19  1  0
 17 20  1  0
 20 21  1  0
 21 22  2  0
 22 23  1  0
  9 24  1  0
 24 25  1  0
 25  6  1  0
 18 13  1  0
 23 16  1  0
  1 26  1  0
  1 27  1  0
  1 28  1  0
  2 29  1  0
  2 30  1  0
  7 31  1  0
  7 32  1  0
  8 33  1  0
  8 34  1  0
 12 35  1  0
 12 36  1  0
 19 37  1  0
 20 38  1  0
 20 39  1  0
 21 40  1  0
 22 41  1  0
 23 42  1  0
 23 43  1  0
 24 44  1  0
 24 45  1  0
 25 46  1  0
 25 47  1  0
M  CHG  1  15  -1
M  END
>  <UniqueID>  (2) 
2

>  <SMILES>  (2) 
CCOC(=O)N1CCN(C(=O)Cn2c([O-])c3c(c2O)CC=CC3)CC1

>  <Energy>  (2) 
77.53002060017576

>  <Genealogy>  (2) 
CCOC(=O)N1CCN(C(=O)Cn2c([O-])c3c(c2O)CC=CC3)CC1 (protonated)
CCOC(=O)N1CCN(C(=O)Cn2c([O-])c3c(c2O)CC=CC3)CC1 (3D coordinates assigned)
CCOC(=O)N1CCN(C(=O)Cn2c([O-])c3c(c2O)CC=CC3)CC1 (nonaromatic ring conformer: 77.53002060017576 kcal/mol)

>  <smiles>  (2) 
CCOC(=O)N1CCN(C(=O)Cn2c(O)c3c(c2O)CC=CC3)CC1

>  <score_type>  (2) 
oracle

>  <origin>  (2) 
adg

>  <m_score__min__energy>  (2) 
-10.26

>  <m_primary>  (2) 
energy

$$$$
2:0
     RDKit          3D

 41 43  0  0  0  0  0  0  0  0999 V2000
   57.4385   21.6155   42.1937 H   0  0  0  0  0  0  0  0  0  0  0  0
   57.0230   22.1670   43.0500 C   0  0  0  0  0  0  0  0  0  0  0  0
   55.7520   22.6470   42.9960 N   0  0  0  0  0  0  0  0  0  0  0  0
   55.2020   23.3310   44.0360 C   0  0  0  0  0  0  0  0  0  0  0  0
   54.1713   23.7079   43.9604 H   0  0  0  0  0  0  0  0  0  0  0  0
   55.9450   23.5570   45.2040 C   0  0  0  0  0  0  0  0  0  0  0  0
   55.3490   24.3410   46.3430 C   0  0  0  0  0  0  0  0  0  0  0  0
   55.9181   24.1356   47.2617 H   0  0  0  0  0  0  0  0  0  0  0  0
   54.2994   24.0392   46.4740 H   0  0  0  0  0  0  0  0  0  0  0  0
   55.3990   25.7740   46.0550 N   0  0  0  0  0  0  0  0  0  0  0  0
   56.4910   26.4760   45.9750 C   0  0  0  0  0  0  0  0  0  0  0  0
   56.4660   27.7560   45.5200 N   0  0  0  0  0  0  0  0  0  0  0  0
   57.5950   28.5090   45.4430 C   0  0  0  0  0  0  0  0  0  0  0  0
   57.4930   29.8740   45.0120 N   0  0  0  0  0  0  0  0  0  0  0  0
   57.7500   30.9100   45.7960 N   0  0  0  0  0  0  0  0  0  0  0  0
   57.4870   32.0270   45.0900 C   0  0  0  0  0  0  0  0  0  0  0  0
   57.5880   33.4070   45.6470 C   0  0  0  0  0  0  0  0  0  0  0  0
   57.5846   33.3600   46.7460 H   0  0  0  0  0  0  0  0  0  0  0  0
   58.5227   33.8738   45.3029 H   0  0  0  0  0  0  0  0  0  0  0  0
   56.7312   34.0049   45.3029 H   0  0  0  0  0  0  0  0  0  0  0  0
   57.0210   31.6960   43.8310 C   0  0  0  0  0  0  0  0  0  0  0  0
   56.7016   32.3757   43.0273 H   0  0  0  0  0  0  0  0  0  0  0  0
   57.0490   30.3160   43.8150 C   0  0  0  0  0  0  0  0  0  0  0  0
   56.6350   29.4520   42.6640 C   0  0  0  0  0  0  0  0  0  0  0  0
   56.1892   28.5216   43.0457 H   0  0  0  0  0  0  0  0  0  0  0  0
   55.8959   29.9880   42.0504 H   0  0  0  0  0  0  0  0  0  0  0  0
   57.5158   29.2118   42.0504 H   0  0  0  0  0  0  0  0  0  0  0  0
   58.8280   27.9540   45.8450 C   0  0  0  0  0  0  0  0  0  0  0  0
   60.0470   28.7050   45.7340 N   0  0  0  0  0  0  0  0  0  0  0  0
   60.5120   29.3000   46.7300 O   0  0  0  0  0  0  0  0  0  0  0  0
   60.7140   28.7830   44.5350 O   0  0  0  0  0  0  0  0  0  0  0  0
   58.8340   26.6190   46.3030 C   0  0  0  0  0  0  0  0  0  0  0  0
   60.0970   25.9300   46.7240 C   0  0  0  0  0  0  0  0  0  0  0  0
   60.1502   25.9010   47.8223 H   0  0  0  0  0  0  0  0  0  0  0  0
   60.1037   24.9033   46.3293 H   0  0  0  0  0  0  0  0  0  0  0  0
   60.9639   26.4802   46.3293 H   0  0  0  0  0  0  0  0  0  0  0  0
   57.6670   25.9230   46.3590 N   0  0  0  0  0  0  0  0  0  0  0  0
   57.2590   23.0720   45.2710 C   0  0  0  0  0  0  0  0  0  0  0  0
   57.8624   23.2423   46.1749 H   0  0  0  0  0  0  0  0  0  0  0  0
   57.8020   22.3730   44.1910 C   0  0  0  0  0  0  0  0  0  0  0  0
   58.8317   21.9889   44.2382 H   0  0  0  0  0  0  0  0  0  0  0  0
  1  2  1  0
  2  3  2  0
  3  4  1  0
  4  5  1  0
  4  6  2  0
  6  7  1  0
  7  8  1  0
  7  9  1  0
  7 10  1  0
 10 11  2  0
 11 12  1  0
 12 13  2  0
 13 14  1  0
 14 15  1  0
 15 16  2  0
 16 17  1  0
 17 18  1  0
 17 19  1  0
 17 20  1  0
 16 21  1  0
 21 22  1  0
 21 23  2  0
 23 24  1  0
 24 25  1  0
 24 26  1  0
 24 27  1  0
 13 28  1  0
 28 29  1  0
 29 30  2  0
 29 31  1  0
 28 32  2  0
 32 33  1  0
 33 34  1  0
 33 35  1  0
 33 36  1  0
 32 37  1  0
  6 38  1  0
 38 39  1  0
 38 40  2  0
 40 41  1  0
 40  2  1  0
 37 11  1  0
 23 14  1  0
M  CHG  3  29   1  31  -1  37  -1
M  END
>  <UniqueID>  (3) 
3

>  <SMILES>  (3) 
Cc1cc(C)n(-c2n/c(=N\Cc3cccnc3)[n-]c(C)c2[N+](=O)[O-])n1

>  <Energy>  (3) 
80.281100260804

>  <Genealogy>  (3) 
Cc1cc(C)n(-c2nc(=NCc3cccnc3)[n-]c(C)c2[N+](=O)[O-])n1 (protonated)
Cc1cc(C)n(-c2n/c(=N\Cc3cccnc3)[n-]c(C)c2[N+](=O)[O-])n1 (cis-trans isomerization)
Cc1cc(C)n(-c2n/c(=N\Cc3cccnc3)[n-]c(C)c2[N+](=O)[O-])n1 (3D coordinates assigned)
Cc1cc(C)n(-c2n/c(=N\Cc3cccnc3)[n-]c(C)c2[N+](=O)[O-])n1 (optimized conformer: 80.281100260804 kcal/mol)

>  <smiles>  (3) 
Cc1cc(C)n(-c2nc(=NCc3cccnc3)[nH]c(C)c2[N+](=O)[O-])n1

>  <score_type>  (3) 
oracle

>  <origin>  (3) 
adg

>  <m_score__min__energy>  (3) 
-9.5199999999999996

>  <m_primary>  (3) 
energy

$$$$
3:0
     RDKit          3D

 74 79  0  0  0  0  0  0  0  0999 V2000
   59.5102   35.6666   44.0995 H   0  0  0  0  0  0  0  0  0  0  0  0
   59.1940   34.9480   44.8700 C   0  0  0  0  0  0  0  0  0  0  0  0
   59.5870   35.1180   46.1530 N   0  0  0  0  0  0  0  0  0  0  0  0
   59.2560   34.2340   47.1290 C   0  0  0  0  0  0  0  0  0  0  0  0
   59.7290   34.4650   48.4280 C   0  0  0  0  0  0  0  0  0  0  0  0
   60.3016   35.3782   48.6473 H   0  0  0  0  0  0  0  0  0  0  0  0
   59.4780   33.5450   49.4420 C   0  0  0  0  0  0  0  0  0  0  0  0
   60.0860   33.8330   51.0650 Cl  0  0  0  0  0  0  0  0  0  0  0  0
   58.7760   32.3750   49.1580 C   0  0  0  0  0  0  0  0  0  0  0  0
   58.6028   31.6352   49.9534 H   0  0  0  0  0  0  0  0  0  0  0  0
   58.2900   32.1350   47.8680 C   0  0  0  0  0  0  0  0  0  0  0  0
   57.7615   31.1939   47.6558 H   0  0  0  0  0  0  0  0  0  0  0  0
   58.4670   33.0830   46.8310 C   0  0  0  0  0  0  0  0  0  0  0  0
   57.9650   32.9470   45.4920 C   0  0  0  0  0  0  0  0  0  0  0  0
   57.0640   32.0890   45.0820 N   0  0  0  0  0  0  0  0  0  0  0  0
   57.0650   31.0290   44.0770 C   0  0  0  0  0  0  0  0  0  0  0  0
   58.0626   30.9736   43.6168 H   0  0  0  0  0  0  0  0  0  0  0  0
   56.2992   31.2665   43.3239 H   0  0  0  0  0  0  0  0  0  0  0  0
   56.7310   29.6900   44.6860 C   0  0  0  0  0  0  0  0  0  0  0  0
   55.5280   29.3100   44.7290 O   0  0  0  0  0  0  0  0  0  0  0  0
   57.7600   28.8460   45.2460 N   0  0  0  0  0  0  0  0  0  0  0  0
   59.1740   28.9650   44.8480 C   0  0  0  0  0  0  0  0  0  0  0  0
   59.2778   29.7638   44.0989 H   0  0  0  0  0  0  0  0  0  0  0  0
   59.5148   28.0116   44.4180 H   0  0  0  0  0  0  0  0  0  0  0  0
   60.0260   29.3040   46.0780 C   0  0  0  0  0  0  0  0  0  0  0  0
   59.9637   30.3851   46.2715 H   0  0  0  0  0  0  0  0  0  0  0  0
   61.0657   29.0070   45.8758 H   0  0  0  0  0  0  0  0  0  0  0  0
   59.5540   28.5750   47.2660 N   0  0  0  0  0  0  0  0  0  0  0  0
   59.8140   29.1380   48.5680 C   0  0  0  0  0  0  0  0  0  0  0  0
   58.7900   29.2860   49.4490 N   0  0  0  0  0  0  0  0  0  0  0  0
   58.9780   29.7480   50.7140 C   0  0  0  0  0  0  0  0  0  0  0  0
   57.8800   29.8950   51.5650 C   0  0  0  0  0  0  0  0  0  0  0  0
   56.8755   29.6209   51.2102 H   0  0  0  0  0  0  0  0  0  0  0  0
   58.0460   30.3900   52.8710 C   0  0  0  0  0  0  0  0  0  0  0  0
   56.9620   30.5580   53.7460 O   0  0  0  0  0  0  0  0  0  0  0  0
   55.6060   30.2700   53.4180 C   0  0  0  0  0  0  0  0  0  0  0  0
   55.0234   30.1463   54.3428 H   0  0  0  0  0  0  0  0  0  0  0  0
   55.1872   31.0992   52.8290 H   0  0  0  0  0  0  0  0  0  0  0  0
   55.5604   29.3421   52.8290 H   0  0  0  0  0  0  0  0  0  0  0  0
   59.3280   30.7350   53.3240 C   0  0  0  0  0  0  0  0  0  0  0  0
   59.4560   31.2510   54.6240 O   0  0  0  0  0  0  0  0  0  0  0  0
   59.0580   32.5570   55.0180 C   0  0  0  0  0  0  0  0  0  0  0  0
   59.0391   32.6189   56.1161 H   0  0  0  0  0  0  0  0  0  0  0  0
   59.7725   33.2933   54.6215 H   0  0  0  0  0  0  0  0  0  0  0  0
   58.0543   32.7697   54.6215 H   0  0  0  0  0  0  0  0  0  0  0  0
   60.4390   30.5650   52.4740 C   0  0  0  0  0  0  0  0  0  0  0  0
   61.4457   30.8174   52.8385 H   0  0  0  0  0  0  0  0  0  0  0  0
   60.2760   30.0760   51.1640 C   0  0  0  0  0  0  0  0  0  0  0  0
   61.3690   29.9010   50.2840 C   0  0  0  0  0  0  0  0  0  0  0  0
   62.5830   30.1490   50.7050 N   0  0  0  0  0  0  0  0  0  0  0  0
   63.2270   31.4570   50.8550 C   0  0  0  0  0  0  0  0  0  0  0  0
   62.6996   32.0277   51.6335 H   0  0  0  0  0  0  0  0  0  0  0  0
   64.2786   31.2937   51.1333 H   0  0  0  0  0  0  0  0  0  0  0  0
   63.1950   32.2410   49.5660 C   0  0  0  0  0  0  0  0  0  0  0  0
   63.0470   33.6370   49.5910 C   0  0  0  0  0  0  0  0  0  0  0  0
   62.9463   34.1597   50.5536 H   0  0  0  0  0  0  0  0  0  0  0  0
   63.0270   34.3660   48.3980 C   0  0  0  0  0  0  0  0  0  0  0  0
   62.9049   35.4589   48.4244 H   0  0  0  0  0  0  0  0  0  0  0  0
   63.1620   33.7080   47.1710 C   0  0  0  0  0  0  0  0  0  0  0  0
   63.1397   34.2822   46.2330 H   0  0  0  0  0  0  0  0  0  0  0  0
   63.3250   32.3220   47.1380 C   0  0  0  0  0  0  0  0  0  0  0  0
   63.4356   31.8050   46.1734 H   0  0  0  0  0  0  0  0  0  0  0  0
   63.3480   31.5890   48.3300 C   0  0  0  0  0  0  0  0  0  0  0  0
   63.4864   30.4982   48.2996 H   0  0  0  0  0  0  0  0  0  0  0  0
   61.1200   29.4440   48.9750 C   0  0  0  0  0  0  0  0  0  0  0  0
   61.9549   29.3266   48.2684 H   0  0  0  0  0  0  0  0  0  0  0  0
   58.6450   27.4340   47.0790 C   0  0  0  0  0  0  0  0  0  0  0  0
   58.3502   27.0332   48.0601 H   0  0  0  0  0  0  0  0  0  0  0  0
   59.1529   26.6460   46.5036 H   0  0  0  0  0  0  0  0  0  0  0  0
   57.3980   27.9050   46.3210 C   0  0  0  0  0  0  0  0  0  0  0  0
   56.7170   28.4065   47.0244 H   0  0  0  0  0  0  0  0  0  0  0  0
   56.9085   27.0287   45.8709 H   0  0  0  0  0  0  0  0  0  0  0  0
   58.3920   33.8680   44.5230 C   0  0  0  0  0  0  0  0  0  0  0  0
   58.0876   33.7329   43.4746 H   0  0  0  0  0  0  0  0  0  0  0  0
  1  2  1  0
  2  3  1  0
  3  4  1  0
  4  5  2  0
  5  6  1  0
  5  7  1  0
  7  8  1  0
  7  9  2  0
  9 10  1  0
  9 11  1  0
 11 12  1  0
 11 13  2  0
 13 14  1  0
 14 15  2  3
 15 16  1  0
 16 17  1  0
 16 18  1  0
 16 19  1  0
 19 20  2  0
 19 21  1  0
 21 22  1  0
 22 23  1  0
 22 24  1  0
 22 25  1  0
 25 26  1  0
 25 27  1  0
 25 28  1  0
 28 29  1  0
 29 30  1  0
 30 31  1  0
 31 32  2  0
 32 33  1  0
 32 34  1  0
 34 35  1  0
 35 36  1  0
 36 37  1  0
 36 38  1  0
 36 39  1  0
 34 40  2  0
 40 41  1  0
 41 42  1  0
 42 43  1  0
 42 44  1  0
 42 45  1  0
 40 46  1  0
 46 47  1  0
 46 48  2  0
 48 49  1  0
 49 50  2  0
 50 51  1  0
 51 52  1  0
 51 53  1  0
 51 54  1  0
 54 55  2  0
 55 56  1  0
 55 57  1  0
 57 58  1  0
 57 59  2  0
 59 60  1  0
 59 61  1  0
 61 62  1  0
 61 63  2  0
 63 64  1  0
 49 65  1  0
 65 66  1  0
 28 67  1  0
 67 68  1  0
 67 69  1  0
 67 70  1  0
 70 71  1  0
 70 72  1  0
 14 73  1  0
 73 74  1  0
 73  2  2  0
 13  4  1  0
 70 21  1  0
 65 29  2  0
 48 31  1  0
 63 54  1  0
M  CHG  2   3  -1  30  -1
M  END
>  <UniqueID>  (4) 
4

>  <SMILES>  (4) 
COc1cc2[n-]c(N3CCN(C(=O)CN=c4cc[n-]c5cc(Cl)ccc45)CC3)c/c(=N\Cc3ccccc3)c2cc1OC

>  <Energy>  (4) 
112.15584979801757

>  <Genealogy>  (4) 
COc1cc2[n-]c(N3CCN(C(=O)CN=c4cc[n-]c5cc(Cl)ccc45)CC3)cc(=NCc3ccccc3)c2cc1OC (protonated)
COc1cc2[n-]c(N3CCN(C(=O)CN=c4cc[n-]c5cc(Cl)ccc45)CC3)c/c(=N\Cc3ccccc3)c2cc1OC (cis-trans isomerization)
COc1cc2[n-]c(N3CCN(C(=O)CN=c4cc[n-]c5cc(Cl)ccc45)CC3)c/c(=N\Cc3ccccc3)c2cc1OC (3D coordinates assigned)
COc1cc2[n-]c(N3CCN(C(=O)CN=c4cc[n-]c5cc(Cl)ccc45)CC3)c/c(=N\Cc3ccccc3)c2cc1OC (nonaromatic ring conformer: 112.15584979801757 kcal/mol)

>  <smiles>  (4) 
COc1cc2[nH]c(N3CCN(C(=O)CN=c4cc[nH]c5cc(Cl)ccc45)CC3)cc(=NCc3ccccc3)c2cc1OC

>  <score_type>  (4) 
oracle

>  <origin>  (4) 
adg

>  <m_score__min__energy>  (4) 
-12.07

>  <m_primary>  (4) 
energy

$$$$
4:0
     RDKit          3D

 39 41  0  0  0  0  0  0  0  0999 V2000
   55.1450   30.2470   44.4930 N   0  0  0  0  0  0  0  0  0  0  0  0
   56.8440   30.5210   44.3390 S   0  0  0  0  0  0  0  0  0  0  0  0
   57.1690   30.8770   42.9150 O   0  0  0  0  0  0  0  0  0  0  0  0
   57.2480   31.6640   45.2260 O   0  0  0  0  0  0  0  0  0  0  0  0
   57.7180   29.0650   44.8010 C   0  0  0  0  0  0  0  0  0  0  0  0
   59.1180   29.0690   44.8660 C   0  0  0  0  0  0  0  0  0  0  0  0
   59.8070   27.9170   45.2510 C   0  0  0  0  0  0  0  0  0  0  0  0
   59.1040   26.7540   45.5730 C   0  0  0  0  0  0  0  0  0  0  0  0
   57.7020   26.7340   45.5090 C   0  0  0  0  0  0  0  0  0  0  0  0
   56.9780   25.5430   45.8590 N   0  0  0  0  0  0  0  0  0  0  0  0
   55.6490   25.4510   46.0720 C   0  0  0  0  0  0  0  0  0  0  0  0
   54.7720   26.5280   46.0000 O   0  0  0  0  0  0  0  0  0  0  0  0
   55.2740   24.1550   46.3570 C   0  0  0  0  0  0  0  0  0  0  0  0
   56.4400   23.4040   46.3140 C   0  0  0  0  0  0  0  0  0  0  0  0
   56.5690   21.9710   46.6420 C   0  0  0  0  0  0  0  0  0  0  0  0
   57.7160   21.4570   46.6980 O   0  0  0  0  0  0  0  0  0  0  0  0
   55.4300   21.1350   46.8850 N   0  0  0  0  0  0  0  0  0  0  0  0
   54.3830   20.8430   45.9150 C   0  0  0  0  0  0  0  0  0  0  0  0
   53.1360   21.5640   46.3070 C   0  0  0  0  0  0  0  0  0  0  0  0
   52.7900   21.9400   47.5880 C   0  0  0  0  0  0  0  0  0  0  0  0
   51.5840   22.5970   47.4670 C   0  0  0  0  0  0  0  0  0  0  0  0
   51.2740   22.5850   46.1230 C   0  0  0  0  0  0  0  0  0  0  0  0
   52.2200   21.9640   45.4550 O   0  0  0  0  0  0  0  0  0  0  0  0
   57.4660   24.2920   46.0160 C   0  0  0  0  0  0  0  0  0  0  0  0
   58.8540   23.9520   45.9260 N   0  0  0  0  0  0  0  0  0  0  0  0
   57.0130   27.8990   45.1330 C   0  0  0  0  0  0  0  0  0  0  0  0
   55.0250   29.4230   45.1240 H   0  0  0  0  0  0  0  0  0  0  0  0
   59.6759   29.9826   44.6129 H   0  0  0  0  0  0  0  0  0  0  0  0
   60.9058   27.9256   45.3008 H   0  0  0  0  0  0  0  0  0  0  0  0
   59.6513   25.8499   45.8780 H   0  0  0  0  0  0  0  0  0  0  0  0
   54.2588   23.7912   46.5739 H   0  0  0  0  0  0  0  0  0  0  0  0
   54.7027   21.1768   44.9168 H   0  0  0  0  0  0  0  0  0  0  0  0
   54.1921   19.7599   45.8920 H   0  0  0  0  0  0  0  0  0  0  0  0
   53.3571   21.7546   48.5121 H   0  0  0  0  0  0  0  0  0  0  0  0
   50.9890   23.0412   48.2786 H   0  0  0  0  0  0  0  0  0  0  0  0
   50.3712   23.0283   45.6776 H   0  0  0  0  0  0  0  0  0  0  0  0
   59.5780   24.6860   45.7670 H   0  0  0  0  0  0  0  0  0  0  0  0
   59.1710   22.9610   46.0000 H   0  0  0  0  0  0  0  0  0  0  0  0
   55.9135   27.8967   45.0988 H   0  0  0  0  0  0  0  0  0  0  0  0
  1  2  1  0
  2  3  2  0
  2  4  2  0
  2  5  1  0
  5  6  2  0
  6  7  1  0
  7  8  2  0
  8  9  1  0
  9 10  1  0
 10 11  1  0
 11 12  1  0
 11 13  2  0
 13 14  1  0
 14 15  1  0
 15 16  2  0
 15 17  1  0
 17 18  1  0
 18 19  1  0
 19 20  2  0
 20 21  1  0
 21 22  2  0
 22 23  1  0
 14 24  2  0
 24 25  1  0
  9 26  2  0
 26  5  1  0
 24 10  1  0
 23 19  1  0
  1 27  1  0
  6 28  1  0
  7 29  1  0
  8 30  1  0
 13 31  1  0
 18 32  1  0
 18 33  1  0
 20 34  1  0
 21 35  1  0
 22 36  1  0
 25 37  1  0
 25 38  1  0
 26 39  1  0
M  CHG  3   1  -1  12  -1  17  -1
M  END
>  <UniqueID>  (5) 
5

>  <SMILES>  (5) 
[NH-]S(=O)(=O)c1cccc(-n2c([O-])cc(C(=O)[N-]Cc3ccco3)c2N)c1

>  <Energy>  (5) 
102.11862264935445

>  <Genealogy>  (5) 
[NH-]S(=O)(=O)c1cccc(-n2c([O-])cc(C(=O)[N-]Cc3ccco3)c2N)c1 (protonated)
[NH-]S(=O)(=O)c1cccc(-n2c([O-])cc(C(=O)[N-]Cc3ccco3)c2N)c1 (3D coordinates assigned)
[NH-]S(=O)(=O)c1cccc(-n2c([O-])cc(C(=O)[N-]Cc3ccco3)c2N)c1 (optimized conformer: 102.11862264935445 kcal/mol)

>  <smiles>  (5) 
Nc1c(C(=O)NCc2ccco2)cc(O)n1-c1cccc(S(N)(=O)=O)c1

>  <score_type>  (5) 
oracle

>  <origin>  (5) 
adg

>  <m_score__min__energy>  (5) 
-14.25

>  <m_primary>  (5) 
energy

$$$$
5:0
     RDKit          3D

 49 51  0  0  0  0  0  0  0  0999 V2000
   56.9040   22.2200   43.3170 C   0  0  0  0  0  0  0  0  0  0  0  0
   56.6320   23.7010   43.0600 C   0  0  0  0  0  0  0  0  0  0  0  0
   55.9730   24.3950   44.2600 C   0  0  0  0  0  0  0  0  0  0  0  0
   56.9120   25.3570   44.9420 C   0  0  0  0  0  0  0  0  0  0  0  0
   57.8260   26.1050   44.1850 C   0  0  0  0  0  0  0  0  0  0  0  0
   58.6850   27.0140   44.8110 C   0  0  0  0  0  0  0  0  0  0  0  0
   58.6490   27.1810   46.2060 C   0  0  0  0  0  0  0  0  0  0  0  0
   59.5520   28.1430   46.8780 C   0  0  0  0  0  0  0  0  0  0  0  0
   60.4610   27.7030   47.6320 O   0  0  0  0  0  0  0  0  0  0  0  0
   59.4190   29.6030   46.7050 C   0  0  0  0  0  0  0  0  0  0  0  0
   60.7030   30.6840   46.7810 S   0  0  0  0  0  0  0  0  0  0  0  0
   59.8210   32.0720   46.4300 C   0  0  0  0  0  0  0  0  0  0  0  0
   58.4880   31.7070   46.2090 C   0  0  0  0  0  0  0  0  0  0  0  0
   58.2730   30.3160   46.3460 C   0  0  0  0  0  0  0  0  0  0  0  0
   57.0230   29.6670   46.0860 N   0  0  0  0  0  0  0  0  0  0  0  0
   56.4030   29.6170   44.7990 C   0  0  0  0  0  0  0  0  0  0  0  0
   57.2230   29.8670   43.5790 C   0  0  0  0  0  0  0  0  0  0  0  0
   55.1600   29.4310   44.6920 O   0  0  0  0  0  0  0  0  0  0  0  0
   57.4040   32.7120   45.9200 C   0  0  0  0  0  0  0  0  0  0  0  0
   57.6970   33.5430   44.6560 C   0  0  0  0  0  0  0  0  0  0  0  0
   58.7390   34.6680   44.8350 C   0  0  0  0  0  0  0  0  0  0  0  0
   59.4550   34.6230   46.1970 C   0  0  0  0  0  0  0  0  0  0  0  0
   60.4420   33.4440   46.3390 C   0  0  0  0  0  0  0  0  0  0  0  0
   57.7140   26.4520   46.9580 C   0  0  0  0  0  0  0  0  0  0  0  0
   56.8550   25.5440   46.3310 C   0  0  0  0  0  0  0  0  0  0  0  0
   56.9378   22.0361   44.4010 H   0  0  0  0  0  0  0  0  0  0  0  0
   56.1017   21.6165   42.8675 H   0  0  0  0  0  0  0  0  0  0  0  0
   57.8684   21.9409   42.8675 H   0  0  0  0  0  0  0  0  0  0  0  0
   57.5867   24.2025   42.8432 H   0  0  0  0  0  0  0  0  0  0  0  0
   55.9364   23.7704   42.2107 H   0  0  0  0  0  0  0  0  0  0  0  0
   55.0902   24.9493   43.9088 H   0  0  0  0  0  0  0  0  0  0  0  0
   55.6925   23.6201   44.9886 H   0  0  0  0  0  0  0  0  0  0  0  0
   57.8673   25.9759   43.0934 H   0  0  0  0  0  0  0  0  0  0  0  0
   59.3929   27.6016   44.2080 H   0  0  0  0  0  0  0  0  0  0  0  0
   58.2363   30.1759   43.8752 H   0  0  0  0  0  0  0  0  0  0  0  0
   57.2807   28.9456   42.9809 H   0  0  0  0  0  0  0  0  0  0  0  0
   56.7569   30.6639   42.9809 H   0  0  0  0  0  0  0  0  0  0  0  0
   56.4538   32.1762   45.7784 H   0  0  0  0  0  0  0  0  0  0  0  0
   57.3521   33.4047   46.7729 H   0  0  0  0  0  0  0  0  0  0  0  0
   58.0652   32.8591   43.8771 H   0  0  0  0  0  0  0  0  0  0  0  0
   56.7523   34.0414   44.3930 H   0  0  0  0  0  0  0  0  0  0  0  0
   59.4939   34.5745   44.0404 H   0  0  0  0  0  0  0  0  0  0  0  0
   58.1984   35.6245   44.7823 H   0  0  0  0  0  0  0  0  0  0  0  0
   60.0137   35.5616   46.3271 H   0  0  0  0  0  0  0  0  0  0  0  0
   58.6789   34.4876   46.9646 H   0  0  0  0  0  0  0  0  0  0  0  0
   61.1083   33.4550   45.4638 H   0  0  0  0  0  0  0  0  0  0  0  0
   60.9578   33.6014   47.2977 H   0  0  0  0  0  0  0  0  0  0  0  0
   57.6568   26.5960   48.0470 H   0  0  0  0  0  0  0  0  0  0  0  0
   56.1305   24.9732   46.9304 H   0  0  0  0  0  0  0  0  0  0  0  0
  1  2  1  0
  2  3  1  0
  3  4  1  0
  4  5  2  0
  5  6  1  0
  6  7  2  0
  7  8  1  0
  8  9  2  0
  8 10  1  0
 10 11  1  0
 11 12  1  0
 12 13  2  0
 13 14  1  0
 14 15  1  0
 15 16  1  0
 16 17  1  0
 16 18  2  0
 13 19  1  0
 19 20  1  0
 20 21  1  0
 21 22  1  0
 22 23  1  0
  7 24  1  0
 24 25  2  0
 25  4  1  0
 14 10  2  0
 23 12  1  0
  1 26  1  0
  1 27  1  0
  1 28  1  0
  2 29  1  0
  2 30  1  0
  3 31  1  0
  3 32  1  0
  5 33  1  0
  6 34  1  0
 17 35  1  0
 17 36  1  0
 17 37  1  0
 19 38  1  0
 19 39  1  0
 20 40  1  0
 20 41  1  0
 21 42  1  0
 21 43  1  0
 22 44  1  0
 22 45  1  0
 23 46  1  0
 23 47  1  0
 24 48  1  0
 25 49  1  0
M  CHG  1  15  -1
M  END
>  <UniqueID>  (6) 
6

>  <SMILES>  (6) 
CCCc1ccc(C(=O)c2sc3c(c2[N-]C(C)=O)CCCCC3)cc1

>  <Energy>  (6) 
85.23686157985858

>  <Genealogy>  (6) 
CCCc1ccc(C(=O)c2sc3c(c2[N-]C(C)=O)CCCCC3)cc1 (protonated)
CCCc1ccc(C(=O)c2sc3c(c2[N-]C(C)=O)CCCCC3)cc1 (3D coordinates assigned)
CCCc1ccc(C(=O)c2sc3c(c2[N-]C(C)=O)CCCCC3)cc1 (nonaromatic ring conformer: 85.23686157985858 kcal/mol)

>  <smiles>  (6) 
CCCc1ccc(C(=O)c2sc3c(c2NC(C)=O)CCCCC3)cc1

>  <score_type>  (6) 
oracle

>  <origin>  (6) 
adg

>  <m_score__min__energy>  (6) 
-8.8100000000000005

>  <m_primary>  (6) 
energy

$$$$
6:0
     RDKit          3D

 51 54  0  0  0  0  0  0  0  0999 V2000
   57.5740   33.1700   49.2473 H   0  0  0  0  0  0  0  0  0  0  0  0
   58.1640   32.3460   49.6750 C   0  0  0  0  0  0  0  0  0  0  0  0
   58.9300   31.5680   48.8650 N   0  0  0  0  0  0  0  0  0  0  0  0
   59.6760   30.5350   49.3490 C   0  0  0  0  0  0  0  0  0  0  0  0
   60.4860   29.7290   48.4170 C   0  0  0  0  0  0  0  0  0  0  0  0
   61.5800   30.1810   47.9830 O   0  0  0  0  0  0  0  0  0  0  0  0
   60.0550   28.3970   48.0890 N   0  0  0  0  0  0  0  0  0  0  0  0
   59.0390   28.0120   47.3670 C   0  0  0  0  0  0  0  0  0  0  0  0
   58.7110   26.6910   47.3810 N   0  0  0  0  0  0  0  0  0  0  0  0
   57.6630   26.1920   46.6750 C   0  0  0  0  0  0  0  0  0  0  0  0
   57.3020   24.4790   46.7520 Cl  0  0  0  0  0  0  0  0  0  0  0  0
   56.8730   27.0420   45.9010 C   0  0  0  0  0  0  0  0  0  0  0  0
   56.0231   26.6422   45.3285 H   0  0  0  0  0  0  0  0  0  0  0  0
   57.1730   28.4110   45.8600 C   0  0  0  0  0  0  0  0  0  0  0  0
   56.3940   29.3200   45.1250 O   0  0  0  0  0  0  0  0  0  0  0  0
   56.8800   30.4510   44.4530 C   0  0  0  0  0  0  0  0  0  0  0  0
   56.8990   30.5280   43.0500 C   0  0  0  0  0  0  0  0  0  0  0  0
   56.5067   29.6943   42.4491 H   0  0  0  0  0  0  0  0  0  0  0  0
   57.4150   31.6610   42.4170 C   0  0  0  0  0  0  0  0  0  0  0  0
   57.4206   31.7211   41.3187 H   0  0  0  0  0  0  0  0  0  0  0  0
   57.9240   32.7180   43.1750 C   0  0  0  0  0  0  0  0  0  0  0  0
   58.3312   33.6059   42.6691 H   0  0  0  0  0  0  0  0  0  0  0  0
   57.9200   32.6560   44.5790 C   0  0  0  0  0  0  0  0  0  0  0  0
   58.4770   33.7760   45.3730 C   0  0  0  0  0  0  0  0  0  0  0  0
   58.7720   34.8590   44.7960 O   0  0  0  0  0  0  0  0  0  0  0  0
   58.6770   33.6520   46.7910 N   0  0  0  0  0  0  0  0  0  0  0  0
   58.2170   32.8740   47.3130 H   0  0  0  0  0  0  0  0  0  0  0  0
   59.4670   34.6140   47.5550 C   0  0  0  0  0  0  0  0  0  0  0  0
   59.6081   35.5255   46.9556 H   0  0  0  0  0  0  0  0  0  0  0  0
   58.9347   34.8554   48.4869 H   0  0  0  0  0  0  0  0  0  0  0  0
   60.8140   34.0290   47.8960 C   0  0  0  0  0  0  0  0  0  0  0  0
   61.2120   33.8580   49.2370 C   0  0  0  0  0  0  0  0  0  0  0  0
   60.3830   34.1960   50.2580 F   0  0  0  0  0  0  0  0  0  0  0  0
   62.4750   33.3340   49.5340 C   0  0  0  0  0  0  0  0  0  0  0  0
   62.7801   33.1990   50.5822 H   0  0  0  0  0  0  0  0  0  0  0  0
   63.3490   32.9820   48.5040 C   0  0  0  0  0  0  0  0  0  0  0  0
   64.3410   32.5704   48.7417 H   0  0  0  0  0  0  0  0  0  0  0  0
   62.9650   33.1520   47.1720 C   0  0  0  0  0  0  0  0  0  0  0  0
   63.6556   32.8737   46.3623 H   0  0  0  0  0  0  0  0  0  0  0  0
   61.7050   33.6750   46.8650 C   0  0  0  0  0  0  0  0  0  0  0  0
   61.3550   33.8410   45.5640 F   0  0  0  0  0  0  0  0  0  0  0  0
   57.4080   31.5050   45.2080 C   0  0  0  0  0  0  0  0  0  0  0  0
   57.4231   31.4332   46.3055 H   0  0  0  0  0  0  0  0  0  0  0  0
   58.2460   28.9020   46.6120 C   0  0  0  0  0  0  0  0  0  0  0  0
   58.4707   29.9788   46.6146 H   0  0  0  0  0  0  0  0  0  0  0  0
   59.6590   30.2620   50.7280 C   0  0  0  0  0  0  0  0  0  0  0  0
   60.2562   29.4334   51.1365 H   0  0  0  0  0  0  0  0  0  0  0  0
   58.8780   31.0510   51.5750 C   0  0  0  0  0  0  0  0  0  0  0  0
   58.8564   30.8453   52.6554 H   0  0  0  0  0  0  0  0  0  0  0  0
   58.1250   32.1010   51.0480 C   0  0  0  0  0  0  0  0  0  0  0  0
   57.5076   32.7285   51.7076 H   0  0  0  0  0  0  0  0  0  0  0  0
  1  2  1  0
  2  3  2  0
  3  4  1  0
  4  5  1  0
  5  6  2  0
  5  7  1  0
  7  8  2  0
  8  9  1  0
  9 10  1  0
 10 11  1  0
 10 12  2  0
 12 13  1  0
 12 14  1  0
 14 15  1  0
 15 16  1  0
 16 17  2  0
 17 18  1  0
 17 19  1  0
 19 20  1  0
 19 21  2  0
 21 22  1  0
 21 23  1  0
 23 24  1  0
 24 25  2  0
 24 26  1  0
 26 27  1  0
 26 28  1  0
 28 29  1  0
 28 30  1  0
 28 31  1  0
 31 32  2  0
 32 33  1  0
 32 34  1  0
 34 35  1  0
 34 36  2  0
 36 37  1  0
 36 38  1  0
 38 39  1  0
 38 40  2  0
 40 41  1  0
 23 42  2  0
 42 43  1  0
 14 44  2  0
 44 45  1  0
  4 46  2  0
 46 47  1  0
 46 48  1  0
 48 49  1  0
 48 50  2  0
 50 51  1  0
 50  2  1  0
 44  8  1  0
 42 16  1  0
 40 31  1  0
M  CHG  1   9  -1
M  END
>  <UniqueID>  (7) 
7

>  <SMILES>  (7) 
O=C(NCc1c(F)cccc1F)c1cccc(Oc2cc(Cl)[n-]/c(=N/C(=O)c3ccccn3)c2)c1

>  <Energy>  (7) 
72.15497362769749

>  <Genealogy>  (7) 
O=C(NCc1c(F)cccc1F)c1cccc(Oc2cc(Cl)[n-]c(=NC(=O)c3ccccn3)c2)c1 (protonated)
O=C(NCc1c(F)cccc1F)c1cccc(Oc2cc(Cl)[n-]/c(=N/C(=O)c3ccccn3)c2)c1 (cis-trans isomerization)
O=C(NCc1c(F)cccc1F)c1cccc(Oc2cc(Cl)[n-]/c(=N/C(=O)c3ccccn3)c2)c1 (3D coordinates assigned)
O=C(NCc1c(F)cccc1F)c1cccc(Oc2cc(Cl)[n-]/c(=N/C(=O)c3ccccn3)c2)c1 (optimized conformer: 72.15497362769749 kcal/mol)

>  <smiles>  (7) 
O=C(NCc1c(F)cccc1F)c1cccc(Oc2cc(Cl)[nH]c(=NC(=O)c3ccccn3)c2)c1

>  <score_type>  (7) 
oracle

>  <origin>  (7) 
adg

>  <m_score__min__energy>  (7) 
-11.43

>  <m_primary>  (7) 
energy

$$$$
7:0
     RDKit          3D

 42 44  0  0  0  0  0  0  0  0999 V2000
   63.8149   34.7109   47.2311 H   0  0  0  0  0  0  0  0  0  0  0  0
   63.2420   33.7810   47.3620 C   0  0  0  0  0  0  0  0  0  0  0  0
   61.7210   33.4550   46.7120 S   0  0  0  0  0  0  0  0  0  0  0  0
   61.6470   31.9180   47.3820 C   0  0  0  0  0  0  0  0  0  0  0  0
   60.6050   31.1450   47.2860 N   0  0  0  0  0  0  0  0  0  0  0  0
   60.5040   29.8150   47.8120 C   0  0  0  0  0  0  0  0  0  0  0  0
   61.1290   29.5120   48.8670 O   0  0  0  0  0  0  0  0  0  0  0  0
   59.6890   28.7980   47.1070 C   0  0  0  0  0  0  0  0  0  0  0  0
   60.0350   27.4350   47.1550 C   0  0  0  0  0  0  0  0  0  0  0  0
   60.9587   27.1228   47.6641 H   0  0  0  0  0  0  0  0  0  0  0  0
   59.2110   26.4750   46.5590 C   0  0  0  0  0  0  0  0  0  0  0  0
   59.4927   25.4123   46.5960 H   0  0  0  0  0  0  0  0  0  0  0  0
   58.0320   26.8600   45.9170 C   0  0  0  0  0  0  0  0  0  0  0  0
   57.3847   26.0985   45.4575 H   0  0  0  0  0  0  0  0  0  0  0  0
   57.6710   28.2100   45.8560 C   0  0  0  0  0  0  0  0  0  0  0  0
   56.4250   28.5640   45.2390 N   0  0  0  0  0  0  0  0  0  0  0  0
   56.2580   29.5070   43.7900 S   0  0  0  0  0  0  0  0  0  0  0  0
   56.8810   28.7540   42.6470 O   0  0  0  0  0  0  0  0  0  0  0  0
   54.7980   29.7190   43.5030 O   0  0  0  0  0  0  0  0  0  0  0  0
   57.0320   31.0780   43.9950 C   0  0  0  0  0  0  0  0  0  0  0  0
   57.7230   31.6720   42.9340 C   0  0  0  0  0  0  0  0  0  0  0  0
   57.7082   31.2020   41.9396 H   0  0  0  0  0  0  0  0  0  0  0  0
   58.4310   32.8580   43.1310 C   0  0  0  0  0  0  0  0  0  0  0  0
   58.9663   33.3191   42.2879 H   0  0  0  0  0  0  0  0  0  0  0  0
   58.4670   33.4680   44.3930 C   0  0  0  0  0  0  0  0  0  0  0  0
   59.2580   34.7370   44.5760 C   0  0  0  0  0  0  0  0  0  0  0  0
   59.3839   34.9389   45.6500 H   0  0  0  0  0  0  0  0  0  0  0  0
   60.2460   34.6242   44.1058 H   0  0  0  0  0  0  0  0  0  0  0  0
   58.7216   35.5744   44.1058 H   0  0  0  0  0  0  0  0  0  0  0  0
   57.7340   32.8940   45.4600 C   0  0  0  0  0  0  0  0  0  0  0  0
   57.7270   33.5210   46.8290 C   0  0  0  0  0  0  0  0  0  0  0  0
   57.7358   32.7308   47.5942 H   0  0  0  0  0  0  0  0  0  0  0  0
   58.6181   34.1551   46.9464 H   0  0  0  0  0  0  0  0  0  0  0  0
   56.8219   34.1351   46.9464 H   0  0  0  0  0  0  0  0  0  0  0  0
   57.0270   31.6980   45.2480 C   0  0  0  0  0  0  0  0  0  0  0  0
   56.4636   31.2448   46.0770 H   0  0  0  0  0  0  0  0  0  0  0  0
   58.5210   29.1770   46.4260 C   0  0  0  0  0  0  0  0  0  0  0  0
   58.2667   30.2435   46.3366 H   0  0  0  0  0  0  0  0  0  0  0  0
   62.7580   31.6360   48.1010 N   0  0  0  0  0  0  0  0  0  0  0  0
   62.9210   30.7540   48.6370 H   0  0  0  0  0  0  0  0  0  0  0  0
   63.6460   32.6680   48.0930 C   0  0  0  0  0  0  0  0  0  0  0  0
   64.6087   32.6253   48.6235 H   0  0  0  0  0  0  0  0  0  0  0  0
  1  2  1  0
  2  3  1  0
  3  4  1  0
  4  5  2  0
  5  6  1  0
  6  7  2  0
  6  8  1  0
  8  9  2  0
  9 10  1  0
  9 11  1  0
 11 12  1  0
 11 13  2  0
 13 14  1  0
 13 15  1  0
 15 16  1  0
 16 17  1  0
 17 18  2  0
 17 19  2  0
 17 20  1  0
 20 21  2  0
 21 22  1  0
 21 23  1  0
 23 24  1  0
 23 25  2  0
 25 26  1  0
 26 27  1  0
 26 28  1  0
 26 29  1  0
 25 30  1  0
 30 31  1  0
 31 32  1  0
 31 33  1  0
 31 34  1  0
 30 35  2  0
 35 36  1  0
 15 37  2  0
 37 38  1  0
  4 39  1  0
 39 40  1  0
 39 41  1  0
 41 42  1  0
 41  2  2  0
 37  8  1  0
 35 20  1  0
M  CHG  1  16  -1
M  END
>  <UniqueID>  (8) 
8

>  <SMILES>  (8) 
Cc1ccc(S(=O)(=O)[N-]c2cccc(C(=O)/N=c3\[nH]ccs3)c2)cc1C

>  <Energy>  (8) 
81.1922306579528

>  <Genealogy>  (8) 
Cc1ccc(S(=O)(=O)[N-]c2cccc(C(=O)N=c3[nH]ccs3)c2)cc1C (protonated)
Cc1ccc(S(=O)(=O)[N-]c2cccc(C(=O)/N=c3\[nH]ccs3)c2)cc1C (cis-trans isomerization)
Cc1ccc(S(=O)(=O)[N-]c2cccc(C(=O)/N=c3\[nH]ccs3)c2)cc1C (3D coordinates assigned)
Cc1ccc(S(=O)(=O)[N-]c2cccc(C(=O)/N=c3\[nH]ccs3)c2)cc1C (optimized conformer: 81.1922306579528 kcal/mol)

>  <smiles>  (8) 
Cc1ccc(S(=O)(=O)Nc2cccc(C(=O)N=c3[nH]ccs3)c2)cc1C

>  <score_type>  (8) 
oracle

>  <origin>  (8) 
adg

>  <m_score__min__energy>  (8) 
-10.460000000000001

>  <m_primary>  (8) 
energy

$$$$
8:0
     RDKit          3D

 67 70  0  0  0  0  0  0  0  0999 V2000
   53.8960   26.7070   46.3690 H   0  0  0  0  0  0  0  0  0  0  0  0
   54.3850   25.9510   45.8370 N   0  0  0  0  0  0  0  0  0  0  0  0
   55.7770   25.6980   46.0200 C   0  0  0  0  0  0  0  0  0  0  0  0
   56.1780   24.5220   46.2430 O   0  0  0  0  0  0  0  0  0  0  0  0
   56.7380   26.8040   45.9580 C   0  0  0  0  0  0  0  0  0  0  0  0
   57.9700   26.8460   46.5880 C   0  0  0  0  0  0  0  0  0  0  0  0
   58.4508   26.0608   47.1899 H   0  0  0  0  0  0  0  0  0  0  0  0
   58.4580   28.1110   46.2830 C   0  0  0  0  0  0  0  0  0  0  0  0
   59.5690   28.6460   46.7060 N   0  0  0  0  0  0  0  0  0  0  0  0
   59.9470   28.8980   48.0710 C   0  0  0  0  0  0  0  0  0  0  0  0
   60.8290   28.1650   48.5980 O   0  0  0  0  0  0  0  0  0  0  0  0
   59.3900   30.0210   48.8600 C   0  0  0  0  0  0  0  0  0  0  0  0
   58.5500   29.7510   49.8920 N   0  0  0  0  0  0  0  0  0  0  0  0
   57.9640   30.7290   50.6420 C   0  0  0  0  0  0  0  0  0  0  0  0
   57.1190   30.3520   51.6960 O   0  0  0  0  0  0  0  0  0  0  0  0
   56.1650   31.2020   52.3180 C   0  0  0  0  0  0  0  0  0  0  0  0
   56.2924   32.2311   51.9511 H   0  0  0  0  0  0  0  0  0  0  0  0
   56.3086   31.1890   53.4085 H   0  0  0  0  0  0  0  0  0  0  0  0
   54.7660   30.7060   51.9750 C   0  0  0  0  0  0  0  0  0  0  0  0
   54.2092   30.5086   52.9029 H   0  0  0  0  0  0  0  0  0  0  0  0
   54.2392   31.4721   51.3872 H   0  0  0  0  0  0  0  0  0  0  0  0
   54.8394   29.7791   51.3872 H   0  0  0  0  0  0  0  0  0  0  0  0
   58.2370   32.0740   50.3420 C   0  0  0  0  0  0  0  0  0  0  0  0
   57.7515   32.8738   50.9205 H   0  0  0  0  0  0  0  0  0  0  0  0
   59.1260   32.4010   49.3080 C   0  0  0  0  0  0  0  0  0  0  0  0
   59.3720   33.6610   49.0830 N   0  0  0  0  0  0  0  0  0  0  0  0
   59.5990   34.3140   47.8260 C   0  0  0  0  0  0  0  0  0  0  0  0
   58.8880   35.2910   47.4590 O   0  0  0  0  0  0  0  0  0  0  0  0
   60.7250   33.8440   46.9550 C   0  0  0  0  0  0  0  0  0  0  0  0
   60.4371   32.9059   46.4579 H   0  0  0  0  0  0  0  0  0  0  0  0
   60.9450   34.6087   46.1955 H   0  0  0  0  0  0  0  0  0  0  0  0
   61.9500   33.6090   47.8010 C   0  0  0  0  0  0  0  0  0  0  0  0
   62.8520   32.5890   47.4650 C   0  0  0  0  0  0  0  0  0  0  0  0
   62.6908   31.9938   46.5541 H   0  0  0  0  0  0  0  0  0  0  0  0
   63.9560   32.3250   48.2830 C   0  0  0  0  0  0  0  0  0  0  0  0
   64.6625   31.5276   48.0092 H   0  0  0  0  0  0  0  0  0  0  0  0
   64.1650   33.0720   49.4490 C   0  0  0  0  0  0  0  0  0  0  0  0
   65.5310   32.7080   50.5000 S   0  0  0  0  0  0  0  0  0  0  0  0
   65.6160   33.7420   51.5900 O   0  0  0  0  0  0  0  0  0  0  0  0
   66.8060   32.7470   49.7040 O   0  0  0  0  0  0  0  0  0  0  0  0
   65.3330   31.0890   51.2290 C   0  0  0  0  0  0  0  0  0  0  0  0
   65.9228   30.3608   50.6530 H   0  0  0  0  0  0  0  0  0  0  0  0
   65.6815   31.1296   52.2715 H   0  0  0  0  0  0  0  0  0  0  0  0
   63.8690   30.6610   51.2230 C   0  0  0  0  0  0  0  0  0  0  0  0
   63.5132   30.5570   52.2586 H   0  0  0  0  0  0  0  0  0  0  0  0
   63.2670   31.4207   50.7030 H   0  0  0  0  0  0  0  0  0  0  0  0
   63.7710   29.6966   50.7030 H   0  0  0  0  0  0  0  0  0  0  0  0
   63.2560   34.0800   49.7970 C   0  0  0  0  0  0  0  0  0  0  0  0
   63.4104   34.6633   50.7168 H   0  0  0  0  0  0  0  0  0  0  0  0
   62.1510   34.3480   48.9780 C   0  0  0  0  0  0  0  0  0  0  0  0
   61.4395   35.1389   49.2577 H   0  0  0  0  0  0  0  0  0  0  0  0
   59.7390   31.3560   48.5840 C   0  0  0  0  0  0  0  0  0  0  0  0
   60.4852   31.5838   47.8085 H   0  0  0  0  0  0  0  0  0  0  0  0
   57.5770   28.7490   45.4730 N   0  0  0  0  0  0  0  0  0  0  0  0
   57.6820   30.0820   44.9370 C   0  0  0  0  0  0  0  0  0  0  0  0
   58.1000   31.1430   45.7640 C   0  0  0  0  0  0  0  0  0  0  0  0
   58.3350   30.9517   46.8215 H   0  0  0  0  0  0  0  0  0  0  0  0
   58.2180   32.4360   45.2500 C   0  0  0  0  0  0  0  0  0  0  0  0
   58.5530   33.2565   45.9016 H   0  0  0  0  0  0  0  0  0  0  0  0
   57.9120   32.6910   43.9110 C   0  0  0  0  0  0  0  0  0  0  0  0
   58.0110   33.7096   43.5076 H   0  0  0  0  0  0  0  0  0  0  0  0
   57.4800   31.6500   43.0850 C   0  0  0  0  0  0  0  0  0  0  0  0
   57.2314   31.8514   42.0325 H   0  0  0  0  0  0  0  0  0  0  0  0
   57.3630   30.3520   43.5940 C   0  0  0  0  0  0  0  0  0  0  0  0
   57.0193   29.5374   42.9396 H   0  0  0  0  0  0  0  0  0  0  0  0
   56.5270   27.9620   45.2990 N   0  0  0  0  0  0  0  0  0  0  0  0
   55.6830   28.2040   44.7310 H   0  0  0  0  0  0  0  0  0  0  0  0
  1  2  1  0
  2  3  1  0
  3  4  2  0
  3  5  1  0
  5  6  2  0
  6  7  1  0
  6  8  1  0
  8  9  2  3
  9 10  1  0
 10 11  2  0
 10 12  1  0
 12 13  1  0
 13 14  1  0
 14 15  1  0
 15 16  1  0
 16 17  1  0
 16 18  1  0
 16 19  1  0
 19 20  1  0
 19 21  1  0
 19 22  1  0
 14 23  2  0
 23 24  1  0
 23 25  1  0
 25 26  2  0
 26 27  1  0
 27 28  2  0
 27 29  1  0
 29 30  1  0
 29 31  1  0
 29 32  1  0
 32 33  2  0
 33 34  1  0
 33 35  1  0
 35 36  1  0
 35 37  2  0
 37 38  1  0
 38 39  2  0
 38 40  2  0
 38 41  1  0
 41 42  1  0
 41 43  1  0
 41 44  1  0
 44 45  1  0
 44 46  1  0
 44 47  1  0
 37 48  1  0
 48 49  1  0
 48 50  2  0
 50 51  1  0
 25 52  1  0
 52 53  1  0
  8 54  1  0
 54 55  1  0
 55 56  2  0
 56 57  1  0
 56 58  1  0
 58 59  1  0
 58 60  2  0
 60 61  1  0
 60 62  1  0
 62 63  1  0
 62 64  2  0
 64 65  1  0
 54 66  1  0
 66 67  1  0
 66  5  1  0
 52 12  2  0
 64 55  1  0
 50 32  1  0
M  CHG  2   2  -1  13  -1
M  END
>  <UniqueID>  (9) 
9

>  <SMILES>  (9) 
CCOc1c/c(=N/C(=O)Cc2ccc(S(=O)(=O)CC)cc2)cc(C(=O)N=c2cc(C([NH-])=O)[nH]n2-c2ccccc2)[n-]1

>  <Energy>  (9) 
111.77204260877379

>  <Genealogy>  (9) 
CCOc1cc(=NC(=O)Cc2ccc(S(=O)(=O)CC)cc2)cc(C(=O)N=c2cc(C([NH-])=O)[nH]n2-c2ccccc2)[n-]1 (protonated)
CCOc1c/c(=N/C(=O)Cc2ccc(S(=O)(=O)CC)cc2)cc(C(=O)N=c2cc(C([NH-])=O)[nH]n2-c2ccccc2)[n-]1 (cis-trans isomerization)
CCOc1c/c(=N/C(=O)Cc2ccc(S(=O)(=O)CC)cc2)cc(C(=O)N=c2cc(C([NH-])=O)[nH]n2-c2ccccc2)[n-]1 (3D coordinates assigned)
CCOc1c/c(=N/C(=O)Cc2ccc(S(=O)(=O)CC)cc2)cc(C(=O)N=c2cc(C([NH-])=O)[nH]n2-c2ccccc2)[n-]1 (optimized conformer: 111.77204260877379 kcal/mol)

>  <smiles>  (9) 
CCOc1cc(=NC(=O)Cc2ccc(S(=O)(=O)CC)cc2)cc(C(=O)N=c2cc(C(N)=O)[nH]n2-c2ccccc2)[nH]1

>  <score_type>  (9) 
oracle

>  <origin>  (9) 
adg

>  <m_score__min__energy>  (9) 
-14.75

>  <m_primary>  (9) 
energy

$$$$
9:0
     RDKit          3D

 60 63  0  0  0  0  0  0  0  0999 V2000
   57.6140   27.4550   45.7570 C   0  0  0  0  0  0  0  0  0  0  0  0
   58.1770   28.5810   46.6270 C   0  0  1  0  0  0  0  0  0  0  0  0
   59.1900   28.0310   47.6500 C   0  0  0  0  0  0  0  0  0  0  0  0
   60.0750   29.0980   48.1110 N   0  0  0  0  0  0  0  0  0  0  0  0
   60.2890   29.3110   49.5210 C   0  0  0  0  0  0  0  0  0  0  0  0
   59.2700   29.0360   50.4440 C   0  0  0  0  0  0  0  0  0  0  0  0
   59.4720   29.2750   51.8110 C   0  0  0  0  0  0  0  0  0  0  0  0
   58.3690   29.0080   52.7600 C   0  0  0  0  0  0  0  0  0  0  0  0
   58.5080   28.1510   53.6750 O   0  0  0  0  0  0  0  0  0  0  0  0
   57.1430   29.7370   52.6510 N   0  0  0  0  0  0  0  0  0  0  0  0
   57.0870   31.4680   52.6590 S   0  0  0  0  0  0  0  0  0  0  0  0
   55.6960   31.9080   52.2980 O   0  0  0  0  0  0  0  0  0  0  0  0
   57.4250   31.9710   54.0340 O   0  0  0  0  0  0  0  0  0  0  0  0
   58.2520   32.1140   51.5070 C   0  0  0  0  0  0  0  0  0  0  0  0
   58.0770   31.8970   50.1370 C   0  0  0  0  0  0  0  0  0  0  0  0
   58.9680   32.4540   49.2150 C   0  0  0  0  0  0  0  0  0  0  0  0
   60.0570   33.2290   49.6520 C   0  0  0  0  0  0  0  0  0  0  0  0
   60.9850   33.8450   48.6750 C   0  0  0  0  0  0  0  0  0  0  0  0
   61.9150   34.5890   49.0870 O   0  0  0  0  0  0  0  0  0  0  0  0
   60.8690   33.5150   47.2790 N   0  0  0  0  0  0  0  0  0  0  0  0
   59.8660   33.6680   46.4570 C   0  0  0  0  0  0  0  0  0  0  0  0
   59.6260   34.8570   45.7340 C   0  0  0  0  0  0  0  0  0  0  0  0
   58.5230   34.9300   44.8790 C   0  0  0  0  0  0  0  0  0  0  0  0
   57.6600   33.8440   44.7560 C   0  0  0  0  0  0  0  0  0  0  0  0
   57.9120   32.6910   45.4940 C   0  0  0  0  0  0  0  0  0  0  0  0
   58.9930   32.6320   46.3180 N   0  0  0  0  0  0  0  0  0  0  0  0
   60.2420   33.4200   51.0330 C   0  0  0  0  0  0  0  0  0  0  0  0
   59.3450   32.8670   51.9520 C   0  0  0  0  0  0  0  0  0  0  0  0
   60.7280   29.7600   52.2360 C   0  0  0  0  0  0  0  0  0  0  0  0
   61.1270   30.0200   53.9320 Cl  0  0  0  0  0  0  0  0  0  0  0  0
   61.7220   30.0090   51.2850 C   0  0  0  0  0  0  0  0  0  0  0  0
   61.4860   29.7890   49.9660 N   0  0  0  0  0  0  0  0  0  0  0  0
   60.7890   29.9160   47.1270 C   0  0  0  0  0  0  0  0  0  0  0  0
   60.1690   29.8070   45.7160 C   0  0  1  0  0  0  0  0  0  0  0  0
   60.8140   28.7180   44.8500 C   0  0  0  0  0  0  0  0  0  0  0  0
   58.7040   29.6640   45.7620 N   0  0  0  0  0  0  0  0  0  0  0  0
   57.2154   26.6578   46.4017 H   0  0  0  0  0  0  0  0  0  0  0  0
   56.8076   27.8505   45.1219 H   0  0  0  0  0  0  0  0  0  0  0  0
   58.4143   27.0472   45.1219 H   0  0  0  0  0  0  0  0  0  0  0  0
   57.3766   29.0308   47.2329 H   0  0  0  0  0  0  0  0  0  0  0  0
   59.7907   27.2403   47.1768 H   0  0  0  0  0  0  0  0  0  0  0  0
   58.6422   27.6229   48.5122 H   0  0  0  0  0  0  0  0  0  0  0  0
   58.3087   28.6313   50.0946 H   0  0  0  0  0  0  0  0  0  0  0  0
   57.2343   31.2851   49.7829 H   0  0  0  0  0  0  0  0  0  0  0  0
   58.8160   32.2847   48.1388 H   0  0  0  0  0  0  0  0  0  0  0  0
   60.3014   35.7183   45.8429 H   0  0  0  0  0  0  0  0  0  0  0  0
   58.3360   35.8475   44.3018 H   0  0  0  0  0  0  0  0  0  0  0  0
   56.7905   33.8967   44.0843 H   0  0  0  0  0  0  0  0  0  0  0  0
   57.2365   31.8268   45.4109 H   0  0  0  0  0  0  0  0  0  0  0  0
   61.0987   34.0088   51.3928 H   0  0  0  0  0  0  0  0  0  0  0  0
   59.4989   33.0244   53.0298 H   0  0  0  0  0  0  0  0  0  0  0  0
   62.7035   30.3863   51.6079 H   0  0  0  0  0  0  0  0  0  0  0  0
   62.2610   29.9680   49.2890 H   0  0  0  0  0  0  0  0  0  0  0  0
   61.8357   29.5809   47.0807 H   0  0  0  0  0  0  0  0  0  0  0  0
   60.7181   30.9662   47.4463 H   0  0  0  0  0  0  0  0  0  0  0  0
   60.3937   30.7641   45.2226 H   0  0  0  0  0  0  0  0  0  0  0  0
   61.2667   27.9538   45.4989 H   0  0  0  0  0  0  0  0  0  0  0  0
   60.0462   28.2519   44.2150 H   0  0  0  0  0  0  0  0  0  0  0  0
   61.5918   29.1673   44.2150 H   0  0  0  0  0  0  0  0  0  0  0  0
   58.3050   30.5730   46.0960 H   0  0  0  0  0  0  0  0  0  0  0  0
  1  2  1  0
  2  3  1  0
  3  4  1  0
  4  5  1  0
  5  6  2  0
  6  7  1  0
  7  8  1  0
  8  9  2  0
  8 10  1  0
 10 11  1  0
 11 12  2  0
 11 13  2  0
 11 14  1  0
 14 15  2  0
 15 16  1  0
 16 17  2  0
 17 18  1  0
 18 19  2  0
 18 20  1  0
 20 21  2  3
 21 22  1  0
 22 23  2  0
 23 24  1  0
 24 25  2  0
 25 26  1  0
 17 27  1  0
 27 28  2  0
  7 29  2  0
 29 30  1  0
 29 31  1  0
 31 32  2  0
  4 33  1  0
 33 34  1  0
 34 35  1  0
 34 36  1  0
 36  2  1  0
 32  5  1  0
 28 14  1  0
 26 21  1  0
  1 37  1  0
  1 38  1  0
  1 39  1  0
  2 40  1  1
  3 41  1  0
  3 42  1  0
  6 43  1  0
 15 44  1  0
 16 45  1  0
 22 46  1  0
 23 47  1  0
 24 48  1  0
 25 49  1  0
 27 50  1  0
 28 51  1  0
 31 52  1  0
 32 53  1  0
 33 54  1  0
 33 55  1  0
 34 56  1  6
 35 57  1  0
 35 58  1  0
 35 59  1  0
 36 60  1  0
M  CHG  3  10  -1  26  -1  32   1
M  END
>  <UniqueID>  (10) 
10

>  <SMILES>  (10) 
C[C@@H]1CN(c2cc(C(=O)[N-]S(=O)(=O)c3ccc(C(=O)N=c4cccc[n-]4)cc3)c(Cl)c[nH+]2)C[C@H](C)N1

>  <Energy>  (10) 
87.7950991095093

>  <Genealogy>  (10) 
CC1CN(c2cc(C(=O)[N-]S(=O)(=O)c3ccc(C(=O)N=c4cccc[n-]4)cc3)c(Cl)c[nH+]2)CC(C)N1 (protonated)
C[C@@H]1CN(c2cc(C(=O)[N-]S(=O)(=O)c3ccc(C(=O)N=c4cccc[n-]4)cc3)c(Cl)c[nH+]2)C[C@H](C)N1 (chirality)
C[C@@H]1CN(c2cc(C(=O)[N-]S(=O)(=O)c3ccc(C(=O)N=c4cccc[n-]4)cc3)c(Cl)c[nH+]2)C[C@H](C)N1 (3D coordinates assigned)
C[C@@H]1CN(c2cc(C(=O)[N-]S(=O)(=O)c3ccc(C(=O)N=c4cccc[n-]4)cc3)c(Cl)c[nH+]2)C[C@H](C)N1 (nonaromatic ring conformer: 87.7950991095093 kcal/mol)

>  <smiles>  (10) 
CC1CN(c2cc(C(=O)NS(=O)(=O)c3ccc(C(=O)N=c4cccc[nH]4)cc3)c(Cl)cn2)CC(C)N1

>  <score_type>  (10) 
oracle

>  <origin>  (10) 
adg

>  <m_score__min__energy>  (10) 
-11.1

>  <m_primary>  (10) 
energy

$$$$
10:0
     RDKit          3D

 39 41  0  0  0  0  0  0  0  0999 V2000
   61.6810   33.4753   49.4526 H   0  0  0  0  0  0  0  0  0  0  0  0
   61.0610   33.6600   48.5630 C   0  0  0  0  0  0  0  0  0  0  0  0
   59.7020   33.9580   48.7070 C   0  0  0  0  0  0  0  0  0  0  0  0
   59.2528   34.0044   49.7100 H   0  0  0  0  0  0  0  0  0  0  0  0
   58.9140   34.1970   47.5770 C   0  0  0  0  0  0  0  0  0  0  0  0
   57.8440   34.4252   47.6913 H   0  0  0  0  0  0  0  0  0  0  0  0
   59.4860   34.1460   46.3000 C   0  0  0  0  0  0  0  0  0  0  0  0
   58.4710   34.4450   44.8480 S   0  0  0  0  0  0  0  0  0  0  0  0
   57.3230   33.0570   45.1550 C   0  0  0  0  0  0  0  0  0  0  0  0
   56.2906   33.4365   45.1513 H   0  0  0  0  0  0  0  0  0  0  0  0
   57.5659   32.6105   46.1305 H   0  0  0  0  0  0  0  0  0  0  0  0
   57.4640   31.9810   44.0780 C   0  0  0  0  0  0  0  0  0  0  0  0
   58.4508   32.0739   43.6009 H   0  0  0  0  0  0  0  0  0  0  0  0
   56.6670   32.1184   43.3324 H   0  0  0  0  0  0  0  0  0  0  0  0
   57.3330   30.6050   44.6830 C   0  0  0  0  0  0  0  0  0  0  0  0
   56.1760   29.8470   44.4660 C   0  0  0  0  0  0  0  0  0  0  0  0
   55.3724   30.2458   43.8294 H   0  0  0  0  0  0  0  0  0  0  0  0
   56.0400   28.6220   45.0370 N   0  0  0  0  0  0  0  0  0  0  0  0
   55.1450   28.1090   44.8730 H   0  0  0  0  0  0  0  0  0  0  0  0
   57.0270   28.1040   45.8310 C   0  0  0  0  0  0  0  0  0  0  0  0
   56.9180   26.9340   46.3930 N   0  0  0  0  0  0  0  0  0  0  0  0
   56.6660   25.6830   45.7340 C   0  0  0  0  0  0  0  0  0  0  0  0
   57.7420   24.9610   45.2050 C   0  0  0  0  0  0  0  0  0  0  0  0
   58.7678   25.3385   45.3279 H   0  0  0  0  0  0  0  0  0  0  0  0
   57.5190   23.7620   44.5210 C   0  0  0  0  0  0  0  0  0  0  0  0
   58.3697   23.1907   44.1212 H   0  0  0  0  0  0  0  0  0  0  0  0
   56.2150   23.2890   44.3450 C   0  0  0  0  0  0  0  0  0  0  0  0
   56.0409   22.3404   43.8160 H   0  0  0  0  0  0  0  0  0  0  0  0
   55.1330   24.0210   44.8410 C   0  0  0  0  0  0  0  0  0  0  0  0
   54.1071   23.6525   44.6935 H   0  0  0  0  0  0  0  0  0  0  0  0
   55.3520   25.2220   45.5250 C   0  0  0  0  0  0  0  0  0  0  0  0
   54.2890   25.9450   45.9590 F   0  0  0  0  0  0  0  0  0  0  0  0
   58.1410   28.8410   46.0760 N   0  0  0  0  0  0  0  0  0  0  0  0
   58.3170   30.0700   45.5280 C   0  0  0  0  0  0  0  0  0  0  0  0
   59.3650   30.7190   45.7890 O   0  0  0  0  0  0  0  0  0  0  0  0
   60.8440   33.8350   46.1560 C   0  0  0  0  0  0  0  0  0  0  0  0
   61.2918   33.7779   45.1529 H   0  0  0  0  0  0  0  0  0  0  0  0
   61.6310   33.5970   47.2880 C   0  0  0  0  0  0  0  0  0  0  0  0
   62.6992   33.3601   47.1747 H   0  0  0  0  0  0  0  0  0  0  0  0
  1  2  1  0
  2  3  2  0
  3  4  1  0
  3  5  1  0
  5  6  1  0
  5  7  2  0
  7  8  1  0
  8  9  1  0
  9 10  1  0
  9 11  1  0
  9 12  1  0
 12 13  1  0
 12 14  1  0
 12 15  1  0
 15 16  2  0
 16 17  1  0
 16 18  1  0
 18 19  1  0
 18 20  1  0
 20 21  2  0
 21 22  1  0
 22 23  2  0
 23 24  1  0
 23 25  1  0
 25 26  1  0
 25 27  2  0
 27 28  1  0
 27 29  1  0
 29 30  1  0
 29 31  2  0
 31 32  1  0
 20 33  1  0
 33 34  1  0
 34 35  2  0
  7 36  1  0
 36 37  1  0
 36 38  2  0
 38 39  1  0
 38  2  1  0
 34 15  1  0
 31 22  1  0
M  CHG  1  33  -1
M  END
>  <UniqueID>  (11) 
11

>  <SMILES>  (11) 
O=c1[n-]/c(=N/c2ccccc2F)[nH]cc1CCSc1ccccc1

>  <Energy>  (11) 
46.32124429360129

>  <Genealogy>  (11) 
O=c1[n-]c(=Nc2ccccc2F)[nH]cc1CCSc1ccccc1 (protonated)
O=c1[n-]/c(=N/c2ccccc2F)[nH]cc1CCSc1ccccc1 (cis-trans isomerization)
O=c1[n-]/c(=N/c2ccccc2F)[nH]cc1CCSc1ccccc1 (3D coordinates assigned)
O=c1[n-]/c(=N/c2ccccc2F)[nH]cc1CCSc1ccccc1 (optimized conformer: 46.32124429360129 kcal/mol)

>  <smiles>  (11) 
O=c1[nH]c(=Nc2ccccc2F)[nH]cc1CCSc1ccccc1

>  <score_type>  (11) 
oracle

>  <origin>  (11) 
adg

>  <m_score__min__energy>  (11) 
-9.8399999999999999

>  <m_primary>  (11) 
energy

$$$$
11:0
     RDKit          3D

 29 30  0  0  0  0  0  0  0  0999 V2000
   58.2560   25.2370   46.9710 O   0  0  0  0  0  0  0  0  0  0  0  0
   57.5020   25.4920   45.9920 C   0  0  0  0  0  0  0  0  0  0  0  0
   57.7810   26.7070   45.1410 C   0  0  0  0  0  0  0  0  0  0  0  0
   57.6720   27.9900   45.9240 C   0  0  0  0  0  0  0  0  0  0  0  0
   57.6680   27.9160   47.1830 O   0  0  0  0  0  0  0  0  0  0  0  0
   57.5370   29.3180   45.2590 C   0  0  0  0  0  0  0  0  0  0  0  0
   58.6540   30.1680   45.1230 C   0  0  0  0  0  0  0  0  0  0  0  0
   58.5330   31.4090   44.4910 C   0  0  0  0  0  0  0  0  0  0  0  0
   57.3000   31.8210   43.9860 C   0  0  0  0  0  0  0  0  0  0  0  0
   56.1840   30.9940   44.1110 C   0  0  0  0  0  0  0  0  0  0  0  0
   56.2930   29.7500   44.7430 C   0  0  0  0  0  0  0  0  0  0  0  0
   55.1530   28.9620   44.8620 O   0  0  0  0  0  0  0  0  0  0  0  0
   56.3210   24.6240   45.7330 C   0  0  0  0  0  0  0  0  0  0  0  0
   56.4920   23.2480   45.4720 C   0  0  0  0  0  0  0  0  0  0  0  0
   55.3890   22.4290   45.2180 C   0  0  0  0  0  0  0  0  0  0  0  0
   54.1010   22.9660   45.2190 C   0  0  0  0  0  0  0  0  0  0  0  0
   53.9130   24.3240   45.4740 C   0  0  0  0  0  0  0  0  0  0  0  0
   55.0100   25.1550   45.7320 C   0  0  0  0  0  0  0  0  0  0  0  0
   54.7810   26.5000   46.0010 O   0  0  0  0  0  0  0  0  0  0  0  0
   58.7993   26.6269   44.7329 H   0  0  0  0  0  0  0  0  0  0  0  0
   57.0285   26.7367   44.3392 H   0  0  0  0  0  0  0  0  0  0  0  0
   59.6304   29.8513   45.5183 H   0  0  0  0  0  0  0  0  0  0  0  0
   59.4125   32.0622   44.3917 H   0  0  0  0  0  0  0  0  0  0  0  0
   57.2077   32.7981   43.4892 H   0  0  0  0  0  0  0  0  0  0  0  0
   55.2130   31.3211   43.7108 H   0  0  0  0  0  0  0  0  0  0  0  0
   57.5036   22.8159   45.4685 H   0  0  0  0  0  0  0  0  0  0  0  0
   55.5363   21.3577   45.0166 H   0  0  0  0  0  0  0  0  0  0  0  0
   53.2346   22.3185   45.0188 H   0  0  0  0  0  0  0  0  0  0  0  0
   52.8967   24.7449   45.4725 H   0  0  0  0  0  0  0  0  0  0  0  0
  1  2  2  0
  2  3  1  0
  3  4  1  0
  4  5  2  0
  4  6  1  0
  6  7  2  0
  7  8  1  0
  8  9  2  0
  9 10  1  0
 10 11  2  0
 11 12  1  0
  2 13  1  0
 13 14  2  0
 14 15  1  0
 15 16  2  0
 16 17  1  0
 17 18  2  0
 18 19  1  0
 11  6  1  0
 18 13  1  0
  3 20  1  0
  3 21  1  0
  7 22  1  0
  8 23  1  0
  9 24  1  0
 10 25  1  0
 14 26  1  0
 15 27  1  0
 16 28  1  0
 17 29  1  0
M  CHG  2  12  -1  19  -1
M  END
>  <UniqueID>  (12) 
12

>  <SMILES>  (12) 
O=C(CC(=O)c1ccccc1[O-])c1ccccc1[O-]

>  <Energy>  (12) 
36.96956546000025

>  <Genealogy>  (12) 
O=C(CC(=O)c1ccccc1[O-])c1ccccc1[O-] (protonated)
O=C(CC(=O)c1ccccc1[O-])c1ccccc1[O-] (3D coordinates assigned)
O=C(CC(=O)c1ccccc1[O-])c1ccccc1[O-] (optimized conformer: 36.96956546000025 kcal/mol)

>  <smiles>  (12) 
O=C(CC(=O)c1ccccc1O)c1ccccc1O

>  <score_type>  (12) 
oracle

>  <origin>  (12) 
adg

>  <m_score__min__energy>  (12) 
-13.550000000000001

>  <m_primary>  (12) 
energy

$$$$
12:0
     RDKit          3D

 57 60  0  0  0  0  0  0  0  0999 V2000
   59.2530   34.9930   47.5360 C   0  0  0  0  0  0  0  0  0  0  0  0
   58.8200   34.5670   46.3460 C   0  0  0  0  0  0  0  0  0  0  0  0
   59.2720   35.2850   45.1030 C   0  0  0  0  0  0  0  0  0  0  0  0
   57.9120   33.3960   46.2550 C   0  0  0  0  0  0  0  0  0  0  0  0
   56.7000   33.5220   46.5770 O   0  0  0  0  0  0  0  0  0  0  0  0
   58.3570   32.1310   45.7490 N   0  0  0  0  0  0  0  0  0  0  0  0
   57.7250   31.3740   44.7070 C   0  0  0  0  0  0  0  0  0  0  0  0
   57.5650   31.9270   43.4250 C   0  0  0  0  0  0  0  0  0  0  0  0
   56.9970   31.1740   42.3960 C   0  0  0  0  0  0  0  0  0  0  0  0
   56.6050   29.8570   42.6280 C   0  0  0  0  0  0  0  0  0  0  0  0
   56.7730   29.2890   43.8920 C   0  0  0  0  0  0  0  0  0  0  0  0
   57.3190   30.0410   44.9500 C   0  0  0  0  0  0  0  0  0  0  0  0
   57.4710   29.4070   46.3180 C   0  0  0  0  0  0  0  0  0  0  0  0
   58.1240   28.0390   46.2370 C   0  0  0  0  0  0  0  0  0  0  0  0
   59.5140   27.7740   46.3480 C   0  0  0  0  0  0  0  0  0  0  0  0
   60.6500   28.7150   46.4530 C   0  0  0  0  0  0  0  0  0  0  0  0
   61.1740   29.1620   45.3970 O   0  0  0  0  0  0  0  0  0  0  0  0
   61.1400   29.1550   47.7180 N   0  0  0  0  0  0  0  0  0  0  0  0
   60.2120   30.1470   48.7900 S   0  0  0  0  0  0  0  0  0  0  0  0
   58.8090   29.6140   48.8840 O   0  0  0  0  0  0  0  0  0  0  0  0
   60.8470   30.1470   50.1540 O   0  0  0  0  0  0  0  0  0  0  0  0
   60.1570   31.8130   48.1550 C   0  0  0  0  0  0  0  0  0  0  0  0
   61.5490   32.3520   47.9810 C   0  0  0  0  0  0  0  0  0  0  0  0
   62.5370   32.0900   48.9460 C   0  0  0  0  0  0  0  0  0  0  0  0
   63.8190   32.6340   48.8090 C   0  0  0  0  0  0  0  0  0  0  0  0
   64.1220   33.4430   47.7100 C   0  0  0  0  0  0  0  0  0  0  0  0
   63.1440   33.7120   46.7480 C   0  0  0  0  0  0  0  0  0  0  0  0
   61.8590   33.1740   46.8850 C   0  0  0  0  0  0  0  0  0  0  0  0
   59.7510   26.1000   46.3680 S   0  0  0  0  0  0  0  0  0  0  0  0
   58.1400   25.6930   46.2120 C   0  0  0  0  0  0  0  0  0  0  0  0
   57.5870   24.4160   46.1650 C   0  0  0  0  0  0  0  0  0  0  0  0
   56.1960   24.3020   46.0340 C   0  0  0  0  0  0  0  0  0  0  0  0
   55.3930   25.4540   45.9480 C   0  0  0  0  0  0  0  0  0  0  0  0
   54.0170   25.3290   45.8090 O   0  0  0  0  0  0  0  0  0  0  0  0
   55.9780   26.7310   45.9990 C   0  0  0  0  0  0  0  0  0  0  0  0
   57.3700   26.8450   46.1430 C   0  0  0  0  0  0  0  0  0  0  0  0
   58.9321   34.4793   48.4542 H   0  0  0  0  0  0  0  0  0  0  0  0
   59.9304   35.8575   47.5976 H   0  0  0  0  0  0  0  0  0  0  0  0
   59.8385   36.1848   45.3848 H   0  0  0  0  0  0  0  0  0  0  0  0
   59.9140   34.6190   44.5078 H   0  0  0  0  0  0  0  0  0  0  0  0
   58.3939   35.5760   44.5078 H   0  0  0  0  0  0  0  0  0  0  0  0
   57.8895   32.9600   43.2311 H   0  0  0  0  0  0  0  0  0  0  0  0
   56.8586   31.6209   41.4004 H   0  0  0  0  0  0  0  0  0  0  0  0
   56.1625   29.2642   41.8139 H   0  0  0  0  0  0  0  0  0  0  0  0
   56.4760   28.2438   44.0633 H   0  0  0  0  0  0  0  0  0  0  0  0
   58.0928   30.0615   46.9465 H   0  0  0  0  0  0  0  0  0  0  0  0
   56.4670   29.2812   46.7495 H   0  0  0  0  0  0  0  0  0  0  0  0
   59.6436   31.8136   47.1822 H   0  0  0  0  0  0  0  0  0  0  0  0
   59.6137   32.4498   48.8687 H   0  0  0  0  0  0  0  0  0  0  0  0
   62.3014   31.4547   49.8125 H   0  0  0  0  0  0  0  0  0  0  0  0
   64.5887   32.4249   49.5665 H   0  0  0  0  0  0  0  0  0  0  0  0
   65.1307   33.8682   47.6021 H   0  0  0  0  0  0  0  0  0  0  0  0
   63.3845   34.3470   45.8826 H   0  0  0  0  0  0  0  0  0  0  0  0
   61.0890   33.3958   46.1314 H   0  0  0  0  0  0  0  0  0  0  0  0
   58.2240   23.5215   46.2289 H   0  0  0  0  0  0  0  0  0  0  0  0
   55.7297   23.3063   45.9982 H   0  0  0  0  0  0  0  0  0  0  0  0
   55.3514   27.6322   45.9268 H   0  0  0  0  0  0  0  0  0  0  0  0
  1  2  2  0
  2  3  1  0
  2  4  1  0
  4  5  2  0
  4  6  1  0
  6  7  1  0
  7  8  2  0
  8  9  1  0
  9 10  2  0
 10 11  1  0
 11 12  2  0
 12 13  1  0
 13 14  1  0
 14 15  2  0
 15 16  1  0
 16 17  2  0
 16 18  1  0
 18 19  1  0
 19 20  2  0
 19 21  2  0
 19 22  1  0
 22 23  1  0
 23 24  2  0
 24 25  1  0
 25 26  2  0
 26 27  1  0
 27 28  2  0
 15 29  1  0
 29 30  1  0
 30 31  2  0
 31 32  1  0
 32 33  2  0
 33 34  1  0
 33 35  1  0
 35 36  2  0
 12  7  1  0
 36 14  1  0
 28 23  1  0
 36 30  1  0
  1 37  1  0
  1 38  1  0
  3 39  1  0
  3 40  1  0
  3 41  1  0
  8 42  1  0
  9 43  1  0
 10 44  1  0
 11 45  1  0
 13 46  1  0
 13 47  1  0
 22 48  1  0
 22 49  1  0
 24 50  1  0
 25 51  1  0
 26 52  1  0
 27 53  1  0
 28 54  1  0
 31 55  1  0
 32 56  1  0
 35 57  1  0
M  CHG  3   6  -1  18  -1  34  -1
M  END
>  <UniqueID>  (13) 
13

>  <SMILES>  (13) 
C=C(C)C(=O)[N-]c1ccccc1Cc1c(C(=O)[N-]S(=O)(=O)Cc2ccccc2)sc2ccc([O-])cc12

>  <Energy>  (13) 
93.50162232834776

>  <Genealogy>  (13) 
C=C(C)C(=O)[N-]c1ccccc1Cc1c(C(=O)[N-]S(=O)(=O)Cc2ccccc2)sc2ccc([O-])cc12 (protonated)
C=C(C)C(=O)[N-]c1ccccc1Cc1c(C(=O)[N-]S(=O)(=O)Cc2ccccc2)sc2ccc([O-])cc12 (3D coordinates assigned)
C=C(C)C(=O)[N-]c1ccccc1Cc1c(C(=O)[N-]S(=O)(=O)Cc2ccccc2)sc2ccc([O-])cc12 (optimized conformer: 93.50162232834776 kcal/mol)

>  <smiles>  (13) 
C=C(C)C(=O)Nc1ccccc1Cc1c(C(=O)NS(=O)(=O)Cc2ccccc2)sc2ccc(O)cc12

>  <score_type>  (13) 
oracle

>  <origin>  (13) 
adg

>  <m_score__min__energy>  (13) 
-14.07

>  <m_primary>  (13) 
energy

$$$$
13:0
     RDKit          3D

 47 51  0  0  0  0  0  0  0  0999 V2000
   54.6860   30.2950   45.0380 H   0  0  0  0  0  0  0  0  0  0  0  0
   55.1520   29.4300   44.6820 N   0  0  0  0  0  0  0  0  0  0  0  0
   56.2560   28.9860   45.1910 C   0  0  0  0  0  0  0  0  0  0  0  0
   57.1750   29.8650   45.6650 N   0  0  0  0  0  0  0  0  0  0  0  0
   58.3380   29.4250   46.2040 C   0  0  0  0  0  0  0  0  0  0  0  0
   59.1830   30.2940   46.6810 N   0  0  0  0  0  0  0  0  0  0  0  0
   59.1790   31.7580   46.5330 C   0  0  2  0  0  0  0  0  0  0  0  0
   58.6770   32.1760   45.1250 C   0  0  0  0  0  0  0  0  0  0  0  0
   59.3606   31.7773   44.3610 H   0  0  0  0  0  0  0  0  0  0  0  0
   57.6659   31.7726   44.9668 H   0  0  0  0  0  0  0  0  0  0  0  0
   58.6320   33.7170   45.0180 C   0  0  1  0  0  0  0  0  0  0  0  0
   58.2901   34.0048   44.0129 H   0  0  0  0  0  0  0  0  0  0  0  0
   57.6570   34.2750   46.0750 C   0  0  0  0  0  0  0  0  0  0  0  0
   57.6207   35.3717   45.9974 H   0  0  0  0  0  0  0  0  0  0  0  0
   56.6527   33.8612   45.9015 H   0  0  0  0  0  0  0  0  0  0  0  0
   58.1410   33.8750   47.4850 C   0  0  2  0  0  0  0  0  0  0  0  0
   57.4424   34.2700   48.2373 H   0  0  0  0  0  0  0  0  0  0  0  0
   59.5480   34.4580   47.7320 C   0  0  0  0  0  0  0  0  0  0  0  0
   59.5094   35.5545   47.6535 H   0  0  0  0  0  0  0  0  0  0  0  0
   59.8909   34.1739   48.7379 H   0  0  0  0  0  0  0  0  0  0  0  0
   60.5290   33.9010   46.6780 C   0  0  2  0  0  0  0  0  0  0  0  0
   61.5307   34.3204   46.8531 H   0  0  0  0  0  0  0  0  0  0  0  0
   60.0450   34.2950   45.2640 C   0  0  0  0  0  0  0  0  0  0  0  0
   60.0113   35.3914   45.1812 H   0  0  0  0  0  0  0  0  0  0  0  0
   60.7405   33.8896   44.5143 H   0  0  0  0  0  0  0  0  0  0  0  0
   60.5890   32.3620   46.7910 C   0  0  0  0  0  0  0  0  0  0  0  0
   61.2964   31.9687   46.0461 H   0  0  0  0  0  0  0  0  0  0  0  0
   60.9225   32.0854   47.8021 H   0  0  0  0  0  0  0  0  0  0  0  0
   58.2000   32.3350   47.5900 C   0  0  0  0  0  0  0  0  0  0  0  0
   58.5451   32.0532   48.5957 H   0  0  0  0  0  0  0  0  0  0  0  0
   57.1954   31.9260   47.4068 H   0  0  0  0  0  0  0  0  0  0  0  0
   58.5840   28.0900   46.2580 N   0  0  0  0  0  0  0  0  0  0  0  0
   57.6710   27.1960   45.7920 C   0  0  0  0  0  0  0  0  0  0  0  0
   57.8780   25.9140   45.8910 N   0  0  0  0  0  0  0  0  0  0  0  0
   56.8770   24.9000   45.7190 C   0  0  0  0  0  0  0  0  0  0  0  0
   56.6180   24.3440   44.4550 C   0  0  0  0  0  0  0  0  0  0  0  0
   57.1942   24.6803   43.5804 H   0  0  0  0  0  0  0  0  0  0  0  0
   55.6320   23.3660   44.3040 C   0  0  0  0  0  0  0  0  0  0  0  0
   55.4438   22.9224   43.3152 H   0  0  0  0  0  0  0  0  0  0  0  0
   54.8840   22.9510   45.4110 C   0  0  0  0  0  0  0  0  0  0  0  0
   53.9070   21.9740   45.2630 O   0  0  0  0  0  0  0  0  0  0  0  0
   55.1140   23.5270   46.6650 C   0  0  0  0  0  0  0  0  0  0  0  0
   54.5185   23.2086   47.5333 H   0  0  0  0  0  0  0  0  0  0  0  0
   56.1000   24.5070   46.8160 C   0  0  0  0  0  0  0  0  0  0  0  0
   56.2659   24.9708   47.7996 H   0  0  0  0  0  0  0  0  0  0  0  0
   56.5000   27.6470   45.2640 N   0  0  0  0  0  0  0  0  0  0  0  0
   55.7910   26.9620   44.9150 H   0  0  0  0  0  0  0  0  0  0  0  0
  1  2  1  0
  2  3  2  0
  3  4  1  0
  4  5  1  0
  5  6  2  0
  7  6  1  6
  7  8  1  0
  8  9  1  0
  8 10  1  0
  8 11  1  0
 11 12  1  6
 11 13  1  0
 13 14  1  0
 13 15  1  0
 13 16  1  0
 16 17  1  1
 16 18  1  0
 18 19  1  0
 18 20  1  0
 18 21  1  0
 21 22  1  1
 21 23  1  0
 23 24  1  0
 23 25  1  0
 21 26  1  0
 26 27  1  0
 26 28  1  0
 16 29  1  0
 29 30  1  0
 29 31  1  0
  5 32  1  0
 32 33  1  0
 33 34  2  3
 34 35  1  0
 35 36  2  0
 36 37  1  0
 36 38  1  0
 38 39  1  0
 38 40  2  0
 40 41  1  0
 40 42  1  0
 42 43  1  0
 42 44  2  0
 44 45  1  0
 33 46  1  0
 46 47  1  0
 46  3  1  0
 26  7  1  0
 44 35  1  0
 29  7  1  0
 23 11  1  0
M  CHG  3   4  -1  32  -1  41  -1
M  END
>  <UniqueID>  (14) 
14

>  <SMILES>  (14) 
[H]/N=c1/[n-]/c(=N/C23CC4CC(CC(C4)C2)C3)[n-]c(=Nc2ccc([O-])cc2)[nH]1

>  <Energy>  (14) 
56.00731806381978

>  <Genealogy>  (14) 
N=c1[n-]c(=NC23CC4CC(CC(C4)C2)C3)[n-]c(=Nc2ccc([O-])cc2)[nH]1 (protonated)
[H]/N=c1/[n-]/c(=N/C23CC4CC(CC(C4)C2)C3)[n-]c(=Nc2ccc([O-])cc2)[nH]1 (cis-trans isomerization)
[H]/N=c1/[n-]/c(=N/C23CC4CC(CC(C4)C2)C3)[n-]c(=Nc2ccc([O-])cc2)[nH]1 (3D coordinates assigned)
[H]/N=c1/[n-]/c(=N/C23CC4CC(CC(C4)C2)C3)[n-]c(=Nc2ccc([O-])cc2)[nH]1 (nonaromatic ring conformer: 56.00731806381978 kcal/mol)

>  <smiles>  (14) 
N=c1[nH]c(=Nc2ccc(O)cc2)[nH]c(=NC23CC4CC(CC(C4)C2)C3)[nH]1

>  <score_type>  (14) 
oracle

>  <origin>  (14) 
adg

>  <m_score__min__energy>  (14) 
-14.300000000000001

>  <m_primary>  (14) 
energy

$$$$
14:0
     RDKit          3D

 31 33  0  0  0  0  0  0  0  0999 V2000
   59.4890   30.4410   44.3770 H   0  0  0  0  0  0  0  0  0  0  0  0
   56.9590   30.3150   44.8880 N   0  0  0  0  0  0  0  0  0  0  0  0
   57.3630   29.1000   45.1470 C   0  0  0  0  0  0  0  0  0  0  0  0
   58.7270   28.6880   45.1360 C   0  0  0  0  0  0  0  0  0  0  0  0
   59.6770   29.5010   44.7920 N   0  0  0  0  0  0  0  0  0  0  0  0
   57.5620   31.5650   45.2520 C   0  0  0  0  0  0  0  0  0  0  0  0
   58.1840   31.6940   46.4970 C   0  0  0  0  0  0  0  0  0  0  0  0
   58.1654   30.8542   47.2072 H   0  0  0  0  0  0  0  0  0  0  0  0
   58.8300   32.8850   46.8450 C   0  0  0  0  0  0  0  0  0  0  0  0
   59.3008   32.9829   47.8343 H   0  0  0  0  0  0  0  0  0  0  0  0
   58.8810   33.9580   45.9370 C   0  0  0  0  0  0  0  0  0  0  0  0
   59.5640   35.2170   46.3080 C   0  0  0  0  0  0  0  0  0  0  0  0
   60.0440   35.3690   47.4620 O   0  0  0  0  0  0  0  0  0  0  0  0
   59.6840   36.2510   45.3860 O   0  0  0  0  0  0  0  0  0  0  0  0
   58.2840   33.8100   44.6720 C   0  0  0  0  0  0  0  0  0  0  0  0
   58.3242   34.6378   43.9487 H   0  0  0  0  0  0  0  0  0  0  0  0
   57.6400   32.6180   44.3280 C   0  0  0  0  0  0  0  0  0  0  0  0
   57.1928   32.5051   43.3294 H   0  0  0  0  0  0  0  0  0  0  0  0
   56.4100   28.1690   45.4170 N   0  0  0  0  0  0  0  0  0  0  0  0
   56.7150   26.8810   45.7120 C   0  0  0  0  0  0  0  0  0  0  0  0
   55.7020   25.9530   45.9940 C   0  0  0  0  0  0  0  0  0  0  0  0
   54.3670   26.3410   45.9700 O   0  0  0  0  0  0  0  0  0  0  0  0
   56.0350   24.6300   46.3020 C   0  0  0  0  0  0  0  0  0  0  0  0
   55.2412   23.9017   46.5242 H   0  0  0  0  0  0  0  0  0  0  0  0
   57.3760   24.2310   46.3280 C   0  0  0  0  0  0  0  0  0  0  0  0
   57.6331   23.1893   46.5705 H   0  0  0  0  0  0  0  0  0  0  0  0
   58.3900   25.1510   46.0470 C   0  0  0  0  0  0  0  0  0  0  0  0
   59.4428   24.8331   46.0686 H   0  0  0  0  0  0  0  0  0  0  0  0
   58.0640   26.4820   45.7370 C   0  0  0  0  0  0  0  0  0  0  0  0
   59.0340   27.3930   45.4470 N   0  0  0  0  0  0  0  0  0  0  0  0
   60.0350   27.0870   45.4480 H   0  0  0  0  0  0  0  0  0  0  0  0
  1  2  1  0
  2  3  2  0
  3  4  1  0
  4  5  2  0
  5  6  1  0
  6  7  2  0
  7  8  1  0
  7  9  1  0
  9 10  1  0
  9 11  2  0
 11 12  1  0
 12 13  2  0
 12 14  1  0
 11 15  1  0
 15 16  1  0
 15 17  2  0
 17 18  1  0
  4 19  1  0
 19 20  1  0
 20 21  2  0
 21 22  1  0
 21 23  1  0
 23 24  1  0
 23 25  2  0
 25 26  1  0
 25 27  1  0
 27 28  1  0
 27 29  2  0
 29 30  1  0
 30 31  1  0
 30  3  1  0
 17  6  1  0
 29 20  1  0
M  CHG  3  14  -1  19  -1  22  -1
M  END
>  <UniqueID>  (15) 
15

>  <SMILES>  (15) 
[H]/N=c1\[nH]c2cccc([O-])c2[n-]\c1=N\c1ccc(C(=O)[O-])cc1

>  <Energy>  (15) 
53.60038218403558

>  <Genealogy>  (15) 
N=c1[nH]c2cccc([O-])c2[n-]c1=Nc1ccc(C(=O)[O-])cc1 (protonated)
[H]/N=c1\[nH]c2cccc([O-])c2[n-]\c1=N\c1ccc(C(=O)[O-])cc1 (cis-trans isomerization)
[H]/N=c1\[nH]c2cccc([O-])c2[n-]\c1=N\c1ccc(C(=O)[O-])cc1 (3D coordinates assigned)
[H]/N=c1\[nH]c2cccc([O-])c2[n-]\c1=N\c1ccc(C(=O)[O-])cc1 (optimized conformer: 53.60038218403558 kcal/mol)

>  <smiles>  (15) 
N=c1[nH]c2cccc(O)c2[nH]c1=Nc1ccc(C(=O)O)cc1

>  <score_type>  (15) 
oracle

>  <origin>  (15) 
adg

>  <m_score__min__energy>  (15) 
-13.51

>  <m_primary>  (15) 
energy

$$$$
15:0
     RDKit          3D

 76 80  0  0  0  0  0  0  0  0999 V2000
   66.1100   32.3520   50.4580 C   0  0  0  0  0  0  0  0  0  0  0  0
   65.5640   33.4330   49.7100 O   0  0  0  0  0  0  0  0  0  0  0  0
   64.2540   33.4680   49.2110 C   0  0  0  0  0  0  0  0  0  0  0  0
   63.8850   32.8320   48.0110 C   0  0  0  0  0  0  0  0  0  0  0  0
   62.5620   32.8940   47.5600 C   0  0  0  0  0  0  0  0  0  0  0  0
   61.5900   33.5960   48.2920 C   0  0  0  0  0  0  0  0  0  0  0  0
   60.1670   33.6740   47.7920 C   0  0  0  0  0  0  0  0  0  0  0  0
   59.5310   32.3330   47.7970 N   0  0  0  0  0  0  0  0  0  0  0  0
   58.9000   31.8150   46.6760 C   0  0  0  0  0  0  0  0  0  0  0  0
   58.7190   32.6780   45.4380 C   0  0  0  0  0  0  0  0  0  0  0  0
   58.3720   30.4880   46.7180 C   0  0  0  0  0  0  0  0  0  0  0  0
   57.6860   29.8110   45.5370 C   0  0  1  0  0  0  0  0  0  0  0  0
   56.8030   30.7440   44.9570 O   0  0  0  0  0  0  0  0  0  0  0  0
   58.7010   29.3320   44.5570 N   0  0  0  0  0  0  0  0  0  0  0  0
   58.3510   28.0440   43.9230 C   0  0  0  0  0  0  0  0  0  0  0  0
   58.4670   26.8690   44.9220 C   0  0  0  0  0  0  0  0  0  0  0  0
   59.3090   27.1480   46.0270 O   0  0  0  0  0  0  0  0  0  0  0  0
   60.4540   27.8560   45.6060 C   0  0  0  0  0  0  0  0  0  0  0  0
   60.0690   29.2730   45.1350 C   0  0  0  0  0  0  0  0  0  0  0  0
   58.4770   29.7590   47.9070 C   0  0  0  0  0  0  0  0  0  0  0  0
   59.0720   30.3100   49.0360 C   0  0  0  0  0  0  0  0  0  0  0  0
   59.1930   29.4830   50.2980 C   0  0  0  0  0  0  0  0  0  0  0  0
   58.3160   29.9990   51.4170 C   0  0  0  0  0  0  0  0  0  0  0  0
   57.2570   29.4400   51.6770 O   0  0  0  0  0  0  0  0  0  0  0  0
   58.7200   31.1730   52.1660 N   0  0  0  0  0  0  0  0  0  0  0  0
   57.9440   32.3510   51.7280 C   0  0  0  0  0  0  0  0  0  0  0  0
   58.4840   33.6470   52.3670 C   0  0  0  0  0  0  0  0  0  0  0  0
   59.1300   33.4240   53.7560 C   0  0  0  0  0  0  0  0  0  0  0  0
   58.4770   32.2220   54.4580 C   0  0  0  0  0  0  0  0  0  0  0  0
   58.5780   30.9250   53.6240 C   0  0  0  0  0  0  0  0  0  0  0  0
   60.5100   33.1660   53.5940 O   0  0  0  0  0  0  0  0  0  0  0  0
   61.1820   34.2080   54.2240 C   0  0  0  0  0  0  0  0  0  0  0  0
   60.1660   34.9420   55.0410 C   0  0  0  0  0  0  0  0  0  0  0  0
   58.9190   34.5800   54.5410 O   0  0  0  0  0  0  0  0  0  0  0  0
   59.6110   31.6000   48.9590 C   0  0  0  0  0  0  0  0  0  0  0  0
   60.1780   32.0830   49.9800 O   0  0  0  0  0  0  0  0  0  0  0  0
   61.9650   34.2330   49.4850 C   0  0  0  0  0  0  0  0  0  0  0  0
   63.2840   34.1660   49.9390 C   0  0  0  0  0  0  0  0  0  0  0  0
   66.0049   32.5600   51.5330 H   0  0  0  0  0  0  0  0  0  0  0  0
   65.5718   31.4254   50.2095 H   0  0  0  0  0  0  0  0  0  0  0  0
   67.1752   32.2352   50.2095 H   0  0  0  0  0  0  0  0  0  0  0  0
   64.6388   32.2846   47.4260 H   0  0  0  0  0  0  0  0  0  0  0  0
   62.2806   32.3888   46.6243 H   0  0  0  0  0  0  0  0  0  0  0  0
   59.5922   34.3479   48.4443 H   0  0  0  0  0  0  0  0  0  0  0  0
   60.1768   34.0551   46.7602 H   0  0  0  0  0  0  0  0  0  0  0  0
   58.5019   33.7129   45.7410 H   0  0  0  0  0  0  0  0  0  0  0  0
   59.6411   32.6572   44.8385 H   0  0  0  0  0  0  0  0  0  0  0  0
   57.8830   32.2885   44.8385 H   0  0  0  0  0  0  0  0  0  0  0  0
   57.1185   28.9288   45.8681 H   0  0  0  0  0  0  0  0  0  0  0  0
   55.8840   30.5030   45.2420 H   0  0  0  0  0  0  0  0  0  0  0  0
   57.3165   28.0975   43.5530 H   0  0  0  0  0  0  0  0  0  0  0  0
   59.0544   27.8644   43.0966 H   0  0  0  0  0  0  0  0  0  0  0  0
   57.4615   26.6336   45.3010 H   0  0  0  0  0  0  0  0  0  0  0  0
   58.9158   26.0248   44.3781 H   0  0  0  0  0  0  0  0  0  0  0  0
   61.1611   27.9329   46.4451 H   0  0  0  0  0  0  0  0  0  0  0  0
   60.9183   27.3160   44.7677 H   0  0  0  0  0  0  0  0  0  0  0  0
   60.1172   29.9556   45.9962 H   0  0  0  0  0  0  0  0  0  0  0  0
   60.7769   29.5650   44.3453 H   0  0  0  0  0  0  0  0  0  0  0  0
   58.0824   28.7331   47.9494 H   0  0  0  0  0  0  0  0  0  0  0  0
   58.9006   28.4473   50.0701 H   0  0  0  0  0  0  0  0  0  0  0  0
   60.2374   29.5439   50.6378 H   0  0  0  0  0  0  0  0  0  0  0  0
   59.7310   31.3560   51.9600 H   0  0  0  0  0  0  0  0  0  0  0  0
   58.0100   32.4367   50.6333 H   0  0  0  0  0  0  0  0  0  0  0  0
   56.8995   32.2164   52.0456 H   0  0  0  0  0  0  0  0  0  0  0  0
   59.2411   34.0779   51.6953 H   0  0  0  0  0  0  0  0  0  0  0  0
   57.6260   34.3199   52.5119 H   0  0  0  0  0  0  0  0  0  0  0  0
   58.9795   32.0611   55.4232 H   0  0  0  0  0  0  0  0  0  0  0  0
   57.4096   32.4517   54.5919 H   0  0  0  0  0  0  0  0  0  0  0  0
   59.4542   30.3560   53.9683 H   0  0  0  0  0  0  0  0  0  0  0  0
   57.6396   30.3700   53.7700 H   0  0  0  0  0  0  0  0  0  0  0  0
   61.9753   33.8098   54.8737 H   0  0  0  0  0  0  0  0  0  0  0  0
   61.6561   34.8751   53.4891 H   0  0  0  0  0  0  0  0  0  0  0  0
   60.2492   34.6535   56.0992 H   0  0  0  0  0  0  0  0  0  0  0  0
   60.3179   36.0298   54.9802 H   0  0  0  0  0  0  0  0  0  0  0  0
   61.2148   34.7889   50.0665 H   0  0  0  0  0  0  0  0  0  0  0  0
   63.5631   34.6667   50.8778 H   0  0  0  0  0  0  0  0  0  0  0  0
  1  2  1  0
  2  3  1  0
  3  4  2  0
  4  5  1  0
  5  6  2  0
  6  7  1  0
  7  8  1  0
  8  9  1  0
  9 10  1  0
  9 11  2  0
 11 12  1  0
 12 13  1  0
 12 14  1  0
 14 15  1  0
 15 16  1  0
 16 17  1  0
 17 18  1  0
 18 19  1  0
 11 20  1  0
 20 21  2  0
 21 22  1  0
 22 23  1  0
 23 24  2  0
 23 25  1  0
 25 26  1  0
 26 27  1  0
 27 28  1  0
 28 29  1  0
 29 30  1  0
 28 31  1  0
 31 32  1  0
 32 33  1  0
 33 34  1  0
 21 35  1  0
 35 36  2  0
  6 37  1  0
 37 38  2  0
 38  3  1  0
 35  8  1  0
 19 14  1  0
 30 25  1  0
 34 28  1  0
  1 39  1  0
  1 40  1  0
  1 41  1  0
  4 42  1  0
  5 43  1  0
  7 44  1  0
  7 45  1  0
 10 46  1  0
 10 47  1  0
 10 48  1  0
 12 49  1  1
 13 50  1  0
 15 51  1  0
 15 52  1  0
 16 53  1  0
 16 54  1  0
 18 55  1  0
 18 56  1  0
 19 57  1  0
 19 58  1  0
 20 59  1  0
 22 60  1  0
 22 61  1  0
 25 62  1  0
 26 63  1  0
 26 64  1  0
 27 65  1  0
 27 66  1  0
 29 67  1  0
 29 68  1  0
 30 69  1  0
 30 70  1  0
 32 71  1  0
 32 72  1  0
 33 73  1  0
 33 74  1  0
 37 75  1  0
 38 76  1  0
M  CHG  1  25   1
M  END
>  <UniqueID>  (16) 
16

>  <SMILES>  (16) 
COc1ccc(Cn2c(C)c([C@@H](O)N3CCOCC3)cc(CC(=O)[NH+]3CCC4(CC3)OCCO4)c2=O)cc1

>  <Energy>  (16) 
107.99776226720061

>  <Genealogy>  (16) 
COc1ccc(Cn2c(C)c(C(O)N3CCOCC3)cc(CC(=O)[NH+]3CCC4(CC3)OCCO4)c2=O)cc1 (protonated)
COc1ccc(Cn2c(C)c([C@@H](O)N3CCOCC3)cc(CC(=O)[NH+]3CCC4(CC3)OCCO4)c2=O)cc1 (chirality)
COc1ccc(Cn2c(C)c([C@@H](O)N3CCOCC3)cc(CC(=O)[NH+]3CCC4(CC3)OCCO4)c2=O)cc1 (3D coordinates assigned)
COc1ccc(Cn2c(C)c([C@@H](O)N3CCOCC3)cc(CC(=O)[NH+]3CCC4(CC3)OCCO4)c2=O)cc1 (nonaromatic ring conformer: 107.99776226720061 kcal/mol)

>  <smiles>  (16) 
COc1ccc(Cn2c(C)c(C(O)N3CCOCC3)cc(CC(=O)N3CCC4(CC3)OCCO4)c2=O)cc1

>  <score_type>  (16) 
oracle

>  <origin>  (16) 
adg

>  <m_score__min__energy>  (16) 
-7.8099999999999996

>  <m_primary>  (16) 
energy

$$$$
16:0
     RDKit          3D

 33 34  0  0  0  0  0  0  0  0999 V2000
   54.3830   28.8320   44.5050 H   0  0  0  0  0  0  0  0  0  0  0  0
   55.2340   29.3530   44.6850 O   0  0  0  0  0  0  0  0  0  0  0  0
   56.3640   28.7540   45.2420 C   0  0  0  0  0  0  0  0  0  0  0  0
   57.5510   29.4890   45.3290 C   0  0  0  0  0  0  0  0  0  0  0  0
   57.5778   30.5264   44.9643 H   0  0  0  0  0  0  0  0  0  0  0  0
   58.7090   28.9140   45.8780 C   0  0  0  0  0  0  0  0  0  0  0  0
   59.9710   29.7290   45.9960 C   0  0  0  0  0  0  0  0  0  0  0  0
   60.2151   30.1621   45.0147 H   0  0  0  0  0  0  0  0  0  0  0  0
   60.7867   29.0737   46.3354 H   0  0  0  0  0  0  0  0  0  0  0  0
   59.7880   30.8590   47.0140 C   0  0  0  0  0  0  0  0  0  0  0  0
   58.7621   30.8285   47.4098 H   0  0  0  0  0  0  0  0  0  0  0  0
   59.9708   31.8227   46.5162 H   0  0  0  0  0  0  0  0  0  0  0  0
   60.7570   30.7020   48.1420 C   0  0  0  0  0  0  0  0  0  0  0  0
   60.4800   29.9270   49.0980 O   0  0  0  0  0  0  0  0  0  0  0  0
   61.2370   34.1720   47.2180 N   0  0  0  0  0  0  0  0  0  0  0  0
   62.5540   32.0480   47.1320 C   0  0  0  0  0  0  0  0  0  0  0  0
   63.2119   31.4259   46.5074 H   0  0  0  0  0  0  0  0  0  0  0  0
   62.4020   33.4670   46.7610 C   0  0  0  0  0  0  0  0  0  0  0  0
   63.2350   34.0240   45.9960 O   0  0  0  0  0  0  0  0  0  0  0  0
   61.9660   31.4760   48.1460 N   0  0  0  0  0  0  0  0  0  0  0  0
   60.0310   34.0430   46.7510 C   0  0  0  0  0  0  0  0  0  0  0  0
   58.9260   33.8970   47.5160 N   0  0  0  0  0  0  0  0  0  0  0  0
   57.8060   33.7820   46.7550 C   0  0  0  0  0  0  0  0  0  0  0  0
   56.8050   33.6562   47.1933 H   0  0  0  0  0  0  0  0  0  0  0  0
   58.0180   33.8350   45.3810 C   0  0  0  0  0  0  0  0  0  0  0  0
   57.2423   33.7599   44.6047 H   0  0  0  0  0  0  0  0  0  0  0  0
   59.6680   34.0340   45.1130 S   0  0  0  0  0  0  0  0  0  0  0  0
   58.6590   27.5940   46.3620 C   0  0  0  0  0  0  0  0  0  0  0  0
   59.7540   27.0220   46.9220 F   0  0  0  0  0  0  0  0  0  0  0  0
   57.4730   26.8590   46.2740 C   0  0  0  0  0  0  0  0  0  0  0  0
   57.4407   25.8247   46.6470 H   0  0  0  0  0  0  0  0  0  0  0  0
   56.3280   27.4330   45.7140 C   0  0  0  0  0  0  0  0  0  0  0  0
   55.1570   26.6860   45.6350 O   0  0  0  0  0  0  0  0  0  0  0  0
  1  2  1  0
  2  3  1  0
  3  4  2  0
  4  5  1  0
  4  6  1  0
  6  7  1  0
  7  8  1  0
  7  9  1  0
  7 10  1  0
 10 11  1  0
 10 12  1  0
 10 13  1  0
 13 14  2  0
 13 15  1  0
 15 16  2  0
 16 17  1  0
 16 18  1  0
 18 19  2  0
 18 20  1  0
 20 21  2  0
 21 22  1  0
 22 23  1  0
 23 24  1  0
 23 25  2  0
 25 26  1  0
 25 27  1  0
  6 28  2  0
 28 29  1  0
 28 30  1  0
 30 31  1  0
 30 32  2  0
 32 33  1  0
 32  3  1  0
 27 21  1  0
M  CHG  2  22  -1  33  -1
M  END
>  <UniqueID>  (17) 
17

>  <SMILES>  (17) 
O=C(CCc1cc(O)c([O-])cc1F)/N=C\C(=O)/N=c1\[n-]ccs1

>  <Energy>  (17) 
69.25875595011797

>  <Genealogy>  (17) 
O=C(C=NC(=O)CCc1cc(O)c([O-])cc1F)N=c1[n-]ccs1 (protonated)
O=C(CCc1cc(O)c([O-])cc1F)/N=C\C(=O)/N=c1\[n-]ccs1 (cis-trans isomerization)
O=C(CCc1cc(O)c([O-])cc1F)/N=C\C(=O)/N=c1\[n-]ccs1 (3D coordinates assigned)
O=C(CCc1cc(O)c([O-])cc1F)/N=C\C(=O)/N=c1\[n-]ccs1 (optimized conformer: 69.25875595011797 kcal/mol)

>  <smiles>  (17) 
O=C(C=NC(=O)CCc1cc(O)c(O)cc1F)N=c1[nH]ccs1

>  <score_type>  (17) 
oracle

>  <origin>  (17) 
adg

>  <m_score__min__energy>  (17) 
-11.869999999999999

>  <m_primary>  (17) 
energy

$$$$
17:0
     RDKit          3D

 39 41  0  0  0  0  0  0  0  0999 V2000
   55.1350   30.4510   44.1350 O   0  0  0  0  0  0  0  0  0  0  0  0
   55.9820   29.5620   43.8570 C   0  0  0  0  0  0  0  0  0  0  0  0
   56.9700   29.0920   44.8540 C   0  0  0  0  0  0  0  0  0  0  0  0
   58.1880   29.7810   44.9690 C   0  0  0  0  0  0  0  0  0  0  0  0
   59.1540   29.3900   45.9090 C   0  0  0  0  0  0  0  0  0  0  0  0
   60.4160   30.1570   46.0180 C   0  0  0  0  0  0  0  0  0  0  0  0
   61.4870   29.6390   45.5980 O   0  0  0  0  0  0  0  0  0  0  0  0
   60.4400   31.4910   46.5680 N   0  0  0  0  0  0  0  0  0  0  0  0
   59.3860   32.4220   46.2370 C   0  0  0  0  0  0  0  0  0  0  0  0
   58.1490   32.3670   46.9050 C   0  0  0  0  0  0  0  0  0  0  0  0
   57.1330   33.2740   46.5880 C   0  0  0  0  0  0  0  0  0  0  0  0
   57.3430   34.2450   45.6060 C   0  0  0  0  0  0  0  0  0  0  0  0
   58.5690   34.3110   44.9380 C   0  0  0  0  0  0  0  0  0  0  0  0
   59.5870   33.4050   45.2510 C   0  0  0  0  0  0  0  0  0  0  0  0
   61.4940   31.8880   47.4720 C   0  0  0  0  0  0  0  0  0  0  0  0
   62.2090   33.0750   47.2360 C   0  0  0  0  0  0  0  0  0  0  0  0
   63.2430   33.4630   48.0920 C   0  0  0  0  0  0  0  0  0  0  0  0
   63.5690   32.6730   49.1970 C   0  0  0  0  0  0  0  0  0  0  0  0
   62.8580   31.4990   49.4500 C   0  0  0  0  0  0  0  0  0  0  0  0
   61.8190   31.1050   48.6000 C   0  0  0  0  0  0  0  0  0  0  0  0
   61.1020   29.9500   48.8930 O   0  0  0  0  0  0  0  0  0  0  0  0
   58.9120   28.2670   46.7210 C   0  0  0  0  0  0  0  0  0  0  0  0
   59.8850   27.8180   47.6150 O   0  0  0  0  0  0  0  0  0  0  0  0
   57.6960   27.5800   46.6160 C   0  0  0  0  0  0  0  0  0  0  0  0
   56.7280   27.9850   45.6920 C   0  0  0  0  0  0  0  0  0  0  0  0
   55.5350   27.2730   45.6190 O   0  0  0  0  0  0  0  0  0  0  0  0
   55.9880   29.1236   42.8481 H   0  0  0  0  0  0  0  0  0  0  0  0
   58.3881   30.6404   44.3123 H   0  0  0  0  0  0  0  0  0  0  0  0
   57.9801   31.6061   47.6812 H   0  0  0  0  0  0  0  0  0  0  0  0
   56.1674   33.2228   47.1125 H   0  0  0  0  0  0  0  0  0  0  0  0
   56.5430   34.9582   45.3582 H   0  0  0  0  0  0  0  0  0  0  0  0
   58.7332   35.0765   44.1653 H   0  0  0  0  0  0  0  0  0  0  0  0
   60.5505   33.4612   44.7232 H   0  0  0  0  0  0  0  0  0  0  0  0
   61.9525   33.7035   46.3705 H   0  0  0  0  0  0  0  0  0  0  0  0
   63.8004   34.3908   47.8957 H   0  0  0  0  0  0  0  0  0  0  0  0
   64.3863   32.9763   49.8679 H   0  0  0  0  0  0  0  0  0  0  0  0
   63.1159   30.8803   50.3222 H   0  0  0  0  0  0  0  0  0  0  0  0
   60.5050   28.4600   48.0930 H   0  0  0  0  0  0  0  0  0  0  0  0
   57.5009   26.7144   47.2661 H   0  0  0  0  0  0  0  0  0  0  0  0
  1  2  2  0
  2  3  1  0
  3  4  2  0
  4  5  1  0
  5  6  1  0
  6  7  2  0
  6  8  1  0
  8  9  1  0
  9 10  2  0
 10 11  1  0
 11 12  2  0
 12 13  1  0
 13 14  2  0
  8 15  1  0
 15 16  2  0
 16 17  1  0
 17 18  2  0
 18 19  1  0
 19 20  2  0
 20 21  1  0
  5 22  2  0
 22 23  1  0
 22 24  1  0
 24 25  2  0
 25 26  1  0
 25  3  1  0
 14  9  1  0
 20 15  1  0
  2 27  1  0
  4 28  1  0
 10 29  1  0
 11 30  1  0
 12 31  1  0
 13 32  1  0
 14 33  1  0
 16 34  1  0
 17 35  1  0
 18 36  1  0
 19 37  1  0
 23 38  1  0
 24 39  1  0
M  CHG  2  21  -1  26  -1
M  END
>  <UniqueID>  (18) 
18

>  <SMILES>  (18) 
O=Cc1cc(C(=O)N(c2ccccc2)c2ccccc2[O-])c(O)cc1[O-]

>  <Energy>  (18) 
58.76259119501596

>  <Genealogy>  (18) 
O=Cc1cc(C(=O)N(c2ccccc2)c2ccccc2[O-])c(O)cc1[O-] (protonated)
O=Cc1cc(C(=O)N(c2ccccc2)c2ccccc2[O-])c(O)cc1[O-] (3D coordinates assigned)
O=Cc1cc(C(=O)N(c2ccccc2)c2ccccc2[O-])c(O)cc1[O-] (optimized conformer: 58.76259119501596 kcal/mol)

>  <smiles>  (18) 
O=Cc1cc(C(=O)N(c2ccccc2)c2ccccc2O)c(O)cc1O

>  <score_type>  (18) 
oracle

>  <origin>  (18) 
adg

>  <m_score__min__energy>  (18) 
-12.710000000000001

>  <m_primary>  (18) 
energy

$$$$
18:0
     RDKit          3D

 50 52  0  0  0  0  0  0  0  0999 V2000
   55.6310   22.6350   48.3250 C   0  0  0  0  0  0  0  0  0  0  0  0
   55.2570   22.7050   46.8530 C   0  0  0  0  0  0  0  0  0  0  0  0
   55.1920   24.1270   46.3930 C   0  0  0  0  0  0  0  0  0  0  0  0
   54.0830   24.6970   45.8850 N   0  0  0  0  0  0  0  0  0  0  0  0
   54.3830   25.9600   45.6410 N   0  0  0  0  0  0  0  0  0  0  0  0
   55.6610   26.1200   46.0190 C   0  0  0  0  0  0  0  0  0  0  0  0
   56.2760   27.2630   45.9380 N   0  0  0  0  0  0  0  0  0  0  0  0
   57.6550   27.4970   46.2600 C   0  0  0  0  0  0  0  0  0  0  0  0
   58.4930   26.5580   46.2410 O   0  0  0  0  0  0  0  0  0  0  0  0
   58.1170   28.8860   46.5660 C   0  0  0  0  0  0  0  0  0  0  0  0
   58.1910   29.6750   45.3380 N   0  0  0  0  0  0  0  0  0  0  0  0
   57.4560   30.8920   45.1420 C   0  0  0  0  0  0  0  0  0  0  0  0
   56.2710   30.8260   44.7090 O   0  0  0  0  0  0  0  0  0  0  0  0
   58.0520   32.2140   45.4500 C   0  0  0  0  0  0  0  0  0  0  0  0
   57.9170   33.2790   44.5440 C   0  0  0  0  0  0  0  0  0  0  0  0
   58.4460   34.5350   44.8490 C   0  0  0  0  0  0  0  0  0  0  0  0
   59.1270   34.7420   46.0460 C   0  0  0  0  0  0  0  0  0  0  0  0
   59.2940   33.6860   46.9530 C   0  0  0  0  0  0  0  0  0  0  0  0
   60.0370   33.8860   48.2140 C   0  0  0  0  0  0  0  0  0  0  0  0
   59.6160   34.7420   49.0390 O   0  0  0  0  0  0  0  0  0  0  0  0
   61.2080   33.1060   48.5330 N   0  0  0  0  0  0  0  0  0  0  0  0
   61.1160   31.7650   49.0870 C   0  0  0  0  0  0  0  0  0  0  0  0
   62.5300   31.2080   49.0670 C   0  0  0  0  0  0  0  0  0  0  0  0
   63.4430   32.4130   48.8890 C   0  0  0  0  0  0  0  0  0  0  0  0
   62.5800   33.4940   48.2320 C   0  0  1  0  0  0  0  0  0  0  0  0
   62.7940   33.5670   46.7090 C   0  0  0  0  0  0  0  0  0  0  0  0
   64.1320   33.3050   46.3930 O   0  0  0  0  0  0  0  0  0  0  0  0
   58.7190   32.4370   46.6680 C   0  0  0  0  0  0  0  0  0  0  0  0
   56.2160   24.9930   46.5100 N   0  0  0  0  0  0  0  0  0  0  0  0
   54.7342   22.8028   48.9395 H   0  0  0  0  0  0  0  0  0  0  0  0
   56.0494   21.6429   48.5502 H   0  0  0  0  0  0  0  0  0  0  0  0
   56.3799   23.4086   48.5502 H   0  0  0  0  0  0  0  0  0  0  0  0
   56.0136   22.1681   46.2619 H   0  0  0  0  0  0  0  0  0  0  0  0
   54.2684   22.2426   46.7160 H   0  0  0  0  0  0  0  0  0  0  0  0
   57.4078   29.3602   47.2604 H   0  0  0  0  0  0  0  0  0  0  0  0
   59.1162   28.8394   47.0236 H   0  0  0  0  0  0  0  0  0  0  0  0
   57.3922   33.1230   43.5899 H   0  0  0  0  0  0  0  0  0  0  0  0
   58.3240   35.3663   44.1390 H   0  0  0  0  0  0  0  0  0  0  0  0
   59.5348   35.7363   46.2804 H   0  0  0  0  0  0  0  0  0  0  0  0
   60.7340   31.8023   50.1179 H   0  0  0  0  0  0  0  0  0  0  0  0
   60.4256   31.1350   48.5070 H   0  0  0  0  0  0  0  0  0  0  0  0
   62.7534   30.6937   50.0133 H   0  0  0  0  0  0  0  0  0  0  0  0
   62.6659   30.4721   48.2607 H   0  0  0  0  0  0  0  0  0  0  0  0
   63.8150   32.7596   49.8644 H   0  0  0  0  0  0  0  0  0  0  0  0
   64.3231   32.1683   48.2761 H   0  0  0  0  0  0  0  0  0  0  0  0
   62.8381   34.4928   48.6139 H   0  0  0  0  0  0  0  0  0  0  0  0
   62.1522   32.8217   46.2163 H   0  0  0  0  0  0  0  0  0  0  0  0
   62.5352   34.5774   46.3595 H   0  0  0  0  0  0  0  0  0  0  0  0
   64.3740   32.4490   46.8300 H   0  0  0  0  0  0  0  0  0  0  0  0
   58.7910   31.6240   47.4055 H   0  0  0  0  0  0  0  0  0  0  0  0
  1  2  1  0
  2  3  1  0
  3  4  2  0
  4  5  1  0
  5  6  1  0
  6  7  2  3
  7  8  1  0
  8  9  2  0
  8 10  1  0
 10 11  1  0
 11 12  1  0
 12 13  2  0
 12 14  1  0
 14 15  2  0
 15 16  1  0
 16 17  2  0
 17 18  1  0
 18 19  1  0
 19 20  2  0
 19 21  1  0
 21 22  1  0
 22 23  1  0
 23 24  1  0
 24 25  1  0
 25 26  1  0
 26 27  1  0
 18 28  2  0
  6 29  1  0
 29  3  1  0
 28 14  1  0
 25 21  1  0
  1 30  1  0
  1 31  1  0
  1 32  1  0
  2 33  1  0
  2 34  1  0
 10 35  1  0
 10 36  1  0
 15 37  1  0
 16 38  1  0
 17 39  1  0
 22 40  1  0
 22 41  1  0
 23 42  1  0
 23 43  1  0
 24 44  1  0
 24 45  1  0
 25 46  1  1
 26 47  1  0
 26 48  1  0
 27 49  1  0
 28 50  1  0
M  CHG  3   5  -1  11  -1  29  -1
M  END
>  <UniqueID>  (19) 
19

>  <SMILES>  (19) 
CCc1n[n-]c(=NC(=O)C[N-]C(=O)c2cccc(C(=O)N3CCC[C@H]3CO)c2)[n-]1

>  <Energy>  (19) 
89.43586221780923

>  <Genealogy>  (19) 
CCc1n[n-]c(=NC(=O)C[N-]C(=O)c2cccc(C(=O)N3CCCC3CO)c2)[n-]1 (protonated)
CCc1n[n-]c(=NC(=O)C[N-]C(=O)c2cccc(C(=O)N3CCC[C@H]3CO)c2)[n-]1 (chirality)
CCc1n[n-]c(=NC(=O)C[N-]C(=O)c2cccc(C(=O)N3CCC[C@H]3CO)c2)[n-]1 (3D coordinates assigned)
CCc1n[n-]c(=NC(=O)C[N-]C(=O)c2cccc(C(=O)N3CCC[C@H]3CO)c2)[n-]1 (nonaromatic ring conformer: 89.43586221780923 kcal/mol)

>  <smiles>  (19) 
CCc1n[nH]c(=NC(=O)CNC(=O)c2cccc(C(=O)N3CCCC3CO)c2)[nH]1

>  <score_type>  (19) 
oracle

>  <origin>  (19) 
adg

>  <m_score__min__energy>  (19) 
-13.640000000000001

>  <m_primary>  (19) 
energy

$$$$
19:0
     RDKit          3D

 67 71  0  0  0  0  0  0  0  0999 V2000
   56.2592   34.5137   45.4145 H   0  0  0  0  0  0  0  0  0  0  0  0
   57.0090   33.7170   45.5290 C   0  0  0  0  0  0  0  0  0  0  0  0
   56.8410   32.5310   44.8870 N   0  0  0  0  0  0  0  0  0  0  0  0
   57.7530   31.5330   45.0180 C   0  0  0  0  0  0  0  0  0  0  0  0
   57.5780   30.4150   44.3730 N   0  0  0  0  0  0  0  0  0  0  0  0
   57.7840   29.0900   44.8980 C   0  0  0  0  0  0  0  0  0  0  0  0
   57.9340   28.0240   44.0040 C   0  0  0  0  0  0  0  0  0  0  0  0
   57.8856   28.2089   42.9207 H   0  0  0  0  0  0  0  0  0  0  0  0
   58.1450   26.7250   44.4780 C   0  0  0  0  0  0  0  0  0  0  0  0
   58.2784   25.8989   43.7640 H   0  0  0  0  0  0  0  0  0  0  0  0
   58.1880   26.4660   45.8600 C   0  0  0  0  0  0  0  0  0  0  0  0
   58.4380   25.0980   46.3690 C   0  0  0  0  0  0  0  0  0  0  0  0
   59.3180   24.3700   45.8320 O   0  0  0  0  0  0  0  0  0  0  0  0
   57.6760   24.5980   47.4720 N   0  0  0  0  0  0  0  0  0  0  0  0
   56.4810   23.7770   47.3240 C   0  0  0  0  0  0  0  0  0  0  0  0
   56.7753   22.7245   47.1990 H   0  0  0  0  0  0  0  0  0  0  0  0
   55.8550   23.8852   48.2220 H   0  0  0  0  0  0  0  0  0  0  0  0
   55.6810   24.2310   46.0940 C   0  0  0  0  0  0  0  0  0  0  0  0
   54.6285   24.3632   46.3851 H   0  0  0  0  0  0  0  0  0  0  0  0
   56.1190   25.1743   45.7358 H   0  0  0  0  0  0  0  0  0  0  0  0
   55.7500   23.2500   44.9890 N   0  0  0  0  0  0  0  0  0  0  0  0
   56.2700   23.8480   43.7440 C   0  0  0  0  0  0  0  0  0  0  0  0
   55.6202   24.6828   43.4425 H   0  0  0  0  0  0  0  0  0  0  0  0
   57.2923   24.2137   43.9204 H   0  0  0  0  0  0  0  0  0  0  0  0
   56.2990   22.7910   42.6180 C   0  0  0  0  0  0  0  0  0  0  0  0
   55.5135   23.0332   41.8870 H   0  0  0  0  0  0  0  0  0  0  0  0
   57.2995   22.8173   42.1616 H   0  0  0  0  0  0  0  0  0  0  0  0
   56.0810   21.4760   43.1000 O   0  0  0  0  0  0  0  0  0  0  0  0
   56.9470   21.2120   44.1830 C   0  0  0  0  0  0  0  0  0  0  0  0
   56.8441   20.1574   44.4783 H   0  0  0  0  0  0  0  0  0  0  0  0
   57.9798   21.4222   43.8682 H   0  0  0  0  0  0  0  0  0  0  0  0
   56.6050   22.1100   45.3880 C   0  0  0  0  0  0  0  0  0  0  0  0
   56.0728   21.5103   46.1411 H   0  0  0  0  0  0  0  0  0  0  0  0
   57.5441   22.5097   45.7983 H   0  0  0  0  0  0  0  0  0  0  0  0
   57.9940   27.5320   46.7540 C   0  0  0  0  0  0  0  0  0  0  0  0
   58.0157   27.3451   47.8378 H   0  0  0  0  0  0  0  0  0  0  0  0
   57.7740   28.8260   46.2800 C   0  0  0  0  0  0  0  0  0  0  0  0
   57.5916   29.6449   46.9914 H   0  0  0  0  0  0  0  0  0  0  0  0
   58.8540   31.7300   45.7900 N   0  0  0  0  0  0  0  0  0  0  0  0
   59.0680   32.8920   46.4650 C   0  0  0  0  0  0  0  0  0  0  0  0
   60.2930   33.0190   47.3000 C   0  0  0  0  0  0  0  0  0  0  0  0
   61.5790   33.0020   46.7360 C   0  0  0  0  0  0  0  0  0  0  0  0
   61.6967   32.8725   45.6500 H   0  0  0  0  0  0  0  0  0  0  0  0
   62.7090   33.1480   47.5420 C   0  0  0  0  0  0  0  0  0  0  0  0
   63.7091   33.1303   47.0844 H   0  0  0  0  0  0  0  0  0  0  0  0
   62.5840   33.3170   48.9290 C   0  0  0  0  0  0  0  0  0  0  0  0
   63.7650   33.4540   49.7400 N   0  0  0  0  0  0  0  0  0  0  0  0
   63.8950   34.1910   50.8630 C   0  0  0  0  0  0  0  0  0  0  0  0
   63.0736   34.7686   51.3121 H   0  0  0  0  0  0  0  0  0  0  0  0
   65.1430   34.1420   51.3750 N   0  0  0  0  0  0  0  0  0  0  0  0
   65.8110   33.3300   50.5280 C   0  0  0  0  0  0  0  0  0  0  0  0
   67.2670   33.0270   50.6400 C   0  0  0  0  0  0  0  0  0  0  0  0
   67.5487   32.9684   51.7017 H   0  0  0  0  0  0  0  0  0  0  0  0
   67.4801   32.0653   50.1505 H   0  0  0  0  0  0  0  0  0  0  0  0
   67.8461   33.8239   50.1505 H   0  0  0  0  0  0  0  0  0  0  0  0
   64.9770   32.9150   49.5160 C   0  0  0  0  0  0  0  0  0  0  0  0
   65.2515   32.2607   48.6755 H   0  0  0  0  0  0  0  0  0  0  0  0
   61.2990   33.3660   49.5090 C   0  0  0  0  0  0  0  0  0  0  0  0
   61.1810   33.5900   50.8910 O   0  0  0  0  0  0  0  0  0  0  0  0
   59.9750   33.4530   51.6380 C   0  0  0  0  0  0  0  0  0  0  0  0
   60.2048   33.4791   52.7134 H   0  0  0  0  0  0  0  0  0  0  0  0
   59.2933   34.2795   51.3886 H   0  0  0  0  0  0  0  0  0  0  0  0
   59.4961   32.4947   51.3886 H   0  0  0  0  0  0  0  0  0  0  0  0
   60.1660   33.2130   48.6890 C   0  0  0  0  0  0  0  0  0  0  0  0
   59.1636   33.2455   49.1407 H   0  0  0  0  0  0  0  0  0  0  0  0
   58.1300   33.9270   46.3330 C   0  0  0  0  0  0  0  0  0  0  0  0
   58.2754   34.8853   46.8531 H   0  0  0  0  0  0  0  0  0  0  0  0
  1  2  1  0
  2  3  1  0
  3  4  1  0
  4  5  2  0
  5  6  1  0
  6  7  2  0
  7  8  1  0
  7  9  1  0
  9 10  1  0
  9 11  2  0
 11 12  1  0
 12 13  2  0
 12 14  1  0
 14 15  1  0
 15 16  1  0
 15 17  1  0
 15 18  1  0
 18 19  1  0
 18 20  1  0
 18 21  1  0
 21 22  1  0
 22 23  1  0
 22 24  1  0
 22 25  1  0
 25 26  1  0
 25 27  1  0
 25 28  1  0
 28 29  1  0
 29 30  1  0
 29 31  1  0
 29 32  1  0
 32 33  1  0
 32 34  1  0
 11 35  1  0
 35 36  1  0
 35 37  2  0
 37 38  1  0
  4 39  1  0
 39 40  2  0
 40 41  1  0
 41 42  2  0
 42 43  1  0
 42 44  1  0
 44 45  1  0
 44 46  2  0
 46 47  1  0
 47 48  1  0
 48 49  1  0
 48 50  2  0
 50 51  1  0
 51 52  1  0
 52 53  1  0
 52 54  1  0
 52 55  1  0
 51 56  2  0
 56 57  1  0
 46 58  1  0
 58 59  1  0
 59 60  1  0
 60 61  1  0
 60 62  1  0
 60 63  1  0
 58 64  2  0
 64 65  1  0
 40 66  1  0
 66 67  1  0
 66  2  2  0
 37  6  1  0
 64 41  1  0
 32 21  1  0
 56 47  1  0
M  CHG  2   3  -1  14  -1
M  END
>  <UniqueID>  (20) 
20

>  <SMILES>  (20) 
COc1cc(-c2cc[n-]/c(=N/c3ccc(C(=O)[N-]CCN4CCOCC4)cc3)n2)ccc1-n1cnc(C)c1

>  <Energy>  (20) 
121.29844210743887

>  <Genealogy>  (20) 
COc1cc(-c2cc[n-]c(=Nc3ccc(C(=O)[N-]CCN4CCOCC4)cc3)n2)ccc1-n1cnc(C)c1 (protonated)
COc1cc(-c2cc[n-]/c(=N/c3ccc(C(=O)[N-]CCN4CCOCC4)cc3)n2)ccc1-n1cnc(C)c1 (cis-trans isomerization)
COc1cc(-c2cc[n-]/c(=N/c3ccc(C(=O)[N-]CCN4CCOCC4)cc3)n2)ccc1-n1cnc(C)c1 (3D coordinates assigned)
COc1cc(-c2cc[n-]/c(=N/c3ccc(C(=O)[N-]CCN4CCOCC4)cc3)n2)ccc1-n1cnc(C)c1 (nonaromatic ring conformer: 121.29844210743887 kcal/mol)

>  <smiles>  (20) 
COc1cc(-c2cc[nH]c(=Nc3ccc(C(=O)NCCN4CCOCC4)cc3)n2)ccc1-n1cnc(C)c1

>  <score_type>  (20) 
oracle

>  <origin>  (20) 
adg

>  <m_score__min__energy>  (20) 
-13.130000000000001

>  <m_primary>  (20) 
energy

$$$$
20:0
     RDKit          3D

 54 56  0  0  0  0  0  0  0  0999 V2000
   55.1420   28.0640   45.0230 H   0  0  0  0  0  0  0  0  0  0  0  0
   55.1480   29.0040   44.6450 O   0  0  0  0  0  0  0  0  0  0  0  0
   56.3390   29.7010   44.4380 C   0  0  0  0  0  0  0  0  0  0  0  0
   56.3010   31.0250   43.9760 C   0  0  0  0  0  0  0  0  0  0  0  0
   55.3328   31.5125   43.7888 H   0  0  0  0  0  0  0  0  0  0  0  0
   57.4870   31.7260   43.7530 C   0  0  0  0  0  0  0  0  0  0  0  0
   57.4515   32.7652   43.3940 H   0  0  0  0  0  0  0  0  0  0  0  0
   58.7190   31.1100   43.9850 C   0  0  0  0  0  0  0  0  0  0  0  0
   59.6524   31.6640   43.8069 H   0  0  0  0  0  0  0  0  0  0  0  0
   58.7670   29.7910   44.4430 C   0  0  0  0  0  0  0  0  0  0  0  0
   59.7400   29.3082   44.6169 H   0  0  0  0  0  0  0  0  0  0  0  0
   57.5810   29.0770   44.6830 C   0  0  0  0  0  0  0  0  0  0  0  0
   57.6560   27.6340   45.1220 C   0  0  0  0  0  0  0  0  0  0  0  0
   58.5954   27.1959   44.7537 H   0  0  0  0  0  0  0  0  0  0  0  0
   56.7882   27.0999   44.7077 H   0  0  0  0  0  0  0  0  0  0  0  0
   57.6140   27.5130   46.6470 C   0  0  0  0  0  0  0  0  0  0  0  0
   57.6217   26.4498   46.9292 H   0  0  0  0  0  0  0  0  0  0  0  0
   56.6973   27.9903   47.0237 H   0  0  0  0  0  0  0  0  0  0  0  0
   58.7730   28.1750   47.2270 N   0  0  0  0  0  0  0  0  0  0  0  0
   58.7550   29.5070   47.7460 C   0  0  0  0  0  0  0  0  0  0  0  0
   58.0220   30.3860   47.2180 O   0  0  0  0  0  0  0  0  0  0  0  0
   59.6530   29.8630   48.9000 C   0  0  1  0  0  0  0  0  0  0  0  0
   59.4877   29.1554   49.7259 H   0  0  0  0  0  0  0  0  0  0  0  0
   61.1490   29.7300   48.5050 C   0  0  0  0  0  0  0  0  0  0  0  0
   61.2151   29.6619   47.4091 H   0  0  0  0  0  0  0  0  0  0  0  0
   61.5364   28.8289   49.0029 H   0  0  0  0  0  0  0  0  0  0  0  0
   62.0150   30.9140   48.9730 C   0  0  0  0  0  0  0  0  0  0  0  0
   61.8375   31.7647   48.2987 H   0  0  0  0  0  0  0  0  0  0  0  0
   63.0630   30.5805   48.9514 H   0  0  0  0  0  0  0  0  0  0  0  0
   61.7040   31.3640   50.4280 C   0  0  1  0  0  0  0  0  0  0  0  0
   62.1170   30.2370   51.4090 C   0  0  0  0  0  0  0  0  0  0  0  0
   61.9889   30.5867   52.4440 H   0  0  0  0  0  0  0  0  0  0  0  0
   61.4843   29.3533   51.2395 H   0  0  0  0  0  0  0  0  0  0  0  0
   63.1709   29.9714   51.2395 H   0  0  0  0  0  0  0  0  0  0  0  0
   62.5160   32.6470   50.7800 C   0  0  0  0  0  0  0  0  0  0  0  0
   62.3569   32.8865   51.8418 H   0  0  0  0  0  0  0  0  0  0  0  0
   63.5763   32.4435   50.5696 H   0  0  0  0  0  0  0  0  0  0  0  0
   62.1100   33.8000   49.9700 N   0  0  0  0  0  0  0  0  0  0  0  0
   61.4630   33.9370   48.8410 C   0  0  0  0  0  0  0  0  0  0  0  0
   60.1500   34.2870   48.9420 N   0  0  0  0  0  0  0  0  0  0  0  0
   59.3510   34.5030   47.8680 C   0  0  0  0  0  0  0  0  0  0  0  0
   58.2971   34.7824   48.0133 H   0  0  0  0  0  0  0  0  0  0  0  0
   59.8650   34.3710   46.5830 C   0  0  0  0  0  0  0  0  0  0  0  0
   58.8450   34.6540   45.1850 Cl  0  0  0  0  0  0  0  0  0  0  0  0
   61.1970   33.9980   46.4220 C   0  0  0  0  0  0  0  0  0  0  0  0
   61.6110   33.8856   45.4091 H   0  0  0  0  0  0  0  0  0  0  0  0
   62.0170   33.7640   47.5350 C   0  0  0  0  0  0  0  0  0  0  0  0
   63.6330   33.1840   47.1470 Cl  0  0  0  0  0  0  0  0  0  0  0  0
   60.1730   31.6700   50.6060 C   0  0  0  0  0  0  0  0  0  0  0  0
   60.0553   32.7505   50.7751 H   0  0  0  0  0  0  0  0  0  0  0  0
   59.8280   31.0633   51.4562 H   0  0  0  0  0  0  0  0  0  0  0  0
   59.3030   31.2740   49.4020 C   0  0  0  0  0  0  0  0  0  0  0  0
   59.4680   31.9952   48.5880 H   0  0  0  0  0  0  0  0  0  0  0  0
   58.2495   31.2787   49.7183 H   0  0  0  0  0  0  0  0  0  0  0  0
  1  2  1  0
  2  3  1  0
  3  4  2  0
  4  5  1  0
  4  6  1  0
  6  7  1  0
  6  8  2  0
  8  9  1  0
  8 10  1  0
 10 11  1  0
 10 12  2  0
 12 13  1  0
 13 14  1  0
 13 15  1  0
 13 16  1  0
 16 17  1  0
 16 18  1  0
 16 19  1  0
 19 20  1  0
 20 21  2  0
 20 22  1  0
 22 23  1  1
 22 24  1  0
 24 25  1  0
 24 26  1  0
 24 27  1  0
 27 28  1  0
 27 29  1  0
 27 30  1  0
 30 31  1  1
 31 32  1  0
 31 33  1  0
 31 34  1  0
 30 35  1  0
 35 36  1  0
 35 37  1  0
 35 38  1  0
 38 39  2  0
 39 40  1  0
 40 41  1  0
 41 42  1  0
 41 43  2  0
 43 44  1  0
 43 45  1  0
 45 46  1  0
 45 47  2  0
 47 48  1  0
 30 49  1  0
 49 50  1  0
 49 51  1  0
 49 52  1  0
 52 53  1  0
 52 54  1  0
 12  3  1  0
 52 22  1  0
 47 39  1  0
M  CHG  2  19  -1  40  -1
M  END
>  <UniqueID>  (21) 
21

>  <SMILES>  (21) 
CC1(C/N=c2/[n-]cc(Cl)cc2Cl)CCC(C(=O)[N-]CCc2ccccc2O)CC1

>  <Energy>  (21) 
68.48045563756925

>  <Genealogy>  (21) 
CC1(CN=c2[n-]cc(Cl)cc2Cl)CCC(C(=O)[N-]CCc2ccccc2O)CC1 (protonated)
CC1(C/N=c2/[n-]cc(Cl)cc2Cl)CCC(C(=O)[N-]CCc2ccccc2O)CC1 (cis-trans isomerization)
CC1(C/N=c2/[n-]cc(Cl)cc2Cl)CCC(C(=O)[N-]CCc2ccccc2O)CC1 (3D coordinates assigned)
CC1(C/N=c2/[n-]cc(Cl)cc2Cl)CCC(C(=O)[N-]CCc2ccccc2O)CC1 (nonaromatic ring conformer: 68.48045563756925 kcal/mol)

>  <smiles>  (21) 
CC1(CN=c2[nH]cc(Cl)cc2Cl)CCC(C(=O)NCCc2ccccc2O)CC1

>  <score_type>  (21) 
oracle

>  <origin>  (21) 
adg

>  <m_score__min__energy>  (21) 
-12.220000000000001

>  <m_primary>  (21) 
energy

$$$$
21:0
     RDKit          3D

 52 55  0  0  0  0  0  0  0  0999 V2000
   59.4870   33.8170   49.2360 N   0  0  0  0  0  0  0  0  0  0  0  0
   59.5630   32.5110   50.3640 S   0  0  0  0  0  0  0  0  0  0  0  0
   60.8830   32.5420   51.0800 O   0  0  0  0  0  0  0  0  0  0  0  0
   58.4620   32.6620   51.3760 O   0  0  0  0  0  0  0  0  0  0  0  0
   59.3930   30.9810   49.5080 C   0  0  0  0  0  0  0  0  0  0  0  0
   58.7160   30.9220   48.2830 C   0  0  0  0  0  0  0  0  0  0  0  0
   58.6010   29.7070   47.6000 C   0  0  0  0  0  0  0  0  0  0  0  0
   59.1610   28.5380   48.1360 C   0  0  0  0  0  0  0  0  0  0  0  0
   59.0990   27.2400   47.3790 C   0  0  0  0  0  0  0  0  0  0  0  0
   57.7500   26.6960   47.4530 N   0  0  0  0  0  0  0  0  0  0  0  0
   56.8340   26.7060   46.3510 C   0  0  0  0  0  0  0  0  0  0  0  0
   55.7160   26.1320   46.4620 O   0  0  0  0  0  0  0  0  0  0  0  0
   57.1520   27.3660   45.1170 N   0  0  0  0  0  0  0  0  0  0  0  0
   57.0020   28.6240   44.8200 C   0  0  0  0  0  0  0  0  0  0  0  0
   55.7780   29.1920   44.7420 N   0  0  0  0  0  0  0  0  0  0  0  0
   55.8510   30.5260   44.4860 C   0  0  0  0  0  0  0  0  0  0  0  0
   57.1470   31.0160   44.3590 C   0  0  0  0  0  0  0  0  0  0  0  0
   57.5100   32.3440   44.1150 O   0  0  0  0  0  0  0  0  0  0  0  0
   58.4020   33.0480   44.9290 C   0  0  0  0  0  0  0  0  0  0  0  0
   58.3460   34.4400   44.9840 C   0  0  0  0  0  0  0  0  0  0  0  0
   59.2870   35.1130   45.7650 C   0  0  0  0  0  0  0  0  0  0  0  0
   60.2380   34.4150   46.4400 N   0  0  0  0  0  0  0  0  0  0  0  0
   60.2850   33.0580   46.3740 C   0  0  0  0  0  0  0  0  0  0  0  0
   61.2930   32.3650   47.0540 O   0  0  0  0  0  0  0  0  0  0  0  0
   62.6640   32.7710   47.0500 C   0  0  0  0  0  0  0  0  0  0  0  0
   63.1570   33.0510   48.4470 C   0  0  0  0  0  0  0  0  0  0  0  0
   64.0660   32.1760   49.0660 C   0  0  0  0  0  0  0  0  0  0  0  0
   64.5100   32.4270   50.3690 C   0  0  0  0  0  0  0  0  0  0  0  0
   64.0550   33.5530   51.0610 C   0  0  0  0  0  0  0  0  0  0  0  0
   63.1610   34.4340   50.4490 C   0  0  0  0  0  0  0  0  0  0  0  0
   62.7170   34.1890   49.1450 C   0  0  0  0  0  0  0  0  0  0  0  0
   59.3640   32.3890   45.6290 N   0  0  0  0  0  0  0  0  0  0  0  0
   58.2350   29.7540   44.5580 S   0  0  0  0  0  0  0  0  0  0  0  0
   59.8500   28.6030   49.3580 C   0  0  0  0  0  0  0  0  0  0  0  0
   59.9610   29.8170   50.0420 C   0  0  0  0  0  0  0  0  0  0  0  0
   60.1080   33.5650   48.4340 H   0  0  0  0  0  0  0  0  0  0  0  0
   58.2733   31.8344   47.8569 H   0  0  0  0  0  0  0  0  0  0  0  0
   58.0689   29.6679   46.6380 H   0  0  0  0  0  0  0  0  0  0  0  0
   59.3653   27.4168   46.3265 H   0  0  0  0  0  0  0  0  0  0  0  0
   59.8067   26.5241   47.8223 H   0  0  0  0  0  0  0  0  0  0  0  0
   54.9602   31.1638   44.3876 H   0  0  0  0  0  0  0  0  0  0  0  0
   57.5782   34.9949   44.4250 H   0  0  0  0  0  0  0  0  0  0  0  0
   59.2588   36.2105   45.8343 H   0  0  0  0  0  0  0  0  0  0  0  0
   63.2739   31.9688   46.6090 H   0  0  0  0  0  0  0  0  0  0  0  0
   62.7505   33.6952   46.4598 H   0  0  0  0  0  0  0  0  0  0  0  0
   64.4298   31.2905   48.5242 H   0  0  0  0  0  0  0  0  0  0  0  0
   65.2187   31.7367   50.8498 H   0  0  0  0  0  0  0  0  0  0  0  0
   64.4011   33.7451   52.0873 H   0  0  0  0  0  0  0  0  0  0  0  0
   62.8054   35.3216   50.9927 H   0  0  0  0  0  0  0  0  0  0  0  0
   62.0199   34.8906   48.6635 H   0  0  0  0  0  0  0  0  0  0  0  0
   60.3046   27.6941   49.7790 H   0  0  0  0  0  0  0  0  0  0  0  0
   60.4959   29.8585   51.0023 H   0  0  0  0  0  0  0  0  0  0  0  0
  1  2  1  0
  2  3  2  0
  2  4  2  0
  2  5  1  0
  5  6  2  0
  6  7  1  0
  7  8  2  0
  8  9  1  0
  9 10  1  0
 10 11  1  0
 11 12  2  0
 11 13  1  0
 13 14  2  3
 14 15  1  0
 15 16  1  0
 16 17  2  0
 17 18  1  0
 18 19  1  0
 19 20  2  0
 20 21  1  0
 21 22  2  0
 22 23  1  0
 23 24  1  0
 24 25  1  0
 25 26  1  0
 26 27  2  0
 27 28  1  0
 28 29  2  0
 29 30  1  0
 30 31  2  0
 23 32  2  0
 17 33  1  0
  8 34  1  0
 34 35  2  0
 35  5  1  0
 33 14  1  0
 32 19  1  0
 31 26  1  0
  1 36  1  0
  6 37  1  0
  7 38  1  0
  9 39  1  0
  9 40  1  0
 16 41  1  0
 20 42  1  0
 21 43  1  0
 25 44  1  0
 25 45  1  0
 27 46  1  0
 28 47  1  0
 29 48  1  0
 30 49  1  0
 31 50  1  0
 34 51  1  0
 35 52  1  0
M  CHG  3   1  -1  10  -1  15  -1
M  END
>  <UniqueID>  (22) 
22

>  <SMILES>  (22) 
[NH-]S(=O)(=O)c1ccc(C[N-]C(=O)N=c2[n-]cc(Oc3ccnc(OCc4ccccc4)n3)s2)cc1

>  <Energy>  (22) 
87.91496144864561

>  <Genealogy>  (22) 
[NH-]S(=O)(=O)c1ccc(C[N-]C(=O)N=c2[n-]cc(Oc3ccnc(OCc4ccccc4)n3)s2)cc1 (protonated)
[NH-]S(=O)(=O)c1ccc(C[N-]C(=O)N=c2[n-]cc(Oc3ccnc(OCc4ccccc4)n3)s2)cc1 (3D coordinates assigned)
[NH-]S(=O)(=O)c1ccc(C[N-]C(=O)N=c2[n-]cc(Oc3ccnc(OCc4ccccc4)n3)s2)cc1 (optimized conformer: 87.91496144864561 kcal/mol)

>  <smiles>  (22) 
NS(=O)(=O)c1ccc(CNC(=O)N=c2[nH]cc(Oc3ccnc(OCc4ccccc4)n3)s2)cc1

>  <score_type>  (22) 
oracle

>  <origin>  (22) 
adg

>  <m_score__min__energy>  (22) 
-13.34

>  <m_primary>  (22) 
energy

$$$$
22:0
     RDKit          3D

 51 54  0  0  0  0  0  0  0  0999 V2000
   57.9960   27.0670   42.0350 O   0  0  0  0  0  0  0  0  0  0  0  0
   58.1120   27.4190   43.2420 C   0  0  0  0  0  0  0  0  0  0  0  0
   58.4960   26.4540   44.2300 N   0  0  0  0  0  0  0  0  0  0  0  0
   58.7820   26.7800   45.5960 C   0  0  0  0  0  0  0  0  0  0  0  0
   60.1240   26.9360   45.9680 C   0  0  0  0  0  0  0  0  0  0  0  0
   60.4610   27.3260   47.2640 C   0  0  0  0  0  0  0  0  0  0  0  0
   59.4590   27.5550   48.2070 C   0  0  0  0  0  0  0  0  0  0  0  0
   58.1180   27.3720   47.8620 C   0  0  0  0  0  0  0  0  0  0  0  0
   57.7590   26.9620   46.5640 C   0  0  0  0  0  0  0  0  0  0  0  0
   56.3330   26.6750   46.2800 C   0  0  0  0  0  0  0  0  0  0  0  0
   55.6260   27.4900   45.6320 O   0  0  0  0  0  0  0  0  0  0  0  0
   55.7680   25.4720   46.6880 O   0  0  0  0  0  0  0  0  0  0  0  0
   57.8350   28.8200   43.6360 C   0  0  0  0  0  0  0  0  0  0  0  0
   58.8350   29.6010   44.2420 C   0  0  0  0  0  0  0  0  0  0  0  0
   58.5730   30.9210   44.6200 C   0  0  0  0  0  0  0  0  0  0  0  0
   57.3090   31.4860   44.3930 C   0  0  0  0  0  0  0  0  0  0  0  0
   57.0130   32.8940   44.8410 C   0  0  0  0  0  0  0  0  0  0  0  0
   58.3000   33.6430   45.2100 C   0  0  0  0  0  0  0  0  0  0  0  0
   58.2490   34.1220   46.6110 N   0  0  0  0  0  0  0  0  0  0  0  0
   57.7760   33.0730   47.5420 C   0  0  0  0  0  0  0  0  0  0  0  0
   58.7380   32.0240   47.6680 O   0  0  0  0  0  0  0  0  0  0  0  0
   60.1090   32.2860   47.6350 C   0  0  0  0  0  0  0  0  0  0  0  0
   61.0280   31.2660   47.8970 C   0  0  0  0  0  0  0  0  0  0  0  0
   62.4000   31.5320   47.8550 C   0  0  0  0  0  0  0  0  0  0  0  0
   62.8590   32.8190   47.5500 C   0  0  0  0  0  0  0  0  0  0  0  0
   64.2290   33.0690   47.5180 O   0  0  0  0  0  0  0  0  0  0  0  0
   61.9380   33.8420   47.2830 C   0  0  0  0  0  0  0  0  0  0  0  0
   60.5620   33.5730   47.3100 C   0  0  0  0  0  0  0  0  0  0  0  0
   59.5490   34.6640   47.0660 C   0  0  0  0  0  0  0  0  0  0  0  0
   56.3050   30.7080   43.7990 C   0  0  0  0  0  0  0  0  0  0  0  0
   56.5660   29.3880   43.4200 C   0  0  0  0  0  0  0  0  0  0  0  0
   60.9190   26.7491   45.2311 H   0  0  0  0  0  0  0  0  0  0  0  0
   61.5175   27.4531   47.5426 H   0  0  0  0  0  0  0  0  0  0  0  0
   59.7253   27.8801   49.2236 H   0  0  0  0  0  0  0  0  0  0  0  0
   57.3339   27.5502   48.6126 H   0  0  0  0  0  0  0  0  0  0  0  0
   59.8312   29.1699   44.4200 H   0  0  0  0  0  0  0  0  0  0  0  0
   59.3621   31.5200   45.0980 H   0  0  0  0  0  0  0  0  0  0  0  0
   56.5072   33.4309   44.0250 H   0  0  0  0  0  0  0  0  0  0  0  0
   56.3704   32.8471   45.7326 H   0  0  0  0  0  0  0  0  0  0  0  0
   59.1579   32.9647   45.0922 H   0  0  0  0  0  0  0  0  0  0  0  0
   58.4039   34.5127   44.5445 H   0  0  0  0  0  0  0  0  0  0  0  0
   57.6029   33.5222   48.5311 H   0  0  0  0  0  0  0  0  0  0  0  0
   56.8444   32.6460   47.1424 H   0  0  0  0  0  0  0  0  0  0  0  0
   60.6716   30.2533   48.1364 H   0  0  0  0  0  0  0  0  0  0  0  0
   63.1210   30.7275   48.0622 H   0  0  0  0  0  0  0  0  0  0  0  0
   64.8620   32.4830   46.9860 H   0  0  0  0  0  0  0  0  0  0  0  0
   62.2952   34.8565   47.0522 H   0  0  0  0  0  0  0  0  0  0  0  0
   59.3937   35.2203   48.0022 H   0  0  0  0  0  0  0  0  0  0  0  0
   59.9398   35.3195   46.2738 H   0  0  0  0  0  0  0  0  0  0  0  0
   55.3069   31.1386   43.6304 H   0  0  0  0  0  0  0  0  0  0  0  0
   55.7729   28.7886   42.9491 H   0  0  0  0  0  0  0  0  0  0  0  0
  1  2  2  0
  2  3  1  0
  3  4  1  0
  4  5  2  0
  5  6  1  0
  6  7  2  0
  7  8  1  0
  8  9  2  0
  9 10  1  0
 10 11  2  0
 10 12  1  0
  2 13  1  0
 13 14  2  0
 14 15  1  0
 15 16  2  0
 16 17  1  0
 17 18  1  0
 18 19  1  0
 19 20  1  0
 20 21  1  0
 21 22  1  0
 22 23  2  0
 23 24  1  0
 24 25  2  0
 25 26  1  0
 25 27  1  0
 27 28  2  0
 28 29  1  0
 16 30  1  0
 30 31  2  0
  9  4  1  0
 31 13  1  0
 29 19  1  0
 28 22  1  0
  5 32  1  0
  6 33  1  0
  7 34  1  0
  8 35  1  0
 14 36  1  0
 15 37  1  0
 17 38  1  0
 17 39  1  0
 18 40  1  0
 18 41  1  0
 20 42  1  0
 20 43  1  0
 23 44  1  0
 24 45  1  0
 26 46  1  0
 27 47  1  0
 29 48  1  0
 29 49  1  0
 30 50  1  0
 31 51  1  0
M  CHG  2   3  -1  12  -1
M  END
>  <UniqueID>  (23) 
23

>  <SMILES>  (23) 
O=C([N-]c1ccccc1C(=O)[O-])c1ccc(CCN2COc3ccc(O)cc3C2)cc1

>  <Energy>  (23) 
68.7985283174484

>  <Genealogy>  (23) 
O=C([N-]c1ccccc1C(=O)[O-])c1ccc(CCN2COc3ccc(O)cc3C2)cc1 (protonated)
O=C([N-]c1ccccc1C(=O)[O-])c1ccc(CCN2COc3ccc(O)cc3C2)cc1 (3D coordinates assigned)
O=C([N-]c1ccccc1C(=O)[O-])c1ccc(CCN2COc3ccc(O)cc3C2)cc1 (nonaromatic ring conformer: 68.7985283174484 kcal/mol)

>  <smiles>  (23) 
O=C(Nc1ccccc1C(=O)O)c1ccc(CCN2COc3ccc(O)cc3C2)cc1

>  <score_type>  (23) 
oracle

>  <origin>  (23) 
adg

>  <m_score__min__energy>  (23) 
-13.69

>  <m_primary>  (23) 
energy

$$$$
23:0
     RDKit          3D

 45 47  0  0  0  0  0  0  0  0999 V2000
   55.6610   29.7200   43.4230 C   0  0  0  0  0  0  0  0  0  0  0  0
   57.0050   29.0020   43.4860 C   0  0  0  0  0  0  0  0  0  0  0  0
   57.9220   29.6990   44.4010 N   0  0  0  0  0  0  0  0  0  0  0  0
   59.0630   28.9930   44.9320 C   0  0  0  0  0  0  0  0  0  0  0  0
   59.7700   28.2790   44.1700 O   0  0  0  0  0  0  0  0  0  0  0  0
   59.4180   29.0790   46.3610 C   0  0  0  0  0  0  0  0  0  0  0  0
   59.2930   30.1970   47.1610 C   0  0  0  0  0  0  0  0  0  0  0  0
   59.7240   29.7560   48.3920 C   0  0  0  0  0  0  0  0  0  0  0  0
   59.7490   30.5530   49.6580 C   0  0  0  0  0  0  0  0  0  0  0  0
   60.6110   31.6800   49.5140 O   0  0  0  0  0  0  0  0  0  0  0  0
   60.4600   32.7020   48.5600 C   0  0  0  0  0  0  0  0  0  0  0  0
   59.3750   33.6020   48.5870 C   0  0  0  0  0  0  0  0  0  0  0  0
   59.2580   34.5960   47.6100 C   0  0  0  0  0  0  0  0  0  0  0  0
   60.2190   34.7060   46.6030 C   0  0  0  0  0  0  0  0  0  0  0  0
   61.3010   33.8230   46.5700 C   0  0  0  0  0  0  0  0  0  0  0  0
   61.4220   32.8220   47.5410 C   0  0  0  0  0  0  0  0  0  0  0  0
   62.8130   31.6860   47.4650 S   0  0  0  0  0  0  0  0  0  0  0  0
   63.9090   32.7760   48.4250 C   0  0  0  0  0  0  0  0  0  0  0  0
   60.0850   28.4980   48.2970 O   0  0  0  0  0  0  0  0  0  0  0  0
   59.9150   28.0560   47.0850 N   0  0  0  0  0  0  0  0  0  0  0  0
   57.8420   31.1330   44.5410 C   0  0  0  0  0  0  0  0  0  0  0  0
   58.4520   31.9880   43.6080 C   0  0  0  0  0  0  0  0  0  0  0  0
   58.3420   33.3700   43.7710 C   0  0  0  0  0  0  0  0  0  0  0  0
   57.6260   33.8890   44.8500 C   0  0  0  0  0  0  0  0  0  0  0  0
   57.0260   33.0130   45.7550 C   0  0  0  0  0  0  0  0  0  0  0  0
   57.1450   31.6700   45.5810 N   0  0  0  0  0  0  0  0  0  0  0  0
   55.3001   29.9128   44.4441 H   0  0  0  0  0  0  0  0  0  0  0  0
   55.7800   30.6747   42.8898 H   0  0  0  0  0  0  0  0  0  0  0  0
   54.9336   29.0903   42.8898 H   0  0  0  0  0  0  0  0  0  0  0  0
   56.8491   27.9738   43.8443 H   0  0  0  0  0  0  0  0  0  0  0  0
   57.4487   28.9911   42.4795 H   0  0  0  0  0  0  0  0  0  0  0  0
   58.9352   31.1991   46.8821 H   0  0  0  0  0  0  0  0  0  0  0  0
   58.7313   30.9011   49.8883 H   0  0  0  0  0  0  0  0  0  0  0  0
   60.1225   29.9177   50.4746 H   0  0  0  0  0  0  0  0  0  0  0  0
   58.6170   33.5220   49.3801 H   0  0  0  0  0  0  0  0  0  0  0  0
   58.4071   35.2926   47.6350 H   0  0  0  0  0  0  0  0  0  0  0  0
   60.1241   35.4882   45.8354 H   0  0  0  0  0  0  0  0  0  0  0  0
   62.0599   33.9145   45.7790 H   0  0  0  0  0  0  0  0  0  0  0  0
   63.7419   32.6098   49.4995 H   0  0  0  0  0  0  0  0  0  0  0  0
   64.9572   32.5517   48.1779 H   0  0  0  0  0  0  0  0  0  0  0  0
   63.6905   33.8254   48.1779 H   0  0  0  0  0  0  0  0  0  0  0  0
   59.0112   31.5723   42.7568 H   0  0  0  0  0  0  0  0  0  0  0  0
   58.8194   34.0492   43.0493 H   0  0  0  0  0  0  0  0  0  0  0  0
   57.5355   34.9768   44.9857 H   0  0  0  0  0  0  0  0  0  0  0  0
   56.4569   33.4089   46.6090 H   0  0  0  0  0  0  0  0  0  0  0  0
  1  2  1  0
  2  3  1  0
  3  4  1  0
  4  5  2  0
  4  6  1  0
  6  7  1  0
  7  8  2  0
  8  9  1  0
  9 10  1  0
 10 11  1  0
 11 12  2  0
 12 13  1  0
 13 14  2  0
 14 15  1  0
 15 16  2  0
 16 17  1  0
 17 18  1  0
  8 19  1  0
 19 20  1  0
  3 21  1  0
 21 22  2  0
 22 23  1  0
 23 24  2  0
 24 25  1  0
 25 26  2  0
 20  6  2  0
 26 21  1  0
 16 11  1  0
  1 27  1  0
  1 28  1  0
  1 29  1  0
  2 30  1  0
  2 31  1  0
  7 32  1  0
  9 33  1  0
  9 34  1  0
 12 35  1  0
 13 36  1  0
 14 37  1  0
 15 38  1  0
 18 39  1  0
 18 40  1  0
 18 41  1  0
 22 42  1  0
 23 43  1  0
 24 44  1  0
 25 45  1  0
M  END
>  <UniqueID>  (24) 
24

>  <SMILES>  (24) 
CCN(C(=O)c1cc(COc2ccccc2SC)on1)c1ccccn1

>  <Energy>  (24) 
75.69512960235654

>  <Genealogy>  (24) 
CCN(C(=O)c1cc(COc2ccccc2SC)on1)c1ccccn1 (3D coordinates assigned)
CCN(C(=O)c1cc(COc2ccccc2SC)on1)c1ccccn1 (optimized conformer: 75.69512960235654 kcal/mol)

>  <smiles>  (24) 
CCN(C(=O)c1cc(COc2ccccc2SC)on1)c1ccccn1

>  <score_type>  (24) 
oracle

>  <origin>  (24) 
adg

>  <m_score__min__energy>  (24) 
-8.1199999999999992

>  <m_primary>  (24) 
energy

$$$$
24:0
     RDKit          3D

 48 49  0  0  0  0  0  0  0  0999 V2000
   57.7470   31.8740   45.2640 C   0  0  0  0  0  0  0  0  0  0  0  0
   57.9350   32.8300   46.2830 O   0  0  0  0  0  0  0  0  0  0  0  0
   58.5610   33.9740   45.7460 C   0  0  0  0  0  0  0  0  0  0  0  0
   58.9420   34.9360   46.8760 C   0  0  0  0  0  0  0  0  0  0  0  0
   59.9630   34.3460   47.8600 C   0  0  0  0  0  0  0  0  0  0  0  0
   59.4170   33.1880   48.5690 N   0  0  0  0  0  0  0  0  0  0  0  0
   59.3750   33.0990   50.0010 C   0  0  0  0  0  0  0  0  0  0  0  0
   59.9050   34.0030   50.7030 O   0  0  0  0  0  0  0  0  0  0  0  0
   58.7590   31.9320   50.6720 C   0  0  0  0  0  0  0  0  0  0  0  0
   59.1050   30.6200   50.3470 C   0  0  0  0  0  0  0  0  0  0  0  0
   59.9940   30.2590   49.2810 N   0  0  0  0  0  0  0  0  0  0  0  0
   59.6560   29.9650   47.9170 C   0  0  0  0  0  0  0  0  0  0  0  0
   60.0830   30.7300   47.0120 O   0  0  0  0  0  0  0  0  0  0  0  0
   58.8490   28.7650   47.5260 C   0  0  0  0  0  0  0  0  0  0  0  0
   57.7700   29.1470   46.7510 F   0  0  0  0  0  0  0  0  0  0  0  0
   58.1740   29.5600   51.2600 S   0  0  0  0  0  0  0  0  0  0  0  0
   57.3380   30.7400   52.1150 C   0  0  0  0  0  0  0  0  0  0  0  0
   56.3140   30.4290   53.1320 C   0  0  0  0  0  0  0  0  0  0  0  0
   56.5620   30.6790   54.3410 O   0  0  0  0  0  0  0  0  0  0  0  0
   55.0410   29.8630   52.7900 N   0  0  0  0  0  0  0  0  0  0  0  0
   53.8420   30.5930   52.4910 C   0  0  0  0  0  0  0  0  0  0  0  0
   53.5880   31.1090   51.2070 C   0  0  0  0  0  0  0  0  0  0  0  0
   52.4110   31.8200   50.9550 C   0  0  0  0  0  0  0  0  0  0  0  0
   51.4720   32.0060   51.9750 C   0  0  0  0  0  0  0  0  0  0  0  0
   50.3050   32.7160   51.7210 O   0  0  0  0  0  0  0  0  0  0  0  0
   51.7080   31.4730   53.2470 C   0  0  0  0  0  0  0  0  0  0  0  0
   50.7970   31.6430   54.2370 F   0  0  0  0  0  0  0  0  0  0  0  0
   52.8860   30.7620   53.5000 C   0  0  0  0  0  0  0  0  0  0  0  0
   57.7930   32.0040   51.7070 C   0  0  0  0  0  0  0  0  0  0  0  0
   57.3620   33.2880   52.3630 C   0  0  0  0  0  0  0  0  0  0  0  0
   57.5535   30.8899   45.7157 H   0  0  0  0  0  0  0  0  0  0  0  0
   56.8892   32.1664   44.6406 H   0  0  0  0  0  0  0  0  0  0  0  0
   58.6517   31.8198   44.6406 H   0  0  0  0  0  0  0  0  0  0  0  0
   59.4681   33.6723   45.2019 H   0  0  0  0  0  0  0  0  0  0  0  0
   57.8667   34.4787   45.0581 H   0  0  0  0  0  0  0  0  0  0  0  0
   59.3722   35.8449   46.4301 H   0  0  0  0  0  0  0  0  0  0  0  0
   58.0253   35.1469   47.4463 H   0  0  0  0  0  0  0  0  0  0  0  0
   60.8582   34.0341   47.3021 H   0  0  0  0  0  0  0  0  0  0  0  0
   60.2136   35.1184   48.6020 H   0  0  0  0  0  0  0  0  0  0  0  0
   59.1740   32.3450   48.0030 H   0  0  0  0  0  0  0  0  0  0  0  0
   59.4821   28.0729   46.9514 H   0  0  0  0  0  0  0  0  0  0  0  0
   58.4797   28.2690   48.4357 H   0  0  0  0  0  0  0  0  0  0  0  0
   54.3178   30.9525   50.3989 H   0  0  0  0  0  0  0  0  0  0  0  0
   52.2230   32.2337   49.9533 H   0  0  0  0  0  0  0  0  0  0  0  0
   53.0622   30.3332   54.4975 H   0  0  0  0  0  0  0  0  0  0  0  0
   57.4008   33.1723   53.4562 H   0  0  0  0  0  0  0  0  0  0  0  0
   58.0365   34.1009   52.0561 H   0  0  0  0  0  0  0  0  0  0  0  0
   56.3336   33.5293   52.0561 H   0  0  0  0  0  0  0  0  0  0  0  0
  1  2  1  0
  2  3  1  0
  3  4  1  0
  4  5  1  0
  5  6  1  0
  6  7  1  0
  7  8  2  0
  7  9  1  0
  9 10  2  0
 10 11  1  0
 11 12  1  0
 12 13  2  0
 12 14  1  0
 14 15  1  0
 10 16  1  0
 16 17  1  0
 17 18  1  0
 18 19  2  0
 18 20  1  0
 20 21  1  0
 21 22  2  0
 22 23  1  0
 23 24  2  0
 24 25  1  0
 24 26  1  0
 26 27  1  0
 26 28  2  0
 17 29  2  0
 29 30  1  0
 29  9  1  0
 28 21  1  0
  1 31  1  0
  1 32  1  0
  1 33  1  0
  3 34  1  0
  3 35  1  0
  4 36  1  0
  4 37  1  0
  5 38  1  0
  5 39  1  0
  6 40  1  0
 14 41  1  0
 14 42  1  0
 22 43  1  0
 23 44  1  0
 28 45  1  0
 30 46  1  0
 30 47  1  0
 30 48  1  0
M  CHG  3  11  -1  20  -1  25  -1
M  END
>  <UniqueID>  (25) 
25

>  <SMILES>  (25) 
COCCCNC(=O)c1c([N-]C(=O)CF)sc(C(=O)[N-]c2ccc([O-])c(F)c2)c1C

>  <Energy>  (25) 
82.31957736569511

>  <Genealogy>  (25) 
COCCCNC(=O)c1c([N-]C(=O)CF)sc(C(=O)[N-]c2ccc([O-])c(F)c2)c1C (protonated)
COCCCNC(=O)c1c([N-]C(=O)CF)sc(C(=O)[N-]c2ccc([O-])c(F)c2)c1C (3D coordinates assigned)
COCCCNC(=O)c1c([N-]C(=O)CF)sc(C(=O)[N-]c2ccc([O-])c(F)c2)c1C (optimized conformer: 82.31957736569511 kcal/mol)

>  <smiles>  (25) 
COCCCNC(=O)c1c(NC(=O)CF)sc(C(=O)Nc2ccc(O)c(F)c2)c1C

>  <score_type>  (25) 
oracle

>  <origin>  (25) 
adg

>  <m_score__min__energy>  (25) 
-12.34

>  <m_primary>  (25) 
energy

$$$$
25:0
     RDKit          3D

 53 54  0  0  0  0  0  0  0  0999 V2000
   54.7830   27.0980   46.4330 H   0  0  0  0  0  0  0  0  0  0  0  0
   55.3590   26.2420   46.2720 N   0  0  0  0  0  0  0  0  0  0  0  0
   56.7840   26.3000   46.3120 C   0  0  0  0  0  0  0  0  0  0  0  0
   57.4460   25.2280   46.3630 O   0  0  0  0  0  0  0  0  0  0  0  0
   57.4810   27.6100   46.3160 C   0  0  0  0  0  0  0  0  0  0  0  0
   58.6570   27.8160   47.0770 C   0  0  0  0  0  0  0  0  0  0  0  0
   59.2540   26.6760   47.7320 N   0  0  0  0  0  0  0  0  0  0  0  0
   60.0950   26.7320   48.3430 H   0  0  0  0  0  0  0  0  0  0  0  0
   58.8870   25.7120   47.5720 H   0  0  0  0  0  0  0  0  0  0  0  0
   59.2430   29.0710   47.1480 N   0  0  0  0  0  0  0  0  0  0  0  0
   60.3860   29.2710   48.0800 C   0  0  0  0  0  0  0  0  0  0  0  0
   61.2313   29.6860   47.5115 H   0  0  0  0  0  0  0  0  0  0  0  0
   60.6227   28.2908   48.5196 H   0  0  0  0  0  0  0  0  0  0  0  0
   60.0620   30.2330   49.2520 C   0  0  0  0  0  0  0  0  0  0  0  0
   59.6093   31.1456   48.8370 H   0  0  0  0  0  0  0  0  0  0  0  0
   61.0092   30.4339   49.7739 H   0  0  0  0  0  0  0  0  0  0  0  0
   59.1270   29.6600   50.2550 N   0  0  0  0  0  0  0  0  0  0  0  0
   58.5360   28.9160   49.8190 H   0  0  0  0  0  0  0  0  0  0  0  0
   58.2460   30.6980   50.8240 C   0  0  0  0  0  0  0  0  0  0  0  0
   58.2859   30.6510   51.9223 H   0  0  0  0  0  0  0  0  0  0  0  0
   58.5824   31.6896   50.4869 H   0  0  0  0  0  0  0  0  0  0  0  0
   57.2129   30.5272   50.4869 H   0  0  0  0  0  0  0  0  0  0  0  0
   59.8780   29.0160   51.3500 C   0  0  0  0  0  0  0  0  0  0  0  0
   59.4804   29.3569   52.3173 H   0  0  0  0  0  0  0  0  0  0  0  0
   59.7720   27.9237   51.2744 H   0  0  0  0  0  0  0  0  0  0  0  0
   60.9413   29.2873   51.2744 H   0  0  0  0  0  0  0  0  0  0  0  0
   58.7230   30.1230   46.4000 C   0  0  0  0  0  0  0  0  0  0  0  0
   59.3390   31.4000   46.3400 C   0  0  0  0  0  0  0  0  0  0  0  0
   60.2744   31.5763   46.8913 H   0  0  0  0  0  0  0  0  0  0  0  0
   58.7710   32.4460   45.5850 C   0  0  0  0  0  0  0  0  0  0  0  0
   59.3130   33.6300   45.4920 N   0  0  0  0  0  0  0  0  0  0  0  0
   60.2220   34.2670   46.4020 C   0  0  0  0  0  0  0  0  0  0  0  0
   59.8290   35.2040   47.1480 O   0  0  0  0  0  0  0  0  0  0  0  0
   61.5680   33.8770   46.3860 O   0  0  0  0  0  0  0  0  0  0  0  0
   62.2840   33.2570   47.4660 C   0  0  0  0  0  0  0  0  0  0  0  0
   61.5850   33.5350   48.8110 C   0  0  0  0  0  0  0  0  0  0  0  0
   62.2598   33.2666   49.6373 H   0  0  0  0  0  0  0  0  0  0  0  0
   61.3301   34.6030   48.8779 H   0  0  0  0  0  0  0  0  0  0  0  0
   60.6662   32.9338   48.8779 H   0  0  0  0  0  0  0  0  0  0  0  0
   62.4200   31.7400   47.2260 C   0  0  0  0  0  0  0  0  0  0  0  0
   62.4668   31.2185   48.1934 H   0  0  0  0  0  0  0  0  0  0  0  0
   61.5506   31.3794   46.6567 H   0  0  0  0  0  0  0  0  0  0  0  0
   63.3397   31.5398   46.6567 H   0  0  0  0  0  0  0  0  0  0  0  0
   63.6870   33.8820   47.4990 C   0  0  0  0  0  0  0  0  0  0  0  0
   64.0015   34.0221   48.5437 H   0  0  0  0  0  0  0  0  0  0  0  0
   64.3975   33.2153   46.9885 H   0  0  0  0  0  0  0  0  0  0  0  0
   63.6666   34.8561   46.9885 H   0  0  0  0  0  0  0  0  0  0  0  0
   57.6420   32.2070   44.8770 N   0  0  0  0  0  0  0  0  0  0  0  0
   57.0270   31.0010   44.8780 C   0  0  0  0  0  0  0  0  0  0  0  0
   56.1079   30.8568   44.2910 H   0  0  0  0  0  0  0  0  0  0  0  0
   57.5540   29.9300   45.6240 C   0  0  0  0  0  0  0  0  0  0  0  0
   56.9340   28.6780   45.5990 C   0  0  0  0  0  0  0  0  0  0  0  0
   55.8700   28.5130   44.9360 O   0  0  0  0  0  0  0  0  0  0  0  0
  1  2  1  0
  2  3  1  0
  3  4  2  0
  3  5  1  0
  5  6  2  0
  6  7  1  0
  7  8  1  0
  7  9  1  0
  6 10  1  0
 10 11  1  0
 11 12  1  0
 11 13  1  0
 11 14  1  0
 14 15  1  0
 14 16  1  0
 14 17  1  0
 17 18  1  0
 17 19  1  0
 19 20  1  0
 19 21  1  0
 19 22  1  0
 17 23  1  0
 23 24  1  0
 23 25  1  0
 23 26  1  0
 10 27  1  0
 27 28  2  0
 28 29  1  0
 28 30  1  0
 30 31  2  0
 31 32  1  0
 32 33  2  0
 32 34  1  0
 34 35  1  0
 35 36  1  0
 36 37  1  0
 36 38  1  0
 36 39  1  0
 35 40  1  0
 40 41  1  0
 40 42  1  0
 40 43  1  0
 35 44  1  0
 44 45  1  0
 44 46  1  0
 44 47  1  0
 30 48  1  0
 48 49  1  0
 49 50  1  0
 49 51  2  0
 51 52  1  0
 52 53  2  0
 52  5  1  0
 51 27  1  0
M  CHG  3   2  -1  17   1  48  -1
M  END
>  <UniqueID>  (26) 
26

>  <SMILES>  (26) 
C[NH+](C)CCn1c(N)c(C([NH-])=O)c(=O)c2c[n-]/c(=N/C(=O)OC(C)(C)C)cc21

>  <Energy>  (26) 
82.79944533473036

>  <Genealogy>  (26) 
C[NH+](C)CCn1c(N)c(C([NH-])=O)c(=O)c2c[n-]c(=NC(=O)OC(C)(C)C)cc21 (protonated)
C[NH+](C)CCn1c(N)c(C([NH-])=O)c(=O)c2c[n-]/c(=N/C(=O)OC(C)(C)C)cc21 (cis-trans isomerization)
C[NH+](C)CCn1c(N)c(C([NH-])=O)c(=O)c2c[n-]/c(=N/C(=O)OC(C)(C)C)cc21 (3D coordinates assigned)
C[NH+](C)CCn1c(N)c(C([NH-])=O)c(=O)c2c[n-]/c(=N/C(=O)OC(C)(C)C)cc21 (optimized conformer: 82.79944533473036 kcal/mol)

>  <smiles>  (26) 
CN(C)CCn1c(N)c(C(N)=O)c(=O)c2c[nH]c(=NC(=O)OC(C)(C)C)cc21

>  <score_type>  (26) 
oracle

>  <origin>  (26) 
adg

>  <m_score__min__energy>  (26) 
-8.9700000000000006

>  <m_primary>  (26) 
energy

$$$$
26:0
     RDKit          3D

 43 45  0  0  0  0  0  0  0  0999 V2000
   59.2710   32.6980   49.8740 C   0  0  0  0  0  0  0  0  0  0  0  0
   59.2050   33.3600   48.5350 C   0  0  0  0  0  0  0  0  0  0  0  0
   60.0830   34.4020   48.2160 C   0  0  0  0  0  0  0  0  0  0  0  0
   59.9960   34.9800   46.9500 C   0  0  0  0  0  0  0  0  0  0  0  0
   59.0770   34.5260   46.0590 N   0  0  0  0  0  0  0  0  0  0  0  0
   58.2330   33.5120   46.3830 C   0  0  0  0  0  0  0  0  0  0  0  0
   57.0150   32.9500   45.1980 S   0  0  0  0  0  0  0  0  0  0  0  0
   58.1690   31.8450   44.3100 C   0  0  0  0  0  0  0  0  0  0  0  0
   58.0620   30.4180   44.8020 C   0  0  0  0  0  0  0  0  0  0  0  0
   59.0110   29.9620   45.7350 C   0  0  0  0  0  0  0  0  0  0  0  0
   58.9110   28.6870   46.2900 C   0  0  0  0  0  0  0  0  0  0  0  0
   57.8620   27.8380   45.9330 C   0  0  0  0  0  0  0  0  0  0  0  0
   57.8030   26.5360   46.5310 N   0  0  0  0  0  0  0  0  0  0  0  0
   56.4520   25.4510   46.4360 S   0  0  0  0  0  0  0  0  0  0  0  0
   56.2310   24.8230   47.7820 O   0  0  0  0  0  0  0  0  0  0  0  0
   55.2260   26.2290   46.0490 O   0  0  0  0  0  0  0  0  0  0  0  0
   56.7770   24.1810   45.2600 C   0  0  0  0  0  0  0  0  0  0  0  0
   57.8580   23.3080   45.4520 C   0  0  0  0  0  0  0  0  0  0  0  0
   58.1260   22.3060   44.5140 C   0  0  0  0  0  0  0  0  0  0  0  0
   57.3130   22.1680   43.3860 C   0  0  0  0  0  0  0  0  0  0  0  0
   56.2300   23.0310   43.1950 C   0  0  0  0  0  0  0  0  0  0  0  0
   55.9610   24.0360   44.1300 C   0  0  0  0  0  0  0  0  0  0  0  0
   56.9060   28.2810   45.0050 C   0  0  0  0  0  0  0  0  0  0  0  0
   56.9990   29.5580   44.4230 C   0  0  0  0  0  0  0  0  0  0  0  0
   55.9940   29.9660   43.4770 N   0  0  0  0  0  0  0  0  0  0  0  0
   54.7910   29.7120   43.6960 O   0  0  0  0  0  0  0  0  0  0  0  0
   56.3510   30.4540   42.2420 O   0  0  0  0  0  0  0  0  0  0  0  0
   58.3040   32.9340   47.6110 N   0  0  0  0  0  0  0  0  0  0  0  0
   59.1950   33.4598   50.6638 H   0  0  0  0  0  0  0  0  0  0  0  0
   58.4395   31.9845   49.9716 H   0  0  0  0  0  0  0  0  0  0  0  0
   60.2270   32.1627   49.9716 H   0  0  0  0  0  0  0  0  0  0  0  0
   60.8245   34.7568   48.9469 H   0  0  0  0  0  0  0  0  0  0  0  0
   60.6712   35.8031   46.6732 H   0  0  0  0  0  0  0  0  0  0  0  0
   57.9332   31.8711   43.2359 H   0  0  0  0  0  0  0  0  0  0  0  0
   59.1945   32.1973   44.4952 H   0  0  0  0  0  0  0  0  0  0  0  0
   59.8421   30.6194   46.0302 H   0  0  0  0  0  0  0  0  0  0  0  0
   59.6650   28.3472   47.0153 H   0  0  0  0  0  0  0  0  0  0  0  0
   58.4961   23.4117   46.3420 H   0  0  0  0  0  0  0  0  0  0  0  0
   58.9775   21.6260   44.6643 H   0  0  0  0  0  0  0  0  0  0  0  0
   57.5252   21.3802   42.6482 H   0  0  0  0  0  0  0  0  0  0  0  0
   55.5886   22.9196   42.3083 H   0  0  0  0  0  0  0  0  0  0  0  0
   55.1078   24.7134   43.9781 H   0  0  0  0  0  0  0  0  0  0  0  0
   56.0717   27.6193   44.7290 H   0  0  0  0  0  0  0  0  0  0  0  0
  1  2  1  0
  2  3  2  0
  3  4  1  0
  4  5  2  0
  5  6  1  0
  6  7  1  0
  7  8  1  0
  8  9  1  0
  9 10  2  0
 10 11  1  0
 11 12  2  0
 12 13  1  0
 13 14  1  0
 14 15  2  0
 14 16  2  0
 14 17  1  0
 17 18  2  0
 18 19  1  0
 19 20  2  0
 20 21  1  0
 21 22  2  0
 12 23  1  0
 23 24  2  0
 24 25  1  0
 25 26  2  0
 25 27  1  0
  6 28  2  0
 28  2  1  0
 24  9  1  0
 22 17  1  0
  1 29  1  0
  1 30  1  0
  1 31  1  0
  3 32  1  0
  4 33  1  0
  8 34  1  0
  8 35  1  0
 10 36  1  0
 11 37  1  0
 18 38  1  0
 19 39  1  0
 20 40  1  0
 21 41  1  0
 22 42  1  0
 23 43  1  0
M  CHG  3  13  -1  25   1  27  -1
M  END
>  <UniqueID>  (27) 
27

>  <SMILES>  (27) 
Cc1ccnc(SCc2ccc([N-]S(=O)(=O)c3ccccc3)cc2[N+](=O)[O-])n1

>  <Energy>  (27) 
49.71453439737102

>  <Genealogy>  (27) 
Cc1ccnc(SCc2ccc([N-]S(=O)(=O)c3ccccc3)cc2[N+](=O)[O-])n1 (protonated)
Cc1ccnc(SCc2ccc([N-]S(=O)(=O)c3ccccc3)cc2[N+](=O)[O-])n1 (3D coordinates assigned)
Cc1ccnc(SCc2ccc([N-]S(=O)(=O)c3ccccc3)cc2[N+](=O)[O-])n1 (optimized conformer: 49.71453439737102 kcal/mol)

>  <smiles>  (27) 
Cc1ccnc(SCc2ccc(NS(=O)(=O)c3ccccc3)cc2[N+](=O)[O-])n1

>  <score_type>  (27) 
oracle

>  <origin>  (27) 
adg

>  <m_score__min__energy>  (27) 
-11.27

>  <m_primary>  (27) 
energy

$$$$
27:0
     RDKit          3D

 52 55  0  0  0  0  0  0  0  0999 V2000
   58.9321   35.5096   46.5120 H   0  0  0  0  0  0  0  0  0  0  0  0
   58.5770   34.5060   46.2350 C   0  0  0  0  0  0  0  0  0  0  0  0
   57.4650   34.3680   45.4740 N   0  0  0  0  0  0  0  0  0  0  0  0
   57.0190   33.1490   45.0800 C   0  0  0  0  0  0  0  0  0  0  0  0
   56.1139   33.0777   44.4590 H   0  0  0  0  0  0  0  0  0  0  0  0
   57.6970   31.9750   45.4540 C   0  0  0  0  0  0  0  0  0  0  0  0
   57.2550   30.5050   44.5570 S   0  0  0  0  0  0  0  0  0  0  0  0
   58.4480   29.9340   43.8420 O   0  0  0  0  0  0  0  0  0  0  0  0
   56.2320   30.8480   43.5100 O   0  0  0  0  0  0  0  0  0  0  0  0
   56.5790   29.3190   45.6180 N   0  0  0  0  0  0  0  0  0  0  0  0
   57.2590   28.0870   45.8550 C   0  0  0  0  0  0  0  0  0  0  0  0
   58.6560   28.0730   45.9230 C   0  0  0  0  0  0  0  0  0  0  0  0
   59.2205   29.0107   45.8132 H   0  0  0  0  0  0  0  0  0  0  0  0
   59.3350   26.8710   46.1300 C   0  0  0  0  0  0  0  0  0  0  0  0
   60.4339   26.8626   46.1774 H   0  0  0  0  0  0  0  0  0  0  0  0
   58.6220   25.6790   46.2770 C   0  0  0  0  0  0  0  0  0  0  0  0
   59.1630   24.7332   46.4281 H   0  0  0  0  0  0  0  0  0  0  0  0
   57.2180   25.6810   46.2330 C   0  0  0  0  0  0  0  0  0  0  0  0
   56.4730   24.4120   46.3700 C   0  0  0  0  0  0  0  0  0  0  0  0
   55.6990   24.2620   47.3550 O   0  0  0  0  0  0  0  0  0  0  0  0
   56.6170   23.3470   45.4140 N   0  0  0  0  0  0  0  0  0  0  0  0
   57.7560   23.2020   44.5210 C   0  0  0  0  0  0  0  0  0  0  0  0
   57.6772   23.9077   43.6809 H   0  0  0  0  0  0  0  0  0  0  0  0
   58.7049   23.4168   45.0343 H   0  0  0  0  0  0  0  0  0  0  0  0
   57.7020   21.7670   44.0160 C   0  0  0  0  0  0  0  0  0  0  0  0
   57.9149   21.7317   42.9374 H   0  0  0  0  0  0  0  0  0  0  0  0
   58.4506   21.1329   44.5135 H   0  0  0  0  0  0  0  0  0  0  0  0
   56.2810   21.2850   44.2940 C   0  0  0  0  0  0  0  0  0  0  0  0
   55.6577   21.3886   43.3936 H   0  0  0  0  0  0  0  0  0  0  0  0
   56.2609   20.2230   44.5797 H   0  0  0  0  0  0  0  0  0  0  0  0
   55.7550   22.1770   45.4090 C   0  0  0  0  0  0  0  0  0  0  0  0
   54.7135   22.4684   45.2084 H   0  0  0  0  0  0  0  0  0  0  0  0
   55.7636   21.6614   46.3806 H   0  0  0  0  0  0  0  0  0  0  0  0
   56.5370   26.8940   46.0160 C   0  0  0  0  0  0  0  0  0  0  0  0
   55.1450   26.9200   45.9790 O   0  0  0  0  0  0  0  0  0  0  0  0
   58.8080   32.0940   46.3480 C   0  0  0  0  0  0  0  0  0  0  0  0
   59.4270   31.0990   46.9230 N   0  0  0  0  0  0  0  0  0  0  0  0
   60.8040   30.7110   46.8570 C   0  0  0  0  0  0  0  0  0  0  0  0
   61.1300   29.6960   46.1880 O   0  0  0  0  0  0  0  0  0  0  0  0
   61.8190   31.4230   47.6680 C   0  0  0  0  0  0  0  0  0  0  0  0
   62.6430   32.4040   47.0850 C   0  0  0  0  0  0  0  0  0  0  0  0
   62.5280   32.6515   46.0194 H   0  0  0  0  0  0  0  0  0  0  0  0
   63.6070   33.0660   47.8520 C   0  0  0  0  0  0  0  0  0  0  0  0
   64.2451   33.8330   47.3889 H   0  0  0  0  0  0  0  0  0  0  0  0
   63.7610   32.7550   49.2050 C   0  0  0  0  0  0  0  0  0  0  0  0
   64.6970   33.3980   49.9460 F   0  0  0  0  0  0  0  0  0  0  0  0
   62.9510   31.7810   49.7940 C   0  0  0  0  0  0  0  0  0  0  0  0
   63.0728   31.5369   50.8596 H   0  0  0  0  0  0  0  0  0  0  0  0
   61.9860   31.1160   49.0320 C   0  0  0  0  0  0  0  0  0  0  0  0
   61.3532   30.3481   49.5009 H   0  0  0  0  0  0  0  0  0  0  0  0
   59.2710   33.3790   46.6670 C   0  0  0  0  0  0  0  0  0  0  0  0
   60.1884   33.4971   47.2624 H   0  0  0  0  0  0  0  0  0  0  0  0
  1  2  1  0
  2  3  1  0
  3  4  1  0
  4  5  1  0
  4  6  2  0
  6  7  1  0
  7  8  2  0
  7  9  2  0
  7 10  1  0
 10 11  1  0
 11 12  2  0
 12 13  1  0
 12 14  1  0
 14 15  1  0
 14 16  2  0
 16 17  1  0
 16 18  1  0
 18 19  1  0
 19 20  2  0
 19 21  1  0
 21 22  1  0
 22 23  1  0
 22 24  1  0
 22 25  1  0
 25 26  1  0
 25 27  1  0
 25 28  1  0
 28 29  1  0
 28 30  1  0
 28 31  1  0
 31 32  1  0
 31 33  1  0
 18 34  2  0
 34 35  1  0
  6 36  1  0
 36 37  2  0
 37 38  1  0
 38 39  2  0
 38 40  1  0
 40 41  2  0
 41 42  1  0
 41 43  1  0
 43 44  1  0
 43 45  2  0
 45 46  1  0
 45 47  1  0
 47 48  1  0
 47 49  2  0
 49 50  1  0
 36 51  1  0
 51 52  1  0
 51  2  2  0
 34 11  1  0
 49 40  1  0
 31 21  1  0
M  CHG  3   3  -1  10  -1  35  -1
M  END
>  <UniqueID>  (28) 
28

>  <SMILES>  (28) 
O=C(/N=c1/cc[n-]cc1S(=O)(=O)[N-]c1cccc(C(=O)N2CCCC2)c1[O-])c1ccc(F)cc1

>  <Energy>  (28) 
92.08811339649901

>  <Genealogy>  (28) 
O=C(N=c1cc[n-]cc1S(=O)(=O)[N-]c1cccc(C(=O)N2CCCC2)c1[O-])c1ccc(F)cc1 (protonated)
O=C(/N=c1/cc[n-]cc1S(=O)(=O)[N-]c1cccc(C(=O)N2CCCC2)c1[O-])c1ccc(F)cc1 (cis-trans isomerization)
O=C(/N=c1/cc[n-]cc1S(=O)(=O)[N-]c1cccc(C(=O)N2CCCC2)c1[O-])c1ccc(F)cc1 (3D coordinates assigned)
O=C(/N=c1/cc[n-]cc1S(=O)(=O)[N-]c1cccc(C(=O)N2CCCC2)c1[O-])c1ccc(F)cc1 (nonaromatic ring conformer: 92.08811339649901 kcal/mol)

>  <smiles>  (28) 
O=C(N=c1cc[nH]cc1S(=O)(=O)Nc1cccc(C(=O)N2CCCC2)c1O)c1ccc(F)cc1

>  <score_type>  (28) 
oracle

>  <origin>  (28) 
adg

>  <m_score__min__energy>  (28) 
-15.859999999999999

>  <m_primary>  (28) 
energy

$$$$
28:0
     RDKit          3D

 31 33  0  0  0  0  0  0  0  0999 V2000
   65.3630   33.0200   49.3570 N   0  0  0  0  0  0  0  0  0  0  0  0
   63.8770   33.7430   48.8520 S   0  0  0  0  0  0  0  0  0  0  0  0
   64.1160   34.5800   47.6270 O   0  0  0  0  0  0  0  0  0  0  0  0
   63.3560   34.6300   49.9480 O   0  0  0  0  0  0  0  0  0  0  0  0
   62.7010   32.4830   48.4930 C   0  0  0  0  0  0  0  0  0  0  0  0
   62.1820   32.3500   47.2000 C   0  0  0  0  0  0  0  0  0  0  0  0
   61.2380   31.3570   46.9170 C   0  0  0  0  0  0  0  0  0  0  0  0
   60.7960   30.4850   47.9280 C   0  0  0  0  0  0  0  0  0  0  0  0
   59.7940   29.4300   47.6300 C   0  0  0  0  0  0  0  0  0  0  0  0
   59.8970   28.1610   48.2270 C   0  0  0  0  0  0  0  0  0  0  0  0
   58.9580   27.1660   47.9480 C   0  0  0  0  0  0  0  0  0  0  0  0
   57.8980   27.4200   47.0680 C   0  0  0  0  0  0  0  0  0  0  0  0
   56.9540   26.4240   46.7840 C   0  0  0  0  0  0  0  0  0  0  0  0
   55.9050   26.7030   45.9050 C   0  0  0  0  0  0  0  0  0  0  0  0
   54.9630   25.7260   45.6160 O   0  0  0  0  0  0  0  0  0  0  0  0
   55.8060   27.9300   45.3300 N   0  0  0  0  0  0  0  0  0  0  0  0
   56.7020   28.9210   45.5790 C   0  0  0  0  0  0  0  0  0  0  0  0
   56.5550   30.0380   45.0140 O   0  0  0  0  0  0  0  0  0  0  0  0
   57.7790   28.6910   46.4580 C   0  0  0  0  0  0  0  0  0  0  0  0
   58.7300   29.6870   46.7460 C   0  0  0  0  0  0  0  0  0  0  0  0
   61.3160   30.6300   49.2270 C   0  0  0  0  0  0  0  0  0  0  0  0
   62.2590   31.6240   49.5060 C   0  0  0  0  0  0  0  0  0  0  0  0
   66.0240   33.0870   48.5500 H   0  0  0  0  0  0  0  0  0  0  0  0
   62.5179   33.0293   46.4027 H   0  0  0  0  0  0  0  0  0  0  0  0
   60.8388   31.2576   45.8968 H   0  0  0  0  0  0  0  0  0  0  0  0
   60.7248   27.9503   48.9201 H   0  0  0  0  0  0  0  0  0  0  0  0
   59.0511   26.1776   48.4216 H   0  0  0  0  0  0  0  0  0  0  0  0
   57.0384   25.4309   47.2494 H   0  0  0  0  0  0  0  0  0  0  0  0
   58.6408   30.6771   46.2751 H   0  0  0  0  0  0  0  0  0  0  0  0
   60.9785   29.9568   50.0288 H   0  0  0  0  0  0  0  0  0  0  0  0
   62.6554   31.7315   50.5264 H   0  0  0  0  0  0  0  0  0  0  0  0
  1  2  1  0
  2  3  2  0
  2  4  2  0
  2  5  1  0
  5  6  2  0
  6  7  1  0
  7  8  2  0
  8  9  1  0
  9 10  2  0
 10 11  1  0
 11 12  2  0
 12 13  1  0
 13 14  2  0
 14 15  1  0
 14 16  1  0
 16 17  1  0
 17 18  2  0
 17 19  1  0
 19 20  2  0
  8 21  1  0
 21 22  2  0
 22  5  1  0
 20  9  1  0
 19 12  1  0
  1 23  1  0
  6 24  1  0
  7 25  1  0
 10 26  1  0
 11 27  1  0
 13 28  1  0
 20 29  1  0
 21 30  1  0
 22 31  1  0
M  CHG  3   1  -1  15  -1  16  -1
M  END
>  <UniqueID>  (29) 
29

>  <SMILES>  (29) 
[NH-]S(=O)(=O)c1ccc(-c2ccc3cc([O-])[n-]c(=O)c3c2)cc1

>  <Energy>  (29) 
44.15871701933481

>  <Genealogy>  (29) 
[NH-]S(=O)(=O)c1ccc(-c2ccc3cc([O-])[n-]c(=O)c3c2)cc1 (protonated)
[NH-]S(=O)(=O)c1ccc(-c2ccc3cc([O-])[n-]c(=O)c3c2)cc1 (3D coordinates assigned)
[NH-]S(=O)(=O)c1ccc(-c2ccc3cc([O-])[n-]c(=O)c3c2)cc1 (optimized conformer: 44.15871701933481 kcal/mol)

>  <smiles>  (29) 
NS(=O)(=O)c1ccc(-c2ccc3cc(O)[nH]c(=O)c3c2)cc1

>  <score_type>  (29) 
oracle

>  <origin>  (29) 
adg

>  <m_score__min__energy>  (29) 
-12.66

>  <m_primary>  (29) 
energy

$$$$
29:0
     RDKit          3D

 52 55  0  0  0  0  0  0  0  0999 V2000
   60.0654   25.5747   45.6443 H   0  0  0  0  0  0  0  0  0  0  0  0
   58.9930   25.8120   45.7050 C   0  0  0  0  0  0  0  0  0  0  0  0
   58.5880   27.1040   45.8210 N   0  0  0  0  0  0  0  0  0  0  0  0
   57.2760   27.4590   45.8990 C   0  0  0  0  0  0  0  0  0  0  0  0
   56.9970   28.7300   45.9960 N   0  0  0  0  0  0  0  0  0  0  0  0
   56.3360   29.5670   45.0360 C   0  0  0  0  0  0  0  0  0  0  0  0
   55.1310   29.3270   44.7560 O   0  0  0  0  0  0  0  0  0  0  0  0
   57.0150   30.7390   44.4240 C   0  0  0  0  0  0  0  0  0  0  0  0
   57.5770   31.7260   45.2560 C   0  0  0  0  0  0  0  0  0  0  0  0
   57.5132   31.6172   46.3487 H   0  0  0  0  0  0  0  0  0  0  0  0
   58.2170   32.8460   44.7070 C   0  0  0  0  0  0  0  0  0  0  0  0
   58.9170   34.0730   45.7670 S   0  0  0  0  0  0  0  0  0  0  0  0
   59.6570   35.0850   44.9370 O   0  0  0  0  0  0  0  0  0  0  0  0
   57.8080   34.7860   46.4910 O   0  0  0  0  0  0  0  0  0  0  0  0
   60.0100   33.3640   46.9320 N   0  0  0  0  0  0  0  0  0  0  0  0
   60.8070   34.0370   47.0420 H   0  0  0  0  0  0  0  0  0  0  0  0
   59.3390   33.2090   48.2360 C   0  0  0  0  0  0  0  0  0  0  0  0
   58.8582   34.1585   48.5139 H   0  0  0  0  0  0  0  0  0  0  0  0
   58.5804   32.4159   48.1608 H   0  0  0  0  0  0  0  0  0  0  0  0
   60.3670   32.8250   49.3110 C   0  0  0  0  0  0  0  0  0  0  0  0
   60.8477   33.7376   49.6932 H   0  0  0  0  0  0  0  0  0  0  0  0
   59.8474   32.2977   50.1246 H   0  0  0  0  0  0  0  0  0  0  0  0
   61.3950   31.9360   48.7530 N   0  0  0  0  0  0  0  0  0  0  0  0
   62.6570   31.7740   49.4300 C   0  0  0  0  0  0  0  0  0  0  0  0
   62.7920   30.8460   50.4770 C   0  0  0  0  0  0  0  0  0  0  0  0
   61.9307   30.2309   50.7768 H   0  0  0  0  0  0  0  0  0  0  0  0
   64.0150   30.7000   51.1400 C   0  0  0  0  0  0  0  0  0  0  0  0
   64.1143   29.9675   51.9546 H   0  0  0  0  0  0  0  0  0  0  0  0
   65.1100   31.4830   50.7690 C   0  0  0  0  0  0  0  0  0  0  0  0
   66.0719   31.3651   51.2894 H   0  0  0  0  0  0  0  0  0  0  0  0
   64.9840   32.4160   49.7370 C   0  0  0  0  0  0  0  0  0  0  0  0
   65.8461   33.0351   49.4480 H   0  0  0  0  0  0  0  0  0  0  0  0
   63.7640   32.5640   49.0710 C   0  0  0  0  0  0  0  0  0  0  0  0
   63.6691   33.3026   48.2614 H   0  0  0  0  0  0  0  0  0  0  0  0
   61.0800   31.1610   47.5460 C   0  0  0  0  0  0  0  0  0  0  0  0
   61.9927   30.6591   47.1923 H   0  0  0  0  0  0  0  0  0  0  0  0
   60.3059   30.4208   47.7966 H   0  0  0  0  0  0  0  0  0  0  0  0
   60.5410   32.0770   46.4260 C   0  0  0  0  0  0  0  0  0  0  0  0
   61.3598   32.2886   45.7226 H   0  0  0  0  0  0  0  0  0  0  0  0
   59.7080   31.5467   45.9415 H   0  0  0  0  0  0  0  0  0  0  0  0
   58.2990   32.9830   43.3170 C   0  0  0  0  0  0  0  0  0  0  0  0
   58.7927   33.8638   42.8806 H   0  0  0  0  0  0  0  0  0  0  0  0
   57.7560   32.0050   42.4830 C   0  0  0  0  0  0  0  0  0  0  0  0
   57.8298   32.1155   41.3911 H   0  0  0  0  0  0  0  0  0  0  0  0
   57.1190   30.8860   43.0260 C   0  0  0  0  0  0  0  0  0  0  0  0
   56.6380   29.9410   42.1810 F   0  0  0  0  0  0  0  0  0  0  0  0
   56.2910   26.4360   45.8900 C   0  0  0  0  0  0  0  0  0  0  0  0
   54.9370   26.7040   46.0430 O   0  0  0  0  0  0  0  0  0  0  0  0
   56.6960   25.1040   45.7580 C   0  0  0  0  0  0  0  0  0  0  0  0
   55.9429   24.3027   45.7291 H   0  0  0  0  0  0  0  0  0  0  0  0
   58.0490   24.7880   45.6630 C   0  0  0  0  0  0  0  0  0  0  0  0
   58.3691   23.7411   45.5559 H   0  0  0  0  0  0  0  0  0  0  0  0
  1  2  1  0
  2  3  1  0
  3  4  1  0
  4  5  2  0
  5  6  1  0
  6  7  2  0
  6  8  1  0
  8  9  2  0
  9 10  1  0
  9 11  1  0
 11 12  1  0
 12 13  2  0
 12 14  2  0
 12 15  1  0
 15 16  1  0
 15 17  1  0
 17 18  1  0
 17 19  1  0
 17 20  1  0
 20 21  1  0
 20 22  1  0
 20 23  1  0
 23 24  1  0
 24 25  2  0
 25 26  1  0
 25 27  1  0
 27 28  1  0
 27 29  2  0
 29 30  1  0
 29 31  1  0
 31 32  1  0
 31 33  2  0
 33 34  1  0
 23 35  1  0
 35 36  1  0
 35 37  1  0
 35 38  1  0
 38 39  1  0
 38 40  1  0
 11 41  2  0
 41 42  1  0
 41 43  1  0
 43 44  1  0
 43 45  2  0
 45 46  1  0
  4 47  1  0
 47 48  1  0
 47 49  2  0
 49 50  1  0
 49 51  1  0
 51 52  1  0
 51  2  2  0
 45  8  1  0
 38 15  1  0
 33 24  1  0
M  CHG  3   3  -1  15   1  48  -1
M  END
>  <UniqueID>  (30) 
30

>  <SMILES>  (30) 
O=C(/N=c1/[n-]cccc1[O-])c1cc(S(=O)(=O)[NH+]2CCN(c3ccccc3)CC2)ccc1F

>  <Energy>  (30) 
79.78990229915999

>  <Genealogy>  (30) 
O=C(N=c1[n-]cccc1[O-])c1cc(S(=O)(=O)[NH+]2CCN(c3ccccc3)CC2)ccc1F (protonated)
O=C(/N=c1/[n-]cccc1[O-])c1cc(S(=O)(=O)[NH+]2CCN(c3ccccc3)CC2)ccc1F (cis-trans isomerization)
O=C(/N=c1/[n-]cccc1[O-])c1cc(S(=O)(=O)[NH+]2CCN(c3ccccc3)CC2)ccc1F (3D coordinates assigned)
O=C(/N=c1/[n-]cccc1[O-])c1cc(S(=O)(=O)[NH+]2CCN(c3ccccc3)CC2)ccc1F (nonaromatic ring conformer: 79.78990229915999 kcal/mol)

>  <smiles>  (30) 
O=C(N=c1[nH]cccc1O)c1cc(S(=O)(=O)N2CCN(c3ccccc3)CC2)ccc1F

>  <score_type>  (30) 
oracle

>  <origin>  (30) 
adg

>  <m_score__min__energy>  (30) 
-14.27

>  <m_primary>  (30) 
energy

$$$$
30:0
     RDKit          3D

 57 60  0  0  0  0  0  0  0  0999 V2000
   60.3470   29.3320   44.8590 O   0  0  0  0  0  0  0  0  0  0  0  0
   60.0640   29.4940   46.0760 C   0  0  0  0  0  0  0  0  0  0  0  0
   61.0800   29.8390   47.0210 N   0  0  0  0  0  0  0  0  0  0  0  0
   61.5470   31.1600   47.3310 C   0  0  0  0  0  0  0  0  0  0  0  0
   62.8940   31.5410   47.1630 C   0  0  0  0  0  0  0  0  0  0  0  0
   63.3050   32.8360   47.4930 C   0  0  0  0  0  0  0  0  0  0  0  0
   62.3850   33.7530   48.0100 C   0  0  0  0  0  0  0  0  0  0  0  0
   61.0540   33.3720   48.2090 C   0  0  0  0  0  0  0  0  0  0  0  0
   60.1660   34.2550   48.7260 F   0  0  0  0  0  0  0  0  0  0  0  0
   60.6400   32.0780   47.8760 C   0  0  0  0  0  0  0  0  0  0  0  0
   58.7080   29.3940   46.5210 N   0  0  0  0  0  0  0  0  0  0  0  0
   57.5650   29.6450   45.6930 C   0  0  0  0  0  0  0  0  0  0  0  0
   57.1290   30.8460   45.1570 C   0  0  0  0  0  0  0  0  0  0  0  0
   57.7850   32.1690   45.2080 C   0  0  0  0  0  0  0  0  0  0  0  0
   58.5030   32.6340   44.0940 C   0  0  0  0  0  0  0  0  0  0  0  0
   59.1260   33.8850   44.1290 C   0  0  0  0  0  0  0  0  0  0  0  0
   59.0550   34.6720   45.2820 C   0  0  0  0  0  0  0  0  0  0  0  0
   58.3630   34.2060   46.4030 C   0  0  0  0  0  0  0  0  0  0  0  0
   57.7360   32.9570   46.3720 C   0  0  0  0  0  0  0  0  0  0  0  0
   55.9960   30.6120   44.4660 N   0  0  0  0  0  0  0  0  0  0  0  0
   55.7410   29.3360   44.5550 O   0  0  0  0  0  0  0  0  0  0  0  0
   56.6470   28.7080   45.2680 C   0  0  0  0  0  0  0  0  0  0  0  0
   56.6400   27.2630   45.5800 C   0  0  0  0  0  0  0  0  0  0  0  0
   57.7180   26.6180   45.5030 O   0  0  0  0  0  0  0  0  0  0  0  0
   55.4600   26.5620   45.9980 N   0  0  0  0  0  0  0  0  0  0  0  0
   55.0480   25.2180   45.6010 C   0  0  0  0  0  0  0  0  0  0  0  0
   56.0670   24.1590   46.0520 C   0  0  0  0  0  0  0  0  0  0  0  0
   57.0080   23.7130   44.9220 C   0  0  0  0  0  0  0  0  0  0  0  0
   57.6500   22.4210   45.2530 N   0  0  0  0  0  0  0  0  0  0  0  0
   56.6980   21.4400   45.8240 C   0  0  0  0  0  0  0  0  0  0  0  0
   56.0360   20.5630   44.7400 C   0  0  0  0  0  0  0  0  0  0  0  0
   56.0640   21.2080   43.4850 O   0  0  0  0  0  0  0  0  0  0  0  0
   57.4000   21.3150   43.0230 C   0  0  0  0  0  0  0  0  0  0  0  0
   58.3720   21.8450   44.1030 C   0  0  0  0  0  0  0  0  0  0  0  0
   63.6238   30.8172   46.7711 H   0  0  0  0  0  0  0  0  0  0  0  0
   64.3536   33.1337   47.3457 H   0  0  0  0  0  0  0  0  0  0  0  0
   62.7080   34.7743   48.2603 H   0  0  0  0  0  0  0  0  0  0  0  0
   59.5947   31.7791   48.0433 H   0  0  0  0  0  0  0  0  0  0  0  0
   58.5754   32.0112   43.1902 H   0  0  0  0  0  0  0  0  0  0  0  0
   59.6731   34.2507   43.2475 H   0  0  0  0  0  0  0  0  0  0  0  0
   59.5434   35.6573   45.3069 H   0  0  0  0  0  0  0  0  0  0  0  0
   58.3115   34.8234   47.3119 H   0  0  0  0  0  0  0  0  0  0  0  0
   57.2025   32.5892   47.2609 H   0  0  0  0  0  0  0  0  0  0  0  0
   54.0732   24.9934   46.0585 H   0  0  0  0  0  0  0  0  0  0  0  0
   54.9823   25.1877   44.5034 H   0  0  0  0  0  0  0  0  0  0  0  0
   56.6732   24.5805   46.8674 H   0  0  0  0  0  0  0  0  0  0  0  0
   55.5004   23.2741   46.3774 H   0  0  0  0  0  0  0  0  0  0  0  0
   56.4290   23.6008   43.9935 H   0  0  0  0  0  0  0  0  0  0  0  0
   57.7918   24.4741   44.7943 H   0  0  0  0  0  0  0  0  0  0  0  0
   57.2405   20.7873   46.5237 H   0  0  0  0  0  0  0  0  0  0  0  0
   55.9014   22.0027   46.3328 H   0  0  0  0  0  0  0  0  0  0  0  0
   56.5790   19.6092   44.6671 H   0  0  0  0  0  0  0  0  0  0  0  0
   54.9874   20.3871   45.0218 H   0  0  0  0  0  0  0  0  0  0  0  0
   57.7410   20.3195   42.7026 H   0  0  0  0  0  0  0  0  0  0  0  0
   57.4045   22.0371   42.1932 H   0  0  0  0  0  0  0  0  0  0  0  0
   58.9995   21.0136   44.4565 H   0  0  0  0  0  0  0  0  0  0  0  0
   58.9856   22.6385   43.6516 H   0  0  0  0  0  0  0  0  0  0  0  0
  1  2  2  0
  2  3  1  0
  3  4  1  0
  4  5  2  0
  5  6  1  0
  6  7  2  0
  7  8  1  0
  8  9  1  0
  8 10  2  0
  2 11  1  0
 11 12  1  0
 12 13  1  0
 13 14  1  0
 14 15  2  0
 15 16  1  0
 16 17  2  0
 17 18  1  0
 18 19  2  0
 13 20  2  0
 20 21  1  0
 21 22  1  0
 22 23  1  0
 23 24  2  0
 23 25  1  0
 25 26  1  0
 26 27  1  0
 27 28  1  0
 28 29  1  0
 29 30  1  0
 30 31  1  0
 31 32  1  0
 32 33  1  0
 33 34  1  0
 10  4  1  0
 22 12  2  0
 34 29  1  0
 19 14  1  0
  5 35  1  0
  6 36  1  0
  7 37  1  0
 10 38  1  0
 15 39  1  0
 16 40  1  0
 17 41  1  0
 18 42  1  0
 19 43  1  0
 26 44  1  0
 26 45  1  0
 27 46  1  0
 27 47  1  0
 28 48  1  0
 28 49  1  0
 30 50  1  0
 30 51  1  0
 31 52  1  0
 31 53  1  0
 33 54  1  0
 33 55  1  0
 34 56  1  0
 34 57  1  0
M  CHG  3   3  -1  11  -1  25  -1
M  END
>  <UniqueID>  (31) 
31

>  <SMILES>  (31) 
O=C([N-]c1cccc(F)c1)[N-]c1c(-c2ccccc2)noc1C(=O)[N-]CCCN1CCOCC1

>  <Energy>  (31) 
112.14081068216454

>  <Genealogy>  (31) 
O=C([N-]c1cccc(F)c1)[N-]c1c(-c2ccccc2)noc1C(=O)[N-]CCCN1CCOCC1 (protonated)
O=C([N-]c1cccc(F)c1)[N-]c1c(-c2ccccc2)noc1C(=O)[N-]CCCN1CCOCC1 (3D coordinates assigned)
O=C([N-]c1cccc(F)c1)[N-]c1c(-c2ccccc2)noc1C(=O)[N-]CCCN1CCOCC1 (nonaromatic ring conformer: 112.14081068216454 kcal/mol)

>  <smiles>  (31) 
O=C(Nc1cccc(F)c1)Nc1c(-c2ccccc2)noc1C(=O)NCCCN1CCOCC1

>  <score_type>  (31) 
oracle

>  <origin>  (31) 
adg

>  <m_score__min__energy>  (31) 
-13.98

>  <m_primary>  (31) 
energy

$$$$
31:0
     RDKit          3D

 45 48  0  0  0  0  0  0  0  0999 V2000
   58.5750   23.5780   45.4940 C   0  0  0  0  0  0  0  0  0  0  0  0
   57.1640   23.7480   45.8520 N   0  0  0  0  0  0  0  0  0  0  0  0
   56.2520   24.3090   44.8910 C   0  0  0  0  0  0  0  0  0  0  0  0
   56.5900   24.4320   43.6830 O   0  0  0  0  0  0  0  0  0  0  0  0
   54.9060   24.8000   45.3420 C   0  0  2  0  0  0  0  0  0  0  0  0
   55.0790   26.0610   45.9920 O   0  0  0  0  0  0  0  0  0  0  0  0
   56.3170   26.6910   46.1410 C   0  0  0  0  0  0  0  0  0  0  0  0
   57.0490   26.4370   47.1370 O   0  0  0  0  0  0  0  0  0  0  0  0
   56.7590   27.5950   45.1230 N   0  0  0  0  0  0  0  0  0  0  0  0
   57.2070   28.9460   45.3130 C   0  0  0  0  0  0  0  0  0  0  0  0
   56.7880   29.9970   44.4790 C   0  0  0  0  0  0  0  0  0  0  0  0
   57.2660   31.2940   44.6850 C   0  0  0  0  0  0  0  0  0  0  0  0
   58.1810   31.5640   45.7180 C   0  0  0  0  0  0  0  0  0  0  0  0
   58.6880   32.9420   45.9380 C   0  0  0  0  0  0  0  0  0  0  0  0
   59.0890   33.3610   47.2210 C   0  0  0  0  0  0  0  0  0  0  0  0
   59.5660   34.6600   47.4260 C   0  0  0  0  0  0  0  0  0  0  0  0
   59.6500   35.5530   46.3560 C   0  0  0  0  0  0  0  0  0  0  0  0
   59.2560   35.1500   45.0780 C   0  0  0  0  0  0  0  0  0  0  0  0
   58.7780   33.8530   44.8680 C   0  0  0  0  0  0  0  0  0  0  0  0
   58.6140   30.5040   46.5340 C   0  0  0  0  0  0  0  0  0  0  0  0
   58.1360   29.2070   46.3260 C   0  0  0  0  0  0  0  0  0  0  0  0
   54.2790   23.7780   46.3060 C   0  0  0  0  0  0  0  0  0  0  0  0
   55.2640   23.2790   47.2700 N   0  0  0  0  0  0  0  0  0  0  0  0
   55.1020   22.0740   47.9990 C   0  0  0  0  0  0  0  0  0  0  0  0
   54.0000   21.5010   48.2050 O   0  0  0  0  0  0  0  0  0  0  0  0
   56.3920   21.6010   48.3970 C   0  0  0  0  0  0  0  0  0  0  0  0
   56.6300   20.5500   49.0470 O   0  0  0  0  0  0  0  0  0  0  0  0
   57.3890   22.4900   47.9240 N   0  0  0  0  0  0  0  0  0  0  0  0
   56.7040   23.6010   47.2410 C   0  0  1  0  0  0  0  0  0  0  0  0
   59.1795   23.5052   46.4101 H   0  0  0  0  0  0  0  0  0  0  0  0
   58.6948   22.6589   44.9016 H   0  0  0  0  0  0  0  0  0  0  0  0
   58.9097   24.4423   44.9016 H   0  0  0  0  0  0  0  0  0  0  0  0
   54.2333   24.9201   44.4800 H   0  0  0  0  0  0  0  0  0  0  0  0
   56.0807   29.7977   43.6605 H   0  0  0  0  0  0  0  0  0  0  0  0
   56.9233   32.1111   44.0331 H   0  0  0  0  0  0  0  0  0  0  0  0
   59.0268   32.6620   48.0681 H   0  0  0  0  0  0  0  0  0  0  0  0
   59.8756   34.9786   48.4323 H   0  0  0  0  0  0  0  0  0  0  0  0
   60.0264   36.5736   46.5194 H   0  0  0  0  0  0  0  0  0  0  0  0
   59.3219   35.8541   44.2355 H   0  0  0  0  0  0  0  0  0  0  0  0
   58.4698   33.5418   43.8590 H   0  0  0  0  0  0  0  0  0  0  0  0
   59.3346   30.6969   47.3424 H   0  0  0  0  0  0  0  0  0  0  0  0
   58.4931   28.3850   46.9639 H   0  0  0  0  0  0  0  0  0  0  0  0
   53.4553   24.2602   46.8528 H   0  0  0  0  0  0  0  0  0  0  0  0
   53.9095   22.9264   45.7159 H   0  0  0  0  0  0  0  0  0  0  0  0
   56.9203   24.5545   47.7451 H   0  0  0  0  0  0  0  0  0  0  0  0
  1  2  1  0
  2  3  1  0
  3  4  2  0
  3  5  1  0
  5  6  1  0
  6  7  1  0
  7  8  2  0
  7  9  1  0
  9 10  1  0
 10 11  2  0
 11 12  1  0
 12 13  2  0
 13 14  1  0
 14 15  2  0
 15 16  1  0
 16 17  2  0
 17 18  1  0
 18 19  2  0
 13 20  1  0
 20 21  2  0
  5 22  1  0
 22 23  1  0
 23 24  1  0
 24 25  2  0
 24 26  1  0
 26 27  2  0
 26 28  1  0
 28 29  1  0
 29  2  1  0
 21 10  1  0
 29 23  1  0
 19 14  1  0
  1 30  1  0
  1 31  1  0
  1 32  1  0
  5 33  1  6
 11 34  1  0
 12 35  1  0
 15 36  1  0
 16 37  1  0
 17 38  1  0
 18 39  1  0
 19 40  1  0
 20 41  1  0
 21 42  1  0
 22 43  1  0
 22 44  1  0
 29 45  1  1
M  CHG  2   9  -1  28  -1
M  END
>  <UniqueID>  (32) 
32

>  <SMILES>  (32) 
CN1C(=O)[C@H](OC(=O)[N-]c2ccc(-c3ccccc3)cc2)CN2C(=O)C(=O)[N-][C@@H]12

>  <Energy>  (32) 
78.92459099362118

>  <Genealogy>  (32) 
CN1C(=O)C(OC(=O)[N-]c2ccc(-c3ccccc3)cc2)CN2C(=O)C(=O)[N-]C12 (protonated)
CN1C(=O)[C@H](OC(=O)[N-]c2ccc(-c3ccccc3)cc2)CN2C(=O)C(=O)[N-][C@@H]12 (chirality)
CN1C(=O)[C@H](OC(=O)[N-]c2ccc(-c3ccccc3)cc2)CN2C(=O)C(=O)[N-][C@@H]12 (3D coordinates assigned)
CN1C(=O)[C@H](OC(=O)[N-]c2ccc(-c3ccccc3)cc2)CN2C(=O)C(=O)[N-][C@@H]12 (nonaromatic ring conformer: 78.92459099362118 kcal/mol)

>  <smiles>  (32) 
CN1C(=O)C(OC(=O)Nc2ccc(-c3ccccc3)cc2)CN2C(=O)C(=O)NC12

>  <score_type>  (32) 
oracle

>  <origin>  (32) 
adg

>  <m_score__min__energy>  (32) 
-11.859999999999999

>  <m_primary>  (32) 
energy

$$$$
32:0
     RDKit          3D

 54 58  0  0  0  0  0  0  0  0999 V2000
   56.6016   32.9874   47.4603 H   0  0  0  0  0  0  0  0  0  0  0  0
   57.4100   33.4550   46.8790 C   0  0  0  0  0  0  0  0  0  0  0  0
   58.6620   33.5480   47.4070 N   0  0  0  0  0  0  0  0  0  0  0  0
   59.6980   34.1190   46.7270 C   0  0  0  0  0  0  0  0  0  0  0  0
   60.8710   34.1600   47.2980 N   0  0  0  0  0  0  0  0  0  0  0  0
   61.8620   33.1210   47.2960 C   0  0  0  0  0  0  0  0  0  0  0  0
   62.9400   33.2990   46.6690 O   0  0  0  0  0  0  0  0  0  0  0  0
   61.6700   31.9010   48.0280 N   0  0  0  0  0  0  0  0  0  0  0  0
   60.6530   31.7320   49.0250 C   0  0  0  0  0  0  0  0  0  0  0  0
   60.4340   32.7480   49.9600 C   0  0  0  0  0  0  0  0  0  0  0  0
   61.0024   33.6872   49.8897 H   0  0  0  0  0  0  0  0  0  0  0  0
   59.4970   32.5780   50.9840 C   0  0  0  0  0  0  0  0  0  0  0  0
   59.3453   33.3740   51.7279 H   0  0  0  0  0  0  0  0  0  0  0  0
   58.7540   31.3990   51.0630 C   0  0  0  0  0  0  0  0  0  0  0  0
   58.0318   31.2573   51.8805 H   0  0  0  0  0  0  0  0  0  0  0  0
   58.9280   30.4000   50.1040 C   0  0  0  0  0  0  0  0  0  0  0  0
   58.3208   29.4841   50.1541 H   0  0  0  0  0  0  0  0  0  0  0  0
   59.8760   30.5550   49.0710 C   0  0  0  0  0  0  0  0  0  0  0  0
   60.0140   29.6100   48.0420 O   0  0  0  0  0  0  0  0  0  0  0  0
   59.1450   29.4560   46.9580 C   0  0  0  0  0  0  0  0  0  0  0  0
   58.4010   28.2850   46.7720 C   0  0  0  0  0  0  0  0  0  0  0  0
   58.4901   27.4686   47.5038 H   0  0  0  0  0  0  0  0  0  0  0  0
   57.5410   28.1300   45.6680 C   0  0  0  0  0  0  0  0  0  0  0  0
   56.7260   26.8850   45.6140 C   0  0  0  0  0  0  0  0  0  0  0  0
   55.5210   26.8890   45.9960 O   0  0  0  0  0  0  0  0  0  0  0  0
   57.3190   25.6730   45.1150 N   0  0  0  0  0  0  0  0  0  0  0  0
   56.7310   24.5820   44.6970 C   0  0  0  0  0  0  0  0  0  0  0  0
   57.0360   24.1300   43.4030 C   0  0  0  0  0  0  0  0  0  0  0  0
   57.7464   24.6921   42.7790 H   0  0  0  0  0  0  0  0  0  0  0  0
   56.4400   22.9690   42.9060 C   0  0  0  0  0  0  0  0  0  0  0  0
   56.6768   22.6226   41.8892 H   0  0  0  0  0  0  0  0  0  0  0  0
   55.5690   22.2670   43.6750 N   0  0  0  0  0  0  0  0  0  0  0  0
   55.2630   22.6580   44.9420 C   0  0  0  0  0  0  0  0  0  0  0  0
   54.5588   22.0638   45.5429 H   0  0  0  0  0  0  0  0  0  0  0  0
   55.8400   23.8130   45.4850 C   0  0  0  0  0  0  0  0  0  0  0  0
   55.5760   24.1020   46.7840 F   0  0  0  0  0  0  0  0  0  0  0  0
   57.4560   29.1840   44.7060 C   0  0  0  0  0  0  0  0  0  0  0  0
   56.6730   29.0940   43.5310 C   0  0  0  0  0  0  0  0  0  0  0  0
   56.1126   28.1711   43.3208 H   0  0  0  0  0  0  0  0  0  0  0  0
   56.6030   30.1650   42.6330 C   0  0  0  0  0  0  0  0  0  0  0  0
   55.9727   30.0844   41.7351 H   0  0  0  0  0  0  0  0  0  0  0  0
   57.3260   31.3330   42.8680 C   0  0  0  0  0  0  0  0  0  0  0  0
   57.2544   32.1752   42.1640 H   0  0  0  0  0  0  0  0  0  0  0  0
   58.1390   31.4340   43.9940 C   0  0  0  0  0  0  0  0  0  0  0  0
   58.7225   32.3503   44.1670 H   0  0  0  0  0  0  0  0  0  0  0  0
   58.2180   30.3710   44.9110 C   0  0  0  0  0  0  0  0  0  0  0  0
   59.0580   30.4850   46.0220 C   0  0  0  0  0  0  0  0  0  0  0  0
   59.6573   31.3971   46.1593 H   0  0  0  0  0  0  0  0  0  0  0  0
   59.4570   34.6710   45.4490 C   0  0  0  0  0  0  0  0  0  0  0  0
   60.2650   35.1796   44.9027 H   0  0  0  0  0  0  0  0  0  0  0  0
   58.1840   34.5650   44.8860 C   0  0  0  0  0  0  0  0  0  0  0  0
   57.9938   34.9641   43.8788 H   0  0  0  0  0  0  0  0  0  0  0  0
   57.1520   33.9530   45.6000 C   0  0  0  0  0  0  0  0  0  0  0  0
   56.1476   33.8641   45.1603 H   0  0  0  0  0  0  0  0  0  0  0  0
  1  2  1  0
  2  3  1  0
  3  4  1  0
  4  5  2  3
  5  6  1  0
  6  7  2  0
  6  8  1  0
  8  9  1  0
  9 10  2  0
 10 11  1  0
 10 12  1  0
 12 13  1  0
 12 14  2  0
 14 15  1  0
 14 16  1  0
 16 17  1  0
 16 18  2  0
 18 19  1  0
 19 20  1  0
 20 21  2  0
 21 22  1  0
 21 23  1  0
 23 24  1  0
 24 25  2  0
 24 26  1  0
 26 27  2  0
 27 28  1  0
 28 29  1  0
 28 30  2  0
 30 31  1  0
 30 32  1  0
 32 33  1  0
 33 34  1  0
 33 35  2  0
 35 36  1  0
 23 37  2  0
 37 38  1  0
 38 39  1  0
 38 40  2  0
 40 41  1  0
 40 42  1  0
 42 43  1  0
 42 44  2  0
 44 45  1  0
 44 46  1  0
 46 47  2  0
 47 48  1  0
  4 49  1  0
 49 50  1  0
 49 51  2  0
 51 52  1  0
 51 53  1  0
 53 54  1  0
 53  2  2  0
 18  9  1  0
 47 20  1  0
 35 27  1  0
 46 37  1  0
M  CHG  3   3  -1   8  -1  32  -1
M  END
>  <UniqueID>  (33) 
33

>  <SMILES>  (33) 
O=C(N=c1cccc[n-]1)[N-]c1ccccc1Oc1cc(C(=O)/N=c2/cc[n-]cc2F)c2ccccc2c1

>  <Energy>  (33) 
102.5220351690143

>  <Genealogy>  (33) 
O=C(N=c1cccc[n-]1)[N-]c1ccccc1Oc1cc(C(=O)N=c2cc[n-]cc2F)c2ccccc2c1 (protonated)
O=C(N=c1cccc[n-]1)[N-]c1ccccc1Oc1cc(C(=O)/N=c2/cc[n-]cc2F)c2ccccc2c1 (cis-trans isomerization)
O=C(N=c1cccc[n-]1)[N-]c1ccccc1Oc1cc(C(=O)/N=c2/cc[n-]cc2F)c2ccccc2c1 (3D coordinates assigned)
O=C(N=c1cccc[n-]1)[N-]c1ccccc1Oc1cc(C(=O)/N=c2/cc[n-]cc2F)c2ccccc2c1 (optimized conformer: 102.5220351690143 kcal/mol)

>  <smiles>  (33) 
O=C(N=c1cccc[nH]1)Nc1ccccc1Oc1cc(C(=O)N=c2cc[nH]cc2F)c2ccccc2c1

>  <score_type>  (33) 
oracle

>  <origin>  (33) 
adg

>  <m_score__min__energy>  (33) 
-12.81

>  <m_primary>  (33) 
energy

$$$$
33:0
     RDKit          3D

 36 38  0  0  0  0  0  0  0  0999 V2000
   59.8280   30.4630   45.6720 C   0  0  0  0  0  0  0  0  0  0  0  0
   58.8180   29.3530   45.7840 C   0  0  0  0  0  0  0  0  0  0  0  0
   59.2190   28.0870   46.2360 C   0  0  0  0  0  0  0  0  0  0  0  0
   58.2940   27.0460   46.3420 C   0  0  0  0  0  0  0  0  0  0  0  0
   56.9480   27.2530   46.0040 C   0  0  0  0  0  0  0  0  0  0  0  0
   55.9690   26.1520   46.1370 C   0  0  0  0  0  0  0  0  0  0  0  0
   54.7520   26.3400   45.8710 O   0  0  0  0  0  0  0  0  0  0  0  0
   56.3790   24.8910   46.5590 O   0  0  0  0  0  0  0  0  0  0  0  0
   56.5460   28.5210   45.5480 C   0  0  0  0  0  0  0  0  0  0  0  0
   57.4760   29.5680   45.4150 C   0  0  0  0  0  0  0  0  0  0  0  0
   57.0720   30.8710   44.9640 N   0  0  0  0  0  0  0  0  0  0  0  0
   57.3970   31.4750   43.7070 C   0  0  0  0  0  0  0  0  0  0  0  0
   57.1220   30.8970   42.6210 O   0  0  0  0  0  0  0  0  0  0  0  0
   58.1480   32.7680   43.6850 C   0  0  0  0  0  0  0  0  0  0  0  0
   57.4280   33.9500   44.8760 S   0  0  0  0  0  0  0  0  0  0  0  0
   58.8550   33.9520   45.9590 C   0  0  0  0  0  0  0  0  0  0  0  0
   60.1230   33.8010   45.4960 N   0  0  0  0  0  0  0  0  0  0  0  0
   60.8460   33.8570   46.6240 C   0  0  0  0  0  0  0  0  0  0  0  0
   62.2290   33.7530   46.7570 C   0  0  0  0  0  0  0  0  0  0  0  0
   62.7690   33.8390   48.0550 C   0  0  0  0  0  0  0  0  0  0  0  0
   61.9210   34.0230   49.1710 C   0  0  0  0  0  0  0  0  0  0  0  0
   60.5270   34.1220   48.9970 C   0  0  0  0  0  0  0  0  0  0  0  0
   60.0300   34.0340   47.6990 C   0  0  0  0  0  0  0  0  0  0  0  0
   58.7500   34.1000   47.3050 N   0  0  0  0  0  0  0  0  0  0  0  0
   60.1260   30.7905   46.6789 H   0  0  0  0  0  0  0  0  0  0  0  0
   60.7124   30.1005   45.1276 H   0  0  0  0  0  0  0  0  0  0  0  0
   59.3838   31.3094   45.1276 H   0  0  0  0  0  0  0  0  0  0  0  0
   60.2702   27.9128   46.5091 H   0  0  0  0  0  0  0  0  0  0  0  0
   58.6230   26.0568   46.6930 H   0  0  0  0  0  0  0  0  0  0  0  0
   55.4907   28.6964   45.2920 H   0  0  0  0  0  0  0  0  0  0  0  0
   59.1985   32.5805   43.9520 H   0  0  0  0  0  0  0  0  0  0  0  0
   58.0831   33.1986   42.6749 H   0  0  0  0  0  0  0  0  0  0  0  0
   62.8763   33.6088   45.8793 H   0  0  0  0  0  0  0  0  0  0  0  0
   63.8566   33.7626   48.2011 H   0  0  0  0  0  0  0  0  0  0  0  0
   62.3523   34.0892   50.1807 H   0  0  0  0  0  0  0  0  0  0  0  0
   59.8545   34.2638   49.8559 H   0  0  0  0  0  0  0  0  0  0  0  0
  1  2  1  0
  2  3  2  0
  3  4  1  0
  4  5  2  0
  5  6  1  0
  6  7  2  0
  6  8  1  0
  5  9  1  0
  9 10  2  0
 10 11  1  0
 11 12  1  0
 12 13  2  0
 12 14  1  0
 14 15  1  0
 15 16  1  0
 16 17  2  0
 17 18  1  0
 18 19  2  0
 19 20  1  0
 20 21  2  0
 21 22  1  0
 22 23  2  0
 23 24  1  0
 10  2  1  0
 24 16  1  0
 23 18  1  0
  1 25  1  0
  1 26  1  0
  1 27  1  0
  3 28  1  0
  4 29  1  0
  9 30  1  0
 14 31  1  0
 14 32  1  0
 19 33  1  0
 20 34  1  0
 21 35  1  0
 22 36  1  0
M  CHG  3   8  -1  11  -1  24  -1
M  END
>  <UniqueID>  (34) 
34

>  <SMILES>  (34) 
Cc1ccc(C(=O)[O-])cc1[N-]C(=O)CSc1nc2ccccc2[n-]1

>  <Energy>  (34) 
72.42983512038933

>  <Genealogy>  (34) 
Cc1ccc(C(=O)[O-])cc1[N-]C(=O)CSc1nc2ccccc2[n-]1 (protonated)
Cc1ccc(C(=O)[O-])cc1[N-]C(=O)CSc1nc2ccccc2[n-]1 (3D coordinates assigned)
Cc1ccc(C(=O)[O-])cc1[N-]C(=O)CSc1nc2ccccc2[n-]1 (optimized conformer: 72.42983512038933 kcal/mol)

>  <smiles>  (34) 
Cc1ccc(C(=O)O)cc1NC(=O)CSc1nc2ccccc2[nH]1

>  <score_type>  (34) 
oracle

>  <origin>  (34) 
adg

>  <m_score__min__energy>  (34) 
-13.99

>  <m_primary>  (34) 
energy

$$$$
34:0
     RDKit          3D

 47 49  0  0  0  0  0  0  0  0999 V2000
   57.7770   27.8320   44.8000 O   0  0  0  0  0  0  0  0  0  0  0  0
   56.6200   27.8200   45.2980 C   0  0  0  0  0  0  0  0  0  0  0  0
   56.1950   26.6720   46.1570 C   0  0  0  0  0  0  0  0  0  0  0  0
   54.8000   26.3350   45.8890 N   0  0  0  0  0  0  0  0  0  0  0  0
   54.3390   24.9980   45.6800 C   0  0  0  0  0  0  0  0  0  0  0  0
   53.1770   24.7890   45.2360 O   0  0  0  0  0  0  0  0  0  0  0  0
   55.2270   23.9070   45.9420 N   0  0  0  0  0  0  0  0  0  0  0  0
   55.8430   23.0550   44.9640 C   0  0  0  0  0  0  0  0  0  0  0  0
   55.6550   23.3460   43.6060 C   0  0  0  0  0  0  0  0  0  0  0  0
   56.2560   22.5530   42.6230 C   0  0  0  0  0  0  0  0  0  0  0  0
   57.0650   21.4740   42.9910 C   0  0  0  0  0  0  0  0  0  0  0  0
   57.2730   21.1880   44.3420 C   0  0  0  0  0  0  0  0  0  0  0  0
   56.6710   21.9760   45.3280 C   0  0  0  0  0  0  0  0  0  0  0  0
   55.6950   28.8780   45.0160 N   0  0  0  0  0  0  0  0  0  0  0  0
   56.0080   30.0150   44.1580 C   0  0  0  0  0  0  0  0  0  0  0  0
   57.0250   30.8950   44.8140 C   0  0  0  0  0  0  0  0  0  0  0  0
   57.3780   32.1650   44.4070 C   0  0  0  0  0  0  0  0  0  0  0  0
   58.2760   32.5730   45.3730 C   0  0  0  0  0  0  0  0  0  0  0  0
   58.9690   33.8690   45.4650 C   0  0  0  0  0  0  0  0  0  0  0  0
   58.5050   34.8430   44.8180 O   0  0  0  0  0  0  0  0  0  0  0  0
   60.1270   34.0780   46.2860 N   0  0  0  0  0  0  0  0  0  0  0  0
   60.4790   33.3360   47.5010 C   0  0  0  0  0  0  0  0  0  0  0  0
   61.2880   32.1020   47.1260 C   0  0  0  0  0  0  0  0  0  0  0  0
   62.7510   32.5310   47.1310 C   0  0  0  0  0  0  0  0  0  0  0  0
   62.8220   33.8600   47.8810 C   0  0  0  0  0  0  0  0  0  0  0  0
   61.4160   34.1520   48.3860 C   0  0  0  0  0  0  0  0  0  0  0  0
   58.3980   31.6160   46.2670 O   0  0  0  0  0  0  0  0  0  0  0  0
   57.6580   30.5900   45.9620 N   0  0  0  0  0  0  0  0  0  0  0  0
   56.8286   25.7998   45.9383 H   0  0  0  0  0  0  0  0  0  0  0  0
   56.3004   26.9551   47.2147 H   0  0  0  0  0  0  0  0  0  0  0  0
   55.0313   24.2029   43.3116 H   0  0  0  0  0  0  0  0  0  0  0  0
   56.0919   22.7787   41.5590 H   0  0  0  0  0  0  0  0  0  0  0  0
   57.5373   20.8509   42.2172 H   0  0  0  0  0  0  0  0  0  0  0  0
   57.9120   20.3407   44.6313 H   0  0  0  0  0  0  0  0  0  0  0  0
   56.8448   21.7522   46.3909 H   0  0  0  0  0  0  0  0  0  0  0  0
   56.4082   29.6485   43.2012 H   0  0  0  0  0  0  0  0  0  0  0  0
   55.0903   30.5960   43.9843 H   0  0  0  0  0  0  0  0  0  0  0  0
   57.0278   32.7198   43.5241 H   0  0  0  0  0  0  0  0  0  0  0  0
   59.5368   33.0963   48.0156 H   0  0  0  0  0  0  0  0  0  0  0  0
   61.1236   31.3009   47.8616 H   0  0  0  0  0  0  0  0  0  0  0  0
   60.9892   31.7123   46.1417 H   0  0  0  0  0  0  0  0  0  0  0  0
   63.3650   31.7750   47.6423 H   0  0  0  0  0  0  0  0  0  0  0  0
   63.1333   32.6373   46.1051 H   0  0  0  0  0  0  0  0  0  0  0  0
   63.5202   33.7810   48.7274 H   0  0  0  0  0  0  0  0  0  0  0  0
   63.1825   34.6661   47.2251 H   0  0  0  0  0  0  0  0  0  0  0  0
   61.3149   33.8442   49.4372 H   0  0  0  0  0  0  0  0  0  0  0  0
   61.1839   35.2262   48.3393 H   0  0  0  0  0  0  0  0  0  0  0  0
  1  2  2  0
  2  3  1  0
  3  4  1  0
  4  5  1  0
  5  6  2  0
  5  7  1  0
  7  8  1  0
  8  9  2  0
  9 10  1  0
 10 11  2  0
 11 12  1  0
 12 13  2  0
  2 14  1  0
 14 15  1  0
 15 16  1  0
 16 17  1  0
 17 18  2  0
 18 19  1  0
 19 20  2  0
 19 21  1  0
 21 22  1  0
 22 23  1  0
 23 24  1  0
 24 25  1  0
 25 26  1  0
 18 27  1  0
 27 28  1  0
 13  8  1  0
 28 16  2  0
 26 22  1  0
  3 29  1  0
  3 30  1  0
  9 31  1  0
 10 32  1  0
 11 33  1  0
 12 34  1  0
 13 35  1  0
 15 36  1  0
 15 37  1  0
 17 38  1  0
 22 39  1  0
 23 40  1  0
 23 41  1  0
 24 42  1  0
 24 43  1  0
 25 44  1  0
 25 45  1  0
 26 46  1  0
 26 47  1  0
M  CHG  4   4  -1   7  -1  14  -1  21  -1
M  END
>  <UniqueID>  (35) 
35

>  <SMILES>  (35) 
O=C(C[N-]C(=O)[N-]c1ccccc1)[N-]Cc1cc(C(=O)[N-]C2CCCC2)on1

>  <Energy>  (35) 
78.31823191105595

>  <Genealogy>  (35) 
O=C(C[N-]C(=O)[N-]c1ccccc1)[N-]Cc1cc(C(=O)[N-]C2CCCC2)on1 (protonated)
O=C(C[N-]C(=O)[N-]c1ccccc1)[N-]Cc1cc(C(=O)[N-]C2CCCC2)on1 (3D coordinates assigned)
O=C(C[N-]C(=O)[N-]c1ccccc1)[N-]Cc1cc(C(=O)[N-]C2CCCC2)on1 (nonaromatic ring conformer: 78.31823191105595 kcal/mol)

>  <smiles>  (35) 
O=C(CNC(=O)Nc1ccccc1)NCc1cc(C(=O)NC2CCCC2)on1

>  <score_type>  (35) 
oracle

>  <origin>  (35) 
adg

>  <m_score__min__energy>  (35) 
-15.470000000000001

>  <m_primary>  (35) 
energy

$$$$
35:0
     RDKit          3D

 41 43  0  0  0  0  0  0  0  0999 V2000
   57.6270   32.0120   42.1110 C   0  0  0  0  0  0  0  0  0  0  0  0
   57.8530   32.2130   43.5770 C   0  0  0  0  0  0  0  0  0  0  0  0
   58.5150   33.2730   44.0880 N   0  0  0  0  0  0  0  0  0  0  0  0
   58.5320   33.1680   45.4080 N   0  0  0  0  0  0  0  0  0  0  0  0
   59.2550   34.0770   46.2950 C   0  0  0  0  0  0  0  0  0  0  0  0
   60.5060   33.4100   46.7940 C   0  0  0  0  0  0  0  0  0  0  0  0
   61.7670   33.8460   46.3580 C   0  0  0  0  0  0  0  0  0  0  0  0
   62.9300   33.2590   46.8630 C   0  0  0  0  0  0  0  0  0  0  0  0
   62.8430   32.2390   47.8150 C   0  0  0  0  0  0  0  0  0  0  0  0
   63.9730   31.6720   48.3070 F   0  0  0  0  0  0  0  0  0  0  0  0
   61.5920   31.8080   48.2650 C   0  0  0  0  0  0  0  0  0  0  0  0
   60.4260   32.3940   47.7620 C   0  0  0  0  0  0  0  0  0  0  0  0
   57.9020   32.0300   45.7540 C   0  0  0  0  0  0  0  0  0  0  0  0
   57.7760   31.6180   46.9390 O   0  0  0  0  0  0  0  0  0  0  0  0
   57.4570   31.3790   44.6200 C   0  0  0  0  0  0  0  0  0  0  0  0
   56.7440   30.0870   44.5630 C   0  0  0  0  0  0  0  0  0  0  0  0
   55.4880   30.0820   44.4840 O   0  0  0  0  0  0  0  0  0  0  0  0
   57.4430   28.8350   44.5740 N   0  0  0  0  0  0  0  0  0  0  0  0
   58.2930   28.3520   45.6260 C   0  0  0  0  0  0  0  0  0  0  0  0
   59.5450   28.9540   45.8560 C   0  0  0  0  0  0  0  0  0  0  0  0
   60.3750   28.4990   46.8790 C   0  0  0  0  0  0  0  0  0  0  0  0
   59.9620   27.4520   47.6990 C   0  0  0  0  0  0  0  0  0  0  0  0
   58.7140   26.8590   47.5030 C   0  0  0  0  0  0  0  0  0  0  0  0
   57.8600   27.2980   46.4720 C   0  0  0  0  0  0  0  0  0  0  0  0
   56.5450   26.6240   46.2980 C   0  0  0  0  0  0  0  0  0  0  0  0
   56.3310   25.4770   46.7710 O   0  0  0  0  0  0  0  0  0  0  0  0
   55.5200   27.2590   45.6070 O   0  0  0  0  0  0  0  0  0  0  0  0
   56.8127   31.2878   41.9615 H   0  0  0  0  0  0  0  0  0  0  0  0
   57.3542   32.9714   41.6471 H   0  0  0  0  0  0  0  0  0  0  0  0
   58.5480   31.6291   41.6471 H   0  0  0  0  0  0  0  0  0  0  0  0
   58.9560   34.0480   43.5450 H   0  0  0  0  0  0  0  0  0  0  0  0
   59.5227   34.9902   45.7433 H   0  0  0  0  0  0  0  0  0  0  0  0
   58.6146   34.3367   47.1508 H   0  0  0  0  0  0  0  0  0  0  0  0
   61.8399   34.6539   45.6150 H   0  0  0  0  0  0  0  0  0  0  0  0
   63.9149   33.5998   46.5112 H   0  0  0  0  0  0  0  0  0  0  0  0
   61.5244   31.0069   49.0157 H   0  0  0  0  0  0  0  0  0  0  0  0
   59.4432   32.0588   48.1251 H   0  0  0  0  0  0  0  0  0  0  0  0
   59.8712   29.7917   45.2220 H   0  0  0  0  0  0  0  0  0  0  0  0
   61.3574   28.9674   47.0388 H   0  0  0  0  0  0  0  0  0  0  0  0
   60.6208   27.0916   48.5028 H   0  0  0  0  0  0  0  0  0  0  0  0
   58.3931   26.0386   48.1617 H   0  0  0  0  0  0  0  0  0  0  0  0
  1  2  1  0
  2  3  1  0
  3  4  1  0
  4  5  1  0
  5  6  1  0
  6  7  2  0
  7  8  1  0
  8  9  2  0
  9 10  1  0
  9 11  1  0
 11 12  2  0
  4 13  1  0
 13 14  2  0
 13 15  1  0
 15 16  1  0
 16 17  2  0
 16 18  1  0
 18 19  1  0
 19 20  2  0
 20 21  1  0
 21 22  2  0
 22 23  1  0
 23 24  2  0
 24 25  1  0
 25 26  2  0
 25 27  1  0
 15  2  2  0
 24 19  1  0
 12  6  1  0
  1 28  1  0
  1 29  1  0
  1 30  1  0
  3 31  1  0
  5 32  1  0
  5 33  1  0
  7 34  1  0
  8 35  1  0
 11 36  1  0
 12 37  1  0
 20 38  1  0
 21 39  1  0
 22 40  1  0
 23 41  1  0
M  CHG  2  18  -1  27  -1
M  END
>  <UniqueID>  (36) 
36

>  <SMILES>  (36) 
Cc1[nH]n(Cc2ccc(F)cc2)c(=O)c1C(=O)[N-]c1ccccc1C(=O)[O-]

>  <Energy>  (36) 
82.99884843342522

>  <Genealogy>  (36) 
Cc1[nH]n(Cc2ccc(F)cc2)c(=O)c1C(=O)[N-]c1ccccc1C(=O)[O-] (protonated)
Cc1[nH]n(Cc2ccc(F)cc2)c(=O)c1C(=O)[N-]c1ccccc1C(=O)[O-] (3D coordinates assigned)
Cc1[nH]n(Cc2ccc(F)cc2)c(=O)c1C(=O)[N-]c1ccccc1C(=O)[O-] (optimized conformer: 82.99884843342522 kcal/mol)

>  <smiles>  (36) 
Cc1[nH]n(Cc2ccc(F)cc2)c(=O)c1C(=O)Nc1ccccc1C(=O)O

>  <score_type>  (36) 
oracle

>  <origin>  (36) 
adg

>  <m_score__min__energy>  (36) 
-12.81

>  <m_primary>  (36) 
energy

$$$$
36:0
     RDKit          3D

 38 40  0  0  0  0  0  0  0  0999 V2000
   56.2890   32.0470   44.8730 O   0  0  0  0  0  0  0  0  0  0  0  0
   57.5370   32.1420   44.7080 C   0  0  0  0  0  0  0  0  0  0  0  0
   58.2100   31.1810   43.7680 C   0  0  0  0  0  0  0  0  0  0  0  0
   58.0250   29.8140   44.2420 N   0  0  0  0  0  0  0  0  0  0  0  0
   58.8010   29.1520   45.1230 C   0  0  0  0  0  0  0  0  0  0  0  0
   58.1830   27.9390   45.3440 C   0  0  0  0  0  0  0  0  0  0  0  0
   58.5970   26.8660   46.3010 C   0  0  0  0  0  0  0  0  0  0  0  0
   57.4440   26.2490   46.8730 O   0  0  0  0  0  0  0  0  0  0  0  0
   56.7160   25.1910   46.3020 C   0  0  0  0  0  0  0  0  0  0  0  0
   57.2510   23.8960   46.1490 C   0  0  0  0  0  0  0  0  0  0  0  0
   56.4870   22.8840   45.5600 C   0  0  0  0  0  0  0  0  0  0  0  0
   55.1840   23.1450   45.1330 C   0  0  0  0  0  0  0  0  0  0  0  0
   54.6450   24.4250   45.2800 C   0  0  0  0  0  0  0  0  0  0  0  0
   55.4080   25.4460   45.8580 C   0  0  0  0  0  0  0  0  0  0  0  0
   54.8620   26.7160   45.9960 O   0  0  0  0  0  0  0  0  0  0  0  0
   57.0560   27.9150   44.6070 N   0  0  0  0  0  0  0  0  0  0  0  0
   56.9750   29.0610   43.9500 N   0  0  0  0  0  0  0  0  0  0  0  0
   58.3030   33.1500   45.4860 C   0  0  0  0  0  0  0  0  0  0  0  0
   58.7880   34.3210   44.8700 C   0  0  0  0  0  0  0  0  0  0  0  0
   59.4890   35.2750   45.6140 C   0  0  0  0  0  0  0  0  0  0  0  0
   59.7290   35.0670   46.9730 C   0  0  0  0  0  0  0  0  0  0  0  0
   59.2640   33.9060   47.5930 C   0  0  0  0  0  0  0  0  0  0  0  0
   58.5480   32.9540   46.8610 C   0  0  0  0  0  0  0  0  0  0  0  0
   58.1170   31.8330   47.4940 F   0  0  0  0  0  0  0  0  0  0  0  0
   57.7696   31.2824   42.7651 H   0  0  0  0  0  0  0  0  0  0  0  0
   59.2855   31.4080   43.7255 H   0  0  0  0  0  0  0  0  0  0  0  0
   59.7387   29.5077   45.5749 H   0  0  0  0  0  0  0  0  0  0  0  0
   59.1873   26.1082   45.7651 H   0  0  0  0  0  0  0  0  0  0  0  0
   59.2025   27.3126   47.1035 H   0  0  0  0  0  0  0  0  0  0  0  0
   58.2730   23.6808   46.4942 H   0  0  0  0  0  0  0  0  0  0  0  0
   56.9143   21.8784   45.4326 H   0  0  0  0  0  0  0  0  0  0  0  0
   54.5820   22.3430   44.6810 H   0  0  0  0  0  0  0  0  0  0  0  0
   53.6190   24.6310   44.9409 H   0  0  0  0  0  0  0  0  0  0  0  0
   56.3470   27.1510   44.5630 H   0  0  0  0  0  0  0  0  0  0  0  0
   58.6139   34.4857   43.7964 H   0  0  0  0  0  0  0  0  0  0  0  0
   59.8523   36.1919   45.1269 H   0  0  0  0  0  0  0  0  0  0  0  0
   60.2841   35.8173   47.5551 H   0  0  0  0  0  0  0  0  0  0  0  0
   59.4618   33.7394   48.6622 H   0  0  0  0  0  0  0  0  0  0  0  0
  1  2  2  0
  2  3  1  0
  3  4  1  0
  4  5  1  0
  5  6  2  0
  6  7  1  0
  7  8  1  0
  8  9  1  0
  9 10  2  0
 10 11  1  0
 11 12  2  0
 12 13  1  0
 13 14  2  0
 14 15  1  0
  6 16  1  0
 16 17  2  0
  2 18  1  0
 18 19  2  0
 19 20  1  0
 20 21  2  0
 21 22  1  0
 22 23  2  0
 23 24  1  0
 17  4  1  0
 23 18  1  0
 14  9  1  0
  3 25  1  0
  3 26  1  0
  5 27  1  0
  7 28  1  0
  7 29  1  0
 10 30  1  0
 11 31  1  0
 12 32  1  0
 13 33  1  0
 16 34  1  0
 19 35  1  0
 20 36  1  0
 21 37  1  0
 22 38  1  0
M  CHG  2  15  -1  16   1
M  END
>  <UniqueID>  (37) 
37

>  <SMILES>  (37) 
O=C(Cn1cc(COc2ccccc2[O-])[nH+]n1)c1ccccc1F

>  <Energy>  (37) 
74.74694874842785

>  <Genealogy>  (37) 
O=C(Cn1cc(COc2ccccc2[O-])[nH+]n1)c1ccccc1F (protonated)
O=C(Cn1cc(COc2ccccc2[O-])[nH+]n1)c1ccccc1F (3D coordinates assigned)
O=C(Cn1cc(COc2ccccc2[O-])[nH+]n1)c1ccccc1F (optimized conformer: 74.74694874842785 kcal/mol)

>  <smiles>  (37) 
O=C(Cn1cc(COc2ccccc2O)nn1)c1ccccc1F

>  <score_type>  (37) 
oracle

>  <origin>  (37) 
adg

>  <m_score__min__energy>  (37) 
-10.32

>  <m_primary>  (37) 
energy

$$$$
37:0
     RDKit          3D

 28 30  0  0  0  0  0  0  0  0999 V2000
   60.4190   28.0450   47.9890 O   0  0  0  0  0  0  0  0  0  0  0  0
   59.4180   28.2160   47.2430 C   0  0  0  0  0  0  0  0  0  0  0  0
   59.1810   27.2630   46.0970 C   0  0  0  0  0  0  0  0  0  0  0  0
   57.8750   26.6100   46.2060 N   0  0  0  0  0  0  0  0  0  0  0  0
   56.6690   27.1470   45.9630 C   0  0  0  0  0  0  0  0  0  0  0  0
   56.4500   28.4760   45.6070 O   0  0  0  0  0  0  0  0  0  0  0  0
   55.7170   26.1690   46.1180 C   0  0  0  0  0  0  0  0  0  0  0  0
   54.3470   26.3350   45.9580 O   0  0  0  0  0  0  0  0  0  0  0  0
   56.2990   24.9990   46.4470 N   0  0  0  0  0  0  0  0  0  0  0  0
   57.6150   25.3120   46.4840 C   0  0  0  0  0  0  0  0  0  0  0  0
   58.5100   24.4660   46.7460 O   0  0  0  0  0  0  0  0  0  0  0  0
   58.5460   29.3240   47.5280 N   0  0  0  0  0  0  0  0  0  0  0  0
   58.5740   30.5300   47.0360 C   0  0  0  0  0  0  0  0  0  0  0  0
   59.4000   31.5140   47.4850 N   0  0  0  0  0  0  0  0  0  0  0  0
   59.0740   32.5460   46.6940 C   0  0  0  0  0  0  0  0  0  0  0  0
   59.6100   33.8320   46.7060 C   0  0  0  0  0  0  0  0  0  0  0  0
   59.1070   34.7580   45.7720 C   0  0  0  0  0  0  0  0  0  0  0  0
   58.0930   34.3760   44.8640 C   0  0  0  0  0  0  0  0  0  0  0  0
   57.5760   33.0670   44.8820 C   0  0  0  0  0  0  0  0  0  0  0  0
   58.0980   32.1780   45.8190 C   0  0  0  0  0  0  0  0  0  0  0  0
   57.7580   30.8960   46.0140 N   0  0  0  0  0  0  0  0  0  0  0  0
   59.2231   27.8232   45.1513 H   0  0  0  0  0  0  0  0  0  0  0  0
   59.9596   26.4865   46.1260 H   0  0  0  0  0  0  0  0  0  0  0  0
   56.9910   29.2220   46.0270 H   0  0  0  0  0  0  0  0  0  0  0  0
   60.3981   34.1139   47.4197 H   0  0  0  0  0  0  0  0  0  0  0  0
   59.5049   35.7833   45.7488 H   0  0  0  0  0  0  0  0  0  0  0  0
   57.7055   35.1066   44.1387 H   0  0  0  0  0  0  0  0  0  0  0  0
   56.7873   32.7568   44.1807 H   0  0  0  0  0  0  0  0  0  0  0  0
  1  2  2  0
  2  3  1  0
  3  4  1  0
  4  5  1  0
  5  6  1  0
  5  7  2  0
  7  8  1  0
  7  9  1  0
  9 10  1  0
 10 11  2  0
  2 12  1  0
 12 13  2  3
 13 14  1  0
 14 15  1  0
 15 16  2  0
 16 17  1  0
 17 18  2  0
 18 19  1  0
 19 20  2  0
 20 21  1  0
 10  4  1  0
 21 13  1  0
 20 15  1  0
  3 22  1  0
  3 23  1  0
  6 24  1  0
 16 25  1  0
 17 26  1  0
 18 27  1  0
 19 28  1  0
M  CHG  4   8  -1   9  -1  14  -1  21  -1
M  END
>  <UniqueID>  (38) 
38

>  <SMILES>  (38) 
O=C(Cn1c(O)c([O-])[n-]c1=O)N=c1[n-]c2ccccc2[n-]1

>  <Energy>  (38) 
101.62222424371512

>  <Genealogy>  (38) 
O=C(Cn1c(O)c([O-])[n-]c1=O)N=c1[n-]c2ccccc2[n-]1 (protonated)
O=C(Cn1c(O)c([O-])[n-]c1=O)N=c1[n-]c2ccccc2[n-]1 (3D coordinates assigned)
O=C(Cn1c(O)c([O-])[n-]c1=O)N=c1[n-]c2ccccc2[n-]1 (optimized conformer: 101.62222424371512 kcal/mol)

>  <smiles>  (38) 
O=C(Cn1c(O)c(O)[nH]c1=O)N=c1[nH]c2ccccc2[nH]1

>  <score_type>  (38) 
oracle

>  <origin>  (38) 
adg

>  <m_score__min__energy>  (38) 
-14.07

>  <m_primary>  (38) 
energy

$$$$
38:0
     RDKit          3D

 43 45  0  0  0  0  0  0  0  0999 V2000
   56.3610   27.2630   45.9460 O   0  0  0  0  0  0  0  0  0  0  0  0
   56.6000   26.0400   46.1260 C   0  0  0  0  0  0  0  0  0  0  0  0
   57.7650   25.6710   46.8760 N   0  0  0  0  0  0  0  0  0  0  0  0
   59.0940   26.2410   46.6940 C   0  0  0  0  0  0  0  0  0  0  0  0
   59.1260   27.6210   47.2860 C   0  0  0  0  0  0  0  0  0  0  0  0
   59.6220   27.8210   48.5830 C   0  0  0  0  0  0  0  0  0  0  0  0
   59.6780   29.1080   49.1220 C   0  0  0  0  0  0  0  0  0  0  0  0
   59.2560   30.2050   48.3680 C   0  0  0  0  0  0  0  0  0  0  0  0
   58.7850   30.0270   47.0560 C   0  0  0  0  0  0  0  0  0  0  0  0
   58.3360   31.1880   46.2530 C   0  0  0  0  0  0  0  0  0  0  0  0
   57.3920   31.0380   45.4290 O   0  0  0  0  0  0  0  0  0  0  0  0
   58.9370   32.4850   46.4090 N   0  0  0  0  0  0  0  0  0  0  0  0
   60.3980   32.6370   46.3800 C   0  0  0  0  0  0  0  0  0  0  0  0
   60.8750   33.6320   47.4530 C   0  0  0  0  0  0  0  0  0  0  0  0
   59.8690   34.7660   47.7370 C   0  0  0  0  0  0  0  0  0  0  0  0
   58.8770   34.9650   46.5880 C   0  0  0  0  0  0  0  0  0  0  0  0
   58.0770   33.6760   46.3510 C   0  0  0  0  0  0  0  0  0  0  0  0
   58.7160   28.7270   46.5250 C   0  0  0  0  0  0  0  0  0  0  0  0
   55.7010   25.0440   45.5170 C   0  0  0  0  0  0  0  0  0  0  0  0
   56.1680   24.1160   44.5790 C   0  0  0  0  0  0  0  0  0  0  0  0
   55.2700   23.1820   44.0580 C   0  0  0  0  0  0  0  0  0  0  0  0
   55.6560   22.3380   43.2090 O   0  0  0  0  0  0  0  0  0  0  0  0
   53.9780   23.1800   44.4760 N   0  0  0  0  0  0  0  0  0  0  0  0
   53.5440   24.0720   45.4030 C   0  0  0  0  0  0  0  0  0  0  0  0
   52.3450   24.0480   45.7850 O   0  0  0  0  0  0  0  0  0  0  0  0
   54.4030   24.9880   45.9200 N   0  0  0  0  0  0  0  0  0  0  0  0
   59.8382   25.6072   47.1984 H   0  0  0  0  0  0  0  0  0  0  0  0
   59.3290   26.2943   45.6207 H   0  0  0  0  0  0  0  0  0  0  0  0
   59.9676   26.9619   49.1768 H   0  0  0  0  0  0  0  0  0  0  0  0
   60.0559   29.2582   50.1441 H   0  0  0  0  0  0  0  0  0  0  0  0
   59.2925   31.2144   48.8036 H   0  0  0  0  0  0  0  0  0  0  0  0
   60.8644   31.6582   46.5655 H   0  0  0  0  0  0  0  0  0  0  0  0
   60.6886   33.0239   45.3921 H   0  0  0  0  0  0  0  0  0  0  0  0
   61.0476   33.0785   48.3878 H   0  0  0  0  0  0  0  0  0  0  0  0
   61.7918   34.1037   47.0695 H   0  0  0  0  0  0  0  0  0  0  0  0
   59.3075   34.5200   48.6503 H   0  0  0  0  0  0  0  0  0  0  0  0
   60.4390   35.6994   47.8545 H   0  0  0  0  0  0  0  0  0  0  0  0
   58.1847   35.7810   46.8425 H   0  0  0  0  0  0  0  0  0  0  0  0
   59.4327   35.2167   45.6727 H   0  0  0  0  0  0  0  0  0  0  0  0
   57.2988   33.5920   47.1239 H   0  0  0  0  0  0  0  0  0  0  0  0
   57.6307   33.7286   45.3470 H   0  0  0  0  0  0  0  0  0  0  0  0
   58.3371   28.5752   45.5035 H   0  0  0  0  0  0  0  0  0  0  0  0
   57.2204   24.1223   44.2589 H   0  0  0  0  0  0  0  0  0  0  0  0
  1  2  2  0
  2  3  1  0
  3  4  1  0
  4  5  1  0
  5  6  2  0
  6  7  1  0
  7  8  2  0
  8  9  1  0
  9 10  1  0
 10 11  2  0
 10 12  1  0
 12 13  1  0
 13 14  1  0
 14 15  1  0
 15 16  1  0
 16 17  1  0
  9 18  2  0
  2 19  1  0
 19 20  2  0
 20 21  1  0
 21 22  2  0
 21 23  1  0
 23 24  1  0
 24 25  2  0
 24 26  1  0
 18  5  1  0
 26 19  1  0
 17 12  1  0
  4 27  1  0
  4 28  1  0
  6 29  1  0
  7 30  1  0
  8 31  1  0
 13 32  1  0
 13 33  1  0
 14 34  1  0
 14 35  1  0
 15 36  1  0
 15 37  1  0
 16 38  1  0
 16 39  1  0
 17 40  1  0
 17 41  1  0
 18 42  1  0
 20 43  1  0
M  CHG  3   3  -1  23  -1  26  -1
M  END
>  <UniqueID>  (39) 
39

>  <SMILES>  (39) 
O=C([N-]Cc1cccc(C(=O)N2CCCCC2)c1)c1cc(=O)[n-]c(=O)[n-]1

>  <Energy>  (39) 
54.074046860116795

>  <Genealogy>  (39) 
O=C([N-]Cc1cccc(C(=O)N2CCCCC2)c1)c1cc(=O)[n-]c(=O)[n-]1 (protonated)
O=C([N-]Cc1cccc(C(=O)N2CCCCC2)c1)c1cc(=O)[n-]c(=O)[n-]1 (3D coordinates assigned)
O=C([N-]Cc1cccc(C(=O)N2CCCCC2)c1)c1cc(=O)[n-]c(=O)[n-]1 (nonaromatic ring conformer: 54.074046860116795 kcal/mol)

>  <smiles>  (39) 
O=C(NCc1cccc(C(=O)N2CCCCC2)c1)c1cc(=O)[nH]c(=O)[nH]1

>  <score_type>  (39) 
oracle

>  <origin>  (39) 
adg

>  <m_score__min__energy>  (39) 
-14.65

>  <m_primary>  (39) 
energy

$$$$
39:0
     RDKit          3D

 51 55  0  0  0  0  0  0  0  0999 V2000
   60.0090   34.9040   45.2400 O   0  0  0  0  0  0  0  0  0  0  0  0
   59.9660   33.9260   46.0360 C   0  0  0  0  0  0  0  0  0  0  0  0
   59.0610   32.8040   45.7290 C   0  0  0  0  0  0  0  0  0  0  0  0
   57.9030   32.9350   44.9690 C   0  0  0  0  0  0  0  0  0  0  0  0
   57.3970   31.6610   44.8590 C   0  0  0  0  0  0  0  0  0  0  0  0
   56.2660   31.2040   44.1870 C   0  0  0  0  0  0  0  0  0  0  0  0
   56.0020   29.8230   44.2020 C   0  0  0  0  0  0  0  0  0  0  0  0
   54.8770   29.3350   43.5430 O   0  0  0  0  0  0  0  0  0  0  0  0
   56.8760   28.9410   44.8810 C   0  0  0  0  0  0  0  0  0  0  0  0
   58.0130   29.4320   45.5460 C   0  0  0  0  0  0  0  0  0  0  0  0
   58.2460   30.8130   45.5250 C   0  0  0  0  0  0  0  0  0  0  0  0
   59.2750   31.5030   46.0690 N   0  0  0  0  0  0  0  0  0  0  0  0
   60.4730   30.9470   46.7140 C   0  0  0  0  0  0  0  0  0  0  0  0
   60.2420   30.7460   48.1890 C   0  0  0  0  0  0  0  0  0  0  0  0
   61.2430   30.1760   48.9930 C   0  0  0  0  0  0  0  0  0  0  0  0
   61.0290   29.9940   50.3630 C   0  0  0  0  0  0  0  0  0  0  0  0
   59.8110   30.3700   50.9380 C   0  0  0  0  0  0  0  0  0  0  0  0
   59.5450   30.1420   52.6570 Cl  0  0  0  0  0  0  0  0  0  0  0  0
   58.8030   30.9220   50.1410 C   0  0  0  0  0  0  0  0  0  0  0  0
   59.0150   31.1040   48.7710 C   0  0  0  0  0  0  0  0  0  0  0  0
   60.7690   33.9410   47.2310 N   0  0  0  0  0  0  0  0  0  0  0  0
   60.2360   34.5710   48.4450 C   0  0  0  0  0  0  0  0  0  0  0  0
   60.7370   33.8460   49.6980 C   0  0  0  0  0  0  0  0  0  0  0  0
   62.1950   33.4700   49.6180 C   0  0  0  0  0  0  0  0  0  0  0  0
   62.8580   33.0840   50.7940 C   0  0  0  0  0  0  0  0  0  0  0  0
   64.1920   32.6700   50.7510 C   0  0  0  0  0  0  0  0  0  0  0  0
   64.8730   32.6300   49.5350 C   0  0  0  0  0  0  0  0  0  0  0  0
   64.2220   32.9980   48.3560 C   0  0  0  0  0  0  0  0  0  0  0  0
   62.8780   33.4060   48.3830 C   0  0  0  0  0  0  0  0  0  0  0  0
   62.2250   33.8430   47.0970 C   0  0  0  0  0  0  0  0  0  0  0  0
   57.4823   33.8595   44.5466 H   0  0  0  0  0  0  0  0  0  0  0  0
   55.5992   31.9025   43.6603 H   0  0  0  0  0  0  0  0  0  0  0  0
   54.9370   28.9510   42.6060 H   0  0  0  0  0  0  0  0  0  0  0  0
   56.6637   27.8617   44.8885 H   0  0  0  0  0  0  0  0  0  0  0  0
   58.7006   28.7506   46.0684 H   0  0  0  0  0  0  0  0  0  0  0  0
   60.7150   29.9787   46.2516 H   0  0  0  0  0  0  0  0  0  0  0  0
   61.3053   31.6537   46.5806 H   0  0  0  0  0  0  0  0  0  0  0  0
   62.1994   29.8715   48.5430 H   0  0  0  0  0  0  0  0  0  0  0  0
   61.8196   29.5546   50.9890 H   0  0  0  0  0  0  0  0  0  0  0  0
   57.8429   31.2131   50.5922 H   0  0  0  0  0  0  0  0  0  0  0  0
   58.2165   31.5299   48.1457 H   0  0  0  0  0  0  0  0  0  0  0  0
   60.5634   35.6206   48.4803 H   0  0  0  0  0  0  0  0  0  0  0  0
   59.1378   34.5135   48.4194 H   0  0  0  0  0  0  0  0  0  0  0  0
   60.5923   34.5059   50.5661 H   0  0  0  0  0  0  0  0  0  0  0  0
   60.1613   32.9132   49.7906 H   0  0  0  0  0  0  0  0  0  0  0  0
   62.3239   33.1076   51.7553 H   0  0  0  0  0  0  0  0  0  0  0  0
   64.7056   32.3752   51.6780 H   0  0  0  0  0  0  0  0  0  0  0  0
   65.9244   32.3081   49.5045 H   0  0  0  0  0  0  0  0  0  0  0  0
   64.7650   32.9683   47.3998 H   0  0  0  0  0  0  0  0  0  0  0  0
   62.6233   34.8281   46.8124 H   0  0  0  0  0  0  0  0  0  0  0  0
   62.4472   33.0889   46.3276 H   0  0  0  0  0  0  0  0  0  0  0  0
  1  2  2  0
  2  3  1  0
  3  4  2  0
  4  5  1  0
  5  6  2  0
  6  7  1  0
  7  8  1  0
  7  9  2  0
  9 10  1  0
 10 11  2  0
 11 12  1  0
 12 13  1  0
 13 14  1  0
 14 15  2  0
 15 16  1  0
 16 17  2  0
 17 18  1  0
 17 19  1  0
 19 20  2  0
  2 21  1  0
 21 22  1  0
 22 23  1  0
 23 24  1  0
 24 25  2  0
 25 26  1  0
 26 27  2  0
 27 28  1  0
 28 29  2  0
 29 30  1  0
 12  3  1  0
 20 14  1  0
 30 21  1  0
 11  5  1  0
 29 24  1  0
  4 31  1  0
  6 32  1  0
  8 33  1  0
  9 34  1  0
 10 35  1  0
 13 36  1  0
 13 37  1  0
 15 38  1  0
 16 39  1  0
 19 40  1  0
 20 41  1  0
 22 42  1  0
 22 43  1  0
 23 44  1  0
 23 45  1  0
 25 46  1  0
 26 47  1  0
 27 48  1  0
 28 49  1  0
 30 50  1  0
 30 51  1  0
M  END
>  <UniqueID>  (40) 
40

>  <SMILES>  (40) 
O=C(c1cc2cc(O)ccc2n1Cc1ccc(Cl)cc1)N1CCc2ccccc2C1

>  <Energy>  (40) 
95.54250039665207

>  <Genealogy>  (40) 
O=C(c1cc2cc(O)ccc2n1Cc1ccc(Cl)cc1)N1CCc2ccccc2C1 (3D coordinates assigned)
O=C(c1cc2cc(O)ccc2n1Cc1ccc(Cl)cc1)N1CCc2ccccc2C1 (nonaromatic ring conformer: 95.54250039665207 kcal/mol)

>  <smiles>  (40) 
O=C(c1cc2cc(O)ccc2n1Cc1ccc(Cl)cc1)N1CCc2ccccc2C1

>  <score_type>  (40) 
oracle

>  <origin>  (40) 
adg

>  <m_score__min__energy>  (40) 
-9.1300000000000008

>  <m_primary>  (40) 
energy

$$$$
40:0
     RDKit          3D

 53 55  0  0  0  0  0  0  0  0999 V2000
   57.7900   27.8060   43.3110 C   0  0  0  0  0  0  0  0  0  0  0  0
   58.6050   28.5600   44.3310 C   0  0  0  0  0  0  0  0  0  0  0  0
   59.9510   28.2000   44.5110 C   0  0  0  0  0  0  0  0  0  0  0  0
   60.7420   28.8410   45.4640 C   0  0  0  0  0  0  0  0  0  0  0  0
   60.2070   29.8700   46.2520 C   0  0  0  0  0  0  0  0  0  0  0  0
   60.9890   30.5310   47.2640 N   0  0  0  0  0  0  0  0  0  0  0  0
   61.3770   31.9130   47.2230 C   0  0  0  0  0  0  0  0  0  0  0  0
   60.9170   32.6870   46.3420 O   0  0  0  0  0  0  0  0  0  0  0  0
   62.2210   32.4630   48.2970 C   0  0  0  0  0  0  0  0  0  0  0  0
   63.5810   32.6130   47.9990 C   0  0  0  0  0  0  0  0  0  0  0  0
   64.4710   33.0860   48.9530 C   0  0  0  0  0  0  0  0  0  0  0  0
   64.0220   33.3970   50.2300 C   0  0  0  0  0  0  0  0  0  0  0  0
   62.6660   33.2580   50.5710 C   0  0  0  0  0  0  0  0  0  0  0  0
   62.2630   33.5960   51.9860 C   0  0  0  0  0  0  0  0  0  0  0  0
   61.7210   32.8330   49.5850 C   0  0  0  0  0  0  0  0  0  0  0  0
   60.2240   32.7740   49.9360 C   0  0  0  0  0  0  0  0  0  0  0  0
   59.8860   31.8150   51.0880 C   0  0  0  0  0  0  0  0  0  0  0  0
   59.6410   34.1720   50.1710 C   0  0  0  0  0  0  0  0  0  0  0  0
   58.8640   30.2310   46.0840 C   0  0  0  0  0  0  0  0  0  0  0  0
   58.0540   29.6070   45.1170 C   0  0  0  0  0  0  0  0  0  0  0  0
   56.6550   30.0770   44.9580 C   0  0  0  0  0  0  0  0  0  0  0  0
   55.7110   29.2470   44.8710 O   0  0  0  0  0  0  0  0  0  0  0  0
   56.3910   31.4800   44.8150 N   0  0  0  0  0  0  0  0  0  0  0  0
   57.2870   32.5580   45.1250 C   0  0  0  0  0  0  0  0  0  0  0  0
   58.1380   33.1290   44.1640 C   0  0  0  0  0  0  0  0  0  0  0  0
   58.9730   34.1910   44.5180 C   0  0  0  0  0  0  0  0  0  0  0  0
   58.9390   34.6850   45.8240 C   0  0  0  0  0  0  0  0  0  0  0  0
   58.0920   34.1380   46.7350 N   0  0  0  0  0  0  0  0  0  0  0  0
   57.2700   33.1010   46.4150 C   0  0  0  0  0  0  0  0  0  0  0  0
   57.0768   27.1462   43.8267 H   0  0  0  0  0  0  0  0  0  0  0  0
   57.2394   28.5201   42.6811 H   0  0  0  0  0  0  0  0  0  0  0  0
   58.4592   27.2016   42.6811 H   0  0  0  0  0  0  0  0  0  0  0  0
   60.3868   27.4019   43.8920 H   0  0  0  0  0  0  0  0  0  0  0  0
   61.7909   28.5378   45.5982 H   0  0  0  0  0  0  0  0  0  0  0  0
   61.2120   29.9940   48.1340 H   0  0  0  0  0  0  0  0  0  0  0  0
   63.9487   32.3525   46.9955 H   0  0  0  0  0  0  0  0  0  0  0  0
   65.5331   33.2147   48.6975 H   0  0  0  0  0  0  0  0  0  0  0  0
   64.7373   33.7568   50.9843 H   0  0  0  0  0  0  0  0  0  0  0  0
   62.9099   33.0534   52.6910 H   0  0  0  0  0  0  0  0  0  0  0  0
   62.3699   34.6786   52.1490 H   0  0  0  0  0  0  0  0  0  0  0  0
   61.2155   33.3023   52.1490 H   0  0  0  0  0  0  0  0  0  0  0  0
   59.7344   32.3453   49.0491 H   0  0  0  0  0  0  0  0  0  0  0  0
   60.0638   32.3195   52.0492 H   0  0  0  0  0  0  0  0  0  0  0  0
   58.8290   31.5180   51.0198 H   0  0  0  0  0  0  0  0  0  0  0  0
   60.5232   30.9209   51.0198 H   0  0  0  0  0  0  0  0  0  0  0  0
   59.5627   34.3597   51.2520 H   0  0  0  0  0  0  0  0  0  0  0  0
   60.2999   34.9255   49.7148 H   0  0  0  0  0  0  0  0  0  0  0  0
   58.6420   34.2341   49.7148 H   0  0  0  0  0  0  0  0  0  0  0  0
   58.4338   31.0181   46.7207 H   0  0  0  0  0  0  0  0  0  0  0  0
   58.1466   32.7404   43.1350 H   0  0  0  0  0  0  0  0  0  0  0  0
   59.6517   34.6346   43.7746 H   0  0  0  0  0  0  0  0  0  0  0  0
   59.5976   35.5166   46.1150 H   0  0  0  0  0  0  0  0  0  0  0  0
   56.5892   32.6879   47.1739 H   0  0  0  0  0  0  0  0  0  0  0  0
  1  2  1  0
  2  3  2  0
  3  4  1  0
  4  5  2  0
  5  6  1  0
  6  7  1  0
  7  8  2  0
  7  9  1  0
  9 10  2  0
 10 11  1  0
 11 12  2  0
 12 13  1  0
 13 14  1  0
 13 15  2  0
 15 16  1  0
 16 17  1  0
 16 18  1  0
  5 19  1  0
 19 20  2  0
 20 21  1  0
 21 22  2  0
 21 23  1  0
 23 24  1  0
 24 25  2  0
 25 26  1  0
 26 27  2  0
 27 28  1  0
 28 29  2  0
 20  2  1  0
 29 24  1  0
 15  9  1  0
  1 30  1  0
  1 31  1  0
  1 32  1  0
  3 33  1  0
  4 34  1  0
  6 35  1  0
 10 36  1  0
 11 37  1  0
 12 38  1  0
 14 39  1  0
 14 40  1  0
 14 41  1  0
 16 42  1  0
 17 43  1  0
 17 44  1  0
 17 45  1  0
 18 46  1  0
 18 47  1  0
 18 48  1  0
 19 49  1  0
 25 50  1  0
 26 51  1  0
 27 52  1  0
 29 53  1  0
M  CHG  1  23  -1
M  END
>  <UniqueID>  (41) 
41

>  <SMILES>  (41) 
Cc1ccc(NC(=O)c2cccc(C)c2C(C)C)cc1C(=O)[N-]c1cccnc1

>  <Energy>  (41) 
78.60632805509316

>  <Genealogy>  (41) 
Cc1ccc(NC(=O)c2cccc(C)c2C(C)C)cc1C(=O)[N-]c1cccnc1 (protonated)
Cc1ccc(NC(=O)c2cccc(C)c2C(C)C)cc1C(=O)[N-]c1cccnc1 (3D coordinates assigned)
Cc1ccc(NC(=O)c2cccc(C)c2C(C)C)cc1C(=O)[N-]c1cccnc1 (optimized conformer: 78.60632805509316 kcal/mol)

>  <smiles>  (41) 
Cc1ccc(NC(=O)c2cccc(C)c2C(C)C)cc1C(=O)Nc1cccnc1

>  <score_type>  (41) 
oracle

>  <origin>  (41) 
adg

>  <m_score__min__energy>  (41) 
-11.220000000000001

>  <m_primary>  (41) 
energy

$$$$
41:0
     RDKit          3D

 45 47  0  0  0  0  0  0  0  0999 V2000
   58.9134   35.6602   47.7732 H   0  0  0  0  0  0  0  0  0  0  0  0
   59.2510   35.1500   46.8590 C   0  0  0  0  0  0  0  0  0  0  0  0
   59.6450   35.8340   45.8770 O   0  0  0  0  0  0  0  0  0  0  0  0
   59.2350   33.6630   46.8020 C   0  0  0  0  0  0  0  0  0  0  0  0
   60.2350   32.9580   47.4910 C   0  0  0  0  0  0  0  0  0  0  0  0
   61.0050   33.5078   48.0522 H   0  0  0  0  0  0  0  0  0  0  0  0
   60.2560   31.5710   47.4670 C   0  0  0  0  0  0  0  0  0  0  0  0
   61.0452   31.0258   48.0053 H   0  0  0  0  0  0  0  0  0  0  0  0
   59.2790   30.8640   46.7620 C   0  0  0  0  0  0  0  0  0  0  0  0
   59.3060   29.3810   46.7250 C   0  0  0  0  0  0  0  0  0  0  0  0
   59.0290   28.7400   47.7750 O   0  0  0  0  0  0  0  0  0  0  0  0
   59.6160   28.6520   45.4700 C   0  0  0  0  0  0  0  0  0  0  0  0
   59.8918   29.2531   44.5910 H   0  0  0  0  0  0  0  0  0  0  0  0
   59.5870   27.3180   45.3210 C   0  0  0  0  0  0  0  0  0  0  0  0
   60.5017   26.8320   44.9509 H   0  0  0  0  0  0  0  0  0  0  0  0
   58.4280   26.4480   45.6130 C   0  0  0  0  0  0  0  0  0  0  0  0
   58.6430   25.1110   45.9590 C   0  0  0  0  0  0  0  0  0  0  0  0
   59.6670   24.7096   45.9792 H   0  0  0  0  0  0  0  0  0  0  0  0
   57.5670   24.2820   46.2790 C   0  0  0  0  0  0  0  0  0  0  0  0
   57.7534   23.2285   46.5348 H   0  0  0  0  0  0  0  0  0  0  0  0
   56.2450   24.7720   46.2800 C   0  0  0  0  0  0  0  0  0  0  0  0
   55.1430   23.8810   46.6030 N   0  0  0  0  0  0  0  0  0  0  0  0
   55.0610   23.0530   47.7990 C   0  0  0  0  0  0  0  0  0  0  0  0
   55.7748   22.2184   47.7360 H   0  0  0  0  0  0  0  0  0  0  0  0
   55.3095   23.6262   48.7043 H   0  0  0  0  0  0  0  0  0  0  0  0
   53.6330   22.5260   47.8460 C   0  0  0  0  0  0  0  0  0  0  0  0
   53.6221   21.4714   48.1585 H   0  0  0  0  0  0  0  0  0  0  0  0
   53.0161   23.0798   48.5691 H   0  0  0  0  0  0  0  0  0  0  0  0
   53.1040   22.6660   46.4270 C   0  0  0  0  0  0  0  0  0  0  0  0
   53.2339   21.7247   45.8728 H   0  0  0  0  0  0  0  0  0  0  0  0
   52.0291   22.8990   46.4114 H   0  0  0  0  0  0  0  0  0  0  0  0
   53.9340   23.7750   45.7960 C   0  0  0  0  0  0  0  0  0  0  0  0
   54.1891   23.5177   44.7574 H   0  0  0  0  0  0  0  0  0  0  0  0
   53.3822   24.7262   45.7703 H   0  0  0  0  0  0  0  0  0  0  0  0
   56.0400   26.1400   45.9730 C   0  0  0  0  0  0  0  0  0  0  0  0
   54.7730   26.7120   46.0000 O   0  0  0  0  0  0  0  0  0  0  0  0
   57.1250   26.9630   45.6500 C   0  0  0  0  0  0  0  0  0  0  0  0
   56.9533   28.0255   45.4227 H   0  0  0  0  0  0  0  0  0  0  0  0
   58.2850   31.5900   46.0710 C   0  0  0  0  0  0  0  0  0  0  0  0
   57.3930   30.9560   45.4420 O   0  0  0  0  0  0  0  0  0  0  0  0
   58.2750   32.9690   46.0930 N   0  0  0  0  0  0  0  0  0  0  0  0
   57.2250   33.7050   45.3610 C   0  0  0  0  0  0  0  0  0  0  0  0
   56.5432   34.1829   46.0799 H   0  0  0  0  0  0  0  0  0  0  0  0
   57.6903   34.4757   44.7289 H   0  0  0  0  0  0  0  0  0  0  0  0
   56.6592   33.0048   44.7289 H   0  0  0  0  0  0  0  0  0  0  0  0
  1  2  1  0
  2  3  2  0
  2  4  1  0
  4  5  2  0
  5  6  1  0
  5  7  1  0
  7  8  1  0
  7  9  2  0
  9 10  1  0
 10 11  2  0
 10 12  1  0
 12 13  1  0
 12 14  2  0
 14 15  1  0
 14 16  1  0
 16 17  2  0
 17 18  1  0
 17 19  1  0
 19 20  1  0
 19 21  2  0
 21 22  1  0
 22 23  1  0
 23 24  1  0
 23 25  1  0
 23 26  1  0
 26 27  1  0
 26 28  1  0
 26 29  1  0
 29 30  1  0
 29 31  1  0
 29 32  1  0
 32 33  1  0
 32 34  1  0
 21 35  1  0
 35 36  1  0
 35 37  2  0
 37 38  1  0
  9 39  1  0
 39 40  2  0
 39 41  1  0
 41 42  1  0
 42 43  1  0
 42 44  1  0
 42 45  1  0
 41  4  1  0
 37 16  1  0
 32 22  1  0
M  CHG  1  36  -1
M  END
>  <UniqueID>  (42) 
42

>  <SMILES>  (42) 
Cn1c(C=O)ccc(C(=O)/C=C\c2ccc(N3CCCC3)c([O-])c2)c1=O

>  <Energy>  (42) 
70.40250264153721

>  <Genealogy>  (42) 
Cn1c(C=O)ccc(C(=O)C=Cc2ccc(N3CCCC3)c([O-])c2)c1=O (protonated)
Cn1c(C=O)ccc(C(=O)/C=C\c2ccc(N3CCCC3)c([O-])c2)c1=O (cis-trans isomerization)
Cn1c(C=O)ccc(C(=O)/C=C\c2ccc(N3CCCC3)c([O-])c2)c1=O (3D coordinates assigned)
Cn1c(C=O)ccc(C(=O)/C=C\c2ccc(N3CCCC3)c([O-])c2)c1=O (nonaromatic ring conformer: 70.40250264153721 kcal/mol)

>  <smiles>  (42) 
Cn1c(C=O)ccc(C(=O)C=Cc2ccc(N3CCCC3)c(O)c2)c1=O

>  <score_type>  (42) 
oracle

>  <origin>  (42) 
adg

>  <m_score__min__energy>  (42) 
-12.01

>  <m_primary>  (42) 
energy

$$$$
42:0
     RDKit          3D

 20 21  0  0  0  0  0  0  0  0999 V2000
   57.7720   29.1390   53.8730 N   0  0  0  0  0  0  0  0  0  0  0  0
   57.0970   29.4910   52.6630 C   0  0  0  0  0  0  0  0  0  0  0  0
   57.6990   29.3500   51.5650 O   0  0  0  0  0  0  0  0  0  0  0  0
   55.7160   30.0140   52.6720 C   0  0  0  0  0  0  0  0  0  0  0  0
   55.1950   30.8810   51.7110 C   0  0  0  0  0  0  0  0  0  0  0  0
   53.8930   31.1080   52.1000 C   0  0  0  0  0  0  0  0  0  0  0  0
   52.8970   31.8910   51.5230 C   0  0  0  0  0  0  0  0  0  0  0  0
   51.6410   31.9300   52.1580 C   0  0  0  0  0  0  0  0  0  0  0  0
   50.6180   32.6970   51.6180 O   0  0  0  0  0  0  0  0  0  0  0  0
   51.4170   31.1910   53.3420 C   0  0  0  0  0  0  0  0  0  0  0  0
   52.4450   30.4090   53.9010 C   0  0  0  0  0  0  0  0  0  0  0  0
   53.6780   30.3920   53.2480 C   0  0  0  0  0  0  0  0  0  0  0  0
   54.7820   29.7170   53.6100 N   0  0  0  0  0  0  0  0  0  0  0  0
   58.7490   28.7710   53.8360 H   0  0  0  0  0  0  0  0  0  0  0  0
   57.3200   29.2360   54.8070 H   0  0  0  0  0  0  0  0  0  0  0  0
   55.7122   31.2941   50.8324 H   0  0  0  0  0  0  0  0  0  0  0  0
   53.0852   32.4607   50.6010 H   0  0  0  0  0  0  0  0  0  0  0  0
   50.4319   31.2274   53.8301 H   0  0  0  0  0  0  0  0  0  0  0  0
   52.2818   29.8304   54.8222 H   0  0  0  0  0  0  0  0  0  0  0  0
   54.8790   29.0990   54.4440 H   0  0  0  0  0  0  0  0  0  0  0  0
  1  2  1  0
  2  3  2  0
  2  4  1  0
  4  5  2  0
  5  6  1  0
  6  7  2  0
  7  8  1  0
  8  9  1  0
  8 10  2  0
 10 11  1  0
 11 12  2  0
 12 13  1  0
 13  4  1  0
 12  6  1  0
  1 14  1  0
  1 15  1  0
  5 16  1  0
  7 17  1  0
 10 18  1  0
 11 19  1  0
 13 20  1  0
M  CHG  1   9  -1
M  END
>  <UniqueID>  (43) 
43

>  <SMILES>  (43) 
NC(=O)c1cc2cc([O-])ccc2[nH]1

>  <Energy>  (43) 
51.991470950501885

>  <Genealogy>  (43) 
NC(=O)c1cc2cc([O-])ccc2[nH]1 (protonated)
NC(=O)c1cc2cc([O-])ccc2[nH]1 (3D coordinates assigned)
NC(=O)c1cc2cc([O-])ccc2[nH]1 (optimized conformer: 51.991470950501885 kcal/mol)

>  <smiles>  (43) 
NC(=O)c1cc2cc(O)ccc2[nH]1

>  <score_type>  (43) 
oracle

>  <origin>  (43) 
adg

>  <m_score__min__energy>  (43) 
-9.1600000000000001

>  <m_primary>  (43) 
energy

$$$$
43:0
     RDKit          3D

 31 33  0  0  0  0  0  0  0  0999 V2000
   59.4917   30.0685   43.5642 H   0  0  0  0  0  0  0  0  0  0  0  0
   58.6340   29.6860   44.1370 C   0  0  0  0  0  0  0  0  0  0  0  0
   57.9970   28.1330   44.0370 S   0  0  0  0  0  0  0  0  0  0  0  0
   56.7910   28.4420   45.1730 C   0  0  0  0  0  0  0  0  0  0  0  0
   55.9150   27.5900   45.6190 N   0  0  0  0  0  0  0  0  0  0  0  0
   56.1840   26.2500   46.0550 C   0  0  0  0  0  0  0  0  0  0  0  0
   55.2150   25.4990   46.3400 O   0  0  0  0  0  0  0  0  0  0  0  0
   57.5550   25.6960   46.0670 C   0  0  0  0  0  0  0  0  0  0  0  0
   57.9460   25.0010   45.0920 O   0  0  0  0  0  0  0  0  0  0  0  0
   58.4150   25.8340   47.2070 N   0  0  0  0  0  0  0  0  0  0  0  0
   58.9250   26.9440   47.6520 C   0  0  0  0  0  0  0  0  0  0  0  0
   60.4200   27.1260   48.4170 S   0  0  0  0  0  0  0  0  0  0  0  0
   60.2010   28.7750   48.6850 C   0  0  0  0  0  0  0  0  0  0  0  0
   60.9172   29.4501   49.1762 H   0  0  0  0  0  0  0  0  0  0  0  0
   58.9570   29.1340   48.1770 C   0  0  0  0  0  0  0  0  0  0  0  0
   58.5710   30.1628   48.2278 H   0  0  0  0  0  0  0  0  0  0  0  0
   58.2550   28.1160   47.6130 N   0  0  0  0  0  0  0  0  0  0  0  0
   57.3020   28.2310   47.2010 H   0  0  0  0  0  0  0  0  0  0  0  0
   56.8670   29.7030   45.6450 N   0  0  0  0  0  0  0  0  0  0  0  0
   57.8860   30.4090   45.0740 C   0  0  0  0  0  0  0  0  0  0  0  0
   58.1430   31.8270   45.4410 C   0  0  0  0  0  0  0  0  0  0  0  0
   59.1230   32.1770   46.3920 C   0  0  0  0  0  0  0  0  0  0  0  0
   59.7176   31.3896   46.8782 H   0  0  0  0  0  0  0  0  0  0  0  0
   59.3450   33.5180   46.7220 C   0  0  0  0  0  0  0  0  0  0  0  0
   60.1145   33.7807   47.4629 H   0  0  0  0  0  0  0  0  0  0  0  0
   58.5920   34.5240   46.1130 C   0  0  0  0  0  0  0  0  0  0  0  0
   58.7689   35.5780   46.3734 H   0  0  0  0  0  0  0  0  0  0  0  0
   57.6140   34.1910   45.1730 C   0  0  0  0  0  0  0  0  0  0  0  0
   57.0206   34.9837   44.6940 H   0  0  0  0  0  0  0  0  0  0  0  0
   57.3880   32.8530   44.8400 C   0  0  0  0  0  0  0  0  0  0  0  0
   56.6133   32.5985   44.1017 H   0  0  0  0  0  0  0  0  0  0  0  0
  1  2  1  0
  2  3  1  0
  3  4  1  0
  4  5  2  0
  5  6  1  0
  6  7  2  0
  6  8  1  0
  8  9  2  0
  8 10  1  0
 10 11  2  3
 11 12  1  0
 12 13  1  0
 13 14  1  0
 13 15  2  0
 15 16  1  0
 15 17  1  0
 17 18  1  0
  4 19  1  0
 19 20  1  0
 20 21  1  0
 21 22  2  0
 22 23  1  0
 22 24  1  0
 24 25  1  0
 24 26  2  0
 26 27  1  0
 26 28  1  0
 28 29  1  0
 28 30  2  0
 30 31  1  0
 20  2  2  0
 30 21  1  0
 17 11  1  0
M  CHG  1  19  -1
M  END
>  <UniqueID>  (44) 
44

>  <SMILES>  (44) 
O=C(N=c1[nH]ccs1)C(=O)/N=c1/[n-]c(-c2ccccc2)cs1

>  <Energy>  (44) 
109.24706818545978

>  <Genealogy>  (44) 
O=C(N=c1[n-]c(-c2ccccc2)cs1)C(=O)N=c1[nH]ccs1 (protonated)
O=C(N=c1[nH]ccs1)C(=O)/N=c1/[n-]c(-c2ccccc2)cs1 (cis-trans isomerization)
O=C(N=c1[nH]ccs1)C(=O)/N=c1/[n-]c(-c2ccccc2)cs1 (3D coordinates assigned)
O=C(N=c1[nH]ccs1)C(=O)/N=c1/[n-]c(-c2ccccc2)cs1 (optimized conformer: 109.24706818545978 kcal/mol)

>  <smiles>  (44) 
O=C(N=c1[nH]ccs1)C(=O)N=c1[nH]c(-c2ccccc2)cs1

>  <score_type>  (44) 
oracle

>  <origin>  (44) 
adg

>  <m_score__min__energy>  (44) 
-9.4700000000000006

>  <m_primary>  (44) 
energy

$$$$
44:0
     RDKit          3D

 42 44  0  0  0  0  0  0  0  0999 V2000
   59.4650   26.8780   47.1830 C   0  0  0  0  0  0  0  0  0  0  0  0
   58.0890   26.9750   46.5890 C   0  0  0  0  0  0  0  0  0  0  0  0
   57.2670   25.8980   46.7040 N   0  0  0  0  0  0  0  0  0  0  0  0
   55.9980   25.9200   46.2280 C   0  0  0  0  0  0  0  0  0  0  0  0
   55.2650   24.9040   46.3430 O   0  0  0  0  0  0  0  0  0  0  0  0
   55.5170   27.0370   45.6300 N   0  0  0  0  0  0  0  0  0  0  0  0
   56.2860   28.1480   45.4920 C   0  0  0  0  0  0  0  0  0  0  0  0
   55.7940   29.1620   44.9320 O   0  0  0  0  0  0  0  0  0  0  0  0
   57.6120   28.1540   45.9700 C   0  0  0  0  0  0  0  0  0  0  0  0
   58.6640   29.5720   45.7540 S   0  0  0  0  0  0  0  0  0  0  0  0
   59.5300   29.8230   46.9560 O   0  0  0  0  0  0  0  0  0  0  0  0
   59.5620   29.3380   44.5730 O   0  0  0  0  0  0  0  0  0  0  0  0
   57.6760   30.9640   45.4500 N   0  0  0  0  0  0  0  0  0  0  0  0
   58.0780   32.3220   45.6800 C   0  0  0  0  0  0  0  0  0  0  0  0
   58.1740   33.2420   44.6200 C   0  0  0  0  0  0  0  0  0  0  0  0
   58.5840   34.5550   44.8570 C   0  0  0  0  0  0  0  0  0  0  0  0
   58.8980   34.9660   46.1520 C   0  0  0  0  0  0  0  0  0  0  0  0
   58.8060   34.0650   47.2130 C   0  0  0  0  0  0  0  0  0  0  0  0
   58.4020   32.7350   46.9890 C   0  0  0  0  0  0  0  0  0  0  0  0
   58.3570   31.7940   48.0760 N   0  0  0  0  0  0  0  0  0  0  0  0
   59.3400   31.9660   49.4950 S   0  0  0  0  0  0  0  0  0  0  0  0
   58.7330   33.0080   50.3910 O   0  0  0  0  0  0  0  0  0  0  0  0
   59.3880   30.6540   50.2280 O   0  0  0  0  0  0  0  0  0  0  0  0
   60.9820   32.4170   49.0380 C   0  0  0  0  0  0  0  0  0  0  0  0
   61.6030   33.5340   49.6160 C   0  0  0  0  0  0  0  0  0  0  0  0
   62.8980   33.8950   49.2310 C   0  0  0  0  0  0  0  0  0  0  0  0
   63.5800   33.1420   48.2700 C   0  0  0  0  0  0  0  0  0  0  0  0
   64.8340   33.4960   47.8950 F   0  0  0  0  0  0  0  0  0  0  0  0
   62.9670   32.0250   47.6950 C   0  0  0  0  0  0  0  0  0  0  0  0
   61.6730   31.6620   48.0790 C   0  0  0  0  0  0  0  0  0  0  0  0
   59.3918   26.8832   48.2805 H   0  0  0  0  0  0  0  0  0  0  0  0
   59.9424   25.9440   46.8518 H   0  0  0  0  0  0  0  0  0  0  0  0
   60.0687   27.7358   46.8518 H   0  0  0  0  0  0  0  0  0  0  0  0
   57.9241   32.9243   43.5970 H   0  0  0  0  0  0  0  0  0  0  0  0
   58.6595   35.2663   44.0213 H   0  0  0  0  0  0  0  0  0  0  0  0
   59.2186   36.0018   46.3371 H   0  0  0  0  0  0  0  0  0  0  0  0
   59.0511   34.3963   48.2329 H   0  0  0  0  0  0  0  0  0  0  0  0
   57.8660   30.8810   47.9490 H   0  0  0  0  0  0  0  0  0  0  0  0
   61.0702   34.1273   50.3737 H   0  0  0  0  0  0  0  0  0  0  0  0
   63.3811   34.7729   49.6849 H   0  0  0  0  0  0  0  0  0  0  0  0
   63.5033   31.4314   46.9400 H   0  0  0  0  0  0  0  0  0  0  0  0
   61.1946   30.7805   47.6272 H   0  0  0  0  0  0  0  0  0  0  0  0
  1  2  1  0
  2  3  1  0
  3  4  1  0
  4  5  2  0
  4  6  1  0
  6  7  1  0
  7  8  2  0
  7  9  1  0
  9 10  1  0
 10 11  2  0
 10 12  2  0
 10 13  1  0
 13 14  1  0
 14 15  2  0
 15 16  1  0
 16 17  2  0
 17 18  1  0
 18 19  2  0
 19 20  1  0
 20 21  1  0
 21 22  2  0
 21 23  2  0
 21 24  1  0
 24 25  2  0
 25 26  1  0
 26 27  2  0
 27 28  1  0
 27 29  1  0
 29 30  2  0
  9  2  2  0
 19 14  1  0
 30 24  1  0
  1 31  1  0
  1 32  1  0
  1 33  1  0
 15 34  1  0
 16 35  1  0
 17 36  1  0
 18 37  1  0
 20 38  1  0
 25 39  1  0
 26 40  1  0
 29 41  1  0
 30 42  1  0
M  CHG  3   3  -1   6  -1  13  -1
M  END
>  <UniqueID>  (45) 
45

>  <SMILES>  (45) 
Cc1[n-]c(=O)[n-]c(=O)c1S(=O)(=O)[N-]c1ccccc1NS(=O)(=O)c1ccc(F)cc1

>  <Energy>  (45) 
54.466639985229534

>  <Genealogy>  (45) 
Cc1[n-]c(=O)[n-]c(=O)c1S(=O)(=O)[N-]c1ccccc1NS(=O)(=O)c1ccc(F)cc1 (protonated)
Cc1[n-]c(=O)[n-]c(=O)c1S(=O)(=O)[N-]c1ccccc1NS(=O)(=O)c1ccc(F)cc1 (3D coordinates assigned)
Cc1[n-]c(=O)[n-]c(=O)c1S(=O)(=O)[N-]c1ccccc1NS(=O)(=O)c1ccc(F)cc1 (optimized conformer: 54.466639985229534 kcal/mol)

>  <smiles>  (45) 
Cc1[nH]c(=O)[nH]c(=O)c1S(=O)(=O)Nc1ccccc1NS(=O)(=O)c1ccc(F)cc1

>  <score_type>  (45) 
oracle

>  <origin>  (45) 
adg

>  <m_score__min__energy>  (45) 
-15.289999999999999

>  <m_primary>  (45) 
energy

$$$$
45:0
     RDKit          3D

 37 38  0  0  0  0  0  0  0  0999 V2000
   63.2800   34.1680   48.3530 O   0  0  0  0  0  0  0  0  0  0  0  0
   62.7080   33.5280   47.4460 N   0  0  0  0  0  0  0  0  0  0  0  0
   62.9840   33.8230   46.1320 O   0  0  0  0  0  0  0  0  0  0  0  0
   61.7780   32.5490   47.7390 O   0  0  0  0  0  0  0  0  0  0  0  0
   60.4760   32.8520   48.2340 C   0  0  0  0  0  0  0  0  0  0  0  0
   59.5750   33.2800   47.1090 C   0  0  0  0  0  0  0  0  0  0  0  0
   59.7020   34.5670   46.5640 C   0  0  0  0  0  0  0  0  0  0  0  0
   58.8890   34.9640   45.5000 C   0  0  0  0  0  0  0  0  0  0  0  0
   57.9440   34.0810   44.9730 C   0  0  0  0  0  0  0  0  0  0  0  0
   57.8020   32.7940   45.5070 C   0  0  0  0  0  0  0  0  0  0  0  0
   56.8210   31.9210   44.9350 N   0  0  0  0  0  0  0  0  0  0  0  0
   57.0940   30.8310   43.6140 S   0  0  0  0  0  0  0  0  0  0  0  0
   57.5930   31.5810   42.4100 O   0  0  0  0  0  0  0  0  0  0  0  0
   55.8060   30.1340   43.2780 O   0  0  0  0  0  0  0  0  0  0  0  0
   58.2940   29.6280   44.0840 C   0  0  0  0  0  0  0  0  0  0  0  0
   58.3830   29.1010   45.3120 C   0  0  0  0  0  0  0  0  0  0  0  0
   57.7470   27.8310   45.7160 C   0  0  0  0  0  0  0  0  0  0  0  0
   58.5310   26.7600   46.1790 C   0  0  0  0  0  0  0  0  0  0  0  0
   57.9260   25.5680   46.5830 C   0  0  0  0  0  0  0  0  0  0  0  0
   56.5400   25.4270   46.5120 C   0  0  0  0  0  0  0  0  0  0  0  0
   55.7510   26.4750   46.0260 C   0  0  0  0  0  0  0  0  0  0  0  0
   54.3710   26.3130   45.9520 O   0  0  0  0  0  0  0  0  0  0  0  0
   56.3510   27.6800   45.6200 C   0  0  0  0  0  0  0  0  0  0  0  0
   55.5730   28.7350   45.1380 O   0  0  0  0  0  0  0  0  0  0  0  0
   58.6260   32.3940   46.5740 C   0  0  0  0  0  0  0  0  0  0  0  0
   60.0542   31.9578   48.7162 H   0  0  0  0  0  0  0  0  0  0  0  0
   60.5528   33.6729   48.9622 H   0  0  0  0  0  0  0  0  0  0  0  0
   60.4447   35.2658   46.9764 H   0  0  0  0  0  0  0  0  0  0  0  0
   58.9932   35.9738   45.0764 H   0  0  0  0  0  0  0  0  0  0  0  0
   57.3076   34.3981   44.1337 H   0  0  0  0  0  0  0  0  0  0  0  0
   59.0127   29.2900   43.3230 H   0  0  0  0  0  0  0  0  0  0  0  0
   58.9664   29.6485   46.0669 H   0  0  0  0  0  0  0  0  0  0  0  0
   59.6254   26.8613   46.2233 H   0  0  0  0  0  0  0  0  0  0  0  0
   58.5436   24.7386   46.9580 H   0  0  0  0  0  0  0  0  0  0  0  0
   56.0664   24.4896   46.8389 H   0  0  0  0  0  0  0  0  0  0  0  0
   54.7650   28.5830   44.5470 H   0  0  0  0  0  0  0  0  0  0  0  0
   58.5266   31.3813   46.9919 H   0  0  0  0  0  0  0  0  0  0  0  0
  1  2  2  0
  2  3  1  0
  2  4  1  0
  4  5  1  0
  5  6  1  0
  6  7  2  0
  7  8  1  0
  8  9  2  0
  9 10  1  0
 10 11  1  0
 11 12  1  0
 12 13  2  0
 12 14  2  0
 12 15  1  0
 15 16  2  3
 16 17  1  0
 17 18  2  0
 18 19  1  0
 19 20  2  0
 20 21  1  0
 21 22  1  0
 21 23  2  0
 23 24  1  0
 10 25  2  0
 25  6  1  0
 23 17  1  0
  5 26  1  0
  5 27  1  0
  7 28  1  0
  8 29  1  0
  9 30  1  0
 15 31  1  0
 16 32  1  0
 18 33  1  0
 19 34  1  0
 20 35  1  0
 24 36  1  0
 25 37  1  0
M  CHG  4   2   1   3  -1  11  -1  22  -1
M  END
>  <UniqueID>  (46) 
46

>  <SMILES>  (46) 
O=[N+]([O-])OCc1cccc([N-]S(=O)(=O)C=Cc2cccc([O-])c2O)c1

>  <Energy>  (46) 
45.40605364341502

>  <Genealogy>  (46) 
O=[N+]([O-])OCc1cccc([N-]S(=O)(=O)C=Cc2cccc([O-])c2O)c1 (protonated)
O=[N+]([O-])OCc1cccc([N-]S(=O)(=O)C=Cc2cccc([O-])c2O)c1 (3D coordinates assigned)
O=[N+]([O-])OCc1cccc([N-]S(=O)(=O)C=Cc2cccc([O-])c2O)c1 (optimized conformer: 45.40605364341502 kcal/mol)

>  <smiles>  (46) 
O=[N+]([O-])OCc1cccc(NS(=O)(=O)C=Cc2cccc(O)c2O)c1

>  <score_type>  (46) 
oracle

>  <origin>  (46) 
adg

>  <m_score__min__energy>  (46) 
-14.789999999999999

>  <m_primary>  (46) 
energy

$$$$
46:0
     RDKit          3D

 43 45  0  0  0  0  0  0  0  0999 V2000
   57.0809   19.4450   46.1796 H   0  0  0  0  0  0  0  0  0  0  0  0
   57.0960   20.4950   45.8520 C   0  0  0  0  0  0  0  0  0  0  0  0
   57.3910   21.4790   46.7410 N   0  0  0  0  0  0  0  0  0  0  0  0
   57.4270   22.7930   46.3780 C   0  0  0  0  0  0  0  0  0  0  0  0
   57.7110   23.7230   47.2430 N   0  0  0  0  0  0  0  0  0  0  0  0
   57.1800   25.0570   47.2580 C   0  0  0  0  0  0  0  0  0  0  0  0
   55.9480   25.2240   47.0650 O   0  0  0  0  0  0  0  0  0  0  0  0
   58.0090   26.2090   47.4730 N   0  0  0  0  0  0  0  0  0  0  0  0
   58.3730   27.1920   46.4930 C   0  0  0  0  0  0  0  0  0  0  0  0
   59.7040   27.2630   46.0650 C   0  0  0  0  0  0  0  0  0  0  0  0
   60.4519   26.5770   46.4893 H   0  0  0  0  0  0  0  0  0  0  0  0
   60.0880   28.1990   45.1030 C   0  0  0  0  0  0  0  0  0  0  0  0
   61.1354   28.2460   44.7703 H   0  0  0  0  0  0  0  0  0  0  0  0
   59.1450   29.0760   44.5620 C   0  0  0  0  0  0  0  0  0  0  0  0
   59.4494   29.8064   43.7979 H   0  0  0  0  0  0  0  0  0  0  0  0
   57.8120   29.0270   44.9910 C   0  0  0  0  0  0  0  0  0  0  0  0
   56.6170   30.1390   44.3310 S   0  0  0  0  0  0  0  0  0  0  0  0
   55.2550   29.7450   44.8290 O   0  0  0  0  0  0  0  0  0  0  0  0
   56.6200   30.0590   42.8290 O   0  0  0  0  0  0  0  0  0  0  0  0
   56.9870   31.7600   44.8600 N   0  0  0  0  0  0  0  0  0  0  0  0
   57.8300   31.7500   46.0540 C   0  0  0  0  0  0  0  0  0  0  0  0
   57.2062   31.7019   46.9587 H   0  0  0  0  0  0  0  0  0  0  0  0
   58.4961   30.8746   46.0621 H   0  0  0  0  0  0  0  0  0  0  0  0
   58.6270   33.0460   46.0340 C   0  0  0  0  0  0  0  0  0  0  0  0
   58.1712   33.7889   46.7051 H   0  0  0  0  0  0  0  0  0  0  0  0
   59.6607   32.8967   46.3791 H   0  0  0  0  0  0  0  0  0  0  0  0
   58.5750   33.5280   44.5920 C   0  0  0  0  0  0  0  0  0  0  0  0
   58.0914   34.5143   44.5332 H   0  0  0  0  0  0  0  0  0  0  0  0
   59.5811   33.6392   44.1615 H   0  0  0  0  0  0  0  0  0  0  0  0
   57.7530   32.4870   43.8470 C   0  0  0  0  0  0  0  0  0  0  0  0
   57.0725   32.9780   43.1358 H   0  0  0  0  0  0  0  0  0  0  0  0
   58.3989   31.8068   43.2724 H   0  0  0  0  0  0  0  0  0  0  0  0
   57.4340   28.1010   45.9720 C   0  0  0  0  0  0  0  0  0  0  0  0
   56.3965   28.0845   46.3372 H   0  0  0  0  0  0  0  0  0  0  0  0
   57.1320   23.1520   45.0580 C   0  0  0  0  0  0  0  0  0  0  0  0
   57.1268   24.2111   44.7609 H   0  0  0  0  0  0  0  0  0  0  0  0
   56.8430   22.1540   44.1160 C   0  0  0  0  0  0  0  0  0  0  0  0
   56.5010   22.5250   42.7030 C   0  0  0  0  0  0  0  0  0  0  0  0
   55.7554   23.3338   42.7065 H   0  0  0  0  0  0  0  0  0  0  0  0
   57.4088   22.8654   42.1833 H   0  0  0  0  0  0  0  0  0  0  0  0
   56.0880   21.6479   42.1833 H   0  0  0  0  0  0  0  0  0  0  0  0
   56.8120   20.8150   44.5230 C   0  0  0  0  0  0  0  0  0  0  0  0
   56.5660   20.0216   43.8019 H   0  0  0  0  0  0  0  0  0  0  0  0
  1  2  1  0
  2  3  1  0
  3  4  1  0
  4  5  2  0
  5  6  1  0
  6  7  2  0
  6  8  1  0
  8  9  1  0
  9 10  2  0
 10 11  1  0
 10 12  1  0
 12 13  1  0
 12 14  2  0
 14 15  1  0
 14 16  1  0
 16 17  1  0
 17 18  2  0
 17 19  2  0
 17 20  1  0
 20 21  1  0
 21 22  1  0
 21 23  1  0
 21 24  1  0
 24 25  1  0
 24 26  1  0
 24 27  1  0
 27 28  1  0
 27 29  1  0
 27 30  1  0
 30 31  1  0
 30 32  1  0
 16 33  2  0
 33 34  1  0
  4 35  1  0
 35 36  1  0
 35 37  2  0
 37 38  1  0
 38 39  1  0
 38 40  1  0
 38 41  1  0
 37 42  1  0
 42 43  1  0
 42  2  2  0
 33  9  1  0
 30 20  1  0
M  CHG  2   3  -1   8  -1
M  END
>  <UniqueID>  (47) 
47

>  <SMILES>  (47) 
Cc1cc[n-]/c(=N\C(=O)[N-]c2cccc(S(=O)(=O)N3CCCC3)c2)c1

>  <Energy>  (47) 
52.11302765372151

>  <Genealogy>  (47) 
Cc1cc[n-]c(=NC(=O)[N-]c2cccc(S(=O)(=O)N3CCCC3)c2)c1 (protonated)
Cc1cc[n-]/c(=N\C(=O)[N-]c2cccc(S(=O)(=O)N3CCCC3)c2)c1 (cis-trans isomerization)
Cc1cc[n-]/c(=N\C(=O)[N-]c2cccc(S(=O)(=O)N3CCCC3)c2)c1 (3D coordinates assigned)
Cc1cc[n-]/c(=N\C(=O)[N-]c2cccc(S(=O)(=O)N3CCCC3)c2)c1 (nonaromatic ring conformer: 52.11302765372151 kcal/mol)

>  <smiles>  (47) 
Cc1cc[nH]c(=NC(=O)Nc2cccc(S(=O)(=O)N3CCCC3)c2)c1

>  <score_type>  (47) 
oracle

>  <origin>  (47) 
adg

>  <m_score__min__energy>  (47) 
-11.56

>  <m_primary>  (47) 
energy

$$$$
47:0
     RDKit          3D

 45 47  0  0  0  0  0  0  0  0999 V2000
   56.9350   30.8220   43.0660 C   0  0  0  0  0  0  0  0  0  0  0  0
   58.0400   31.1830   44.0590 C   0  0  0  0  0  0  0  0  0  0  0  0
   57.7000   30.7540   45.4930 C   0  0  0  0  0  0  0  0  0  0  0  0
   58.0810   29.3230   45.7520 C   0  0  0  0  0  0  0  0  0  0  0  0
   57.1650   28.3320   45.8850 N   0  0  0  0  0  0  0  0  0  0  0  0
   57.8920   27.2180   46.1050 C   0  0  0  0  0  0  0  0  0  0  0  0
   57.4550   25.8880   46.2630 C   0  0  0  0  0  0  0  0  0  0  0  0
   56.0260   25.5020   46.3170 C   0  0  0  0  0  0  0  0  0  0  0  0
   54.9990   26.4360   45.9930 N   0  0  0  0  0  0  0  0  0  0  0  0
   55.7020   24.3430   46.6930 O   0  0  0  0  0  0  0  0  0  0  0  0
   58.4590   24.8980   46.3850 C   0  0  0  0  0  0  0  0  0  0  0  0
   59.8260   25.2430   46.3610 C   0  0  0  0  0  0  0  0  0  0  0  0
   60.2230   26.5800   46.2130 C   0  0  0  0  0  0  0  0  0  0  0  0
   59.2240   27.5470   46.0920 C   0  0  0  0  0  0  0  0  0  0  0  0
   59.3580   28.8740   45.8950 N   0  0  0  0  0  0  0  0  0  0  0  0
   60.6000   29.6380   45.7350 C   0  0  0  0  0  0  0  0  0  0  0  0
   60.9280   30.3790   47.0030 C   0  0  0  0  0  0  0  0  0  0  0  0
   61.1300   29.7230   48.0610 O   0  0  0  0  0  0  0  0  0  0  0  0
   61.0530   31.8480   47.0460 C   0  0  0  0  0  0  0  0  0  0  0  0
   59.9660   32.6330   46.8030 N   0  0  0  0  0  0  0  0  0  0  0  0
   60.2540   33.9500   46.8790 C   0  0  0  0  0  0  0  0  0  0  0  0
   59.2340   35.0260   46.7310 C   0  0  0  0  0  0  0  0  0  0  0  0
   61.8670   34.2070   47.2690 S   0  0  0  0  0  0  0  0  0  0  0  0
   62.2300   32.5640   47.3090 C   0  0  0  0  0  0  0  0  0  0  0  0
   63.6030   32.0240   47.5590 C   0  0  0  0  0  0  0  0  0  0  0  0
   56.0297   30.5262   43.6164 H   0  0  0  0  0  0  0  0  0  0  0  0
   56.7112   31.6938   42.4336 H   0  0  0  0  0  0  0  0  0  0  0  0
   57.2690   29.9863   42.4336 H   0  0  0  0  0  0  0  0  0  0  0  0
   58.9694   30.6816   43.7511 H   0  0  0  0  0  0  0  0  0  0  0  0
   58.1519   32.2773   44.0535 H   0  0  0  0  0  0  0  0  0  0  0  0
   58.2446   31.4006   46.1968 H   0  0  0  0  0  0  0  0  0  0  0  0
   56.6127   30.8488   45.6299 H   0  0  0  0  0  0  0  0  0  0  0  0
   56.1320   28.4310   45.7890 H   0  0  0  0  0  0  0  0  0  0  0  0
   55.1420   27.4610   46.1300 H   0  0  0  0  0  0  0  0  0  0  0  0
   58.1685   23.8433   46.5003 H   0  0  0  0  0  0  0  0  0  0  0  0
   60.5883   24.4561   46.4593 H   0  0  0  0  0  0  0  0  0  0  0  0
   61.2872   26.8574   46.1929 H   0  0  0  0  0  0  0  0  0  0  0  0
   61.4220   28.9472   45.4960 H   0  0  0  0  0  0  0  0  0  0  0  0
   60.4685   30.3657   44.9207 H   0  0  0  0  0  0  0  0  0  0  0  0
   58.9121   35.3655   47.7265 H   0  0  0  0  0  0  0  0  0  0  0  0
   59.6702   35.8713   46.1786 H   0  0  0  0  0  0  0  0  0  0  0  0
   58.3666   34.6355   46.1786 H   0  0  0  0  0  0  0  0  0  0  0  0
   63.7782   31.9551   48.6428 H   0  0  0  0  0  0  0  0  0  0  0  0
   63.6913   31.0241   47.1090 H   0  0  0  0  0  0  0  0  0  0  0  0
   64.3488   32.6958   47.1090 H   0  0  0  0  0  0  0  0  0  0  0  0
  1  2  1  0
  2  3  1  0
  3  4  1  0
  4  5  2  0
  5  6  1  0
  6  7  2  0
  7  8  1  0
  8  9  1  0
  8 10  2  0
  7 11  1  0
 11 12  2  0
 12 13  1  0
 13 14  2  0
 14 15  1  0
 15 16  1  0
 16 17  1  0
 17 18  2  0
 17 19  1  0
 19 20  1  0
 20 21  2  0
 21 22  1  0
 21 23  1  0
 23 24  1  0
 24 25  1  0
 15  4  1  0
 24 19  2  0
 14  6  1  0
  1 26  1  0
  1 27  1  0
  1 28  1  0
  2 29  1  0
  2 30  1  0
  3 31  1  0
  3 32  1  0
  5 33  1  0
  9 34  1  0
 11 35  1  0
 12 36  1  0
 13 37  1  0
 16 38  1  0
 16 39  1  0
 22 40  1  0
 22 41  1  0
 22 42  1  0
 25 43  1  0
 25 44  1  0
 25 45  1  0
M  CHG  2   5   1   9  -1
M  END
>  <UniqueID>  (48) 
48

>  <SMILES>  (48) 
CCCc1[nH+]c2c(C([NH-])=O)cccc2n1CC(=O)c1nc(C)sc1C

>  <Energy>  (48) 
111.43216523594573

>  <Genealogy>  (48) 
CCCc1[nH+]c2c(C([NH-])=O)cccc2n1CC(=O)c1nc(C)sc1C (protonated)
CCCc1[nH+]c2c(C([NH-])=O)cccc2n1CC(=O)c1nc(C)sc1C (3D coordinates assigned)
CCCc1[nH+]c2c(C([NH-])=O)cccc2n1CC(=O)c1nc(C)sc1C (optimized conformer: 111.43216523594573 kcal/mol)

>  <smiles>  (48) 
CCCc1nc2c(C(N)=O)cccc2n1CC(=O)c1nc(C)sc1C

>  <score_type>  (48) 
oracle

>  <origin>  (48) 
adg

>  <m_score__min__energy>  (48) 
-9.6899999999999995

>  <m_primary>  (48) 
energy

$$$$
48:0
     RDKit          3D

 40 43  0  0  0  0  0  0  0  0999 V2000
   56.3330   25.1530   46.3810 C   0  0  0  0  0  0  0  0  0  0  0  0
   56.8600   26.5470   46.3370 C   0  0  0  0  0  0  0  0  0  0  0  0
   56.1910   27.5080   45.6220 N   0  0  0  0  0  0  0  0  0  0  0  0
   56.6620   28.7850   45.5340 C   0  0  0  0  0  0  0  0  0  0  0  0
   56.0340   29.6500   44.8690 O   0  0  0  0  0  0  0  0  0  0  0  0
   57.8530   29.0920   46.1880 C   0  0  0  0  0  0  0  0  0  0  0  0
   58.6040   30.2470   46.3120 C   0  0  0  0  0  0  0  0  0  0  0  0
   58.2650   31.5930   45.8190 C   0  0  0  0  0  0  0  0  0  0  0  0
   58.1400   31.8290   44.4420 C   0  0  0  0  0  0  0  0  0  0  0  0
   57.7810   33.0980   43.9750 C   0  0  0  0  0  0  0  0  0  0  0  0
   57.5480   34.1360   44.8810 C   0  0  0  0  0  0  0  0  0  0  0  0
   57.6730   33.9080   46.2540 C   0  0  0  0  0  0  0  0  0  0  0  0
   58.0300   32.6400   46.7240 C   0  0  0  0  0  0  0  0  0  0  0  0
   59.7080   29.8850   47.0950 C   0  0  0  0  0  0  0  0  0  0  0  0
   60.7550   30.8190   47.6340 C   0  0  0  0  0  0  0  0  0  0  0  0
   60.2030   31.6200   48.7820 C   0  0  0  0  0  0  0  0  0  0  0  0
   59.2950   31.0430   49.6860 C   0  0  0  0  0  0  0  0  0  0  0  0
   58.8220   31.7790   50.7770 C   0  0  0  0  0  0  0  0  0  0  0  0
   59.2500   33.0960   50.9730 C   0  0  0  0  0  0  0  0  0  0  0  0
   58.6060   34.0970   52.4670 Br  0  0  0  0  0  0  0  0  0  0  0  0
   60.1520   33.6770   50.0770 C   0  0  0  0  0  0  0  0  0  0  0  0
   60.6290   32.9440   48.9870 C   0  0  0  0  0  0  0  0  0  0  0  0
   59.6410   28.5760   47.4370 N   0  0  0  0  0  0  0  0  0  0  0  0
   58.5130   28.1140   46.8740 C   0  0  0  0  0  0  0  0  0  0  0  0
   58.0390   26.8490   46.9610 N   0  0  0  0  0  0  0  0  0  0  0  0
   56.2142   24.8388   47.4285 H   0  0  0  0  0  0  0  0  0  0  0  0
   55.3579   25.1135   45.8735 H   0  0  0  0  0  0  0  0  0  0  0  0
   57.0381   24.4783   45.8735 H   0  0  0  0  0  0  0  0  0  0  0  0
   58.3248   31.0137   43.7270 H   0  0  0  0  0  0  0  0  0  0  0  0
   57.6821   33.2787   42.8944 H   0  0  0  0  0  0  0  0  0  0  0  0
   57.2659   35.1335   44.5131 H   0  0  0  0  0  0  0  0  0  0  0  0
   57.4905   34.7265   46.9658 H   0  0  0  0  0  0  0  0  0  0  0  0
   58.1268   32.4628   47.8053 H   0  0  0  0  0  0  0  0  0  0  0  0
   61.6182   30.2332   47.9828 H   0  0  0  0  0  0  0  0  0  0  0  0
   61.0640   31.5081   46.8342 H   0  0  0  0  0  0  0  0  0  0  0  0
   58.9548   30.0079   49.5348 H   0  0  0  0  0  0  0  0  0  0  0  0
   58.1123   31.3215   51.4820 H   0  0  0  0  0  0  0  0  0  0  0  0
   60.4871   34.7135   50.2302 H   0  0  0  0  0  0  0  0  0  0  0  0
   61.3408   33.4049   48.2864 H   0  0  0  0  0  0  0  0  0  0  0  0
   60.3070   28.0430   48.0390 H   0  0  0  0  0  0  0  0  0  0  0  0
  1  2  1  0
  2  3  2  0
  3  4  1  0
  4  5  2  0
  4  6  1  0
  6  7  1  0
  7  8  1  0
  8  9  2  0
  9 10  1  0
 10 11  2  0
 11 12  1  0
 12 13  2  0
  7 14  2  0
 14 15  1  0
 15 16  1  0
 16 17  2  0
 17 18  1  0
 18 19  2  0
 19 20  1  0
 19 21  1  0
 21 22  2  0
 14 23  1  0
 23 24  1  0
 24 25  1  0
 25  2  1  0
 24  6  2  0
 13  8  1  0
 22 16  1  0
  1 26  1  0
  1 27  1  0
  1 28  1  0
  9 29  1  0
 10 30  1  0
 11 31  1  0
 12 32  1  0
 13 33  1  0
 15 34  1  0
 15 35  1  0
 17 36  1  0
 18 37  1  0
 21 38  1  0
 22 39  1  0
 23 40  1  0
M  CHG  1  25  -1
M  END
>  <UniqueID>  (49) 
49

>  <SMILES>  (49) 
Cc1nc(=O)c2c(-c3ccccc3)c(Cc3ccc(Br)cc3)[nH]c2[n-]1

>  <Energy>  (49) 
82.31392367415127

>  <Genealogy>  (49) 
Cc1nc(=O)c2c(-c3ccccc3)c(Cc3ccc(Br)cc3)[nH]c2[n-]1 (protonated)
Cc1nc(=O)c2c(-c3ccccc3)c(Cc3ccc(Br)cc3)[nH]c2[n-]1 (3D coordinates assigned)
Cc1nc(=O)c2c(-c3ccccc3)c(Cc3ccc(Br)cc3)[nH]c2[n-]1 (optimized conformer: 82.31392367415127 kcal/mol)

>  <smiles>  (49) 
Cc1nc(=O)c2c(-c3ccccc3)c(Cc3ccc(Br)cc3)[nH]c2[nH]1

>  <score_type>  (49) 
oracle

>  <origin>  (49) 
adg

>  <m_score__min__energy>  (49) 
-9.5800000000000001

>  <m_primary>  (49) 
energy

$$$$
49:0
     RDKit          3D

 57 60  0  0  0  0  0  0  0  0999 V2000
   60.3110   28.8030   48.6480 C   0  0  0  0  0  0  0  0  0  0  0  0
   60.8350   29.6930   49.7680 C   0  0  0  0  0  0  0  0  0  0  0  0
   61.1820   31.0150   49.2440 N   0  0  0  0  0  0  0  0  0  0  0  0
   60.3730   31.8720   48.5730 C   0  0  0  0  0  0  0  0  0  0  0  0
   59.1810   31.5900   48.2840 O   0  0  0  0  0  0  0  0  0  0  0  0
   60.9740   33.0620   48.2750 N   0  0  0  0  0  0  0  0  0  0  0  0
   60.4790   34.2510   47.5430 C   0  0  2  0  0  0  0  0  0  0  0  0
   58.9870   34.5740   47.7870 C   0  0  0  0  0  0  0  0  0  0  0  0
   57.9880   33.8120   46.8790 C   0  0  0  0  0  0  0  0  0  0  0  0
   58.6450   33.0400   45.7960 N   0  0  1  0  0  0  0  0  0  0  0  0
   57.6470   32.5440   44.8180 C   0  0  0  0  0  0  0  0  0  0  0  0
   57.5410   31.0370   44.8460 C   0  0  0  0  0  0  0  0  0  0  0  0
   57.2280   30.3330   43.6740 C   0  0  0  0  0  0  0  0  0  0  0  0
   57.1700   28.9370   43.6810 C   0  0  0  0  0  0  0  0  0  0  0  0
   57.4210   28.2240   44.8640 C   0  0  0  0  0  0  0  0  0  0  0  0
   57.4000   26.7210   44.8600 C   0  0  0  0  0  0  0  0  0  0  0  0
   56.5920   26.2120   46.0120 C   0  0  0  0  0  0  0  0  0  0  0  0
   55.1720   26.3370   45.9970 N   0  0  0  0  0  0  0  0  0  0  0  0
   57.1680   25.6960   47.0070 O   0  0  0  0  0  0  0  0  0  0  0  0
   57.7510   28.9260   46.0340 C   0  0  0  0  0  0  0  0  0  0  0  0
   57.8060   30.3240   46.0270 C   0  0  0  0  0  0  0  0  0  0  0  0
   59.6440   33.8860   45.1180 C   0  0  0  0  0  0  0  0  0  0  0  0
   60.8430   34.1720   46.0380 C   0  0  0  0  0  0  0  0  0  0  0  0
   62.2120   32.9240   48.8060 C   0  0  0  0  0  0  0  0  0  0  0  0
   63.2670   33.8420   48.8130 C   0  0  0  0  0  0  0  0  0  0  0  0
   64.4620   33.4680   49.4540 C   0  0  0  0  0  0  0  0  0  0  0  0
   64.5790   32.2030   50.0720 C   0  0  0  0  0  0  0  0  0  0  0  0
   63.5030   31.2980   50.0490 C   0  0  0  0  0  0  0  0  0  0  0  0
   62.3330   31.6950   49.3960 C   0  0  0  0  0  0  0  0  0  0  0  0
   59.7981   27.9318   49.0815 H   0  0  0  0  0  0  0  0  0  0  0  0
   59.6043   29.3730   48.0269 H   0  0  0  0  0  0  0  0  0  0  0  0
   61.1523   28.4616   48.0269 H   0  0  0  0  0  0  0  0  0  0  0  0
   60.0586   29.8006   50.5398 H   0  0  0  0  0  0  0  0  0  0  0  0
   61.7346   29.2317   50.2014 H   0  0  0  0  0  0  0  0  0  0  0  0
   61.0098   35.1146   47.9701 H   0  0  0  0  0  0  0  0  0  0  0  0
   58.7523   34.3271   48.8329 H   0  0  0  0  0  0  0  0  0  0  0  0
   58.8633   35.6406   47.5480 H   0  0  0  0  0  0  0  0  0  0  0  0
   57.4116   33.1141   47.5040 H   0  0  0  0  0  0  0  0  0  0  0  0
   57.3479   34.5658   46.3973 H   0  0  0  0  0  0  0  0  0  0  0  0
   59.1380   32.2110   46.2030 H   0  0  0  0  0  0  0  0  0  0  0  0
   56.6646   32.9754   45.0607 H   0  0  0  0  0  0  0  0  0  0  0  0
   57.9718   32.8471   43.8117 H   0  0  0  0  0  0  0  0  0  0  0  0
   57.0269   30.8835   42.7432 H   0  0  0  0  0  0  0  0  0  0  0  0
   56.9266   28.3943   42.7556 H   0  0  0  0  0  0  0  0  0  0  0  0
   56.9544   26.3664   43.9189 H   0  0  0  0  0  0  0  0  0  0  0  0
   58.4306   26.3476   44.9519 H   0  0  0  0  0  0  0  0  0  0  0  0
   54.6950   27.0730   46.5620 H   0  0  0  0  0  0  0  0  0  0  0  0
   57.9674   28.3743   46.9607 H   0  0  0  0  0  0  0  0  0  0  0  0
   58.0577   30.8670   46.9499 H   0  0  0  0  0  0  0  0  0  0  0  0
   59.9995   33.3685   44.2148 H   0  0  0  0  0  0  0  0  0  0  0  0
   59.1701   34.8429   44.8539 H   0  0  0  0  0  0  0  0  0  0  0  0
   61.5821   33.3686   45.9027 H   0  0  0  0  0  0  0  0  0  0  0  0
   61.2339   35.1599   45.7531 H   0  0  0  0  0  0  0  0  0  0  0  0
   63.1655   34.8261   48.3321 H   0  0  0  0  0  0  0  0  0  0  0  0
   65.3120   34.1659   49.4742 H   0  0  0  0  0  0  0  0  0  0  0  0
   65.5172   31.9244   50.5741 H   0  0  0  0  0  0  0  0  0  0  0  0
   63.5796   30.3111   50.5287 H   0  0  0  0  0  0  0  0  0  0  0  0
  1  2  1  0
  2  3  1  0
  3  4  1  0
  4  5  2  0
  4  6  1  0
  6  7  1  0
  7  8  1  0
  8  9  1  0
  9 10  1  0
 10 11  1  0
 11 12  1  0
 12 13  2  0
 13 14  1  0
 14 15  2  0
 15 16  1  0
 16 17  1  0
 17 18  1  0
 17 19  2  0
 15 20  1  0
 20 21  2  0
 10 22  1  0
 22 23  1  0
  6 24  1  0
 24 25  2  0
 25 26  1  0
 26 27  2  0
 27 28  1  0
 28 29  2  0
 29  3  1  0
 23  7  1  0
 29 24  1  0
 21 12  1  0
  1 30  1  0
  1 31  1  0
  1 32  1  0
  2 33  1  0
  2 34  1  0
  7 35  1  1
  8 36  1  0
  8 37  1  0
  9 38  1  0
  9 39  1  0
 10 40  1  1
 11 41  1  0
 11 42  1  0
 13 43  1  0
 14 44  1  0
 16 45  1  0
 16 46  1  0
 18 47  1  0
 20 48  1  0
 21 49  1  0
 22 50  1  0
 22 51  1  0
 23 52  1  0
 23 53  1  0
 25 54  1  0
 26 55  1  0
 27 56  1  0
 28 57  1  0
M  CHG  2  10   1  18  -1
M  END
>  <UniqueID>  (50) 
50

>  <SMILES>  (50) 
CCn1c(=O)n(C2CC[NH+](Cc3ccc(CC([NH-])=O)cc3)CC2)c2ccccc21

>  <Energy>  (50) 
108.25576380346602

>  <Genealogy>  (50) 
CCn1c(=O)n(C2CC[NH+](Cc3ccc(CC([NH-])=O)cc3)CC2)c2ccccc21 (protonated)
CCn1c(=O)n(C2CC[NH+](Cc3ccc(CC([NH-])=O)cc3)CC2)c2ccccc21 (3D coordinates assigned)
CCn1c(=O)n(C2CC[NH+](Cc3ccc(CC([NH-])=O)cc3)CC2)c2ccccc21 (nonaromatic ring conformer: 108.25576380346602 kcal/mol)

>  <smiles>  (50) 
CCn1c(=O)n(C2CCN(Cc3ccc(CC(N)=O)cc3)CC2)c2ccccc21

>  <score_type>  (50) 
oracle

>  <origin>  (50) 
adg

>  <m_score__min__energy>  (50) 
-10.789999999999999

>  <m_primary>  (50) 
energy

$$$$
50:0
     RDKit          3D

 49 51  0  0  0  0  0  0  0  0999 V2000
   56.4500   31.2480   44.4880 O   0  0  0  0  0  0  0  0  0  0  0  0
   57.5220   30.8240   45.0070 C   0  0  0  0  0  0  0  0  0  0  0  0
   58.4990   31.7990   45.5960 C   0  0  0  0  0  0  0  0  0  0  0  0
   59.2880   31.1390   46.6300 N   0  0  0  0  0  0  0  0  0  0  0  0
   59.1810   31.3540   47.9540 C   0  0  0  0  0  0  0  0  0  0  0  0
   60.0110   30.4560   48.5940 C   0  0  0  0  0  0  0  0  0  0  0  0
   60.2670   30.3070   50.0380 C   0  0  0  0  0  0  0  0  0  0  0  0
   61.1430   29.4820   50.4120 O   0  0  0  0  0  0  0  0  0  0  0  0
   59.5210   31.0230   51.0410 N   0  0  0  0  0  0  0  0  0  0  0  0
   58.7570   32.2500   50.8420 C   0  0  0  0  0  0  0  0  0  0  0  0
   59.5640   33.4920   51.2400 C   0  0  0  0  0  0  0  0  0  0  0  0
   59.6350   34.4190   50.1530 O   0  0  0  0  0  0  0  0  0  0  0  0
   60.3040   34.2080   48.9310 C   0  0  0  0  0  0  0  0  0  0  0  0
   61.6020   33.6560   48.8550 C   0  0  0  0  0  0  0  0  0  0  0  0
   62.2080   33.4560   47.6130 C   0  0  0  0  0  0  0  0  0  0  0  0
   61.5340   33.8100   46.4410 C   0  0  0  0  0  0  0  0  0  0  0  0
   60.2610   34.3900   46.5100 C   0  0  0  0  0  0  0  0  0  0  0  0
   59.6550   34.5940   47.7520 C   0  0  0  0  0  0  0  0  0  0  0  0
   60.6130   29.7310   47.5820 C   0  0  0  0  0  0  0  0  0  0  0  0
   60.1400   30.1520   46.3940 N   0  0  0  0  0  0  0  0  0  0  0  0
   57.7790   29.4160   45.0800 N   0  0  0  0  0  0  0  0  0  0  0  0
   56.7460   28.4200   44.8040 C   0  0  0  0  0  0  0  0  0  0  0  0
   57.1090   27.1030   45.4570 C   0  0  0  0  0  0  0  0  0  0  0  0
   58.4440   26.6520   45.4540 C   0  0  0  0  0  0  0  0  0  0  0  0
   58.7740   25.4140   46.0180 C   0  0  0  0  0  0  0  0  0  0  0  0
   57.7760   24.6140   46.5860 C   0  0  0  0  0  0  0  0  0  0  0  0
   56.4450   25.0460   46.5810 C   0  0  0  0  0  0  0  0  0  0  0  0
   56.1060   26.2810   46.0150 C   0  0  0  0  0  0  0  0  0  0  0  0
   54.7710   26.6830   46.0050 O   0  0  0  0  0  0  0  0  0  0  0  0
   59.1684   32.1689   44.8054 H   0  0  0  0  0  0  0  0  0  0  0  0
   57.9499   32.6428   46.0392 H   0  0  0  0  0  0  0  0  0  0  0  0
   58.5460   32.1098   48.4392 H   0  0  0  0  0  0  0  0  0  0  0  0
   58.4808   32.3296   49.7802 H   0  0  0  0  0  0  0  0  0  0  0  0
   57.8621   32.2038   51.4800 H   0  0  0  0  0  0  0  0  0  0  0  0
   59.0778   33.9787   52.0983 H   0  0  0  0  0  0  0  0  0  0  0  0
   60.5848   33.1800   51.5058 H   0  0  0  0  0  0  0  0  0  0  0  0
   62.1368   33.3830   49.7766 H   0  0  0  0  0  0  0  0  0  0  0  0
   63.2162   33.0197   47.5570 H   0  0  0  0  0  0  0  0  0  0  0  0
   62.0042   33.6328   45.4625 H   0  0  0  0  0  0  0  0  0  0  0  0
   59.7392   34.6845   45.5875 H   0  0  0  0  0  0  0  0  0  0  0  0
   58.6606   35.0614   47.8041 H   0  0  0  0  0  0  0  0  0  0  0  0
   61.3600   28.9363   47.7250 H   0  0  0  0  0  0  0  0  0  0  0  0
   58.7320   29.0880   45.3470 H   0  0  0  0  0  0  0  0  0  0  0  0
   55.7840   28.7723   45.2045 H   0  0  0  0  0  0  0  0  0  0  0  0
   56.6663   28.2741   43.7166 H   0  0  0  0  0  0  0  0  0  0  0  0
   59.2312   27.2762   45.0060 H   0  0  0  0  0  0  0  0  0  0  0  0
   59.8187   25.0697   46.0147 H   0  0  0  0  0  0  0  0  0  0  0  0
   58.0379   23.6453   47.0365 H   0  0  0  0  0  0  0  0  0  0  0  0
   55.6619   24.4128   47.0235 H   0  0  0  0  0  0  0  0  0  0  0  0
  1  2  2  0
  2  3  1  0
  3  4  1  0
  4  5  1  0
  5  6  2  0
  6  7  1  0
  7  8  2  0
  7  9  1  0
  9 10  1  0
 10 11  1  0
 11 12  1  0
 12 13  1  0
 13 14  2  0
 14 15  1  0
 15 16  2  0
 16 17  1  0
 17 18  2  0
  6 19  1  0
 19 20  2  0
  2 21  1  0
 21 22  1  0
 22 23  1  0
 23 24  2  0
 24 25  1  0
 25 26  2  0
 26 27  1  0
 27 28  2  0
 28 29  1  0
 20  4  1  0
 28 23  1  0
 18 13  1  0
  3 30  1  0
  3 31  1  0
  5 32  1  0
 10 33  1  0
 10 34  1  0
 11 35  1  0
 11 36  1  0
 14 37  1  0
 15 38  1  0
 16 39  1  0
 17 40  1  0
 18 41  1  0
 19 42  1  0
 21 43  1  0
 22 44  1  0
 22 45  1  0
 24 46  1  0
 25 47  1  0
 26 48  1  0
 27 49  1  0
M  CHG  2   9  -1  29  -1
M  END
>  <UniqueID>  (51) 
51

>  <SMILES>  (51) 
O=C(Cn1cc(C(=O)[N-]CCOc2ccccc2)cn1)NCc1ccccc1[O-]

>  <Energy>  (51) 
78.58451457707378

>  <Genealogy>  (51) 
O=C(Cn1cc(C(=O)[N-]CCOc2ccccc2)cn1)NCc1ccccc1[O-] (protonated)
O=C(Cn1cc(C(=O)[N-]CCOc2ccccc2)cn1)NCc1ccccc1[O-] (3D coordinates assigned)
O=C(Cn1cc(C(=O)[N-]CCOc2ccccc2)cn1)NCc1ccccc1[O-] (optimized conformer: 78.58451457707378 kcal/mol)

>  <smiles>  (51) 
O=C(Cn1cc(C(=O)NCCOc2ccccc2)cn1)NCc1ccccc1O

>  <score_type>  (51) 
oracle

>  <origin>  (51) 
adg

>  <m_score__min__energy>  (51) 
-12.67

>  <m_primary>  (51) 
energy

$$$$
51:0
     RDKit          3D

 63 66  0  0  0  0  0  0  0  0999 V2000
   64.6300   32.8090   49.3240 C   0  0  0  0  0  0  0  0  0  0  0  0
   63.3830   33.2930   48.6430 C   0  0  0  0  0  0  0  0  0  0  0  0
   63.3400   33.3840   47.2440 C   0  0  0  0  0  0  0  0  0  0  0  0
   62.1740   33.8040   46.5980 C   0  0  0  0  0  0  0  0  0  0  0  0
   61.0330   34.1270   47.3460 C   0  0  0  0  0  0  0  0  0  0  0  0
   59.5610   34.6760   46.5480 S   0  0  0  0  0  0  0  0  0  0  0  0
   59.7270   36.1140   46.1440 O   0  0  0  0  0  0  0  0  0  0  0  0
   58.3880   34.5730   47.4830 O   0  0  0  0  0  0  0  0  0  0  0  0
   59.2750   33.7120   45.1280 N   0  0  0  0  0  0  0  0  0  0  0  0
   58.4290   32.5510   45.4290 C   0  0  1  0  0  0  0  0  0  0  0  0
   58.2170   31.7250   44.1450 C   0  0  0  0  0  0  0  0  0  0  0  0
   57.6490   30.3650   44.4400 C   0  0  0  0  0  0  0  0  0  0  0  0
   56.6250   30.2600   45.1680 O   0  0  0  0  0  0  0  0  0  0  0  0
   58.2550   29.1960   43.8680 N   0  0  0  0  0  0  0  0  0  0  0  0
   58.1100   27.8860   44.4340 C   0  0  0  0  0  0  0  0  0  0  0  0
   58.0050   27.5630   45.7810 C   0  0  0  0  0  0  0  0  0  0  0  0
   58.1470   28.5100   46.9370 C   0  0  0  0  0  0  0  0  0  0  0  0
   57.8560   26.2180   45.8870 N   0  0  0  0  0  0  0  0  0  0  0  0
   57.7830   25.4610   47.1400 C   0  0  0  0  0  0  0  0  0  0  0  0
   57.8010   25.6920   44.6630 N   0  0  0  0  0  0  0  0  0  0  0  0
   57.5690   24.3090   44.3470 C   0  0  0  0  0  0  0  0  0  0  0  0
   56.4970   23.9400   43.5170 C   0  0  0  0  0  0  0  0  0  0  0  0
   56.2810   22.5940   43.2020 C   0  0  0  0  0  0  0  0  0  0  0  0
   57.1370   21.6120   43.7080 C   0  0  0  0  0  0  0  0  0  0  0  0
   58.2130   21.9740   44.5230 C   0  0  0  0  0  0  0  0  0  0  0  0
   58.4330   23.3170   44.8380 C   0  0  0  0  0  0  0  0  0  0  0  0
   57.9580   26.6870   43.7670 C   0  0  0  0  0  0  0  0  0  0  0  0
   57.9130   26.5340   42.5160 O   0  0  0  0  0  0  0  0  0  0  0  0
   59.0930   31.7390   46.5230 C   0  0  0  0  0  0  0  0  0  0  0  0
   60.2540   30.9940   46.2460 C   0  0  0  0  0  0  0  0  0  0  0  0
   60.8790   30.2570   47.2550 C   0  0  0  0  0  0  0  0  0  0  0  0
   60.3490   30.2480   48.5480 C   0  0  0  0  0  0  0  0  0  0  0  0
   59.1900   30.9730   48.8320 C   0  0  0  0  0  0  0  0  0  0  0  0
   58.5610   31.7130   47.8270 C   0  0  0  0  0  0  0  0  0  0  0  0
   61.0720   34.0340   48.7430 C   0  0  0  0  0  0  0  0  0  0  0  0
   62.2380   33.6120   49.3900 C   0  0  0  0  0  0  0  0  0  0  0  0
   64.4960   32.8610   50.4146 H   0  0  0  0  0  0  0  0  0  0  0  0
   64.8290   31.7684   49.0283 H   0  0  0  0  0  0  0  0  0  0  0  0
   65.4789   33.4429   49.0283 H   0  0  0  0  0  0  0  0  0  0  0  0
   64.2294   33.1232   46.6517 H   0  0  0  0  0  0  0  0  0  0  0  0
   62.1514   33.8813   45.5009 H   0  0  0  0  0  0  0  0  0  0  0  0
   57.4382   32.8681   45.7863 H   0  0  0  0  0  0  0  0  0  0  0  0
   57.5218   32.2652   43.4855 H   0  0  0  0  0  0  0  0  0  0  0  0
   59.1961   31.5879   43.6627 H   0  0  0  0  0  0  0  0  0  0  0  0
   58.8190   29.3060   42.9960 H   0  0  0  0  0  0  0  0  0  0  0  0
   58.0633   27.9515   47.8810 H   0  0  0  0  0  0  0  0  0  0  0  0
   59.1291   29.0031   46.8886 H   0  0  0  0  0  0  0  0  0  0  0  0
   57.3527   29.2694   46.8886 H   0  0  0  0  0  0  0  0  0  0  0  0
   57.8498   26.1541   47.9915 H   0  0  0  0  0  0  0  0  0  0  0  0
   56.8282   24.9166   47.1844 H   0  0  0  0  0  0  0  0  0  0  0  0
   58.6162   24.7442   47.1844 H   0  0  0  0  0  0  0  0  0  0  0  0
   55.8253   24.7120   43.1135 H   0  0  0  0  0  0  0  0  0  0  0  0
   55.4375   22.3087   42.5561 H   0  0  0  0  0  0  0  0  0  0  0  0
   56.9637   20.5534   43.4646 H   0  0  0  0  0  0  0  0  0  0  0  0
   58.8879   21.2000   44.9172 H   0  0  0  0  0  0  0  0  0  0  0  0
   59.2861   23.5984   45.4729 H   0  0  0  0  0  0  0  0  0  0  0  0
   60.6722   30.9918   45.2286 H   0  0  0  0  0  0  0  0  0  0  0  0
   61.7901   29.6827   47.0312 H   0  0  0  0  0  0  0  0  0  0  0  0
   60.8447   29.6699   49.3418 H   0  0  0  0  0  0  0  0  0  0  0  0
   58.7710   30.9617   49.8490 H   0  0  0  0  0  0  0  0  0  0  0  0
   57.6454   32.2782   48.0556 H   0  0  0  0  0  0  0  0  0  0  0  0
   60.1815   34.2941   49.3340 H   0  0  0  0  0  0  0  0  0  0  0  0
   62.2579   33.5299   50.4867 H   0  0  0  0  0  0  0  0  0  0  0  0
  1  2  1  0
  2  3  2  0
  3  4  1  0
  4  5  2  0
  5  6  1  0
  6  7  2  0
  6  8  2  0
  6  9  1  0
  9 10  1  0
 10 11  1  0
 11 12  1  0
 12 13  2  0
 12 14  1  0
 14 15  1  0
 15 16  2  0
 16 17  1  0
 16 18  1  0
 18 19  1  0
 18 20  1  0
 20 21  1  0
 21 22  2  0
 22 23  1  0
 23 24  2  0
 24 25  1  0
 25 26  2  0
 20 27  1  0
 27 28  2  0
 10 29  1  0
 29 30  2  0
 30 31  1  0
 31 32  2  0
 32 33  1  0
 33 34  2  0
  5 35  1  0
 35 36  2  0
 36  2  1  0
 27 15  1  0
 34 29  1  0
 26 21  1  0
  1 37  1  0
  1 38  1  0
  1 39  1  0
  3 40  1  0
  4 41  1  0
 10 42  1  1
 11 43  1  0
 11 44  1  0
 14 45  1  0
 17 46  1  0
 17 47  1  0
 17 48  1  0
 19 49  1  0
 19 50  1  0
 19 51  1  0
 22 52  1  0
 23 53  1  0
 24 54  1  0
 25 55  1  0
 26 56  1  0
 30 57  1  0
 31 58  1  0
 32 59  1  0
 33 60  1  0
 34 61  1  0
 35 62  1  0
 36 63  1  0
M  CHG  1   9  -1
M  END
>  <UniqueID>  (52) 
52

>  <SMILES>  (52) 
Cc1ccc(S(=O)(=O)[N-][C@@H](CC(=O)Nc2c(C)n(C)n(-c3ccccc3)c2=O)c2ccccc2)cc1

>  <Energy>  (52) 
106.59966454187682

>  <Genealogy>  (52) 
Cc1ccc(S(=O)(=O)[N-]C(CC(=O)Nc2c(C)n(C)n(-c3ccccc3)c2=O)c2ccccc2)cc1 (protonated)
Cc1ccc(S(=O)(=O)[N-][C@@H](CC(=O)Nc2c(C)n(C)n(-c3ccccc3)c2=O)c2ccccc2)cc1 (chirality)
Cc1ccc(S(=O)(=O)[N-][C@@H](CC(=O)Nc2c(C)n(C)n(-c3ccccc3)c2=O)c2ccccc2)cc1 (3D coordinates assigned)
Cc1ccc(S(=O)(=O)[N-][C@@H](CC(=O)Nc2c(C)n(C)n(-c3ccccc3)c2=O)c2ccccc2)cc1 (optimized conformer: 106.59966454187682 kcal/mol)

>  <smiles>  (52) 
Cc1ccc(S(=O)(=O)NC(CC(=O)Nc2c(C)n(C)n(-c3ccccc3)c2=O)c2ccccc2)cc1

>  <score_type>  (52) 
oracle

>  <origin>  (52) 
adg

>  <m_score__min__energy>  (52) 
-11.73

>  <m_primary>  (52) 
energy

$$$$
52:0
     RDKit          3D

 62 65  0  0  0  0  0  0  0  0999 V2000
   56.1600   30.9460   44.5200 O   0  0  0  0  0  0  0  0  0  0  0  0
   57.2870   31.0650   43.9680 C   0  0  0  0  0  0  0  0  0  0  0  0
   57.7270   32.4100   43.4830 C   0  0  0  0  0  0  0  0  0  0  0  0
   57.5940   33.3620   44.5350 O   0  0  0  0  0  0  0  0  0  0  0  0
   58.4020   33.3970   45.6810 C   0  0  0  0  0  0  0  0  0  0  0  0
   58.0680   32.7070   46.8630 C   0  0  0  0  0  0  0  0  0  0  0  0
   58.9090   32.7740   47.9790 C   0  0  0  0  0  0  0  0  0  0  0  0
   60.0880   33.5300   47.9300 C   0  0  0  0  0  0  0  0  0  0  0  0
   61.1370   33.6440   49.3410 S   0  0  0  0  0  0  0  0  0  0  0  0
   60.2760   33.6150   50.5740 O   0  0  0  0  0  0  0  0  0  0  0  0
   61.8790   34.9520   49.3160 O   0  0  0  0  0  0  0  0  0  0  0  0
   62.2560   32.2970   49.3860 N   0  0  0  0  0  0  0  0  0  0  0  0
   62.5000   31.7380   48.0450 C   0  0  0  0  0  0  0  0  0  0  0  0
   63.4060   32.6510   47.1820 C   0  0  0  0  0  0  0  0  0  0  0  0
   64.1320   33.6040   47.9390 O   0  0  0  0  0  0  0  0  0  0  0  0
   64.6530   33.0080   49.1050 C   0  0  0  0  0  0  0  0  0  0  0  0
   63.5150   32.6510   50.0790 C   0  0  0  0  0  0  0  0  0  0  0  0
   60.4180   34.2210   46.7570 C   0  0  0  0  0  0  0  0  0  0  0  0
   59.5810   34.1510   45.6390 C   0  0  0  0  0  0  0  0  0  0  0  0
   58.1150   29.9150   43.7330 N   0  0  0  0  0  0  0  0  0  0  0  0
   57.8800   28.6150   44.3010 C   0  0  0  0  0  0  0  0  0  0  0  0
   58.2180   27.4370   43.6130 C   0  0  0  0  0  0  0  0  0  0  0  0
   57.9540   26.1860   44.1800 C   0  0  0  0  0  0  0  0  0  0  0  0
   57.3320   26.0950   45.4310 C   0  0  0  0  0  0  0  0  0  0  0  0
   56.9810   24.5150   46.1380 S   0  0  0  0  0  0  0  0  0  0  0  0
   55.8450   24.6520   47.1130 O   0  0  0  0  0  0  0  0  0  0  0  0
   58.1880   24.0360   46.8950 O   0  0  0  0  0  0  0  0  0  0  0  0
   56.5550   23.3360   44.9210 N   0  0  0  0  0  0  0  0  0  0  0  0
   57.7460   22.5950   44.4810 C   0  0  0  0  0  0  0  0  0  0  0  0
   57.3770   21.6100   43.3520 C   0  0  0  0  0  0  0  0  0  0  0  0
   55.9950   21.6550   43.0480 O   0  0  0  0  0  0  0  0  0  0  0  0
   55.6350   22.9660   42.6540 C   0  0  0  0  0  0  0  0  0  0  0  0
   55.9130   23.9920   43.7720 C   0  0  0  0  0  0  0  0  0  0  0  0
   56.9750   27.2670   46.1120 C   0  0  0  0  0  0  0  0  0  0  0  0
   57.2410   28.5170   45.5470 C   0  0  0  0  0  0  0  0  0  0  0  0
   58.7790   32.3591   43.1656 H   0  0  0  0  0  0  0  0  0  0  0  0
   57.1011   32.7152   42.6315 H   0  0  0  0  0  0  0  0  0  0  0  0
   57.1429   32.1136   46.9086 H   0  0  0  0  0  0  0  0  0  0  0  0
   58.6439   32.2313   48.8983 H   0  0  0  0  0  0  0  0  0  0  0  0
   62.9872   30.7578   48.1539 H   0  0  0  0  0  0  0  0  0  0  0  0
   61.5289   31.6504   47.5358 H   0  0  0  0  0  0  0  0  0  0  0  0
   64.1233   32.0175   46.6396 H   0  0  0  0  0  0  0  0  0  0  0  0
   62.7474   33.2113   46.5020 H   0  0  0  0  0  0  0  0  0  0  0  0
   65.1972   32.0919   48.8318 H   0  0  0  0  0  0  0  0  0  0  0  0
   65.3334   33.7192   49.5961 H   0  0  0  0  0  0  0  0  0  0  0  0
   63.8323   31.7937   50.6909 H   0  0  0  0  0  0  0  0  0  0  0  0
   63.3151   33.5404   50.6946 H   0  0  0  0  0  0  0  0  0  0  0  0
   61.3390   34.8210   46.7152 H   0  0  0  0  0  0  0  0  0  0  0  0
   59.8508   34.6921   44.7201 H   0  0  0  0  0  0  0  0  0  0  0  0
   58.8960   30.0150   43.0430 H   0  0  0  0  0  0  0  0  0  0  0  0
   58.6930   27.4993   42.6228 H   0  0  0  0  0  0  0  0  0  0  0  0
   58.2363   25.2697   43.6408 H   0  0  0  0  0  0  0  0  0  0  0  0
   58.4993   23.3058   44.1106 H   0  0  0  0  0  0  0  0  0  0  0  0
   58.1496   22.0280   45.3328 H   0  0  0  0  0  0  0  0  0  0  0  0
   57.9491   21.8717   42.4496 H   0  0  0  0  0  0  0  0  0  0  0  0
   57.6201   20.5925   43.6920 H   0  0  0  0  0  0  0  0  0  0  0  0
   56.2168   23.2432   41.7625 H   0  0  0  0  0  0  0  0  0  0  0  0
   54.5564   22.9762   42.4383 H   0  0  0  0  0  0  0  0  0  0  0  0
   56.5780   24.7783   43.3853 H   0  0  0  0  0  0  0  0  0  0  0  0
   54.9589   24.4312   44.0988 H   0  0  0  0  0  0  0  0  0  0  0  0
   56.4839   27.2025   47.0942 H   0  0  0  0  0  0  0  0  0  0  0  0
   56.9473   29.4316   46.0829 H   0  0  0  0  0  0  0  0  0  0  0  0
  1  2  2  0
  2  3  1  0
  3  4  1  0
  4  5  1  0
  5  6  2  0
  6  7  1  0
  7  8  2  0
  8  9  1  0
  9 10  2  0
  9 11  2  0
  9 12  1  0
 12 13  1  0
 13 14  1  0
 14 15  1  0
 15 16  1  0
 16 17  1  0
  8 18  1  0
 18 19  2  0
  2 20  1  0
 20 21  1  0
 21 22  2  0
 22 23  1  0
 23 24  2  0
 24 25  1  0
 25 26  2  0
 25 27  2  0
 25 28  1  0
 28 29  1  0
 29 30  1  0
 30 31  1  0
 31 32  1  0
 32 33  1  0
 24 34  1  0
 34 35  2  0
 19  5  1  0
 35 21  1  0
 17 12  1  0
 33 28  1  0
  3 36  1  0
  3 37  1  0
  6 38  1  0
  7 39  1  0
 13 40  1  0
 13 41  1  0
 14 42  1  0
 14 43  1  0
 16 44  1  0
 16 45  1  0
 17 46  1  0
 17 47  1  0
 18 48  1  0
 19 49  1  0
 20 50  1  0
 22 51  1  0
 23 52  1  0
 29 53  1  0
 29 54  1  0
 30 55  1  0
 30 56  1  0
 32 57  1  0
 32 58  1  0
 33 59  1  0
 33 60  1  0
 34 61  1  0
 35 62  1  0
M  END
>  <UniqueID>  (53) 
53

>  <SMILES>  (53) 
O=C(COc1ccc(S(=O)(=O)N2CCOCC2)cc1)Nc1ccc(S(=O)(=O)N2CCOCC2)cc1

>  <Energy>  (53) 
83.74569307380948

>  <Genealogy>  (53) 
O=C(COc1ccc(S(=O)(=O)N2CCOCC2)cc1)Nc1ccc(S(=O)(=O)N2CCOCC2)cc1 (3D coordinates assigned)
O=C(COc1ccc(S(=O)(=O)N2CCOCC2)cc1)Nc1ccc(S(=O)(=O)N2CCOCC2)cc1 (nonaromatic ring conformer: 83.74569307380948 kcal/mol)

>  <smiles>  (53) 
O=C(COc1ccc(S(=O)(=O)N2CCOCC2)cc1)Nc1ccc(S(=O)(=O)N2CCOCC2)cc1

>  <score_type>  (53) 
oracle

>  <origin>  (53) 
adg

>  <m_score__min__energy>  (53) 
-11.42

>  <m_primary>  (53) 
energy

$$$$
53:0
     RDKit          3D

 41 43  0  0  0  0  0  0  0  0999 V2000
   60.8990   30.5490   49.9740 C   0  0  0  0  0  0  0  0  0  0  0  0
   60.0680   29.1200   49.3130 S   0  0  0  0  0  0  0  0  0  0  0  0
   58.5850   29.3630   49.3560 O   0  0  0  0  0  0  0  0  0  0  0  0
   60.3980   27.9370   50.1800 O   0  0  0  0  0  0  0  0  0  0  0  0
   60.6090   28.8350   47.6690 N   0  0  1  0  0  0  0  0  0  0  0  0
   60.8620   27.4120   47.3930 C   0  0  0  0  0  0  0  0  0  0  0  0
   59.5870   26.5610   47.4680 C   0  0  0  0  0  0  0  0  0  0  0  0
   58.3750   27.2100   46.8210 C   0  0  0  0  0  0  0  0  0  0  0  0
   58.4360   28.5730   46.4570 C   0  0  0  0  0  0  0  0  0  0  0  0
   57.3400   29.1390   45.7960 C   0  0  0  0  0  0  0  0  0  0  0  0
   57.3740   30.3430   45.4230 O   0  0  0  0  0  0  0  0  0  0  0  0
   56.2400   28.3900   45.5400 N   0  0  0  0  0  0  0  0  0  0  0  0
   55.1770   28.9560   44.8710 O   0  0  0  0  0  0  0  0  0  0  0  0
   56.1650   27.0910   45.9350 C   0  0  0  0  0  0  0  0  0  0  0  0
   55.1240   26.4300   45.6630 O   0  0  0  0  0  0  0  0  0  0  0  0
   57.2040   26.5010   46.6180 N   0  0  0  0  0  0  0  0  0  0  0  0
   57.0300   25.1040   47.0900 C   0  0  0  0  0  0  0  0  0  0  0  0
   57.0680   24.1230   45.9380 C   0  0  0  0  0  0  0  0  0  0  0  0
   55.8720   23.7200   45.3150 C   0  0  0  0  0  0  0  0  0  0  0  0
   55.9010   22.8150   44.2500 C   0  0  0  0  0  0  0  0  0  0  0  0
   57.1200   22.3100   43.7920 C   0  0  0  0  0  0  0  0  0  0  0  0
   58.3130   22.7110   44.3970 C   0  0  0  0  0  0  0  0  0  0  0  0
   58.2920   23.6160   45.4640 C   0  0  0  0  0  0  0  0  0  0  0  0
   59.4650   23.9950   46.0290 F   0  0  0  0  0  0  0  0  0  0  0  0
   59.6850   29.4090   46.6760 C   0  0  0  0  0  0  0  0  0  0  0  0
   60.8766   30.5104   51.0731 H   0  0  0  0  0  0  0  0  0  0  0  0
   61.9433   30.5582   49.6287 H   0  0  0  0  0  0  0  0  0  0  0  0
   60.3905   31.4612   49.6287 H   0  0  0  0  0  0  0  0  0  0  0  0
   61.5240   29.3340   47.5720 H   0  0  0  0  0  0  0  0  0  0  0  0
   61.2887   27.3193   46.3834 H   0  0  0  0  0  0  0  0  0  0  0  0
   61.5558   27.0415   48.1620 H   0  0  0  0  0  0  0  0  0  0  0  0
   59.7792   25.6037   46.9613 H   0  0  0  0  0  0  0  0  0  0  0  0
   59.3500   26.4340   48.5346 H   0  0  0  0  0  0  0  0  0  0  0  0
   57.8394   24.8607   47.7941 H   0  0  0  0  0  0  0  0  0  0  0  0
   56.0487   25.0240   47.5805 H   0  0  0  0  0  0  0  0  0  0  0  0
   54.9097   24.1192   45.6679 H   0  0  0  0  0  0  0  0  0  0  0  0
   54.9619   22.4999   43.7717 H   0  0  0  0  0  0  0  0  0  0  0  0
   57.1403   21.5966   42.9550 H   0  0  0  0  0  0  0  0  0  0  0  0
   59.2724   22.3141   44.0336 H   0  0  0  0  0  0  0  0  0  0  0  0
   60.2164   29.4991   45.7171 H   0  0  0  0  0  0  0  0  0  0  0  0
   59.3575   30.3846   47.0645 H   0  0  0  0  0  0  0  0  0  0  0  0
  1  2  1  0
  2  3  2  0
  2  4  2  0
  2  5  1  0
  5  6  1  0
  6  7  1  0
  7  8  1  0
  8  9  2  0
  9 10  1  0
 10 11  2  0
 10 12  1  0
 12 13  1  0
 12 14  1  0
 14 15  2  0
 14 16  1  0
 16 17  1  0
 17 18  1  0
 18 19  2  0
 19 20  1  0
 20 21  2  0
 21 22  1  0
 22 23  2  0
 23 24  1  0
  9 25  1  0
 25  5  1  0
 16  8  1  0
 23 18  1  0
  1 26  1  0
  1 27  1  0
  1 28  1  0
  5 29  1  1
  6 30  1  0
  6 31  1  0
  7 32  1  0
  7 33  1  0
 17 34  1  0
 17 35  1  0
 19 36  1  0
 20 37  1  0
 21 38  1  0
 22 39  1  0
 25 40  1  0
 25 41  1  0
M  CHG  2   5   1  13  -1
M  END
>  <UniqueID>  (54) 
54

>  <SMILES>  (54) 
CS(=O)(=O)[N@H+]1CCc2c(c(=O)n([O-])c(=O)n2Cc2ccccc2F)C1

>  <Energy>  (54) 
52.5126177525758

>  <Genealogy>  (54) 
CS(=O)(=O)[NH+]1CCc2c(c(=O)n([O-])c(=O)n2Cc2ccccc2F)C1 (protonated)
CS(=O)(=O)[N@H+]1CCc2c(c(=O)n([O-])c(=O)n2Cc2ccccc2F)C1 (chirality)
CS(=O)(=O)[N@H+]1CCc2c(c(=O)n([O-])c(=O)n2Cc2ccccc2F)C1 (3D coordinates assigned)
CS(=O)(=O)[N@H+]1CCc2c(c(=O)n([O-])c(=O)n2Cc2ccccc2F)C1 (nonaromatic ring conformer: 52.5126177525758 kcal/mol)

>  <smiles>  (54) 
CS(=O)(=O)N1CCc2c(c(=O)n(O)c(=O)n2Cc2ccccc2F)C1

>  <score_type>  (54) 
oracle

>  <origin>  (54) 
adg

>  <m_score__min__energy>  (54) 
-8.5600000000000005

>  <m_primary>  (54) 
energy

$$$$
54:0
     RDKit          3D

 42 43  0  0  0  0  0  0  0  0999 V2000
   55.8060   27.9820   44.6690 H   0  0  0  0  0  0  0  0  0  0  0  0
   55.5230   28.9690   44.8650 N   0  0  0  0  0  0  0  0  0  0  0  0
   56.3150   29.9610   44.6150 C   0  0  0  0  0  0  0  0  0  0  0  0
   57.0670   30.5000   45.6110 N   0  0  0  0  0  0  0  0  0  0  0  0
   57.9110   31.5420   45.3950 C   0  0  0  0  0  0  0  0  0  0  0  0
   58.8060   32.2320   46.7920 S   0  0  0  0  0  0  0  0  0  0  0  0
   60.2650   31.1420   46.6120 C   0  0  0  0  0  0  0  0  0  0  0  0
   60.5531   31.1019   45.5512 H   0  0  0  0  0  0  0  0  0  0  0  0
   61.0820   31.5533   47.2230 H   0  0  0  0  0  0  0  0  0  0  0  0
   59.9700   29.7450   47.0930 C   0  0  0  0  0  0  0  0  0  0  0  0
   60.0180   29.5110   48.4330 N   0  0  0  0  0  0  0  0  0  0  0  0
   59.7400   28.2980   48.9690 C   0  0  0  0  0  0  0  0  0  0  0  0
   59.7888   28.1551   50.0586 H   0  0  0  0  0  0  0  0  0  0  0  0
   59.3930   27.2330   48.1440 C   0  0  0  0  0  0  0  0  0  0  0  0
   59.1655   26.2490   48.5798 H   0  0  0  0  0  0  0  0  0  0  0  0
   59.3340   27.4180   46.7520 C   0  0  0  0  0  0  0  0  0  0  0  0
   59.0060   26.3610   45.8860 O   0  0  0  0  0  0  0  0  0  0  0  0
   57.7400   26.1930   45.2520 C   0  0  0  0  0  0  0  0  0  0  0  0
   57.5010   27.0934   44.6671 H   0  0  0  0  0  0  0  0  0  0  0  0
   57.7787   25.3198   44.5841 H   0  0  0  0  0  0  0  0  0  0  0  0
   56.6860   25.9790   46.2880 C   0  0  0  0  0  0  0  0  0  0  0  0
   56.9850   25.4540   47.3940 O   0  0  0  0  0  0  0  0  0  0  0  0
   55.3510   26.4150   46.0460 N   0  0  0  0  0  0  0  0  0  0  0  0
   55.1330   27.0580   45.2520 H   0  0  0  0  0  0  0  0  0  0  0  0
   59.6100   28.6940   46.2110 C   0  0  0  0  0  0  0  0  0  0  0  0
   59.5790   28.9130   44.7170 C   0  0  0  0  0  0  0  0  0  0  0  0
   59.4277   29.9820   44.5062 H   0  0  0  0  0  0  0  0  0  0  0  0
   60.5326   28.5842   44.2783 H   0  0  0  0  0  0  0  0  0  0  0  0
   58.7541   28.3324   44.2783 H   0  0  0  0  0  0  0  0  0  0  0  0
   58.0410   32.0830   44.1050 C   0  0  0  0  0  0  0  0  0  0  0  0
   58.9120   33.1480   43.8600 O   0  0  0  0  0  0  0  0  0  0  0  0
   58.8110   34.3720   44.5760 C   0  0  0  0  0  0  0  0  0  0  0  0
   58.8279   34.1671   45.6566 H   0  0  0  0  0  0  0  0  0  0  0  0
   59.6586   35.0218   44.3127 H   0  0  0  0  0  0  0  0  0  0  0  0
   57.8684   34.8741   44.3127 H   0  0  0  0  0  0  0  0  0  0  0  0
   57.2600   31.5560   43.0600 C   0  0  0  0  0  0  0  0  0  0  0  0
   57.3630   32.1250   41.6730 C   0  0  0  0  0  0  0  0  0  0  0  0
   57.5586   33.2058   41.7336 H   0  0  0  0  0  0  0  0  0  0  0  0
   58.1867   31.6329   41.1350 H   0  0  0  0  0  0  0  0  0  0  0  0
   56.4191   31.9529   41.1350 H   0  0  0  0  0  0  0  0  0  0  0  0
   56.3950   30.4830   43.3220 C   0  0  0  0  0  0  0  0  0  0  0  0
   55.7834   30.0553   42.5139 H   0  0  0  0  0  0  0  0  0  0  0  0
  1  2  1  0
  2  3  2  0
  3  4  1  0
  4  5  1  0
  5  6  1  0
  6  7  1  0
  7  8  1  0
  7  9  1  0
  7 10  1  0
 10 11  2  0
 11 12  1  0
 12 13  1  0
 12 14  2  0
 14 15  1  0
 14 16  1  0
 16 17  1  0
 17 18  1  0
 18 19  1  0
 18 20  1  0
 18 21  1  0
 21 22  2  0
 21 23  1  0
 23 24  1  0
 16 25  2  0
 25 26  1  0
 26 27  1  0
 26 28  1  0
 26 29  1  0
  5 30  2  0
 30 31  1  0
 31 32  1  0
 32 33  1  0
 32 34  1  0
 32 35  1  0
 30 36  1  0
 36 37  1  0
 37 38  1  0
 37 39  1  0
 37 40  1  0
 36 41  2  0
 41 42  1  0
 41  3  1  0
 25 10  1  0
M  CHG  2   4  -1  23  -1
M  END
>  <UniqueID>  (55) 
55

>  <SMILES>  (55) 
[H]/N=c1/cc(C)c(OC)c(SCc2nccc(OCC([NH-])=O)c2C)[n-]1

>  <Energy>  (55) 
43.50344003222536

>  <Genealogy>  (55) 
COc1c(C)cc(=N)[n-]c1SCc1nccc(OCC([NH-])=O)c1C (protonated)
[H]/N=c1/cc(C)c(OC)c(SCc2nccc(OCC([NH-])=O)c2C)[n-]1 (cis-trans isomerization)
[H]/N=c1/cc(C)c(OC)c(SCc2nccc(OCC([NH-])=O)c2C)[n-]1 (3D coordinates assigned)
[H]/N=c1/cc(C)c(OC)c(SCc2nccc(OCC([NH-])=O)c2C)[n-]1 (optimized conformer: 43.50344003222536 kcal/mol)

>  <smiles>  (55) 
COc1c(C)cc(=N)[nH]c1SCc1nccc(OCC(N)=O)c1C

>  <score_type>  (55) 
oracle

>  <origin>  (55) 
adg

>  <m_score__min__energy>  (55) 
-12.699999999999999

>  <m_primary>  (55) 
energy

$$$$
55:0
     RDKit          3D

 62 63  0  0  0  0  0  0  0  0999 V2000
   60.6070   27.2040   47.7870 C   0  0  0  0  0  0  0  0  0  0  0  0
   59.7960   28.4040   48.2780 C   0  0  0  0  0  0  0  0  0  0  0  0
   60.6850   29.6220   48.5020 C   0  0  0  0  0  0  0  0  0  0  0  0
   61.2910   29.8000   49.7750 C   0  0  0  0  0  0  0  0  0  0  0  0
   61.0400   28.8860   50.9130 C   0  0  0  0  0  0  0  0  0  0  0  0
   61.9080   28.0200   51.2020 O   0  0  0  0  0  0  0  0  0  0  0  0
   59.8710   28.9820   51.7320 N   0  0  0  0  0  0  0  0  0  0  0  0
   58.4380   29.8950   51.3790 S   0  0  0  0  0  0  0  0  0  0  0  0
   58.0960   29.8390   49.9190 O   0  0  0  0  0  0  0  0  0  0  0  0
   57.2910   29.3370   52.1730 O   0  0  0  0  0  0  0  0  0  0  0  0
   58.7010   31.5980   51.8390 C   0  0  0  0  0  0  0  0  0  0  0  0
   59.0020   32.4260   50.6240 C   0  0  0  0  0  0  0  0  0  0  0  0
   58.1710   32.3540   49.4960 C   0  0  0  0  0  0  0  0  0  0  0  0
   58.4700   33.0990   48.3520 C   0  0  0  0  0  0  0  0  0  0  0  0
   59.6060   33.9120   48.3240 C   0  0  0  0  0  0  0  0  0  0  0  0
   60.0210   34.9190   46.7580 Br  0  0  0  0  0  0  0  0  0  0  0  0
   60.4450   33.9780   49.4390 C   0  0  0  0  0  0  0  0  0  0  0  0
   60.1480   33.2340   50.5830 C   0  0  0  0  0  0  0  0  0  0  0  0
   62.2080   30.8370   49.9380 C   0  0  0  0  0  0  0  0  0  0  0  0
   62.7660   31.0360   51.0480 O   0  0  0  0  0  0  0  0  0  0  0  0
   62.5230   31.6240   48.8890 N   0  0  0  0  0  0  0  0  0  0  0  0
   61.9510   31.4640   47.6730 C   0  0  0  0  0  0  0  0  0  0  0  0
   62.3340   32.2090   46.7310 O   0  0  0  0  0  0  0  0  0  0  0  0
   60.9790   30.5070   47.4750 N   0  0  0  0  0  0  0  0  0  0  0  0
   60.3060   30.4270   46.1510 C   0  0  0  0  0  0  0  0  0  0  0  0
   59.1700   31.4200   45.9960 C   0  0  0  0  0  0  0  0  0  0  0  0
   58.4680   31.6710   44.8670 C   0  0  0  0  0  0  0  0  0  0  0  0
   57.9230   33.0650   44.6630 C   0  0  0  0  0  0  0  0  0  0  0  0
   58.1780   30.6260   43.8130 C   0  0  0  0  0  0  0  0  0  0  0  0
   56.7070   30.1890   43.8380 C   0  0  0  0  0  0  0  0  0  0  0  0
   56.4690   29.0500   44.8010 C   0  0  0  0  0  0  0  0  0  0  0  0
   57.3150   28.0110   44.9830 C   0  0  0  0  0  0  0  0  0  0  0  0
   57.4790   27.3400   46.3270 C   0  0  0  0  0  0  0  0  0  0  0  0
   58.1230   27.5260   43.8040 C   0  0  0  0  0  0  0  0  0  0  0  0
   60.9879   26.6404   48.6515 H   0  0  0  0  0  0  0  0  0  0  0  0
   59.9641   26.5513   47.1782 H   0  0  0  0  0  0  0  0  0  0  0  0
   61.4524   27.5571   47.1782 H   0  0  0  0  0  0  0  0  0  0  0  0
   59.0324   28.6517   47.5260 H   0  0  0  0  0  0  0  0  0  0  0  0
   59.3275   28.1364   49.2366 H   0  0  0  0  0  0  0  0  0  0  0  0
   57.7947   31.9860   52.3270 H   0  0  0  0  0  0  0  0  0  0  0  0
   59.5549   31.6538   52.5302 H   0  0  0  0  0  0  0  0  0  0  0  0
   57.2804   31.7085   49.5120 H   0  0  0  0  0  0  0  0  0  0  0  0
   57.8107   33.0453   47.4732 H   0  0  0  0  0  0  0  0  0  0  0  0
   61.3404   34.6165   49.4159 H   0  0  0  0  0  0  0  0  0  0  0  0
   60.8157   33.2818   51.4558 H   0  0  0  0  0  0  0  0  0  0  0  0
   61.0521   30.6246   45.3673 H   0  0  0  0  0  0  0  0  0  0  0  0
   59.8728   29.4195   46.0654 H   0  0  0  0  0  0  0  0  0  0  0  0
   58.8887   31.9937   46.8914 H   0  0  0  0  0  0  0  0  0  0  0  0
   57.7397   33.5338   45.6411 H   0  0  0  0  0  0  0  0  0  0  0  0
   58.6527   33.6652   44.0997 H   0  0  0  0  0  0  0  0  0  0  0  0
   56.9797   33.0111   44.0997 H   0  0  0  0  0  0  0  0  0  0  0  0
   58.4088   31.0449   42.8224 H   0  0  0  0  0  0  0  0  0  0  0  0
   58.8017   29.7445   44.0228 H   0  0  0  0  0  0  0  0  0  0  0  0
   56.0876   31.0457   44.1419 H   0  0  0  0  0  0  0  0  0  0  0  0
   56.4398   29.8412   42.8292 H   0  0  0  0  0  0  0  0  0  0  0  0
   55.5435   29.0669   45.3953 H   0  0  0  0  0  0  0  0  0  0  0  0
   57.2998   28.0732   47.1272 H   0  0  0  0  0  0  0  0  0  0  0  0
   56.7558   26.5159   46.4161 H   0  0  0  0  0  0  0  0  0  0  0  0
   58.5008   26.9424   46.4161 H   0  0  0  0  0  0  0  0  0  0  0  0
   59.0139   26.9913   44.1651 H   0  0  0  0  0  0  0  0  0  0  0  0
   57.5098   26.8466   43.1938 H   0  0  0  0  0  0  0  0  0  0  0  0
   58.4342   28.3867   43.1938 H   0  0  0  0  0  0  0  0  0  0  0  0
  1  2  1  0
  2  3  1  0
  3  4  2  0
  4  5  1  0
  5  6  2  0
  5  7  1  0
  7  8  1  0
  8  9  2  0
  8 10  2  0
  8 11  1  0
 11 12  1  0
 12 13  2  0
 13 14  1  0
 14 15  2  0
 15 16  1  0
 15 17  1  0
 17 18  2  0
  4 19  1  0
 19 20  2  0
 19 21  1  0
 21 22  1  0
 22 23  2  0
 22 24  1  0
 24 25  1  0
 25 26  1  0
 26 27  2  3
 27 28  1  0
 27 29  1  0
 29 30  1  0
 30 31  1  0
 31 32  2  3
 32 33  1  0
 32 34  1  0
 24  3  1  0
 18 12  1  0
  1 35  1  0
  1 36  1  0
  1 37  1  0
  2 38  1  0
  2 39  1  0
 11 40  1  0
 11 41  1  0
 13 42  1  0
 14 43  1  0
 17 44  1  0
 18 45  1  0
 25 46  1  0
 25 47  1  0
 26 48  1  0
 28 49  1  0
 28 50  1  0
 28 51  1  0
 29 52  1  0
 29 53  1  0
 30 54  1  0
 30 55  1  0
 31 56  1  0
 33 57  1  0
 33 58  1  0
 33 59  1  0
 34 60  1  0
 34 61  1  0
 34 62  1  0
M  CHG  2   7  -1  21  -1
M  END
>  <UniqueID>  (56) 
56

>  <SMILES>  (56) 
CCc1c(C(=O)[N-]S(=O)(=O)Cc2ccc(Br)cc2)c(=O)[n-]c(=O)n1CC=C(C)CCC=C(C)C

>  <Energy>  (56) 
64.1907484680195

>  <Genealogy>  (56) 
CCc1c(C(=O)[N-]S(=O)(=O)Cc2ccc(Br)cc2)c(=O)[n-]c(=O)n1CC=C(C)CCC=C(C)C (protonated)
CCc1c(C(=O)[N-]S(=O)(=O)Cc2ccc(Br)cc2)c(=O)[n-]c(=O)n1CC=C(C)CCC=C(C)C (3D coordinates assigned)
CCc1c(C(=O)[N-]S(=O)(=O)Cc2ccc(Br)cc2)c(=O)[n-]c(=O)n1CC=C(C)CCC=C(C)C (optimized conformer: 64.1907484680195 kcal/mol)

>  <smiles>  (56) 
CCc1c(C(=O)NS(=O)(=O)Cc2ccc(Br)cc2)c(=O)[nH]c(=O)n1CC=C(C)CCC=C(C)C

>  <score_type>  (56) 
oracle

>  <origin>  (56) 
adg

>  <m_score__min__energy>  (56) 
-12

>  <m_primary>  (56) 
energy

$$$$
56:0
     RDKit          3D

 32 34  0  0  0  0  0  0  0  0999 V2000
   61.6815   27.6160   46.4028 H   0  0  0  0  0  0  0  0  0  0  0  0
   60.7610   27.4030   46.9660 C   0  0  0  0  0  0  0  0  0  0  0  0
   60.4180   28.3180   48.0710 C   0  0  0  0  0  0  0  0  0  0  0  0
   59.7660   27.8640   49.0510 O   0  0  0  0  0  0  0  0  0  0  0  0
   60.7530   29.7130   47.9980 N   0  0  0  0  0  0  0  0  0  0  0  0
   60.0670   30.6410   47.4000 C   0  0  0  0  0  0  0  0  0  0  0  0
   60.3760   31.9600   47.4370 N   0  0  0  0  0  0  0  0  0  0  0  0
   59.4940   32.6840   46.7010 C   0  0  0  0  0  0  0  0  0  0  0  0
   58.4870   31.9440   46.1090 C   0  0  0  0  0  0  0  0  0  0  0  0
   58.6900   30.3170   46.4790 S   0  0  0  0  0  0  0  0  0  0  0  0
   57.4450   32.5820   45.3130 C   0  0  0  0  0  0  0  0  0  0  0  0
   56.4530   31.9360   44.8860 O   0  0  0  0  0  0  0  0  0  0  0  0
   57.5700   33.9850   45.0600 N   0  0  0  0  0  0  0  0  0  0  0  0
   58.8380   34.6790   45.3190 C   0  0  0  0  0  0  0  0  0  0  0  0
   59.5220   34.4967   44.4770 H   0  0  0  0  0  0  0  0  0  0  0  0
   58.6238   35.7523   45.4294 H   0  0  0  0  0  0  0  0  0  0  0  0
   59.5070   34.1860   46.6230 C   0  0  0  0  0  0  0  0  0  0  0  0
   60.5487   34.5385   46.6484 H   0  0  0  0  0  0  0  0  0  0  0  0
   58.9437   34.5863   47.4789 H   0  0  0  0  0  0  0  0  0  0  0  0
   60.0440   26.3320   46.5900 C   0  0  0  0  0  0  0  0  0  0  0  0
   60.5922   25.3977   46.3991 H   0  0  0  0  0  0  0  0  0  0  0  0
   58.5760   26.3080   46.4120 C   0  0  0  0  0  0  0  0  0  0  0  0
   57.8010   25.2450   46.9100 C   0  0  0  0  0  0  0  0  0  0  0  0
   58.2891   24.4039   47.4242 H   0  0  0  0  0  0  0  0  0  0  0  0
   56.4120   25.2550   46.7530 C   0  0  0  0  0  0  0  0  0  0  0  0
   55.8112   24.4135   47.1284 H   0  0  0  0  0  0  0  0  0  0  0  0
   55.7850   26.3320   46.1200 C   0  0  0  0  0  0  0  0  0  0  0  0
   54.4050   26.3380   45.9620 O   0  0  0  0  0  0  0  0  0  0  0  0
   56.5480   27.4060   45.6520 C   0  0  0  0  0  0  0  0  0  0  0  0
   56.0539   28.2577   45.1615 H   0  0  0  0  0  0  0  0  0  0  0  0
   57.9380   27.4000   45.8060 C   0  0  0  0  0  0  0  0  0  0  0  0
   58.5327   28.2544   45.4507 H   0  0  0  0  0  0  0  0  0  0  0  0
  1  2  1  0
  2  3  1  0
  3  4  2  0
  3  5  1  0
  5  6  2  0
  6  7  1  0
  7  8  1  0
  8  9  2  0
  9 10  1  0
  9 11  1  0
 11 12  2  0
 11 13  1  0
 13 14  1  0
 14 15  1  0
 14 16  1  0
 14 17  1  0
 17 18  1  0
 17 19  1  0
  2 20  2  3
 20 21  1  0
 20 22  1  0
 22 23  2  0
 23 24  1  0
 23 25  1  0
 25 26  1  0
 25 27  2  0
 27 28  1  0
 27 29  1  0
 29 30  1  0
 29 31  2  0
 31 32  1  0
 10  6  1  0
 31 22  1  0
 17  8  1  0
M  CHG  3   7  -1  13  -1  28  -1
M  END
>  <UniqueID>  (57) 
57

>  <SMILES>  (57) 
O=C(C=Cc1ccc([O-])cc1)/N=c1\[n-]c2c(s1)C(=O)[N-]CC2

>  <Energy>  (57) 
74.90215360643822

>  <Genealogy>  (57) 
O=C(C=Cc1ccc([O-])cc1)N=c1[n-]c2c(s1)C(=O)[N-]CC2 (protonated)
O=C(C=Cc1ccc([O-])cc1)/N=c1\[n-]c2c(s1)C(=O)[N-]CC2 (cis-trans isomerization)
O=C(C=Cc1ccc([O-])cc1)/N=c1\[n-]c2c(s1)C(=O)[N-]CC2 (3D coordinates assigned)
O=C(C=Cc1ccc([O-])cc1)/N=c1\[n-]c2c(s1)C(=O)[N-]CC2 (nonaromatic ring conformer: 74.90215360643822 kcal/mol)

>  <smiles>  (57) 
O=C(C=Cc1ccc(O)cc1)N=c1[nH]c2c(s1)C(=O)NCC2

>  <score_type>  (57) 
oracle

>  <origin>  (57) 
adg

>  <m_score__min__energy>  (57) 
-12.49

>  <m_primary>  (57) 
energy

$$$$
57:0
     RDKit          3D

 63 66  0  0  0  0  0  0  0  0999 V2000
   51.7950   23.3100   45.9510 C   0  0  0  0  0  0  0  0  0  0  0  0
   53.1580   22.7910   46.2850 C   0  0  0  0  0  0  0  0  0  0  0  0
   53.6350   22.8420   47.5990 C   0  0  0  0  0  0  0  0  0  0  0  0
   54.9050   22.3250   47.8690 C   0  0  0  0  0  0  0  0  0  0  0  0
   55.6420   21.7740   46.8670 N   0  0  0  0  0  0  0  0  0  0  0  0
   55.1630   21.7140   45.5940 C   0  0  0  0  0  0  0  0  0  0  0  0
   55.8890   21.1610   44.6710 N   0  0  0  0  0  0  0  0  0  0  0  0
   56.7680   22.0530   43.4670 S   0  0  0  0  0  0  0  0  0  0  0  0
   55.8930   22.3010   42.2710 O   0  0  0  0  0  0  0  0  0  0  0  0
   57.9790   21.2640   43.0510 O   0  0  0  0  0  0  0  0  0  0  0  0
   57.2670   23.5920   44.1630 C   0  0  0  0  0  0  0  0  0  0  0  0
   57.3750   24.7210   43.3410 C   0  0  0  0  0  0  0  0  0  0  0  0
   57.7270   25.9600   43.8840 C   0  0  0  0  0  0  0  0  0  0  0  0
   57.9910   26.0860   45.2560 C   0  0  0  0  0  0  0  0  0  0  0  0
   58.2750   27.3870   45.7990 N   0  0  0  0  0  0  0  0  0  0  0  0
   57.5320   28.5740   45.4840 C   0  0  0  0  0  0  0  0  0  0  0  0
   56.2970   28.5010   45.2380 O   0  0  0  0  0  0  0  0  0  0  0  0
   58.1940   29.8490   45.5320 N   0  0  0  0  0  0  0  0  0  0  0  0
   57.5630   31.0920   45.1840 C   0  0  0  0  0  0  0  0  0  0  0  0
   56.4500   31.0930   44.5880 O   0  0  0  0  0  0  0  0  0  0  0  0
   58.2320   32.3830   45.4760 C   0  0  0  0  0  0  0  0  0  0  0  0
   57.8400   33.5160   44.7450 C   0  0  0  0  0  0  0  0  0  0  0  0
   58.5020   34.7290   44.9070 C   0  0  0  0  0  0  0  0  0  0  0  0
   59.5750   34.8260   45.7890 C   0  0  0  0  0  0  0  0  0  0  0  0
   59.9740   33.7270   46.5620 C   0  0  0  0  0  0  0  0  0  0  0  0
   61.0970   33.9310   47.4400 N   0  0  0  0  0  0  0  0  0  0  0  0
   62.7010   33.2650   47.3450 S   0  0  0  0  0  0  0  0  0  0  0  0
   63.5940   33.5400   48.8660 C   0  0  0  0  0  0  0  0  0  0  0  0
   62.5840   31.7790   47.1270 O   0  0  0  0  0  0  0  0  0  0  0  0
   63.4430   33.8480   46.1760 O   0  0  0  0  0  0  0  0  0  0  0  0
   59.2850   32.4930   46.4280 C   0  0  0  0  0  0  0  0  0  0  0  0
   59.6590   31.3910   47.2060 O   0  0  0  0  0  0  0  0  0  0  0  0
   59.2530   31.1690   48.5320 C   0  0  0  0  0  0  0  0  0  0  0  0
   59.3830   29.9110   49.1470 C   0  0  0  0  0  0  0  0  0  0  0  0
   58.9550   29.7230   50.4650 C   0  0  0  0  0  0  0  0  0  0  0  0
   58.3930   30.7870   51.1760 C   0  0  0  0  0  0  0  0  0  0  0  0
   58.2500   32.0380   50.5670 C   0  0  0  0  0  0  0  0  0  0  0  0
   58.6770   32.2270   49.2480 C   0  0  0  0  0  0  0  0  0  0  0  0
   57.8790   24.9510   46.0790 C   0  0  0  0  0  0  0  0  0  0  0  0
   57.5250   23.7120   45.5350 C   0  0  0  0  0  0  0  0  0  0  0  0
   53.9260   22.2200   45.3150 N   0  0  0  0  0  0  0  0  0  0  0  0
   51.2446   23.5196   46.8801 H   0  0  0  0  0  0  0  0  0  0  0  0
   51.8888   24.2354   45.3637 H   0  0  0  0  0  0  0  0  0  0  0  0
   51.2495   22.5566   45.3637 H   0  0  0  0  0  0  0  0  0  0  0  0
   53.0238   23.2795   48.4022 H   0  0  0  0  0  0  0  0  0  0  0  0
   55.3086   22.3636   48.8915 H   0  0  0  0  0  0  0  0  0  0  0  0
   57.1817   24.6321   42.2618 H   0  0  0  0  0  0  0  0  0  0  0  0
   57.7975   26.8424   43.2310 H   0  0  0  0  0  0  0  0  0  0  0  0
   59.0940   27.4890   46.4410 H   0  0  0  0  0  0  0  0  0  0  0  0
   59.1900   29.8680   45.8540 H   0  0  0  0  0  0  0  0  0  0  0  0
   57.0011   33.4438   44.0372 H   0  0  0  0  0  0  0  0  0  0  0  0
   58.1773   35.6124   44.3376 H   0  0  0  0  0  0  0  0  0  0  0  0
   60.1173   35.7787   45.8804 H   0  0  0  0  0  0  0  0  0  0  0  0
   62.9329   33.3364   49.7213 H   0  0  0  0  0  0  0  0  0  0  0  0
   64.4640   32.8682   48.9070 H   0  0  0  0  0  0  0  0  0  0  0  0
   63.9354   34.5849   48.9070 H   0  0  0  0  0  0  0  0  0  0  0  0
   59.8232   29.0714   48.5890 H   0  0  0  0  0  0  0  0  0  0  0  0
   59.0607   28.7376   50.9422 H   0  0  0  0  0  0  0  0  0  0  0  0
   58.0630   30.6405   52.2150 H   0  0  0  0  0  0  0  0  0  0  0  0
   57.8018   32.8733   51.1250 H   0  0  0  0  0  0  0  0  0  0  0  0
   58.5600   33.2111   48.7707 H   0  0  0  0  0  0  0  0  0  0  0  0
   58.0712   25.0384   47.1585 H   0  0  0  0  0  0  0  0  0  0  0  0
   57.4489   22.8289   46.1864 H   0  0  0  0  0  0  0  0  0  0  0  0
  1  2  1  0
  2  3  1  0
  3  4  2  0
  4  5  1  0
  5  6  1  0
  6  7  2  3
  7  8  1  0
  8  9  2  0
  8 10  2  0
  8 11  1  0
 11 12  2  0
 12 13  1  0
 13 14  2  0
 14 15  1  0
 15 16  1  0
 16 17  2  0
 16 18  1  0
 18 19  1  0
 19 20  2  0
 19 21  1  0
 21 22  2  0
 22 23  1  0
 23 24  2  0
 24 25  1  0
 25 26  1  0
 26 27  1  0
 27 28  1  0
 27 29  2  0
 27 30  2  0
 25 31  2  0
 31 32  1  0
 32 33  1  0
 33 34  2  0
 34 35  1  0
 35 36  2  0
 36 37  1  0
 37 38  2  0
 14 39  1  0
 39 40  2  0
  6 41  1  0
 41  2  2  0
 40 11  1  0
 31 21  1  0
 38 33  1  0
  1 42  1  0
  1 43  1  0
  1 44  1  0
  3 45  1  0
  4 46  1  0
 12 47  1  0
 13 48  1  0
 15 49  1  0
 18 50  1  0
 22 51  1  0
 23 52  1  0
 24 53  1  0
 28 54  1  0
 28 55  1  0
 28 56  1  0
 34 57  1  0
 35 58  1  0
 36 59  1  0
 37 60  1  0
 38 61  1  0
 39 62  1  0
 40 63  1  0
M  CHG  2   5  -1  26  -1
M  END
>  <UniqueID>  (58) 
58

>  <SMILES>  (58) 
Cc1cc[n-]c(=NS(=O)(=O)c2ccc(NC(=O)NC(=O)c3cccc([N-]S(C)(=O)=O)c3Oc3ccccc3)cc2)n1

>  <Energy>  (58) 
88.94085846562787

>  <Genealogy>  (58) 
Cc1cc[n-]c(=NS(=O)(=O)c2ccc(NC(=O)NC(=O)c3cccc([N-]S(C)(=O)=O)c3Oc3ccccc3)cc2)n1 (protonated)
Cc1cc[n-]c(=NS(=O)(=O)c2ccc(NC(=O)NC(=O)c3cccc([N-]S(C)(=O)=O)c3Oc3ccccc3)cc2)n1 (3D coordinates assigned)
Cc1cc[n-]c(=NS(=O)(=O)c2ccc(NC(=O)NC(=O)c3cccc([N-]S(C)(=O)=O)c3Oc3ccccc3)cc2)n1 (optimized conformer: 88.94085846562787 kcal/mol)

>  <smiles>  (58) 
Cc1cc[nH]c(=NS(=O)(=O)c2ccc(NC(=O)NC(=O)c3cccc(NS(C)(=O)=O)c3Oc3ccccc3)cc2)n1

>  <score_type>  (58) 
oracle

>  <origin>  (58) 
adg

>  <m_score__min__energy>  (58) 
-12.92

>  <m_primary>  (58) 
energy

$$$$
58:0
     RDKit          3D

 60 63  0  0  0  0  0  0  0  0999 V2000
   51.7330   24.0350   44.3680 C   0  0  0  0  0  0  0  0  0  0  0  0
   52.6050   22.9740   44.7440 O   0  0  0  0  0  0  0  0  0  0  0  0
   52.7840   22.5260   46.0610 C   0  0  0  0  0  0  0  0  0  0  0  0
   51.7660   22.6030   47.0260 C   0  0  0  0  0  0  0  0  0  0  0  0
   52.0300   22.1520   48.3190 C   0  0  0  0  0  0  0  0  0  0  0  0
   51.0270   22.2160   49.2910 O   0  0  0  0  0  0  0  0  0  0  0  0
   51.3050   22.4510   50.6680 C   0  0  0  0  0  0  0  0  0  0  0  0
   53.2580   21.6500   48.6180 N   0  0  0  0  0  0  0  0  0  0  0  0
   54.2350   21.5650   47.6780 C   0  0  0  0  0  0  0  0  0  0  0  0
   55.3910   21.0700   48.0140 N   0  0  0  0  0  0  0  0  0  0  0  0
   56.6620   21.7320   47.9750 C   0  0  0  0  0  0  0  0  0  0  0  0
   57.3570   21.7460   49.0220 O   0  0  0  0  0  0  0  0  0  0  0  0
   57.1780   22.2580   46.7410 N   0  0  0  0  0  0  0  0  0  0  0  0
   57.2230   23.6210   46.2860 C   0  0  0  0  0  0  0  0  0  0  0  0
   56.1290   24.5010   46.3890 C   0  0  0  0  0  0  0  0  0  0  0  0
   56.2610   25.8410   46.0130 C   0  0  0  0  0  0  0  0  0  0  0  0
   57.4820   26.3280   45.5130 C   0  0  0  0  0  0  0  0  0  0  0  0
   57.6500   27.7740   45.2020 C   0  0  0  0  0  0  0  0  0  0  0  0
   58.9310   28.3230   45.0510 C   0  0  0  0  0  0  0  0  0  0  0  0
   59.0750   29.6650   44.7000 C   0  0  0  0  0  0  0  0  0  0  0  0
   57.9810   30.4570   44.4810 N   0  0  0  0  0  0  0  0  0  0  0  0
   58.1960   31.8630   44.0940 C   0  0  0  0  0  0  0  0  0  0  0  0
   57.7840   32.8060   45.1990 C   0  0  0  0  0  0  0  0  0  0  0  0
   56.5560   32.9360   45.4590 O   0  0  0  0  0  0  0  0  0  0  0  0
   58.7550   33.5760   45.9450 N   0  0  0  0  0  0  0  0  0  0  0  0
   58.2970   34.3300   47.1220 C   0  0  0  0  0  0  0  0  0  0  0  0
   59.4830   34.9490   47.8610 C   0  0  0  0  0  0  0  0  0  0  0  0
   60.5420   34.0170   47.8890 O   0  0  0  0  0  0  0  0  0  0  0  0
   61.1370   33.9140   46.6080 C   0  0  0  0  0  0  0  0  0  0  0  0
   60.1200   33.8170   45.4450 C   0  0  0  0  0  0  0  0  0  0  0  0
   56.7180   29.9520   44.6560 C   0  0  0  0  0  0  0  0  0  0  0  0
   55.7030   30.6840   44.4960 O   0  0  0  0  0  0  0  0  0  0  0  0
   56.5370   28.6090   45.0150 C   0  0  0  0  0  0  0  0  0  0  0  0
   58.5490   25.4290   45.3470 C   0  0  0  0  0  0  0  0  0  0  0  0
   58.4170   24.0890   45.7220 C   0  0  0  0  0  0  0  0  0  0  0  0
   59.4690   23.2470   45.5680 F   0  0  0  0  0  0  0  0  0  0  0  0
   53.9900   22.0060   46.4130 N   0  0  0  0  0  0  0  0  0  0  0  0
   51.3346   24.5198   45.2715 H   0  0  0  0  0  0  0  0  0  0  0  0
   52.2893   24.7727   43.7710 H   0  0  0  0  0  0  0  0  0  0  0  0
   50.9015   23.6322   43.7710 H   0  0  0  0  0  0  0  0  0  0  0  0
   50.7783   23.0117   46.7664 H   0  0  0  0  0  0  0  0  0  0  0  0
   50.6108   21.8642   51.2875 H   0  0  0  0  0  0  0  0  0  0  0  0
   52.3392   22.1492   50.8900 H   0  0  0  0  0  0  0  0  0  0  0  0
   51.1796   23.5211   50.8900 H   0  0  0  0  0  0  0  0  0  0  0  0
   55.1644   24.1320   46.7677 H   0  0  0  0  0  0  0  0  0  0  0  0
   55.4017   26.5210   46.1091 H   0  0  0  0  0  0  0  0  0  0  0  0
   59.8211   27.6963   45.2091 H   0  0  0  0  0  0  0  0  0  0  0  0
   60.0831   30.0931   44.5977 H   0  0  0  0  0  0  0  0  0  0  0  0
   59.2628   32.0146   43.8730 H   0  0  0  0  0  0  0  0  0  0  0  0
   57.5804   32.0769   43.2078 H   0  0  0  0  0  0  0  0  0  0  0  0
   57.6168   35.1306   46.7959 H   0  0  0  0  0  0  0  0  0  0  0  0
   57.7760   33.6410   47.8031 H   0  0  0  0  0  0  0  0  0  0  0  0
   59.8078   35.8612   47.3390 H   0  0  0  0  0  0  0  0  0  0  0  0
   59.1875   35.2078   48.8885 H   0  0  0  0  0  0  0  0  0  0  0  0
   61.7637   34.8033   46.4456 H   0  0  0  0  0  0  0  0  0  0  0  0
   61.7165   32.9791   46.6016 H   0  0  0  0  0  0  0  0  0  0  0  0
   60.1327   34.7599   44.8786 H   0  0  0  0  0  0  0  0  0  0  0  0
   60.4080   32.9723   44.8020 H   0  0  0  0  0  0  0  0  0  0  0  0
   55.5214   28.2088   45.1504 H   0  0  0  0  0  0  0  0  0  0  0  0
   59.4977   25.7833   44.9176 H   0  0  0  0  0  0  0  0  0  0  0  0
  1  2  1  0
  2  3  1  0
  3  4  1  0
  4  5  2  0
  5  6  1  0
  6  7  1  0
  5  8  1  0
  8  9  1  0
  9 10  2  3
 10 11  1  0
 11 12  2  0
 11 13  1  0
 13 14  1  0
 14 15  2  0
 15 16  1  0
 16 17  2  0
 17 18  1  0
 18 19  1  0
 19 20  2  0
 20 21  1  0
 21 22  1  0
 22 23  1  0
 23 24  2  0
 23 25  1  0
 25 26  1  0
 26 27  1  0
 27 28  1  0
 28 29  1  0
 29 30  1  0
 21 31  1  0
 31 32  2  0
 31 33  1  0
 17 34  1  0
 34 35  2  0
 35 36  1  0
  9 37  1  0
 37  3  2  0
 35 14  1  0
 33 18  2  0
 30 25  1  0
  1 38  1  0
  1 39  1  0
  1 40  1  0
  4 41  1  0
  7 42  1  0
  7 43  1  0
  7 44  1  0
 15 45  1  0
 16 46  1  0
 19 47  1  0
 20 48  1  0
 22 49  1  0
 22 50  1  0
 26 51  1  0
 26 52  1  0
 27 53  1  0
 27 54  1  0
 29 55  1  0
 29 56  1  0
 30 57  1  0
 30 58  1  0
 33 59  1  0
 34 60  1  0
M  CHG  2   8  -1  13  -1
M  END
>  <UniqueID>  (59) 
59

>  <SMILES>  (59) 
COc1cc(OC)[n-]c(=NC(=O)[N-]c2ccc(-c3ccn(CC(=O)N4CCOCC4)c(=O)c3)cc2F)n1

>  <Energy>  (59) 
85.01767321602381

>  <Genealogy>  (59) 
COc1cc(OC)[n-]c(=NC(=O)[N-]c2ccc(-c3ccn(CC(=O)N4CCOCC4)c(=O)c3)cc2F)n1 (protonated)
COc1cc(OC)[n-]c(=NC(=O)[N-]c2ccc(-c3ccn(CC(=O)N4CCOCC4)c(=O)c3)cc2F)n1 (3D coordinates assigned)
COc1cc(OC)[n-]c(=NC(=O)[N-]c2ccc(-c3ccn(CC(=O)N4CCOCC4)c(=O)c3)cc2F)n1 (nonaromatic ring conformer: 85.01767321602381 kcal/mol)

>  <smiles>  (59) 
COc1cc(OC)[nH]c(=NC(=O)Nc2ccc(-c3ccn(CC(=O)N4CCOCC4)c(=O)c3)cc2F)n1

>  <score_type>  (59) 
oracle

>  <origin>  (59) 
adg

>  <m_score__min__energy>  (59) 
-11.19

>  <m_primary>  (59) 
energy

$$$$
59:0
     RDKit          3D

 50 54  0  0  0  0  0  0  0  0999 V2000
   60.8458   34.6545   50.0636 H   0  0  0  0  0  0  0  0  0  0  0  0
   60.6890   34.4130   49.0020 C   0  0  0  0  0  0  0  0  0  0  0  0
   59.6320   34.9650   48.3890 C   0  0  0  0  0  0  0  0  0  0  0  0
   59.0285   35.7106   48.9274 H   0  0  0  0  0  0  0  0  0  0  0  0
   59.2590   34.5970   47.0110 C   0  0  0  0  0  0  0  0  0  0  0  0
   59.2770   35.4390   45.9500 N   0  0  0  0  0  0  0  0  0  0  0  0
   58.8930   34.7780   44.8620 N   0  0  0  0  0  0  0  0  0  0  0  0
   58.6310   33.5130   45.2350 C   0  0  0  0  0  0  0  0  0  0  0  0
   58.2090   32.4580   44.4310 C   0  0  0  0  0  0  0  0  0  0  0  0
   58.0372   32.5982   43.3536 H   0  0  0  0  0  0  0  0  0  0  0  0
   58.0090   31.2040   45.0430 C   0  0  0  0  0  0  0  0  0  0  0  0
   57.4940   29.8010   44.0530 S   0  0  0  0  0  0  0  0  0  0  0  0
   58.7320   28.7140   44.7800 C   0  0  0  0  0  0  0  0  0  0  0  0
   60.0820   28.9810   44.5090 C   0  0  0  0  0  0  0  0  0  0  0  0
   60.3489   29.7991   43.8238 H   0  0  0  0  0  0  0  0  0  0  0  0
   61.0900   28.2180   45.1010 C   0  0  0  0  0  0  0  0  0  0  0  0
   62.1450   28.4257   44.8690 H   0  0  0  0  0  0  0  0  0  0  0  0
   60.7600   27.1930   45.9860 C   0  0  0  0  0  0  0  0  0  0  0  0
   61.5559   26.6043   46.4656 H   0  0  0  0  0  0  0  0  0  0  0  0
   59.4210   26.9120   46.2650 C   0  0  0  0  0  0  0  0  0  0  0  0
   59.1685   26.1029   46.9661 H   0  0  0  0  0  0  0  0  0  0  0  0
   58.3910   27.6550   45.6570 C   0  0  0  0  0  0  0  0  0  0  0  0
   56.9890   27.2830   45.9470 C   0  0  0  0  0  0  0  0  0  0  0  0
   56.0550   28.0060   45.5030 O   0  0  0  0  0  0  0  0  0  0  0  0
   56.6940   26.0770   46.6650 N   0  0  0  0  0  0  0  0  0  0  0  0
   56.1340   24.9750   46.2430 C   0  0  0  0  0  0  0  0  0  0  0  0
   56.8380   23.8180   46.3850 N   0  0  0  0  0  0  0  0  0  0  0  0
   56.3650   22.6160   45.9610 C   0  0  0  0  0  0  0  0  0  0  0  0
   56.9654   21.7061   46.1082 H   0  0  0  0  0  0  0  0  0  0  0  0
   55.1220   22.5360   45.3410 C   0  0  0  0  0  0  0  0  0  0  0  0
   54.7492   21.5722   44.9642 H   0  0  0  0  0  0  0  0  0  0  0  0
   54.3550   23.6910   45.2030 C   0  0  0  0  0  0  0  0  0  0  0  0
   53.3692   23.6388   44.7177 H   0  0  0  0  0  0  0  0  0  0  0  0
   54.8320   24.9150   45.6780 C   0  0  0  0  0  0  0  0  0  0  0  0
   53.9880   26.0160   45.6230 O   0  0  0  0  0  0  0  0  0  0  0  0
   58.2220   31.0490   46.4360 C   0  0  0  0  0  0  0  0  0  0  0  0
   58.0520   30.0702   46.9084 H   0  0  0  0  0  0  0  0  0  0  0  0
   58.6490   32.1370   47.2190 C   0  0  0  0  0  0  0  0  0  0  0  0
   58.8212   32.0288   48.3000 H   0  0  0  0  0  0  0  0  0  0  0  0
   58.8460   33.3580   46.5740 C   0  0  0  0  0  0  0  0  0  0  0  0
   61.6620   33.5010   48.3540 C   0  0  0  0  0  0  0  0  0  0  0  0
   61.4070   32.1640   48.4070 N   0  0  0  0  0  0  0  0  0  0  0  0
   62.2340   31.2420   47.8470 C   0  0  0  0  0  0  0  0  0  0  0  0
   61.9880   30.1718   47.9117 H   0  0  0  0  0  0  0  0  0  0  0  0
   63.3950   31.6520   47.1900 C   0  0  0  0  0  0  0  0  0  0  0  0
   64.0678   30.9112   46.7333 H   0  0  0  0  0  0  0  0  0  0  0  0
   63.6910   33.0120   47.1200 C   0  0  0  0  0  0  0  0  0  0  0  0
   64.6028   33.3507   46.6063 H   0  0  0  0  0  0  0  0  0  0  0  0
   62.8300   33.9450   47.7020 C   0  0  0  0  0  0  0  0  0  0  0  0
   63.0619   35.0191   47.6519 H   0  0  0  0  0  0  0  0  0  0  0  0
  1  2  1  0
  2  3  2  0
  3  4  1  0
  3  5  1  0
  5  6  1  0
  6  7  1  0
  7  8  2  0
  8  9  1  0
  9 10  1  0
  9 11  2  0
 11 12  1  0
 12 13  1  0
 13 14  2  0
 14 15  1  0
 14 16  1  0
 16 17  1  0
 16 18  2  0
 18 19  1  0
 18 20  1  0
 20 21  1  0
 20 22  2  0
 22 23  1  0
 23 24  2  0
 23 25  1  0
 25 26  2  3
 26 27  1  0
 27 28  1  0
 28 29  1  0
 28 30  2  0
 30 31  1  0
 30 32  1  0
 32 33  1  0
 32 34  2  0
 34 35  1  0
 11 36  1  0
 36 37  1  0
 36 38  2  0
 38 39  1  0
 38 40  1  0
  2 41  1  0
 41 42  2  0
 42 43  1  0
 43 44  1  0
 43 45  2  0
 45 46  1  0
 45 47  1  0
 47 48  1  0
 47 49  2  0
 49 50  1  0
 40  5  2  0
 49 41  1  0
 40  8  1  0
 22 13  1  0
 34 26  1  0
M  CHG  3   6  -1  27  -1  35  -1
M  END
>  <UniqueID>  (60) 
60

>  <SMILES>  (60) 
O=C(N=c1[n-]cccc1[O-])c1ccccc1Sc1ccc2c(/C=C/c3ccccn3)[n-]nc2c1

>  <Energy>  (60) 
110.57747346150937

>  <Genealogy>  (60) 
O=C(N=c1[n-]cccc1[O-])c1ccccc1Sc1ccc2c(C=Cc3ccccn3)[n-]nc2c1 (protonated)
O=C(N=c1[n-]cccc1[O-])c1ccccc1Sc1ccc2c(/C=C/c3ccccn3)[n-]nc2c1 (cis-trans isomerization)
O=C(N=c1[n-]cccc1[O-])c1ccccc1Sc1ccc2c(/C=C/c3ccccn3)[n-]nc2c1 (3D coordinates assigned)
O=C(N=c1[n-]cccc1[O-])c1ccccc1Sc1ccc2c(/C=C/c3ccccn3)[n-]nc2c1 (optimized conformer: 110.57747346150937 kcal/mol)

>  <smiles>  (60) 
O=C(N=c1[nH]cccc1O)c1ccccc1Sc1ccc2c(C=Cc3ccccn3)[nH]nc2c1

>  <score_type>  (60) 
oracle

>  <origin>  (60) 
adg

>  <m_score__min__energy>  (60) 
-15.85

>  <m_primary>  (60) 
energy

$$$$
60:0
     RDKit          3D

 41 43  0  0  0  0  0  0  0  0999 V2000
   57.9000   32.1530   43.2100 C   0  0  0  0  0  0  0  0  0  0  0  0
   57.6140   32.2830   44.9650 S   0  0  0  0  0  0  0  0  0  0  0  0
   57.0240   30.9790   45.4210 O   0  0  0  0  0  0  0  0  0  0  0  0
   56.6320   33.3920   45.2130 O   0  0  0  0  0  0  0  0  0  0  0  0
   59.1150   32.6120   45.8550 C   0  0  0  0  0  0  0  0  0  0  0  0
   59.5940   33.9300   45.9300 C   0  0  0  0  0  0  0  0  0  0  0  0
   60.7940   34.2160   46.5830 C   0  0  0  0  0  0  0  0  0  0  0  0
   61.5330   33.1910   47.1710 C   0  0  0  0  0  0  0  0  0  0  0  0
   61.0670   31.8760   47.1200 C   0  0  0  0  0  0  0  0  0  0  0  0
   59.8540   31.5740   46.4790 C   0  0  0  0  0  0  0  0  0  0  0  0
   59.3890   30.1730   46.4840 C   0  0  0  0  0  0  0  0  0  0  0  0
   58.9010   29.5930   47.6640 C   0  0  0  0  0  0  0  0  0  0  0  0
   58.4490   28.2710   47.6630 C   0  0  0  0  0  0  0  0  0  0  0  0
   58.4710   27.5170   46.4850 C   0  0  0  0  0  0  0  0  0  0  0  0
   57.9900   26.1650   46.5140 N   0  0  0  0  0  0  0  0  0  0  0  0
   56.7180   25.7140   46.0290 C   0  0  0  0  0  0  0  0  0  0  0  0
   55.6850   26.3510   46.3660 O   0  0  0  0  0  0  0  0  0  0  0  0
   56.5910   24.5590   45.1080 C   0  0  0  0  0  0  0  0  0  0  0  0
   56.1380   23.3200   45.5830 C   0  0  0  0  0  0  0  0  0  0  0  0
   56.0180   22.2360   44.7120 C   0  0  0  0  0  0  0  0  0  0  0  0
   56.3440   22.4010   43.3630 C   0  0  0  0  0  0  0  0  0  0  0  0
   56.2410   21.4290   42.5700 O   0  0  0  0  0  0  0  0  0  0  0  0
   56.7680   23.6130   42.9080 N   0  0  0  0  0  0  0  0  0  0  0  0
   56.8910   24.6830   43.7410 C   0  0  0  0  0  0  0  0  0  0  0  0
   59.0010   28.0840   45.3120 C   0  0  0  0  0  0  0  0  0  0  0  0
   59.4550   29.4060   45.3140 C   0  0  0  0  0  0  0  0  0  0  0  0
   58.8882   31.7038   43.0318 H   0  0  0  0  0  0  0  0  0  0  0  0
   57.1225   31.5198   42.7577 H   0  0  0  0  0  0  0  0  0  0  0  0
   57.8658   33.1551   42.7577 H   0  0  0  0  0  0  0  0  0  0  0  0
   59.0174   34.7456   45.4692 H   0  0  0  0  0  0  0  0  0  0  0  0
   61.1574   35.2530   46.6337 H   0  0  0  0  0  0  0  0  0  0  0  0
   62.4837   33.4182   47.6754 H   0  0  0  0  0  0  0  0  0  0  0  0
   61.6540   31.0704   47.5852 H   0  0  0  0  0  0  0  0  0  0  0  0
   58.8740   30.1809   48.5933 H   0  0  0  0  0  0  0  0  0  0  0  0
   58.0737   27.8206   48.5937 H   0  0  0  0  0  0  0  0  0  0  0  0
   55.8765   23.2020   46.6449 H   0  0  0  0  0  0  0  0  0  0  0  0
   55.6701   21.2610   45.0838 H   0  0  0  0  0  0  0  0  0  0  0  0
   57.0010   23.7310   41.8960 H   0  0  0  0  0  0  0  0  0  0  0  0
   57.2275   25.6509   43.3411 H   0  0  0  0  0  0  0  0  0  0  0  0
   59.0584   27.4856   44.3908 H   0  0  0  0  0  0  0  0  0  0  0  0
   59.8657   29.8456   44.3931 H   0  0  0  0  0  0  0  0  0  0  0  0
  1  2  1  0
  2  3  2  0
  2  4  2  0
  2  5  1  0
  5  6  2  0
  6  7  1  0
  7  8  2  0
  8  9  1  0
  9 10  2  0
 10 11  1  0
 11 12  2  0
 12 13  1  0
 13 14  2  0
 14 15  1  0
 15 16  1  0
 16 17  2  0
 16 18  1  0
 18 19  1  0
 19 20  2  0
 20 21  1  0
 21 22  2  0
 21 23  1  0
 23 24  1  0
 14 25  1  0
 25 26  2  0
 10  5  1  0
 26 11  1  0
 24 18  2  0
  1 27  1  0
  1 28  1  0
  1 29  1  0
  6 30  1  0
  7 31  1  0
  8 32  1  0
  9 33  1  0
 12 34  1  0
 13 35  1  0
 19 36  1  0
 20 37  1  0
 23 38  1  0
 24 39  1  0
 25 40  1  0
 26 41  1  0
M  CHG  1  15  -1
M  END
>  <UniqueID>  (61) 
61

>  <SMILES>  (61) 
CS(=O)(=O)c1ccccc1-c1ccc([N-]C(=O)c2ccc(=O)[nH]c2)cc1

>  <Energy>  (61) 
57.220447032695816

>  <Genealogy>  (61) 
CS(=O)(=O)c1ccccc1-c1ccc([N-]C(=O)c2ccc(=O)[nH]c2)cc1 (protonated)
CS(=O)(=O)c1ccccc1-c1ccc([N-]C(=O)c2ccc(=O)[nH]c2)cc1 (3D coordinates assigned)
CS(=O)(=O)c1ccccc1-c1ccc([N-]C(=O)c2ccc(=O)[nH]c2)cc1 (optimized conformer: 57.220447032695816 kcal/mol)

>  <smiles>  (61) 
CS(=O)(=O)c1ccccc1-c1ccc(NC(=O)c2ccc(=O)[nH]c2)cc1

>  <score_type>  (61) 
oracle

>  <origin>  (61) 
adg

>  <m_score__min__energy>  (61) 
-10.960000000000001

>  <m_primary>  (61) 
energy

$$$$
61:0
     RDKit          3D

 32 33  0  0  0  0  0  0  0  0999 V2000
   57.6310   28.6660   43.9690 C   0  0  0  0  0  0  0  0  0  0  0  0
   56.4530   29.4030   44.5290 C   0  0  0  0  0  0  0  0  0  0  0  0
   55.5190   28.7460   45.0590 O   0  0  0  0  0  0  0  0  0  0  0  0
   56.3360   30.8300   44.4440 N   0  0  0  0  0  0  0  0  0  0  0  0
   57.2090   31.7980   45.0430 C   0  0  0  0  0  0  0  0  0  0  0  0
   57.9540   31.4310   46.1700 C   0  0  0  0  0  0  0  0  0  0  0  0
   58.8350   32.3400   46.7630 C   0  0  0  0  0  0  0  0  0  0  0  0
   58.9910   33.6240   46.2240 C   0  0  0  0  0  0  0  0  0  0  0  0
   60.1140   34.7630   46.9590 S   0  0  0  0  0  0  0  0  0  0  0  0
   59.7590   34.9510   48.4080 O   0  0  0  0  0  0  0  0  0  0  0  0
   60.0210   36.0860   46.2510 O   0  0  0  0  0  0  0  0  0  0  0  0
   61.7230   34.1300   46.8210 N   0  0  0  0  0  0  0  0  0  0  0  0
   62.4880   33.8580   47.8350 C   0  0  0  0  0  0  0  0  0  0  0  0
   63.5520   32.9740   47.8650 C   0  0  0  0  0  0  0  0  0  0  0  0
   64.0020   33.0730   49.1700 C   0  0  0  0  0  0  0  0  0  0  0  0
   65.1600   32.3420   49.7570 C   0  0  0  0  0  0  0  0  0  0  0  0
   63.2600   33.9420   49.8220 O   0  0  0  0  0  0  0  0  0  0  0  0
   62.3410   34.4280   49.0430 N   0  0  0  0  0  0  0  0  0  0  0  0
   58.2760   33.9820   45.0730 C   0  0  0  0  0  0  0  0  0  0  0  0
   57.3940   33.0730   44.4820 C   0  0  0  0  0  0  0  0  0  0  0  0
   58.2479   28.2800   44.7939 H   0  0  0  0  0  0  0  0  0  0  0  0
   57.2786   27.8270   43.3510 H   0  0  0  0  0  0  0  0  0  0  0  0
   58.2314   29.3498   43.3510 H   0  0  0  0  0  0  0  0  0  0  0  0
   57.8454   30.4208   46.5916 H   0  0  0  0  0  0  0  0  0  0  0  0
   59.4074   32.0465   47.6553 H   0  0  0  0  0  0  0  0  0  0  0  0
   63.9441   32.3464   47.0511 H   0  0  0  0  0  0  0  0  0  0  0  0
   65.0995   32.3802   50.8547 H   0  0  0  0  0  0  0  0  0  0  0  0
   65.1383   31.2936   49.4249 H   0  0  0  0  0  0  0  0  0  0  0  0
   66.0972   32.8125   49.4249 H   0  0  0  0  0  0  0  0  0  0  0  0
   61.6260   35.1350   49.3250 H   0  0  0  0  0  0  0  0  0  0  0  0
   58.4094   34.9815   44.6334 H   0  0  0  0  0  0  0  0  0  0  0  0
   56.8422   33.3569   43.5737 H   0  0  0  0  0  0  0  0  0  0  0  0
  1  2  1  0
  2  3  2  0
  2  4  1  0
  4  5  1  0
  5  6  2  0
  6  7  1  0
  7  8  2  0
  8  9  1  0
  9 10  2  0
  9 11  2  0
  9 12  1  0
 12 13  2  3
 13 14  1  0
 14 15  2  0
 15 16  1  0
 15 17  1  0
 17 18  1  0
  8 19  1  0
 19 20  2  0
 20  5  1  0
 18 13  1  0
  1 21  1  0
  1 22  1  0
  1 23  1  0
  6 24  1  0
  7 25  1  0
 14 26  1  0
 16 27  1  0
 16 28  1  0
 16 29  1  0
 18 30  1  0
 19 31  1  0
 20 32  1  0
M  CHG  1   4  -1
M  END
>  <UniqueID>  (62) 
62

>  <SMILES>  (62) 
CC(=O)[N-]c1ccc(S(=O)(=O)N=c2cc(C)o[nH]2)cc1

>  <Energy>  (62) 
70.20317244560624

>  <Genealogy>  (62) 
CC(=O)[N-]c1ccc(S(=O)(=O)N=c2cc(C)o[nH]2)cc1 (protonated)
CC(=O)[N-]c1ccc(S(=O)(=O)N=c2cc(C)o[nH]2)cc1 (3D coordinates assigned)
CC(=O)[N-]c1ccc(S(=O)(=O)N=c2cc(C)o[nH]2)cc1 (optimized conformer: 70.20317244560624 kcal/mol)

>  <smiles>  (62) 
CC(=O)Nc1ccc(S(=O)(=O)N=c2cc(C)o[nH]2)cc1

>  <score_type>  (62) 
oracle

>  <origin>  (62) 
adg

>  <m_score__min__energy>  (62) 
-8.7699999999999996

>  <m_primary>  (62) 
energy

$$$$
62:0
     RDKit          3D

 58 60  0  0  0  0  0  0  0  0999 V2000
   62.2200   31.2640   48.7160 C   0  0  0  0  0  0  0  0  0  0  0  0
   61.7660   32.2620   47.7480 N   0  0  0  0  0  0  0  0  0  0  0  0
   62.7680   32.9940   46.9760 C   0  0  0  0  0  0  0  0  0  0  0  0
   60.4210   32.1760   47.2480 C   0  0  0  0  0  0  0  0  0  0  0  0
   59.4990   33.1700   47.5970 C   0  0  0  0  0  0  0  0  0  0  0  0
   58.1960   33.1300   47.1080 C   0  0  0  0  0  0  0  0  0  0  0  0
   57.7920   32.0970   46.2640 C   0  0  0  0  0  0  0  0  0  0  0  0
   58.6890   31.0720   45.8940 C   0  0  0  0  0  0  0  0  0  0  0  0
   58.2990   30.0050   45.0400 C   0  0  0  0  0  0  0  0  0  0  0  0
   56.6650   29.8830   44.3620 S   0  0  0  0  0  0  0  0  0  0  0  0
   55.9750   31.2120   44.4990 O   0  0  0  0  0  0  0  0  0  0  0  0
   56.7290   29.5190   42.9050 O   0  0  0  0  0  0  0  0  0  0  0  0
   55.7910   28.6490   45.2150 N   0  0  0  0  0  0  0  0  0  0  0  0
   56.7130   27.6080   45.6590 C   0  0  0  0  0  0  0  0  0  0  0  0
   55.9360   26.4100   46.0990 C   0  0  0  0  0  0  0  0  0  0  0  0
   54.7020   26.3370   45.8520 O   0  0  0  0  0  0  0  0  0  0  0  0
   56.5910   25.3750   46.8400 N   0  0  0  0  0  0  0  0  0  0  0  0
   57.3730   24.3100   46.2220 C   0  0  0  0  0  0  0  0  0  0  0  0
   58.8730   24.6120   46.3380 C   0  0  0  0  0  0  0  0  0  0  0  0
   59.1670   26.1170   46.4480 C   0  0  0  0  0  0  0  0  0  0  0  0
   60.3660   26.4190   47.3580 C   0  0  0  0  0  0  0  0  0  0  0  0
   60.0370   27.5400   48.3080 C   0  0  0  0  0  0  0  0  0  0  0  0
   58.9370   28.3800   48.0620 C   0  0  0  0  0  0  0  0  0  0  0  0
   58.6190   29.4030   48.9600 C   0  0  0  0  0  0  0  0  0  0  0  0
   59.3860   29.5890   50.1130 C   0  0  0  0  0  0  0  0  0  0  0  0
   60.4730   28.7480   50.3710 C   0  0  0  0  0  0  0  0  0  0  0  0
   60.7960   27.7240   49.4760 C   0  0  0  0  0  0  0  0  0  0  0  0
   59.2300   29.0070   44.7180 C   0  0  0  0  0  0  0  0  0  0  0  0
   60.5260   29.0480   45.2250 C   0  0  0  0  0  0  0  0  0  0  0  0
   60.9210   30.0890   46.0600 C   0  0  0  0  0  0  0  0  0  0  0  0
   60.0210   31.1150   46.4000 C   0  0  0  0  0  0  0  0  0  0  0  0
   62.0496   31.6386   49.7361 H   0  0  0  0  0  0  0  0  0  0  0  0
   61.6584   30.3295   48.5700 H   0  0  0  0  0  0  0  0  0  0  0  0
   63.2935   31.0733   48.5700 H   0  0  0  0  0  0  0  0  0  0  0  0
   63.4618   33.5008   47.6629 H   0  0  0  0  0  0  0  0  0  0  0  0
   63.3280   32.2908   46.3420 H   0  0  0  0  0  0  0  0  0  0  0  0
   62.2684   33.7413   46.3420 H   0  0  0  0  0  0  0  0  0  0  0  0
   59.8066   33.9895   48.2632 H   0  0  0  0  0  0  0  0  0  0  0  0
   57.4817   33.9178   47.3892 H   0  0  0  0  0  0  0  0  0  0  0  0
   56.7608   32.0804   45.8813 H   0  0  0  0  0  0  0  0  0  0  0  0
   57.3785   27.3289   44.8288 H   0  0  0  0  0  0  0  0  0  0  0  0
   57.3142   27.9845   46.4997 H   0  0  0  0  0  0  0  0  0  0  0  0
   57.1545   23.3587   46.7292 H   0  0  0  0  0  0  0  0  0  0  0  0
   57.1040   24.2412   45.1576 H   0  0  0  0  0  0  0  0  0  0  0  0
   59.2650   24.1101   47.2349 H   0  0  0  0  0  0  0  0  0  0  0  0
   59.3584   24.2441   45.4220 H   0  0  0  0  0  0  0  0  0  0  0  0
   59.3803   26.5088   45.4425 H   0  0  0  0  0  0  0  0  0  0  0  0
   58.2826   26.5978   46.8914 H   0  0  0  0  0  0  0  0  0  0  0  0
   60.6186   25.5174   47.9354 H   0  0  0  0  0  0  0  0  0  0  0  0
   61.2199   26.7205   46.7335 H   0  0  0  0  0  0  0  0  0  0  0  0
   58.3247   28.2319   47.1602 H   0  0  0  0  0  0  0  0  0  0  0  0
   57.7627   30.0633   48.7584 H   0  0  0  0  0  0  0  0  0  0  0  0
   59.1350   30.3961   50.8170 H   0  0  0  0  0  0  0  0  0  0  0  0
   61.0751   28.8926   51.2801 H   0  0  0  0  0  0  0  0  0  0  0  0
   61.6473   27.0600   49.6868 H   0  0  0  0  0  0  0  0  0  0  0  0
   58.9323   28.1806   44.0559 H   0  0  0  0  0  0  0  0  0  0  0  0
   61.2411   28.2539   44.9644 H   0  0  0  0  0  0  0  0  0  0  0  0
   61.9464   30.1096   46.4577 H   0  0  0  0  0  0  0  0  0  0  0  0
  1  2  1  0
  2  3  1  0
  2  4  1  0
  4  5  2  0
  5  6  1  0
  6  7  2  0
  7  8  1  0
  8  9  2  0
  9 10  1  0
 10 11  2  0
 10 12  2  0
 10 13  1  0
 13 14  1  0
 14 15  1  0
 15 16  2  0
 15 17  1  0
 17 18  1  0
 18 19  1  0
 19 20  1  0
 20 21  1  0
 21 22  1  0
 22 23  2  0
 23 24  1  0
 24 25  2  0
 25 26  1  0
 26 27  2  0
  9 28  1  0
 28 29  2  0
 29 30  1  0
 30 31  2  0
 31  4  1  0
 31  8  1  0
 27 22  1  0
  1 32  1  0
  1 33  1  0
  1 34  1  0
  3 35  1  0
  3 36  1  0
  3 37  1  0
  5 38  1  0
  6 39  1  0
  7 40  1  0
 14 41  1  0
 14 42  1  0
 18 43  1  0
 18 44  1  0
 19 45  1  0
 19 46  1  0
 20 47  1  0
 20 48  1  0
 21 49  1  0
 21 50  1  0
 23 51  1  0
 24 52  1  0
 25 53  1  0
 26 54  1  0
 27 55  1  0
 28 56  1  0
 29 57  1  0
 30 58  1  0
M  CHG  2  13  -1  17  -1
M  END
>  <UniqueID>  (63) 
63

>  <SMILES>  (63) 
CN(C)c1cccc2c(S(=O)(=O)[N-]CC(=O)[N-]CCCCc3ccccc3)cccc12

>  <Energy>  (63) 
60.411846078588276

>  <Genealogy>  (63) 
CN(C)c1cccc2c(S(=O)(=O)[N-]CC(=O)[N-]CCCCc3ccccc3)cccc12 (protonated)
CN(C)c1cccc2c(S(=O)(=O)[N-]CC(=O)[N-]CCCCc3ccccc3)cccc12 (3D coordinates assigned)
CN(C)c1cccc2c(S(=O)(=O)[N-]CC(=O)[N-]CCCCc3ccccc3)cccc12 (optimized conformer: 60.411846078588276 kcal/mol)

>  <smiles>  (63) 
CN(C)c1cccc2c(S(=O)(=O)NCC(=O)NCCCCc3ccccc3)cccc12

>  <score_type>  (63) 
oracle

>  <origin>  (63) 
adg

>  <m_score__min__energy>  (63) 
-12.18

>  <m_primary>  (63) 
energy

$$$$
63:0
     RDKit          3D

 44 46  0  0  0  0  0  0  0  0999 V2000
   60.6520   30.0410   46.0290 H   0  0  0  0  0  0  0  0  0  0  0  0
   60.5000   30.9600   46.3740 O   0  0  0  0  0  0  0  0  0  0  0  0
   60.1270   30.8050   47.7160 C   0  0  0  0  0  0  0  0  0  0  0  0
   59.1954   31.3592   47.9030 H   0  0  0  0  0  0  0  0  0  0  0  0
   60.9255   31.1960   48.3637 H   0  0  0  0  0  0  0  0  0  0  0  0
   59.9080   29.3300   48.0200 C   0  0  0  0  0  0  0  0  0  0  0  0
   58.8539   29.1631   48.2865 H   0  0  0  0  0  0  0  0  0  0  0  0
   60.5507   29.0295   48.8606 H   0  0  0  0  0  0  0  0  0  0  0  0
   60.2360   28.5540   46.8700 O   0  0  0  0  0  0  0  0  0  0  0  0
   59.4220   27.5490   46.3260 C   0  0  0  0  0  0  0  0  0  0  0  0
   59.7000   26.1820   46.5190 C   0  0  0  0  0  0  0  0  0  0  0  0
   60.5785   25.8795   47.1078 H   0  0  0  0  0  0  0  0  0  0  0  0
   58.8650   25.2090   45.9660 C   0  0  0  0  0  0  0  0  0  0  0  0
   59.0785   24.1429   46.1325 H   0  0  0  0  0  0  0  0  0  0  0  0
   57.7580   25.5880   45.2010 C   0  0  0  0  0  0  0  0  0  0  0  0
   57.1065   24.8193   44.7599 H   0  0  0  0  0  0  0  0  0  0  0  0
   57.4780   26.9390   44.9960 C   0  0  0  0  0  0  0  0  0  0  0  0
   56.6145   27.2316   44.3806 H   0  0  0  0  0  0  0  0  0  0  0  0
   58.2940   27.9290   45.5720 C   0  0  0  0  0  0  0  0  0  0  0  0
   58.0490   29.3210   45.3190 N   0  0  0  0  0  0  0  0  0  0  0  0
   58.8610   29.9760   45.3900 H   0  0  0  0  0  0  0  0  0  0  0  0
   56.7710   29.8560   44.9300 C   0  0  0  0  0  0  0  0  0  0  0  0
   55.7480   29.1200   44.9100 O   0  0  0  0  0  0  0  0  0  0  0  0
   56.6490   31.2150   44.4940 N   0  0  0  0  0  0  0  0  0  0  0  0
   57.3900   32.2110   44.8830 C   0  0  0  0  0  0  0  0  0  0  0  0
   58.0420   33.0010   44.0010 N   0  0  0  0  0  0  0  0  0  0  0  0
   58.7490   33.9790   44.6250 C   0  0  0  0  0  0  0  0  0  0  0  0
   59.3620   34.7090   44.0761 H   0  0  0  0  0  0  0  0  0  0  0  0
   58.6380   33.9860   46.0110 C   0  0  0  0  0  0  0  0  0  0  0  0
   59.3780   34.8920   46.9450 C   0  0  0  0  0  0  0  0  0  0  0  0
   59.5742   35.8510   46.4431 H   0  0  0  0  0  0  0  0  0  0  0  0
   58.7676   35.0596   47.8446 H   0  0  0  0  0  0  0  0  0  0  0  0
   60.6840   34.2630   47.3450 C   0  0  0  0  0  0  0  0  0  0  0  0
   61.6080   33.8550   46.3670 C   0  0  0  0  0  0  0  0  0  0  0  0
   61.3516   33.9435   45.3010 H   0  0  0  0  0  0  0  0  0  0  0  0
   62.8520   33.3370   46.7430 C   0  0  0  0  0  0  0  0  0  0  0  0
   63.5679   33.0136   45.9730 H   0  0  0  0  0  0  0  0  0  0  0  0
   63.1860   33.2300   48.0950 C   0  0  0  0  0  0  0  0  0  0  0  0
   64.1686   32.8320   48.3886 H   0  0  0  0  0  0  0  0  0  0  0  0
   62.2710   33.6290   49.0770 C   0  0  0  0  0  0  0  0  0  0  0  0
   62.6930   33.4980   50.7730 Cl  0  0  0  0  0  0  0  0  0  0  0  0
   61.0250   34.1440   48.7040 C   0  0  0  0  0  0  0  0  0  0  0  0
   60.3085   34.4574   49.4776 H   0  0  0  0  0  0  0  0  0  0  0  0
   57.6360   32.7130   46.4750 S   0  0  0  0  0  0  0  0  0  0  0  0
  1  2  1  0
  2  3  1  0
  3  4  1  0
  3  5  1  0
  3  6  1  0
  6  7  1  0
  6  8  1  0
  6  9  1  0
  9 10  1  0
 10 11  2  0
 11 12  1  0
 11 13  1  0
 13 14  1  0
 13 15  2  0
 15 16  1  0
 15 17  1  0
 17 18  1  0
 17 19  2  0
 19 20  1  0
 20 21  1  0
 20 22  1  0
 22 23  2  0
 22 24  1  0
 24 25  2  0
 25 26  1  0
 26 27  1  0
 27 28  1  0
 27 29  2  0
 29 30  1  0
 30 31  1  0
 30 32  1  0
 30 33  1  0
 33 34  2  0
 34 35  1  0
 34 36  1  0
 36 37  1  0
 36 38  2  0
 38 39  1  0
 38 40  1  0
 40 41  1  0
 40 42  2  0
 42 43  1  0
 29 44  1  0
 19 10  1  0
 44 25  1  0
 42 33  1  0
M  CHG  1  26  -1
M  END
>  <UniqueID>  (64) 
64

>  <SMILES>  (64) 
O=C(/N=c1/[n-]cc(Cc2cccc(Cl)c2)s1)Nc1ccccc1OCCO

>  <Energy>  (64) 
80.43387745058055

>  <Genealogy>  (64) 
O=C(N=c1[n-]cc(Cc2cccc(Cl)c2)s1)Nc1ccccc1OCCO (protonated)
O=C(/N=c1/[n-]cc(Cc2cccc(Cl)c2)s1)Nc1ccccc1OCCO (cis-trans isomerization)
O=C(/N=c1/[n-]cc(Cc2cccc(Cl)c2)s1)Nc1ccccc1OCCO (3D coordinates assigned)
O=C(/N=c1/[n-]cc(Cc2cccc(Cl)c2)s1)Nc1ccccc1OCCO (optimized conformer: 80.43387745058055 kcal/mol)

>  <smiles>  (64) 
O=C(N=c1[nH]cc(Cc2cccc(Cl)c2)s1)Nc1ccccc1OCCO

>  <score_type>  (64) 
oracle

>  <origin>  (64) 
adg

>  <m_score__min__energy>  (64) 
-10.01

>  <m_primary>  (64) 
energy

$$$$
64:0
     RDKit          3D

 38 40  0  0  0  0  0  0  0  0999 V2000
   60.4320   29.3580   45.0200 O   0  0  0  0  0  0  0  0  0  0  0  0
   59.4280   29.6120   45.7350 C   0  0  0  0  0  0  0  0  0  0  0  0
   59.4140   30.8330   46.4870 N   0  0  0  0  0  0  0  0  0  0  0  0
   58.9160   32.1030   46.0370 C   0  0  0  0  0  0  0  0  0  0  0  0
   57.8260   32.1850   45.1520 C   0  0  0  0  0  0  0  0  0  0  0  0
   57.3870   33.4250   44.6850 C   0  0  0  0  0  0  0  0  0  0  0  0
   58.0390   34.5940   45.0810 C   0  0  0  0  0  0  0  0  0  0  0  0
   59.1360   34.5240   45.9410 C   0  0  0  0  0  0  0  0  0  0  0  0
   59.5830   33.2830   46.4240 C   0  0  0  0  0  0  0  0  0  0  0  0
   60.7110   33.2220   47.3140 N   0  0  0  0  0  0  0  0  0  0  0  0
   62.0240   32.8380   46.7920 C   0  0  0  0  0  0  0  0  0  0  0  0
   63.1200   33.4480   47.6700 C   0  0  0  0  0  0  0  0  0  0  0  0
   62.9110   33.1250   49.0330 O   0  0  0  0  0  0  0  0  0  0  0  0
   61.7110   33.7210   49.4900 C   0  0  0  0  0  0  0  0  0  0  0  0
   60.4990   33.1340   48.7590 C   0  0  0  0  0  0  0  0  0  0  0  0
   58.3250   28.6240   45.8160 C   0  0  0  0  0  0  0  0  0  0  0  0
   58.5080   27.4150   46.5050 C   0  0  0  0  0  0  0  0  0  0  0  0
   57.4670   26.4900   46.5850 C   0  0  0  0  0  0  0  0  0  0  0  0
   56.2410   26.7840   45.9830 C   0  0  0  0  0  0  0  0  0  0  0  0
   55.2940   25.9540   46.0490 O   0  0  0  0  0  0  0  0  0  0  0  0
   56.0680   27.9660   45.3300 N   0  0  0  0  0  0  0  0  0  0  0  0
   57.0700   28.8830   45.2400 C   0  0  0  0  0  0  0  0  0  0  0  0
   57.3163   31.2664   44.8259 H   0  0  0  0  0  0  0  0  0  0  0  0
   56.5254   33.4811   44.0035 H   0  0  0  0  0  0  0  0  0  0  0  0
   57.6882   35.5703   44.7153 H   0  0  0  0  0  0  0  0  0  0  0  0
   59.6538   35.4465   46.2425 H   0  0  0  0  0  0  0  0  0  0  0  0
   62.1155   31.7418   46.7998 H   0  0  0  0  0  0  0  0  0  0  0  0
   62.1315   33.2074   45.7615 H   0  0  0  0  0  0  0  0  0  0  0  0
   64.0970   33.0551   47.3521 H   0  0  0  0  0  0  0  0  0  0  0  0
   63.0924   34.5420   47.5589 H   0  0  0  0  0  0  0  0  0  0  0  0
   61.6051   33.5368   50.5693 H   0  0  0  0  0  0  0  0  0  0  0  0
   61.7550   34.8015   49.2884 H   0  0  0  0  0  0  0  0  0  0  0  0
   60.3720   32.0801   49.0474 H   0  0  0  0  0  0  0  0  0  0  0  0
   59.5965   33.7004   49.0322 H   0  0  0  0  0  0  0  0  0  0  0  0
   59.4744   27.1965   46.9829 H   0  0  0  0  0  0  0  0  0  0  0  0
   57.6100   25.5379   47.1171 H   0  0  0  0  0  0  0  0  0  0  0  0
   55.1450   28.1830   44.8890 H   0  0  0  0  0  0  0  0  0  0  0  0
   56.8960   29.8327   44.7130 H   0  0  0  0  0  0  0  0  0  0  0  0
  1  2  2  0
  2  3  1  0
  3  4  1  0
  4  5  2  0
  5  6  1  0
  6  7  2  0
  7  8  1  0
  8  9  2  0
  9 10  1  0
 10 11  1  0
 11 12  1  0
 12 13  1  0
 13 14  1  0
 14 15  1  0
  2 16  1  0
 16 17  1  0
 17 18  2  0
 18 19  1  0
 19 20  2  0
 19 21  1  0
 21 22  1  0
  9  4  1  0
 15 10  1  0
 22 16  2  0
  5 23  1  0
  6 24  1  0
  7 25  1  0
  8 26  1  0
 11 27  1  0
 11 28  1  0
 12 29  1  0
 12 30  1  0
 14 31  1  0
 14 32  1  0
 15 33  1  0
 15 34  1  0
 17 35  1  0
 18 36  1  0
 21 37  1  0
 22 38  1  0
M  CHG  1   3  -1
M  END
>  <UniqueID>  (65) 
65

>  <SMILES>  (65) 
O=C([N-]c1ccccc1N1CCOCC1)c1ccc(=O)[nH]c1

>  <Energy>  (65) 
52.47331396260673

>  <Genealogy>  (65) 
O=C([N-]c1ccccc1N1CCOCC1)c1ccc(=O)[nH]c1 (protonated)
O=C([N-]c1ccccc1N1CCOCC1)c1ccc(=O)[nH]c1 (3D coordinates assigned)
O=C([N-]c1ccccc1N1CCOCC1)c1ccc(=O)[nH]c1 (nonaromatic ring conformer: 52.47331396260673 kcal/mol)

>  <smiles>  (65) 
O=C(Nc1ccccc1N1CCOCC1)c1ccc(=O)[nH]c1

>  <score_type>  (65) 
oracle

>  <origin>  (65) 
adg

>  <m_score__min__energy>  (65) 
-8.75

>  <m_primary>  (65) 
energy

$$$$
65:0
     RDKit          3D

 43 46  0  0  0  0  0  0  0  0999 V2000
   59.0204   29.9815   47.9748 H   0  0  0  0  0  0  0  0  0  0  0  0
   58.3710   29.5840   47.1810 C   0  0  0  0  0  0  0  0  0  0  0  0
   57.9173   28.5877   47.2889 H   0  0  0  0  0  0  0  0  0  0  0  0
   58.1320   30.3150   46.0800 C   0  0  0  0  0  0  0  0  0  0  0  0
   57.3310   29.9450   44.9900 C   0  0  0  0  0  0  0  0  0  0  0  0
   56.6610   28.7820   44.8380 C   0  0  0  0  0  0  0  0  0  0  0  0
   55.7538   28.8024   44.2162 H   0  0  0  0  0  0  0  0  0  0  0  0
   57.0420   27.4820   45.4360 C   0  0  0  0  0  0  0  0  0  0  0  0
   58.2950   27.0140   45.5840 N   0  0  0  0  0  0  0  0  0  0  0  0
   58.1200   25.8300   46.2080 C   0  0  0  0  0  0  0  0  0  0  0  0
   59.0810   25.0780   46.5170 O   0  0  0  0  0  0  0  0  0  0  0  0
   56.8350   25.5160   46.4750 N   0  0  0  0  0  0  0  0  0  0  0  0
   56.1680   26.5730   45.9860 C   0  0  0  0  0  0  0  0  0  0  0  0
   54.7860   26.7030   46.0400 O   0  0  0  0  0  0  0  0  0  0  0  0
   57.3470   31.0280   44.1180 C   0  0  0  0  0  0  0  0  0  0  0  0
   56.8191   31.1027   43.1558 H   0  0  0  0  0  0  0  0  0  0  0  0
   58.1520   31.9910   44.6910 C   0  0  0  0  0  0  0  0  0  0  0  0
   58.4300   33.3360   44.0900 C   0  0  0  0  0  0  0  0  0  0  0  0
   58.5821   34.0721   44.8931 H   0  0  0  0  0  0  0  0  0  0  0  0
   59.3355   33.2796   43.4680 H   0  0  0  0  0  0  0  0  0  0  0  0
   57.5764   33.6432   43.4680 H   0  0  0  0  0  0  0  0  0  0  0  0
   58.6260   31.5640   45.8820 N   0  0  0  0  0  0  0  0  0  0  0  0
   59.4960   32.3060   46.7530 C   0  0  0  0  0  0  0  0  0  0  0  0
   59.0440   33.4810   47.3700 C   0  0  0  0  0  0  0  0  0  0  0  0
   58.0212   33.8396   47.1823 H   0  0  0  0  0  0  0  0  0  0  0  0
   59.8880   34.1990   48.2230 C   0  0  0  0  0  0  0  0  0  0  0  0
   59.5305   35.1267   48.6937 H   0  0  0  0  0  0  0  0  0  0  0  0
   61.1890   33.7410   48.4810 C   0  0  0  0  0  0  0  0  0  0  0  0
   62.1110   34.5360   49.3610 C   0  0  0  0  0  0  0  0  0  0  0  0
   62.4759   35.4140   48.8078 H   0  0  0  0  0  0  0  0  0  0  0  0
   61.5635   34.8621   50.2576 H   0  0  0  0  0  0  0  0  0  0  0  0
   63.2470   33.7120   49.7650 N   0  0  0  0  0  0  0  0  0  0  0  0
   63.3590   32.9830   50.8920 C   0  0  0  0  0  0  0  0  0  0  0  0
   62.6039   32.9725   51.6919 H   0  0  0  0  0  0  0  0  0  0  0  0
   64.5020   32.2670   50.9290 N   0  0  0  0  0  0  0  0  0  0  0  0
   65.1180   32.5600   49.7650 C   0  0  0  0  0  0  0  0  0  0  0  0
   66.0888   32.1559   49.4422 H   0  0  0  0  0  0  0  0  0  0  0  0
   64.3460   33.4420   49.0430 C   0  0  0  0  0  0  0  0  0  0  0  0
   64.5868   33.8524   48.0512 H   0  0  0  0  0  0  0  0  0  0  0  0
   61.6440   32.5700   47.8540 C   0  0  0  0  0  0  0  0  0  0  0  0
   62.6693   32.2152   48.0352 H   0  0  0  0  0  0  0  0  0  0  0  0
   60.8010   31.8530   47.0010 C   0  0  0  0  0  0  0  0  0  0  0  0
   61.1613   30.9305   46.5223 H   0  0  0  0  0  0  0  0  0  0  0  0
  1  2  1  0
  2  3  1  0
  2  4  2  0
  4  5  1  0
  5  6  2  0
  6  7  1  0
  6  8  1  0
  8  9  1  0
  9 10  1  0
 10 11  2  0
 10 12  1  0
 12 13  1  0
 13 14  1  0
  5 15  1  0
 15 16  1  0
 15 17  2  0
 17 18  1  0
 18 19  1  0
 18 20  1  0
 18 21  1  0
 17 22  1  0
 22 23  1  0
 23 24  2  0
 24 25  1  0
 24 26  1  0
 26 27  1  0
 26 28  2  0
 28 29  1  0
 29 30  1  0
 29 31  1  0
 29 32  1  0
 32 33  1  0
 33 34  1  0
 33 35  2  0
 35 36  1  0
 36 37  1  0
 36 38  2  0
 38 39  1  0
 28 40  1  0
 40 41  1  0
 40 42  2  0
 42 43  1  0
 22  4  1  0
 42 23  1  0
 13  8  2  0
 38 32  1  0
M  CHG  3   9  -1  12  -1  14  -1
M  END
>  <UniqueID>  (66) 
66

>  <SMILES>  (66) 
C=c1/c(=C/c2[n-]c(=O)[n-]c2[O-])cc(C)n1-c1ccc(Cn2ccnc2)cc1

>  <Energy>  (66) 
142.73771475177273

>  <Genealogy>  (66) 
C=c1c(=Cc2[n-]c(=O)[n-]c2[O-])cc(C)n1-c1ccc(Cn2ccnc2)cc1 (protonated)
C=c1/c(=C/c2[n-]c(=O)[n-]c2[O-])cc(C)n1-c1ccc(Cn2ccnc2)cc1 (cis-trans isomerization)
C=c1/c(=C/c2[n-]c(=O)[n-]c2[O-])cc(C)n1-c1ccc(Cn2ccnc2)cc1 (3D coordinates assigned)
C=c1/c(=C/c2[n-]c(=O)[n-]c2[O-])cc(C)n1-c1ccc(Cn2ccnc2)cc1 (optimized conformer: 142.73771475177273 kcal/mol)

>  <smiles>  (66) 
C=c1c(=Cc2[nH]c(=O)[nH]c2O)cc(C)n1-c1ccc(Cn2ccnc2)cc1

>  <score_type>  (66) 
oracle

>  <origin>  (66) 
adg

>  <m_score__min__energy>  (66) 
-15.4

>  <m_primary>  (66) 
energy

$$$$
66:0
     RDKit          3D

 50 53  0  0  0  0  0  0  0  0999 V2000
   53.5490   24.2390   45.2740 C   0  0  0  0  0  0  0  0  0  0  0  0
   54.2820   25.4380   45.6640 N   0  0  0  0  0  0  0  0  0  0  0  0
   55.5770   25.5110   45.7350 C   0  0  0  0  0  0  0  0  0  0  0  0
   56.1850   26.2640   46.6940 N   0  0  0  0  0  0  0  0  0  0  0  0
   57.5390   26.3260   46.7830 C   0  0  0  0  0  0  0  0  0  0  0  0
   58.1460   27.1030   47.7740 C   0  0  0  0  0  0  0  0  0  0  0  0
   59.5470   27.1470   47.8830 C   0  0  0  0  0  0  0  0  0  0  0  0
   60.1830   27.9680   48.9360 C   0  0  0  0  0  0  0  0  0  0  0  0
   61.1370   27.4950   49.6070 O   0  0  0  0  0  0  0  0  0  0  0  0
   59.7030   29.2830   49.2350 N   0  0  0  0  0  0  0  0  0  0  0  0
   59.9040   30.4130   48.3770 C   0  0  0  0  0  0  0  0  0  0  0  0
   61.1920   30.7850   47.9600 C   0  0  0  0  0  0  0  0  0  0  0  0
   61.3720   31.9070   47.1480 C   0  0  0  0  0  0  0  0  0  0  0  0
   60.2660   32.6520   46.7290 C   0  0  0  0  0  0  0  0  0  0  0  0
   58.9740   32.2730   47.1110 C   0  0  0  0  0  0  0  0  0  0  0  0
   57.8600   32.9910   46.5690 N   0  0  0  0  0  0  0  0  0  0  0  0
   57.8880   33.8310   45.0520 S   0  0  0  0  0  0  0  0  0  0  0  0
   56.6080   34.5960   44.8690 O   0  0  0  0  0  0  0  0  0  0  0  0
   59.0380   34.7990   45.0570 O   0  0  0  0  0  0  0  0  0  0  0  0
   58.1150   32.6780   43.7030 C   0  0  0  0  0  0  0  0  0  0  0  0
   57.7200   31.2860   44.1190 C   0  0  0  0  0  0  0  0  0  0  0  0
   56.3690   30.9040   44.1160 C   0  0  0  0  0  0  0  0  0  0  0  0
   56.0040   29.6020   44.4740 C   0  0  0  0  0  0  0  0  0  0  0  0
   56.9850   28.6710   44.8310 C   0  0  0  0  0  0  0  0  0  0  0  0
   58.3320   29.0420   44.8320 C   0  0  0  0  0  0  0  0  0  0  0  0
   58.7000   30.3430   44.4790 C   0  0  0  0  0  0  0  0  0  0  0  0
   58.8000   31.1700   47.9650 C   0  0  0  0  0  0  0  0  0  0  0  0
   60.3330   26.3940   46.9950 C   0  0  0  0  0  0  0  0  0  0  0  0
   59.7310   25.6300   45.9900 C   0  0  0  0  0  0  0  0  0  0  0  0
   58.3330   25.5960   45.8800 C   0  0  0  0  0  0  0  0  0  0  0  0
   57.6900   24.8400   44.8960 C   0  0  0  0  0  0  0  0  0  0  0  0
   56.3320   24.8140   44.8450 N   0  0  0  0  0  0  0  0  0  0  0  0
   53.2201   23.7009   46.1753 H   0  0  0  0  0  0  0  0  0  0  0  0
   52.6707   24.5243   44.6763 H   0  0  0  0  0  0  0  0  0  0  0  0
   54.2033   23.5874   44.6763 H   0  0  0  0  0  0  0  0  0  0  0  0
   57.5243   27.6829   48.4720 H   0  0  0  0  0  0  0  0  0  0  0  0
   62.0626   30.1905   48.2740 H   0  0  0  0  0  0  0  0  0  0  0  0
   62.3846   32.2045   46.8381 H   0  0  0  0  0  0  0  0  0  0  0  0
   60.4117   33.5400   46.0963 H   0  0  0  0  0  0  0  0  0  0  0  0
   57.4919   32.9908   42.8522 H   0  0  0  0  0  0  0  0  0  0  0  0
   59.1773   32.6732   43.4175 H   0  0  0  0  0  0  0  0  0  0  0  0
   55.5946   31.6314   43.8310 H   0  0  0  0  0  0  0  0  0  0  0  0
   54.9435   29.3097   44.4748 H   0  0  0  0  0  0  0  0  0  0  0  0
   56.6961   27.6472   45.1108 H   0  0  0  0  0  0  0  0  0  0  0  0
   59.1036   28.3093   45.1109 H   0  0  0  0  0  0  0  0  0  0  0  0
   59.7615   30.6313   44.4826 H   0  0  0  0  0  0  0  0  0  0  0  0
   57.7915   30.9000   48.3115 H   0  0  0  0  0  0  0  0  0  0  0  0
   61.4288   26.4053   47.0907 H   0  0  0  0  0  0  0  0  0  0  0  0
   60.3529   25.0566   45.2868 H   0  0  0  0  0  0  0  0  0  0  0  0
   58.2808   24.2681   44.1654 H   0  0  0  0  0  0  0  0  0  0  0  0
  1  2  1  0
  2  3  2  3
  3  4  1  0
  4  5  2  0
  5  6  1  0
  6  7  2  0
  7  8  1  0
  8  9  2  0
  8 10  1  0
 10 11  1  0
 11 12  2  0
 12 13  1  0
 13 14  2  0
 14 15  1  0
 15 16  1  0
 16 17  1  0
 17 18  2  0
 17 19  2  0
 17 20  1  0
 20 21  1  0
 21 22  2  0
 22 23  1  0
 23 24  2  0
 24 25  1  0
 25 26  2  0
 15 27  2  0
  7 28  1  0
 28 29  2  0
 29 30  1  0
 30 31  2  0
 31 32  1  0
 32  3  1  0
 30  5  1  0
 27 11  1  0
 26 21  1  0
  1 33  1  0
  1 34  1  0
  1 35  1  0
  6 36  1  0
 12 37  1  0
 13 38  1  0
 14 39  1  0
 20 40  1  0
 20 41  1  0
 22 42  1  0
 23 43  1  0
 24 44  1  0
 25 45  1  0
 26 46  1  0
 27 47  1  0
 28 48  1  0
 29 49  1  0
 31 50  1  0
M  CHG  3  10  -1  16  -1  32  -1
M  END
>  <UniqueID>  (67) 
67

>  <SMILES>  (67) 
CN=c1nc2cc(C(=O)[N-]c3cccc([N-]S(=O)(=O)Cc4ccccc4)c3)ccc2c[n-]1

>  <Energy>  (67) 
58.63785823956676

>  <Genealogy>  (67) 
CN=c1nc2cc(C(=O)[N-]c3cccc([N-]S(=O)(=O)Cc4ccccc4)c3)ccc2c[n-]1 (protonated)
CN=c1nc2cc(C(=O)[N-]c3cccc([N-]S(=O)(=O)Cc4ccccc4)c3)ccc2c[n-]1 (3D coordinates assigned)
CN=c1nc2cc(C(=O)[N-]c3cccc([N-]S(=O)(=O)Cc4ccccc4)c3)ccc2c[n-]1 (optimized conformer: 58.63785823956676 kcal/mol)

>  <smiles>  (67) 
CN=c1nc2cc(C(=O)Nc3cccc(NS(=O)(=O)Cc4ccccc4)c3)ccc2c[nH]1

>  <score_type>  (67) 
oracle

>  <origin>  (67) 
adg

>  <m_score__min__energy>  (67) 
-13.6

>  <m_primary>  (67) 
energy

$$$$
67:0
     RDKit          3D

 55 58  0  0  0  0  0  0  0  0999 V2000
   56.3520   23.3270   46.7530 C   0  0  0  0  0  0  0  0  0  0  0  0
   56.2700   24.7780   46.4260 C   0  0  0  0  0  0  0  0  0  0  0  0
   57.3310   25.6090   46.1260 C   0  0  0  0  0  0  0  0  0  0  0  0
   56.7100   26.8170   45.8620 C   0  0  0  0  0  0  0  0  0  0  0  0
   57.2690   27.9330   45.4950 N   0  0  0  0  0  0  0  0  0  0  0  0
   56.6390   29.2050   45.2600 C   0  0  0  0  0  0  0  0  0  0  0  0
   55.4370   29.2660   44.8810 O   0  0  0  0  0  0  0  0  0  0  0  0
   57.4190   30.4550   45.4270 C   0  0  0  0  0  0  0  0  0  0  0  0
   58.5800   30.4750   46.2210 C   0  0  0  0  0  0  0  0  0  0  0  0
   59.3080   31.6570   46.3860 C   0  0  0  0  0  0  0  0  0  0  0  0
   58.9010   32.8320   45.7440 C   0  0  0  0  0  0  0  0  0  0  0  0
   59.8440   34.3100   45.9240 S   0  0  0  0  0  0  0  0  0  0  0  0
   61.3040   34.0350   45.6860 O   0  0  0  0  0  0  0  0  0  0  0  0
   59.3610   35.3160   44.9170 O   0  0  0  0  0  0  0  0  0  0  0  0
   59.6480   34.9620   47.5210 N   0  0  0  0  0  0  0  0  0  0  0  0
   60.3010   34.4230   48.6850 C   0  0  0  0  0  0  0  0  0  0  0  0
   61.6840   34.1790   48.6440 C   0  0  0  0  0  0  0  0  0  0  0  0
   62.3500   33.6910   49.7720 C   0  0  0  0  0  0  0  0  0  0  0  0
   61.6450   33.4490   50.9530 C   0  0  0  0  0  0  0  0  0  0  0  0
   60.2660   33.6830   51.0100 C   0  0  0  0  0  0  0  0  0  0  0  0
   59.3920   33.3770   52.5090 S   0  0  0  0  0  0  0  0  0  0  0  0
   58.4670   34.5240   52.8120 O   0  0  0  0  0  0  0  0  0  0  0  0
   60.3900   33.2570   53.6260 O   0  0  0  0  0  0  0  0  0  0  0  0
   58.4870   31.8920   52.3670 N   0  0  0  0  0  0  0  0  0  0  0  0
   58.9680   31.1150   51.2130 C   0  0  0  0  0  0  0  0  0  0  0  0
   58.1260   29.8300   51.0440 C   0  0  0  0  0  0  0  0  0  0  0  0
   57.0800   29.7570   51.9940 O   0  0  0  0  0  0  0  0  0  0  0  0
   56.2610   30.9060   51.8920 C   0  0  0  0  0  0  0  0  0  0  0  0
   57.0530   32.1880   52.2200 C   0  0  0  0  0  0  0  0  0  0  0  0
   59.5930   34.1530   49.8730 C   0  0  0  0  0  0  0  0  0  0  0  0
   57.7450   32.8220   44.9570 C   0  0  0  0  0  0  0  0  0  0  0  0
   57.0100   31.6440   44.7960 C   0  0  0  0  0  0  0  0  0  0  0  0
   55.3770   26.6920   45.9930 N   0  0  0  0  0  0  0  0  0  0  0  0
   55.1490   25.4560   46.3310 O   0  0  0  0  0  0  0  0  0  0  0  0
   56.3593   23.1971   47.8453 H   0  0  0  0  0  0  0  0  0  0  0  0
   55.4819   22.8055   46.3276 H   0  0  0  0  0  0  0  0  0  0  0  0
   57.2753   22.9069   46.3276 H   0  0  0  0  0  0  0  0  0  0  0  0
   58.4044   25.3699   46.1026 H   0  0  0  0  0  0  0  0  0  0  0  0
   58.9179   29.5528   46.7163 H   0  0  0  0  0  0  0  0  0  0  0  0
   60.2046   31.6635   47.0232 H   0  0  0  0  0  0  0  0  0  0  0  0
   58.9120   35.6930   47.6450 H   0  0  0  0  0  0  0  0  0  0  0  0
   62.2462   34.3732   47.7186 H   0  0  0  0  0  0  0  0  0  0  0  0
   63.4319   33.4971   49.7293 H   0  0  0  0  0  0  0  0  0  0  0  0
   62.1748   33.0735   51.8409 H   0  0  0  0  0  0  0  0  0  0  0  0
   58.8834   31.7268   50.3028 H   0  0  0  0  0  0  0  0  0  0  0  0
   60.0183   30.8353   51.3823 H   0  0  0  0  0  0  0  0  0  0  0  0
   57.6906   29.8202   50.0339 H   0  0  0  0  0  0  0  0  0  0  0  0
   58.7882   28.9653   51.1982 H   0  0  0  0  0  0  0  0  0  0  0  0
   55.8708   30.9782   50.8661 H   0  0  0  0  0  0  0  0  0  0  0  0
   55.4375   30.8114   52.6152 H   0  0  0  0  0  0  0  0  0  0  0  0
   56.9162   32.9149   51.4058 H   0  0  0  0  0  0  0  0  0  0  0  0
   56.6788   32.6012   53.1683 H   0  0  0  0  0  0  0  0  0  0  0  0
   58.5051   34.3120   49.9088 H   0  0  0  0  0  0  0  0  0  0  0  0
   57.4123   33.7463   44.4620 H   0  0  0  0  0  0  0  0  0  0  0  0
   56.1048   31.6467   44.1711 H   0  0  0  0  0  0  0  0  0  0  0  0
  1  2  1  0
  2  3  2  0
  3  4  1  0
  4  5  2  3
  5  6  1  0
  6  7  2  0
  6  8  1  0
  8  9  2  0
  9 10  1  0
 10 11  2  0
 11 12  1  0
 12 13  2  0
 12 14  2  0
 12 15  1  0
 15 16  1  0
 16 17  2  0
 17 18  1  0
 18 19  2  0
 19 20  1  0
 20 21  1  0
 21 22  2  0
 21 23  2  0
 21 24  1  0
 24 25  1  0
 25 26  1  0
 26 27  1  0
 27 28  1  0
 28 29  1  0
 20 30  2  0
 11 31  1  0
 31 32  2  0
  4 33  1  0
 33 34  1  0
 34  2  1  0
 32  8  1  0
 30 16  1  0
 29 24  1  0
  1 35  1  0
  1 36  1  0
  1 37  1  0
  3 38  1  0
  9 39  1  0
 10 40  1  0
 15 41  1  0
 17 42  1  0
 18 43  1  0
 19 44  1  0
 25 45  1  0
 25 46  1  0
 26 47  1  0
 26 48  1  0
 28 49  1  0
 28 50  1  0
 29 51  1  0
 29 52  1  0
 30 53  1  0
 31 54  1  0
 32 55  1  0
M  CHG  1  33  -1
M  END
>  <UniqueID>  (68) 
68

>  <SMILES>  (68) 
Cc1cc(=NC(=O)c2ccc(S(=O)(=O)Nc3cccc(S(=O)(=O)N4CCOCC4)c3)cc2)[n-]o1

>  <Energy>  (68) 
102.45436156017259

>  <Genealogy>  (68) 
Cc1cc(=NC(=O)c2ccc(S(=O)(=O)Nc3cccc(S(=O)(=O)N4CCOCC4)c3)cc2)[n-]o1 (protonated)
Cc1cc(=NC(=O)c2ccc(S(=O)(=O)Nc3cccc(S(=O)(=O)N4CCOCC4)c3)cc2)[n-]o1 (3D coordinates assigned)
Cc1cc(=NC(=O)c2ccc(S(=O)(=O)Nc3cccc(S(=O)(=O)N4CCOCC4)c3)cc2)[n-]o1 (nonaromatic ring conformer: 102.45436156017259 kcal/mol)

>  <smiles>  (68) 
Cc1cc(=NC(=O)c2ccc(S(=O)(=O)Nc3cccc(S(=O)(=O)N4CCOCC4)c3)cc2)[nH]o1

>  <score_type>  (68) 
oracle

>  <origin>  (68) 
adg

>  <m_score__min__energy>  (68) 
-12.94

>  <m_primary>  (68) 
energy

$$$$
68:0
     RDKit          3D

 61 65  0  0  0  0  0  0  0  0999 V2000
   55.1580   29.1540   44.6460 O   0  0  0  0  0  0  0  0  0  0  0  0
   56.2630   29.7190   44.8790 C   0  0  0  0  0  0  0  0  0  0  0  0
   56.5290   31.0010   44.3020 N   0  0  0  0  0  0  0  0  0  0  0  0
   57.3840   32.0070   44.8640 C   0  0  0  0  0  0  0  0  0  0  0  0
   58.0350   32.9000   44.0030 C   0  0  0  0  0  0  0  0  0  0  0  0
   58.9220   33.8570   44.5060 C   0  0  0  0  0  0  0  0  0  0  0  0
   59.1800   33.9250   45.8850 C   0  0  0  0  0  0  0  0  0  0  0  0
   60.0800   34.8710   46.4020 C   0  0  0  0  0  0  0  0  0  0  0  0
   60.3270   34.9290   47.7760 C   0  0  0  0  0  0  0  0  0  0  0  0
   59.6750   34.0490   48.6440 C   0  0  0  0  0  0  0  0  0  0  0  0
   58.7800   33.0990   48.1440 C   0  0  0  0  0  0  0  0  0  0  0  0
   58.5280   33.0260   46.7630 C   0  0  0  0  0  0  0  0  0  0  0  0
   57.6460   32.0650   46.2460 C   0  0  0  0  0  0  0  0  0  0  0  0
   57.2330   29.0900   45.7250 N   0  0  0  0  0  0  0  0  0  0  0  0
   57.9900   27.8880   45.3740 C   0  0  0  0  0  0  0  0  0  0  0  0
   59.1220   28.2590   44.3880 C   0  0  0  0  0  0  0  0  0  0  0  0
   60.5250   28.2240   45.0270 C   0  0  0  0  0  0  0  0  0  0  0  0
   60.5390   28.7900   46.3930 N   0  0  0  0  0  0  0  0  0  0  0  0
   60.4180   30.2660   46.3800 C   0  0  0  0  0  0  0  0  0  0  0  0
   61.1440   30.8780   47.5530 C   0  0  0  0  0  0  0  0  0  0  0  0
   60.7020   30.6450   48.8660 C   0  0  0  0  0  0  0  0  0  0  0  0
   61.3310   31.2720   49.9480 C   0  0  0  0  0  0  0  0  0  0  0  0
   62.4080   32.1380   49.7350 C   0  0  0  0  0  0  0  0  0  0  0  0
   62.9640   32.7970   50.8480 O   0  0  0  0  0  0  0  0  0  0  0  0
   64.0650   33.7040   50.7960 C   0  0  0  0  0  0  0  0  0  0  0  0
   65.3670   32.9560   50.7740 C   0  0  0  0  0  0  0  0  0  0  0  0
   66.6060   33.5750   50.5500 C   0  0  0  0  0  0  0  0  0  0  0  0
   67.6800   32.6950   50.5820 C   0  0  0  0  0  0  0  0  0  0  0  0
   67.0830   31.1520   50.8740 S   0  0  0  0  0  0  0  0  0  0  0  0
   65.4600   31.5800   50.9660 C   0  0  0  0  0  0  0  0  0  0  0  0
   62.8830   32.3310   48.4220 C   0  0  0  0  0  0  0  0  0  0  0  0
   62.2550   31.7070   47.3420 C   0  0  0  0  0  0  0  0  0  0  0  0
   59.5890   28.1240   47.3280 C   0  0  0  0  0  0  0  0  0  0  0  0
   58.5510   27.2220   46.6380 C   0  0  0  0  0  0  0  0  0  0  0  0
   57.8466   32.8479   42.9205 H   0  0  0  0  0  0  0  0  0  0  0  0
   59.4190   34.5585   43.8198 H   0  0  0  0  0  0  0  0  0  0  0  0
   60.5922   35.5686   45.7230 H   0  0  0  0  0  0  0  0  0  0  0  0
   61.0362   35.6690   48.1754 H   0  0  0  0  0  0  0  0  0  0  0  0
   59.8670   34.1042   49.7257 H   0  0  0  0  0  0  0  0  0  0  0  0
   58.2720   32.4074   48.8322 H   0  0  0  0  0  0  0  0  0  0  0  0
   57.1559   31.3520   46.9252 H   0  0  0  0  0  0  0  0  0  0  0  0
   57.3216   27.1651   44.8835 H   0  0  0  0  0  0  0  0  0  0  0  0
   59.1023   27.5465   43.5501 H   0  0  0  0  0  0  0  0  0  0  0  0
   58.9404   29.2926   44.0584 H   0  0  0  0  0  0  0  0  0  0  0  0
   60.8650   27.1790   45.0746 H   0  0  0  0  0  0  0  0  0  0  0  0
   61.1917   28.8381   44.4038 H   0  0  0  0  0  0  0  0  0  0  0  0
   60.8511   30.6543   45.4464 H   0  0  0  0  0  0  0  0  0  0  0  0
   59.3527   30.5311   46.4498 H   0  0  0  0  0  0  0  0  0  0  0  0
   59.8559   29.9652   49.0450 H   0  0  0  0  0  0  0  0  0  0  0  0
   60.9760   31.0824   50.9717 H   0  0  0  0  0  0  0  0  0  0  0  0
   63.9852   34.3173   49.8863 H   0  0  0  0  0  0  0  0  0  0  0  0
   64.0393   34.3438   51.6904 H   0  0  0  0  0  0  0  0  0  0  0  0
   66.7162   34.6540   50.3666 H   0  0  0  0  0  0  0  0  0  0  0  0
   68.7377   32.9619   50.4407 H   0  0  0  0  0  0  0  0  0  0  0  0
   64.6194   30.8938   51.1462 H   0  0  0  0  0  0  0  0  0  0  0  0
   63.7551   32.9781   48.2467 H   0  0  0  0  0  0  0  0  0  0  0  0
   62.6335   31.8665   46.3215 H   0  0  0  0  0  0  0  0  0  0  0  0
   60.1706   27.5068   48.0286 H   0  0  0  0  0  0  0  0  0  0  0  0
   59.0267   28.9251   47.8302 H   0  0  0  0  0  0  0  0  0  0  0  0
   59.0298   26.2714   46.3604 H   0  0  0  0  0  0  0  0  0  0  0  0
   57.7205   27.0480   47.3380 H   0  0  0  0  0  0  0  0  0  0  0  0
  1  2  2  0
  2  3  1  0
  3  4  1  0
  4  5  2  0
  5  6  1  0
  6  7  2  0
  7  8  1  0
  8  9  2  0
  9 10  1  0
 10 11  2  0
 11 12  1  0
 12 13  2  0
  2 14  1  0
 14 15  1  0
 15 16  1  0
 16 17  1  0
 17 18  1  0
 18 19  1  0
 19 20  1  0
 20 21  2  0
 21 22  1  0
 22 23  2  0
 23 24  1  0
 24 25  1  0
 25 26  1  0
 26 27  1  0
 27 28  2  0
 28 29  1  0
 29 30  1  0
 23 31  1  0
 31 32  2  0
 18 33  1  0
 33 34  1  0
 13  4  1  0
 34 15  1  0
 12  7  1  0
 32 20  1  0
 30 26  2  0
  5 35  1  0
  6 36  1  0
  8 37  1  0
  9 38  1  0
 10 39  1  0
 11 40  1  0
 13 41  1  0
 15 42  1  0
 16 43  1  0
 16 44  1  0
 17 45  1  0
 17 46  1  0
 19 47  1  0
 19 48  1  0
 21 49  1  0
 22 50  1  0
 25 51  1  0
 25 52  1  0
 27 53  1  0
 28 54  1  0
 30 55  1  0
 31 56  1  0
 32 57  1  0
 33 58  1  0
 33 59  1  0
 34 60  1  0
 34 61  1  0
M  CHG  2   3  -1  14  -1
M  END
>  <UniqueID>  (69) 
69

>  <SMILES>  (69) 
O=C([N-]c1ccc2ccccc2c1)[N-]C1CCN(Cc2ccc(OCc3ccsc3)cc2)CC1

>  <Energy>  (69) 
104.4215051049104

>  <Genealogy>  (69) 
O=C([N-]c1ccc2ccccc2c1)[N-]C1CCN(Cc2ccc(OCc3ccsc3)cc2)CC1 (protonated)
O=C([N-]c1ccc2ccccc2c1)[N-]C1CCN(Cc2ccc(OCc3ccsc3)cc2)CC1 (3D coordinates assigned)
O=C([N-]c1ccc2ccccc2c1)[N-]C1CCN(Cc2ccc(OCc3ccsc3)cc2)CC1 (nonaromatic ring conformer: 104.4215051049104 kcal/mol)

>  <smiles>  (69) 
O=C(Nc1ccc2ccccc2c1)NC1CCN(Cc2ccc(OCc3ccsc3)cc2)CC1

>  <score_type>  (69) 
oracle

>  <origin>  (69) 
adg

>  <m_score__min__energy>  (69) 
-12.4

>  <m_primary>  (69) 
energy

$$$$
69:0
     RDKit          3D

 51 54  0  0  1  0  0  0  0  0999 V2000
   60.1590   30.9800   46.6710 C   0  0  0  0  0  0  0  0  0  0  0  0
   59.7210   32.3640   46.3950 C   0  0  0  0  0  0  0  0  0  0  0  0
   58.3970   32.6180   46.1030 C   0  0  0  0  0  0  0  0  0  0  0  0
   57.9760   33.9110   45.8430 C   0  0  0  0  0  0  0  0  0  0  0  0
   58.8950   34.9450   45.8770 C   0  0  0  0  0  0  0  0  0  0  0  0
   60.2200   34.6680   46.1720 C   0  0  0  0  0  0  0  0  0  0  0  0
   60.6590   33.3750   46.4350 C   0  0  0  0  0  0  0  0  0  0  0  0
   62.0330   33.1520   46.7330 N   0  0  0  0  0  0  0  0  0  0  0  0
   62.4850   32.7630   48.0250 C   0  0  0  0  0  0  0  0  0  0  0  0
   61.6200   32.6190   48.9210 O   0  0  0  0  0  0  0  0  0  0  0  0
   63.8570   32.5660   48.2220 N   0  0  0  0  0  0  0  0  0  0  0  0
   64.4510   32.1790   49.4560 C   0  0  0  0  0  0  0  0  0  0  0  0
   65.6820   32.7190   49.7740 C   0  0  0  0  0  0  0  0  0  0  0  0
   66.2850   32.3670   50.9590 C   0  0  0  0  0  0  0  0  0  0  0  0
   65.7140   31.4950   51.8480 C   0  0  0  0  0  0  0  0  0  0  0  0
   64.4750   30.9540   51.5230 C   0  0  0  0  0  0  0  0  0  0  0  0
   63.9230   30.0800   52.4360 O   0  0  0  0  0  0  0  0  0  0  0  0
   62.6510   29.6080   52.2710 C   0  0  0  0  0  0  0  0  0  0  0  0
   61.5680   30.4260   52.5900 C   0  0  0  0  0  0  0  0  0  0  0  0
   60.2610   30.0020   52.4450 C   0  0  0  0  0  0  0  0  0  0  0  0
   59.2430   30.7390   52.7320 N   0  0  0  0  0  0  0  0  0  0  0  0
   58.1650   30.7530   51.7920 C   0  0  0  0  0  0  0  0  0  0  0  0
   57.3820   29.7810   51.6350 O   0  0  0  0  0  0  0  0  0  0  0  0
   57.9460   31.9650   50.9520 C   0  0  0  0  0  0  0  0  0  0  0  0
   59.1540   32.8930   50.7650 C   0  0  0  0  0  0  0  0  0  0  0  0
   58.6350   32.0590   49.6340 C   0  0  0  0  0  0  0  0  0  0  0  0
   60.0220   28.7450   51.9740 N   0  0  0  0  0  0  0  0  0  0  0  0
   61.0790   27.9560   51.6650 C   0  0  0  0  0  0  0  0  0  0  0  0
   62.3500   28.3700   51.8070 N   0  0  0  0  0  0  0  0  0  0  0  0
   63.8560   31.2990   50.3370 C   0  0  0  0  0  0  0  0  0  0  0  0
   60.2092   30.8213   47.7583 H   0  0  0  0  0  0  0  0  0  0  0  0
   59.4406   30.2732   46.2301 H   0  0  0  0  0  0  0  0  0  0  0  0
   61.1532   30.8152   46.2301 H   0  0  0  0  0  0  0  0  0  0  0  0
   57.6731   31.7902   46.0766 H   0  0  0  0  0  0  0  0  0  0  0  0
   56.9201   34.1146   45.6114 H   0  0  0  0  0  0  0  0  0  0  0  0
   58.5764   35.9776   45.6716 H   0  0  0  0  0  0  0  0  0  0  0  0
   60.9455   35.4944   46.1990 H   0  0  0  0  0  0  0  0  0  0  0  0
   62.7310   33.2830   45.9530 H   0  0  0  0  0  0  0  0  0  0  0  0
   64.5290   32.7080   47.4130 H   0  0  0  0  0  0  0  0  0  0  0  0
   66.1746   33.4228   49.0870 H   0  0  0  0  0  0  0  0  0  0  0  0
   67.2650   32.8031   51.2027 H   0  0  0  0  0  0  0  0  0  0  0  0
   66.2194   31.2313   52.7887 H   0  0  0  0  0  0  0  0  0  0  0  0
   61.7601   31.4406   52.9690 H   0  0  0  0  0  0  0  0  0  0  0  0
   56.9026   32.0735   51.2829 H   0  0  0  0  0  0  0  0  0  0  0  0
   59.0169   33.9844   50.7558 H   0  0  0  0  0  0  0  0  0  0  0  0
   60.1270   33.0239   51.2611 H   0  0  0  0  0  0  0  0  0  0  0  0
   58.1276   32.5443   48.7872 H   0  0  0  0  0  0  0  0  0  0  0  0
   59.0881   31.3251   48.9513 H   0  0  0  0  0  0  0  0  0  0  0  0
   59.0400   28.4250   51.8630 H   0  0  0  0  0  0  0  0  0  0  0  0
   60.8906   26.9412   51.2846 H   0  0  0  0  0  0  0  0  0  0  0  0
   62.8750   30.8661   50.0915 H   0  0  0  0  0  0  0  0  0  0  0  0
  1  2  1  0
  2  3  2  0
  3  4  1  0
  4  5  2  0
  5  6  1  0
  6  7  2  0
  7  8  1  0
  8  9  1  0
  9 10  2  0
  9 11  1  0
 11 12  1  0
 12 13  2  0
 13 14  1  0
 14 15  2  0
 15 16  1  0
 16 17  1  0
 17 18  1  0
 18 19  2  0
 19 20  1  0
 20 21  2  0
 21 22  1  0
 22 23  2  0
 22 24  1  0
 24 25  1  0
 25 26  1  0
 20 27  1  0
 27 28  1  0
 28 29  2  0
 16 30  2  0
  7  2  1  0
 30 12  1  0
 29 18  1  0
 26 24  1  0
  1 31  1  0
  1 32  1  0
  1 33  1  0
  3 34  1  0
  4 35  1  0
  5 36  1  0
  6 37  1  0
  8 38  1  0
 11 39  1  0
 13 40  1  0
 14 41  1  0
 15 42  1  0
 19 43  1  0
 24 44  1  0
 25 45  1  0
 25 46  1  0
 26 47  1  0
 26 48  1  0
 27 49  1  0
 28 50  1  0
 30 51  1  0
M  END
>  <smiles>  (70) 
Cc1ccccc1NC(=O)Nc1cccc(Oc2cc(=NC(=O)C3CC3)[nH]cn2)c1

>  <score_type>  (70) 
oracle

>  <origin>  (70) 
adg

>  <m_score__min__energy>  (70) 
-8.9299999999999997

>  <m_primary>  (70) 
energy

$$$$
70:0
     RDKit          3D

 40 43  0  0  0  0  0  0  0  0999 V2000
   55.5510   28.8720   45.0130 O   0  0  0  0  0  0  0  0  0  0  0  0
   56.7890   28.9300   45.2410 C   0  0  0  0  0  0  0  0  0  0  0  0
   57.3850   28.0590   46.2990 C   0  0  0  0  0  0  0  0  0  0  0  0
   57.1950   26.6520   45.9500 N   0  0  0  0  0  0  0  0  0  0  0  0
   56.0170   26.0110   45.7860 C   0  0  0  0  0  0  0  0  0  0  0  0
   54.7730   26.5960   45.9900 O   0  0  0  0  0  0  0  0  0  0  0  0
   56.2330   24.7110   45.3760 C   0  0  0  0  0  0  0  0  0  0  0  0
   57.5910   24.5530   45.2690 C   0  0  0  0  0  0  0  0  0  0  0  0
   58.1570   25.7630   45.6180 C   0  0  0  0  0  0  0  0  0  0  0  0
   59.5180   26.0460   45.6150 O   0  0  0  0  0  0  0  0  0  0  0  0
   58.2570   23.2980   44.8020 C   0  0  0  0  0  0  0  0  0  0  0  0
   57.2520   22.1880   44.5610 C   0  0  0  0  0  0  0  0  0  0  0  0
   55.9120   22.3430   44.6670 C   0  0  0  0  0  0  0  0  0  0  0  0
   55.2350   23.6480   45.0410 C   0  0  0  0  0  0  0  0  0  0  0  0
   57.6490   29.7360   44.4270 N   0  0  0  0  0  0  0  0  0  0  0  0
   58.0610   31.0850   44.6920 C   0  0  0  0  0  0  0  0  0  0  0  0
   57.7760   32.1420   43.8040 C   0  0  0  0  0  0  0  0  0  0  0  0
   58.1720   33.4480   44.1120 C   0  0  0  0  0  0  0  0  0  0  0  0
   58.8380   33.7100   45.3120 C   0  0  0  0  0  0  0  0  0  0  0  0
   59.1300   32.6630   46.1950 C   0  0  0  0  0  0  0  0  0  0  0  0
   58.7220   31.3600   45.8970 C   0  0  0  0  0  0  0  0  0  0  0  0
   59.8300   32.9430   47.3730 O   0  0  0  0  0  0  0  0  0  0  0  0
   60.4870   34.2000   47.5600 C   0  0  0  0  0  0  0  0  0  0  0  0
   59.6360   35.3360   46.9800 C   0  0  0  0  0  0  0  0  0  0  0  0
   59.2150   35.0130   45.6520 O   0  0  0  0  0  0  0  0  0  0  0  0
   58.4609   28.2718   46.3834 H   0  0  0  0  0  0  0  0  0  0  0  0
   56.8891   28.2643   47.2592 H   0  0  0  0  0  0  0  0  0  0  0  0
   58.7912   23.5057   43.8631 H   0  0  0  0  0  0  0  0  0  0  0  0
   58.9538   22.9665   45.5860 H   0  0  0  0  0  0  0  0  0  0  0  0
   57.6362   21.1955   44.2828 H   0  0  0  0  0  0  0  0  0  0  0  0
   55.2742   21.4688   44.4698 H   0  0  0  0  0  0  0  0  0  0  0  0
   54.6226   23.9881   44.1929 H   0  0  0  0  0  0  0  0  0  0  0  0
   54.6117   23.4695   45.9296 H   0  0  0  0  0  0  0  0  0  0  0  0
   57.2401   31.9392   42.8651 H   0  0  0  0  0  0  0  0  0  0  0  0
   57.9592   34.2678   43.4101 H   0  0  0  0  0  0  0  0  0  0  0  0
   58.9204   30.5470   46.6109 H   0  0  0  0  0  0  0  0  0  0  0  0
   60.6395   34.3734   48.6355 H   0  0  0  0  0  0  0  0  0  0  0  0
   61.4566   34.1780   47.0409 H   0  0  0  0  0  0  0  0  0  0  0  0
   58.7504   35.4864   47.6149 H   0  0  0  0  0  0  0  0  0  0  0  0
   60.2392   36.2554   46.9503 H   0  0  0  0  0  0  0  0  0  0  0  0
  1  2  2  0
  2  3  1  0
  3  4  1  0
  4  5  1  0
  5  6  1  0
  5  7  2  0
  7  8  1  0
  8  9  2  0
  9 10  1  0
  8 11  1  0
 11 12  1  0
 12 13  2  0
 13 14  1  0
  2 15  1  0
 15 16  1  0
 16 17  2  0
 17 18  1  0
 18 19  2  0
 19 20  1  0
 20 21  2  0
 20 22  1  0
 22 23  1  0
 23 24  1  0
 24 25  1  0
  9  4  1  0
 21 16  1  0
 14  7  1  0
 25 19  1  0
  3 26  1  0
  3 27  1  0
 11 28  1  0
 11 29  1  0
 12 30  1  0
 13 31  1  0
 14 32  1  0
 14 33  1  0
 17 34  1  0
 18 35  1  0
 21 36  1  0
 23 37  1  0
 23 38  1  0
 24 39  1  0
 24 40  1  0
M  CHG  3   6  -1  10  -1  15  -1
M  END
>  <UniqueID>  (71) 
70

>  <SMILES>  (71) 
O=C(Cn1c([O-])c2c(c1[O-])CC=CC2)[N-]c1ccc2c(c1)OCCO2

>  <Energy>  (71) 
78.1648917148087

>  <Genealogy>  (71) 
O=C(Cn1c([O-])c2c(c1[O-])CC=CC2)[N-]c1ccc2c(c1)OCCO2 (protonated)
O=C(Cn1c([O-])c2c(c1[O-])CC=CC2)[N-]c1ccc2c(c1)OCCO2 (3D coordinates assigned)
O=C(Cn1c([O-])c2c(c1[O-])CC=CC2)[N-]c1ccc2c(c1)OCCO2 (nonaromatic ring conformer: 78.1648917148087 kcal/mol)

>  <smiles>  (71) 
O=C(Cn1c(O)c2c(c1O)CC=CC2)Nc1ccc2c(c1)OCCO2

>  <score_type>  (71) 
oracle

>  <origin>  (71) 
adg

>  <m_score__min__energy>  (71) 
-13.43

>  <m_primary>  (71) 
energy

$$$$
71:0
     RDKit          3D

 58 61  0  0  0  0  0  0  0  0999 V2000
   59.9205   22.3749   45.5932 H   0  0  0  0  0  0  0  0  0  0  0  0
   58.9360   22.6440   45.1830 C   0  0  0  0  0  0  0  0  0  0  0  0
   58.2450   23.6890   45.7080 N   0  0  0  0  0  0  0  0  0  0  0  0
   57.0180   24.0660   45.2520 C   0  0  0  0  0  0  0  0  0  0  0  0
   56.3870   25.2540   45.8900 C   0  0  0  0  0  0  0  0  0  0  0  0
   55.1360   25.3240   46.0390 O   0  0  0  0  0  0  0  0  0  0  0  0
   57.1770   26.3950   46.2410 N   0  0  0  0  0  0  0  0  0  0  0  0
   57.1890   27.5200   45.5920 C   0  0  0  0  0  0  0  0  0  0  0  0
   56.0520   28.1580   45.2460 N   0  0  0  0  0  0  0  0  0  0  0  0
   56.3100   29.3280   44.6020 C   0  0  0  0  0  0  0  0  0  0  0  0
   55.5123   29.9902   44.2343 H   0  0  0  0  0  0  0  0  0  0  0  0
   57.6620   29.6230   44.4440 C   0  0  0  0  0  0  0  0  0  0  0  0
   58.2210   30.8740   43.8410 C   0  0  0  0  0  0  0  0  0  0  0  0
   57.6513   31.1256   42.9343 H   0  0  0  0  0  0  0  0  0  0  0  0
   59.2785   30.7073   43.5880 H   0  0  0  0  0  0  0  0  0  0  0  0
   58.1260   32.0140   44.8190 C   0  0  0  0  0  0  0  0  0  0  0  0
   57.4570   33.1970   44.4690 C   0  0  0  0  0  0  0  0  0  0  0  0
   56.9684   33.2799   43.4870 H   0  0  0  0  0  0  0  0  0  0  0  0
   57.4090   34.2690   45.3620 C   0  0  0  0  0  0  0  0  0  0  0  0
   56.8705   35.1880   45.0872 H   0  0  0  0  0  0  0  0  0  0  0  0
   58.0430   34.1780   46.6040 C   0  0  0  0  0  0  0  0  0  0  0  0
   58.0061   35.0285   47.3007 H   0  0  0  0  0  0  0  0  0  0  0  0
   58.7280   33.0050   46.9680 C   0  0  0  0  0  0  0  0  0  0  0  0
   59.4520   32.9220   48.2590 C   0  0  0  0  0  0  0  0  0  0  0  0
   58.8020   32.9570   49.3410 O   0  0  0  0  0  0  0  0  0  0  0  0
   60.8820   32.7750   48.3010 N   0  0  0  0  0  0  0  0  0  0  0  0
   61.7300   33.7990   47.6910 C   0  0  0  0  0  0  0  0  0  0  0  0
   61.9453   34.5813   48.4338 H   0  0  0  0  0  0  0  0  0  0  0  0
   61.2026   34.2325   46.8285 H   0  0  0  0  0  0  0  0  0  0  0  0
   63.0510   33.1810   47.2090 C   0  0  0  0  0  0  0  0  0  0  0  0
   63.7403   33.9960   46.9433 H   0  0  0  0  0  0  0  0  0  0  0  0
   62.8130   32.5389   46.3481 H   0  0  0  0  0  0  0  0  0  0  0  0
   63.7070   32.3240   48.2240 N   0  0  0  0  0  0  0  0  0  0  0  0
   64.4380   31.7800   47.7060 H   0  0  0  0  0  0  0  0  0  0  0  0
   64.3810   33.0980   49.2570 C   0  0  0  0  0  0  0  0  0  0  0  0
   63.8540   34.0910   49.7390 O   0  0  0  0  0  0  0  0  0  0  0  0
   65.7410   32.7000   49.7630 C   0  0  0  0  0  0  0  0  0  0  0  0
   65.7377   32.7010   50.8630 H   0  0  0  0  0  0  0  0  0  0  0  0
   65.9875   31.6920   49.3980 H   0  0  0  0  0  0  0  0  0  0  0  0
   66.4920   33.4160   49.3980 H   0  0  0  0  0  0  0  0  0  0  0  0
   62.7890   31.3140   48.8000 C   0  0  0  0  0  0  0  0  0  0  0  0
   63.3007   30.8112   49.6339 H   0  0  0  0  0  0  0  0  0  0  0  0
   62.5265   30.6125   47.9944 H   0  0  0  0  0  0  0  0  0  0  0  0
   61.4800   31.9190   49.3240 C   0  0  0  0  0  0  0  0  0  0  0  0
   61.6891   32.5171   50.2232 H   0  0  0  0  0  0  0  0  0  0  0  0
   60.7798   31.1074   49.5712 H   0  0  0  0  0  0  0  0  0  0  0  0
   58.7630   31.9260   46.0680 C   0  0  0  0  0  0  0  0  0  0  0  0
   59.2945   31.0034   46.3444 H   0  0  0  0  0  0  0  0  0  0  0  0
   58.5670   28.3860   45.1380 S   0  0  0  0  0  0  0  0  0  0  0  0
   56.4270   23.3320   44.1820 C   0  0  0  0  0  0  0  0  0  0  0  0
   55.0700   23.6610   43.6150 C   0  0  0  0  0  0  0  0  0  0  0  0
   54.3606   23.8330   44.4379 H   0  0  0  0  0  0  0  0  0  0  0  0
   55.1411   24.5679   42.9966 H   0  0  0  0  0  0  0  0  0  0  0  0
   54.7178   22.8222   42.9966 H   0  0  0  0  0  0  0  0  0  0  0  0
   57.1470   22.2590   43.6280 C   0  0  0  0  0  0  0  0  0  0  0  0
   56.7172   21.6867   42.7927 H   0  0  0  0  0  0  0  0  0  0  0  0
   58.4010   21.9150   44.1290 C   0  0  0  0  0  0  0  0  0  0  0  0
   58.9615   21.0744   43.6940 H   0  0  0  0  0  0  0  0  0  0  0  0
  1  2  1  0
  2  3  2  0
  3  4  1  0
  4  5  1  0
  5  6  2  0
  5  7  1  0
  7  8  2  0
  8  9  1  0
  9 10  1  0
 10 11  1  0
 10 12  2  0
 12 13  1  0
 13 14  1  0
 13 15  1  0
 13 16  1  0
 16 17  2  0
 17 18  1  0
 17 19  1  0
 19 20  1  0
 19 21  2  0
 21 22  1  0
 21 23  1  0
 23 24  1  0
 24 25  2  0
 24 26  1  0
 26 27  1  0
 27 28  1  0
 27 29  1  0
 27 30  1  0
 30 31  1  0
 30 32  1  0
 30 33  1  0
 33 34  1  0
 33 35  1  0
 35 36  2  0
 35 37  1  0
 37 38  1  0
 37 39  1  0
 37 40  1  0
 33 41  1  0
 41 42  1  0
 41 43  1  0
 41 44  1  0
 44 45  1  0
 44 46  1  0
 23 47  2  0
 47 48  1  0
 12 49  1  0
  4 50  2  0
 50 51  1  0
 51 52  1  0
 51 53  1  0
 51 54  1  0
 50 55  1  0
 55 56  1  0
 55 57  2  0
 57 58  1  0
 57  2  1  0
 49  8  1  0
 47 16  1  0
 44 26  1  0
M  CHG  2   9  -1  33   1
M  END
>  <UniqueID>  (72) 
71

>  <SMILES>  (72) 
CC(=O)[NH+]1CCN(C(=O)c2cccc(Cc3c[n-]/c(=N/C(=O)c4ncccc4C)s3)c2)CC1

>  <Energy>  (72) 
108.42918304345325

>  <Genealogy>  (72) 
CC(=O)[NH+]1CCN(C(=O)c2cccc(Cc3c[n-]c(=NC(=O)c4ncccc4C)s3)c2)CC1 (protonated)
CC(=O)[NH+]1CCN(C(=O)c2cccc(Cc3c[n-]/c(=N/C(=O)c4ncccc4C)s3)c2)CC1 (cis-trans isomerization)
CC(=O)[NH+]1CCN(C(=O)c2cccc(Cc3c[n-]/c(=N/C(=O)c4ncccc4C)s3)c2)CC1 (3D coordinates assigned)
CC(=O)[NH+]1CCN(C(=O)c2cccc(Cc3c[n-]/c(=N/C(=O)c4ncccc4C)s3)c2)CC1 (nonaromatic ring conformer: 108.42918304345325 kcal/mol)

>  <smiles>  (72) 
CC(=O)N1CCN(C(=O)c2cccc(Cc3c[nH]c(=NC(=O)c4ncccc4C)s3)c2)CC1

>  <score_type>  (72) 
oracle

>  <origin>  (72) 
adg

>  <m_score__min__energy>  (72) 
-11.699999999999999

>  <m_primary>  (72) 
energy

$$$$
72:0
     RDKit          3D

 68 72  0  0  0  0  0  0  0  0999 V2000
   58.6422   34.0907   43.1625 H   0  0  0  0  0  0  0  0  0  0  0  0
   58.4300   33.4300   44.0160 C   0  0  0  0  0  0  0  0  0  0  0  0
   57.6400   32.3380   43.8490 N   0  0  0  0  0  0  0  0  0  0  0  0
   57.3800   31.4970   44.8840 C   0  0  0  0  0  0  0  0  0  0  0  0
   56.6310   30.4400   44.7440 N   0  0  0  0  0  0  0  0  0  0  0  0
   56.9840   29.0570   44.5450 C   0  0  0  0  0  0  0  0  0  0  0  0
   57.7450   28.5910   43.4510 C   0  0  0  0  0  0  0  0  0  0  0  0
   58.0557   29.2890   42.6596 H   0  0  0  0  0  0  0  0  0  0  0  0
   58.1040   27.2400   43.3740 C   0  0  0  0  0  0  0  0  0  0  0  0
   58.6608   26.8715   42.4999 H   0  0  0  0  0  0  0  0  0  0  0  0
   57.7600   26.3580   44.3990 C   0  0  0  0  0  0  0  0  0  0  0  0
   58.0769   25.3060   44.3448 H   0  0  0  0  0  0  0  0  0  0  0  0
   57.0130   26.8050   45.4970 C   0  0  0  0  0  0  0  0  0  0  0  0
   56.7590   25.9020   46.5870 N   0  0  0  0  0  0  0  0  0  0  0  0
   57.7810   25.3410   47.4200 C   0  0  0  0  0  0  0  0  0  0  0  0
   57.8000   24.1030   47.6490 O   0  0  0  0  0  0  0  0  0  0  0  0
   58.7850   26.2030   47.9720 N   0  0  0  0  0  0  0  0  0  0  0  0
   59.4740   27.2840   47.3100 C   0  0  0  0  0  0  0  0  0  0  0  0
   60.2030   26.9750   46.1480 C   0  0  0  0  0  0  0  0  0  0  0  0
   60.3062   25.9256   45.8348 H   0  0  0  0  0  0  0  0  0  0  0  0
   60.7980   27.9840   45.3860 C   0  0  0  0  0  0  0  0  0  0  0  0
   61.3785   27.7227   44.4889 H   0  0  0  0  0  0  0  0  0  0  0  0
   60.6590   29.3210   45.7580 C   0  0  0  0  0  0  0  0  0  0  0  0
   61.1215   30.1133   45.1511 H   0  0  0  0  0  0  0  0  0  0  0  0
   59.9330   29.6500   46.9000 C   0  0  0  0  0  0  0  0  0  0  0  0
   59.8263   30.7054   47.1910 H   0  0  0  0  0  0  0  0  0  0  0  0
   59.3320   28.6440   47.6890 C   0  0  0  0  0  0  0  0  0  0  0  0
   58.5890   28.9710   48.8330 O   0  0  0  0  0  0  0  0  0  0  0  0
   59.1390   29.3650   50.0880 C   0  0  0  0  0  0  0  0  0  0  0  0
   58.5383   28.9347   50.9029 H   0  0  0  0  0  0  0  0  0  0  0  0
   60.1745   29.0020   50.1647 H   0  0  0  0  0  0  0  0  0  0  0  0
   59.1285   30.4623   50.1647 H   0  0  0  0  0  0  0  0  0  0  0  0
   56.6380   28.1560   45.5600 C   0  0  0  0  0  0  0  0  0  0  0  0
   56.0603   28.5147   46.4246 H   0  0  0  0  0  0  0  0  0  0  0  0
   57.8860   31.7760   46.1130 N   0  0  0  0  0  0  0  0  0  0  0  0
   58.6690   32.8650   46.3460 C   0  0  0  0  0  0  0  0  0  0  0  0
   59.1530   33.1280   47.7330 C   0  0  0  0  0  0  0  0  0  0  0  0
   58.5200   32.5650   48.8580 C   0  0  0  0  0  0  0  0  0  0  0  0
   57.6069   31.9654   48.7283 H   0  0  0  0  0  0  0  0  0  0  0  0
   59.0440   32.7630   50.1370 C   0  0  0  0  0  0  0  0  0  0  0  0
   58.5335   32.3316   51.0107 H   0  0  0  0  0  0  0  0  0  0  0  0
   60.2130   33.5060   50.3120 C   0  0  0  0  0  0  0  0  0  0  0  0
   60.6223   33.6483   51.3230 H   0  0  0  0  0  0  0  0  0  0  0  0
   60.8670   34.0700   49.2150 C   0  0  0  0  0  0  0  0  0  0  0  0
   62.0550   34.7850   49.4520 O   0  0  0  0  0  0  0  0  0  0  0  0
   63.3360   34.2110   49.7290 C   0  0  0  0  0  0  0  0  0  0  0  0
   64.1119   34.8198   49.2418 H   0  0  0  0  0  0  0  0  0  0  0  0
   63.4220   32.7870   49.1710 C   0  0  0  0  0  0  0  0  0  0  0  0
   62.6867   32.1481   49.6820 H   0  0  0  0  0  0  0  0  0  0  0  0
   63.2077   32.8027   48.0922 H   0  0  0  0  0  0  0  0  0  0  0  0
   64.8350   32.2290   49.4040 C   0  0  0  0  0  0  0  0  0  0  0  0
   64.8003   31.1367   49.2784 H   0  0  0  0  0  0  0  0  0  0  0  0
   65.4947   32.7195   48.6731 H   0  0  0  0  0  0  0  0  0  0  0  0
   65.3900   32.5270   50.7510 N   0  0  0  0  0  0  0  0  0  0  0  0
   66.5440   33.4440   50.6960 C   0  0  0  0  0  0  0  0  0  0  0  0
   66.8611   33.6960   51.7187 H   0  0  0  0  0  0  0  0  0  0  0  0
   67.3745   32.9568   50.1641 H   0  0  0  0  0  0  0  0  0  0  0  0
   66.2570   34.3631   50.1641 H   0  0  0  0  0  0  0  0  0  0  0  0
   64.3790   32.9670   51.7310 C   0  0  0  0  0  0  0  0  0  0  0  0
   63.6792   32.1374   51.9098 H   0  0  0  0  0  0  0  0  0  0  0  0
   64.9127   33.2573   52.6480 H   0  0  0  0  0  0  0  0  0  0  0  0
   63.5740   34.1970   51.2540 C   0  0  0  0  0  0  0  0  0  0  0  0
   62.5976   34.1943   51.7606 H   0  0  0  0  0  0  0  0  0  0  0  0
   64.1643   35.0914   51.5019 H   0  0  0  0  0  0  0  0  0  0  0  0
   60.3200   33.8970   47.9280 C   0  0  0  0  0  0  0  0  0  0  0  0
   60.8097   34.3681   47.0630 H   0  0  0  0  0  0  0  0  0  0  0  0
   58.9720   33.7140   45.2680 C   0  0  0  0  0  0  0  0  0  0  0  0
   59.6255   34.5874   45.4099 H   0  0  0  0  0  0  0  0  0  0  0  0
  1  2  1  0
  2  3  1  0
  3  4  1  0
  4  5  2  0
  5  6  1  0
  6  7  2  0
  7  8  1  0
  7  9  1  0
  9 10  1  0
  9 11  2  0
 11 12  1  0
 11 13  1  0
 13 14  1  0
 14 15  1  0
 15 16  2  0
 15 17  1  0
 17 18  1  0
 18 19  2  0
 19 20  1  0
 19 21  1  0
 21 22  1  0
 21 23  2  0
 23 24  1  0
 23 25  1  0
 25 26  1  0
 25 27  2  0
 27 28  1  0
 28 29  1  0
 29 30  1  0
 29 31  1  0
 29 32  1  0
 13 33  2  0
 33 34  1  0
  4 35  1  0
 35 36  2  0
 36 37  1  0
 37 38  2  0
 38 39  1  0
 38 40  1  0
 40 41  1  0
 40 42  2  0
 42 43  1  0
 42 44  1  0
 44 45  1  0
 45 46  1  0
 46 47  1  0
 46 48  1  0
 48 49  1  0
 48 50  1  0
 48 51  1  0
 51 52  1  0
 51 53  1  0
 51 54  1  0
 54 55  1  0
 55 56  1  0
 55 57  1  0
 55 58  1  0
 54 59  1  0
 59 60  1  0
 59 61  1  0
 59 62  1  0
 62 63  1  0
 62 64  1  0
 44 65  2  0
 65 66  1  0
 36 67  1  0
 67 68  1  0
 67  2  2  0
 33  6  1  0
 65 37  1  0
 27 18  1  0
 62 46  1  0
M  CHG  3   3  -1  14  -1  17  -1
M  END
>  <UniqueID>  (73) 
72

>  <SMILES>  (73) 
COc1ccccc1[N-]C(=O)[N-]c1cccc(/N=c2/nc(-c3cccc(OC4CCN(C)CC4)c3)cc[n-]2)c1

>  <Energy>  (73) 
107.05944093811712

>  <Genealogy>  (73) 
COc1ccccc1[N-]C(=O)[N-]c1cccc(N=c2nc(-c3cccc(OC4CCN(C)CC4)c3)cc[n-]2)c1 (protonated)
COc1ccccc1[N-]C(=O)[N-]c1cccc(/N=c2/nc(-c3cccc(OC4CCN(C)CC4)c3)cc[n-]2)c1 (cis-trans isomerization)
COc1ccccc1[N-]C(=O)[N-]c1cccc(/N=c2/nc(-c3cccc(OC4CCN(C)CC4)c3)cc[n-]2)c1 (3D coordinates assigned)
COc1ccccc1[N-]C(=O)[N-]c1cccc(/N=c2/nc(-c3cccc(OC4CCN(C)CC4)c3)cc[n-]2)c1 (nonaromatic ring conformer: 107.05944093811712 kcal/mol)

>  <smiles>  (73) 
COc1ccccc1NC(=O)Nc1cccc(N=c2nc(-c3cccc(OC4CCN(C)CC4)c3)cc[nH]2)c1

>  <score_type>  (73) 
oracle

>  <origin>  (73) 
adg

>  <m_score__min__energy>  (73) 
-15.140000000000001

>  <m_primary>  (73) 
energy

$$$$
73:0
     RDKit          3D

 40 43  0  0  0  0  0  0  0  0999 V2000
   56.3300   28.9500   44.7430 C   0  0  0  0  0  0  0  0  0  0  0  0
   57.6230   28.5990   44.8310 C   0  0  0  0  0  0  0  0  0  0  0  0
   58.1380   27.3020   44.7360 C   0  0  0  0  0  0  0  0  0  0  0  0
   57.4520   26.1590   44.5420 C   0  0  0  0  0  0  0  0  0  0  0  0
   57.1090   25.2240   45.6370 C   0  0  0  0  0  0  0  0  0  0  0  0
   55.8840   25.3330   46.3240 C   0  0  0  0  0  0  0  0  0  0  0  0
   54.9680   26.3470   46.0400 O   0  0  0  0  0  0  0  0  0  0  0  0
   55.5800   24.4400   47.3020 N   0  0  0  0  0  0  0  0  0  0  0  0
   56.4300   23.4340   47.6290 C   0  0  0  0  0  0  0  0  0  0  0  0
   56.0320   22.3830   48.8120 S   0  0  0  0  0  0  0  0  0  0  0  0
   57.6070   23.2980   46.9690 N   0  0  0  0  0  0  0  0  0  0  0  0
   57.9620   24.1580   45.9800 C   0  0  0  0  0  0  0  0  0  0  0  0
   59.0510   23.9810   45.3700 O   0  0  0  0  0  0  0  0  0  0  0  0
   59.5090   27.4100   44.9270 C   0  0  0  0  0  0  0  0  0  0  0  0
   59.7780   28.7510   45.1110 C   0  0  0  0  0  0  0  0  0  0  0  0
   61.1400   29.3180   45.3710 C   0  0  0  0  0  0  0  0  0  0  0  0
   58.6350   29.4730   45.0590 N   0  0  0  0  0  0  0  0  0  0  0  0
   58.5360   30.9010   45.2090 C   0  0  0  0  0  0  0  0  0  0  0  0
   58.1300   31.6970   44.1290 C   0  0  0  0  0  0  0  0  0  0  0  0
   58.0460   33.0820   44.2710 C   0  0  0  0  0  0  0  0  0  0  0  0
   58.3710   33.6850   45.4900 C   0  0  0  0  0  0  0  0  0  0  0  0
   58.7830   32.9010   46.5820 C   0  0  0  0  0  0  0  0  0  0  0  0
   59.1270   33.5370   47.8710 C   0  0  0  0  0  0  0  0  0  0  0  0
   59.1120   32.9080   49.0600 N   0  0  0  0  0  0  0  0  0  0  0  0
   59.4790   33.8300   49.9350 N   0  0  0  0  0  0  0  0  0  0  0  0
   59.7100   34.9730   49.3090 N   0  0  0  0  0  0  0  0  0  0  0  0
   59.4970   34.8230   48.0120 N   0  0  0  0  0  0  0  0  0  0  0  0
   58.8620   31.5060   46.4320 C   0  0  0  0  0  0  0  0  0  0  0  0
   56.0397   30.0072   44.8332 H   0  0  0  0  0  0  0  0  0  0  0  0
   55.5610   28.1804   44.5807 H   0  0  0  0  0  0  0  0  0  0  0  0
   57.1311   25.9083   43.5201 H   0  0  0  0  0  0  0  0  0  0  0  0
   54.0160   26.3400   46.3820 H   0  0  0  0  0  0  0  0  0  0  0  0
   60.2387   26.5869   44.9309 H   0  0  0  0  0  0  0  0  0  0  0  0
   61.3072   29.3876   46.4560 H   0  0  0  0  0  0  0  0  0  0  0  0
   61.9016   28.6622   44.9240 H   0  0  0  0  0  0  0  0  0  0  0  0
   61.2113   30.3205   44.9240 H   0  0  0  0  0  0  0  0  0  0  0  0
   57.8769   31.2280   43.1667 H   0  0  0  0  0  0  0  0  0  0  0  0
   57.7231   33.7018   43.4215 H   0  0  0  0  0  0  0  0  0  0  0  0
   58.3040   34.7779   45.5951 H   0  0  0  0  0  0  0  0  0  0  0  0
   59.1821   30.8834   47.2805 H   0  0  0  0  0  0  0  0  0  0  0  0
  1  2  2  0
  2  3  1  0
  3  4  2  3
  4  5  1  0
  5  6  2  0
  6  7  1  0
  6  8  1  0
  8  9  1  0
  9 10  2  0
  9 11  1  0
 11 12  1  0
 12 13  2  0
  3 14  1  0
 14 15  2  0
 15 16  1  0
 15 17  1  0
 17 18  1  0
 18 19  2  0
 19 20  1  0
 20 21  2  0
 21 22  1  0
 22 23  1  0
 23 24  1  0
 24 25  2  0
 25 26  1  0
 26 27  1  0
 22 28  2  0
 17  2  1  0
 28 18  1  0
 12  5  1  0
 27 23  2  0
  1 29  1  0
  1 30  1  0
  4 31  1  0
  7 32  1  0
 14 33  1  0
 16 34  1  0
 16 35  1  0
 16 36  1  0
 19 37  1  0
 20 38  1  0
 21 39  1  0
 28 40  1  0
M  CHG  3   8  -1  11  -1  26  -1
M  END
>  <UniqueID>  (74) 
73

>  <SMILES>  (74) 
C=c1c(=Cc2c(O)[n-]c(=S)[n-]c2=O)cc(C)n1-c1cccc(-c2nn[n-]n2)c1

>  <Energy>  (74) 
128.16762221937134

>  <Genealogy>  (74) 
C=c1c(=Cc2c(O)[n-]c(=S)[n-]c2=O)cc(C)n1-c1cccc(-c2nn[n-]n2)c1 (protonated)
C=c1c(=Cc2c(O)[n-]c(=S)[n-]c2=O)cc(C)n1-c1cccc(-c2nn[n-]n2)c1 (3D coordinates assigned)
C=c1c(=Cc2c(O)[n-]c(=S)[n-]c2=O)cc(C)n1-c1cccc(-c2nn[n-]n2)c1 (optimized conformer: 128.16762221937134 kcal/mol)

>  <smiles>  (74) 
C=c1c(=Cc2c(O)[nH]c(=S)[nH]c2=O)cc(C)n1-c1cccc(-c2nn[nH]n2)c1

>  <score_type>  (74) 
oracle

>  <origin>  (74) 
adg

>  <m_score__min__energy>  (74) 
-13.9

>  <m_primary>  (74) 
energy

$$$$
74:0
     RDKit          3D

 57 59  0  0  0  0  0  0  0  0999 V2000
   58.2613   27.0832   46.6431 H   0  0  0  0  0  0  0  0  0  0  0  0
   57.3530   27.1570   46.0270 C   0  0  0  0  0  0  0  0  0  0  0  0
   56.2000   26.3000   46.3550 C   0  0  0  0  0  0  0  0  0  0  0  0
   56.3530   25.2070   46.9620 O   0  0  0  0  0  0  0  0  0  0  0  0
   54.9240   26.7080   45.9910 O   0  0  0  0  0  0  0  0  0  0  0  0
   57.3340   28.0220   45.0060 C   0  0  0  0  0  0  0  0  0  0  0  0
   57.8450   27.7498   44.0707 H   0  0  0  0  0  0  0  0  0  0  0  0
   56.6530   29.3260   45.0900 C   0  0  0  0  0  0  0  0  0  0  0  0
   55.3950   29.3610   45.0180 O   0  0  0  0  0  0  0  0  0  0  0  0
   57.4010   30.5300   45.3040 N   0  0  0  0  0  0  0  0  0  0  0  0
   58.1340   30.8700   46.4900 C   0  0  0  0  0  0  0  0  0  0  0  0
   58.3450   32.2070   46.8700 C   0  0  0  0  0  0  0  0  0  0  0  0
   57.9069   33.0218   46.2749 H   0  0  0  0  0  0  0  0  0  0  0  0
   59.1120   32.5050   48.0050 C   0  0  0  0  0  0  0  0  0  0  0  0
   59.3150   33.9030   48.4070 C   0  0  0  0  0  0  0  0  0  0  0  0
   59.2820   34.1850   49.6330 O   0  0  0  0  0  0  0  0  0  0  0  0
   59.5190   34.9630   47.4590 N   0  0  0  0  0  0  0  0  0  0  0  0
   60.1410   34.9150   46.1300 C   0  0  2  0  0  0  0  0  0  0  0  0
   60.7482   35.8263   46.0263 H   0  0  0  0  0  0  0  0  0  0  0  0
   59.1030   34.9490   45.0040 C   0  0  0  0  0  0  0  0  0  0  0  0
   58.0926   34.9821   45.4376 H   0  0  0  0  0  0  0  0  0  0  0  0
   59.2649   35.8423   44.3829 H   0  0  0  0  0  0  0  0  0  0  0  0
   59.2061   34.0470   44.3829 H   0  0  0  0  0  0  0  0  0  0  0  0
   61.0870   33.7140   45.9960 C   0  0  0  0  0  0  0  0  0  0  0  0
   60.7571   32.9159   46.6774 H   0  0  0  0  0  0  0  0  0  0  0  0
   61.0644   33.3586   44.9552 H   0  0  0  0  0  0  0  0  0  0  0  0
   62.8030   34.1960   46.4190 S   0  0  0  0  0  0  0  0  0  0  0  0
   62.8150   33.4190   48.0370 C   0  0  0  0  0  0  0  0  0  0  0  0
   63.0000   32.0350   48.1480 C   0  0  0  0  0  0  0  0  0  0  0  0
   63.1328   31.4240   47.2430 H   0  0  0  0  0  0  0  0  0  0  0  0
   63.0160   31.4290   49.4090 C   0  0  0  0  0  0  0  0  0  0  0  0
   63.1671   30.3429   49.4954 H   0  0  0  0  0  0  0  0  0  0  0  0
   62.8400   32.2040   50.5590 C   0  0  0  0  0  0  0  0  0  0  0  0
   62.8603   31.7286   51.5508 H   0  0  0  0  0  0  0  0  0  0  0  0
   62.6380   33.5840   50.4490 C   0  0  0  0  0  0  0  0  0  0  0  0
   62.4901   34.1919   51.3538 H   0  0  0  0  0  0  0  0  0  0  0  0
   62.6240   34.1910   49.1890 C   0  0  0  0  0  0  0  0  0  0  0  0
   62.4628   35.2757   49.1032 H   0  0  0  0  0  0  0  0  0  0  0  0
   59.6310   31.4660   48.7850 C   0  0  0  0  0  0  0  0  0  0  0  0
   60.1827   31.7001   49.7074 H   0  0  0  0  0  0  0  0  0  0  0  0
   59.4540   30.1270   48.4010 C   0  0  0  0  0  0  0  0  0  0  0  0
   60.0490   29.0340   49.2080 C   0  0  0  0  0  0  0  0  0  0  0  0
   60.2180   27.7500   48.6610 C   0  0  0  0  0  0  0  0  0  0  0  0
   59.9191   27.5562   47.6203 H   0  0  0  0  0  0  0  0  0  0  0  0
   60.7630   26.7180   49.4300 C   0  0  0  0  0  0  0  0  0  0  0  0
   60.8783   25.7141   48.9955 H   0  0  0  0  0  0  0  0  0  0  0  0
   61.1640   26.9560   50.7540 C   0  0  0  0  0  0  0  0  0  0  0  0
   61.7160   25.8430   51.5920 C   0  0  0  0  0  0  0  0  0  0  0  0
   61.5934   26.0902   52.6568 H   0  0  0  0  0  0  0  0  0  0  0  0
   61.1753   24.9118   51.3671 H   0  0  0  0  0  0  0  0  0  0  0  0
   62.7845   25.7100   51.3671 H   0  0  0  0  0  0  0  0  0  0  0  0
   60.9840   28.2320   51.3080 C   0  0  0  0  0  0  0  0  0  0  0  0
   61.2740   28.4213   52.3521 H   0  0  0  0  0  0  0  0  0  0  0  0
   60.4380   29.2640   50.5400 C   0  0  0  0  0  0  0  0  0  0  0  0
   60.3115   30.2639   50.9806 H   0  0  0  0  0  0  0  0  0  0  0  0
   58.7110   29.8400   47.2440 C   0  0  0  0  0  0  0  0  0  0  0  0
   58.5808   28.7949   46.9265 H   0  0  0  0  0  0  0  0  0  0  0  0
  1  2  1  0
  2  3  1  0
  3  4  2  0
  3  5  1  0
  2  6  2  0
  6  7  1  0
  6  8  1  0
  8  9  2  0
  8 10  1  0
 10 11  1  0
 11 12  2  0
 12 13  1  0
 12 14  1  0
 14 15  1  0
 15 16  2  0
 15 17  1  0
 17 18  1  0
 18 19  1  6
 18 20  1  0
 20 21  1  0
 20 22  1  0
 20 23  1  0
 18 24  1  0
 24 25  1  0
 24 26  1  0
 24 27  1  0
 27 28  1  0
 28 29  2  0
 29 30  1  0
 29 31  1  0
 31 32  1  0
 31 33  2  0
 33 34  1  0
 33 35  1  0
 35 36  1  0
 35 37  2  0
 37 38  1  0
 14 39  2  0
 39 40  1  0
 39 41  1  0
 41 42  1  0
 42 43  2  0
 43 44  1  0
 43 45  1  0
 45 46  1  0
 45 47  2  0
 47 48  1  0
 48 49  1  0
 48 50  1  0
 48 51  1  0
 47 52  1  0
 52 53  1  0
 52 54  2  0
 54 55  1  0
 41 56  2  0
 56 57  1  0
 56 11  1  0
 37 28  1  0
 54 42  1  0
M  CHG  3   5  -1  10  -1  17  -1
M  END
>  <UniqueID>  (75) 
74

>  <SMILES>  (75) 
Cc1ccc(-c2cc([N-]C(=O)/C=C/C(=O)[O-])cc(C(=O)[N-][C@H](C)CSc3ccccc3)c2)cc1

>  <Energy>  (75) 
62.897496651588995

>  <Genealogy>  (75) 
Cc1ccc(-c2cc([N-]C(=O)C=CC(=O)[O-])cc(C(=O)[N-]C(C)CSc3ccccc3)c2)cc1 (protonated)
Cc1ccc(-c2cc([N-]C(=O)C=CC(=O)[O-])cc(C(=O)[N-][C@H](C)CSc3ccccc3)c2)cc1 (chirality)
Cc1ccc(-c2cc([N-]C(=O)/C=C/C(=O)[O-])cc(C(=O)[N-][C@H](C)CSc3ccccc3)c2)cc1 (cis-trans isomerization)
Cc1ccc(-c2cc([N-]C(=O)/C=C/C(=O)[O-])cc(C(=O)[N-][C@H](C)CSc3ccccc3)c2)cc1 (3D coordinates assigned)
Cc1ccc(-c2cc([N-]C(=O)/C=C/C(=O)[O-])cc(C(=O)[N-][C@H](C)CSc3ccccc3)c2)cc1 (optimized conformer: 62.897496651588995 kcal/mol)

>  <smiles>  (75) 
Cc1ccc(-c2cc(NC(=O)C=CC(=O)O)cc(C(=O)NC(C)CSc3ccccc3)c2)cc1

>  <score_type>  (75) 
oracle

>  <origin>  (75) 
adg

>  <m_score__min__energy>  (75) 
-15.44

>  <m_primary>  (75) 
energy

$$$$
75:0
     RDKit          3D

 52 55  0  0  0  0  0  0  0  0999 V2000
   61.3567   32.9172   52.4276 H   0  0  0  0  0  0  0  0  0  0  0  0
   61.3800   33.1770   51.3590 C   0  0  0  0  0  0  0  0  0  0  0  0
   60.3330   33.8100   50.8140 C   0  0  0  0  0  0  0  0  0  0  0  0
   58.9130   34.2130   51.8440 S   0  0  0  0  0  0  0  0  0  0  0  0
   58.6670   32.5200   52.5000 C   0  0  0  0  0  0  0  0  0  0  0  0
   58.7309   32.5516   53.5977 H   0  0  0  0  0  0  0  0  0  0  0  0
   59.4488   31.8736   52.0746 H   0  0  0  0  0  0  0  0  0  0  0  0
   57.3050   31.9420   52.1000 C   0  0  0  0  0  0  0  0  0  0  0  0
   56.8519   32.5966   51.3409 H   0  0  0  0  0  0  0  0  0  0  0  0
   56.6832   31.8874   53.0058 H   0  0  0  0  0  0  0  0  0  0  0  0
   57.4190   30.5500   51.5340 C   0  0  0  0  0  0  0  0  0  0  0  0
   56.4550   29.7490   51.6610 O   0  0  0  0  0  0  0  0  0  0  0  0
   58.6330   30.0850   50.9260 N   0  0  0  0  0  0  0  0  0  0  0  0
   59.0960   30.3780   49.7420 C   0  0  0  0  0  0  0  0  0  0  0  0
   60.0450   29.5670   49.2040 N   0  0  0  0  0  0  0  0  0  0  0  0
   60.5740   29.7880   47.9710 C   0  0  0  0  0  0  0  0  0  0  0  0
   61.3449   29.1104   47.5754 H   0  0  0  0  0  0  0  0  0  0  0  0
   60.1420   30.8710   47.2070 C   0  0  0  0  0  0  0  0  0  0  0  0
   60.5744   31.0537   46.2122 H   0  0  0  0  0  0  0  0  0  0  0  0
   59.1510   31.7280   47.7150 C   0  0  0  0  0  0  0  0  0  0  0  0
   58.6580   32.8500   46.9580 N   0  0  0  0  0  0  0  0  0  0  0  0
   58.0320   33.5350   47.4440 H   0  0  0  0  0  0  0  0  0  0  0  0
   58.9980   33.0840   45.5530 C   0  0  0  0  0  0  0  0  0  0  0  0
   58.7825   34.1323   45.2990 H   0  0  0  0  0  0  0  0  0  0  0  0
   60.0667   32.8681   45.4068 H   0  0  0  0  0  0  0  0  0  0  0  0
   58.1940   32.1820   44.6540 C   0  0  0  0  0  0  0  0  0  0  0  0
   57.4640   31.1130   45.1960 C   0  0  0  0  0  0  0  0  0  0  0  0
   57.5034   30.9143   46.2772 H   0  0  0  0  0  0  0  0  0  0  0  0
   56.6860   30.2990   44.3650 C   0  0  0  0  0  0  0  0  0  0  0  0
   55.9880   29.2630   44.8920 F   0  0  0  0  0  0  0  0  0  0  0  0
   56.6230   30.5570   42.9930 C   0  0  0  0  0  0  0  0  0  0  0  0
   56.0131   29.9150   42.3404 H   0  0  0  0  0  0  0  0  0  0  0  0
   57.3350   31.6310   42.4490 C   0  0  0  0  0  0  0  0  0  0  0  0
   57.2680   31.8850   41.1190 F   0  0  0  0  0  0  0  0  0  0  0  0
   58.1150   32.4450   43.2770 C   0  0  0  0  0  0  0  0  0  0  0  0
   58.6681   33.2936   42.8481 H   0  0  0  0  0  0  0  0  0  0  0  0
   58.6220   31.4720   48.9890 C   0  0  0  0  0  0  0  0  0  0  0  0
   57.8377   32.1245   49.4003 H   0  0  0  0  0  0  0  0  0  0  0  0
   60.3180   34.1310   49.3680 C   0  0  0  0  0  0  0  0  0  0  0  0
   59.3020   34.6750   48.8600 O   0  0  0  0  0  0  0  0  0  0  0  0
   61.4950   33.8050   48.5280 C   0  0  0  0  0  0  0  0  0  0  0  0
   61.5250   34.1330   47.1610 C   0  0  0  0  0  0  0  0  0  0  0  0
   60.6638   34.6382   46.6993 H   0  0  0  0  0  0  0  0  0  0  0  0
   62.6460   33.8190   46.3870 C   0  0  0  0  0  0  0  0  0  0  0  0
   62.6658   34.0795   45.3185 H   0  0  0  0  0  0  0  0  0  0  0  0
   63.7410   33.1750   46.9680 C   0  0  0  0  0  0  0  0  0  0  0  0
   64.6201   32.9265   46.3553 H   0  0  0  0  0  0  0  0  0  0  0  0
   63.7220   32.8460   48.3250 C   0  0  0  0  0  0  0  0  0  0  0  0
   64.5875   32.3405   48.7782 H   0  0  0  0  0  0  0  0  0  0  0  0
   62.6020   33.1580   49.1140 C   0  0  0  0  0  0  0  0  0  0  0  0
   62.5620   32.8220   50.5550 C   0  0  0  0  0  0  0  0  0  0  0  0
   63.5280   32.2280   51.1060 O   0  0  0  0  0  0  0  0  0  0  0  0
  1  2  1  0
  2  3  2  0
  3  4  1  0
  4  5  1  0
  5  6  1  0
  5  7  1  0
  5  8  1  0
  8  9  1  0
  8 10  1  0
  8 11  1  0
 11 12  2  0
 11 13  1  0
 13 14  2  0
 14 15  1  0
 15 16  1  0
 16 17  1  0
 16 18  2  0
 18 19  1  0
 18 20  1  0
 20 21  1  0
 21 22  1  0
 21 23  1  0
 23 24  1  0
 23 25  1  0
 23 26  1  0
 26 27  2  0
 27 28  1  0
 27 29  1  0
 29 30  1  0
 29 31  2  0
 31 32  1  0
 31 33  1  0
 33 34  1  0
 33 35  2  0
 35 36  1  0
 20 37  2  0
 37 38  1  0
  3 39  1  0
 39 40  2  0
 39 41  1  0
 41 42  2  0
 42 43  1  0
 42 44  1  0
 44 45  1  0
 44 46  2  0
 46 47  1  0
 46 48  1  0
 48 49  1  0
 48 50  2  0
 50 51  1  0
 51 52  2  0
 51  2  1  0
 37 14  1  0
 50 41  1  0
 35 26  1  0
M  CHG  1  15  -1
M  END
>  <UniqueID>  (76) 
75

>  <SMILES>  (76) 
O=C(CCSC1=CC(=O)c2ccccc2C1=O)/N=c1\cc(NCc2cc(F)cc(F)c2)cc[n-]1

>  <Energy>  (76) 
61.96139934145754

>  <Genealogy>  (76) 
O=C(CCSC1=CC(=O)c2ccccc2C1=O)N=c1cc(NCc2cc(F)cc(F)c2)cc[n-]1 (protonated)
O=C(CCSC1=CC(=O)c2ccccc2C1=O)/N=c1\cc(NCc2cc(F)cc(F)c2)cc[n-]1 (cis-trans isomerization)
O=C(CCSC1=CC(=O)c2ccccc2C1=O)/N=c1\cc(NCc2cc(F)cc(F)c2)cc[n-]1 (3D coordinates assigned)
O=C(CCSC1=CC(=O)c2ccccc2C1=O)/N=c1\cc(NCc2cc(F)cc(F)c2)cc[n-]1 (nonaromatic ring conformer: 61.96139934145754 kcal/mol)

>  <smiles>  (76) 
O=C(CCSC1=CC(=O)c2ccccc2C1=O)N=c1cc(NCc2cc(F)cc(F)c2)cc[nH]1

>  <score_type>  (76) 
oracle

>  <origin>  (76) 
adg

>  <m_score__min__energy>  (76) 
-11.43

>  <m_primary>  (76) 
energy

$$$$
76:0
     RDKit          3D

 35 37  0  0  0  0  0  0  0  0999 V2000
   55.0366   29.2599   43.0039 H   0  0  0  0  0  0  0  0  0  0  0  0
   55.8340   29.7160   43.6090 C   0  0  0  0  0  0  0  0  0  0  0  0
   56.4950   30.8590   43.1470 C   0  0  0  0  0  0  0  0  0  0  0  0
   56.2164   31.2981   42.1777 H   0  0  0  0  0  0  0  0  0  0  0  0
   57.5130   31.4490   43.9150 C   0  0  0  0  0  0  0  0  0  0  0  0
   58.2110   32.6890   43.4220 C   0  0  0  0  0  0  0  0  0  0  0  0
   57.5878   33.1724   42.6553 H   0  0  0  0  0  0  0  0  0  0  0  0
   59.1846   32.3999   42.9994 H   0  0  0  0  0  0  0  0  0  0  0  0
   58.4460   33.6630   44.5560 C   0  0  0  0  0  0  0  0  0  0  0  0
   59.6270   33.8630   45.0720 N   0  0  0  0  0  0  0  0  0  0  0  0
   59.9010   34.4480   46.3510 C   0  0  0  0  0  0  0  0  0  0  0  0
   59.0950   35.3010   46.8100 O   0  0  0  0  0  0  0  0  0  0  0  0
   61.1340   34.1210   47.1040 C   0  0  0  0  0  0  0  0  0  0  0  0
   62.3240   33.7730   46.4090 C   0  0  0  0  0  0  0  0  0  0  0  0
   62.3245   33.7459   45.3093 H   0  0  0  0  0  0  0  0  0  0  0  0
   63.5010   33.4630   47.1140 C   0  0  0  0  0  0  0  0  0  0  0  0
   64.4268   33.1972   46.5828 H   0  0  0  0  0  0  0  0  0  0  0  0
   63.4580   33.5030   48.5030 C   0  0  0  0  0  0  0  0  0  0  0  0
   62.3250   33.8260   49.1760 C   0  0  0  0  0  0  0  0  0  0  0  0
   61.1390   34.1390   48.5200 C   0  0  0  0  0  0  0  0  0  0  0  0
   60.2304   34.3934   49.0854 H   0  0  0  0  0  0  0  0  0  0  0  0
   62.5700   33.7830   50.5350 O   0  0  0  0  0  0  0  0  0  0  0  0
   63.9420   33.4110   50.7270 C   0  0  0  0  0  0  0  0  0  0  0  0
   64.4860   34.2036   51.2617 H   0  0  0  0  0  0  0  0  0  0  0  0
   64.0410   32.4973   51.3314 H   0  0  0  0  0  0  0  0  0  0  0  0
   64.4710   33.2410   49.4040 O   0  0  0  0  0  0  0  0  0  0  0  0
   57.3220   34.3100   45.1540 N   0  0  0  0  0  0  0  0  0  0  0  0
   57.4540   34.9620   45.9590 H   0  0  0  0  0  0  0  0  0  0  0  0
   56.3540   34.1400   44.8020 H   0  0  0  0  0  0  0  0  0  0  0  0
   57.8630   30.8740   45.1490 C   0  0  0  0  0  0  0  0  0  0  0  0
   58.6620   31.3245   45.7561 H   0  0  0  0  0  0  0  0  0  0  0  0
   57.2000   29.7320   45.6080 C   0  0  0  0  0  0  0  0  0  0  0  0
   57.4766   29.2882   46.5758 H   0  0  0  0  0  0  0  0  0  0  0  0
   56.1860   29.1530   44.8390 C   0  0  0  0  0  0  0  0  0  0  0  0
   55.5290   28.0170   45.2980 O   0  0  0  0  0  0  0  0  0  0  0  0
  1  2  1  0
  2  3  2  0
  3  4  1  0
  3  5  1  0
  5  6  1  0
  6  7  1  0
  6  8  1  0
  6  9  1  0
  9 10  2  0
 10 11  1  0
 11 12  2  0
 11 13  1  0
 13 14  2  0
 14 15  1  0
 14 16  1  0
 16 17  1  0
 16 18  2  0
 18 19  1  0
 19 20  2  0
 20 21  1  0
 19 22  1  0
 22 23  1  0
 23 24  1  0
 23 25  1  0
 23 26  1  0
  9 27  1  0
 27 28  1  0
 27 29  1  0
  5 30  2  0
 30 31  1  0
 30 32  1  0
 32 33  1  0
 32 34  2  0
 34 35  1  0
 34  2  1  0
 20 13  1  0
 26 18  1  0
M  CHG  1  35  -1
M  END
>  <UniqueID>  (77) 
76

>  <SMILES>  (77) 
N/C(Cc1ccc([O-])cc1)=N/C(=O)c1ccc2c(c1)OCO2

>  <Energy>  (77) 
70.81354379882261

>  <Genealogy>  (77) 
NC(Cc1ccc([O-])cc1)=NC(=O)c1ccc2c(c1)OCO2 (protonated)
N/C(Cc1ccc([O-])cc1)=N/C(=O)c1ccc2c(c1)OCO2 (cis-trans isomerization)
N/C(Cc1ccc([O-])cc1)=N/C(=O)c1ccc2c(c1)OCO2 (3D coordinates assigned)
N/C(Cc1ccc([O-])cc1)=N/C(=O)c1ccc2c(c1)OCO2 (nonaromatic ring conformer: 70.81354379882261 kcal/mol)

>  <smiles>  (77) 
NC(Cc1ccc(O)cc1)=NC(=O)c1ccc2c(c1)OCO2

>  <score_type>  (77) 
oracle

>  <origin>  (77) 
adg

>  <m_score__min__energy>  (77) 
-10.380000000000001

>  <m_primary>  (77) 
energy

$$$$
77:0
     RDKit          3D

 51 54  0  0  0  0  0  0  0  0999 V2000
   54.2120   21.5360   49.7990 C   0  0  0  0  0  0  0  0  0  0  0  0
   55.2690   21.4580   48.7390 C   0  0  0  0  0  0  0  0  0  0  0  0
   56.3330   20.5340   48.8360 C   0  0  0  0  0  0  0  0  0  0  0  0
   57.3430   20.4970   47.8530 C   0  0  0  0  0  0  0  0  0  0  0  0
   57.3120   21.3860   46.7650 C   0  0  0  0  0  0  0  0  0  0  0  0
   56.2580   22.2990   46.6960 C   0  0  0  0  0  0  0  0  0  0  0  0
   55.9720   23.2900   45.7780 C   0  0  0  0  0  0  0  0  0  0  0  0
   56.8100   23.6810   44.5910 C   0  0  0  0  0  0  0  0  0  0  0  0
   57.6450   24.8830   44.9150 C   0  0  0  0  0  0  0  0  0  0  0  0
   58.8740   24.7380   45.1650 O   0  0  0  0  0  0  0  0  0  0  0  0
   57.0570   26.1930   44.9070 N   0  0  0  0  0  0  0  0  0  0  0  0
   57.8330   27.3810   45.1180 C   0  0  0  0  0  0  0  0  0  0  0  0
   59.2020   27.2460   45.3810 C   0  0  0  0  0  0  0  0  0  0  0  0
   59.9890   28.3690   45.6220 C   0  0  0  0  0  0  0  0  0  0  0  0
   59.4190   29.6390   45.6070 C   0  0  0  0  0  0  0  0  0  0  0  0
   58.0540   29.8070   45.3200 C   0  0  0  0  0  0  0  0  0  0  0  0
   57.4880   31.1740   45.3460 C   0  0  0  0  0  0  0  0  0  0  0  0
   56.3420   31.3630   44.8520 O   0  0  0  0  0  0  0  0  0  0  0  0
   58.2130   32.3130   45.9670 C   0  0  0  0  0  0  0  0  0  0  0  0
   58.5150   32.2940   47.3420 C   0  0  0  0  0  0  0  0  0  0  0  0
   59.1890   33.3660   47.9350 C   0  0  0  0  0  0  0  0  0  0  0  0
   59.5630   34.4710   47.1660 C   0  0  0  0  0  0  0  0  0  0  0  0
   59.2610   34.5070   45.8040 C   0  0  0  0  0  0  0  0  0  0  0  0
   58.5870   33.4370   45.2050 C   0  0  0  0  0  0  0  0  0  0  0  0
   57.2520   28.6700   45.0460 C   0  0  0  0  0  0  0  0  0  0  0  0
   55.8900   28.8230   44.6110 N   0  0  0  0  0  0  0  0  0  0  0  0
   54.8020   23.8960   46.2530 C   0  0  0  0  0  0  0  0  0  0  0  0
   54.0780   25.0300   45.6520 C   0  0  0  0  0  0  0  0  0  0  0  0
   53.0500   24.8500   44.9500 O   0  0  0  0  0  0  0  0  0  0  0  0
   54.5340   26.3260   45.8650 O   0  0  0  0  0  0  0  0  0  0  0  0
   54.3760   23.3090   47.3980 N   0  0  0  0  0  0  0  0  0  0  0  0
   55.2740   22.3390   47.6510 C   0  0  0  0  0  0  0  0  0  0  0  0
   54.6848   21.5011   50.7916 H   0  0  0  0  0  0  0  0  0  0  0  0
   53.6538   22.4778   49.6916 H   0  0  0  0  0  0  0  0  0  0  0  0
   53.5217   20.6864   49.6916 H   0  0  0  0  0  0  0  0  0  0  0  0
   56.3739   19.8371   49.6861 H   0  0  0  0  0  0  0  0  0  0  0  0
   58.1613   19.7669   47.9383 H   0  0  0  0  0  0  0  0  0  0  0  0
   58.0940   21.3632   45.9917 H   0  0  0  0  0  0  0  0  0  0  0  0
   57.4698   22.8432   44.3212 H   0  0  0  0  0  0  0  0  0  0  0  0
   56.1452   23.9244   43.7491 H   0  0  0  0  0  0  0  0  0  0  0  0
   56.0920   26.3020   44.5230 H   0  0  0  0  0  0  0  0  0  0  0  0
   59.6588   26.2455   45.3973 H   0  0  0  0  0  0  0  0  0  0  0  0
   61.0638   28.2524   45.8248 H   0  0  0  0  0  0  0  0  0  0  0  0
   60.0431   30.5190   45.8218 H   0  0  0  0  0  0  0  0  0  0  0  0
   58.2186   31.4295   47.9542 H   0  0  0  0  0  0  0  0  0  0  0  0
   59.4252   33.3394   49.0090 H   0  0  0  0  0  0  0  0  0  0  0  0
   60.0953   35.3122   47.6340 H   0  0  0  0  0  0  0  0  0  0  0  0
   59.5535   35.3785   45.1999 H   0  0  0  0  0  0  0  0  0  0  0  0
   58.3477   33.4739   44.1320 H   0  0  0  0  0  0  0  0  0  0  0  0
   55.6100   29.5420   43.9110 H   0  0  0  0  0  0  0  0  0  0  0  0
   55.1490   28.1440   44.8920 H   0  0  0  0  0  0  0  0  0  0  0  0
  1  2  1  0
  2  3  2  0
  3  4  1  0
  4  5  2  0
  5  6  1  0
  6  7  1  0
  7  8  1  0
  8  9  1  0
  9 10  2  0
  9 11  1  0
 11 12  1  0
 12 13  2  0
 13 14  1  0
 14 15  2  0
 15 16  1  0
 16 17  1  0
 17 18  2  0
 17 19  1  0
 19 20  2  0
 20 21  1  0
 21 22  2  0
 22 23  1  0
 23 24  2  0
 16 25  2  0
 25 26  1  0
  7 27  2  0
 27 28  1  0
 28 29  2  0
 28 30  1  0
 27 31  1  0
 31 32  1  0
 32  2  1  0
 32  6  2  0
 25 12  1  0
 24 19  1  0
  1 33  1  0
  1 34  1  0
  1 35  1  0
  3 36  1  0
  4 37  1  0
  5 38  1  0
  8 39  1  0
  8 40  1  0
 11 41  1  0
 13 42  1  0
 14 43  1  0
 15 44  1  0
 20 45  1  0
 21 46  1  0
 22 47  1  0
 23 48  1  0
 24 49  1  0
 26 50  1  0
 26 51  1  0
M  CHG  2  30  -1  31  -1
M  END
>  <UniqueID>  (78) 
77

>  <SMILES>  (78) 
Cc1cccc2c(CC(=O)Nc3cccc(C(=O)c4ccccc4)c3N)c(C(=O)[O-])[n-]c12

>  <Energy>  (78) 
99.67143790921112

>  <Genealogy>  (78) 
Cc1cccc2c(CC(=O)Nc3cccc(C(=O)c4ccccc4)c3N)c(C(=O)[O-])[n-]c12 (protonated)
Cc1cccc2c(CC(=O)Nc3cccc(C(=O)c4ccccc4)c3N)c(C(=O)[O-])[n-]c12 (3D coordinates assigned)
Cc1cccc2c(CC(=O)Nc3cccc(C(=O)c4ccccc4)c3N)c(C(=O)[O-])[n-]c12 (optimized conformer: 99.67143790921112 kcal/mol)

>  <smiles>  (78) 
Cc1cccc2c(CC(=O)Nc3cccc(C(=O)c4ccccc4)c3N)c(C(=O)O)[nH]c12

>  <score_type>  (78) 
oracle

>  <origin>  (78) 
adg

>  <m_score__min__energy>  (78) 
-14.68

>  <m_primary>  (78) 
energy

$$$$
78:0
     RDKit          3D

 50 54  0  0  0  0  0  0  0  0999 V2000
   59.8520   28.3940   54.9640 O   0  0  0  0  0  0  0  0  0  0  0  0
   58.9860   28.5700   54.0660 C   0  0  0  0  0  0  0  0  0  0  0  0
   59.3620   28.3530   52.6990 N   0  0  0  0  0  0  0  0  0  0  0  0
   59.2680   29.3110   51.6350 C   0  0  0  0  0  0  0  0  0  0  0  0
   59.9840   29.0870   50.4550 C   0  0  0  0  0  0  0  0  0  0  0  0
   59.9080   29.9960   49.3960 C   0  0  0  0  0  0  0  0  0  0  0  0
   59.0960   31.1400   49.4960 C   0  0  0  0  0  0  0  0  0  0  0  0
   59.0190   32.1060   48.3780 C   0  0  0  0  0  0  0  0  0  0  0  0
   58.1400   31.9740   47.3470 N   0  0  0  0  0  0  0  0  0  0  0  0
   58.4110   33.0440   46.5880 C   0  0  0  0  0  0  0  0  0  0  0  0
   57.8060   33.4160   45.3900 C   0  0  0  0  0  0  0  0  0  0  0  0
   58.2640   34.5930   44.7660 C   0  0  0  0  0  0  0  0  0  0  0  0
   59.3020   35.3550   45.3500 C   0  0  0  0  0  0  0  0  0  0  0  0
   59.8890   34.9460   46.5630 C   0  0  0  0  0  0  0  0  0  0  0  0
   59.4100   33.7770   47.1500 C   0  0  0  0  0  0  0  0  0  0  0  0
   59.8180   33.2050   48.2920 N   0  0  0  0  0  0  0  0  0  0  0  0
   58.3580   31.3500   50.6730 C   0  0  0  0  0  0  0  0  0  0  0  0
   58.4360   30.4410   51.7310 C   0  0  0  0  0  0  0  0  0  0  0  0
   57.6320   29.0360   54.4430 C   0  0  0  0  0  0  0  0  0  0  0  0
   57.4600   30.0130   55.4360 C   0  0  0  0  0  0  0  0  0  0  0  0
   56.1800   30.4600   55.7710 C   0  0  0  0  0  0  0  0  0  0  0  0
   55.0570   29.9330   55.1290 C   0  0  0  0  0  0  0  0  0  0  0  0
   53.7950   30.4070   55.4720 O   0  0  0  0  0  0  0  0  0  0  0  0
   55.2090   28.9350   54.1480 C   0  0  0  0  0  0  0  0  0  0  0  0
   54.0180   28.3870   53.4040 C   0  0  0  0  0  0  0  0  0  0  0  0
   53.2130   29.5090   52.8060 C   0  0  0  0  0  0  0  0  0  0  0  0
   53.7770   30.3390   51.8220 C   0  0  0  0  0  0  0  0  0  0  0  0
   53.0450   31.4060   51.2930 C   0  0  0  0  0  0  0  0  0  0  0  0
   51.7460   31.6570   51.7470 C   0  0  0  0  0  0  0  0  0  0  0  0
   51.0200   32.7190   51.2210 O   0  0  0  0  0  0  0  0  0  0  0  0
   51.1790   30.8410   52.7300 C   0  0  0  0  0  0  0  0  0  0  0  0
   51.9100   29.7740   53.2630 C   0  0  0  0  0  0  0  0  0  0  0  0
   56.5000   28.4930   53.8110 C   0  0  0  0  0  0  0  0  0  0  0  0
   60.6117   28.1888   50.3595 H   0  0  0  0  0  0  0  0  0  0  0  0
   60.4871   29.8155   48.4783 H   0  0  0  0  0  0  0  0  0  0  0  0
   56.9998   32.8127   44.9471 H   0  0  0  0  0  0  0  0  0  0  0  0
   57.8114   34.9212   43.8187 H   0  0  0  0  0  0  0  0  0  0  0  0
   59.6529   36.2721   44.8543 H   0  0  0  0  0  0  0  0  0  0  0  0
   60.6967   35.5286   47.0301 H   0  0  0  0  0  0  0  0  0  0  0  0
   57.7137   32.2371   50.7621 H   0  0  0  0  0  0  0  0  0  0  0  0
   57.8443   30.6097   52.6428 H   0  0  0  0  0  0  0  0  0  0  0  0
   58.3376   30.4286   55.9528 H   0  0  0  0  0  0  0  0  0  0  0  0
   56.0555   31.2316   56.5450 H   0  0  0  0  0  0  0  0  0  0  0  0
   54.3670   27.7224   52.5999 H   0  0  0  0  0  0  0  0  0  0  0  0
   53.3838   27.8275   54.1073 H   0  0  0  0  0  0  0  0  0  0  0  0
   54.8002   30.1479   51.4661 H   0  0  0  0  0  0  0  0  0  0  0  0
   53.4907   32.0485   50.5194 H   0  0  0  0  0  0  0  0  0  0  0  0
   50.1567   31.0381   53.0850 H   0  0  0  0  0  0  0  0  0  0  0  0
   51.4635   29.1397   54.0429 H   0  0  0  0  0  0  0  0  0  0  0  0
   56.6258   27.7140   53.0446 H   0  0  0  0  0  0  0  0  0  0  0  0
  1  2  2  0
  2  3  1  0
  3  4  1  0
  4  5  2  0
  5  6  1  0
  6  7  2  0
  7  8  1  0
  8  9  2  0
  9 10  1  0
 10 11  2  0
 11 12  1  0
 12 13  2  0
 13 14  1  0
 14 15  2  0
 15 16  1  0
  7 17  1  0
 17 18  2  0
  2 19  1  0
 19 20  2  0
 20 21  1  0
 21 22  2  0
 22 23  1  0
 22 24  1  0
 24 25  1  0
 25 26  1  0
 26 27  2  0
 27 28  1  0
 28 29  2  0
 29 30  1  0
 29 31  1  0
 31 32  2  0
 24 33  2  0
 18  4  1  0
 33 19  1  0
 16  8  1  0
 32 26  1  0
 15 10  1  0
  5 34  1  0
  6 35  1  0
 11 36  1  0
 12 37  1  0
 13 38  1  0
 14 39  1  0
 17 40  1  0
 18 41  1  0
 20 42  1  0
 21 43  1  0
 25 44  1  0
 25 45  1  0
 27 46  1  0
 28 47  1  0
 31 48  1  0
 32 49  1  0
 33 50  1  0
M  CHG  4   3  -1  16  -1  23  -1  30  -1
M  END
>  <UniqueID>  (79) 
78

>  <SMILES>  (79) 
O=C([N-]c1ccc(-c2nc3ccccc3[n-]2)cc1)c1ccc([O-])c(Cc2ccc([O-])cc2)c1

>  <Energy>  (79) 
98.61896152480325

>  <Genealogy>  (79) 
O=C([N-]c1ccc(-c2nc3ccccc3[n-]2)cc1)c1ccc([O-])c(Cc2ccc([O-])cc2)c1 (protonated)
O=C([N-]c1ccc(-c2nc3ccccc3[n-]2)cc1)c1ccc([O-])c(Cc2ccc([O-])cc2)c1 (3D coordinates assigned)
O=C([N-]c1ccc(-c2nc3ccccc3[n-]2)cc1)c1ccc([O-])c(Cc2ccc([O-])cc2)c1 (optimized conformer: 98.61896152480325 kcal/mol)

>  <smiles>  (79) 
O=C(Nc1ccc(-c2nc3ccccc3[nH]2)cc1)c1ccc(O)c(Cc2ccc(O)cc2)c1

>  <score_type>  (79) 
oracle

>  <origin>  (79) 
adg

>  <m_score__min__energy>  (79) 
-14.85

>  <m_primary>  (79) 
energy

$$$$
79:0
     RDKit          3D

 46 48  0  0  0  0  0  0  0  0999 V2000
   58.5738   30.0456   43.9025 H   0  0  0  0  0  0  0  0  0  0  0  0
   57.6560   30.6420   44.0120 C   0  0  0  0  0  0  0  0  0  0  0  0
   56.3780   29.9020   44.1100 C   0  0  0  0  0  0  0  0  0  0  0  0
   55.5080   30.1000   43.2210 O   0  0  0  0  0  0  0  0  0  0  0  0
   56.0780   28.9790   45.1700 N   0  0  0  0  0  0  0  0  0  0  0  0
   56.7970   27.9610   45.5460 C   0  0  0  0  0  0  0  0  0  0  0  0
   58.1610   28.0100   45.5100 N   0  0  0  0  0  0  0  0  0  0  0  0
   58.9290   26.9620   45.9090 C   0  0  0  0  0  0  0  0  0  0  0  0
   60.0257   27.0380   45.8692 H   0  0  0  0  0  0  0  0  0  0  0  0
   58.3280   25.7900   46.3690 C   0  0  0  0  0  0  0  0  0  0  0  0
   58.9453   24.9424   46.7015 H   0  0  0  0  0  0  0  0  0  0  0  0
   56.9350   25.7040   46.4030 C   0  0  0  0  0  0  0  0  0  0  0  0
   56.4477   24.7835   46.7569 H   0  0  0  0  0  0  0  0  0  0  0  0
   56.1610   26.7910   45.9860 C   0  0  0  0  0  0  0  0  0  0  0  0
   54.7730   26.7040   46.0180 O   0  0  0  0  0  0  0  0  0  0  0  0
   57.7940   31.9780   44.0450 C   0  0  0  0  0  0  0  0  0  0  0  0
   57.5362   32.5344   43.1318 H   0  0  0  0  0  0  0  0  0  0  0  0
   58.2640   32.7630   45.2080 C   0  0  0  0  0  0  0  0  0  0  0  0
   57.3510   33.0910   46.2200 C   0  0  0  0  0  0  0  0  0  0  0  0
   56.3025   32.7691   46.1365 H   0  0  0  0  0  0  0  0  0  0  0  0
   57.7660   33.8240   47.3330 C   0  0  0  0  0  0  0  0  0  0  0  0
   57.0424   34.0867   48.1188 H   0  0  0  0  0  0  0  0  0  0  0  0
   59.0980   34.2240   47.4500 C   0  0  0  0  0  0  0  0  0  0  0  0
   59.4206   34.7987   48.3307 H   0  0  0  0  0  0  0  0  0  0  0  0
   60.0280   33.8980   46.4520 C   0  0  0  0  0  0  0  0  0  0  0  0
   61.3950   34.3010   46.6050 N   0  0  0  0  0  0  0  0  0  0  0  0
   61.7630   35.0560   45.9840 H   0  0  0  0  0  0  0  0  0  0  0  0
   62.5820   33.3110   47.3960 S   0  0  0  0  0  0  0  0  0  0  0  0
   63.1010   33.9730   48.6400 O   0  0  0  0  0  0  0  0  0  0  0  0
   63.7260   33.0860   46.4460 O   0  0  0  0  0  0  0  0  0  0  0  0
   61.8530   31.7730   47.8410 C   0  0  0  0  0  0  0  0  0  0  0  0
   61.7480   31.4030   49.1890 C   0  0  0  0  0  0  0  0  0  0  0  0
   62.1365   32.0700   49.9727 H   0  0  0  0  0  0  0  0  0  0  0  0
   61.1510   30.1890   49.5400 C   0  0  0  0  0  0  0  0  0  0  0  0
   61.0851   29.8973   50.5986 H   0  0  0  0  0  0  0  0  0  0  0  0
   60.6350   29.3400   48.5480 C   0  0  0  0  0  0  0  0  0  0  0  0
   60.0270   28.0200   48.9210 C   0  0  0  0  0  0  0  0  0  0  0  0
   59.9863   27.9316   50.0167 H   0  0  0  0  0  0  0  0  0  0  0  0
   59.0087   27.9561   48.5099 H   0  0  0  0  0  0  0  0  0  0  0  0
   60.6403   27.2046   48.5099 H   0  0  0  0  0  0  0  0  0  0  0  0
   60.7500   29.7080   47.1990 C   0  0  0  0  0  0  0  0  0  0  0  0
   60.3672   29.0392   46.4140 H   0  0  0  0  0  0  0  0  0  0  0  0
   61.3490   30.9210   46.8490 C   0  0  0  0  0  0  0  0  0  0  0  0
   61.4253   31.2084   45.7900 H   0  0  0  0  0  0  0  0  0  0  0  0
   59.6120   33.1380   45.3470 C   0  0  0  0  0  0  0  0  0  0  0  0
   60.3452   32.8341   44.5854 H   0  0  0  0  0  0  0  0  0  0  0  0
  1  2  1  0
  2  3  1  0
  3  4  2  0
  3  5  1  0
  5  6  2  0
  6  7  1  0
  7  8  1  0
  8  9  1  0
  8 10  2  0
 10 11  1  0
 10 12  1  0
 12 13  1  0
 12 14  2  0
 14 15  1  0
  2 16  2  3
 16 17  1  0
 16 18  1  0
 18 19  2  0
 19 20  1  0
 19 21  1  0
 21 22  1  0
 21 23  2  0
 23 24  1  0
 23 25  1  0
 25 26  1  0
 26 27  1  0
 26 28  1  0
 28 29  2  0
 28 30  2  0
 28 31  1  0
 31 32  2  0
 32 33  1  0
 32 34  1  0
 34 35  1  0
 34 36  2  0
 36 37  1  0
 37 38  1  0
 37 39  1  0
 37 40  1  0
 36 41  1  0
 41 42  1  0
 41 43  2  0
 43 44  1  0
 25 45  2  0
 45 46  1  0
 14  6  1  0
 45 18  1  0
 43 31  1  0
M  CHG  2   7  -1  15  -1
M  END
>  <UniqueID>  (80) 
79

>  <SMILES>  (80) 
Cc1ccc(S(=O)(=O)Nc2cccc(C=CC(=O)/N=c3\[n-]cccc3[O-])c2)cc1

>  <Energy>  (80) 
64.78906098863482

>  <Genealogy>  (80) 
Cc1ccc(S(=O)(=O)Nc2cccc(C=CC(=O)N=c3[n-]cccc3[O-])c2)cc1 (protonated)
Cc1ccc(S(=O)(=O)Nc2cccc(C=CC(=O)/N=c3\[n-]cccc3[O-])c2)cc1 (cis-trans isomerization)
Cc1ccc(S(=O)(=O)Nc2cccc(C=CC(=O)/N=c3\[n-]cccc3[O-])c2)cc1 (3D coordinates assigned)
Cc1ccc(S(=O)(=O)Nc2cccc(C=CC(=O)/N=c3\[n-]cccc3[O-])c2)cc1 (optimized conformer: 64.78906098863482 kcal/mol)

>  <smiles>  (80) 
Cc1ccc(S(=O)(=O)Nc2cccc(C=CC(=O)N=c3[nH]cccc3O)c2)cc1

>  <score_type>  (80) 
oracle

>  <origin>  (80) 
adg

>  <m_score__min__energy>  (80) 
-14.91

>  <m_primary>  (80) 
energy

$$$$
80:0
     RDKit          3D

 21 21  0  0  0  0  0  0  0  0999 V2000
   55.2300   27.4390   45.2490 H   0  0  0  0  0  0  0  0  0  0  0  0
   55.1490   26.8190   46.0450 O   0  0  0  0  0  0  0  0  0  0  0  0
   56.0630   25.7940   46.2720 C   0  0  0  0  0  0  0  0  0  0  0  0
   55.7220   24.6070   46.8000 N   0  0  0  0  0  0  0  0  0  0  0  0
   56.9030   23.9560   46.8610 C   0  0  0  0  0  0  0  0  0  0  0  0
   57.0090   22.7860   47.3120 O   0  0  0  0  0  0  0  0  0  0  0  0
   57.9620   24.6600   46.4070 N   0  0  0  0  0  0  0  0  0  0  0  0
   57.4180   25.8270   46.0150 C   0  0  0  0  0  0  0  0  0  0  0  0
   58.2060   26.9950   45.4920 C   0  0  0  0  0  0  0  0  0  0  0  0
   59.1098   26.6188   44.9904 H   0  0  0  0  0  0  0  0  0  0  0  0
   58.4662   27.6407   46.3437 H   0  0  0  0  0  0  0  0  0  0  0  0
   57.4090   27.8130   44.5110 C   0  0  0  0  0  0  0  0  0  0  0  0
   56.8560   27.2643   43.7344 H   0  0  0  0  0  0  0  0  0  0  0  0
   57.3120   29.1620   44.4990 C   0  0  0  0  0  0  0  0  0  0  0  0
   56.0250   29.9100   44.5230 C   0  0  0  0  0  0  0  0  0  0  0  0
   54.9140   29.3200   44.5160 O   0  0  0  0  0  0  0  0  0  0  0  0
   56.0390   31.3000   44.5320 O   0  0  0  0  0  0  0  0  0  0  0  0
   58.5850   29.9660   44.5620 C   0  0  0  0  0  0  0  0  0  0  0  0
   58.8581   30.1385   45.6135 H   0  0  0  0  0  0  0  0  0  0  0  0
   59.3927   29.4138   44.0592 H   0  0  0  0  0  0  0  0  0  0  0  0
   58.4335   30.9326   44.0592 H   0  0  0  0  0  0  0  0  0  0  0  0
  1  2  1  0
  2  3  1  0
  3  4  1  0
  4  5  1  0
  5  6  2  0
  5  7  1  0
  7  8  1  0
  8  9  1  0
  9 10  1  0
  9 11  1  0
  9 12  1  0
 12 13  1  0
 12 14  2  0
 14 15  1  0
 15 16  2  0
 15 17  1  0
 14 18  1  0
 18 19  1  0
 18 20  1  0
 18 21  1  0
  8  3  2  0
M  CHG  3   4  -1   7  -1  17  -1
M  END
>  <UniqueID>  (81) 
80

>  <SMILES>  (81) 
C/C(=C/Cc1[n-]c(=O)[n-]c1O)C(=O)[O-]

>  <Energy>  (81) 
49.516595826026446

>  <Genealogy>  (81) 
CC(=CCc1[n-]c(=O)[n-]c1O)C(=O)[O-] (protonated)
C/C(=C/Cc1[n-]c(=O)[n-]c1O)C(=O)[O-] (cis-trans isomerization)
C/C(=C/Cc1[n-]c(=O)[n-]c1O)C(=O)[O-] (3D coordinates assigned)
C/C(=C/Cc1[n-]c(=O)[n-]c1O)C(=O)[O-] (optimized conformer: 49.516595826026446 kcal/mol)

>  <smiles>  (81) 
CC(=CCc1[nH]c(=O)[nH]c1O)C(=O)O

>  <score_type>  (81) 
oracle

>  <origin>  (81) 
adg

>  <m_score__min__energy>  (81) 
-12.880000000000001

>  <m_primary>  (81) 
energy

$$$$
81:0
     RDKit          3D

 52 54  0  0  0  0  0  0  0  0999 V2000
   57.0609   30.6457   41.6770 H   0  0  0  0  0  0  0  0  0  0  0  0
   57.2040   31.2170   42.6060 C   0  0  0  0  0  0  0  0  0  0  0  0
   56.5110   30.8600   43.7700 C   0  0  0  0  0  0  0  0  0  0  0  0
   55.5550   29.7090   43.7620 C   0  0  0  0  0  0  0  0  0  0  0  0
   55.3172   29.4227   44.7971 H   0  0  0  0  0  0  0  0  0  0  0  0
   54.6316   30.0029   43.2415 H   0  0  0  0  0  0  0  0  0  0  0  0
   56.0134   28.8552   43.2415 H   0  0  0  0  0  0  0  0  0  0  0  0
   56.7020   31.5760   44.9130 N   0  0  0  0  0  0  0  0  0  0  0  0
   57.5640   32.6290   44.9840 C   0  0  0  0  0  0  0  0  0  0  0  0
   57.6880   33.2510   46.1220 N   0  0  0  0  0  0  0  0  0  0  0  0
   58.8130   34.0250   46.5710 C   0  0  0  0  0  0  0  0  0  0  0  0
   59.3960   34.7880   45.7550 O   0  0  0  0  0  0  0  0  0  0  0  0
   59.1660   34.1070   48.0360 C   0  0  0  0  0  0  0  0  0  0  0  0
   58.2726   33.8730   48.6336 H   0  0  0  0  0  0  0  0  0  0  0  0
   59.5220   35.1253   48.2511 H   0  0  0  0  0  0  0  0  0  0  0  0
   60.2810   33.1180   48.3960 C   0  0  0  0  0  0  0  0  0  0  0  0
   60.2021   32.8595   49.4623 H   0  0  0  0  0  0  0  0  0  0  0  0
   61.2512   33.5916   48.1851 H   0  0  0  0  0  0  0  0  0  0  0  0
   60.1730   31.8680   47.5800 C   0  0  0  0  0  0  0  0  0  0  0  0
   60.8490   31.6480   46.4340 N   0  0  0  0  0  0  0  0  0  0  0  0
   60.4280   30.4750   45.9960 N   0  0  0  0  0  0  0  0  0  0  0  0
   60.7570   30.0280   45.1130 H   0  0  0  0  0  0  0  0  0  0  0  0
   59.5090   30.0190   46.8720 C   0  0  0  0  0  0  0  0  0  0  0  0
   58.7550   28.7500   46.7560 C   0  0  0  0  0  0  0  0  0  0  0  0
   57.6970   28.6010   45.8410 C   0  0  0  0  0  0  0  0  0  0  0  0
   57.4162   29.4405   45.1880 H   0  0  0  0  0  0  0  0  0  0  0  0
   57.0000   27.3910   45.7570 C   0  0  0  0  0  0  0  0  0  0  0  0
   56.1650   27.2895   45.0481 H   0  0  0  0  0  0  0  0  0  0  0  0
   57.3590   26.3060   46.5710 C   0  0  0  0  0  0  0  0  0  0  0  0
   56.6070   25.0400   46.4870 C   0  0  0  0  0  0  0  0  0  0  0  0
   57.1570   23.9740   46.8710 O   0  0  0  0  0  0  0  0  0  0  0  0
   55.2650   24.9820   45.9850 N   0  0  0  0  0  0  0  0  0  0  0  0
   54.7960   24.0870   44.9260 C   0  0  0  0  0  0  0  0  0  0  0  0
   53.9598   24.5641   44.3939 H   0  0  0  0  0  0  0  0  0  0  0  0
   54.4681   23.1410   45.3816 H   0  0  0  0  0  0  0  0  0  0  0  0
   55.9190   23.7910   43.9330 C   0  0  0  0  0  0  0  0  0  0  0  0
   56.8859   23.8055   44.4573 H   0  0  0  0  0  0  0  0  0  0  0  0
   55.9209   24.5550   43.1416 H   0  0  0  0  0  0  0  0  0  0  0  0
   55.7130   22.5170   43.3590 O   0  0  0  0  0  0  0  0  0  0  0  0
   56.9430   21.8340   43.2740 C   0  0  0  0  0  0  0  0  0  0  0  0
   57.3177   21.6260   44.2871 H   0  0  0  0  0  0  0  0  0  0  0  0
   56.7996   20.8863   42.7343 H   0  0  0  0  0  0  0  0  0  0  0  0
   57.6717   22.4567   42.7343 H   0  0  0  0  0  0  0  0  0  0  0  0
   58.4030   26.4580   47.4930 C   0  0  0  0  0  0  0  0  0  0  0  0
   58.6757   25.6210   48.1526 H   0  0  0  0  0  0  0  0  0  0  0  0
   59.1000   27.6660   47.5800 C   0  0  0  0  0  0  0  0  0  0  0  0
   59.9256   27.7689   48.2996 H   0  0  0  0  0  0  0  0  0  0  0  0
   59.3520   30.8780   47.8510 O   0  0  0  0  0  0  0  0  0  0  0  0
   58.2600   33.0210   43.8220 C   0  0  0  0  0  0  0  0  0  0  0  0
   58.9412   33.8843   43.8488 H   0  0  0  0  0  0  0  0  0  0  0  0
   58.0780   32.3050   42.6370 C   0  0  0  0  0  0  0  0  0  0  0  0
   58.6234   32.5984   41.7279 H   0  0  0  0  0  0  0  0  0  0  0  0
  1  2  1  0
  2  3  2  0
  3  4  1  0
  4  5  1  0
  4  6  1  0
  4  7  1  0
  3  8  1  0
  8  9  1  0
  9 10  2  0
 10 11  1  0
 11 12  2  0
 11 13  1  0
 13 14  1  0
 13 15  1  0
 13 16  1  0
 16 17  1  0
 16 18  1  0
 16 19  1  0
 19 20  2  0
 20 21  1  0
 21 22  1  0
 21 23  2  0
 23 24  1  0
 24 25  2  0
 25 26  1  0
 25 27  1  0
 27 28  1  0
 27 29  2  0
 29 30  1  0
 30 31  2  0
 30 32  1  0
 32 33  1  0
 33 34  1  0
 33 35  1  0
 33 36  1  0
 36 37  1  0
 36 38  1  0
 36 39  1  0
 39 40  1  0
 40 41  1  0
 40 42  1  0
 40 43  1  0
 29 44  1  0
 44 45  1  0
 44 46  2  0
 46 47  1  0
 23 48  1  0
  9 49  1  0
 49 50  1  0
 49 51  2  0
 51 52  1  0
 51  2  1  0
 48 19  1  0
 46 24  1  0
M  CHG  3   8  -1  21   1  32  -1
M  END
>  <UniqueID>  (82) 
81

>  <SMILES>  (82) 
COCC[N-]C(=O)c1ccc(-c2[nH+]nc(CCC(=O)/N=c3\cccc(C)[n-]3)o2)cc1

>  <Energy>  (82) 
96.44275066917952

>  <Genealogy>  (82) 
COCC[N-]C(=O)c1ccc(-c2[nH+]nc(CCC(=O)N=c3cccc(C)[n-]3)o2)cc1 (protonated)
COCC[N-]C(=O)c1ccc(-c2[nH+]nc(CCC(=O)/N=c3\cccc(C)[n-]3)o2)cc1 (cis-trans isomerization)
COCC[N-]C(=O)c1ccc(-c2[nH+]nc(CCC(=O)/N=c3\cccc(C)[n-]3)o2)cc1 (3D coordinates assigned)
COCC[N-]C(=O)c1ccc(-c2[nH+]nc(CCC(=O)/N=c3\cccc(C)[n-]3)o2)cc1 (optimized conformer: 96.44275066917952 kcal/mol)

>  <smiles>  (82) 
COCCNC(=O)c1ccc(-c2nnc(CCC(=O)N=c3cccc(C)[nH]3)o2)cc1

>  <score_type>  (82) 
oracle

>  <origin>  (82) 
adg

>  <m_score__min__energy>  (82) 
-10.24

>  <m_primary>  (82) 
energy

$$$$
82:0
     RDKit          3D

 49 51  0  0  0  0  0  0  0  0999 V2000
   66.0340   31.1540   51.2340 C   0  0  0  0  0  0  0  0  0  0  0  0
   66.6050   32.3950   50.5400 C   0  0  0  0  0  0  0  0  0  0  0  0
   66.7720   33.5470   51.5350 C   0  0  0  0  0  0  0  0  0  0  0  0
   65.7110   32.8070   49.4570 N   0  0  0  0  0  0  0  0  0  0  0  0
   64.3200   33.1000   49.6630 C   0  0  0  0  0  0  0  0  0  0  0  0
   63.8370   33.0920   50.8290 O   0  0  0  0  0  0  0  0  0  0  0  0
   63.4540   33.4870   48.5320 C   0  0  0  0  0  0  0  0  0  0  0  0
   63.8140   33.4170   47.2050 C   0  0  0  0  0  0  0  0  0  0  0  0
   62.7500   33.7170   46.4360 N   0  0  0  0  0  0  0  0  0  0  0  0
   61.7570   33.9740   47.3160 C   0  0  0  0  0  0  0  0  0  0  0  0
   60.3510   34.2990   46.8810 C   0  0  0  0  0  0  0  0  0  0  0  0
   59.3620   33.1480   47.1450 C   0  0  0  0  0  0  0  0  0  0  0  0
   59.6410   31.8600   46.3430 C   0  0  0  0  0  0  0  0  0  0  0  0
   58.5250   31.4850   45.4000 C   0  0  0  0  0  0  0  0  0  0  0  0
   58.0920   32.2500   44.3250 C   0  0  0  0  0  0  0  0  0  0  0  0
   57.0140   31.5840   43.7660 C   0  0  0  0  0  0  0  0  0  0  0  0
   56.8600   30.4330   44.5110 C   0  0  0  0  0  0  0  0  0  0  0  0
   57.7900   30.3530   45.4760 N   0  0  0  0  0  0  0  0  0  0  0  0
   57.8310   29.2870   46.4890 C   0  0  0  0  0  0  0  0  0  0  0  0
   57.1680   27.9930   45.9650 C   0  0  0  0  0  0  0  0  0  0  0  0
   55.9210   28.2730   45.2460 N   0  0  0  0  0  0  0  0  0  0  0  0
   55.8230   29.4120   44.3900 C   0  0  0  0  0  0  0  0  0  0  0  0
   54.8550   29.5400   43.5950 O   0  0  0  0  0  0  0  0  0  0  0  0
   62.1630   33.8770   48.6040 N   0  0  0  0  0  0  0  0  0  0  0  0
   61.3740   34.1630   49.8050 C   0  0  0  0  0  0  0  0  0  0  0  0
   66.0937   31.2838   52.3247 H   0  0  0  0  0  0  0  0  0  0  0  0
   64.9833   31.0191   50.9378 H   0  0  0  0  0  0  0  0  0  0  0  0
   66.6151   30.2682   50.9378 H   0  0  0  0  0  0  0  0  0  0  0  0
   67.5938   32.1419   50.1299 H   0  0  0  0  0  0  0  0  0  0  0  0
   66.7153   33.1559   52.5616 H   0  0  0  0  0  0  0  0  0  0  0  0
   67.7492   34.0274   51.3791 H   0  0  0  0  0  0  0  0  0  0  0  0
   65.9715   34.2851   51.3791 H   0  0  0  0  0  0  0  0  0  0  0  0
   66.1460   33.0620   48.5420 H   0  0  0  0  0  0  0  0  0  0  0  0
   64.8151   33.1565   46.8310 H   0  0  0  0  0  0  0  0  0  0  0  0
   60.0099   35.1883   47.4312 H   0  0  0  0  0  0  0  0  0  0  0  0
   60.3729   34.4736   45.7952 H   0  0  0  0  0  0  0  0  0  0  0  0
   59.4030   32.9002   48.2159 H   0  0  0  0  0  0  0  0  0  0  0  0
   58.3742   33.5074   46.8208 H   0  0  0  0  0  0  0  0  0  0  0  0
   60.5588   32.0079   45.7550 H   0  0  0  0  0  0  0  0  0  0  0  0
   59.7391   31.0407   47.0704 H   0  0  0  0  0  0  0  0  0  0  0  0
   58.5227   33.2026   43.9829 H   0  0  0  0  0  0  0  0  0  0  0  0
   56.4070   31.9057   42.9069 H   0  0  0  0  0  0  0  0  0  0  0  0
   58.8797   29.0749   46.7445 H   0  0  0  0  0  0  0  0  0  0  0  0
   57.2772   29.6278   47.3762 H   0  0  0  0  0  0  0  0  0  0  0  0
   57.8663   27.4861   45.2828 H   0  0  0  0  0  0  0  0  0  0  0  0
   56.9287   27.3569   46.8299 H   0  0  0  0  0  0  0  0  0  0  0  0
   61.9758   33.9449   50.6996 H   0  0  0  0  0  0  0  0  0  0  0  0
   61.0830   35.2238   49.8085 H   0  0  0  0  0  0  0  0  0  0  0  0
   60.4709   33.5350   49.8085 H   0  0  0  0  0  0  0  0  0  0  0  0
  1  2  1  0
  2  3  1  0
  2  4  1  0
  4  5  1  0
  5  6  2  0
  5  7  1  0
  7  8  2  0
  8  9  1  0
  9 10  2  0
 10 11  1  0
 11 12  1  0
 12 13  1  0
 13 14  1  0
 14 15  2  0
 15 16  1  0
 16 17  2  0
 17 18  1  0
 18 19  1  0
 19 20  1  0
 20 21  1  0
 21 22  1  0
 22 23  2  0
 10 24  1  0
 24 25  1  0
 24  7  1  0
 18 14  1  0
 22 17  1  0
  1 26  1  0
  1 27  1  0
  1 28  1  0
  2 29  1  0
  3 30  1  0
  3 31  1  0
  3 32  1  0
  4 33  1  0
  8 34  1  0
 11 35  1  0
 11 36  1  0
 12 37  1  0
 12 38  1  0
 13 39  1  0
 13 40  1  0
 15 41  1  0
 16 42  1  0
 19 43  1  0
 19 44  1  0
 20 45  1  0
 20 46  1  0
 25 47  1  0
 25 48  1  0
 25 49  1  0
M  CHG  1  21  -1
M  END
>  <UniqueID>  (83) 
82

>  <SMILES>  (83) 
CC(C)NC(=O)c1cnc(CCCc2ccc3n2CC[N-]C3=O)n1C

>  <Energy>  (83) 
97.52267349456837

>  <Genealogy>  (83) 
CC(C)NC(=O)c1cnc(CCCc2ccc3n2CC[N-]C3=O)n1C (protonated)
CC(C)NC(=O)c1cnc(CCCc2ccc3n2CC[N-]C3=O)n1C (3D coordinates assigned)
CC(C)NC(=O)c1cnc(CCCc2ccc3n2CC[N-]C3=O)n1C (nonaromatic ring conformer: 97.52267349456837 kcal/mol)

>  <smiles>  (83) 
CC(C)NC(=O)c1cnc(CCCc2ccc3n2CCNC3=O)n1C

>  <score_type>  (83) 
oracle

>  <origin>  (83) 
adg

>  <m_score__min__energy>  (83) 
-9.8100000000000005

>  <m_primary>  (83) 
energy

$$$$
83:0
     RDKit          3D

 51 55  0  0  0  0  0  0  0  0999 V2000
   57.4440   30.8900   43.1080 O   0  0  0  0  0  0  0  0  0  0  0  0
   57.4400   30.6920   44.3510 C   0  0  0  0  0  0  0  0  0  0  0  0
   57.3380   31.8280   45.2270 N   0  0  0  0  0  0  0  0  0  0  0  0
   58.3560   32.5200   46.0320 C   0  0  2  0  0  0  0  0  0  0  0  0
   58.7780   33.7910   45.2480 C   0  0  0  0  0  0  0  0  0  0  0  0
   59.8460   34.5810   46.0330 C   0  0  1  0  0  0  0  0  0  0  0  0
   59.2670   35.0040   47.4000 C   0  0  0  0  0  0  0  0  0  0  0  0
   58.8600   33.7460   48.1950 C   0  0  2  0  0  0  0  0  0  0  0  0
   60.0990   32.8490   48.4110 C   0  0  0  0  0  0  0  0  0  0  0  0
   60.6820   32.4290   47.0420 C   0  0  2  0  0  0  0  0  0  0  0  0
   61.0860   33.6890   46.2480 C   0  0  0  0  0  0  0  0  0  0  0  0
   59.6150   31.6380   46.2510 C   0  0  0  0  0  0  0  0  0  0  0  0
   57.7870   32.9600   47.4080 C   0  0  0  0  0  0  0  0  0  0  0  0
   57.5550   29.3100   44.8350 C   0  0  0  0  0  0  0  0  0  0  0  0
   58.8230   28.7480   45.0400 C   0  0  0  0  0  0  0  0  0  0  0  0
   58.9440   27.4280   45.4820 C   0  0  0  0  0  0  0  0  0  0  0  0
   57.7990   26.6690   45.7670 C   0  0  0  0  0  0  0  0  0  0  0  0
   57.9270   25.2170   46.1330 C   0  0  0  0  0  0  0  0  0  0  0  0
   56.7810   24.4450   45.5480 C   0  0  0  0  0  0  0  0  0  0  0  0
   57.0040   23.4520   44.5870 C   0  0  0  0  0  0  0  0  0  0  0  0
   55.9130   22.7180   44.1190 C   0  0  0  0  0  0  0  0  0  0  0  0
   56.1020   21.7250   43.1630 O   0  0  0  0  0  0  0  0  0  0  0  0
   54.6690   22.9750   44.6020 N   0  0  0  0  0  0  0  0  0  0  0  0
   54.4690   23.9360   45.5420 C   0  0  0  0  0  0  0  0  0  0  0  0
   53.3100   24.1540   45.9790 O   0  0  0  0  0  0  0  0  0  0  0  0
   55.5200   24.6570   46.0110 N   0  0  0  0  0  0  0  0  0  0  0  0
   56.5310   27.2530   45.6200 C   0  0  0  0  0  0  0  0  0  0  0  0
   56.4080   28.5720   45.1730 C   0  0  0  0  0  0  0  0  0  0  0  0
   55.1430   29.1370   45.0440 O   0  0  0  0  0  0  0  0  0  0  0  0
   59.1915   33.4941   44.2729 H   0  0  0  0  0  0  0  0  0  0  0  0
   57.8947   34.4312   45.1066 H   0  0  0  0  0  0  0  0  0  0  0  0
   60.1354   35.4779   45.4658 H   0  0  0  0  0  0  0  0  0  0  0  0
   60.0278   35.5641   47.9634 H   0  0  0  0  0  0  0  0  0  0  0  0
   58.3845   35.6418   47.2440 H   0  0  0  0  0  0  0  0  0  0  0  0
   58.4504   34.0479   49.1702 H   0  0  0  0  0  0  0  0  0  0  0  0
   60.8598   33.4062   48.9772 H   0  0  0  0  0  0  0  0  0  0  0  0
   59.8052   31.9505   48.9734 H   0  0  0  0  0  0  0  0  0  0  0  0
   61.5676   31.7952   47.1968 H   0  0  0  0  0  0  0  0  0  0  0  0
   61.8472   34.2488   46.8112 H   0  0  0  0  0  0  0  0  0  0  0  0
   61.4971   33.3912   45.2721 H   0  0  0  0  0  0  0  0  0  0  0  0
   60.0284   31.3440   45.2749 H   0  0  0  0  0  0  0  0  0  0  0  0
   59.3332   30.7408   46.8216 H   0  0  0  0  0  0  0  0  0  0  0  0
   57.4930   32.0693   47.9826 H   0  0  0  0  0  0  0  0  0  0  0  0
   56.9109   33.6055   47.2475 H   0  0  0  0  0  0  0  0  0  0  0  0
   59.7255   29.3482   44.8523 H   0  0  0  0  0  0  0  0  0  0  0  0
   59.9416   26.9819   45.6071 H   0  0  0  0  0  0  0  0  0  0  0  0
   58.8741   24.8221   45.7366 H   0  0  0  0  0  0  0  0  0  0  0  0
   57.9137   25.1149   47.2282 H   0  0  0  0  0  0  0  0  0  0  0  0
   58.0178   23.2543   44.2086 H   0  0  0  0  0  0  0  0  0  0  0  0
   56.7020   20.9310   43.3520 H   0  0  0  0  0  0  0  0  0  0  0  0
   55.6292   26.6697   45.8578 H   0  0  0  0  0  0  0  0  0  0  0  0
  1  2  2  0
  2  3  1  0
  4  3  1  6
  4  5  1  0
  5  6  1  0
  6  7  1  0
  7  8  1  0
  8  9  1  0
  9 10  1  0
 10 11  1  0
 10 12  1  0
  8 13  1  0
  2 14  1  0
 14 15  2  0
 15 16  1  0
 16 17  2  0
 17 18  1  0
 18 19  1  0
 19 20  1  0
 20 21  2  0
 21 22  1  0
 21 23  1  0
 23 24  1  0
 24 25  2  0
 24 26  1  0
 17 27  1  0
 27 28  2  0
 28 29  1  0
 12  4  1  0
 28 14  1  0
 13  4  1  0
 26 19  2  0
 11  6  1  0
  5 30  1  0
  5 31  1  0
  6 32  1  6
  7 33  1  0
  7 34  1  0
  8 35  1  1
  9 36  1  0
  9 37  1  0
 10 38  1  1
 11 39  1  0
 11 40  1  0
 12 41  1  0
 12 42  1  0
 13 43  1  0
 13 44  1  0
 15 45  1  0
 16 46  1  0
 18 47  1  0
 18 48  1  0
 20 49  1  0
 22 50  1  0
 27 51  1  0
M  CHG  3   3  -1  23  -1  29  -1
M  END
>  <UniqueID>  (84) 
83

>  <SMILES>  (84) 
O=C([N-]C12CC3CC(CC(C3)C1)C2)c1ccc(Cc2cc(O)[n-]c(=O)n2)cc1[O-]

>  <Energy>  (84) 
60.482260458154165

>  <Genealogy>  (84) 
O=C([N-]C12CC3CC(CC(C3)C1)C2)c1ccc(Cc2cc(O)[n-]c(=O)n2)cc1[O-] (protonated)
O=C([N-]C12CC3CC(CC(C3)C1)C2)c1ccc(Cc2cc(O)[n-]c(=O)n2)cc1[O-] (3D coordinates assigned)
O=C([N-]C12CC3CC(CC(C3)C1)C2)c1ccc(Cc2cc(O)[n-]c(=O)n2)cc1[O-] (nonaromatic ring conformer: 60.482260458154165 kcal/mol)

>  <smiles>  (84) 
O=C(NC12CC3CC(CC(C3)C1)C2)c1ccc(Cc2cc(O)[nH]c(=O)n2)cc1O

>  <score_type>  (84) 
oracle

>  <origin>  (84) 
adg

>  <m_score__min__energy>  (84) 
-16.710000000000001

>  <m_primary>  (84) 
energy

$$$$
84:0
     RDKit          3D

 57 61  0  0  1  0  0  0  0  0999 V2000
   57.1990   31.5930   42.4420 O   0  0  0  0  0  0  0  0  0  0  0  0
   56.9850   31.2160   43.6230 C   0  0  0  0  0  0  0  0  0  0  0  0
   56.5090   29.9230   43.9610 N   0  0  0  0  0  0  0  0  0  0  0  0
   57.0740   29.2720   44.9180 C   0  0  0  0  0  0  0  0  0  0  0  0
   58.0440   29.9160   45.6020 N   0  0  0  0  0  0  0  0  0  0  0  0
   58.7060   29.3470   46.6180 C   0  0  0  0  0  0  0  0  0  0  0  0
   59.6990   30.1010   47.2690 N   0  0  0  0  0  0  0  0  0  0  0  0
   59.3120   30.9680   48.3690 C   0  0  0  0  0  0  0  0  0  0  0  0
   60.4950   31.1320   49.2710 C   0  0  0  0  0  0  0  0  0  0  0  0
   61.5880   31.9150   48.5470 C   0  0  0  0  0  0  0  0  0  0  0  0
   61.1890   33.3620   48.5670 C   0  0  0  0  0  0  0  0  0  0  0  0
   61.7470   33.9920   49.8270 C   0  0  0  0  0  0  0  0  0  0  0  0
   63.1720   34.0610   49.7000 N   0  0  0  0  0  0  0  0  0  0  0  0
   63.7940   32.8360   49.3040 C   0  0  0  0  0  0  0  0  0  0  0  0
   62.8670   31.6470   49.2820 C   0  0  0  0  0  0  0  0  0  0  0  0
   61.7050   31.4620   47.1140 C   0  0  0  0  0  0  0  0  0  0  0  0
   61.1050   30.0740   46.9160 C   0  0  0  0  0  0  0  0  0  0  0  0
   58.3790   28.0600   46.9690 C   0  0  0  0  0  0  0  0  0  0  0  0
   57.3830   27.4050   46.2630 C   0  0  0  0  0  0  0  0  0  0  0  0
   57.0380   26.0570   46.6260 N   0  0  0  0  0  0  0  0  0  0  0  0
   57.7880   25.1590   47.2910 C   0  0  0  0  0  0  0  0  0  0  0  0
   57.0510   23.9810   47.4200 C   0  0  0  0  0  0  0  0  0  0  0  0
   55.8290   24.2180   46.8040 C   0  0  0  0  0  0  0  0  0  0  0  0
   55.8770   25.4930   46.3400 N   0  0  0  0  0  0  0  0  0  0  0  0
   56.7510   28.0130   45.2560 N   0  0  0  0  0  0  0  0  0  0  0  0
   57.2370   32.1360   44.6680 N   0  0  0  0  0  0  0  0  0  0  0  0
   57.7210   33.4800   44.4670 C   0  0  0  0  0  0  0  0  0  0  0  0
   58.0710   34.1860   45.7730 C   0  0  0  0  0  0  0  0  0  0  0  0
   59.1040   33.8730   44.7490 C   0  0  0  0  0  0  0  0  0  0  0  0
   59.0017   31.9487   47.9792 H   0  0  0  0  0  0  0  0  0  0  0  0
   58.4693   30.5280   48.9224 H   0  0  0  0  0  0  0  0  0  0  0  0
   60.1919   31.6785   50.1762 H   0  0  0  0  0  0  0  0  0  0  0  0
   60.8808   30.1405   49.5506 H   0  0  0  0  0  0  0  0  0  0  0  0
   61.5983   33.8729   47.6830 H   0  0  0  0  0  0  0  0  0  0  0  0
   60.0929   33.4531   48.5511 H   0  0  0  0  0  0  0  0  0  0  0  0
   61.3348   35.0043   49.9511 H   0  0  0  0  0  0  0  0  0  0  0  0
   61.4727   33.3903   50.7061 H   0  0  0  0  0  0  0  0  0  0  0  0
   63.3750   34.8220   48.9990 H   0  0  0  0  0  0  0  0  0  0  0  0
   64.2059   32.9702   48.2929 H   0  0  0  0  0  0  0  0  0  0  0  0
   64.5670   32.6183   50.0558 H   0  0  0  0  0  0  0  0  0  0  0  0
   63.3838   30.8086   48.7921 H   0  0  0  0  0  0  0  0  0  0  0  0
   62.6049   31.4148   50.3248 H   0  0  0  0  0  0  0  0  0  0  0  0
   61.1733   32.1767   46.4686 H   0  0  0  0  0  0  0  0  0  0  0  0
   62.7725   31.4172   46.8522 H   0  0  0  0  0  0  0  0  0  0  0  0
   61.2131   29.7745   45.8631 H   0  0  0  0  0  0  0  0  0  0  0  0
   61.6307   29.3520   47.5582 H   0  0  0  0  0  0  0  0  0  0  0  0
   58.8996   27.5573   47.7974 H   0  0  0  0  0  0  0  0  0  0  0  0
   58.8078   25.3252   47.6684 H   0  0  0  0  0  0  0  0  0  0  0  0
   57.3734   23.0510   47.9112 H   0  0  0  0  0  0  0  0  0  0  0  0
   54.9896   23.5132   46.7107 H   0  0  0  0  0  0  0  0  0  0  0  0
   56.0020   27.5250   44.7230 H   0  0  0  0  0  0  0  0  0  0  0  0
   57.0660   31.8490   45.6770 H   0  0  0  0  0  0  0  0  0  0  0  0
   57.0930   33.6303   43.5765 H   0  0  0  0  0  0  0  0  0  0  0  0
   57.7558   35.2260   45.9435 H   0  0  0  0  0  0  0  0  0  0  0  0
   57.9336   33.9762   46.8440 H   0  0  0  0  0  0  0  0  0  0  0  0
   59.5652   34.6898   44.1744 H   0  0  0  0  0  0  0  0  0  0  0  0
   60.0629   33.3344   44.7699 H   0  0  0  0  0  0  0  0  0  0  0  0
  1  2  2  0
  2  3  1  0
  3  4  2  0
  4  5  1  0
  5  6  2  0
  6  7  1  0
  7  8  1  0
  8  9  1  0
  9 10  1  0
 10 11  1  0
 11 12  1  0
 12 13  1  0
 13 14  1  0
 14 15  1  0
 10 16  1  0
 16 17  1  0
  6 18  1  0
 18 19  2  0
 19 20  1  0
 20 21  1  0
 21 22  2  0
 22 23  1  0
 23 24  2  0
 19 25  1  0
  2 26  1  0
 26 27  1  0
 27 28  1  0
 28 29  1  0
 25  4  1  0
 29 27  1  0
 17  7  1  0
 24 20  1  0
 15 10  1  0
  8 30  1  0
  8 31  1  0
  9 32  1  0
  9 33  1  0
 11 34  1  0
 11 35  1  0
 12 36  1  0
 12 37  1  0
 13 38  1  0
 14 39  1  0
 14 40  1  0
 15 41  1  0
 15 42  1  0
 16 43  1  0
 16 44  1  0
 17 45  1  0
 17 46  1  0
 18 47  1  0
 21 48  1  0
 22 49  1  0
 23 50  1  0
 25 51  1  0
 26 52  1  0
 27 53  1  0
 28 54  1  0
 28 55  1  0
 29 56  1  0
 29 57  1  0
M  END
>  <smiles>  (85) 
O=C(N=c1nc(N2CCC3(CCNCC3)CC2)cc(-n2cccn2)[nH]1)NC1CC1

>  <score_type>  (85) 
oracle

>  <origin>  (85) 
adg

>  <m_score__min__energy>  (85) 
-8.8200000000000003

>  <m_primary>  (85) 
energy

$$$$
85:0
     RDKit          3D

 55 58  0  0  0  0  0  0  0  0999 V2000
   55.7920   21.9080   42.2320 N   0  0  0  0  0  0  0  0  0  0  0  0
   56.7420   21.2900   43.5370 S   0  0  0  0  0  0  0  0  0  0  0  0
   58.1420   21.0250   43.0600 O   0  0  0  0  0  0  0  0  0  0  0  0
   56.1450   19.9990   44.0240 O   0  0  0  0  0  0  0  0  0  0  0  0
   56.7700   22.4660   44.8460 C   0  0  0  0  0  0  0  0  0  0  0  0
   56.6320   22.0470   46.1740 C   0  0  0  0  0  0  0  0  0  0  0  0
   56.6330   22.9850   47.2100 C   0  0  0  0  0  0  0  0  0  0  0  0
   56.7770   24.3460   46.9250 C   0  0  0  0  0  0  0  0  0  0  0  0
   56.9340   24.7790   45.5970 C   0  0  0  0  0  0  0  0  0  0  0  0
   57.0530   26.1740   45.2720 N   0  0  0  0  0  0  0  0  0  0  0  0
   57.8510   27.1100   46.0180 C   0  0  0  0  0  0  0  0  0  0  0  0
   58.5160   26.7240   47.0180 O   0  0  0  0  0  0  0  0  0  0  0  0
   57.9030   28.5360   45.6330 C   0  0  0  0  0  0  0  0  0  0  0  0
   59.1310   29.2060   45.6540 C   0  0  0  0  0  0  0  0  0  0  0  0
   59.1950   30.5530   45.2980 C   0  0  0  0  0  0  0  0  0  0  0  0
   58.0740   31.2300   44.9020 N   0  0  0  0  0  0  0  0  0  0  0  0
   58.1880   32.6520   44.5270 C   0  0  0  0  0  0  0  0  0  0  0  0
   57.9460   33.5500   45.7130 C   0  0  0  0  0  0  0  0  0  0  0  0
   56.8700   33.4350   46.3570 O   0  0  0  0  0  0  0  0  0  0  0  0
   58.8900   34.5450   46.1260 N   0  0  0  0  0  0  0  0  0  0  0  0
   59.5380   34.5940   47.4300 C   0  0  0  0  0  0  0  0  0  0  0  0
   60.6090   33.5320   47.4980 C   0  0  0  0  0  0  0  0  0  0  0  0
   61.8920   33.8420   47.0150 C   0  0  0  0  0  0  0  0  0  0  0  0
   62.9160   32.8960   47.0510 C   0  0  0  0  0  0  0  0  0  0  0  0
   62.6810   31.6230   47.5630 C   0  0  0  0  0  0  0  0  0  0  0  0
   61.4090   31.2770   48.0420 C   0  0  0  0  0  0  0  0  0  0  0  0
   61.1780   29.9890   48.5480 C   0  0  0  0  0  0  0  0  0  0  0  0
   59.9130   29.6330   49.0180 C   0  0  0  0  0  0  0  0  0  0  0  0
   58.8690   30.5560   48.9840 C   0  0  0  0  0  0  0  0  0  0  0  0
   59.0800   31.8430   48.4840 C   0  0  0  0  0  0  0  0  0  0  0  0
   60.3530   32.2300   48.0080 C   0  0  0  0  0  0  0  0  0  0  0  0
   56.8580   30.5930   44.8790 C   0  0  0  0  0  0  0  0  0  0  0  0
   55.8140   31.2180   44.5450 O   0  0  0  0  0  0  0  0  0  0  0  0
   56.7560   29.2370   45.2260 C   0  0  0  0  0  0  0  0  0  0  0  0
   55.5240   28.5960   45.1320 O   0  0  0  0  0  0  0  0  0  0  0  0
   56.9050   23.8330   44.5600 C   0  0  0  0  0  0  0  0  0  0  0  0
   56.3670   22.6360   41.7540 H   0  0  0  0  0  0  0  0  0  0  0  0
   56.5225   20.9767   46.4030 H   0  0  0  0  0  0  0  0  0  0  0  0
   56.5202   22.6516   48.2522 H   0  0  0  0  0  0  0  0  0  0  0  0
   56.7674   25.0810   47.7433 H   0  0  0  0  0  0  0  0  0  0  0  0
   56.5650   26.5060   44.4090 H   0  0  0  0  0  0  0  0  0  0  0  0
   60.0451   28.6710   45.9510 H   0  0  0  0  0  0  0  0  0  0  0  0
   60.1606   31.0786   45.3362 H   0  0  0  0  0  0  0  0  0  0  0  0
   59.1986   32.8398   44.1352 H   0  0  0  0  0  0  0  0  0  0  0  0
   57.4283   32.8724   43.7627 H   0  0  0  0  0  0  0  0  0  0  0  0
   59.9935   35.5845   47.5765 H   0  0  0  0  0  0  0  0  0  0  0  0
   58.7919   34.4144   48.2180 H   0  0  0  0  0  0  0  0  0  0  0  0
   62.0908   34.8427   46.6037 H   0  0  0  0  0  0  0  0  0  0  0  0
   63.9153   33.1573   46.6726 H   0  0  0  0  0  0  0  0  0  0  0  0
   63.4964   30.8853   47.5920 H   0  0  0  0  0  0  0  0  0  0  0  0
   61.9979   29.2562   48.5744 H   0  0  0  0  0  0  0  0  0  0  0  0
   59.7395   28.6223   49.4160 H   0  0  0  0  0  0  0  0  0  0  0  0
   57.8733   30.2692   49.3531 H   0  0  0  0  0  0  0  0  0  0  0  0
   58.2477   32.5618   48.4605 H   0  0  0  0  0  0  0  0  0  0  0  0
   56.9888   24.1661   43.5150 H   0  0  0  0  0  0  0  0  0  0  0  0
  1  2  1  0
  2  3  2  0
  2  4  2  0
  2  5  1  0
  5  6  2  0
  6  7  1  0
  7  8  2  0
  8  9  1  0
  9 10  1  0
 10 11  1  0
 11 12  2  0
 11 13  1  0
 13 14  1  0
 14 15  2  0
 15 16  1  0
 16 17  1  0
 17 18  1  0
 18 19  2  0
 18 20  1  0
 20 21  1  0
 21 22  1  0
 22 23  2  0
 23 24  1  0
 24 25  2  0
 25 26  1  0
 26 27  2  0
 27 28  1  0
 28 29  2  0
 29 30  1  0
 30 31  2  0
 16 32  1  0
 32 33  2  0
 32 34  1  0
 34 35  1  0
  9 36  2  0
 36  5  1  0
 34 13  2  0
 31 22  1  0
 31 26  1  0
  1 37  1  0
  6 38  1  0
  7 39  1  0
  8 40  1  0
 10 41  1  0
 14 42  1  0
 15 43  1  0
 17 44  1  0
 17 45  1  0
 21 46  1  0
 21 47  1  0
 23 48  1  0
 24 49  1  0
 25 50  1  0
 27 51  1  0
 28 52  1  0
 29 53  1  0
 30 54  1  0
 36 55  1  0
M  CHG  3   1  -1  20  -1  35  -1
M  END
>  <UniqueID>  (86) 
84

>  <SMILES>  (86) 
[NH-]S(=O)(=O)c1cccc(NC(=O)c2ccn(CC(=O)[N-]Cc3cccc4ccccc34)c(=O)c2[O-])c1

>  <Energy>  (86) 
73.6654793709896

>  <Genealogy>  (86) 
[NH-]S(=O)(=O)c1cccc(NC(=O)c2ccn(CC(=O)[N-]Cc3cccc4ccccc34)c(=O)c2[O-])c1 (protonated)
[NH-]S(=O)(=O)c1cccc(NC(=O)c2ccn(CC(=O)[N-]Cc3cccc4ccccc34)c(=O)c2[O-])c1 (3D coordinates assigned)
[NH-]S(=O)(=O)c1cccc(NC(=O)c2ccn(CC(=O)[N-]Cc3cccc4ccccc34)c(=O)c2[O-])c1 (optimized conformer: 73.6654793709896 kcal/mol)

>  <smiles>  (86) 
NS(=O)(=O)c1cccc(NC(=O)c2ccn(CC(=O)NCc3cccc4ccccc34)c(=O)c2O)c1

>  <score_type>  (86) 
oracle

>  <origin>  (86) 
adg

>  <m_score__min__energy>  (86) 
-16.359999999999999

>  <m_primary>  (86) 
energy

$$$$
86:0
     RDKit          3D

 34 36  0  0  0  0  0  0  0  0999 V2000
   53.6788   27.5671   53.6931 H   0  0  0  0  0  0  0  0  0  0  0  0
   53.7210   28.5250   53.1540 C   0  0  0  0  0  0  0  0  0  0  0  0
   54.9280   29.3530   53.3440 C   0  0  0  0  0  0  0  0  0  0  0  0
   55.7100   29.2160   54.3690 N   0  0  0  0  0  0  0  0  0  0  0  0
   56.8390   30.0660   54.3000 C   0  0  0  0  0  0  0  0  0  0  0  0
   57.7080   30.1040   55.2110 O   0  0  0  0  0  0  0  0  0  0  0  0
   56.8820   30.8740   53.0950 C   0  0  0  0  0  0  0  0  0  0  0  0
   57.7860   31.8330   52.8610 C   0  0  0  0  0  0  0  0  0  0  0  0
   58.0610   32.5064   53.6862 H   0  0  0  0  0  0  0  0  0  0  0  0
   58.4320   32.0300   51.5470 C   0  0  0  0  0  0  0  0  0  0  0  0
   58.9280   33.2930   51.1590 C   0  0  0  0  0  0  0  0  0  0  0  0
   58.8090   34.3920   52.0020 O   0  0  0  0  0  0  0  0  0  0  0  0
   59.5250   33.4550   49.9050 C   0  0  0  0  0  0  0  0  0  0  0  0
   59.9285   34.4358   49.6130 H   0  0  0  0  0  0  0  0  0  0  0  0
   59.6110   32.3770   49.0220 C   0  0  0  0  0  0  0  0  0  0  0  0
   60.0858   32.5088   48.0385 H   0  0  0  0  0  0  0  0  0  0  0  0
   59.0950   31.1320   49.3860 C   0  0  0  0  0  0  0  0  0  0  0  0
   59.1548   30.2870   48.6842 H   0  0  0  0  0  0  0  0  0  0  0  0
   58.5020   30.9560   50.6410 C   0  0  0  0  0  0  0  0  0  0  0  0
   57.9930   29.7070   50.9840 O   0  0  0  0  0  0  0  0  0  0  0  0
   55.4630   30.5070   52.0620 S   0  0  0  0  0  0  0  0  0  0  0  0
   52.6700   28.8400   52.3800 C   0  0  0  0  0  0  0  0  0  0  0  0
   52.2667   28.0499   51.7295 H   0  0  0  0  0  0  0  0  0  0  0  0
   52.0110   30.1620   52.3310 C   0  0  0  0  0  0  0  0  0  0  0  0
   51.6610   30.8480   53.5080 C   0  0  0  0  0  0  0  0  0  0  0  0
   51.8487   30.3850   54.4880 H   0  0  0  0  0  0  0  0  0  0  0  0
   51.0760   32.1150   53.4380 C   0  0  0  0  0  0  0  0  0  0  0  0
   50.7873   32.6381   54.3616 H   0  0  0  0  0  0  0  0  0  0  0  0
   50.8570   32.7190   52.1970 C   0  0  0  0  0  0  0  0  0  0  0  0
   50.2730   33.9790   52.1340 O   0  0  0  0  0  0  0  0  0  0  0  0
   51.2310   32.0570   51.0210 C   0  0  0  0  0  0  0  0  0  0  0  0
   51.0260   32.6570   49.7850 O   0  0  0  0  0  0  0  0  0  0  0  0
   51.8160   30.7860   51.0900 C   0  0  0  0  0  0  0  0  0  0  0  0
   52.1241   30.2746   50.1661 H   0  0  0  0  0  0  0  0  0  0  0  0
  1  2  1  0
  2  3  1  0
  3  4  2  0
  4  5  1  0
  5  6  2  0
  5  7  1  0
  7  8  2  0
  8  9  1  0
  8 10  1  0
 10 11  2  0
 11 12  1  0
 11 13  1  0
 13 14  1  0
 13 15  2  0
 15 16  1  0
 15 17  1  0
 17 18  1  0
 17 19  2  0
 19 20  1  0
  7 21  1  0
  2 22  2  3
 22 23  1  0
 22 24  1  0
 24 25  2  0
 25 26  1  0
 25 27  1  0
 27 28  1  0
 27 29  2  0
 29 30  1  0
 29 31  1  0
 31 32  1  0
 31 33  2  0
 33 34  1  0
 21  3  1  0
 33 24  1  0
 19 10  1  0
M  CHG  4  12  -1  20  -1  30  -1  32  -1
M  END
>  <UniqueID>  (87) 
85

>  <SMILES>  (87) 
O=C1N=C(C=Cc2ccc([O-])c([O-])c2)S/C1=C\c1c([O-])cccc1[O-]

>  <Energy>  (87) 
71.59738399351245

>  <Genealogy>  (87) 
O=C1N=C(C=Cc2ccc([O-])c([O-])c2)SC1=Cc1c([O-])cccc1[O-] (protonated)
O=C1N=C(C=Cc2ccc([O-])c([O-])c2)S/C1=C\c1c([O-])cccc1[O-] (cis-trans isomerization)
O=C1N=C(C=Cc2ccc([O-])c([O-])c2)S/C1=C\c1c([O-])cccc1[O-] (3D coordinates assigned)
O=C1N=C(C=Cc2ccc([O-])c([O-])c2)S/C1=C\c1c([O-])cccc1[O-] (nonaromatic ring conformer: 71.59738399351245 kcal/mol)

>  <smiles>  (87) 
O=C1N=C(C=Cc2ccc(O)c(O)c2)SC1=Cc1c(O)cccc1O

>  <score_type>  (87) 
oracle

>  <origin>  (87) 
adg

>  <m_score__min__energy>  (87) 
-17.920000000000002

>  <m_primary>  (87) 
energy

$$$$
87:0
     RDKit          3D

 48 50  0  0  0  0  0  0  0  0999 V2000
   54.7160   26.9560   46.4010 H   0  0  0  0  0  0  0  0  0  0  0  0
   54.4290   26.0610   45.9430 N   0  0  0  0  0  0  0  0  0  0  0  0
   55.7990   25.0100   45.9900 S   0  0  0  0  0  0  0  0  0  0  0  0
   55.8410   24.1840   44.7340 O   0  0  0  0  0  0  0  0  0  0  0  0
   55.6870   24.0870   47.1710 O   0  0  0  0  0  0  0  0  0  0  0  0
   57.2670   25.9710   46.1230 C   0  0  0  0  0  0  0  0  0  0  0  0
   58.4840   25.3620   46.4530 C   0  0  0  0  0  0  0  0  0  0  0  0
   58.5245   24.2776   46.6330 H   0  0  0  0  0  0  0  0  0  0  0  0
   59.6470   26.1300   46.5540 C   0  0  0  0  0  0  0  0  0  0  0  0
   60.6000   25.6495   46.8202 H   0  0  0  0  0  0  0  0  0  0  0  0
   59.6030   27.5060   46.3180 C   0  0  0  0  0  0  0  0  0  0  0  0
   60.5199   28.1065   46.4106 H   0  0  0  0  0  0  0  0  0  0  0  0
   58.3940   28.1270   45.9630 C   0  0  0  0  0  0  0  0  0  0  0  0
   58.3280   29.5850   45.7170 C   0  0  0  0  0  0  0  0  0  0  0  0
   57.6330   30.2390   44.7070 C   0  0  0  0  0  0  0  0  0  0  0  0
   56.7820   29.6370   43.6330 C   0  0  0  0  0  0  0  0  0  0  0  0
   55.9660   29.0597   44.0922 H   0  0  0  0  0  0  0  0  0  0  0  0
   56.3586   30.4376   43.0087 H   0  0  0  0  0  0  0  0  0  0  0  0
   57.3960   28.9712   43.0087 H   0  0  0  0  0  0  0  0  0  0  0  0
   57.8620   31.5920   44.8730 C   0  0  0  0  0  0  0  0  0  0  0  0
   57.4794   32.4087   44.2433 H   0  0  0  0  0  0  0  0  0  0  0  0
   58.6710   31.7130   45.9930 C   0  0  0  0  0  0  0  0  0  0  0  0
   59.1830   32.9690   46.5830 C   0  0  0  0  0  0  0  0  0  0  0  0
   60.0630   32.9000   47.6180 N   0  0  0  0  0  0  0  0  0  0  0  0
   60.5680   34.0210   48.2040 C   0  0  0  0  0  0  0  0  0  0  0  0
   61.4050   33.9360   49.1920 N   0  0  0  0  0  0  0  0  0  0  0  0
   62.3490   32.8350   49.3680 C   0  0  0  0  0  0  0  0  0  0  0  0
   61.9053   31.9064   48.9796 H   0  0  0  0  0  0  0  0  0  0  0  0
   62.5755   32.7147   50.4377 H   0  0  0  0  0  0  0  0  0  0  0  0
   63.6410   33.1410   48.6050 C   0  0  0  0  0  0  0  0  0  0  0  0
   64.4666   32.5849   49.0731 H   0  0  0  0  0  0  0  0  0  0  0  0
   63.8057   34.2276   48.6514 H   0  0  0  0  0  0  0  0  0  0  0  0
   63.5600   32.7460   47.1230 C   0  0  0  0  0  0  0  0  0  0  0  0
   62.7050   32.0675   46.9864 H   0  0  0  0  0  0  0  0  0  0  0  0
   64.5115   32.2625   46.8568 H   0  0  0  0  0  0  0  0  0  0  0  0
   63.3810   33.9490   46.1980 C   0  0  0  0  0  0  0  0  0  0  0  0
   63.2457   34.8586   46.8015 H   0  0  0  0  0  0  0  0  0  0  0  0
   64.2726   34.0594   45.5633 H   0  0  0  0  0  0  0  0  0  0  0  0
   62.4959   33.7950   45.5633 H   0  0  0  0  0  0  0  0  0  0  0  0
   60.1900   35.2440   47.7510 N   0  0  0  0  0  0  0  0  0  0  0  0
   59.3150   35.3680   46.7200 C   0  0  0  0  0  0  0  0  0  0  0  0
   59.0210   36.3671   46.3658 H   0  0  0  0  0  0  0  0  0  0  0  0
   58.7890   34.2300   46.1100 C   0  0  0  0  0  0  0  0  0  0  0  0
   58.0791   34.3189   45.2744 H   0  0  0  0  0  0  0  0  0  0  0  0
   58.9430   30.4930   46.5000 N   0  0  0  0  0  0  0  0  0  0  0  0
   59.5370   30.2880   47.3350 H   0  0  0  0  0  0  0  0  0  0  0  0
   57.2260   27.3510   45.8770 C   0  0  0  0  0  0  0  0  0  0  0  0
   56.2712   27.8300   45.6145 H   0  0  0  0  0  0  0  0  0  0  0  0
  1  2  1  0
  2  3  1  0
  3  4  2  0
  3  5  2  0
  3  6  1  0
  6  7  2  0
  7  8  1  0
  7  9  1  0
  9 10  1  0
  9 11  2  0
 11 12  1  0
 11 13  1  0
 13 14  1  0
 14 15  2  0
 15 16  1  0
 16 17  1  0
 16 18  1  0
 16 19  1  0
 15 20  1  0
 20 21  1  0
 20 22  2  0
 22 23  1  0
 23 24  2  0
 24 25  1  0
 25 26  2  0
 26 27  1  0
 27 28  1  0
 27 29  1  0
 27 30  1  0
 30 31  1  0
 30 32  1  0
 30 33  1  0
 33 34  1  0
 33 35  1  0
 33 36  1  0
 36 37  1  0
 36 38  1  0
 36 39  1  0
 25 40  1  0
 40 41  1  0
 41 42  1  0
 41 43  2  0
 43 44  1  0
 22 45  1  0
 45 46  1  0
 13 47  2  0
 47 48  1  0
 47  6  1  0
 45 14  1  0
 43 23  1  0
M  CHG  2   2  -1  40  -1
M  END
>  <UniqueID>  (88) 
86

>  <SMILES>  (88) 
CCCC/N=c1\nc(-c2cc(C)c(-c3cccc(S([NH-])(=O)=O)c3)[nH]2)cc[n-]1

>  <Energy>  (88) 
73.03319021635323

>  <Genealogy>  (88) 
CCCCN=c1nc(-c2cc(C)c(-c3cccc(S([NH-])(=O)=O)c3)[nH]2)cc[n-]1 (protonated)
CCCC/N=c1\nc(-c2cc(C)c(-c3cccc(S([NH-])(=O)=O)c3)[nH]2)cc[n-]1 (cis-trans isomerization)
CCCC/N=c1\nc(-c2cc(C)c(-c3cccc(S([NH-])(=O)=O)c3)[nH]2)cc[n-]1 (3D coordinates assigned)
CCCC/N=c1\nc(-c2cc(C)c(-c3cccc(S([NH-])(=O)=O)c3)[nH]2)cc[n-]1 (optimized conformer: 73.03319021635323 kcal/mol)

>  <smiles>  (88) 
CCCCN=c1nc(-c2cc(C)c(-c3cccc(S(N)(=O)=O)c3)[nH]2)cc[nH]1

>  <score_type>  (88) 
oracle

>  <origin>  (88) 
adg

>  <m_score__min__energy>  (88) 
-12.98

>  <m_primary>  (88) 
energy

$$$$
88:0
     RDKit          3D

 47 49  0  0  0  0  0  0  0  0999 V2000
   58.3255   31.3135   50.0666 H   0  0  0  0  0  0  0  0  0  0  0  0
   58.9120   30.9570   49.2070 C   0  0  0  0  0  0  0  0  0  0  0  0
   58.5550   31.3130   47.9470 N   0  0  0  0  0  0  0  0  0  0  0  0
   59.2390   30.9060   46.8440 C   0  0  0  0  0  0  0  0  0  0  0  0
   58.8040   31.3130   45.6820 N   0  0  0  0  0  0  0  0  0  0  0  0
   57.5330   31.8990   45.3740 C   0  0  0  0  0  0  0  0  0  0  0  0
   56.6420   31.1920   44.8380 O   0  0  0  0  0  0  0  0  0  0  0  0
   57.2800   33.2870   45.6140 N   0  0  0  0  0  0  0  0  0  0  0  0
   57.9750   34.3620   44.9210 C   0  0  0  0  0  0  0  0  0  0  0  0
   58.3178   34.0044   43.9389 H   0  0  0  0  0  0  0  0  0  0  0  0
   57.2912   35.2124   44.7820 H   0  0  0  0  0  0  0  0  0  0  0  0
   59.1600   34.7980   45.7380 C   0  0  0  0  0  0  0  0  0  0  0  0
   59.6620   35.8900   45.5060 O   0  0  0  0  0  0  0  0  0  0  0  0
   59.7010   33.9450   46.7810 N   0  0  0  0  0  0  0  0  0  0  0  0
   59.1580   33.0500   46.8340 H   0  0  0  0  0  0  0  0  0  0  0  0
   61.1100   33.6100   46.5490 C   0  0  0  0  0  0  0  0  0  0  0  0
   61.1875   32.7211   45.9057 H   0  0  0  0  0  0  0  0  0  0  0  0
   61.6349   34.4343   46.0441 H   0  0  0  0  0  0  0  0  0  0  0  0
   61.7220   33.3250   47.9140 C   0  0  0  0  0  0  0  0  0  0  0  0
   61.7926   32.2407   48.0850 H   0  0  0  0  0  0  0  0  0  0  0  0
   62.7417   33.7292   47.9968 H   0  0  0  0  0  0  0  0  0  0  0  0
   60.7770   33.9630   48.9240 C   0  0  0  0  0  0  0  0  0  0  0  0
   60.3728   33.2009   49.6065 H   0  0  0  0  0  0  0  0  0  0  0  0
   61.2902   34.7114   49.5457 H   0  0  0  0  0  0  0  0  0  0  0  0
   59.6580   34.5860   48.1000 C   0  0  0  0  0  0  0  0  0  0  0  0
   58.6856   34.4016   48.5799 H   0  0  0  0  0  0  0  0  0  0  0  0
   59.7869   35.6752   48.0158 H   0  0  0  0  0  0  0  0  0  0  0  0
   60.3930   30.0900   47.0080 C   0  0  0  0  0  0  0  0  0  0  0  0
   61.1460   29.6870   45.8900 O   0  0  0  0  0  0  0  0  0  0  0  0
   60.8250   28.6110   45.0090 C   0  0  0  0  0  0  0  0  0  0  0  0
   60.8935   28.9632   43.9692 H   0  0  0  0  0  0  0  0  0  0  0  0
   61.5354   27.7891   45.1817 H   0  0  0  0  0  0  0  0  0  0  0  0
   59.4300   28.1070   45.2690 C   0  0  0  0  0  0  0  0  0  0  0  0
   59.1890   27.1510   46.2690 C   0  0  0  0  0  0  0  0  0  0  0  0
   60.0262   26.7592   46.8653 H   0  0  0  0  0  0  0  0  0  0  0  0
   57.8890   26.6950   46.5100 C   0  0  0  0  0  0  0  0  0  0  0  0
   57.7075   25.9394   47.2885 H   0  0  0  0  0  0  0  0  0  0  0  0
   56.8200   27.1980   45.7630 C   0  0  0  0  0  0  0  0  0  0  0  0
   55.5610   26.7560   45.9990 F   0  0  0  0  0  0  0  0  0  0  0  0
   57.0500   28.1600   44.7750 C   0  0  0  0  0  0  0  0  0  0  0  0
   56.2082   28.5581   44.1895 H   0  0  0  0  0  0  0  0  0  0  0  0
   58.3490   28.6170   44.5300 C   0  0  0  0  0  0  0  0  0  0  0  0
   58.5251   29.3785   43.7560 H   0  0  0  0  0  0  0  0  0  0  0  0
   60.7600   29.7080   48.3140 C   0  0  0  0  0  0  0  0  0  0  0  0
   61.6376   29.0629   48.4678 H   0  0  0  0  0  0  0  0  0  0  0  0
   60.0200   30.1410   49.4110 C   0  0  0  0  0  0  0  0  0  0  0  0
   60.3087   29.8408   50.4291 H   0  0  0  0  0  0  0  0  0  0  0  0
  1  2  1  0
  2  3  1  0
  3  4  1  0
  4  5  2  0
  5  6  1  0
  6  7  2  0
  6  8  1  0
  8  9  1  0
  9 10  1  0
  9 11  1  0
  9 12  1  0
 12 13  2  0
 12 14  1  0
 14 15  1  0
 14 16  1  0
 16 17  1  0
 16 18  1  0
 16 19  1  0
 19 20  1  0
 19 21  1  0
 19 22  1  0
 22 23  1  0
 22 24  1  0
 22 25  1  0
 25 26  1  0
 25 27  1  0
  4 28  1  0
 28 29  1  0
 29 30  1  0
 30 31  1  0
 30 32  1  0
 30 33  1  0
 33 34  2  0
 34 35  1  0
 34 36  1  0
 36 37  1  0
 36 38  2  0
 38 39  1  0
 38 40  1  0
 40 41  1  0
 40 42  2  0
 42 43  1  0
 28 44  2  0
 44 45  1  0
 44 46  1  0
 46 47  1  0
 46  2  2  0
 25 14  1  0
 42 33  1  0
M  CHG  3   3  -1   8  -1  14   1
M  END
>  <UniqueID>  (89) 
87

>  <SMILES>  (89) 
O=C(/N=c1/[n-]cccc1OCc1ccc(F)cc1)[N-]CC(=O)[NH+]1CCCC1

>  <Energy>  (89) 
60.91786048435347

>  <Genealogy>  (89) 
O=C(N=c1[n-]cccc1OCc1ccc(F)cc1)[N-]CC(=O)[NH+]1CCCC1 (protonated)
O=C(/N=c1/[n-]cccc1OCc1ccc(F)cc1)[N-]CC(=O)[NH+]1CCCC1 (cis-trans isomerization)
O=C(/N=c1/[n-]cccc1OCc1ccc(F)cc1)[N-]CC(=O)[NH+]1CCCC1 (3D coordinates assigned)
O=C(/N=c1/[n-]cccc1OCc1ccc(F)cc1)[N-]CC(=O)[NH+]1CCCC1 (nonaromatic ring conformer: 60.91786048435347 kcal/mol)

>  <smiles>  (89) 
O=C(N=c1[nH]cccc1OCc1ccc(F)cc1)NCC(=O)N1CCCC1

>  <score_type>  (89) 
oracle

>  <origin>  (89) 
adg

>  <m_score__min__energy>  (89) 
-7.7199999999999998

>  <m_primary>  (89) 
energy

$$$$
89:0
     RDKit          3D

 39 40  0  0  0  0  0  0  0  0999 V2000
   58.2690   29.1660   46.4850 C   0  0  0  0  0  0  0  0  0  0  0  0
   58.0260   30.5800   46.0230 C   0  0  0  0  0  0  0  0  0  0  0  0
   58.6530   31.6000   46.6830 N   0  0  0  0  0  0  0  0  0  0  0  0
   58.5280   32.9070   46.3070 C   0  0  0  0  0  0  0  0  0  0  0  0
   59.2450   34.0300   47.0500 C   0  0  0  0  0  0  0  0  0  0  0  0
   59.5020   33.7130   48.5410 C   0  0  0  0  0  0  0  0  0  0  0  0
   60.8580   33.0490   48.8130 C   0  0  0  0  0  0  0  0  0  0  0  0
   61.9500   33.8080   48.1800 N   0  0  0  0  0  0  0  0  0  0  0  0
   63.4840   33.0780   48.5880 S   0  0  0  0  0  0  0  0  0  0  0  0
   64.0450   33.6510   50.1780 C   0  0  0  0  0  0  0  0  0  0  0  0
   63.3550   31.5790   48.6190 O   0  0  0  0  0  0  0  0  0  0  0  0
   64.5120   33.4600   47.5600 O   0  0  0  0  0  0  0  0  0  0  0  0
   61.7910   33.8130   46.7170 C   0  0  0  0  0  0  0  0  0  0  0  0
   60.5040   34.5400   46.3150 C   0  0  0  0  0  0  0  0  0  0  0  0
   57.7270   33.2190   45.1990 C   0  0  0  0  0  0  0  0  0  0  0  0
   57.0610   32.2070   44.5170 C   0  0  0  0  0  0  0  0  0  0  0  0
   57.1800   30.8710   44.9230 C   0  0  0  0  0  0  0  0  0  0  0  0
   56.4180   29.8350   44.1800 C   0  0  0  0  0  0  0  0  0  0  0  0
   55.4940   28.9790   44.8480 N   0  0  0  0  0  0  0  0  0  0  0  0
   56.5520   29.7330   42.9310 O   0  0  0  0  0  0  0  0  0  0  0  0
   58.2743   29.1353   47.5846 H   0  0  0  0  0  0  0  0  0  0  0  0
   57.4699   28.5133   46.1038 H   0  0  0  0  0  0  0  0  0  0  0  0
   59.2402   28.8175   46.1038 H   0  0  0  0  0  0  0  0  0  0  0  0
   59.2530   31.3590   47.4960 H   0  0  0  0  0  0  0  0  0  0  0  0
   58.5390   34.8735   47.0478 H   0  0  0  0  0  0  0  0  0  0  0  0
   59.4583   34.6549   49.1074 H   0  0  0  0  0  0  0  0  0  0  0  0
   58.7283   32.9956   48.8518 H   0  0  0  0  0  0  0  0  0  0  0  0
   61.0287   33.0098   49.8990 H   0  0  0  0  0  0  0  0  0  0  0  0
   60.8438   32.0337   48.3900 H   0  0  0  0  0  0  0  0  0  0  0  0
   63.5127   33.1073   50.9724 H   0  0  0  0  0  0  0  0  0  0  0  0
   65.1262   33.4715   50.2719 H   0  0  0  0  0  0  0  0  0  0  0  0
   63.8426   34.7281   50.2719 H   0  0  0  0  0  0  0  0  0  0  0  0
   62.6519   34.3245   46.2619 H   0  0  0  0  0  0  0  0  0  0  0  0
   61.7348   32.7728   46.3637 H   0  0  0  0  0  0  0  0  0  0  0  0
   60.6261   35.6103   46.5378 H   0  0  0  0  0  0  0  0  0  0  0  0
   60.3490   34.3484   45.2430 H   0  0  0  0  0  0  0  0  0  0  0  0
   57.6257   34.2637   44.8698 H   0  0  0  0  0  0  0  0  0  0  0  0
   56.4336   32.4578   43.6490 H   0  0  0  0  0  0  0  0  0  0  0  0
   54.5820   29.3450   45.2030 H   0  0  0  0  0  0  0  0  0  0  0  0
  1  2  1  0
  2  3  2  0
  3  4  1  0
  4  5  1  0
  5  6  1  0
  6  7  1  0
  7  8  1  0
  8  9  1  0
  9 10  1  0
  9 11  2  0
  9 12  2  0
  8 13  1  0
 13 14  1  0
  4 15  2  0
 15 16  1  0
 16 17  2  0
 17 18  1  0
 18 19  1  0
 18 20  2  0
 17  2  1  0
 14  5  1  0
  1 21  1  0
  1 22  1  0
  1 23  1  0
  3 24  1  0
  5 25  1  0
  6 26  1  0
  6 27  1  0
  7 28  1  0
  7 29  1  0
 10 30  1  0
 10 31  1  0
 10 32  1  0
 13 33  1  0
 13 34  1  0
 14 35  1  0
 14 36  1  0
 15 37  1  0
 16 38  1  0
 19 39  1  0
M  CHG  2   3   1  19  -1
M  END
>  <UniqueID>  (90) 
88

>  <SMILES>  (90) 
Cc1[nH+]c(C2CCN(S(C)(=O)=O)CC2)ccc1C([NH-])=O

>  <Energy>  (90) 
39.810864851101

>  <Genealogy>  (90) 
Cc1[nH+]c(C2CCN(S(C)(=O)=O)CC2)ccc1C([NH-])=O (protonated)
Cc1[nH+]c(C2CCN(S(C)(=O)=O)CC2)ccc1C([NH-])=O (3D coordinates assigned)
Cc1[nH+]c(C2CCN(S(C)(=O)=O)CC2)ccc1C([NH-])=O (nonaromatic ring conformer: 39.810864851101 kcal/mol)

>  <smiles>  (90) 
Cc1nc(C2CCN(S(C)(=O)=O)CC2)ccc1C(N)=O

>  <score_type>  (90) 
oracle

>  <origin>  (90) 
adg

>  <m_score__min__energy>  (90) 
-8.9700000000000006

>  <m_primary>  (90) 
energy

$$$$
90:0
     RDKit          3D

 37 39  0  0  0  0  0  0  0  0999 V2000
   56.5410   29.0730   52.2790 O   0  0  0  0  0  0  0  0  0  0  0  0
   55.7850   30.0720   52.1430 C   0  0  0  0  0  0  0  0  0  0  0  0
   54.3860   29.9670   52.4300 N   0  0  0  0  0  0  0  0  0  0  0  0
   53.3160   30.5780   51.6940 C   0  0  0  0  0  0  0  0  0  0  0  0
   52.7180   31.7830   52.1080 C   0  0  0  0  0  0  0  0  0  0  0  0
   51.6930   32.3560   51.3490 C   0  0  0  0  0  0  0  0  0  0  0  0
   51.2650   31.7440   50.1680 C   0  0  0  0  0  0  0  0  0  0  0  0
   50.2430   32.3230   49.4230 O   0  0  0  0  0  0  0  0  0  0  0  0
   51.8710   30.5560   49.7380 C   0  0  0  0  0  0  0  0  0  0  0  0
   51.3560   29.7770   48.2490 Cl  0  0  0  0  0  0  0  0  0  0  0  0
   52.8970   29.9820   50.4970 C   0  0  0  0  0  0  0  0  0  0  0  0
   56.2960   31.3020   51.6100 N   0  0  0  0  0  0  0  0  0  0  0  0
   57.6950   31.5970   51.4560 C   0  0  0  0  0  0  0  0  0  0  0  0
   58.3460   32.5300   52.2840 C   0  0  0  0  0  0  0  0  0  0  0  0
   59.7020   32.8170   52.0970 C   0  0  0  0  0  0  0  0  0  0  0  0
   60.4210   32.1880   51.0720 C   0  0  0  0  0  0  0  0  0  0  0  0
   62.1270   32.5530   50.8280 S   0  0  1  0  0  0  0  0  0  0  0  0
   62.7790   32.9150   52.1330 O   0  0  0  0  0  0  0  0  0  0  0  0
   62.9070   31.1790   50.1790 S   0  0  0  0  0  0  0  0  0  0  0  0
   62.3000   33.8810   49.7250 N   0  0  0  0  0  0  0  0  0  0  0  0
   61.6410   33.9680   48.6130 C   0  0  0  0  0  0  0  0  0  0  0  0
   62.1520   33.6410   47.4050 N   0  0  0  0  0  0  0  0  0  0  0  0
   61.2430   33.8390   46.4140 C   0  0  0  0  0  0  0  0  0  0  0  0
   60.0090   34.3250   46.8340 C   0  0  0  0  0  0  0  0  0  0  0  0
   60.0590   34.5120   48.5060 S   0  0  0  0  0  0  0  0  0  0  0  0
   59.7720   31.2720   50.2330 C   0  0  0  0  0  0  0  0  0  0  0  0
   58.4170   30.9870   50.4190 C   0  0  0  0  0  0  0  0  0  0  0  0
   53.0579   32.2753   53.0311 H   0  0  0  0  0  0  0  0  0  0  0  0
   51.2217   33.2922   51.6829 H   0  0  0  0  0  0  0  0  0  0  0  0
   53.3785   29.0554   50.1512 H   0  0  0  0  0  0  0  0  0  0  0  0
   55.6020   31.9910   51.2420 H   0  0  0  0  0  0  0  0  0  0  0  0
   57.7851   33.0367   53.0832 H   0  0  0  0  0  0  0  0  0  0  0  0
   60.2057   33.5389   52.7567 H   0  0  0  0  0  0  0  0  0  0  0  0
   61.4667   33.6303   45.3574 H   0  0  0  0  0  0  0  0  0  0  0  0
   59.1491   34.5485   46.1854 H   0  0  0  0  0  0  0  0  0  0  0  0
   60.3310   30.7761   49.4258 H   0  0  0  0  0  0  0  0  0  0  0  0
   57.9117   30.2781   49.7465 H   0  0  0  0  0  0  0  0  0  0  0  0
  1  2  2  0
  2  3  1  0
  3  4  1  0
  4  5  2  0
  5  6  1  0
  6  7  2  0
  7  8  1  0
  7  9  1  0
  9 10  1  0
  9 11  2  0
  2 12  1  0
 12 13  1  0
 13 14  2  0
 14 15  1  0
 15 16  2  0
 17 16  1  1
 17 18  2  0
 17 19  2  0
 17 20  1  0
 20 21  2  3
 21 22  1  0
 22 23  1  0
 23 24  2  0
 24 25  1  0
 16 26  1  0
 26 27  2  0
 11  4  1  0
 27 13  1  0
 25 21  1  0
  5 28  1  0
  6 29  1  0
 11 30  1  0
 12 31  1  0
 14 32  1  0
 15 33  1  0
 23 34  1  0
 24 35  1  0
 26 36  1  0
 27 37  1  0
M  CHG  3   3  -1   8  -1  22  -1
M  END
>  <UniqueID>  (91) 
89

>  <SMILES>  (91) 
O=C([N-]c1ccc([O-])c(Cl)c1)Nc1ccc([S@@](=O)(=S)N=c2[n-]ccs2)cc1

>  <Energy>  (91) 
78.87056792237645

>  <Genealogy>  (91) 
O=C([N-]c1ccc([O-])c(Cl)c1)Nc1ccc(S(=O)(=S)N=c2[n-]ccs2)cc1 (protonated)
O=C([N-]c1ccc([O-])c(Cl)c1)Nc1ccc([S@@](=O)(=S)N=c2[n-]ccs2)cc1 (chirality)
O=C([N-]c1ccc([O-])c(Cl)c1)Nc1ccc([S@@](=O)(=S)N=c2[n-]ccs2)cc1 (3D coordinates assigned)
O=C([N-]c1ccc([O-])c(Cl)c1)Nc1ccc([S@@](=O)(=S)N=c2[n-]ccs2)cc1 (optimized conformer: 78.87056792237645 kcal/mol)

>  <smiles>  (91) 
O=C(Nc1ccc(S(=O)(=S)N=c2[nH]ccs2)cc1)Nc1ccc(O)c(Cl)c1

>  <score_type>  (91) 
oracle

>  <origin>  (91) 
adg

>  <m_score__min__energy>  (91) 
-14.41

>  <m_primary>  (91) 
energy

$$$$
91:0
     RDKit          3D

 49 51  0  0  0  0  0  0  0  0999 V2000
   59.1846   26.5888   45.6194 H   0  0  0  0  0  0  0  0  0  0  0  0
   58.6540   26.7340   46.5720 C   0  0  0  0  0  0  0  0  0  0  0  0
   59.4360   27.2480   47.7120 C   0  0  0  0  0  0  0  0  0  0  0  0
   60.5240   26.7070   48.0510 O   0  0  0  0  0  0  0  0  0  0  0  0
   58.9190   28.3490   48.4660 N   0  0  0  0  0  0  0  0  0  0  0  0
   59.4180   29.7130   48.3370 C   0  0  0  0  0  0  0  0  0  0  0  0
   58.7072   30.4061   48.8106 H   0  0  0  0  0  0  0  0  0  0  0  0
   59.5255   29.9561   47.2696 H   0  0  0  0  0  0  0  0  0  0  0  0
   60.7810   29.8440   49.0180 C   0  0  0  0  0  0  0  0  0  0  0  0
   61.5708   29.7701   48.2560 H   0  0  0  0  0  0  0  0  0  0  0  0
   60.8779   29.0366   49.7587 H   0  0  0  0  0  0  0  0  0  0  0  0
   60.9390   31.4450   49.8860 S   0  0  0  0  0  0  0  0  0  0  0  0
   61.5750   32.3510   48.4640 C   0  0  0  0  0  0  0  0  0  0  0  0
   62.9570   32.5660   48.3760 C   0  0  0  0  0  0  0  0  0  0  0  0
   63.6276   32.1274   49.1296 H   0  0  0  0  0  0  0  0  0  0  0  0
   63.4880   33.3340   47.3370 C   0  0  0  0  0  0  0  0  0  0  0  0
   64.5741   33.4959   47.2731 H   0  0  0  0  0  0  0  0  0  0  0  0
   62.6420   33.8960   46.3800 C   0  0  0  0  0  0  0  0  0  0  0  0
   63.0603   34.5135   45.5715 H   0  0  0  0  0  0  0  0  0  0  0  0
   61.2640   33.6750   46.4480 C   0  0  0  0  0  0  0  0  0  0  0  0
   60.6002   34.1289   45.6974 H   0  0  0  0  0  0  0  0  0  0  0  0
   60.7220   32.8790   47.4660 C   0  0  0  0  0  0  0  0  0  0  0  0
   59.3040   32.6710   47.4870 N   0  0  0  0  0  0  0  0  0  0  0  0
   58.3720   33.3880   46.6750 C   0  0  0  0  0  0  0  0  0  0  0  0
   58.4530   34.6440   46.6190 O   0  0  0  0  0  0  0  0  0  0  0  0
   57.4430   32.6710   45.8440 N   0  0  0  0  0  0  0  0  0  0  0  0
   57.5780   31.4930   45.3020 C   0  0  0  0  0  0  0  0  0  0  0  0
   56.4740   30.8860   44.7890 N   0  0  0  0  0  0  0  0  0  0  0  0
   56.5330   29.6680   44.1930 C   0  0  0  0  0  0  0  0  0  0  0  0
   55.6211   29.2001   43.7936 H   0  0  0  0  0  0  0  0  0  0  0  0
   57.7630   29.0150   44.0920 C   0  0  0  0  0  0  0  0  0  0  0  0
   57.8600   27.7250   43.4670 C   0  0  0  0  0  0  0  0  0  0  0  0
   57.9380   26.6850   42.9650 N   0  0  0  0  0  0  0  0  0  0  0  0
   58.8770   29.6170   44.5820 N   0  0  0  0  0  0  0  0  0  0  0  0
   58.8210   30.8350   45.1810 C   0  0  0  0  0  0  0  0  0  0  0  0
   59.7370   31.3048   45.5687 H   0  0  0  0  0  0  0  0  0  0  0  0
   57.3470   26.4290   46.6030 C   0  0  0  0  0  0  0  0  0  0  0  0
   56.6907   27.0673   47.2128 H   0  0  0  0  0  0  0  0  0  0  0  0
   56.7230   25.3020   45.8810 C   0  0  0  0  0  0  0  0  0  0  0  0
   57.5120   24.1910   45.5450 C   0  0  0  0  0  0  0  0  0  0  0  0
   58.5815   24.1811   45.8022 H   0  0  0  0  0  0  0  0  0  0  0  0
   56.9450   23.0970   44.8850 C   0  0  0  0  0  0  0  0  0  0  0  0
   57.5722   22.2353   44.6129 H   0  0  0  0  0  0  0  0  0  0  0  0
   55.5840   23.0950   44.5700 C   0  0  0  0  0  0  0  0  0  0  0  0
   55.1427   22.2369   44.0418 H   0  0  0  0  0  0  0  0  0  0  0  0
   54.7840   24.1830   44.9260 C   0  0  0  0  0  0  0  0  0  0  0  0
   53.7113   24.1779   44.6823 H   0  0  0  0  0  0  0  0  0  0  0  0
   55.3430   25.2800   45.5920 C   0  0  0  0  0  0  0  0  0  0  0  0
   54.5190   26.3330   45.9770 O   0  0  0  0  0  0  0  0  0  0  0  0
  1  2  1  0
  2  3  1  0
  3  4  2  0
  3  5  1  0
  5  6  1  0
  6  7  1  0
  6  8  1  0
  6  9  1  0
  9 10  1  0
  9 11  1  0
  9 12  1  0
 12 13  1  0
 13 14  2  0
 14 15  1  0
 14 16  1  0
 16 17  1  0
 16 18  2  0
 18 19  1  0
 18 20  1  0
 20 21  1  0
 20 22  2  0
 22 23  1  0
 23 24  1  0
 24 25  2  0
 24 26  1  0
 26 27  2  3
 27 28  1  0
 28 29  1  0
 29 30  1  0
 29 31  2  0
 31 32  1  0
 32 33  3  0
 31 34  1  0
 34 35  2  0
 35 36  1  0
  2 37  2  0
 37 38  1  0
 37 39  1  0
 39 40  2  0
 40 41  1  0
 40 42  1  0
 42 43  1  0
 42 44  2  0
 44 45  1  0
 44 46  1  0
 46 47  1  0
 46 48  2  0
 48 49  1  0
 22 13  1  0
 35 27  1  0
 48 39  1  0
M  CHG  4   5  -1  23  -1  28  -1  49  -1
M  END
>  <UniqueID>  (92) 
90

>  <SMILES>  (92) 
N#Cc1c[n-]c(=NC(=O)[N-]c2ccccc2SCC[N-]C(=O)/C=C\c2ccccc2[O-])cn1

>  <Energy>  (92) 
66.24738621769923

>  <Genealogy>  (92) 
N#Cc1c[n-]c(=NC(=O)[N-]c2ccccc2SCC[N-]C(=O)C=Cc2ccccc2[O-])cn1 (protonated)
N#Cc1c[n-]c(=NC(=O)[N-]c2ccccc2SCC[N-]C(=O)/C=C\c2ccccc2[O-])cn1 (cis-trans isomerization)
N#Cc1c[n-]c(=NC(=O)[N-]c2ccccc2SCC[N-]C(=O)/C=C\c2ccccc2[O-])cn1 (3D coordinates assigned)
N#Cc1c[n-]c(=NC(=O)[N-]c2ccccc2SCC[N-]C(=O)/C=C\c2ccccc2[O-])cn1 (optimized conformer: 66.24738621769923 kcal/mol)

>  <smiles>  (92) 
N#Cc1c[nH]c(=NC(=O)Nc2ccccc2SCCNC(=O)C=Cc2ccccc2O)cn1

>  <score_type>  (92) 
oracle

>  <origin>  (92) 
adg

>  <m_score__min__energy>  (92) 
-15.449999999999999

>  <m_primary>  (92) 
energy

$$$$
