0:0
     RDKit          3D

 51 53  0  0  0  0  0  0  0  0999 V2000
   56.7000   34.5690   44.8560 O   0  0  0  0  0  0  0  0  0  0  0  0
   57.6130   33.7520   45.1490 C   0  0  0  0  0  0  0  0  0  0  0  0
   57.7800   32.4800   44.3550 C   0  0  0  0  0  0  0  0  0  0  0  0
   57.5240   31.2110   45.1780 C   0  0  0  0  0  0  0  0  0  0  0  0
   56.5430   30.3030   44.4820 C   0  0  0  0  0  0  0  0  0  0  0  0
   56.1080   30.6270   43.3440 O   0  0  0  0  0  0  0  0  0  0  0  0
   56.0140   29.1280   45.1150 N   0  0  0  0  0  0  0  0  0  0  0  0
   56.7920   28.0060   45.5510 C   0  0  0  0  0  0  0  0  0  0  0  0
   58.1870   28.1250   45.6110 C   0  0  0  0  0  0  0  0  0  0  0  0
   58.9700   27.0400   46.0240 C   0  0  0  0  0  0  0  0  0  0  0  0
   58.3590   25.8380   46.4020 C   0  0  0  0  0  0  0  0  0  0  0  0
   56.9650   25.7250   46.3790 C   0  0  0  0  0  0  0  0  0  0  0  0
   56.1780   26.8090   45.9710 C   0  0  0  0  0  0  0  0  0  0  0  0
   54.7920   26.7020   46.0110 O   0  0  0  0  0  0  0  0  0  0  0  0
   58.4730   34.0540   46.2560 N   0  0  0  0  0  0  0  0  0  0  0  0
   58.9430   33.0920   47.2530 C   0  0  0  0  0  0  0  0  0  0  0  0
   60.4480   33.0720   47.3100 C   0  0  0  0  0  0  0  0  0  0  0  0
   61.1970   33.8200   46.3880 C   0  0  0  0  0  0  0  0  0  0  0  0
   62.5900   33.8490   46.4720 C   0  0  0  0  0  0  0  0  0  0  0  0
   63.2480   33.1300   47.4740 C   0  0  0  0  0  0  0  0  0  0  0  0
   62.5150   32.3550   48.3880 C   0  0  0  0  0  0  0  0  0  0  0  0
   63.2160   31.6380   49.4750 C   0  0  0  0  0  0  0  0  0  0  0  0
   62.6600   30.6330   50.0010 O   0  0  0  0  0  0  0  0  0  0  0  0
   64.5080   32.0610   49.9490 N   0  0  0  0  0  0  0  0  0  0  0  0
   64.9800   33.4370   49.8930 C   0  0  0  0  0  0  0  0  0  0  0  0
   66.1340   33.5140   50.8850 C   0  0  0  0  0  0  0  0  0  0  0  0
   66.5560   32.0680   51.1400 C   0  0  0  0  0  0  0  0  0  0  0  0
   65.3490   31.2160   50.7780 C   0  0  0  0  0  0  0  0  0  0  0  0
   61.1140   32.3300   48.3000 C   0  0  0  0  0  0  0  0  0  0  0  0
   57.0720   32.4987   43.5133 H   0  0  0  0  0  0  0  0  0  0  0  0
   58.8261   32.4427   44.0170 H   0  0  0  0  0  0  0  0  0  0  0  0
   58.4743   30.6747   45.3166 H   0  0  0  0  0  0  0  0  0  0  0  0
   57.1007   31.5039   46.1501 H   0  0  0  0  0  0  0  0  0  0  0  0
   58.6686   29.0740   45.3327 H   0  0  0  0  0  0  0  0  0  0  0  0
   60.0658   27.1319   46.0515 H   0  0  0  0  0  0  0  0  0  0  0  0
   58.9751   24.9829   46.7169 H   0  0  0  0  0  0  0  0  0  0  0  0
   56.4858   24.7824   46.6821 H   0  0  0  0  0  0  0  0  0  0  0  0
   58.5486   33.3742   48.2403 H   0  0  0  0  0  0  0  0  0  0  0  0
   58.5878   32.0900   46.9706 H   0  0  0  0  0  0  0  0  0  0  0  0
   60.6841   34.3856   45.5961 H   0  0  0  0  0  0  0  0  0  0  0  0
   63.1713   34.4390   45.7481 H   0  0  0  0  0  0  0  0  0  0  0  0
   64.3448   33.1713   47.5471 H   0  0  0  0  0  0  0  0  0  0  0  0
   65.3281   33.6827   48.8789 H   0  0  0  0  0  0  0  0  0  0  0  0
   64.1816   34.1520   50.1405 H   0  0  0  0  0  0  0  0  0  0  0  0
   66.9696   34.0879   50.4578 H   0  0  0  0  0  0  0  0  0  0  0  0
   65.8372   34.0207   51.8151 H   0  0  0  0  0  0  0  0  0  0  0  0
   67.4161   31.8025   50.5078 H   0  0  0  0  0  0  0  0  0  0  0  0
   66.8630   31.9133   52.1849 H   0  0  0  0  0  0  0  0  0  0  0  0
   65.6638   30.3220   50.2197 H   0  0  0  0  0  0  0  0  0  0  0  0
   64.8156   30.8650   51.6737 H   0  0  0  0  0  0  0  0  0  0  0  0
   60.5332   31.7248   49.0116 H   0  0  0  0  0  0  0  0  0  0  0  0
  1  2  2  0
  2  3  1  0
  3  4  1  0
  4  5  1  0
  5  6  2  0
  5  7  1  0
  7  8  1  0
  8  9  2  0
  9 10  1  0
 10 11  2  0
 11 12  1  0
 12 13  2  0
 13 14  1  0
  2 15  1  0
 15 16  1  0
 16 17  1  0
 17 18  2  0
 18 19  1  0
 19 20  2  0
 20 21  1  0
 21 22  1  0
 22 23  2  0
 22 24  1  0
 24 25  1  0
 25 26  1  0
 26 27  1  0
 27 28  1  0
 21 29  2  0
 13  8  1  0
 29 17  1  0
 28 24  1  0
  3 30  1  0
  3 31  1  0
  4 32  1  0
  4 33  1  0
  9 34  1  0
 10 35  1  0
 11 36  1  0
 12 37  1  0
 16 38  1  0
 16 39  1  0
 18 40  1  0
 19 41  1  0
 20 42  1  0
 25 43  1  0
 25 44  1  0
 26 45  1  0
 26 46  1  0
 27 47  1  0
 27 48  1  0
 28 49  1  0
 28 50  1  0
 29 51  1  0
M  CHG  3   7  -1  14  -1  15  -1
M  END
>  <UniqueID>  (1) 
1

>  <SMILES>  (1) 
O=C(CCC(=O)[N-]c1ccccc1[O-])[N-]Cc1cccc(C(=O)N2CCCC2)c1

>  <Energy>  (1) 
57.78937850635282

>  <Genealogy>  (1) 
O=C(CCC(=O)[N-]c1ccccc1[O-])[N-]Cc1cccc(C(=O)N2CCCC2)c1 (protonated)
O=C(CCC(=O)[N-]c1ccccc1[O-])[N-]Cc1cccc(C(=O)N2CCCC2)c1 (3D coordinates assigned)
O=C(CCC(=O)[N-]c1ccccc1[O-])[N-]Cc1cccc(C(=O)N2CCCC2)c1 (nonaromatic ring conformer: 57.78937850635282 kcal/mol)

>  <smiles>  (1) 
O=C(CCC(=O)Nc1ccccc1O)NCc1cccc(C(=O)N2CCCC2)c1

>  <score_type>  (1) 
oracle

>  <origin>  (1) 
adg

>  <m_score__min__energy>  (1) 
-16.399999999999999

>  <m_primary>  (1) 
energy

$$$$
1:0
     RDKit          3D

 59 63  0  0  0  0  0  0  0  0999 V2000
   56.9520   29.1680   52.3550 O   0  0  0  0  0  0  0  0  0  0  0  0
   58.0800   29.5590   52.7590 C   0  0  0  0  0  0  0  0  0  0  0  0
   59.0540   28.5520   53.3130 C   0  0  0  0  0  0  0  0  0  0  0  0
   60.4710   28.9370   52.9750 C   0  0  0  0  0  0  0  0  0  0  0  0
   61.1410   28.3110   51.9100 C   0  0  0  0  0  0  0  0  0  0  0  0
   62.4420   28.6960   51.5710 C   0  0  0  0  0  0  0  0  0  0  0  0
   63.0840   29.7130   52.2840 C   0  0  0  0  0  0  0  0  0  0  0  0
   64.3800   30.0850   51.9350 O   0  0  0  0  0  0  0  0  0  0  0  0
   62.4160   30.3490   53.3390 C   0  0  0  0  0  0  0  0  0  0  0  0
   61.1130   29.9680   53.6800 C   0  0  0  0  0  0  0  0  0  0  0  0
   58.4070   30.9490   52.6460 N   0  0  0  0  0  0  0  0  0  0  0  0
   58.6770   31.6740   51.4380 C   0  0  0  0  0  0  0  0  0  0  0  0
   59.3770   32.8920   51.4460 C   0  0  0  0  0  0  0  0  0  0  0  0
   59.5940   33.5890   50.2540 C   0  0  0  0  0  0  0  0  0  0  0  0
   59.0910   33.0950   49.0370 C   0  0  0  0  0  0  0  0  0  0  0  0
   59.3290   33.8370   47.7750 C   0  0  0  0  0  0  0  0  0  0  0  0
   59.3230   35.0970   47.7810 O   0  0  0  0  0  0  0  0  0  0  0  0
   59.6520   33.1590   46.5530 N   0  0  0  0  0  0  0  0  0  0  0  0
   59.0890   32.0800   46.0760 C   0  0  0  0  0  0  0  0  0  0  0  0
   57.8560   32.0940   45.2490 C   0  0  0  0  0  0  0  0  0  0  0  0
   57.4530   33.1460   44.6870 O   0  0  0  0  0  0  0  0  0  0  0  0
   57.1540   30.8710   45.0280 N   0  0  0  0  0  0  0  0  0  0  0  0
   57.5690   29.6440   45.6390 C   0  0  0  0  0  0  0  0  0  0  0  0
   56.7140   28.5340   45.6030 C   0  0  0  0  0  0  0  0  0  0  0  0
   55.5170   28.5940   44.8990 O   0  0  0  0  0  0  0  0  0  0  0  0
   57.0520   27.3680   46.2930 C   0  0  0  0  0  0  0  0  0  0  0  0
   58.2250   27.3150   47.0460 C   0  0  0  0  0  0  0  0  0  0  0  0
   59.0890   28.4140   47.0780 C   0  0  0  0  0  0  0  0  0  0  0  0
   58.8060   29.5690   46.3210 C   0  0  0  0  0  0  0  0  0  0  0  0
   59.7200   30.7550   46.3030 C   0  0  0  0  0  0  0  0  0  0  0  0
   61.0680   30.6780   46.4030 C   0  0  0  0  0  0  0  0  0  0  0  0
   61.8860   31.2630   47.4860 C   0  0  0  0  0  0  0  0  0  0  0  0
   62.9530   32.1140   47.1550 C   0  0  0  0  0  0  0  0  0  0  0  0
   63.7710   32.6420   48.1600 C   0  0  0  0  0  0  0  0  0  0  0  0
   63.5440   32.3070   49.4990 C   0  0  0  0  0  0  0  0  0  0  0  0
   64.3620   32.8260   50.4950 O   0  0  0  0  0  0  0  0  0  0  0  0
   62.4960   31.4420   49.8330 C   0  0  0  0  0  0  0  0  0  0  0  0
   61.6780   30.9120   48.8320 C   0  0  0  0  0  0  0  0  0  0  0  0
   58.3730   31.8850   49.0380 C   0  0  0  0  0  0  0  0  0  0  0  0
   58.1610   31.1890   50.2310 C   0  0  0  0  0  0  0  0  0  0  0  0
   58.9435   28.5070   54.4065 H   0  0  0  0  0  0  0  0  0  0  0  0
   58.8389   27.5702   52.8660 H   0  0  0  0  0  0  0  0  0  0  0  0
   60.6398   27.5145   51.3404 H   0  0  0  0  0  0  0  0  0  0  0  0
   62.9622   28.1968   50.7402 H   0  0  0  0  0  0  0  0  0  0  0  0
   64.5720   30.9630   51.4670 H   0  0  0  0  0  0  0  0  0  0  0  0
   62.9174   31.1506   53.9012 H   0  0  0  0  0  0  0  0  0  0  0  0
   60.5903   30.4777   54.5028 H   0  0  0  0  0  0  0  0  0  0  0  0
   59.7562   33.2992   52.3949 H   0  0  0  0  0  0  0  0  0  0  0  0
   60.1623   34.5307   50.2679 H   0  0  0  0  0  0  0  0  0  0  0  0
   56.3919   26.4895   46.2426 H   0  0  0  0  0  0  0  0  0  0  0  0
   58.4709   26.4068   47.6158 H   0  0  0  0  0  0  0  0  0  0  0  0
   59.9964   28.3770   47.6986 H   0  0  0  0  0  0  0  0  0  0  0  0
   61.6004   30.1329   45.6096 H   0  0  0  0  0  0  0  0  0  0  0  0
   63.1464   32.3664   46.1020 H   0  0  0  0  0  0  0  0  0  0  0  0
   64.5944   33.3221   47.8965 H   0  0  0  0  0  0  0  0  0  0  0  0
   62.3158   31.1788   50.8857 H   0  0  0  0  0  0  0  0  0  0  0  0
   60.8677   30.2171   49.0978 H   0  0  0  0  0  0  0  0  0  0  0  0
   57.9760   31.4843   48.0936 H   0  0  0  0  0  0  0  0  0  0  0  0
   57.5840   30.2525   50.2213 H   0  0  0  0  0  0  0  0  0  0  0  0
  1  2  2  0
  2  3  1  0
  3  4  1  0
  4  5  2  0
  5  6  1  0
  6  7  2  0
  7  8  1  0
  7  9  1  0
  9 10  2  0
  2 11  1  0
 11 12  1  0
 12 13  2  0
 13 14  1  0
 14 15  2  0
 15 16  1  0
 16 17  2  0
 16 18  1  0
 18 19  2  3
 19 20  1  0
 20 21  2  0
 20 22  1  0
 22 23  1  0
 23 24  2  0
 24 25  1  0
 24 26  1  0
 26 27  2  0
 27 28  1  0
 28 29  2  0
 29 30  1  0
 30 31  2  3
 31 32  1  0
 32 33  2  0
 33 34  1  0
 34 35  2  0
 35 36  1  0
 35 37  1  0
 37 38  2  0
 15 39  1  0
 39 40  2  0
 10  4  1  0
 40 12  1  0
 30 19  1  0
 38 32  1  0
 29 23  1  0
  3 41  1  0
  3 42  1  0
  5 43  1  0
  6 44  1  0
  8 45  1  0
  9 46  1  0
 10 47  1  0
 13 48  1  0
 14 49  1  0
 26 50  1  0
 27 51  1  0
 28 52  1  0
 31 53  1  0
 33 54  1  0
 34 55  1  0
 37 56  1  0
 38 57  1  0
 39 58  1  0
 40 59  1  0
M  CHG  4  11  -1  22  -1  25  -1  36  -1
M  END
>  <UniqueID>  (2) 
2

>  <SMILES>  (2) 
O=C(Cc1ccc(O)cc1)[N-]c1ccc(C(=O)N=C2C(=O)[N-]c3c([O-])cccc3C2=Cc2ccc([O-])cc2)cc1

>  <Energy>  (2) 
97.27704253686932

>  <Genealogy>  (2) 
O=C(Cc1ccc(O)cc1)[N-]c1ccc(C(=O)N=C2C(=O)[N-]c3c([O-])cccc3C2=Cc2ccc([O-])cc2)cc1 (protonated)
O=C(Cc1ccc(O)cc1)[N-]c1ccc(C(=O)N=C2C(=O)[N-]c3c([O-])cccc3C2=Cc2ccc([O-])cc2)cc1 (3D coordinates assigned)
O=C(Cc1ccc(O)cc1)[N-]c1ccc(C(=O)N=C2C(=O)[N-]c3c([O-])cccc3C2=Cc2ccc([O-])cc2)cc1 (nonaromatic ring conformer: 97.27704253686932 kcal/mol)

>  <smiles>  (2) 
O=C(Cc1ccc(O)cc1)Nc1ccc(C(=O)N=C2C(=O)Nc3c(O)cccc3C2=Cc2ccc(O)cc2)cc1

>  <score_type>  (2) 
oracle

>  <origin>  (2) 
adg

>  <m_score__min__energy>  (2) 
-17.280000000000001

>  <m_primary>  (2) 
energy

$$$$
2:0
     RDKit          3D

 27 29  0  0  0  0  0  0  0  0999 V2000
   54.0599   28.8001   52.2614 H   0  0  0  0  0  0  0  0  0  0  0  0
   54.0210   29.8990   52.2920 C   0  0  0  0  0  0  0  0  0  0  0  0
   54.9680   30.5420   52.9940 C   0  0  0  0  0  0  0  0  0  0  0  0
   54.7518   30.8010   54.0410 H   0  0  0  0  0  0  0  0  0  0  0  0
   56.2900   30.9230   52.4370 C   0  0  0  0  0  0  0  0  0  0  0  0
   57.1610   29.8910   51.9960 C   0  0  0  0  0  0  0  0  0  0  0  0
   56.8392   28.8415   52.0670 H   0  0  0  0  0  0  0  0  0  0  0  0
   58.4290   30.1940   51.4700 C   0  0  0  0  0  0  0  0  0  0  0  0
   59.1028   29.3986   51.1188 H   0  0  0  0  0  0  0  0  0  0  0  0
   58.8040   31.5310   51.4080 C   0  0  0  0  0  0  0  0  0  0  0  0
   57.9890   32.5260   51.8370 C   0  0  0  0  0  0  0  0  0  0  0  0
   56.7250   32.2710   52.3630 C   0  0  0  0  0  0  0  0  0  0  0  0
   56.0817   33.0924   52.7115 H   0  0  0  0  0  0  0  0  0  0  0  0
   58.6190   33.7430   51.6650 O   0  0  0  0  0  0  0  0  0  0  0  0
   59.9100   33.4970   51.0890 C   0  0  0  0  0  0  0  0  0  0  0  0
   59.9973   33.9923   50.1107 H   0  0  0  0  0  0  0  0  0  0  0  0
   60.7233   33.8911   51.7160 H   0  0  0  0  0  0  0  0  0  0  0  0
   59.9870   32.0720   50.9410 O   0  0  0  0  0  0  0  0  0  0  0  0
   52.9270   30.5750   51.5560 C   0  0  0  0  0  0  0  0  0  0  0  0
   52.3940   31.7020   52.1010 N   0  0  0  0  0  0  0  0  0  0  0  0
   51.3950   32.3860   51.4860 C   0  0  0  0  0  0  0  0  0  0  0  0
   50.9210   33.4220   52.0210 O   0  0  0  0  0  0  0  0  0  0  0  0
   50.9110   31.9550   50.2940 N   0  0  0  0  0  0  0  0  0  0  0  0
   51.4130   30.8430   49.6990 C   0  0  0  0  0  0  0  0  0  0  0  0
   50.9530   30.4650   48.5900 O   0  0  0  0  0  0  0  0  0  0  0  0
   52.4400   30.1250   50.3150 C   0  0  0  0  0  0  0  0  0  0  0  0
   52.8597   29.2261   49.8399 H   0  0  0  0  0  0  0  0  0  0  0  0
  1  2  1  0
  2  3  2  0
  3  4  1  0
  3  5  1  0
  5  6  2  0
  6  7  1  0
  6  8  1  0
  8  9  1  0
  8 10  2  0
 10 11  1  0
 11 12  2  0
 12 13  1  0
 11 14  1  0
 14 15  1  0
 15 16  1  0
 15 17  1  0
 15 18  1  0
  2 19  1  0
 19 20  1  0
 20 21  1  0
 21 22  2  0
 21 23  1  0
 23 24  1  0
 24 25  2  0
 24 26  1  0
 26 27  1  0
 12  5  1  0
 26 19  2  0
 18 10  1  0
M  CHG  2  20  -1  23  -1
M  END
>  <UniqueID>  (3) 
3

>  <SMILES>  (3) 
O=c1cc(/C=C/c2ccc3c(c2)OCO3)[n-]c(=O)[n-]1

>  <Energy>  (3) 
62.96885146860598

>  <Genealogy>  (3) 
O=c1cc(C=Cc2ccc3c(c2)OCO3)[n-]c(=O)[n-]1 (protonated)
O=c1cc(/C=C/c2ccc3c(c2)OCO3)[n-]c(=O)[n-]1 (cis-trans isomerization)
O=c1cc(/C=C/c2ccc3c(c2)OCO3)[n-]c(=O)[n-]1 (3D coordinates assigned)
O=c1cc(/C=C/c2ccc3c(c2)OCO3)[n-]c(=O)[n-]1 (nonaromatic ring conformer: 62.96885146860598 kcal/mol)

>  <smiles>  (3) 
O=c1cc(C=Cc2ccc3c(c2)OCO3)[nH]c(=O)[nH]1

>  <score_type>  (3) 
oracle

>  <origin>  (3) 
adg

>  <m_score__min__energy>  (3) 
-10.93

>  <m_primary>  (3) 
energy

$$$$
3:0
     RDKit          3D

 72 76  0  0  0  0  0  0  0  0999 V2000
   60.6600   34.3530   48.1480 O   0  0  0  0  0  0  0  0  0  0  0  0
   59.6380   34.0220   48.8110 C   0  0  0  0  0  0  0  0  0  0  0  0
   59.6470   34.1480   50.3100 C   0  0  0  0  0  0  0  0  0  0  0  0
   58.8210   33.0620   50.9510 C   0  0  0  0  0  0  0  0  0  0  0  0
   58.1300   33.3020   52.1500 C   0  0  0  0  0  0  0  0  0  0  0  0
   57.4250   32.2690   52.7730 C   0  0  0  0  0  0  0  0  0  0  0  0
   57.4290   30.9830   52.2240 C   0  0  0  0  0  0  0  0  0  0  0  0
   58.1370   30.7260   51.0370 C   0  0  0  0  0  0  0  0  0  0  0  0
   58.2490   29.4050   50.4920 N   0  0  0  0  0  0  0  0  0  0  0  0
   58.9000   29.0930   49.2570 C   0  0  0  0  0  0  0  0  0  0  0  0
   58.2080   28.7940   48.2460 O   0  0  0  0  0  0  0  0  0  0  0  0
   60.4070   29.0730   49.1670 C   0  0  0  0  0  0  0  0  0  0  0  0
   60.9320   29.8240   47.9150 C   0  0  0  0  0  0  0  0  0  0  0  0
   61.3440   31.2620   48.2590 C   0  0  0  0  0  0  0  0  0  0  0  0
   62.4490   31.3020   49.2510 N   0  0  0  0  0  0  0  0  0  0  0  0
   62.4880   32.6180   49.9240 C   0  0  0  0  0  0  0  0  0  0  0  0
   63.8930   32.9560   50.3510 C   0  0  0  0  0  0  0  0  0  0  0  0
   64.1260   33.9180   51.3500 C   0  0  0  0  0  0  0  0  0  0  0  0
   65.4340   34.2110   51.7540 C   0  0  0  0  0  0  0  0  0  0  0  0
   66.5130   33.5520   51.1630 C   0  0  0  0  0  0  0  0  0  0  0  0
   66.2890   32.5960   50.1680 C   0  0  0  0  0  0  0  0  0  0  0  0
   64.9860   32.3000   49.7600 C   0  0  0  0  0  0  0  0  0  0  0  0
   62.4330   30.1760   50.2250 C   0  0  0  0  0  0  0  0  0  0  0  0
   61.0200   29.6300   50.4700 C   0  0  0  0  0  0  0  0  0  0  0  0
   58.8080   31.7720   50.3950 C   0  0  0  0  0  0  0  0  0  0  0  0
   58.5150   33.4250   48.1460 N   0  0  0  0  0  0  0  0  0  0  0  0
   58.4180   33.3330   46.7160 C   0  0  0  0  0  0  0  0  0  0  0  0
   58.8440   34.3880   45.8910 C   0  0  0  0  0  0  0  0  0  0  0  0
   58.7570   34.2720   44.5010 C   0  0  0  0  0  0  0  0  0  0  0  0
   58.2510   33.1070   43.9230 C   0  0  0  0  0  0  0  0  0  0  0  0
   57.8190   32.0410   44.7330 C   0  0  0  0  0  0  0  0  0  0  0  0
   57.2900   30.7940   44.1340 C   0  0  0  0  0  0  0  0  0  0  0  0
   56.6050   30.8680   43.0770 O   0  0  0  0  0  0  0  0  0  0  0  0
   57.5400   29.4590   44.7320 C   0  0  0  0  0  0  0  0  0  0  0  0
   58.8650   29.0140   44.8900 C   0  0  0  0  0  0  0  0  0  0  0  0
   59.1310   27.7500   45.4300 C   0  0  0  0  0  0  0  0  0  0  0  0
   58.0790   26.9160   45.8120 C   0  0  0  0  0  0  0  0  0  0  0  0
   56.7580   27.3380   45.6470 C   0  0  0  0  0  0  0  0  0  0  0  0
   56.4800   28.5980   45.1000 C   0  0  0  0  0  0  0  0  0  0  0  0
   55.1530   28.9680   44.9000 O   0  0  0  0  0  0  0  0  0  0  0  0
   57.8790   32.1780   46.1310 C   0  0  0  0  0  0  0  0  0  0  0  0
   60.6833   34.0713   50.6707 H   0  0  0  0  0  0  0  0  0  0  0  0
   59.2142   35.1222   50.5813 H   0  0  0  0  0  0  0  0  0  0  0  0
   58.1439   34.3058   52.5997 H   0  0  0  0  0  0  0  0  0  0  0  0
   56.8649   32.4681   53.6985 H   0  0  0  0  0  0  0  0  0  0  0  0
   56.8776   30.1715   52.7214 H   0  0  0  0  0  0  0  0  0  0  0  0
   60.7272   28.0272   49.0493 H   0  0  0  0  0  0  0  0  0  0  0  0
   61.8048   29.2872   47.5150 H   0  0  0  0  0  0  0  0  0  0  0  0
   60.1240   29.8633   47.1696 H   0  0  0  0  0  0  0  0  0  0  0  0
   61.6742   31.7666   47.3390 H   0  0  0  0  0  0  0  0  0  0  0  0
   60.4730   31.7688   48.7000 H   0  0  0  0  0  0  0  0  0  0  0  0
   62.1262   33.3900   49.2289 H   0  0  0  0  0  0  0  0  0  0  0  0
   61.8468   32.5779   50.8169 H   0  0  0  0  0  0  0  0  0  0  0  0
   63.2780   34.4418   51.8153 H   0  0  0  0  0  0  0  0  0  0  0  0
   65.6115   34.9616   52.5383 H   0  0  0  0  0  0  0  0  0  0  0  0
   67.5402   33.7850   51.4803 H   0  0  0  0  0  0  0  0  0  0  0  0
   67.1405   32.0756   49.7053 H   0  0  0  0  0  0  0  0  0  0  0  0
   64.8151   31.5506   48.9731 H   0  0  0  0  0  0  0  0  0  0  0  0
   63.0624   29.3629   49.8343 H   0  0  0  0  0  0  0  0  0  0  0  0
   62.8141   30.5582   51.1835 H   0  0  0  0  0  0  0  0  0  0  0  0
   61.0706   28.8239   51.2168 H   0  0  0  0  0  0  0  0  0  0  0  0
   60.3851   30.4521   50.8319 H   0  0  0  0  0  0  0  0  0  0  0  0
   59.3305   31.5827   49.4457 H   0  0  0  0  0  0  0  0  0  0  0  0
   57.8330   32.8800   48.7220 H   0  0  0  0  0  0  0  0  0  0  0  0
   59.2470   35.3075   46.3405 H   0  0  0  0  0  0  0  0  0  0  0  0
   59.0887   35.1022   43.8601 H   0  0  0  0  0  0  0  0  0  0  0  0
   58.1896   33.0217   42.8280 H   0  0  0  0  0  0  0  0  0  0  0  0
   59.6988   29.6643   44.5869 H   0  0  0  0  0  0  0  0  0  0  0  0
   60.1710   27.4135   45.5535 H   0  0  0  0  0  0  0  0  0  0  0  0
   58.2904   25.9263   46.2430 H   0  0  0  0  0  0  0  0  0  0  0  0
   55.9312   26.6778   45.9480 H   0  0  0  0  0  0  0  0  0  0  0  0
   57.4988   31.3700   46.7733 H   0  0  0  0  0  0  0  0  0  0  0  0
  1  2  2  0
  2  3  1  0
  3  4  1  0
  4  5  2  0
  5  6  1  0
  6  7  2  0
  7  8  1  0
  8  9  1  0
  9 10  1  0
 10 11  2  0
 10 12  1  0
 12 13  1  0
 13 14  1  0
 14 15  1  0
 15 16  1  0
 16 17  1  0
 17 18  2  0
 18 19  1  0
 19 20  2  0
 20 21  1  0
 21 22  2  0
 15 23  1  0
 23 24  1  0
  8 25  2  0
  2 26  1  0
 26 27  1  0
 27 28  2  0
 28 29  1  0
 29 30  2  0
 30 31  1  0
 31 32  1  0
 32 33  2  0
 32 34  1  0
 34 35  2  0
 35 36  1  0
 36 37  2  0
 37 38  1  0
 38 39  2  0
 39 40  1  0
 31 41  2  0
 25  4  1  0
 41 27  1  0
 24 12  1  0
 39 34  1  0
 22 17  1  0
  3 42  1  0
  3 43  1  0
  5 44  1  0
  6 45  1  0
  7 46  1  0
 12 47  1  0
 13 48  1  0
 13 49  1  0
 14 50  1  0
 14 51  1  0
 16 52  1  0
 16 53  1  0
 18 54  1  0
 19 55  1  0
 20 56  1  0
 21 57  1  0
 22 58  1  0
 23 59  1  0
 23 60  1  0
 24 61  1  0
 24 62  1  0
 25 63  1  0
 26 64  1  0
 28 65  1  0
 29 66  1  0
 30 67  1  0
 35 68  1  0
 36 69  1  0
 37 70  1  0
 38 71  1  0
 41 72  1  0
M  CHG  2   9  -1  40  -1
M  END
>  <UniqueID>  (4) 
4

>  <SMILES>  (4) 
O=C(Cc1cccc([N-]C(=O)C2CCN(Cc3ccccc3)CC2)c1)Nc1cccc(C(=O)c2ccccc2[O-])c1

>  <Energy>  (4) 
103.65499862949328

>  <Genealogy>  (4) 
O=C(Cc1cccc([N-]C(=O)C2CCN(Cc3ccccc3)CC2)c1)Nc1cccc(C(=O)c2ccccc2[O-])c1 (protonated)
O=C(Cc1cccc([N-]C(=O)C2CCN(Cc3ccccc3)CC2)c1)Nc1cccc(C(=O)c2ccccc2[O-])c1 (3D coordinates assigned)
O=C(Cc1cccc([N-]C(=O)C2CCN(Cc3ccccc3)CC2)c1)Nc1cccc(C(=O)c2ccccc2[O-])c1 (nonaromatic ring conformer: 103.65499862949328 kcal/mol)

>  <smiles>  (4) 
O=C(Cc1cccc(NC(=O)C2CCN(Cc3ccccc3)CC2)c1)Nc1cccc(C(=O)c2ccccc2O)c1

>  <score_type>  (4) 
oracle

>  <origin>  (4) 
adg

>  <m_score__min__energy>  (4) 
-16.73

>  <m_primary>  (4) 
energy

$$$$
4:0
     RDKit          3D

 28 29  0  0  0  0  0  0  0  0999 V2000
   56.6080   21.2580   43.8470 C   0  0  0  0  0  0  0  0  0  0  0  0
   55.7870   22.3190   44.3230 O   0  0  0  0  0  0  0  0  0  0  0  0
   56.2710   23.5650   44.7500 C   0  0  0  0  0  0  0  0  0  0  0  0
   57.6410   23.8840   44.7460 C   0  0  0  0  0  0  0  0  0  0  0  0
   58.0730   25.1390   45.1810 C   0  0  0  0  0  0  0  0  0  0  0  0
   57.1500   26.0970   45.6320 C   0  0  0  0  0  0  0  0  0  0  0  0
   57.6400   27.4160   46.0950 C   0  0  0  0  0  0  0  0  0  0  0  0
   58.1480   27.5840   47.6460 S   0  0  0  0  0  0  0  0  0  0  0  0
   57.6970   28.5640   45.1570 C   0  0  0  0  0  0  0  0  0  0  0  0
   58.7870   29.1250   44.4970 C   0  0  0  0  0  0  0  0  0  0  0  0
   60.2160   28.6830   44.5500 C   0  0  0  0  0  0  0  0  0  0  0  0
   58.3550   30.1630   43.7520 N   0  0  0  0  0  0  0  0  0  0  0  0
   57.0690   30.2730   43.9070 O   0  0  0  0  0  0  0  0  0  0  0  0
   56.6380   29.3470   44.7270 C   0  0  0  0  0  0  0  0  0  0  0  0
   55.4340   29.2230   45.0740 O   0  0  0  0  0  0  0  0  0  0  0  0
   55.7770   25.7790   45.6260 C   0  0  0  0  0  0  0  0  0  0  0  0
   54.8270   26.7120   46.0290 O   0  0  0  0  0  0  0  0  0  0  0  0
   55.3500   24.5200   45.1920 C   0  0  0  0  0  0  0  0  0  0  0  0
   57.0317   20.7104   44.7018 H   0  0  0  0  0  0  0  0  0  0  0  0
   56.0030   20.5722   43.2357 H   0  0  0  0  0  0  0  0  0  0  0  0
   57.4237   21.6715   43.2357 H   0  0  0  0  0  0  0  0  0  0  0  0
   58.3751   23.1420   44.3989 H   0  0  0  0  0  0  0  0  0  0  0  0
   59.1463   25.3795   45.1703 H   0  0  0  0  0  0  0  0  0  0  0  0
   60.5310   28.5856   45.5994 H   0  0  0  0  0  0  0  0  0  0  0  0
   60.3182   27.7113   44.0448 H   0  0  0  0  0  0  0  0  0  0  0  0
   60.8490   29.4273   44.0448 H   0  0  0  0  0  0  0  0  0  0  0  0
   58.9350   30.7810   43.1430 H   0  0  0  0  0  0  0  0  0  0  0  0
   54.2770   24.2780   45.1984 H   0  0  0  0  0  0  0  0  0  0  0  0
  1  2  1  0
  2  3  1  0
  3  4  2  0
  4  5  1  0
  5  6  2  0
  6  7  1  0
  7  8  2  0
  7  9  1  0
  9 10  2  0
 10 11  1  0
 10 12  1  0
 12 13  1  0
 13 14  1  0
 14 15  2  0
  6 16  1  0
 16 17  1  0
 16 18  2  0
 18  3  1  0
 14  9  1  0
  1 19  1  0
  1 20  1  0
  1 21  1  0
  4 22  1  0
  5 23  1  0
 11 24  1  0
 11 25  1  0
 11 26  1  0
 12 27  1  0
 18 28  1  0
M  CHG  1  17  -1
M  END
>  <UniqueID>  (5) 
5

>  <SMILES>  (5) 
COc1ccc(C(=S)c2c(C)[nH]oc2=O)c([O-])c1

>  <Energy>  (5) 
69.29687188288123

>  <Genealogy>  (5) 
COc1ccc(C(=S)c2c(C)[nH]oc2=O)c([O-])c1 (protonated)
COc1ccc(C(=S)c2c(C)[nH]oc2=O)c([O-])c1 (3D coordinates assigned)
COc1ccc(C(=S)c2c(C)[nH]oc2=O)c([O-])c1 (optimized conformer: 69.29687188288123 kcal/mol)

>  <smiles>  (5) 
COc1ccc(C(=S)c2c(C)[nH]oc2=O)c(O)c1

>  <score_type>  (5) 
oracle

>  <origin>  (5) 
adg

>  <m_score__min__energy>  (5) 
-10.26

>  <m_primary>  (5) 
energy

$$$$
5:0
     RDKit          3D

 51 53  0  0  0  0  0  0  0  0999 V2000
   50.9000   32.3330   49.6540 O   0  0  0  0  0  0  0  0  0  0  0  0
   51.3890   32.1650   50.8010 C   0  0  0  0  0  0  0  0  0  0  0  0
   51.0510   33.0400   51.8270 O   0  0  0  0  0  0  0  0  0  0  0  0
   52.3100   31.0570   51.0650 C   0  0  0  0  0  0  0  0  0  0  0  0
   53.5190   31.2940   51.4740 N   0  0  0  0  0  0  0  0  0  0  0  0
   54.1160   30.6640   52.6150 C   0  0  0  0  0  0  0  0  0  0  0  0
   53.6560   30.8570   53.7750 O   0  0  0  0  0  0  0  0  0  0  0  0
   55.3280   29.8070   52.4330 C   0  0  0  0  0  0  0  0  0  0  0  0
   56.5860   30.5560   52.8810 C   0  0  0  0  0  0  0  0  0  0  0  0
   57.5540   30.6940   51.7360 C   0  0  0  0  0  0  0  0  0  0  0  0
   57.4200   31.7460   50.8190 C   0  0  0  0  0  0  0  0  0  0  0  0
   58.2980   31.8560   49.7370 C   0  0  0  0  0  0  0  0  0  0  0  0
   59.3260   30.9140   49.5550 C   0  0  0  0  0  0  0  0  0  0  0  0
   60.2490   31.0340   48.4020 C   0  0  0  0  0  0  0  0  0  0  0  0
   61.4880   31.1220   48.6080 O   0  0  0  0  0  0  0  0  0  0  0  0
   59.7710   31.1040   47.0510 N   0  0  0  0  0  0  0  0  0  0  0  0
   59.2210   32.2660   46.4080 C   0  0  0  0  0  0  0  0  0  0  0  0
   59.7020   33.5460   46.7400 C   0  0  0  0  0  0  0  0  0  0  0  0
   59.1550   34.6850   46.1510 C   0  0  0  0  0  0  0  0  0  0  0  0
   58.1110   34.5650   45.2360 C   0  0  0  0  0  0  0  0  0  0  0  0
   57.6100   33.3050   44.9070 C   0  0  0  0  0  0  0  0  0  0  0  0
   58.1520   32.1380   45.4840 C   0  0  0  0  0  0  0  0  0  0  0  0
   57.5950   30.8120   45.0960 C   0  0  0  0  0  0  0  0  0  0  0  0
   56.3640   30.6820   44.8510 O   0  0  0  0  0  0  0  0  0  0  0  0
   58.4330   29.6470   45.1210 N   0  0  0  0  0  0  0  0  0  0  0  0
   58.2880   28.5410   45.8000 C   0  0  0  0  0  0  0  0  0  0  0  0
   59.3970   28.0160   46.3910 N   0  0  0  0  0  0  0  0  0  0  0  0
   59.3660   26.8800   47.1340 C   0  0  0  0  0  0  0  0  0  0  0  0
   58.1650   26.1960   47.3140 C   0  0  0  0  0  0  0  0  0  0  0  0
   57.0100   26.6810   46.7040 C   0  0  0  0  0  0  0  0  0  0  0  0
   57.0540   27.8450   45.9240 C   0  0  0  0  0  0  0  0  0  0  0  0
   55.9030   28.2540   45.2540 O   0  0  0  0  0  0  0  0  0  0  0  0
   59.4380   29.8440   50.4600 C   0  0  0  0  0  0  0  0  0  0  0  0
   58.5600   29.7350   51.5410 C   0  0  0  0  0  0  0  0  0  0  0  0
   51.9757   30.0197   50.9160 H   0  0  0  0  0  0  0  0  0  0  0  0
   55.2181   28.8921   53.0338 H   0  0  0  0  0  0  0  0  0  0  0  0
   55.4264   29.5513   51.3677 H   0  0  0  0  0  0  0  0  0  0  0  0
   56.3031   31.5571   53.2384 H   0  0  0  0  0  0  0  0  0  0  0  0
   57.0696   29.9873   53.6889 H   0  0  0  0  0  0  0  0  0  0  0  0
   56.6196   32.4888   50.9517 H   0  0  0  0  0  0  0  0  0  0  0  0
   58.1840   32.6850   49.0231 H   0  0  0  0  0  0  0  0  0  0  0  0
   60.5173   33.6489   47.4712 H   0  0  0  0  0  0  0  0  0  0  0  0
   59.5480   35.6795   46.4089 H   0  0  0  0  0  0  0  0  0  0  0  0
   57.6811   35.4651   44.7723 H   0  0  0  0  0  0  0  0  0  0  0  0
   56.7815   33.2209   44.1883 H   0  0  0  0  0  0  0  0  0  0  0  0
   60.2896   26.4991   47.5943 H   0  0  0  0  0  0  0  0  0  0  0  0
   58.1295   25.2851   47.9296 H   0  0  0  0  0  0  0  0  0  0  0  0
   56.0573   26.1470   46.8353 H   0  0  0  0  0  0  0  0  0  0  0  0
   55.9370   28.6350   44.3150 H   0  0  0  0  0  0  0  0  0  0  0  0
   60.2229   29.0870   50.3158 H   0  0  0  0  0  0  0  0  0  0  0  0
   58.6575   28.8935   52.2427 H   0  0  0  0  0  0  0  0  0  0  0  0
  1  2  2  0
  2  3  1  0
  2  4  1  0
  4  5  2  3
  5  6  1  0
  6  7  2  0
  6  8  1  0
  8  9  1  0
  9 10  1  0
 10 11  2  0
 11 12  1  0
 12 13  2  0
 13 14  1  0
 14 15  2  0
 14 16  1  0
 16 17  1  0
 17 18  2  0
 18 19  1  0
 19 20  2  0
 20 21  1  0
 21 22  2  0
 22 23  1  0
 23 24  2  0
 23 25  1  0
 25 26  2  3
 26 27  1  0
 27 28  1  0
 28 29  2  0
 29 30  1  0
 30 31  2  0
 31 32  1  0
 13 33  1  0
 33 34  2  0
 34 10  1  0
 22 17  1  0
 31 26  1  0
  4 35  1  0
  8 36  1  0
  8 37  1  0
  9 38  1  0
  9 39  1  0
 11 40  1  0
 12 41  1  0
 18 42  1  0
 19 43  1  0
 20 44  1  0
 21 45  1  0
 28 46  1  0
 29 47  1  0
 30 48  1  0
 32 49  1  0
 33 50  1  0
 34 51  1  0
M  CHG  3   3  -1  16  -1  27  -1
M  END
>  <UniqueID>  (6) 
6

>  <SMILES>  (6) 
O=C([O-])C=NC(=O)CCc1ccc(C(=O)[N-]c2ccccc2C(=O)N=c2[n-]cccc2O)cc1

>  <Energy>  (6) 
70.19960824568705

>  <Genealogy>  (6) 
O=C([O-])C=NC(=O)CCc1ccc(C(=O)[N-]c2ccccc2C(=O)N=c2[n-]cccc2O)cc1 (protonated)
O=C([O-])C=NC(=O)CCc1ccc(C(=O)[N-]c2ccccc2C(=O)N=c2[n-]cccc2O)cc1 (3D coordinates assigned)
O=C([O-])C=NC(=O)CCc1ccc(C(=O)[N-]c2ccccc2C(=O)N=c2[n-]cccc2O)cc1 (optimized conformer: 70.19960824568705 kcal/mol)

>  <smiles>  (6) 
O=C(O)C=NC(=O)CCc1ccc(C(=O)Nc2ccccc2C(=O)N=c2[nH]cccc2O)cc1

>  <score_type>  (6) 
oracle

>  <origin>  (6) 
adg

>  <m_score__min__energy>  (6) 
-14.94

>  <m_primary>  (6) 
energy

$$$$
6:0
     RDKit          3D

 46 49  0  0  1  0  0  0  0  0999 V2000
   56.6000   24.7020   46.4450 C   0  0  0  0  0  0  0  0  0  0  0  0
   56.1340   26.0800   46.6060 N   0  0  0  0  0  0  0  0  0  0  0  0
   57.0570   27.1490   46.4300 C   0  0  0  0  0  0  0  0  0  0  0  0
   57.0570   27.9190   45.2860 C   0  0  0  0  0  0  0  0  0  0  0  0
   57.9270   28.9460   45.0910 C   0  0  0  0  0  0  0  0  0  0  0  0
   57.8810   29.6210   44.0170 N   0  0  0  0  0  0  0  0  0  0  0  0
   57.2330   31.1790   43.8450 S   0  0  0  0  0  0  0  0  0  0  0  0
   57.0340   31.6150   42.4140 O   0  0  0  0  0  0  0  0  0  0  0  0
   55.8120   31.1080   44.4180 O   0  0  0  0  0  0  0  0  0  0  0  0
   58.0450   32.4000   44.7970 C   0  0  0  0  0  0  0  0  0  0  0  0
   58.5600   33.5520   44.1910 C   0  0  0  0  0  0  0  0  0  0  0  0
   59.2090   34.5290   44.9180 C   0  0  0  0  0  0  0  0  0  0  0  0
   59.3750   34.4070   46.2810 C   0  0  0  0  0  0  0  0  0  0  0  0
   58.8750   33.2800   46.8990 C   0  0  0  0  0  0  0  0  0  0  0  0
   59.0620   33.0770   48.6400 Cl  0  0  0  0  0  0  0  0  0  0  0  0
   58.2270   32.3100   46.1570 C   0  0  0  0  0  0  0  0  0  0  0  0
   58.8250   29.2020   46.0870 N   0  0  0  0  0  0  0  0  0  0  0  0
   58.8470   28.4750   47.2030 C   0  0  0  0  0  0  0  0  0  0  0  0
   59.7550   28.6870   48.2790 N   0  0  0  0  0  0  0  0  0  0  0  0
   60.6210   29.6380   48.1720 C   0  0  0  0  0  0  0  0  0  0  0  0
   61.1860   30.4320   49.1490 C   0  0  0  0  0  0  0  0  0  0  0  0
   62.0430   31.2780   48.4750 C   0  0  0  0  0  0  0  0  0  0  0  0
   62.8990   32.3400   49.1010 C   0  0  0  0  0  0  0  0  0  0  0  0
   62.5930   33.7450   48.7060 C   0  0  0  0  0  0  0  0  0  0  0  0
   63.7850   33.1020   48.0790 C   0  0  0  0  0  0  0  0  0  0  0  0
   62.0040   31.0200   47.1720 N   0  0  0  0  0  0  0  0  0  0  0  0
   61.1540   30.0410   46.9940 N   0  0  0  0  0  0  0  0  0  0  0  0
   57.9640   27.4480   47.3770 N   0  0  0  0  0  0  0  0  0  0  0  0
   56.7533   24.2487   47.4355 H   0  0  0  0  0  0  0  0  0  0  0  0
   55.8477   24.1231   45.8893 H   0  0  0  0  0  0  0  0  0  0  0  0
   57.5493   24.6985   45.8893 H   0  0  0  0  0  0  0  0  0  0  0  0
   55.1440   26.3140   46.8470 H   0  0  0  0  0  0  0  0  0  0  0  0
   56.3229   27.6932   44.4985 H   0  0  0  0  0  0  0  0  0  0  0  0
   58.4441   33.6821   43.1049 H   0  0  0  0  0  0  0  0  0  0  0  0
   59.5997   35.4185   44.4021 H   0  0  0  0  0  0  0  0  0  0  0  0
   59.8919   35.1868   46.8596 H   0  0  0  0  0  0  0  0  0  0  0  0
   57.8383   31.4236   46.6797 H   0  0  0  0  0  0  0  0  0  0  0  0
   60.9946   30.3979   50.2317 H   0  0  0  0  0  0  0  0  0  0  0  0
   63.0455   31.8211   50.0598 H   0  0  0  0  0  0  0  0  0  0  0  0
   61.7043   33.9546   48.0925 H   0  0  0  0  0  0  0  0  0  0  0  0
   62.4384   34.6777   49.2683 H   0  0  0  0  0  0  0  0  0  0  0  0
   63.7683   32.8229   47.0151 H   0  0  0  0  0  0  0  0  0  0  0  0
   64.8545   33.3443   47.9931 H   0  0  0  0  0  0  0  0  0  0  0  0
   62.5510   31.5070   46.4170 H   0  0  0  0  0  0  0  0  0  0  0  0
   60.9350   29.6360   46.0350 H   0  0  0  0  0  0  0  0  0  0  0  0
   57.9760   26.8730   48.2480 H   0  0  0  0  0  0  0  0  0  0  0  0
  1  2  1  0
  2  3  1  0
  3  4  2  0
  4  5  1  0
  5  6  2  0
  6  7  1  0
  7  8  2  0
  7  9  2  0
  7 10  1  0
 10 11  2  0
 11 12  1  0
 12 13  2  0
 13 14  1  0
 14 15  1  0
 14 16  2  0
  5 17  1  0
 17 18  2  0
 18 19  1  0
 19 20  2  0
 20 21  1  0
 21 22  2  0
 22 23  1  0
 23 24  1  0
 24 25  1  0
 22 26  1  0
 26 27  1  0
 18 28  1  0
 28  3  1  0
 16 10  1  0
 27 20  1  0
 25 23  1  0
  1 29  1  0
  1 30  1  0
  1 31  1  0
  2 32  1  0
  4 33  1  0
 11 34  1  0
 12 35  1  0
 13 36  1  0
 16 37  1  0
 21 38  1  0
 23 39  1  0
 24 40  1  0
 24 41  1  0
 25 42  1  0
 25 43  1  0
 26 44  1  0
 27 45  1  0
 28 46  1  0
M  END
>  <smiles>  (7) 
CNc1cc(=NS(=O)(=O)c2cccc(Cl)c2)nc(N=c2cc(C3CC3)[nH][nH]2)[nH]1

>  <score_type>  (7) 
oracle

>  <origin>  (7) 
adg

>  <m_score__min__energy>  (7) 
-9.2799999999999994

>  <m_primary>  (7) 
energy

$$$$
7:0
     RDKit          3D

 46 49  0  0  0  0  0  0  0  0999 V2000
   56.8730   29.7390   45.6150 O   0  0  0  0  0  0  0  0  0  0  0  0
   58.0710   30.0990   45.4450 C   0  0  0  0  0  0  0  0  0  0  0  0
   58.4930   31.4630   45.8660 C   0  0  0  0  0  0  0  0  0  0  0  0
   57.6300   32.5600   45.7000 C   0  0  0  0  0  0  0  0  0  0  0  0
   56.3700   32.3980   45.1260 O   0  0  0  0  0  0  0  0  0  0  0  0
   58.0120   33.7920   46.1160 N   0  0  0  0  0  0  0  0  0  0  0  0
   59.2120   34.0060   46.7060 C   0  0  0  0  0  0  0  0  0  0  0  0
   59.5070   35.1680   47.0940 O   0  0  0  0  0  0  0  0  0  0  0  0
   60.0830   32.9660   46.8890 N   0  0  0  0  0  0  0  0  0  0  0  0
   61.3470   33.1910   47.5490 C   0  0  0  0  0  0  0  0  0  0  0  0
   62.5260   33.2460   46.7890 C   0  0  0  0  0  0  0  0  0  0  0  0
   63.7620   33.4190   47.4140 C   0  0  0  0  0  0  0  0  0  0  0  0
   63.8330   33.5380   48.8030 C   0  0  0  0  0  0  0  0  0  0  0  0
   62.6680   33.4890   49.5720 C   0  0  0  0  0  0  0  0  0  0  0  0
   61.4180   33.3130   48.9570 C   0  0  0  0  0  0  0  0  0  0  0  0
   60.1920   33.2980   49.7840 C   0  0  0  0  0  0  0  0  0  0  0  0
   59.6410   34.3980   50.0590 O   0  0  0  0  0  0  0  0  0  0  0  0
   59.6050   32.0640   50.2500 N   0  0  0  0  0  0  0  0  0  0  0  0
   60.0190   30.7620   49.7110 C   0  0  0  0  0  0  0  0  0  0  0  0
   58.8150   29.8170   49.6530 C   0  0  0  0  0  0  0  0  0  0  0  0
   58.1650   29.7530   50.9080 O   0  0  0  0  0  0  0  0  0  0  0  0
   57.6090   31.0150   51.2230 C   0  0  0  0  0  0  0  0  0  0  0  0
   58.7110   32.0620   51.4150 C   0  0  0  0  0  0  0  0  0  0  0  0
   59.7520   31.7080   46.4540 C   0  0  0  0  0  0  0  0  0  0  0  0
   60.5900   30.7700   46.5620 O   0  0  0  0  0  0  0  0  0  0  0  0
   59.0670   29.1240   44.8630 C   0  0  0  0  0  0  0  0  0  0  0  0
   59.2020   27.7700   45.5490 C   0  0  0  0  0  0  0  0  0  0  0  0
   58.4320   27.8870   44.2450 C   0  0  0  0  0  0  0  0  0  0  0  0
   55.8510   31.5370   45.2460 H   0  0  0  0  0  0  0  0  0  0  0  0
   62.4755   33.1522   45.6942 H   0  0  0  0  0  0  0  0  0  0  0  0
   64.6812   33.4616   46.8113 H   0  0  0  0  0  0  0  0  0  0  0  0
   64.8088   33.6707   49.2931 H   0  0  0  0  0  0  0  0  0  0  0  0
   62.7301   33.5889   50.6657 H   0  0  0  0  0  0  0  0  0  0  0  0
   60.4249   30.8987   48.6978 H   0  0  0  0  0  0  0  0  0  0  0  0
   60.7902   30.3275   50.3641 H   0  0  0  0  0  0  0  0  0  0  0  0
   58.1047   30.1839   48.8974 H   0  0  0  0  0  0  0  0  0  0  0  0
   59.1699   28.8100   49.3882 H   0  0  0  0  0  0  0  0  0  0  0  0
   56.9483   31.3329   50.4030 H   0  0  0  0  0  0  0  0  0  0  0  0
   57.0400   30.9258   52.1602 H   0  0  0  0  0  0  0  0  0  0  0  0
   58.2542   33.0565   51.5263 H   0  0  0  0  0  0  0  0  0  0  0  0
   59.2910   31.8170   52.3170 H   0  0  0  0  0  0  0  0  0  0  0  0
   59.7875   29.8940   44.5499 H   0  0  0  0  0  0  0  0  0  0  0  0
   60.1755   27.2582   45.5689 H   0  0  0  0  0  0  0  0  0  0  0  0
   58.9769   27.3809   46.5529 H   0  0  0  0  0  0  0  0  0  0  0  0
   58.8479   27.4592   43.3209 H   0  0  0  0  0  0  0  0  0  0  0  0
   57.4182   27.6169   43.9145 H   0  0  0  0  0  0  0  0  0  0  0  0
  1  2  2  0
  2  3  1  0
  3  4  2  0
  4  5  1  0
  4  6  1  0
  6  7  1  0
  7  8  2  0
  7  9  1  0
  9 10  1  0
 10 11  2  0
 11 12  1  0
 12 13  2  0
 13 14  1  0
 14 15  2  0
 15 16  1  0
 16 17  2  0
 16 18  1  0
 18 19  1  0
 19 20  1  0
 20 21  1  0
 21 22  1  0
 22 23  1  0
  9 24  1  0
 24 25  2  0
  2 26  1  0
 26 27  1  0
 27 28  1  0
 24  3  1  0
 28 26  1  0
 15 10  1  0
 23 18  1  0
  5 29  1  0
 11 30  1  0
 12 31  1  0
 13 32  1  0
 14 33  1  0
 19 34  1  0
 19 35  1  0
 20 36  1  0
 20 37  1  0
 22 38  1  0
 22 39  1  0
 23 40  1  0
 23 41  1  0
 26 42  1  0
 27 43  1  0
 27 44  1  0
 28 45  1  0
 28 46  1  0
M  CHG  1   6  -1
M  END
>  <UniqueID>  (8) 
7

>  <SMILES>  (8) 
O=C(c1c(O)[n-]c(=O)n(-c2ccccc2C(=O)N2CCOCC2)c1=O)C1CC1

>  <Energy>  (8) 
334.4710780478243

>  <Genealogy>  (8) 
O=C(c1c(O)[n-]c(=O)n(-c2ccccc2C(=O)N2CCOCC2)c1=O)C1CC1 (protonated)
O=C(c1c(O)[n-]c(=O)n(-c2ccccc2C(=O)N2CCOCC2)c1=O)C1CC1 (3D coordinates assigned)
O=C(c1c(O)[n-]c(=O)n(-c2ccccc2C(=O)N2CCOCC2)c1=O)C1CC1 (nonaromatic ring conformer: 334.4710780478243 kcal/mol)

>  <smiles>  (8) 
O=C(c1c(O)[nH]c(=O)n(-c2ccccc2C(=O)N2CCOCC2)c1=O)C1CC1

>  <score_type>  (8) 
oracle

>  <origin>  (8) 
adg

>  <m_score__min__energy>  (8) 
-8.9900000000000002

>  <m_primary>  (8) 
energy

$$$$
8:0
     RDKit          3D

 39 41  0  0  0  0  0  0  0  0999 V2000
   54.3280   26.7180   46.7620 H   0  0  0  0  0  0  0  0  0  0  0  0
   54.7300   26.1970   45.9920 O   0  0  0  0  0  0  0  0  0  0  0  0
   55.7570   25.2860   46.2150 C   0  0  0  0  0  0  0  0  0  0  0  0
   55.6460   24.2070   47.0080 N   0  0  0  0  0  0  0  0  0  0  0  0
   56.8810   23.6630   46.9420 C   0  0  0  0  0  0  0  0  0  0  0  0
   57.2000   22.6240   47.5760 O   0  0  0  0  0  0  0  0  0  0  0  0
   57.7560   24.3330   46.1590 N   0  0  0  0  0  0  0  0  0  0  0  0
   57.0210   25.3540   45.6790 C   0  0  0  0  0  0  0  0  0  0  0  0
   57.5610   26.4690   44.8850 C   0  0  0  0  0  0  0  0  0  0  0  0
   57.8412   26.2566   43.8427 H   0  0  0  0  0  0  0  0  0  0  0  0
   57.7410   27.7300   45.3290 C   0  0  0  0  0  0  0  0  0  0  0  0
   57.4990   28.8410   44.5420 C   0  0  0  0  0  0  0  0  0  0  0  0
   57.2121   28.8410   43.4801 H   0  0  0  0  0  0  0  0  0  0  0  0
   57.6860   29.9510   45.3430 C   0  0  0  0  0  0  0  0  0  0  0  0
   57.4310   31.3390   44.9030 C   0  0  0  0  0  0  0  0  0  0  0  0
   56.2500   31.7800   44.8770 O   0  0  0  0  0  0  0  0  0  0  0  0
   58.5560   32.2410   44.4860 C   0  0  0  0  0  0  0  0  0  0  0  0
   59.3807   31.6344   44.0835 H   0  0  0  0  0  0  0  0  0  0  0  0
   58.1970   32.9368   43.7133 H   0  0  0  0  0  0  0  0  0  0  0  0
   59.0460   33.0260   45.6740 C   0  0  0  0  0  0  0  0  0  0  0  0
   58.4320   34.2460   46.0070 C   0  0  0  0  0  0  0  0  0  0  0  0
   57.5843   34.6132   45.4099 H   0  0  0  0  0  0  0  0  0  0  0  0
   58.8940   34.9950   47.0940 C   0  0  0  0  0  0  0  0  0  0  0  0
   58.4042   35.9448   47.3547 H   0  0  0  0  0  0  0  0  0  0  0  0
   59.9770   34.5380   47.8490 C   0  0  0  0  0  0  0  0  0  0  0  0
   60.3394   35.1285   48.7034 H   0  0  0  0  0  0  0  0  0  0  0  0
   60.6000   33.3320   47.5200 C   0  0  0  0  0  0  0  0  0  0  0  0
   61.4532   32.9757   48.1159 H   0  0  0  0  0  0  0  0  0  0  0  0
   60.1430   32.5750   46.4350 C   0  0  0  0  0  0  0  0  0  0  0  0
   60.7660   31.4090   46.1320 F   0  0  0  0  0  0  0  0  0  0  0  0
   58.0770   29.5740   46.5850 N   0  0  0  0  0  0  0  0  0  0  0  0
   58.5480   30.4550   47.6630 C   0  0  0  0  0  0  0  0  0  0  0  0
   58.3069   30.0040   48.6369 H   0  0  0  0  0  0  0  0  0  0  0  0
   59.6369   30.5868   47.5795 H   0  0  0  0  0  0  0  0  0  0  0  0
   58.0528   31.4337   47.5795 H   0  0  0  0  0  0  0  0  0  0  0  0
   58.1490   28.2160   46.5800 C   0  0  0  0  0  0  0  0  0  0  0  0
   58.6770   27.5010   47.5860 C   0  0  0  0  0  0  0  0  0  0  0  0
   58.9594   27.9987   48.5254 H   0  0  0  0  0  0  0  0  0  0  0  0
   58.8273   26.4174   47.4709 H   0  0  0  0  0  0  0  0  0  0  0  0
  1  2  1  0
  2  3  1  0
  3  4  1  0
  4  5  1  0
  5  6  2  0
  5  7  1  0
  7  8  1  0
  8  9  1  0
  9 10  1  0
  9 11  2  0
 11 12  1  0
 12 13  1  0
 12 14  2  0
 14 15  1  0
 15 16  2  0
 15 17  1  0
 17 18  1  0
 17 19  1  0
 17 20  1  0
 20 21  2  0
 21 22  1  0
 21 23  1  0
 23 24  1  0
 23 25  2  0
 25 26  1  0
 25 27  1  0
 27 28  1  0
 27 29  2  0
 29 30  1  0
 14 31  1  0
 31 32  1  0
 32 33  1  0
 32 34  1  0
 32 35  1  0
 31 36  1  0
 36 37  2  0
 37 38  1  0
 37 39  1  0
  8  3  2  0
 36 11  1  0
 29 20  1  0
M  CHG  2   4  -1   7  -1
M  END
>  <UniqueID>  (9) 
8

>  <SMILES>  (9) 
C=c1/c(=C\c2[n-]c(=O)[n-]c2O)cc(C(=O)Cc2ccccc2F)n1C

>  <Energy>  (9) 
112.97172828733532

>  <Genealogy>  (9) 
C=c1c(=Cc2[n-]c(=O)[n-]c2O)cc(C(=O)Cc2ccccc2F)n1C (protonated)
C=c1/c(=C\c2[n-]c(=O)[n-]c2O)cc(C(=O)Cc2ccccc2F)n1C (cis-trans isomerization)
C=c1/c(=C\c2[n-]c(=O)[n-]c2O)cc(C(=O)Cc2ccccc2F)n1C (3D coordinates assigned)
C=c1/c(=C\c2[n-]c(=O)[n-]c2O)cc(C(=O)Cc2ccccc2F)n1C (optimized conformer: 112.97172828733532 kcal/mol)

>  <smiles>  (9) 
C=c1c(=Cc2[nH]c(=O)[nH]c2O)cc(C(=O)Cc2ccccc2F)n1C

>  <score_type>  (9) 
oracle

>  <origin>  (9) 
adg

>  <m_score__min__energy>  (9) 
-12.58

>  <m_primary>  (9) 
energy

$$$$
9:0
     RDKit          3D

 46 48  0  0  1  0  0  0  0  0999 V2000
   57.5830   33.1960   45.4360 C   0  0  0  0  0  0  0  0  0  0  0  0
   58.3880   32.0180   45.8530 C   0  0  0  0  0  0  0  0  0  0  0  0
   59.2740   32.1050   46.8890 N   0  0  0  0  0  0  0  0  0  0  0  0
   60.0130   31.0600   47.2870 C   0  0  0  0  0  0  0  0  0  0  0  0
   60.9510   31.1750   48.3930 C   0  0  0  0  0  0  0  0  0  0  0  0
   60.7640   30.5970   49.6230 C   0  0  0  0  0  0  0  0  0  0  0  0
   61.6810   30.7260   50.6650 C   0  0  0  0  0  0  0  0  0  0  0  0
   62.8240   31.4520   50.4830 C   0  0  0  0  0  0  0  0  0  0  0  0
   63.0460   32.0480   49.2570 C   0  0  0  0  0  0  0  0  0  0  0  0
   64.2770   32.8370   49.0380 C   0  0  0  0  0  0  0  0  0  0  0  0
   64.5230   33.4130   47.7780 N   0  0  0  0  0  0  0  0  0  0  0  0
   65.0490   32.9460   50.0310 O   0  0  0  0  0  0  0  0  0  0  0  0
   62.1320   31.9110   48.2410 C   0  0  0  0  0  0  0  0  0  0  0  0
   59.9050   29.8710   46.6670 N   0  0  0  0  0  0  0  0  0  0  0  0
   59.0370   29.7710   45.6460 C   0  0  0  0  0  0  0  0  0  0  0  0
   58.9280   28.6440   45.0520 N   0  0  0  0  0  0  0  0  0  0  0  0
   58.3030   27.4940   45.6120 C   0  0  0  0  0  0  0  0  0  0  0  0
   59.0080   26.4550   46.1860 C   0  0  0  0  0  0  0  0  0  0  0  0
   58.3660   25.3500   46.7220 C   0  0  0  0  0  0  0  0  0  0  0  0
   56.9730   25.3010   46.6720 C   0  0  0  0  0  0  0  0  0  0  0  0
   56.2440   26.3390   46.0990 C   0  0  0  0  0  0  0  0  0  0  0  0
   54.8570   26.3220   46.0340 O   0  0  0  0  0  0  0  0  0  0  0  0
   56.9070   27.4190   45.5760 C   0  0  0  0  0  0  0  0  0  0  0  0
   58.2550   30.8110   45.1980 C   0  0  0  0  0  0  0  0  0  0  0  0
   57.1620   30.5990   43.8760 S   0  0  0  0  0  0  0  0  0  0  0  0
   57.3800   31.7380   42.5670 C   0  0  0  0  0  0  0  0  0  0  0  0
   55.7450   30.7550   44.4110 O   0  0  0  0  0  0  0  0  0  0  0  0
   57.2570   29.1550   43.4220 O   0  0  0  0  0  0  0  0  0  0  0  0
   57.2203   33.7268   46.3286 H   0  0  0  0  0  0  0  0  0  0  0  0
   58.2080   33.8732   44.8354 H   0  0  0  0  0  0  0  0  0  0  0  0
   56.7250   32.8597   44.8354 H   0  0  0  0  0  0  0  0  0  0  0  0
   59.3270   33.0370   47.3380 H   0  0  0  0  0  0  0  0  0  0  0  0
   59.8518   30.0067   49.7943 H   0  0  0  0  0  0  0  0  0  0  0  0
   61.4844   30.2433   51.6337 H   0  0  0  0  0  0  0  0  0  0  0  0
   63.5544   31.5599   51.2984 H   0  0  0  0  0  0  0  0  0  0  0  0
   63.9220   34.1320   47.3370 H   0  0  0  0  0  0  0  0  0  0  0  0
   65.3660   33.1140   47.2250 H   0  0  0  0  0  0  0  0  0  0  0  0
   62.3349   32.3962   47.2749 H   0  0  0  0  0  0  0  0  0  0  0  0
   60.1064   26.5055   46.2187 H   0  0  0  0  0  0  0  0  0  0  0  0
   58.9418   24.5303   47.1765 H   0  0  0  0  0  0  0  0  0  0  0  0
   56.4443   24.4318   47.0903 H   0  0  0  0  0  0  0  0  0  0  0  0
   54.2590   26.7210   46.7480 H   0  0  0  0  0  0  0  0  0  0  0  0
   56.3321   28.2391   45.1211 H   0  0  0  0  0  0  0  0  0  0  0  0
   57.5716   32.7392   42.9803 H   0  0  0  0  0  0  0  0  0  0  0  0
   58.2349   31.4268   41.9487 H   0  0  0  0  0  0  0  0  0  0  0  0
   56.4706   31.7644   41.9487 H   0  0  0  0  0  0  0  0  0  0  0  0
  1  2  1  0
  2  3  1  0
  3  4  1  0
  4  5  1  0
  5  6  2  0
  6  7  1  0
  7  8  2  0
  8  9  1  0
  9 10  1  0
 10 11  1  0
 10 12  2  0
  9 13  2  0
  4 14  2  0
 14 15  1  0
 15 16  2  0
 16 17  1  0
 17 18  2  0
 18 19  1  0
 19 20  2  0
 20 21  1  0
 21 22  1  0
 21 23  2  0
 15 24  1  0
 24 25  1  0
 25 26  1  0
 25 27  2  0
 25 28  2  0
 24  2  2  0
 13  5  1  0
 23 17  1  0
  1 29  1  0
  1 30  1  0
  1 31  1  0
  3 32  1  0
  6 33  1  0
  7 34  1  0
  8 35  1  0
 11 36  1  0
 11 37  1  0
 13 38  1  0
 18 39  1  0
 19 40  1  0
 20 41  1  0
 22 42  1  0
 23 43  1  0
 26 44  1  0
 26 45  1  0
 26 46  1  0
M  END
>  <smiles>  (10) 
Cc1[nH]c(-c2cccc(C(N)=O)c2)nc(=Nc2cccc(O)c2)c1S(C)(=O)=O

>  <score_type>  (10) 
oracle

>  <origin>  (10) 
adg

>  <m_score__min__energy>  (10) 
-10.01

>  <m_primary>  (10) 
energy

$$$$
10:0
     RDKit          3D

 24 25  0  0  0  0  0  0  0  0999 V2000
   55.3720   29.3000   44.8750 N   0  0  0  0  0  0  0  0  0  0  0  0
   57.0940   29.3410   44.7300 S   0  0  0  0  0  0  0  0  0  0  0  0
   57.4870   28.6140   43.4730 O   0  0  0  0  0  0  0  0  0  0  0  0
   57.7190   28.6420   45.9030 O   0  0  0  0  0  0  0  0  0  0  0  0
   57.6510   31.0260   44.6730 C   0  0  0  0  0  0  0  0  0  0  0  0
   57.5350   31.7180   43.4610 C   0  0  0  0  0  0  0  0  0  0  0  0
   57.9410   33.0430   43.3570 C   0  0  0  0  0  0  0  0  0  0  0  0
   58.4820   33.7040   44.4550 C   0  0  0  0  0  0  0  0  0  0  0  0
   58.6410   33.0410   45.6910 C   0  0  0  0  0  0  0  0  0  0  0  0
   59.2040   33.7020   46.8190 C   0  0  0  0  0  0  0  0  0  0  0  0
   59.7250   35.0380   46.7190 N   0  0  0  0  0  0  0  0  0  0  0  0
   59.2700   33.0250   48.0530 C   0  0  0  0  0  0  0  0  0  0  0  0
   60.0230   33.8320   49.6240 Br  0  0  0  0  0  0  0  0  0  0  0  0
   58.8200   31.7120   48.1600 C   0  0  0  0  0  0  0  0  0  0  0  0
   58.2990   31.0480   47.0560 C   0  0  0  0  0  0  0  0  0  0  0  0
   58.1950   31.6890   45.8080 C   0  0  0  0  0  0  0  0  0  0  0  0
   55.1460   28.6150   45.6290 H   0  0  0  0  0  0  0  0  0  0  0  0
   57.1176   31.2067   42.5810 H   0  0  0  0  0  0  0  0  0  0  0  0
   57.8338   33.5731   42.3992 H   0  0  0  0  0  0  0  0  0  0  0  0
   58.7895   34.7558   44.3589 H   0  0  0  0  0  0  0  0  0  0  0  0
   60.4860   35.2750   46.0470 H   0  0  0  0  0  0  0  0  0  0  0  0
   59.2920   35.8400   47.2240 H   0  0  0  0  0  0  0  0  0  0  0  0
   58.8774   31.1945   49.1290 H   0  0  0  0  0  0  0  0  0  0  0  0
   57.9629   30.0057   47.1595 H   0  0  0  0  0  0  0  0  0  0  0  0
  1  2  1  0
  2  3  2  0
  2  4  2  0
  2  5  1  0
  5  6  2  0
  6  7  1  0
  7  8  2  0
  8  9  1  0
  9 10  2  0
 10 11  1  0
 10 12  1  0
 12 13  1  0
 12 14  2  0
 14 15  1  0
 15 16  2  0
 16  5  1  0
 16  9  1  0
  1 17  1  0
  6 18  1  0
  7 19  1  0
  8 20  1  0
 11 21  1  0
 11 22  1  0
 14 23  1  0
 15 24  1  0
M  CHG  1   1  -1
M  END
>  <UniqueID>  (11) 
9

>  <SMILES>  (11) 
[NH-]S(=O)(=O)c1cccc2c(N)c(Br)ccc12

>  <Energy>  (11) 
36.07196732076167

>  <Genealogy>  (11) 
[NH-]S(=O)(=O)c1cccc2c(N)c(Br)ccc12 (protonated)
[NH-]S(=O)(=O)c1cccc2c(N)c(Br)ccc12 (3D coordinates assigned)
[NH-]S(=O)(=O)c1cccc2c(N)c(Br)ccc12 (optimized conformer: 36.07196732076167 kcal/mol)

>  <smiles>  (11) 
Nc1c(Br)ccc2c(S(N)(=O)=O)cccc12

>  <score_type>  (11) 
oracle

>  <origin>  (11) 
adg

>  <m_score__min__energy>  (11) 
-9.3900000000000006

>  <m_primary>  (11) 
energy

$$$$
11:0
     RDKit          3D

 57 60  0  0  1  0  0  0  0  0999 V2000
   63.7450   32.4800   48.3120 C   0  0  0  0  0  0  0  0  0  0  0  0
   62.3310   32.6450   48.3030 N   0  0  0  0  0  0  0  0  0  0  0  0
   61.7230   32.8850   47.0390 C   0  0  0  0  0  0  0  0  0  0  0  0
   61.0920   34.2130   46.8710 C   0  0  0  0  0  0  0  0  0  0  0  0
   60.2420   34.5710   47.9660 N   0  0  0  0  0  0  0  0  0  0  0  0
   59.0520   33.7810   48.0820 C   0  0  0  0  0  0  0  0  0  0  0  0
   58.6090   33.3690   46.7330 C   0  0  0  0  0  0  0  0  0  0  0  0
   58.0280   34.1920   45.8070 C   0  0  0  0  0  0  0  0  0  0  0  0
   57.6560   33.6910   44.5790 C   0  0  0  0  0  0  0  0  0  0  0  0
   57.8530   32.3730   44.2490 C   0  0  0  0  0  0  0  0  0  0  0  0
   57.4370   31.9230   42.9420 C   0  0  0  0  0  0  0  0  0  0  0  0
   57.7630   32.6000   41.9110 O   0  0  0  0  0  0  0  0  0  0  0  0
   58.9690   26.9330   45.8250 N   0  0  0  0  0  0  0  0  0  0  0  0
   59.4340   27.8160   46.6400 C   0  0  0  0  0  0  0  0  0  0  0  0
   60.2960   28.8030   46.1750 C   0  0  0  0  0  0  0  0  0  0  0  0
   56.9310   28.0810   44.8740 C   0  0  0  0  0  0  0  0  0  0  0  0
   57.5890   26.9040   45.4490 C   0  0  0  0  0  0  0  0  0  0  0  0
   56.9110   25.8580   45.6070 O   0  0  0  0  0  0  0  0  0  0  0  0
   56.6700   30.7510   42.7070 N   0  0  0  0  0  0  0  0  0  0  0  0
   56.5480   29.8290   43.6040 C   0  0  0  0  0  0  0  0  0  0  0  0
   59.0860   27.7820   47.9420 N   0  0  0  0  0  0  0  0  0  0  0  0
   59.5770   28.7090   48.7830 C   0  0  0  0  0  0  0  0  0  0  0  0
   60.4420   29.7160   48.3690 C   0  0  0  0  0  0  0  0  0  0  0  0
   60.7910   29.7420   47.0470 C   0  0  0  0  0  0  0  0  0  0  0  0
   57.4750   28.8140   43.8500 C   0  0  0  0  0  0  0  0  0  0  0  0
   60.6790   28.8710   44.8440 O   0  0  0  0  0  0  0  0  0  0  0  0
   55.7500   28.6110   45.2320 N   0  0  0  0  0  0  0  0  0  0  0  0
   55.5300   29.6590   44.4630 N   0  0  0  0  0  0  0  0  0  0  0  0
   58.4380   31.5360   45.1780 C   0  0  0  0  0  0  0  0  0  0  0  0
   58.8050   32.0350   46.3910 C   0  0  0  0  0  0  0  0  0  0  0  0
   61.0520   34.5890   49.1560 C   0  0  0  0  0  0  0  0  0  0  0  0
   61.7520   33.3090   49.4160 C   0  0  0  0  0  0  0  0  0  0  0  0
   64.1027   32.4383   49.3514 H   0  0  0  0  0  0  0  0  0  0  0  0
   64.0083   31.5450   47.7958 H   0  0  0  0  0  0  0  0  0  0  0  0
   64.2165   33.3292   47.7958 H   0  0  0  0  0  0  0  0  0  0  0  0
   62.4982   32.7792   46.2658 H   0  0  0  0  0  0  0  0  0  0  0  0
   60.9063   32.1529   46.9559 H   0  0  0  0  0  0  0  0  0  0  0  0
   61.8856   34.9694   46.7815 H   0  0  0  0  0  0  0  0  0  0  0  0
   60.4646   34.1674   45.9687 H   0  0  0  0  0  0  0  0  0  0  0  0
   59.2609   32.8880   48.6894 H   0  0  0  0  0  0  0  0  0  0  0  0
   58.2611   34.3727   48.5662 H   0  0  0  0  0  0  0  0  0  0  0  0
   57.8581   35.2529   46.0431 H   0  0  0  0  0  0  0  0  0  0  0  0
   57.1894   34.3638   43.8444 H   0  0  0  0  0  0  0  0  0  0  0  0
   58.4316   28.6403   43.3355 H   0  0  0  0  0  0  0  0  0  0  0  0
   58.4400   27.0190   48.2260 H   0  0  0  0  0  0  0  0  0  0  0  0
   59.2824   28.6692   49.8421 H   0  0  0  0  0  0  0  0  0  0  0  0
   60.8304   30.4626   49.0773 H   0  0  0  0  0  0  0  0  0  0  0  0
   61.4740   30.5216   46.6787 H   0  0  0  0  0  0  0  0  0  0  0  0
   60.3650   28.0910   44.2590 H   0  0  0  0  0  0  0  0  0  0  0  0
   55.1460   28.2230   45.9950 H   0  0  0  0  0  0  0  0  0  0  0  0
   54.6950   30.3000   44.4800 H   0  0  0  0  0  0  0  0  0  0  0  0
   58.6063   30.4752   44.9406 H   0  0  0  0  0  0  0  0  0  0  0  0
   59.2717   31.3609   47.1243 H   0  0  0  0  0  0  0  0  0  0  0  0
   61.8062   35.3829   49.0515 H   0  0  0  0  0  0  0  0  0  0  0  0
   60.3748   34.7648   50.0048 H   0  0  0  0  0  0  0  0  0  0  0  0
   62.5591   33.5140   50.1347 H   0  0  0  0  0  0  0  0  0  0  0  0
   60.9676   32.6264   49.7748 H   0  0  0  0  0  0  0  0  0  0  0  0
  1  2  1  0
  2  3  1  0
  3  4  1  0
  4  5  1  0
  5  6  1  0
  6  7  1  0
  7  8  2  0
  8  9  1  0
  9 10  2  0
 10 11  1  0
 11 12  2  0
 11 13  1  0
 13 14  2  0
 14 15  1  0
 15 16  2  0
 16 17  1  0
 17 18  2  0
 17 19  1  0
 19 20  2  0
 20 21  1  0
 21 22  1  0
 22 23  2  0
 23 24  1  0
 24 25  2  0
 25 26  1  0
 16 27  1  0
 27 28  1  0
 10 29  1  0
 29 30  2  0
  5 31  1  0
 31 32  1  0
 32  2  1  0
 30  7  1  0
 28 14  1  0
 25 20  1  0
  1 33  1  0
  1 34  1  0
  1 35  1  0
  3 36  1  0
  3 37  1  0
  4 38  1  0
  4 39  1  0
  6 40  1  0
  6 41  1  0
  8 42  1  0
  9 43  1  0
 15 44  1  0
 21 45  1  0
 22 46  1  0
 23 47  1  0
 24 48  1  0
 26 49  1  0
 27 50  1  0
 28 51  1  0
 29 52  1  0
 30 53  1  0
 31 54  1  0
 31 55  1  0
 32 56  1  0
 32 57  1  0
M  END
>  <smiles>  (12) 
CN1CCN(Cc2ccc(C(=O)N=c3cc(C(=O)N=c4[nH]cccc4O)[nH][nH]3)cc2)CC1

>  <score_type>  (12) 
oracle

>  <origin>  (12) 
adg

>  <m_score__min__energy>  (12) 
-11.42

>  <m_primary>  (12) 
energy

$$$$
12:0
     RDKit          3D

 49 51  0  0  0  0  0  0  0  0999 V2000
   58.3470   29.7670   49.4470 H   0  0  0  0  0  0  0  0  0  0  0  0
   58.1110   29.8330   50.4100 O   0  0  0  0  0  0  0  0  0  0  0  0
   59.1090   30.6050   51.0180 C   0  0  0  0  0  0  0  0  0  0  0  0
   59.5354   30.0455   51.8637 H   0  0  0  0  0  0  0  0  0  0  0  0
   58.6651   31.5466   51.3734 H   0  0  0  0  0  0  0  0  0  0  0  0
   60.2170   30.9260   50.0170 C   0  0  0  0  0  0  0  0  0  0  0  0
   61.0373   30.2020   50.1305 H   0  0  0  0  0  0  0  0  0  0  0  0
   60.6015   31.9400   50.2015 H   0  0  0  0  0  0  0  0  0  0  0  0
   59.6930   30.8460   48.7080 O   0  0  0  0  0  0  0  0  0  0  0  0
   60.6740   30.3570   47.8110 C   0  0  0  0  0  0  0  0  0  0  0  0
   60.6731   29.2573   47.8348 H   0  0  0  0  0  0  0  0  0  0  0  0
   61.6609   30.7366   48.1142 H   0  0  0  0  0  0  0  0  0  0  0  0
   60.3690   30.8330   46.3890 C   0  0  0  0  0  0  0  0  0  0  0  0
   61.2823   30.7605   45.7802 H   0  0  0  0  0  0  0  0  0  0  0  0
   60.0209   31.8756   46.4320 H   0  0  0  0  0  0  0  0  0  0  0  0
   59.3150   30.0070   45.7790 N   0  0  0  0  0  0  0  0  0  0  0  0
   58.2580   30.4560   45.0560 C   0  0  0  0  0  0  0  0  0  0  0  0
   57.9470   31.8710   44.7490 C   0  0  0  0  0  0  0  0  0  0  0  0
   57.3990   32.1700   43.6550 O   0  0  0  0  0  0  0  0  0  0  0  0
   58.3270   32.9200   45.6590 N   0  0  0  0  0  0  0  0  0  0  0  0
   57.9670   32.8260   47.0780 C   0  0  0  0  0  0  0  0  0  0  0  0
   56.9485   33.2149   47.2242 H   0  0  0  0  0  0  0  0  0  0  0  0
   58.0077   31.7741   47.3973 H   0  0  0  0  0  0  0  0  0  0  0  0
   58.9520   33.6500   47.9110 C   0  0  0  0  0  0  0  0  0  0  0  0
   58.6088   33.6742   48.9558 H   0  0  0  0  0  0  0  0  0  0  0  0
   59.9460   33.1834   47.8456 H   0  0  0  0  0  0  0  0  0  0  0  0
   59.0390   34.9750   47.4200 O   0  0  0  0  0  0  0  0  0  0  0  0
   59.5890   34.9690   46.1170 C   0  0  0  0  0  0  0  0  0  0  0  0
   59.7306   36.0068   45.7811 H   0  0  0  0  0  0  0  0  0  0  0  0
   60.5526   34.4393   46.1447 H   0  0  0  0  0  0  0  0  0  0  0  0
   58.6610   34.2460   45.1350 C   0  0  0  0  0  0  0  0  0  0  0  0
   57.7386   34.8310   45.0049 H   0  0  0  0  0  0  0  0  0  0  0  0
   59.1688   34.1379   44.1652 H   0  0  0  0  0  0  0  0  0  0  0  0
   57.4660   29.3970   44.6590 C   0  0  0  0  0  0  0  0  0  0  0  0
   56.5323   29.4604   44.0809 H   0  0  0  0  0  0  0  0  0  0  0  0
   58.0660   28.2430   45.1240 C   0  0  0  0  0  0  0  0  0  0  0  0
   57.5930   27.0130   44.8420 C   0  0  0  0  0  0  0  0  0  0  0  0
   57.5386   26.7272   43.7812 H   0  0  0  0  0  0  0  0  0  0  0  0
   57.1430   26.0190   45.8290 C   0  0  0  0  0  0  0  0  0  0  0  0
   57.8900   24.9940   46.2820 N   0  0  0  0  0  0  0  0  0  0  0  0
   57.0240   24.2880   47.0410 C   0  0  0  0  0  0  0  0  0  0  0  0
   57.3590   23.2440   47.6580 O   0  0  0  0  0  0  0  0  0  0  0  0
   55.7680   24.7820   47.0740 N   0  0  0  0  0  0  0  0  0  0  0  0
   55.8590   25.8680   46.2910 C   0  0  0  0  0  0  0  0  0  0  0  0
   54.7870   26.7020   45.9980 O   0  0  0  0  0  0  0  0  0  0  0  0
   59.1860   28.6540   45.8630 C   0  0  0  0  0  0  0  0  0  0  0  0
   59.9430   27.8870   46.6640 C   0  0  0  0  0  0  0  0  0  0  0  0
   60.8011   28.3252   47.1946 H   0  0  0  0  0  0  0  0  0  0  0  0
   59.7050   26.8204   46.7896 H   0  0  0  0  0  0  0  0  0  0  0  0
  1  2  1  0
  2  3  1  0
  3  4  1  0
  3  5  1  0
  3  6  1  0
  6  7  1  0
  6  8  1  0
  6  9  1  0
  9 10  1  0
 10 11  1  0
 10 12  1  0
 10 13  1  0
 13 14  1  0
 13 15  1  0
 13 16  1  0
 16 17  1  0
 17 18  1  0
 18 19  2  0
 18 20  1  0
 20 21  1  0
 21 22  1  0
 21 23  1  0
 21 24  1  0
 24 25  1  0
 24 26  1  0
 24 27  1  0
 27 28  1  0
 28 29  1  0
 28 30  1  0
 28 31  1  0
 31 32  1  0
 31 33  1  0
 17 34  2  0
 34 35  1  0
 34 36  1  0
 36 37  2  0
 37 38  1  0
 37 39  1  0
 39 40  1  0
 40 41  1  0
 41 42  2  0
 41 43  1  0
 43 44  1  0
 44 45  1  0
 36 46  1  0
 46 47  2  0
 47 48  1  0
 47 49  1  0
 46 16  1  0
 31 20  1  0
 44 39  2  0
M  CHG  3  40  -1  43  -1  45  -1
M  END
>  <UniqueID>  (13) 
10

>  <SMILES>  (13) 
C=c1/c(=C\c2[n-]c(=O)[n-]c2[O-])cc(C(=O)N2CCOCC2)n1CCOCCO

>  <Energy>  (13) 
122.34805741735487

>  <Genealogy>  (13) 
C=c1c(=Cc2[n-]c(=O)[n-]c2[O-])cc(C(=O)N2CCOCC2)n1CCOCCO (protonated)
C=c1/c(=C\c2[n-]c(=O)[n-]c2[O-])cc(C(=O)N2CCOCC2)n1CCOCCO (cis-trans isomerization)
C=c1/c(=C\c2[n-]c(=O)[n-]c2[O-])cc(C(=O)N2CCOCC2)n1CCOCCO (3D coordinates assigned)
C=c1/c(=C\c2[n-]c(=O)[n-]c2[O-])cc(C(=O)N2CCOCC2)n1CCOCCO (nonaromatic ring conformer: 122.34805741735487 kcal/mol)

>  <smiles>  (13) 
C=c1c(=Cc2[nH]c(=O)[nH]c2O)cc(C(=O)N2CCOCC2)n1CCOCCO

>  <score_type>  (13) 
oracle

>  <origin>  (13) 
adg

>  <m_score__min__energy>  (13) 
-14.68

>  <m_primary>  (13) 
energy

$$$$
13:0
     RDKit          3D

 38 40  0  0  0  0  0  0  0  0999 V2000
   57.8180   28.1140   44.1120 C   0  0  0  0  0  0  0  0  0  0  0  0
   57.6050   29.4100   44.3520 C   0  0  0  0  0  0  0  0  0  0  0  0
   58.5490   30.3010   44.8230 C   0  0  0  0  0  0  0  0  0  0  0  0
   57.8930   31.5200   44.9260 C   0  0  0  0  0  0  0  0  0  0  0  0
   58.4690   32.8000   45.3990 C   0  0  0  0  0  0  0  0  0  0  0  0
   58.6860   33.8450   44.4860 C   0  0  0  0  0  0  0  0  0  0  0  0
   59.2170   35.0620   44.9170 C   0  0  0  0  0  0  0  0  0  0  0  0
   59.5260   35.2570   46.2650 C   0  0  0  0  0  0  0  0  0  0  0  0
   59.2960   34.2360   47.1980 C   0  0  0  0  0  0  0  0  0  0  0  0
   59.6470   34.4680   48.6180 C   0  0  0  0  0  0  0  0  0  0  0  0
   60.3060   33.6030   49.4070 C   0  0  0  0  0  0  0  0  0  0  0  0
   61.7700   33.3860   49.3990 C   0  0  0  0  0  0  0  0  0  0  0  0
   62.5190   33.4660   48.2110 C   0  0  0  0  0  0  0  0  0  0  0  0
   63.9010   33.2590   48.2340 C   0  0  0  0  0  0  0  0  0  0  0  0
   64.5450   32.9460   49.4380 C   0  0  0  0  0  0  0  0  0  0  0  0
   65.9230   32.7420   49.4740 O   0  0  0  0  0  0  0  0  0  0  0  0
   63.8000   32.8320   50.6150 C   0  0  0  0  0  0  0  0  0  0  0  0
   62.4160   33.0410   50.5950 C   0  0  0  0  0  0  0  0  0  0  0  0
   58.8040   32.9970   46.7520 C   0  0  0  0  0  0  0  0  0  0  0  0
   56.6390   31.3850   44.5480 O   0  0  0  0  0  0  0  0  0  0  0  0
   56.4310   30.1370   44.1960 C   0  0  0  0  0  0  0  0  0  0  0  0
   55.2490   29.6930   43.7640 C   0  0  0  0  0  0  0  0  0  0  0  0
   56.9995   27.4825   43.7362 H   0  0  0  0  0  0  0  0  0  0  0  0
   58.8120   27.6778   44.2900 H   0  0  0  0  0  0  0  0  0  0  0  0
   59.6007   30.0891   45.0658 H   0  0  0  0  0  0  0  0  0  0  0  0
   58.4359   33.7035   43.4242 H   0  0  0  0  0  0  0  0  0  0  0  0
   59.3927   35.8705   44.1921 H   0  0  0  0  0  0  0  0  0  0  0  0
   59.9517   36.2157   46.5961 H   0  0  0  0  0  0  0  0  0  0  0  0
   59.3433   35.4270   49.0631 H   0  0  0  0  0  0  0  0  0  0  0  0
   59.7100   33.0088   50.1153 H   0  0  0  0  0  0  0  0  0  0  0  0
   62.0149   33.6924   47.2599 H   0  0  0  0  0  0  0  0  0  0  0  0
   64.4841   33.3420   47.3050 H   0  0  0  0  0  0  0  0  0  0  0  0
   66.4790   32.7320   48.6270 H   0  0  0  0  0  0  0  0  0  0  0  0
   64.3026   32.5773   51.5597 H   0  0  0  0  0  0  0  0  0  0  0  0
   61.8326   32.9342   51.5214 H   0  0  0  0  0  0  0  0  0  0  0  0
   58.6793   32.1718   47.4686 H   0  0  0  0  0  0  0  0  0  0  0  0
   55.1281   28.6368   43.4814 H   0  0  0  0  0  0  0  0  0  0  0  0
   54.3956   30.3832   43.6905 H   0  0  0  0  0  0  0  0  0  0  0  0
  1  2  2  0
  2  3  1  0
  3  4  2  0
  4  5  1  0
  5  6  2  0
  6  7  1  0
  7  8  2  0
  8  9  1  0
  9 10  1  0
 10 11  2  3
 11 12  1  0
 12 13  2  0
 13 14  1  0
 14 15  2  0
 15 16  1  0
 15 17  1  0
 17 18  2  0
  9 19  2  0
  4 20  1  0
 20 21  1  0
 21 22  2  0
 21  2  1  0
 19  5  1  0
 18 12  1  0
  1 23  1  0
  1 24  1  0
  3 25  1  0
  6 26  1  0
  7 27  1  0
  8 28  1  0
 10 29  1  0
 11 30  1  0
 13 31  1  0
 14 32  1  0
 16 33  1  0
 17 34  1  0
 18 35  1  0
 19 36  1  0
 22 37  1  0
 22 38  1  0
M  END
>  <UniqueID>  (14) 
11

>  <SMILES>  (14) 
C=c1cc(-c2cccc(C=Cc3ccc(O)cc3)c2)oc1=C

>  <Energy>  (14) 
77.71149520327462

>  <Genealogy>  (14) 
C=c1cc(-c2cccc(C=Cc3ccc(O)cc3)c2)oc1=C (3D coordinates assigned)
C=c1cc(-c2cccc(C=Cc3ccc(O)cc3)c2)oc1=C (optimized conformer: 77.71149520327462 kcal/mol)

>  <smiles>  (14) 
C=c1cc(-c2cccc(C=Cc3ccc(O)cc3)c2)oc1=C

>  <score_type>  (14) 
oracle

>  <origin>  (14) 
adg

>  <m_score__min__energy>  (14) 
-8.3399999999999999

>  <m_primary>  (14) 
energy

$$$$
14:0
     RDKit          3D

 33 34  0  0  0  0  0  0  0  0999 V2000
   59.0410   32.2520   47.1230 C   0  0  0  0  0  0  0  0  0  0  0  0
   58.7160   31.0160   46.3350 C   0  0  0  0  0  0  0  0  0  0  0  0
   59.5820   29.9230   46.3610 C   0  0  0  0  0  0  0  0  0  0  0  0
   59.3250   28.7740   45.5940 C   0  0  0  0  0  0  0  0  0  0  0  0
   60.3520   27.6610   45.6290 C   0  0  0  0  0  0  0  0  0  0  0  0
   60.1710   26.6290   47.1290 S   0  0  0  0  0  0  0  0  0  0  0  0
   58.6630   25.8360   46.5770 C   0  0  0  0  0  0  0  0  0  0  0  0
   58.6660   24.5090   46.2780 N   0  0  0  0  0  0  0  0  0  0  0  0
   57.5270   23.8800   45.8910 C   0  0  0  0  0  0  0  0  0  0  0  0
   57.5500   22.6500   45.6250 O   0  0  0  0  0  0  0  0  0  0  0  0
   56.3340   24.5970   45.7930 C   0  0  0  0  0  0  0  0  0  0  0  0
   56.3500   25.9620   46.0990 C   0  0  0  0  0  0  0  0  0  0  0  0
   55.1880   26.7230   46.0150 O   0  0  0  0  0  0  0  0  0  0  0  0
   57.5120   26.5520   46.4840 N   0  0  0  0  0  0  0  0  0  0  0  0
   58.1590   28.7220   44.7770 C   0  0  0  0  0  0  0  0  0  0  0  0
   57.8280   27.4810   43.9760 C   0  0  0  0  0  0  0  0  0  0  0  0
   57.3190   29.8690   44.6980 C   0  0  0  0  0  0  0  0  0  0  0  0
   56.1550   29.9490   43.7790 C   0  0  0  0  0  0  0  0  0  0  0  0
   56.2750   30.5040   42.6540 O   0  0  0  0  0  0  0  0  0  0  0  0
   54.9380   29.3690   44.1140 O   0  0  0  0  0  0  0  0  0  0  0  0
   57.6020   30.9910   45.4940 C   0  0  0  0  0  0  0  0  0  0  0  0
   58.9820   32.0274   48.1982 H   0  0  0  0  0  0  0  0  0  0  0  0
   60.0582   32.5887   46.8741 H   0  0  0  0  0  0  0  0  0  0  0  0
   58.3210   33.0455   46.8741 H   0  0  0  0  0  0  0  0  0  0  0  0
   60.4817   29.9611   46.9928 H   0  0  0  0  0  0  0  0  0  0  0  0
   60.2214   27.0260   44.7403 H   0  0  0  0  0  0  0  0  0  0  0  0
   61.3536   28.1157   45.6415 H   0  0  0  0  0  0  0  0  0  0  0  0
   55.4028   24.1006   45.4824 H   0  0  0  0  0  0  0  0  0  0  0  0
   55.1440   27.5630   45.4500 H   0  0  0  0  0  0  0  0  0  0  0  0
   57.6064   26.6501   44.6620 H   0  0  0  0  0  0  0  0  0  0  0  0
   56.9507   27.6770   43.3420 H   0  0  0  0  0  0  0  0  0  0  0  0
   58.6863   27.2141   43.3420 H   0  0  0  0  0  0  0  0  0  0  0  0
   56.9348   31.8646   45.4541 H   0  0  0  0  0  0  0  0  0  0  0  0
  1  2  1  0
  2  3  2  0
  3  4  1  0
  4  5  1  0
  5  6  1  0
  6  7  1  0
  7  8  2  0
  8  9  1  0
  9 10  2  0
  9 11  1  0
 11 12  2  0
 12 13  1  0
 12 14  1  0
  4 15  2  0
 15 16  1  0
 15 17  1  0
 17 18  1  0
 18 19  2  0
 18 20  1  0
 17 21  2  0
 21  2  1  0
 14  7  1  0
  1 22  1  0
  1 23  1  0
  1 24  1  0
  3 25  1  0
  5 26  1  0
  5 27  1  0
 11 28  1  0
 13 29  1  0
 16 30  1  0
 16 31  1  0
 16 32  1  0
 21 33  1  0
M  CHG  2  14  -1  20  -1
M  END
>  <UniqueID>  (15) 
12

>  <SMILES>  (15) 
Cc1cc(CSc2nc(=O)cc(O)[n-]2)c(C)c(C(=O)[O-])c1

>  <Energy>  (15) 
36.67804233669594

>  <Genealogy>  (15) 
Cc1cc(CSc2nc(=O)cc(O)[n-]2)c(C)c(C(=O)[O-])c1 (protonated)
Cc1cc(CSc2nc(=O)cc(O)[n-]2)c(C)c(C(=O)[O-])c1 (3D coordinates assigned)
Cc1cc(CSc2nc(=O)cc(O)[n-]2)c(C)c(C(=O)[O-])c1 (optimized conformer: 36.67804233669594 kcal/mol)

>  <smiles>  (15) 
Cc1cc(CSc2nc(=O)cc(O)[nH]2)c(C)c(C(=O)O)c1

>  <score_type>  (15) 
oracle

>  <origin>  (15) 
adg

>  <m_score__min__energy>  (15) 
-11.359999999999999

>  <m_primary>  (15) 
energy

$$$$
15:0
     RDKit          3D

 44 47  0  0  0  0  0  0  0  0999 V2000
   56.6302   34.6278   45.0118 H   0  0  0  0  0  0  0  0  0  0  0  0
   57.2020   33.7150   45.2350 C   0  0  0  0  0  0  0  0  0  0  0  0
   56.6440   32.4740   45.2020 N   0  0  0  0  0  0  0  0  0  0  0  0
   57.5450   31.5110   45.4970 C   0  0  0  0  0  0  0  0  0  0  0  0
   57.2080   30.2580   45.5830 N   0  0  0  0  0  0  0  0  0  0  0  0
   56.3950   29.5310   44.6490 C   0  0  0  0  0  0  0  0  0  0  0  0
   55.1660   29.3490   44.8590 O   0  0  0  0  0  0  0  0  0  0  0  0
   57.0200   28.9600   43.4140 C   0  0  0  0  0  0  0  0  0  0  0  0
   56.3460   28.1999   42.9921 H   0  0  0  0  0  0  0  0  0  0  0  0
   57.1831   29.7816   42.7010 H   0  0  0  0  0  0  0  0  0  0  0  0
   58.6380   28.1850   43.7710 S   0  0  0  0  0  0  0  0  0  0  0  0
   58.0370   27.1530   45.1150 C   0  0  0  0  0  0  0  0  0  0  0  0
   57.1640   26.1500   44.9210 N   0  0  0  0  0  0  0  0  0  0  0  0
   56.8560   25.7370   46.1700 C   0  0  0  0  0  0  0  0  0  0  0  0
   55.8810   24.6590   46.4450 C   0  0  0  0  0  0  0  0  0  0  0  0
   56.0630   23.7950   47.5410 C   0  0  0  0  0  0  0  0  0  0  0  0
   56.9280   23.9307   48.2068 H   0  0  0  0  0  0  0  0  0  0  0  0
   55.1500   22.7650   47.7880 C   0  0  0  0  0  0  0  0  0  0  0  0
   55.3000   22.0932   48.6460 H   0  0  0  0  0  0  0  0  0  0  0  0
   54.0490   22.5870   46.9490 C   0  0  0  0  0  0  0  0  0  0  0  0
   53.3323   21.7760   47.1456 H   0  0  0  0  0  0  0  0  0  0  0  0
   53.8580   23.4410   45.8580 C   0  0  0  0  0  0  0  0  0  0  0  0
   52.9900   23.3012   45.1969 H   0  0  0  0  0  0  0  0  0  0  0  0
   54.7680   24.4720   45.6060 C   0  0  0  0  0  0  0  0  0  0  0  0
   54.6125   25.1407   44.7466 H   0  0  0  0  0  0  0  0  0  0  0  0
   57.4860   26.4350   47.1410 N   0  0  0  0  0  0  0  0  0  0  0  0
   58.2460   27.3230   46.4720 C   0  0  0  0  0  0  0  0  0  0  0  0
   59.0880   28.3380   47.1450 C   0  0  0  0  0  0  0  0  0  0  0  0
   58.8250   28.6850   48.4800 C   0  0  0  0  0  0  0  0  0  0  0  0
   57.9944   28.2031   49.0166 H   0  0  0  0  0  0  0  0  0  0  0  0
   59.6130   29.6400   49.1320 C   0  0  0  0  0  0  0  0  0  0  0  0
   59.3928   29.9154   50.1740 H   0  0  0  0  0  0  0  0  0  0  0  0
   60.6790   30.2440   48.4610 C   0  0  0  0  0  0  0  0  0  0  0  0
   61.2930   31.0004   48.9718 H   0  0  0  0  0  0  0  0  0  0  0  0
   60.9650   29.8870   47.1410 C   0  0  0  0  0  0  0  0  0  0  0  0
   61.8114   30.3547   46.6168 H   0  0  0  0  0  0  0  0  0  0  0  0
   60.1770   28.9360   46.4850 C   0  0  0  0  0  0  0  0  0  0  0  0
   60.4099   28.6541   45.4476 H   0  0  0  0  0  0  0  0  0  0  0  0
   59.0760   32.1580   45.8100 S   0  0  0  0  0  0  0  0  0  0  0  0
   58.5520   33.7400   45.5730 C   0  0  0  0  0  0  0  0  0  0  0  0
   59.4160   34.9540   45.6580 C   0  0  0  0  0  0  0  0  0  0  0  0
   59.5940   35.2041   46.7143 H   0  0  0  0  0  0  0  0  0  0  0  0
   60.3771   34.7555   45.1612 H   0  0  0  0  0  0  0  0  0  0  0  0
   58.9136   35.7971   45.1612 H   0  0  0  0  0  0  0  0  0  0  0  0
  1  2  1  0
  2  3  1  0
  3  4  1  0
  4  5  2  0
  5  6  1  0
  6  7  2  0
  6  8  1  0
  8  9  1  0
  8 10  1  0
  8 11  1  0
 11 12  1  0
 12 13  1  0
 13 14  2  0
 14 15  1  0
 15 16  2  0
 16 17  1  0
 16 18  1  0
 18 19  1  0
 18 20  2  0
 20 21  1  0
 20 22  1  0
 22 23  1  0
 22 24  2  0
 24 25  1  0
 14 26  1  0
 26 27  1  0
 27 28  1  0
 28 29  2  0
 29 30  1  0
 29 31  1  0
 31 32  1  0
 31 33  2  0
 33 34  1  0
 33 35  1  0
 35 36  1  0
 35 37  2  0
 37 38  1  0
  4 39  1  0
 39 40  1  0
 40 41  1  0
 41 42  1  0
 41 43  1  0
 41 44  1  0
 40  2  2  0
 27 12  2  0
 37 28  1  0
 24 15  1  0
M  CHG  2   3  -1  26  -1
M  END
>  <UniqueID>  (16) 
13

>  <SMILES>  (16) 
Cc1c[n-]/c(=N/C(=O)CSc2nc(-c3ccccc3)[n-]c2-c2ccccc2)s1

>  <Energy>  (16) 
106.08482585504407

>  <Genealogy>  (16) 
Cc1c[n-]c(=NC(=O)CSc2nc(-c3ccccc3)[n-]c2-c2ccccc2)s1 (protonated)
Cc1c[n-]/c(=N/C(=O)CSc2nc(-c3ccccc3)[n-]c2-c2ccccc2)s1 (cis-trans isomerization)
Cc1c[n-]/c(=N/C(=O)CSc2nc(-c3ccccc3)[n-]c2-c2ccccc2)s1 (3D coordinates assigned)
Cc1c[n-]/c(=N/C(=O)CSc2nc(-c3ccccc3)[n-]c2-c2ccccc2)s1 (optimized conformer: 106.08482585504407 kcal/mol)

>  <smiles>  (16) 
Cc1c[nH]c(=NC(=O)CSc2nc(-c3ccccc3)[nH]c2-c2ccccc2)s1

>  <score_type>  (16) 
oracle

>  <origin>  (16) 
adg

>  <m_score__min__energy>  (16) 
-11.26

>  <m_primary>  (16) 
energy

$$$$
16:0
     RDKit          3D

 74 78  0  0  0  0  0  0  0  0999 V2000
   56.2830   31.1630   52.1350 C   0  0  0  0  0  0  0  0  0  0  0  0
   57.5280   31.9260   51.7740 C   0  0  0  0  0  0  0  0  0  0  0  0
   57.7910   33.1820   52.3450 C   0  0  0  0  0  0  0  0  0  0  0  0
   58.9570   33.8760   52.0100 C   0  0  0  0  0  0  0  0  0  0  0  0
   59.8600   33.3310   51.0910 C   0  0  0  0  0  0  0  0  0  0  0  0
   59.6040   32.0810   50.5030 C   0  0  0  0  0  0  0  0  0  0  0  0
   60.5690   31.5020   49.4980 C   0  0  0  0  0  0  0  0  0  0  0  0
   60.7870   32.4420   48.3870 N   0  0  0  0  0  0  0  0  0  0  0  0
   61.9810   32.8530   47.8970 C   0  0  0  0  0  0  0  0  0  0  0  0
   63.3270   32.3720   48.3560 C   0  0  0  0  0  0  0  0  0  0  0  0
   61.7980   33.7770   46.8860 C   0  0  0  0  0  0  0  0  0  0  0  0
   60.4340   33.9640   46.7650 C   0  0  0  0  0  0  0  0  0  0  0  0
   59.7660   34.9160   45.8510 C   0  0  0  0  0  0  0  0  0  0  0  0
   59.6590   36.1280   46.1760 O   0  0  0  0  0  0  0  0  0  0  0  0
   59.2420   34.4840   44.5070 C   0  0  0  0  0  0  0  0  0  0  0  0
   57.4750   33.9690   44.5070 S   0  0  0  0  0  0  0  0  0  0  0  0
   57.7290   32.2330   44.8740 C   0  0  0  0  0  0  0  0  0  0  0  0
   56.6890   31.3600   44.8210 N   0  0  0  0  0  0  0  0  0  0  0  0
   56.8750   30.0340   45.0540 C   0  0  0  0  0  0  0  0  0  0  0  0
   55.8920   29.2490   44.9820 O   0  0  0  0  0  0  0  0  0  0  0  0
   58.1570   29.5530   45.3830 C   0  0  0  0  0  0  0  0  0  0  0  0
   58.4080   28.0940   45.6970 C   0  0  0  0  0  0  0  0  0  0  0  0
   59.1330   27.9110   47.0120 C   0  0  0  0  0  0  0  0  0  0  0  0
   58.8990   28.7730   48.1010 C   0  0  0  0  0  0  0  0  0  0  0  0
   59.5550   28.5700   49.3220 C   0  0  0  0  0  0  0  0  0  0  0  0
   60.4870   27.5250   49.4660 C   0  0  0  0  0  0  0  0  0  0  0  0
   61.1560   27.3040   50.7250 N   0  0  0  0  0  0  0  0  0  0  0  0
   61.1250   25.9820   51.3720 C   0  0  0  0  0  0  0  0  0  0  0  0
   62.5430   25.5200   51.7510 C   0  0  0  0  0  0  0  0  0  0  0  0
   63.4890   26.6800   52.1330 C   0  0  0  0  0  0  0  0  0  0  0  0
   62.7200   27.9380   52.5540 C   0  0  0  0  0  0  0  0  0  0  0  0
   61.8310   28.4270   51.4030 C   0  0  0  0  0  0  0  0  0  0  0  0
   60.7480   26.6910   48.3620 C   0  0  0  0  0  0  0  0  0  0  0  0
   60.0810   26.8840   47.1490 C   0  0  0  0  0  0  0  0  0  0  0  0
   59.2110   30.4790   45.4370 C   0  0  0  0  0  0  0  0  0  0  0  0
   58.9770   31.7900   45.1760 N   0  0  0  0  0  0  0  0  0  0  0  0
   59.8340   33.1130   47.6920 C   0  0  0  0  0  0  0  0  0  0  0  0
   58.3550   32.9910   47.9330 C   0  0  0  0  0  0  0  0  0  0  0  0
   58.4350   31.3820   50.8530 C   0  0  0  0  0  0  0  0  0  0  0  0
   56.1917   31.1071   53.2298 H   0  0  0  0  0  0  0  0  0  0  0  0
   55.4041   31.6778   51.7196 H   0  0  0  0  0  0  0  0  0  0  0  0
   56.3427   30.1462   51.7196 H   0  0  0  0  0  0  0  0  0  0  0  0
   57.0773   33.6207   53.0579 H   0  0  0  0  0  0  0  0  0  0  0  0
   59.1652   34.8532   52.4701 H   0  0  0  0  0  0  0  0  0  0  0  0
   60.7741   33.8834   50.8277 H   0  0  0  0  0  0  0  0  0  0  0  0
   61.5297   31.3001   49.9943 H   0  0  0  0  0  0  0  0  0  0  0  0
   60.1448   30.5702   49.0957 H   0  0  0  0  0  0  0  0  0  0  0  0
   63.3572   32.3612   49.4555 H   0  0  0  0  0  0  0  0  0  0  0  0
   63.5028   31.3554   47.9744 H   0  0  0  0  0  0  0  0  0  0  0  0
   64.1073   33.0469   47.9744 H   0  0  0  0  0  0  0  0  0  0  0  0
   62.5842   34.2677   46.2934 H   0  0  0  0  0  0  0  0  0  0  0  0
   59.3547   35.3255   43.8075 H   0  0  0  0  0  0  0  0  0  0  0  0
   59.8259   33.5994   44.2129 H   0  0  0  0  0  0  0  0  0  0  0  0
   57.4416   27.5711   45.7491 H   0  0  0  0  0  0  0  0  0  0  0  0
   59.0433   27.6806   44.8998 H   0  0  0  0  0  0  0  0  0  0  0  0
   58.1959   29.6119   47.9919 H   0  0  0  0  0  0  0  0  0  0  0  0
   59.3403   29.2317   50.1741 H   0  0  0  0  0  0  0  0  0  0  0  0
   60.5107   26.0415   52.2825 H   0  0  0  0  0  0  0  0  0  0  0  0
   60.6971   25.2559   50.6651 H   0  0  0  0  0  0  0  0  0  0  0  0
   62.4682   24.8352   52.6086 H   0  0  0  0  0  0  0  0  0  0  0  0
   62.9719   25.0325   50.8631 H   0  0  0  0  0  0  0  0  0  0  0  0
   64.1259   26.3572   52.9698 H   0  0  0  0  0  0  0  0  0  0  0  0
   64.0904   26.9318   51.2471 H   0  0  0  0  0  0  0  0  0  0  0  0
   62.0903   27.7042   53.4251 H   0  0  0  0  0  0  0  0  0  0  0  0
   63.4399   28.7287   52.8117 H   0  0  0  0  0  0  0  0  0  0  0  0
   61.0694   29.1110   51.8056 H   0  0  0  0  0  0  0  0  0  0  0  0
   62.4694   28.9396   50.6683 H   0  0  0  0  0  0  0  0  0  0  0  0
   61.4844   25.8792   48.4551 H   0  0  0  0  0  0  0  0  0  0  0  0
   60.3003   26.2263   46.2950 H   0  0  0  0  0  0  0  0  0  0  0  0
   60.2267   30.1417   45.6909 H   0  0  0  0  0  0  0  0  0  0  0  0
   58.1600   32.9749   49.0155 H   0  0  0  0  0  0  0  0  0  0  0  0
   57.8376   33.8495   47.4799 H   0  0  0  0  0  0  0  0  0  0  0  0
   57.9853   32.0593   47.4799 H   0  0  0  0  0  0  0  0  0  0  0  0
   58.2303   30.4004   50.4006 H   0  0  0  0  0  0  0  0  0  0  0  0
  1  2  1  0
  2  3  2  0
  3  4  1  0
  4  5  2  0
  5  6  1  0
  6  7  1  0
  7  8  1  0
  8  9  1  0
  9 10  1  0
  9 11  2  0
 11 12  1  0
 12 13  1  0
 13 14  2  0
 13 15  1  0
 15 16  1  0
 16 17  1  0
 17 18  2  0
 18 19  1  0
 19 20  2  0
 19 21  1  0
 21 22  1  0
 22 23  1  0
 23 24  2  0
 24 25  1  0
 25 26  2  0
 26 27  1  0
 27 28  1  0
 28 29  1  0
 29 30  1  0
 30 31  1  0
 31 32  1  0
 26 33  1  0
 33 34  2  0
 21 35  2  0
 35 36  1  0
 12 37  2  0
 37 38  1  0
  6 39  2  0
 39  2  1  0
 37  8  1  0
 36 17  1  0
 34 23  1  0
 32 27  1  0
  1 40  1  0
  1 41  1  0
  1 42  1  0
  3 43  1  0
  4 44  1  0
  5 45  1  0
  7 46  1  0
  7 47  1  0
 10 48  1  0
 10 49  1  0
 10 50  1  0
 11 51  1  0
 15 52  1  0
 15 53  1  0
 22 54  1  0
 22 55  1  0
 24 56  1  0
 25 57  1  0
 28 58  1  0
 28 59  1  0
 29 60  1  0
 29 61  1  0
 30 62  1  0
 30 63  1  0
 31 64  1  0
 31 65  1  0
 32 66  1  0
 32 67  1  0
 33 68  1  0
 34 69  1  0
 35 70  1  0
 38 71  1  0
 38 72  1  0
 38 73  1  0
 39 74  1  0
M  CHG  1  36  -1
M  END
>  <UniqueID>  (17) 
14

>  <SMILES>  (17) 
Cc1cccc(Cn2c(C)cc(C(=O)CSc3nc(=O)c(Cc4ccc(N5CCCCC5)cc4)c[n-]3)c2C)c1

>  <Energy>  (17) 
108.6971471225387

>  <Genealogy>  (17) 
Cc1cccc(Cn2c(C)cc(C(=O)CSc3nc(=O)c(Cc4ccc(N5CCCCC5)cc4)c[n-]3)c2C)c1 (protonated)
Cc1cccc(Cn2c(C)cc(C(=O)CSc3nc(=O)c(Cc4ccc(N5CCCCC5)cc4)c[n-]3)c2C)c1 (3D coordinates assigned)
Cc1cccc(Cn2c(C)cc(C(=O)CSc3nc(=O)c(Cc4ccc(N5CCCCC5)cc4)c[n-]3)c2C)c1 (nonaromatic ring conformer: 108.6971471225387 kcal/mol)

>  <smiles>  (17) 
Cc1cccc(Cn2c(C)cc(C(=O)CSc3nc(=O)c(Cc4ccc(N5CCCCC5)cc4)c[nH]3)c2C)c1

>  <score_type>  (17) 
oracle

>  <origin>  (17) 
adg

>  <m_score__min__energy>  (17) 
-11.56

>  <m_primary>  (17) 
energy

$$$$
17:0
     RDKit          3D

 42 45  0  0  0  0  0  0  0  0999 V2000
   60.1620   33.6900   50.0160 C   0  0  0  0  0  0  0  0  0  0  0  0
   60.9850   33.5430   48.9840 C   0  0  0  0  0  0  0  0  0  0  0  0
   60.9970   34.2790   47.7230 C   0  0  0  0  0  0  0  0  0  0  0  0
   60.0470   35.2330   47.3510 O   0  0  0  0  0  0  0  0  0  0  0  0
   59.5290   35.3260   46.0290 C   0  0  0  0  0  0  0  0  0  0  0  0
   58.9420   34.0050   45.6190 C   0  0  0  0  0  0  0  0  0  0  0  0
   58.4950   33.0900   46.5850 C   0  0  0  0  0  0  0  0  0  0  0  0
   57.9260   31.8740   46.1960 C   0  0  0  0  0  0  0  0  0  0  0  0
   57.7810   31.5540   44.8330 C   0  0  0  0  0  0  0  0  0  0  0  0
   57.1730   30.2590   44.4370 C   0  0  0  0  0  0  0  0  0  0  0  0
   55.9290   30.0950   44.5710 O   0  0  0  0  0  0  0  0  0  0  0  0
   57.9680   29.2010   43.8780 N   0  0  0  0  0  0  0  0  0  0  0  0
   57.4160   27.8630   43.6880 C   0  0  0  0  0  0  0  0  0  0  0  0
   58.3580   26.7410   44.0900 C   0  0  0  0  0  0  0  0  0  0  0  0
   58.1390   27.0600   42.6200 C   0  0  0  0  0  0  0  0  0  0  0  0
   58.2360   32.4720   43.8690 C   0  0  0  0  0  0  0  0  0  0  0  0
   58.8010   33.6900   44.2590 C   0  0  0  0  0  0  0  0  0  0  0  0
   62.0180   33.9510   46.9880 N   0  0  0  0  0  0  0  0  0  0  0  0
   62.6990   32.9430   47.7350 C   0  0  0  0  0  0  0  0  0  0  0  0
   62.1380   32.6670   48.8760 C   0  0  0  0  0  0  0  0  0  0  0  0
   63.1450   32.2390   49.8890 C   0  0  0  0  0  0  0  0  0  0  0  0
   64.4630   32.2550   49.0770 C   0  0  0  0  0  0  0  0  0  0  0  0
   64.0950   32.7350   47.7480 N   0  0  0  0  0  0  0  0  0  0  0  0
   60.2781   33.0552   50.9068 H   0  0  0  0  0  0  0  0  0  0  0  0
   59.3643   34.4465   49.9799 H   0  0  0  0  0  0  0  0  0  0  0  0
   58.7471   36.0990   45.9966 H   0  0  0  0  0  0  0  0  0  0  0  0
   60.3422   35.5926   45.3379 H   0  0  0  0  0  0  0  0  0  0  0  0
   58.5930   33.3312   47.6538 H   0  0  0  0  0  0  0  0  0  0  0  0
   57.5884   31.1605   46.9621 H   0  0  0  0  0  0  0  0  0  0  0  0
   58.9660   29.3710   43.6220 H   0  0  0  0  0  0  0  0  0  0  0  0
   56.3673   28.1124   43.9073 H   0  0  0  0  0  0  0  0  0  0  0  0
   59.3214   26.9757   44.5662 H   0  0  0  0  0  0  0  0  0  0  0  0
   58.2711   25.8374   44.7113 H   0  0  0  0  0  0  0  0  0  0  0  0
   58.9439   27.5256   42.0323 H   0  0  0  0  0  0  0  0  0  0  0  0
   57.8280   26.4829   41.7367 H   0  0  0  0  0  0  0  0  0  0  0  0
   58.1465   32.2296   42.7998 H   0  0  0  0  0  0  0  0  0  0  0  0
   59.1372   34.4060   43.4946 H   0  0  0  0  0  0  0  0  0  0  0  0
   63.1878   32.9460   50.7306 H   0  0  0  0  0  0  0  0  0  0  0  0
   62.9219   31.2629   50.3445 H   0  0  0  0  0  0  0  0  0  0  0  0
   65.1933   32.9333   49.5424 H   0  0  0  0  0  0  0  0  0  0  0  0
   64.9306   31.2601   49.0372 H   0  0  0  0  0  0  0  0  0  0  0  0
   64.7630   33.0580   47.0130 H   0  0  0  0  0  0  0  0  0  0  0  0
  1  2  2  0
  2  3  1  0
  3  4  1  0
  4  5  1  0
  5  6  1  0
  6  7  2  0
  7  8  1  0
  8  9  2  0
  9 10  1  0
 10 11  2  0
 10 12  1  0
 12 13  1  0
 13 14  1  0
 14 15  1  0
  9 16  1  0
 16 17  2  0
  3 18  2  0
 18 19  1  0
 19 20  2  0
 20 21  1  0
 21 22  1  0
 22 23  1  0
 20  2  1  0
 17  6  1  0
 23 19  1  0
 15 13  1  0
  1 24  1  0
  1 25  1  0
  5 26  1  0
  5 27  1  0
  7 28  1  0
  8 29  1  0
 12 30  1  0
 13 31  1  0
 14 32  1  0
 14 33  1  0
 15 34  1  0
 15 35  1  0
 16 36  1  0
 17 37  1  0
 21 38  1  0
 21 39  1  0
 22 40  1  0
 22 41  1  0
 23 42  1  0
M  END
>  <UniqueID>  (18) 
15

>  <SMILES>  (18) 
C=C1C(OCc2ccc(C(=O)NC3CC3)cc2)=NC2=C1CCN2

>  <Energy>  (18) 
356.45112587548084

>  <Genealogy>  (18) 
C=C1C(OCc2ccc(C(=O)NC3CC3)cc2)=NC2=C1CCN2 (3D coordinates assigned)
C=C1C(OCc2ccc(C(=O)NC3CC3)cc2)=NC2=C1CCN2 (nonaromatic ring conformer: 356.45112587548084 kcal/mol)

>  <smiles>  (18) 
C=C1C(OCc2ccc(C(=O)NC3CC3)cc2)=NC2=C1CCN2

>  <score_type>  (18) 
oracle

>  <origin>  (18) 
adg

>  <m_score__min__energy>  (18) 
-8.1300000000000008

>  <m_primary>  (18) 
energy

$$$$
18:0
     RDKit          3D

 55 58  0  0  0  0  0  0  0  0999 V2000
   55.2490   23.7100   44.3380 C   0  0  0  0  0  0  0  0  0  0  0  0
   55.9740   24.7310   45.0830 N   0  0  0  0  0  0  0  0  0  0  0  0
   57.2630   25.0710   44.8980 C   0  0  0  0  0  0  0  0  0  0  0  0
   57.5490   26.0960   45.7680 C   0  0  0  0  0  0  0  0  0  0  0  0
   58.7880   26.7280   45.9090 O   0  0  0  0  0  0  0  0  0  0  0  0
   59.3860   27.5280   44.8900 C   0  0  0  0  0  0  0  0  0  0  0  0
   58.5330   28.7300   44.5680 C   0  0  0  0  0  0  0  0  0  0  0  0
   57.3790   28.5860   43.7820 C   0  0  0  0  0  0  0  0  0  0  0  0
   56.5980   29.7010   43.4700 C   0  0  0  0  0  0  0  0  0  0  0  0
   56.9600   30.9670   43.9350 C   0  0  0  0  0  0  0  0  0  0  0  0
   58.1180   31.1330   44.7150 C   0  0  0  0  0  0  0  0  0  0  0  0
   58.4980   32.4710   45.2290 C   0  0  0  0  0  0  0  0  0  0  0  0
   58.5070   33.5890   44.3780 C   0  0  0  0  0  0  0  0  0  0  0  0
   58.8750   34.8440   44.8680 C   0  0  0  0  0  0  0  0  0  0  0  0
   59.2460   34.9980   46.2060 C   0  0  0  0  0  0  0  0  0  0  0  0
   59.2610   33.8890   47.0690 C   0  0  0  0  0  0  0  0  0  0  0  0
   59.6690   34.0460   48.5210 C   0  0  0  0  0  0  0  0  0  0  0  0
   61.1290   34.1870   48.7200 N   0  0  0  0  0  0  0  0  0  0  0  0
   61.5970   33.7150   50.0440 C   0  0  0  0  0  0  0  0  0  0  0  0
   63.1260   33.6580   50.0970 C   0  0  0  0  0  0  0  0  0  0  0  0
   63.6810   32.6480   49.0650 C   0  0  0  0  0  0  0  0  0  0  0  0
   64.9430   33.0710   48.6170 O   0  0  0  0  0  0  0  0  0  0  0  0
   62.7400   32.4690   47.8540 C   0  0  0  0  0  0  0  0  0  0  0  0
   61.9540   33.7550   47.5620 C   0  0  0  0  0  0  0  0  0  0  0  0
   58.8610   32.6350   46.5780 C   0  0  0  0  0  0  0  0  0  0  0  0
   58.9090   30.0090   45.0110 C   0  0  0  0  0  0  0  0  0  0  0  0
   56.3760   26.3470   46.4570 C   0  0  0  0  0  0  0  0  0  0  0  0
   55.4250   25.5000   46.0130 N   0  0  0  0  0  0  0  0  0  0  0  0
   54.7596   23.0207   45.0418 H   0  0  0  0  0  0  0  0  0  0  0  0
   54.4878   24.1892   43.7049 H   0  0  0  0  0  0  0  0  0  0  0  0
   55.9524   23.1492   43.7049 H   0  0  0  0  0  0  0  0  0  0  0  0
   57.9603   24.6124   44.1814 H   0  0  0  0  0  0  0  0  0  0  0  0
   60.3725   27.8705   45.2356 H   0  0  0  0  0  0  0  0  0  0  0  0
   59.4838   26.9170   43.9805 H   0  0  0  0  0  0  0  0  0  0  0  0
   57.0889   27.5920   43.4107 H   0  0  0  0  0  0  0  0  0  0  0  0
   55.6937   29.5814   42.8552 H   0  0  0  0  0  0  0  0  0  0  0  0
   56.3359   31.8390   43.6898 H   0  0  0  0  0  0  0  0  0  0  0  0
   58.2230   33.4753   43.3214 H   0  0  0  0  0  0  0  0  0  0  0  0
   58.8727   35.7156   44.1970 H   0  0  0  0  0  0  0  0  0  0  0  0
   59.5275   35.9913   46.5856 H   0  0  0  0  0  0  0  0  0  0  0  0
   59.1759   34.9426   48.9247 H   0  0  0  0  0  0  0  0  0  0  0  0
   59.3624   33.1264   49.0409 H   0  0  0  0  0  0  0  0  0  0  0  0
   61.2356   34.4054   50.8204 H   0  0  0  0  0  0  0  0  0  0  0  0
   61.2024   32.7025   50.2147 H   0  0  0  0  0  0  0  0  0  0  0  0
   63.5308   34.6567   49.8760 H   0  0  0  0  0  0  0  0  0  0  0  0
   63.4291   33.3323   51.1030 H   0  0  0  0  0  0  0  0  0  0  0  0
   63.7618   31.6749   49.5714 H   0  0  0  0  0  0  0  0  0  0  0  0
   65.0320   32.7590   47.6790 H   0  0  0  0  0  0  0  0  0  0  0  0
   63.3399   32.2074   46.9699 H   0  0  0  0  0  0  0  0  0  0  0  0
   62.0219   31.6694   48.0882 H   0  0  0  0  0  0  0  0  0  0  0  0
   62.6660   34.5567   47.3163 H   0  0  0  0  0  0  0  0  0  0  0  0
   61.2739   33.5503   46.7220 H   0  0  0  0  0  0  0  0  0  0  0  0
   58.8313   31.7703   47.2572 H   0  0  0  0  0  0  0  0  0  0  0  0
   59.8324   30.1324   45.5959 H   0  0  0  0  0  0  0  0  0  0  0  0
   56.2413   27.1105   47.2373 H   0  0  0  0  0  0  0  0  0  0  0  0
  1  2  1  0
  2  3  1  0
  3  4  2  0
  4  5  1  0
  5  6  1  0
  6  7  1  0
  7  8  2  0
  8  9  1  0
  9 10  2  0
 10 11  1  0
 11 12  1  0
 12 13  2  0
 13 14  1  0
 14 15  2  0
 15 16  1  0
 16 17  1  0
 17 18  1  0
 18 19  1  0
 19 20  1  0
 20 21  1  0
 21 22  1  0
 21 23  1  0
 23 24  1  0
 16 25  2  0
 11 26  2  0
  4 27  1  0
 27 28  2  0
 28  2  1  0
 26  7  1  0
 25 12  1  0
 24 18  1  0
  1 29  1  0
  1 30  1  0
  1 31  1  0
  3 32  1  0
  6 33  1  0
  6 34  1  0
  8 35  1  0
  9 36  1  0
 10 37  1  0
 13 38  1  0
 14 39  1  0
 15 40  1  0
 17 41  1  0
 17 42  1  0
 19 43  1  0
 19 44  1  0
 20 45  1  0
 20 46  1  0
 21 47  1  0
 22 48  1  0
 23 49  1  0
 23 50  1  0
 24 51  1  0
 24 52  1  0
 25 53  1  0
 26 54  1  0
 27 55  1  0
M  END
>  <UniqueID>  (19) 
16

>  <SMILES>  (19) 
Cn1cc(OCc2cccc(-c3cccc(CN4CCC(O)CC4)c3)c2)cn1

>  <Energy>  (19) 
100.57133888902248

>  <Genealogy>  (19) 
Cn1cc(OCc2cccc(-c3cccc(CN4CCC(O)CC4)c3)c2)cn1 (3D coordinates assigned)
Cn1cc(OCc2cccc(-c3cccc(CN4CCC(O)CC4)c3)c2)cn1 (nonaromatic ring conformer: 100.57133888902248 kcal/mol)

>  <smiles>  (19) 
Cn1cc(OCc2cccc(-c3cccc(CN4CCC(O)CC4)c3)c2)cn1

>  <score_type>  (19) 
oracle

>  <origin>  (19) 
adg

>  <m_score__min__energy>  (19) 
-9.2100000000000009

>  <m_primary>  (19) 
energy

$$$$
19:0
     RDKit          3D

 61 65  0  0  0  0  0  0  0  0999 V2000
   53.3240   26.7130   45.4040 H   0  0  0  0  0  0  0  0  0  0  0  0
   53.9820   25.9780   45.6350 O   0  0  0  0  0  0  0  0  0  0  0  0
   53.6000   24.6420   45.5840 C   0  0  0  0  0  0  0  0  0  0  0  0
   52.4080   24.2210   45.1260 N   0  0  0  0  0  0  0  0  0  0  0  0
   52.4700   22.8880   45.3260 C   0  0  0  0  0  0  0  0  0  0  0  0
   51.5220   22.1140   45.0270 O   0  0  0  0  0  0  0  0  0  0  0  0
   53.6180   22.4490   45.8850 N   0  0  0  0  0  0  0  0  0  0  0  0
   54.3480   23.5700   46.0170 C   0  0  0  0  0  0  0  0  0  0  0  0
   55.6490   23.6170   46.7010 C   0  0  0  0  0  0  0  0  0  0  0  0
   55.8133   22.8959   47.5153 H   0  0  0  0  0  0  0  0  0  0  0  0
   56.6580   24.4650   46.4190 C   0  0  0  0  0  0  0  0  0  0  0  0
   57.4410   25.0430   47.4030 C   0  0  0  0  0  0  0  0  0  0  0  0
   57.3915   24.8392   48.4828 H   0  0  0  0  0  0  0  0  0  0  0  0
   58.2940   25.9220   46.7730 C   0  0  0  0  0  0  0  0  0  0  0  0
   59.3000   26.7830   47.4770 C   0  0  0  0  0  0  0  0  0  0  0  0
   59.1761   26.6769   48.5648 H   0  0  0  0  0  0  0  0  0  0  0  0
   60.3149   26.4694   47.1913 H   0  0  0  0  0  0  0  0  0  0  0  0
   59.1469   27.8342   47.1913 H   0  0  0  0  0  0  0  0  0  0  0  0
   58.1170   25.8790   45.4320 N   0  0  0  0  0  0  0  0  0  0  0  0
   58.8560   26.7020   44.4600 C   0  0  0  0  0  0  0  0  0  0  0  0
   59.9316   26.4950   44.5609 H   0  0  0  0  0  0  0  0  0  0  0  0
   58.5014   26.4463   43.4506 H   0  0  0  0  0  0  0  0  0  0  0  0
   58.6160   28.1760   44.6880 C   0  0  0  0  0  0  0  0  0  0  0  0
   57.3920   28.7750   44.3420 C   0  0  0  0  0  0  0  0  0  0  0  0
   56.5812   28.1606   43.9235 H   0  0  0  0  0  0  0  0  0  0  0  0
   57.2000   30.1470   44.5270 C   0  0  0  0  0  0  0  0  0  0  0  0
   56.2321   30.6022   44.2702 H   0  0  0  0  0  0  0  0  0  0  0  0
   58.2310   30.9470   45.0370 C   0  0  0  0  0  0  0  0  0  0  0  0
   58.0420   32.3650   45.1830 N   0  0  0  0  0  0  0  0  0  0  0  0
   57.1240   32.9030   46.1900 C   0  0  0  0  0  0  0  0  0  0  0  0
   56.3127   33.4560   45.6941 H   0  0  0  0  0  0  0  0  0  0  0  0
   56.6879   32.0819   46.7779 H   0  0  0  0  0  0  0  0  0  0  0  0
   57.9030   33.8440   47.1060 C   0  0  0  0  0  0  0  0  0  0  0  0
   57.1979   34.3240   47.8006 H   0  0  0  0  0  0  0  0  0  0  0  0
   58.6531   33.2439   47.6419 H   0  0  0  0  0  0  0  0  0  0  0  0
   58.6250   34.9020   46.3530 N   0  0  0  0  0  0  0  0  0  0  0  0
   59.8870   35.3300   46.9930 C   0  0  0  0  0  0  0  0  0  0  0  0
   60.3855   36.0539   46.3315 H   0  0  0  0  0  0  0  0  0  0  0  0
   59.6248   35.7690   47.9669 H   0  0  0  0  0  0  0  0  0  0  0  0
   60.8370   34.1940   47.2590 C   0  0  0  0  0  0  0  0  0  0  0  0
   62.2350   33.8470   46.3860 S   0  0  0  0  0  0  0  0  0  0  0  0
   62.6790   32.4910   47.2760 C   0  0  0  0  0  0  0  0  0  0  0  0
   63.5679   31.8675   47.0997 H   0  0  0  0  0  0  0  0  0  0  0  0
   61.7310   32.2930   48.2720 C   0  0  0  0  0  0  0  0  0  0  0  0
   61.7846   31.4688   48.9985 H   0  0  0  0  0  0  0  0  0  0  0  0
   60.7000   33.2420   48.2640 C   0  0  0  0  0  0  0  0  0  0  0  0
   59.8657   33.2349   48.9808 H   0  0  0  0  0  0  0  0  0  0  0  0
   58.6960   34.7450   44.8800 C   0  0  0  0  0  0  0  0  0  0  0  0
   57.7558   35.1129   44.4433 H   0  0  0  0  0  0  0  0  0  0  0  0
   59.5661   35.3205   44.5311 H   0  0  0  0  0  0  0  0  0  0  0  0
   58.9040   33.2860   44.4360 C   0  0  0  0  0  0  0  0  0  0  0  0
   58.6709   33.2026   43.3642 H   0  0  0  0  0  0  0  0  0  0  0  0
   59.9511   33.0129   44.6335 H   0  0  0  0  0  0  0  0  0  0  0  0
   59.4630   30.3570   45.3520 C   0  0  0  0  0  0  0  0  0  0  0  0
   60.2840   30.9784   45.7391 H   0  0  0  0  0  0  0  0  0  0  0  0
   59.6540   28.9840   45.1770 C   0  0  0  0  0  0  0  0  0  0  0  0
   60.6261   28.5326   45.4246 H   0  0  0  0  0  0  0  0  0  0  0  0
   57.1280   24.9710   45.1960 C   0  0  0  0  0  0  0  0  0  0  0  0
   56.7610   24.5670   43.9680 C   0  0  0  0  0  0  0  0  0  0  0  0
   57.2009   25.0416   43.0785 H   0  0  0  0  0  0  0  0  0  0  0  0
   56.0207   23.7617   43.8523 H   0  0  0  0  0  0  0  0  0  0  0  0
  1  2  1  0
  2  3  1  0
  3  4  1  0
  4  5  1  0
  5  6  2  0
  5  7  1  0
  7  8  1  0
  8  9  1  0
  9 10  1  0
  9 11  2  0
 11 12  1  0
 12 13  1  0
 12 14  2  0
 14 15  1  0
 15 16  1  0
 15 17  1  0
 15 18  1  0
 14 19  1  0
 19 20  1  0
 20 21  1  0
 20 22  1  0
 20 23  1  0
 23 24  2  0
 24 25  1  0
 24 26  1  0
 26 27  1  0
 26 28  2  0
 28 29  1  0
 29 30  1  0
 30 31  1  0
 30 32  1  0
 30 33  1  0
 33 34  1  0
 33 35  1  0
 33 36  1  0
 36 37  1  0
 37 38  1  0
 37 39  1  0
 37 40  1  0
 40 41  1  0
 41 42  1  0
 42 43  1  0
 42 44  2  0
 44 45  1  0
 44 46  1  0
 46 47  1  0
 36 48  1  0
 48 49  1  0
 48 50  1  0
 48 51  1  0
 51 52  1  0
 51 53  1  0
 28 54  1  0
 54 55  1  0
 54 56  2  0
 56 57  1  0
 19 58  1  0
 58 59  2  0
 59 60  1  0
 59 61  1  0
  8  3  2  0
 58 11  1  0
 56 23  1  0
 51 29  1  0
 46 40  2  0
M  CHG  2   4  -1   7  -1
M  END
>  <UniqueID>  (20) 
17

>  <SMILES>  (20) 
C=c1/c(=C\c2[n-]c(=O)[n-]c2O)cc(C)n1Cc1ccc(N2CCN(Cc3cccs3)CC2)cc1

>  <Energy>  (20) 
173.65770404912908

>  <Genealogy>  (20) 
C=c1c(=Cc2[n-]c(=O)[n-]c2O)cc(C)n1Cc1ccc(N2CCN(Cc3cccs3)CC2)cc1 (protonated)
C=c1/c(=C\c2[n-]c(=O)[n-]c2O)cc(C)n1Cc1ccc(N2CCN(Cc3cccs3)CC2)cc1 (cis-trans isomerization)
C=c1/c(=C\c2[n-]c(=O)[n-]c2O)cc(C)n1Cc1ccc(N2CCN(Cc3cccs3)CC2)cc1 (3D coordinates assigned)
C=c1/c(=C\c2[n-]c(=O)[n-]c2O)cc(C)n1Cc1ccc(N2CCN(Cc3cccs3)CC2)cc1 (nonaromatic ring conformer: 173.65770404912908 kcal/mol)

>  <smiles>  (20) 
C=c1c(=Cc2[nH]c(=O)[nH]c2O)cc(C)n1Cc1ccc(N2CCN(Cc3cccs3)CC2)cc1

>  <score_type>  (20) 
oracle

>  <origin>  (20) 
adg

>  <m_score__min__energy>  (20) 
-14.06

>  <m_primary>  (20) 
energy

$$$$
20:0
     RDKit          3D

 50 53  0  0  0  0  0  0  0  0999 V2000
   59.9950   26.0370   45.9620 O   0  0  0  0  0  0  0  0  0  0  0  0
   58.7530   26.1480   45.7870 C   0  0  0  0  0  0  0  0  0  0  0  0
   57.8080   26.0180   46.9540 C   0  0  0  0  0  0  0  0  0  0  0  0
   56.7020   25.1110   46.6460 N   0  0  0  0  0  0  0  0  0  0  0  0
   55.5040   25.4450   46.1160 C   0  0  0  0  0  0  0  0  0  0  0  0
   55.1520   26.7310   45.7270 O   0  0  0  0  0  0  0  0  0  0  0  0
   54.6890   24.3330   46.0350 C   0  0  0  0  0  0  0  0  0  0  0  0
   55.4080   23.2810   46.5470 C   0  0  0  0  0  0  0  0  0  0  0  0
   56.6360   23.7900   46.9210 C   0  0  0  0  0  0  0  0  0  0  0  0
   57.6610   23.0620   47.5130 O   0  0  0  0  0  0  0  0  0  0  0  0
   54.8780   21.8910   46.6830 C   0  0  0  0  0  0  0  0  0  0  0  0
   53.4820   21.7640   46.1080 C   0  0  0  0  0  0  0  0  0  0  0  0
   52.7730   22.7990   45.6050 C   0  0  0  0  0  0  0  0  0  0  0  0
   53.2800   24.2280   45.5470 C   0  0  0  0  0  0  0  0  0  0  0  0
   58.2630   26.3940   44.4650 N   0  0  0  0  0  0  0  0  0  0  0  0
   58.2460   27.7080   43.8340 C   0  0  0  0  0  0  0  0  0  0  0  0
   57.1160   28.5460   44.4260 C   0  0  0  0  0  0  0  0  0  0  0  0
   57.6520   29.8220   45.0070 C   0  0  0  0  0  0  0  0  0  0  0  0
   58.8160   29.8210   45.7850 C   0  0  0  0  0  0  0  0  0  0  0  0
   59.2690   31.0180   46.3410 C   0  0  0  0  0  0  0  0  0  0  0  0
   58.5660   32.2120   46.1180 C   0  0  0  0  0  0  0  0  0  0  0  0
   59.0490   33.4780   46.7120 C   0  0  0  0  0  0  0  0  0  0  0  0
   58.9900   34.5410   46.0370 O   0  0  0  0  0  0  0  0  0  0  0  0
   59.5410   33.5410   48.0530 N   0  0  0  0  0  0  0  0  0  0  0  0
   60.0310   34.6020   48.9500 C   0  0  0  0  0  0  0  0  0  0  0  0
   60.1100   33.7560   50.1760 C   0  0  0  0  0  0  0  0  0  0  0  0
   59.6230   32.6880   49.2550 C   0  0  0  0  0  0  0  0  0  0  0  0
   57.3890   32.1620   45.3560 C   0  0  0  0  0  0  0  0  0  0  0  0
   56.9640   30.9820   44.8290 N   0  0  0  0  0  0  0  0  0  0  0  0
   58.3611   25.6268   47.8207 H   0  0  0  0  0  0  0  0  0  0  0  0
   57.3903   27.0116   47.1740 H   0  0  0  0  0  0  0  0  0  0  0  0
   55.5475   21.2005   46.1491 H   0  0  0  0  0  0  0  0  0  0  0  0
   54.8309   21.6456   47.7542 H   0  0  0  0  0  0  0  0  0  0  0  0
   53.0165   20.7674   46.0994 H   0  0  0  0  0  0  0  0  0  0  0  0
   51.7660   22.5926   45.2134 H   0  0  0  0  0  0  0  0  0  0  0  0
   53.2358   24.5803   44.5059 H   0  0  0  0  0  0  0  0  0  0  0  0
   52.6437   24.8452   46.1984 H   0  0  0  0  0  0  0  0  0  0  0  0
   59.2074   28.2120   44.0120 H   0  0  0  0  0  0  0  0  0  0  0  0
   58.0860   27.5915   42.7520 H   0  0  0  0  0  0  0  0  0  0  0  0
   56.3911   28.7859   43.6342 H   0  0  0  0  0  0  0  0  0  0  0  0
   56.6291   27.9694   45.2263 H   0  0  0  0  0  0  0  0  0  0  0  0
   59.3683   28.8853   45.9564 H   0  0  0  0  0  0  0  0  0  0  0  0
   60.1807   31.0258   46.9565 H   0  0  0  0  0  0  0  0  0  0  0  0
   61.0110   34.9968   48.6437 H   0  0  0  0  0  0  0  0  0  0  0  0
   59.4272   35.5192   49.0146 H   0  0  0  0  0  0  0  0  0  0  0  0
   61.1199   33.6060   50.5853 H   0  0  0  0  0  0  0  0  0  0  0  0
   59.6278   34.0111   51.1312 H   0  0  0  0  0  0  0  0  0  0  0  0
   60.3430   31.8641   49.1423 H   0  0  0  0  0  0  0  0  0  0  0  0
   58.7098   32.1506   49.5504 H   0  0  0  0  0  0  0  0  0  0  0  0
   56.8079   33.0800   45.1841 H   0  0  0  0  0  0  0  0  0  0  0  0
  1  2  2  0
  2  3  1  0
  3  4  1  0
  4  5  1  0
  5  6  1  0
  5  7  2  0
  7  8  1  0
  8  9  2  0
  9 10  1  0
  8 11  1  0
 11 12  1  0
 12 13  2  0
 13 14  1  0
  2 15  1  0
 15 16  1  0
 16 17  1  0
 17 18  1  0
 18 19  2  0
 19 20  1  0
 20 21  2  0
 21 22  1  0
 22 23  2  0
 22 24  1  0
 24 25  1  0
 25 26  1  0
 26 27  1  0
 21 28  1  0
 28 29  2  0
  9  4  1  0
 29 18  1  0
 14  7  1  0
 27 24  1  0
  3 30  1  0
  3 31  1  0
 11 32  1  0
 11 33  1  0
 12 34  1  0
 13 35  1  0
 14 36  1  0
 14 37  1  0
 16 38  1  0
 16 39  1  0
 17 40  1  0
 17 41  1  0
 19 42  1  0
 20 43  1  0
 25 44  1  0
 25 45  1  0
 26 46  1  0
 26 47  1  0
 27 48  1  0
 27 49  1  0
 28 50  1  0
M  CHG  3   6  -1  10  -1  15  -1
M  END
>  <UniqueID>  (21) 
18

>  <SMILES>  (21) 
O=C(Cn1c([O-])c2c(c1[O-])CC=CC2)[N-]CCc1ccc(C(=O)N2CCC2)cn1

>  <Energy>  (21) 
126.24704919278915

>  <Genealogy>  (21) 
O=C(Cn1c([O-])c2c(c1[O-])CC=CC2)[N-]CCc1ccc(C(=O)N2CCC2)cn1 (protonated)
O=C(Cn1c([O-])c2c(c1[O-])CC=CC2)[N-]CCc1ccc(C(=O)N2CCC2)cn1 (3D coordinates assigned)
O=C(Cn1c([O-])c2c(c1[O-])CC=CC2)[N-]CCc1ccc(C(=O)N2CCC2)cn1 (nonaromatic ring conformer: 126.24704919278915 kcal/mol)

>  <smiles>  (21) 
O=C(Cn1c(O)c2c(c1O)CC=CC2)NCCc1ccc(C(=O)N2CCC2)cn1

>  <score_type>  (21) 
oracle

>  <origin>  (21) 
adg

>  <m_score__min__energy>  (21) 
-14.73

>  <m_primary>  (21) 
energy

$$$$
21:0
     RDKit          3D

 55 57  0  0  0  0  0  0  0  0999 V2000
   60.3870   34.7680   46.4030 C   0  0  0  0  0  0  0  0  0  0  0  0
   58.9570   34.6120   45.8710 C   0  0  0  0  0  0  0  0  0  0  0  0
   58.0360   33.9440   46.9240 C   0  0  0  0  0  0  0  0  0  0  0  0
   57.8650   32.4460   46.6440 C   0  0  0  0  0  0  0  0  0  0  0  0
   57.2250   32.2070   45.3300 N   0  0  0  0  0  0  0  0  0  0  0  0
   57.4930   30.5530   44.8340 S   0  0  0  0  0  0  0  0  0  0  0  0
   56.2590   29.7610   45.1740 O   0  0  0  0  0  0  0  0  0  0  0  0
   57.6830   30.5010   43.3430 O   0  0  0  0  0  0  0  0  0  0  0  0
   58.8930   29.8950   45.6710 N   0  0  0  0  0  0  0  0  0  0  0  0
   59.7290   29.0090   44.8220 C   0  0  0  0  0  0  0  0  0  0  0  0
   59.6450   27.5150   45.1940 C   0  0  0  0  0  0  0  0  0  0  0  0
   58.2270   27.1340   45.6350 C   0  0  0  0  0  0  0  0  0  0  0  0
   58.1600   25.6560   45.9280 C   0  0  0  0  0  0  0  0  0  0  0  0
   59.1140   24.9060   45.5840 O   0  0  0  0  0  0  0  0  0  0  0  0
   56.9830   25.0910   46.5240 N   0  0  0  0  0  0  0  0  0  0  0  0
   56.7700   23.6480   46.6220 C   0  0  0  0  0  0  0  0  0  0  0  0
   56.7430   23.0330   45.2480 C   0  0  0  0  0  0  0  0  0  0  0  0
   57.5100   21.8870   44.9760 C   0  0  0  0  0  0  0  0  0  0  0  0
   57.4600   21.2890   43.7110 C   0  0  0  0  0  0  0  0  0  0  0  0
   56.6440   21.8280   42.7130 C   0  0  0  0  0  0  0  0  0  0  0  0
   55.8780   22.9680   42.9770 C   0  0  0  0  0  0  0  0  0  0  0  0
   55.9230   23.5670   44.2400 C   0  0  0  0  0  0  0  0  0  0  0  0
   57.7650   27.9820   46.8440 C   0  0  0  0  0  0  0  0  0  0  0  0
   58.5450   29.3050   46.9780 C   0  0  0  0  0  0  0  0  0  0  0  0
   57.6040   33.1750   44.2710 C   0  0  0  0  0  0  0  0  0  0  0  0
   58.9630   33.8410   44.5310 C   0  0  0  0  0  0  0  0  0  0  0  0
   60.3713   34.7663   47.5029 H   0  0  0  0  0  0  0  0  0  0  0  0
   61.0051   33.9320   46.0438 H   0  0  0  0  0  0  0  0  0  0  0  0
   60.8103   35.7177   46.0438 H   0  0  0  0  0  0  0  0  0  0  0  0
   58.5433   35.6129   45.6783 H   0  0  0  0  0  0  0  0  0  0  0  0
   58.4799   34.0736   47.9221 H   0  0  0  0  0  0  0  0  0  0  0  0
   57.0466   34.4220   46.8732 H   0  0  0  0  0  0  0  0  0  0  0  0
   58.8548   31.9661   46.6517 H   0  0  0  0  0  0  0  0  0  0  0  0
   57.2168   32.0216   47.4249 H   0  0  0  0  0  0  0  0  0  0  0  0
   59.4027   29.1235   43.7778 H   0  0  0  0  0  0  0  0  0  0  0  0
   60.7739   29.3155   44.9778 H   0  0  0  0  0  0  0  0  0  0  0  0
   59.9232   26.9106   44.3180 H   0  0  0  0  0  0  0  0  0  0  0  0
   60.3337   27.3243   46.0303 H   0  0  0  0  0  0  0  0  0  0  0  0
   57.5309   27.3534   44.8120 H   0  0  0  0  0  0  0  0  0  0  0  0
   56.2340   25.7270   46.8810 H   0  0  0  0  0  0  0  0  0  0  0  0
   57.5872   23.1987   47.2054 H   0  0  0  0  0  0  0  0  0  0  0  0
   55.8069   23.4598   47.1190 H   0  0  0  0  0  0  0  0  0  0  0  0
   58.1518   21.4584   45.7598 H   0  0  0  0  0  0  0  0  0  0  0  0
   58.0640   20.3936   43.5025 H   0  0  0  0  0  0  0  0  0  0  0  0
   56.6041   21.3560   41.7202 H   0  0  0  0  0  0  0  0  0  0  0  0
   55.2389   23.3943   42.1897 H   0  0  0  0  0  0  0  0  0  0  0  0
   55.3139   24.4598   44.4449 H   0  0  0  0  0  0  0  0  0  0  0  0
   56.6967   28.2145   46.7227 H   0  0  0  0  0  0  0  0  0  0  0  0
   57.9533   27.3927   47.7535 H   0  0  0  0  0  0  0  0  0  0  0  0
   57.9260   30.0237   47.5351 H   0  0  0  0  0  0  0  0  0  0  0  0
   59.4854   29.0848   47.5044 H   0  0  0  0  0  0  0  0  0  0  0  0
   57.6518   32.6429   43.3095 H   0  0  0  0  0  0  0  0  0  0  0  0
   56.8429   33.9692   44.2610 H   0  0  0  0  0  0  0  0  0  0  0  0
   59.7424   33.0655   44.5661 H   0  0  0  0  0  0  0  0  0  0  0  0
   59.1640   34.5543   43.7181 H   0  0  0  0  0  0  0  0  0  0  0  0
  1  2  1  0
  2  3  1  0
  3  4  1  0
  4  5  1  0
  5  6  1  0
  6  7  2  0
  6  8  2  0
  6  9  1  0
  9 10  1  0
 10 11  1  0
 11 12  1  0
 12 13  1  0
 13 14  2  0
 13 15  1  0
 15 16  1  0
 16 17  1  0
 17 18  2  0
 18 19  1  0
 19 20  2  0
 20 21  1  0
 21 22  2  0
 12 23  1  0
 23 24  1  0
  5 25  1  0
 25 26  1  0
 26  2  1  0
 24  9  1  0
 22 17  1  0
  1 27  1  0
  1 28  1  0
  1 29  1  0
  2 30  1  0
  3 31  1  0
  3 32  1  0
  4 33  1  0
  4 34  1  0
 10 35  1  0
 10 36  1  0
 11 37  1  0
 11 38  1  0
 12 39  1  0
 15 40  1  0
 16 41  1  0
 16 42  1  0
 18 43  1  0
 19 44  1  0
 20 45  1  0
 21 46  1  0
 22 47  1  0
 23 48  1  0
 23 49  1  0
 24 50  1  0
 24 51  1  0
 25 52  1  0
 25 53  1  0
 26 54  1  0
 26 55  1  0
M  END
>  <UniqueID>  (22) 
19

>  <SMILES>  (22) 
CC1CCN(S(=O)(=O)N2CCC(C(=O)NCc3ccccc3)CC2)CC1

>  <Energy>  (22) 
63.20499307528155

>  <Genealogy>  (22) 
CC1CCN(S(=O)(=O)N2CCC(C(=O)NCc3ccccc3)CC2)CC1 (3D coordinates assigned)
CC1CCN(S(=O)(=O)N2CCC(C(=O)NCc3ccccc3)CC2)CC1 (nonaromatic ring conformer: 63.20499307528155 kcal/mol)

>  <smiles>  (22) 
CC1CCN(S(=O)(=O)N2CCC(C(=O)NCc3ccccc3)CC2)CC1

>  <score_type>  (22) 
oracle

>  <origin>  (22) 
adg

>  <m_score__min__energy>  (22) 
-9.0700000000000003

>  <m_primary>  (22) 
energy

$$$$
22:0
     RDKit          3D

 75 79  0  0  1  0  0  0  0  0999 V2000
   59.2680   32.7910   50.1490 C   0  0  0  0  0  0  0  0  0  0  0  0
   59.6740   33.5720   49.0420 O   0  0  0  0  0  0  0  0  0  0  0  0
   60.9930   33.4300   48.6040 C   0  0  0  0  0  0  0  0  0  0  0  0
   61.9800   32.8890   49.4190 C   0  0  0  0  0  0  0  0  0  0  0  0
   63.2870   32.7620   48.9490 C   0  0  0  0  0  0  0  0  0  0  0  0
   64.2710   32.2030   49.8070 N   0  0  0  0  0  0  0  0  0  0  0  0
   65.5920   32.8080   49.7520 C   0  0  0  0  0  0  0  0  0  0  0  0
   66.5170   32.2230   50.7760 C   0  0  0  0  0  0  0  0  0  0  0  0
   65.8900   32.0820   52.0730 N   0  0  0  0  0  0  0  0  0  0  0  0
   65.6650   33.3740   52.6730 C   0  0  0  0  0  0  0  0  0  0  0  0
   64.7270   31.2530   52.0470 C   0  0  0  0  0  0  0  0  0  0  0  0
   64.0670   31.1150   50.7020 C   0  0  0  0  0  0  0  0  0  0  0  0
   63.5310   33.1930   47.6680 C   0  0  0  0  0  0  0  0  0  0  0  0
   59.3650   30.0450   47.7780 C   0  0  0  0  0  0  0  0  0  0  0  0
   58.5910   29.7530   46.6790 C   0  0  0  0  0  0  0  0  0  0  0  0
   60.2770   34.4150   46.4600 N   0  0  0  0  0  0  0  0  0  0  0  0
   59.4430   33.7100   45.7850 C   0  0  0  0  0  0  0  0  0  0  0  0
   59.0740   34.1170   44.5570 N   0  0  0  0  0  0  0  0  0  0  0  0
   58.1880   33.3590   43.8490 C   0  0  0  0  0  0  0  0  0  0  0  0
   57.6780   32.1840   44.4000 C   0  0  0  0  0  0  0  0  0  0  0  0
   58.1010   31.8230   45.6720 C   0  0  0  0  0  0  0  0  0  0  0  0
   57.6650   30.7410   46.2440 N   0  0  0  0  0  0  0  0  0  0  0  0
   61.2590   33.8570   47.3220 C   0  0  0  0  0  0  0  0  0  0  0  0
   62.5470   33.7350   46.8500 C   0  0  0  0  0  0  0  0  0  0  0  0
   60.2910   29.1550   48.2780 C   0  0  0  0  0  0  0  0  0  0  0  0
   60.4080   27.9460   47.6240 C   0  0  0  0  0  0  0  0  0  0  0  0
   59.6220   27.6610   46.5160 C   0  0  0  0  0  0  0  0  0  0  0  0
   58.7060   28.5160   46.0030 C   0  0  0  0  0  0  0  0  0  0  0  0
   57.6390   28.2770   44.6760 S   0  0  0  0  0  0  0  0  0  0  0  0
   56.2210   28.2370   45.2450 O   0  0  0  0  0  0  0  0  0  0  0  0
   57.6810   29.5050   43.7780 O   0  0  0  0  0  0  0  0  0  0  0  0
   57.9070   26.8130   43.7790 C   0  0  0  0  0  0  0  0  0  0  0  0
   57.4130   25.6310   44.4930 C   0  0  0  0  0  0  0  0  0  0  0  0
   57.0370   25.5230   45.7940 C   0  0  0  0  0  0  0  0  0  0  0  0
   56.6040   24.3370   46.3800 C   0  0  0  0  0  0  0  0  0  0  0  0
   56.5420   23.1880   45.6200 C   0  0  0  0  0  0  0  0  0  0  0  0
   56.9170   23.2680   44.2890 C   0  0  0  0  0  0  0  0  0  0  0  0
   56.8630   22.0660   43.4500 C   0  0  0  0  0  0  0  0  0  0  0  0
   57.8840   21.0810   43.5060 N   0  0  0  0  0  0  0  0  0  0  0  0
   55.9080   21.8660   42.6490 O   0  0  0  0  0  0  0  0  0  0  0  0
   57.3390   24.4450   43.7360 C   0  0  0  0  0  0  0  0  0  0  0  0
   58.9780   32.5820   46.3600 N   0  0  0  0  0  0  0  0  0  0  0  0
   59.5372   33.3088   51.0815 H   0  0  0  0  0  0  0  0  0  0  0  0
   58.1786   32.6427   50.1133 H   0  0  0  0  0  0  0  0  0  0  0  0
   59.7724   31.8141   50.1133 H   0  0  0  0  0  0  0  0  0  0  0  0
   61.7296   32.5598   50.4383 H   0  0  0  0  0  0  0  0  0  0  0  0
   66.0180   32.6418   48.7515 H   0  0  0  0  0  0  0  0  0  0  0  0
   65.4844   33.8821   49.9634 H   0  0  0  0  0  0  0  0  0  0  0  0
   66.8421   31.2302   50.4315 H   0  0  0  0  0  0  0  0  0  0  0  0
   67.3682   32.9105   50.8892 H   0  0  0  0  0  0  0  0  0  0  0  0
   65.6818   33.2774   53.7686 H   0  0  0  0  0  0  0  0  0  0  0  0
   66.4556   34.0691   52.3540 H   0  0  0  0  0  0  0  0  0  0  0  0
   64.6860   33.7609   52.3540 H   0  0  0  0  0  0  0  0  0  0  0  0
   65.0178   30.2484   52.3877 H   0  0  0  0  0  0  0  0  0  0  0  0
   63.9892   31.7427   52.6996 H   0  0  0  0  0  0  0  0  0  0  0  0
   64.4578   30.2046   50.2241 H   0  0  0  0  0  0  0  0  0  0  0  0
   62.9850   31.0822   50.8974 H   0  0  0  0  0  0  0  0  0  0  0  0
   64.5531   33.1051   47.2710 H   0  0  0  0  0  0  0  0  0  0  0  0
   59.2410   31.0193   48.2733 H   0  0  0  0  0  0  0  0  0  0  0  0
   59.4580   35.0080   44.1360 H   0  0  0  0  0  0  0  0  0  0  0  0
   57.8756   33.6749   42.8427 H   0  0  0  0  0  0  0  0  0  0  0  0
   56.9619   31.5617   43.8434 H   0  0  0  0  0  0  0  0  0  0  0  0
   62.7956   34.0650   45.8305 H   0  0  0  0  0  0  0  0  0  0  0  0
   60.9072   29.3971   49.1564 H   0  0  0  0  0  0  0  0  0  0  0  0
   61.1317   27.2001   47.9843 H   0  0  0  0  0  0  0  0  0  0  0  0
   59.7507   26.6843   46.0265 H   0  0  0  0  0  0  0  0  0  0  0  0
   57.3854   26.8880   42.8134 H   0  0  0  0  0  0  0  0  0  0  0  0
   58.9916   26.6954   43.6383 H   0  0  0  0  0  0  0  0  0  0  0  0
   57.0771   26.4258   46.4211 H   0  0  0  0  0  0  0  0  0  0  0  0
   56.3136   24.3164   47.4408 H   0  0  0  0  0  0  0  0  0  0  0  0
   56.2049   22.2367   46.0575 H   0  0  0  0  0  0  0  0  0  0  0  0
   57.8000   20.3370   44.2350 H   0  0  0  0  0  0  0  0  0  0  0  0
   58.6530   21.1590   42.8170 H   0  0  0  0  0  0  0  0  0  0  0  0
   57.6276   24.4665   42.6748 H   0  0  0  0  0  0  0  0  0  0  0  0
   59.3070   32.3240   47.3220 H   0  0  0  0  0  0  0  0  0  0  0  0
  1  2  1  0
  2  3  1  0
  3  4  2  0
  4  5  1  0
  5  6  1  0
  6  7  1  0
  7  8  1  0
  8  9  1  0
  9 10  1  0
  9 11  1  0
 11 12  1  0
  5 13  2  0
 13 14  1  0
 14 15  2  0
 15 16  1  0
 16 17  2  0
 17 18  1  0
 18 19  1  0
 19 20  2  0
 20 21  1  0
 21 22  2  0
 22 23  1  0
 23 24  2  0
 24 25  1  0
 25 26  2  0
 26 27  1  0
 27 28  2  0
 28 29  1  0
 29 30  2  0
 29 31  2  0
 29 32  1  0
 32 33  1  0
 33 34  2  0
 34 35  1  0
 35 36  2  0
 36 37  1  0
 37 38  1  0
 38 39  1  0
 38 40  2  0
 37 41  2  0
 21 42  1  0
 15  3  1  0
 42 17  1  0
 12  6  1  0
 28 23  1  0
 41 33  1  0
  1 43  1  0
  1 44  1  0
  1 45  1  0
  4 46  1  0
  7 47  1  0
  7 48  1  0
  8 49  1  0
  8 50  1  0
 10 51  1  0
 10 52  1  0
 10 53  1  0
 11 54  1  0
 11 55  1  0
 12 56  1  0
 12 57  1  0
 13 58  1  0
 14 59  1  0
 18 60  1  0
 19 61  1  0
 20 62  1  0
 24 63  1  0
 25 64  1  0
 26 65  1  0
 27 66  1  0
 32 67  1  0
 32 68  1  0
 34 69  1  0
 35 70  1  0
 36 71  1  0
 39 72  1  0
 39 73  1  0
 41 74  1  0
 42 75  1  0
M  END
>  <smiles>  (23) 
COc1cc(N2CCN(C)CC2)ccc1N=c1[nH]ccc(=Nc2ccccc2S(=O)(=O)Cc2cccc(C(N)=O)c2)[nH]1

>  <score_type>  (23) 
oracle

>  <origin>  (23) 
adg

>  <m_score__min__energy>  (23) 
-10.630000000000001

>  <m_primary>  (23) 
energy

$$$$
23:0
     RDKit          3D

 50 53  0  0  0  0  0  0  0  0999 V2000
   61.5660   30.2790   51.8380 C   0  0  0  0  0  0  0  0  0  0  0  0
   60.7500   29.9170   50.6800 N   0  0  0  0  0  0  0  0  0  0  0  0
   61.1380   30.0030   49.3920 C   0  0  0  0  0  0  0  0  0  0  0  0
   60.1380   29.5290   48.5660 C   0  0  0  0  0  0  0  0  0  0  0  0
   59.1010   29.1270   49.3870 C   0  0  0  0  0  0  0  0  0  0  0  0
   59.5170   29.3610   50.6860 C   0  0  0  0  0  0  0  0  0  0  0  0
   58.6860   29.0990   51.9120 C   0  0  0  0  0  0  0  0  0  0  0  0
   57.3810   29.7460   51.8120 N   0  0  0  0  0  0  0  0  0  0  0  0
   57.0590   31.0880   52.2040 C   0  0  0  0  0  0  0  0  0  0  0  0
   55.8470   31.4000   52.3390 O   0  0  0  0  0  0  0  0  0  0  0  0
   58.1120   32.1230   52.4990 C   0  0  0  0  0  0  0  0  0  0  0  0
   58.7550   32.5990   51.2230 C   0  0  0  0  0  0  0  0  0  0  0  0
   58.1580   32.3200   49.9850 C   0  0  0  0  0  0  0  0  0  0  0  0
   58.7330   32.7870   48.8010 C   0  0  0  0  0  0  0  0  0  0  0  0
   59.9180   33.5450   48.8330 C   0  0  0  0  0  0  0  0  0  0  0  0
   60.5450   34.0300   47.6300 N   0  0  0  0  0  0  0  0  0  0  0  0
   60.7630   33.2230   46.4290 C   0  0  0  0  0  0  0  0  0  0  0  0
   59.4550   32.7130   45.8880 C   0  0  0  0  0  0  0  0  0  0  0  0
   58.6030   33.5820   45.1590 C   0  0  0  0  0  0  0  0  0  0  0  0
   57.3870   33.1180   44.6280 C   0  0  0  0  0  0  0  0  0  0  0  0
   57.0440   31.7850   44.8460 C   0  0  0  0  0  0  0  0  0  0  0  0
   55.9360   31.1580   44.4080 N   0  0  0  0  0  0  0  0  0  0  0  0
   56.0780   29.8930   44.8690 C   0  0  0  0  0  0  0  0  0  0  0  0
   55.1420   28.8930   44.6340 O   0  0  0  0  0  0  0  0  0  0  0  0
   57.2510   29.7120   45.5890 C   0  0  0  0  0  0  0  0  0  0  0  0
   57.8570   30.9440   45.5600 C   0  0  0  0  0  0  0  0  0  0  0  0
   59.0670   31.3710   46.1030 C   0  0  0  0  0  0  0  0  0  0  0  0
   60.4990   33.8420   50.0760 C   0  0  0  0  0  0  0  0  0  0  0  0
   59.9230   33.3760   51.2610 C   0  0  0  0  0  0  0  0  0  0  0  0
   61.0198   30.0367   52.7616 H   0  0  0  0  0  0  0  0  0  0  0  0
   62.5102   29.7153   51.8118 H   0  0  0  0  0  0  0  0  0  0  0  0
   61.7818   31.3573   51.8118 H   0  0  0  0  0  0  0  0  0  0  0  0
   62.1078   30.3931   49.0495 H   0  0  0  0  0  0  0  0  0  0  0  0
   60.1620   29.4807   47.4673 H   0  0  0  0  0  0  0  0  0  0  0  0
   58.1359   28.7046   49.0704 H   0  0  0  0  0  0  0  0  0  0  0  0
   58.5414   28.0142   52.0226 H   0  0  0  0  0  0  0  0  0  0  0  0
   59.2133   29.5104   52.7853 H   0  0  0  0  0  0  0  0  0  0  0  0
   57.6460   32.9781   53.0105 H   0  0  0  0  0  0  0  0  0  0  0  0
   58.8840   31.6727   53.1402 H   0  0  0  0  0  0  0  0  0  0  0  0
   57.2308   31.7295   49.9463 H   0  0  0  0  0  0  0  0  0  0  0  0
   58.2558   32.5605   47.8361 H   0  0  0  0  0  0  0  0  0  0  0  0
   60.9250   35.0040   47.6240 H   0  0  0  0  0  0  0  0  0  0  0  0
   61.2547   33.8406   45.6630 H   0  0  0  0  0  0  0  0  0  0  0  0
   61.3976   32.3633   46.6902 H   0  0  0  0  0  0  0  0  0  0  0  0
   58.8973   34.6310   45.0075 H   0  0  0  0  0  0  0  0  0  0  0  0
   56.7260   33.7870   44.0575 H   0  0  0  0  0  0  0  0  0  0  0  0
   57.6124   28.7922   46.0722 H   0  0  0  0  0  0  0  0  0  0  0  0
   59.7016   30.6839   46.6820 H   0  0  0  0  0  0  0  0  0  0  0  0
   61.4165   34.4474   50.1177 H   0  0  0  0  0  0  0  0  0  0  0  0
   60.3873   33.6194   52.2280 H   0  0  0  0  0  0  0  0  0  0  0  0
  1  2  1  0
  2  3  1  0
  3  4  2  0
  4  5  1  0
  5  6  2  0
  6  7  1  0
  7  8  1  0
  8  9  1  0
  9 10  2  0
  9 11  1  0
 11 12  1  0
 12 13  2  0
 13 14  1  0
 14 15  2  0
 15 16  1  0
 16 17  1  0
 17 18  1  0
 18 19  2  0
 19 20  1  0
 20 21  2  0
 21 22  1  0
 22 23  1  0
 23 24  1  0
 23 25  2  0
 25 26  1  0
 26 27  2  0
 15 28  1  0
 28 29  2  0
  6  2  1  0
 29 12  1  0
 27 18  1  0
 26 21  1  0
  1 30  1  0
  1 31  1  0
  1 32  1  0
  3 33  1  0
  4 34  1  0
  5 35  1  0
  7 36  1  0
  7 37  1  0
 11 38  1  0
 11 39  1  0
 13 40  1  0
 14 41  1  0
 16 42  1  0
 17 43  1  0
 17 44  1  0
 19 45  1  0
 20 46  1  0
 25 47  1  0
 27 48  1  0
 28 49  1  0
 29 50  1  0
M  CHG  3   8  -1  22  -1  24  -1
M  END
>  <UniqueID>  (24) 
20

>  <SMILES>  (24) 
Cn1cccc1C[N-]C(=O)Cc1ccc(NCc2ccc3[n-]c([O-])cc3c2)cc1

>  <Energy>  (24) 
105.91091376843626

>  <Genealogy>  (24) 
Cn1cccc1C[N-]C(=O)Cc1ccc(NCc2ccc3[n-]c([O-])cc3c2)cc1 (protonated)
Cn1cccc1C[N-]C(=O)Cc1ccc(NCc2ccc3[n-]c([O-])cc3c2)cc1 (3D coordinates assigned)
Cn1cccc1C[N-]C(=O)Cc1ccc(NCc2ccc3[n-]c([O-])cc3c2)cc1 (optimized conformer: 105.91091376843626 kcal/mol)

>  <smiles>  (24) 
Cn1cccc1CNC(=O)Cc1ccc(NCc2ccc3[nH]c(O)cc3c2)cc1

>  <score_type>  (24) 
oracle

>  <origin>  (24) 
adg

>  <m_score__min__energy>  (24) 
-15.68

>  <m_primary>  (24) 
energy

$$$$
24:0
     RDKit          3D

 56 58  0  0  0  0  0  0  0  0999 V2000
   60.4290   34.4210   48.6930 C   0  0  0  0  0  0  0  0  0  0  0  0
   59.9130   33.6580   47.4520 C   0  0  0  0  0  0  0  0  0  0  0  0
   58.6150   32.9200   47.8510 C   0  0  0  0  0  0  0  0  0  0  0  0
   60.9620   32.6080   47.0240 C   0  0  0  0  0  0  0  0  0  0  0  0
   59.5880   34.6450   46.2860 C   0  0  2  0  0  0  0  0  0  0  0  0
   59.6730   35.9540   46.7360 F   0  0  0  0  0  0  0  0  0  0  0  0
   58.1990   34.4500   45.6410 C   0  0  0  0  0  0  0  0  0  0  0  0
   58.3310   33.9250   44.2810 N   0  0  0  0  0  0  0  0  0  0  0  0
   57.7850   32.8450   43.7930 C   0  0  0  0  0  0  0  0  0  0  0  0
   57.1890   31.8600   44.6090 C   0  0  0  0  0  0  0  0  0  0  0  0
   56.6350   30.7120   44.0200 C   0  0  0  0  0  0  0  0  0  0  0  0
   56.0040   29.6860   44.7990 N   0  0  0  0  0  0  0  0  0  0  0  0
   56.6580   28.5970   45.4650 C   0  0  0  0  0  0  0  0  0  0  0  0
   56.0640   27.4950   45.6180 O   0  0  0  0  0  0  0  0  0  0  0  0
   58.0160   28.7690   46.0150 C   0  0  0  0  0  0  0  0  0  0  0  0
   58.2210   29.3440   47.2790 C   0  0  0  0  0  0  0  0  0  0  0  0
   59.5340   29.5300   47.7600 C   0  0  0  0  0  0  0  0  0  0  0  0
   59.7910   30.0710   48.9200 N   0  0  0  0  0  0  0  0  0  0  0  0
   58.9580   30.0670   50.0920 C   0  0  0  0  0  0  0  0  0  0  0  0
   58.4780   28.9700   50.4830 O   0  0  0  0  0  0  0  0  0  0  0  0
   58.7360   31.2940   50.8980 C   0  0  0  0  0  0  0  0  0  0  0  0
   59.7620   32.2530   51.0110 C   0  0  0  0  0  0  0  0  0  0  0  0
   59.5650   33.4200   51.7520 C   0  0  0  0  0  0  0  0  0  0  0  0
   58.3470   33.6440   52.3950 C   0  0  0  0  0  0  0  0  0  0  0  0
   57.3210   32.7000   52.2980 C   0  0  0  0  0  0  0  0  0  0  0  0
   57.5060   31.5260   51.5520 C   0  0  0  0  0  0  0  0  0  0  0  0
   56.4650   30.6020   51.4490 O   0  0  0  0  0  0  0  0  0  0  0  0
   60.6050   29.0880   46.9760 C   0  0  0  0  0  0  0  0  0  0  0  0
   60.3640   28.5120   45.7290 C   0  0  0  0  0  0  0  0  0  0  0  0
   59.0900   28.3720   45.2780 N   0  0  0  0  0  0  0  0  0  0  0  0
   56.6360   30.5910   42.6270 C   0  0  0  0  0  0  0  0  0  0  0  0
   57.2270   31.5870   41.8500 C   0  0  0  0  0  0  0  0  0  0  0  0
   57.7830   32.6750   42.4430 N   0  0  0  0  0  0  0  0  0  0  0  0
   60.0849   33.9122   49.6055 H   0  0  0  0  0  0  0  0  0  0  0  0
   61.5287   34.4438   48.6784 H   0  0  0  0  0  0  0  0  0  0  0  0
   60.0407   35.4501   48.6784 H   0  0  0  0  0  0  0  0  0  0  0  0
   58.5398   32.8772   48.9476 H   0  0  0  0  0  0  0  0  0  0  0  0
   57.7468   33.4595   47.4447 H   0  0  0  0  0  0  0  0  0  0  0  0
   58.6346   31.8980   47.4447 H   0  0  0  0  0  0  0  0  0  0  0  0
   61.4141   32.1555   47.9189 H   0  0  0  0  0  0  0  0  0  0  0  0
   60.4741   31.8256   46.4242 H   0  0  0  0  0  0  0  0  0  0  0  0
   61.7448   33.0952   46.4242 H   0  0  0  0  0  0  0  0  0  0  0  0
   60.3363   34.4246   45.5105 H   0  0  0  0  0  0  0  0  0  0  0  0
   57.6154   33.7413   46.2469 H   0  0  0  0  0  0  0  0  0  0  0  0
   57.6888   35.4236   45.5971 H   0  0  0  0  0  0  0  0  0  0  0  0
   57.1586   31.9908   45.7008 H   0  0  0  0  0  0  0  0  0  0  0  0
   57.3604   29.6486   47.8926 H   0  0  0  0  0  0  0  0  0  0  0  0
   60.7266   32.0809   50.5111 H   0  0  0  0  0  0  0  0  0  0  0  0
   60.3714   34.1641   51.8290 H   0  0  0  0  0  0  0  0  0  0  0  0
   58.1943   34.5639   52.9785 H   0  0  0  0  0  0  0  0  0  0  0  0
   56.3634   32.8782   52.8091 H   0  0  0  0  0  0  0  0  0  0  0  0
   56.6400   29.6250   51.2510 H   0  0  0  0  0  0  0  0  0  0  0  0
   61.6365   29.1947   47.3429 H   0  0  0  0  0  0  0  0  0  0  0  0
   61.2065   28.1705   45.1097 H   0  0  0  0  0  0  0  0  0  0  0  0
   56.1736   29.7159   42.1471 H   0  0  0  0  0  0  0  0  0  0  0  0
   57.2429   31.4911   40.7543 H   0  0  0  0  0  0  0  0  0  0  0  0
  1  2  1  0
  2  3  1  0
  2  4  1  0
  2  5  1  0
  5  6  1  0
  5  7  1  0
  7  8  1  0
  8  9  2  3
  9 10  1  0
 10 11  2  0
 11 12  1  0
 12 13  1  0
 13 14  2  0
 13 15  1  0
 15 16  2  0
 16 17  1  0
 17 18  2  3
 18 19  1  0
 19 20  2  0
 19 21  1  0
 21 22  2  0
 22 23  1  0
 23 24  2  0
 24 25  1  0
 25 26  2  0
 26 27  1  0
 17 28  1  0
 28 29  2  0
 29 30  1  0
 11 31  1  0
 31 32  2  0
 32 33  1  0
 33  9  1  0
 30 15  1  0
 26 21  1  0
  1 34  1  0
  1 35  1  0
  1 36  1  0
  3 37  1  0
  3 38  1  0
  3 39  1  0
  4 40  1  0
  4 41  1  0
  4 42  1  0
  5 43  1  6
  7 44  1  0
  7 45  1  0
 10 46  1  0
 16 47  1  0
 22 48  1  0
 23 49  1  0
 24 50  1  0
 25 51  1  0
 27 52  1  0
 28 53  1  0
 29 54  1  0
 31 55  1  0
 32 56  1  0
M  CHG  3  12  -1  30  -1  33  -1
M  END
>  <UniqueID>  (25) 
21

>  <SMILES>  (25) 
CC(C)(C)[C@H](F)CN=c1cc([N-]C(=O)c2cc(=NC(=O)c3ccccc3O)cc[n-]2)cc[n-]1

>  <Energy>  (25) 
70.98212603353312

>  <Genealogy>  (25) 
CC(C)(C)C(F)CN=c1cc([N-]C(=O)c2cc(=NC(=O)c3ccccc3O)cc[n-]2)cc[n-]1 (protonated)
CC(C)(C)[C@H](F)CN=c1cc([N-]C(=O)c2cc(=NC(=O)c3ccccc3O)cc[n-]2)cc[n-]1 (chirality)
CC(C)(C)[C@H](F)CN=c1cc([N-]C(=O)c2cc(=NC(=O)c3ccccc3O)cc[n-]2)cc[n-]1 (3D coordinates assigned)
CC(C)(C)[C@H](F)CN=c1cc([N-]C(=O)c2cc(=NC(=O)c3ccccc3O)cc[n-]2)cc[n-]1 (optimized conformer: 70.98212603353312 kcal/mol)

>  <smiles>  (25) 
CC(C)(C)C(F)CN=c1cc(NC(=O)c2cc(=NC(=O)c3ccccc3O)cc[nH]2)cc[nH]1

>  <score_type>  (25) 
oracle

>  <origin>  (25) 
adg

>  <m_score__min__energy>  (25) 
-12.27

>  <m_primary>  (25) 
energy

$$$$
25:0
     RDKit          3D

 46 48  0  0  0  0  0  0  0  0999 V2000
   63.3671   33.2288   48.2600 H   0  0  0  0  0  0  0  0  0  0  0  0
   62.3030   33.1600   48.5300 C   0  0  0  0  0  0  0  0  0  0  0  0
   61.3800   33.8770   47.8370 N   0  0  0  0  0  0  0  0  0  0  0  0
   60.0530   33.8370   48.1350 C   0  0  0  0  0  0  0  0  0  0  0  0
   59.2380   34.5620   47.4210 N   0  0  0  0  0  0  0  0  0  0  0  0
   58.2760   34.1110   46.4540 C   0  0  0  0  0  0  0  0  0  0  0  0
   57.2580   33.4840   46.8500 O   0  0  0  0  0  0  0  0  0  0  0  0
   58.5090   34.2620   44.9810 C   0  0  0  0  0  0  0  0  0  0  0  0
   59.4212   34.8532   44.8128 H   0  0  0  0  0  0  0  0  0  0  0  0
   58.6268   33.2681   44.5246 H   0  0  0  0  0  0  0  0  0  0  0  0
   57.6499   34.7755   44.5246 H   0  0  0  0  0  0  0  0  0  0  0  0
   59.6110   32.9900   49.1740 C   0  0  0  0  0  0  0  0  0  0  0  0
   58.5395   32.9217   49.4131 H   0  0  0  0  0  0  0  0  0  0  0  0
   60.5440   32.2360   49.9000 C   0  0  0  0  0  0  0  0  0  0  0  0
   60.0920   31.3700   51.0470 C   0  0  0  0  0  0  0  0  0  0  0  0
   60.7966   31.4909   51.8830 H   0  0  0  0  0  0  0  0  0  0  0  0
   60.0665   30.3273   50.6975 H   0  0  0  0  0  0  0  0  0  0  0  0
   58.7450   31.7290   51.5060 N   0  0  0  0  0  0  0  0  0  0  0  0
   57.6200   30.8810   51.4210 C   0  0  0  0  0  0  0  0  0  0  0  0
   57.6460   29.7490   50.8690 O   0  0  0  0  0  0  0  0  0  0  0  0
   56.4520   31.4730   51.9620 N   0  0  0  0  0  0  0  0  0  0  0  0
   55.1650   30.8500   52.1440 C   0  0  0  0  0  0  0  0  0  0  0  0
   55.0620   29.5440   52.6580 C   0  0  0  0  0  0  0  0  0  0  0  0
   55.9730   28.9876   52.9236 H   0  0  0  0  0  0  0  0  0  0  0  0
   53.8100   28.9500   52.8330 C   0  0  0  0  0  0  0  0  0  0  0  0
   53.7400   27.9241   53.2238 H   0  0  0  0  0  0  0  0  0  0  0  0
   52.6480   29.6530   52.5140 C   0  0  0  0  0  0  0  0  0  0  0  0
   51.6659   29.1736   52.6393 H   0  0  0  0  0  0  0  0  0  0  0  0
   52.7270   30.9690   52.0340 C   0  0  0  0  0  0  0  0  0  0  0  0
   51.5060   31.7200   51.6820 C   0  0  0  0  0  0  0  0  0  0  0  0
   50.5300   31.7060   52.4780 O   0  0  0  0  0  0  0  0  0  0  0  0
   51.3770   32.4370   50.4470 N   0  0  0  0  0  0  0  0  0  0  0  0
   50.6740   31.9440   49.2700 C   0  0  0  0  0  0  0  0  0  0  0  0
   49.8111   31.3389   49.5850 H   0  0  0  0  0  0  0  0  0  0  0  0
   50.3244   32.7958   48.6682 H   0  0  0  0  0  0  0  0  0  0  0  0
   51.3557   31.3251   48.6682 H   0  0  0  0  0  0  0  0  0  0  0  0
   53.9880   31.5550   51.8380 C   0  0  0  0  0  0  0  0  0  0  0  0
   54.0556   32.5783   51.4401 H   0  0  0  0  0  0  0  0  0  0  0  0
   56.8010   32.8270   52.3900 C   0  0  0  0  0  0  0  0  0  0  0  0
   56.2395   33.5697   51.8042 H   0  0  0  0  0  0  0  0  0  0  0  0
   56.5527   32.9915   53.4489 H   0  0  0  0  0  0  0  0  0  0  0  0
   58.3200   32.9770   52.1340 C   0  0  0  0  0  0  0  0  0  0  0  0
   58.5129   33.8277   51.4638 H   0  0  0  0  0  0  0  0  0  0  0  0
   58.8701   33.1673   53.0674 H   0  0  0  0  0  0  0  0  0  0  0  0
   61.9040   32.3370   49.5830 C   0  0  0  0  0  0  0  0  0  0  0  0
   62.6514   31.7721   50.1595 H   0  0  0  0  0  0  0  0  0  0  0  0
  1  2  1  0
  2  3  1  0
  3  4  1  0
  4  5  2  0
  5  6  1  0
  6  7  2  0
  6  8  1  0
  8  9  1  0
  8 10  1  0
  8 11  1  0
  4 12  1  0
 12 13  1  0
 12 14  2  0
 14 15  1  0
 15 16  1  0
 15 17  1  0
 15 18  1  0
 18 19  1  0
 19 20  2  0
 19 21  1  0
 21 22  1  0
 22 23  2  0
 23 24  1  0
 23 25  1  0
 25 26  1  0
 25 27  2  0
 27 28  1  0
 27 29  1  0
 29 30  1  0
 30 31  2  0
 30 32  1  0
 32 33  1  0
 33 34  1  0
 33 35  1  0
 33 36  1  0
 29 37  2  0
 37 38  1  0
 21 39  1  0
 39 40  1  0
 39 41  1  0
 39 42  1  0
 42 43  1  0
 42 44  1  0
 14 45  1  0
 45 46  1  0
 45  2  2  0
 42 18  1  0
 37 22  1  0
M  CHG  2   3  -1  32  -1
M  END
>  <UniqueID>  (26) 
22

>  <SMILES>  (26) 
C[N-]C(=O)c1cccc(N2CCN(Cc3cc[n-]/c(=N/C(C)=O)c3)C2=O)c1

>  <Energy>  (26) 
75.39263943729469

>  <Genealogy>  (26) 
C[N-]C(=O)c1cccc(N2CCN(Cc3cc[n-]c(=NC(C)=O)c3)C2=O)c1 (protonated)
C[N-]C(=O)c1cccc(N2CCN(Cc3cc[n-]/c(=N/C(C)=O)c3)C2=O)c1 (cis-trans isomerization)
C[N-]C(=O)c1cccc(N2CCN(Cc3cc[n-]/c(=N/C(C)=O)c3)C2=O)c1 (3D coordinates assigned)
C[N-]C(=O)c1cccc(N2CCN(Cc3cc[n-]/c(=N/C(C)=O)c3)C2=O)c1 (nonaromatic ring conformer: 75.39263943729469 kcal/mol)

>  <smiles>  (26) 
CNC(=O)c1cccc(N2CCN(Cc3cc[nH]c(=NC(C)=O)c3)C2=O)c1

>  <score_type>  (26) 
oracle

>  <origin>  (26) 
adg

>  <m_score__min__energy>  (26) 
-11.73

>  <m_primary>  (26) 
energy

$$$$
26:0
     RDKit          3D

 50 53  0  0  0  0  0  0  0  0999 V2000
   59.2440   28.6880   48.1910 C   0  0  0  0  0  0  0  0  0  0  0  0
   58.7830   28.3880   46.9690 C   0  0  0  0  0  0  0  0  0  0  0  0
   58.4230   29.4750   46.0210 C   0  0  0  0  0  0  0  0  0  0  0  0
   57.9610   29.1600   44.7320 C   0  0  0  0  0  0  0  0  0  0  0  0
   57.6310   30.1750   43.8310 C   0  0  0  0  0  0  0  0  0  0  0  0
   57.7590   31.5160   44.2000 C   0  0  0  0  0  0  0  0  0  0  0  0
   57.4010   32.5070   43.2930 O   0  0  0  0  0  0  0  0  0  0  0  0
   58.2260   31.8530   45.4840 C   0  0  0  0  0  0  0  0  0  0  0  0
   58.3930   33.2290   45.8710 N   0  0  0  0  0  0  0  0  0  0  0  0
   59.0760   34.1690   44.9770 C   0  0  0  0  0  0  0  0  0  0  0  0
   59.7140   35.3160   45.7780 C   0  0  0  0  0  0  0  0  0  0  0  0
   60.2860   34.8420   47.0570 N   0  0  0  0  0  0  0  0  0  0  0  0
   61.4560   33.9710   46.8460 C   0  0  0  0  0  0  0  0  0  0  0  0
   59.2810   34.2110   47.9540 C   0  0  0  0  0  0  0  0  0  0  0  0
   58.0370   33.6740   47.2210 C   0  0  0  0  0  0  0  0  0  0  0  0
   58.5550   30.8270   46.3860 C   0  0  0  0  0  0  0  0  0  0  0  0
   58.6320   26.9660   46.5570 C   0  0  0  0  0  0  0  0  0  0  0  0
   59.7830   26.1550   46.3870 C   0  0  0  0  0  0  0  0  0  0  0  0
   59.6680   24.8120   45.9890 C   0  0  0  0  0  0  0  0  0  0  0  0
   58.3910   24.3050   45.7670 C   0  0  0  0  0  0  0  0  0  0  0  0
   58.0770   23.0570   45.3810 N   0  0  0  0  0  0  0  0  0  0  0  0
   56.7290   23.0220   45.2890 C   0  0  0  0  0  0  0  0  0  0  0  0
   56.1820   24.2610   45.6180 C   0  0  0  0  0  0  0  0  0  0  0  0
   54.7430   24.5820   45.6260 C   0  0  0  0  0  0  0  0  0  0  0  0
   54.2910   25.9260   45.7660 N   0  0  0  0  0  0  0  0  0  0  0  0
   53.8960   23.6570   45.5100 O   0  0  0  0  0  0  0  0  0  0  0  0
   57.2650   25.0740   45.9250 C   0  0  0  0  0  0  0  0  0  0  0  0
   57.3500   26.4140   46.3180 C   0  0  0  0  0  0  0  0  0  0  0  0
   59.5100   27.8827   48.8915 H   0  0  0  0  0  0  0  0  0  0  0  0
   59.3564   29.7396   48.4936 H   0  0  0  0  0  0  0  0  0  0  0  0
   57.8585   28.1071   44.4304 H   0  0  0  0  0  0  0  0  0  0  0  0
   57.2683   29.9168   42.8251 H   0  0  0  0  0  0  0  0  0  0  0  0
   59.8620   33.6344   44.4235 H   0  0  0  0  0  0  0  0  0  0  0  0
   58.3384   34.5927   44.2795 H   0  0  0  0  0  0  0  0  0  0  0  0
   60.5156   35.7680   45.1754 H   0  0  0  0  0  0  0  0  0  0  0  0
   58.9284   36.0511   46.0068 H   0  0  0  0  0  0  0  0  0  0  0  0
   61.8662   33.6656   47.8199 H   0  0  0  0  0  0  0  0  0  0  0  0
   61.1512   33.0782   46.2803 H   0  0  0  0  0  0  0  0  0  0  0  0
   62.2239   34.5191   46.2803 H   0  0  0  0  0  0  0  0  0  0  0  0
   59.7629   33.3722   48.4777 H   0  0  0  0  0  0  0  0  0  0  0  0
   58.9315   34.9950   48.6419 H   0  0  0  0  0  0  0  0  0  0  0  0
   57.6220   32.8255   47.7848 H   0  0  0  0  0  0  0  0  0  0  0  0
   57.2910   34.4790   47.1466 H   0  0  0  0  0  0  0  0  0  0  0  0
   58.9207   31.0846   47.3910 H   0  0  0  0  0  0  0  0  0  0  0  0
   60.7797   26.5831   46.5692 H   0  0  0  0  0  0  0  0  0  0  0  0
   60.5595   24.1812   45.8571 H   0  0  0  0  0  0  0  0  0  0  0  0
   58.7360   22.2710   45.1900 H   0  0  0  0  0  0  0  0  0  0  0  0
   56.1444   22.1378   44.9951 H   0  0  0  0  0  0  0  0  0  0  0  0
   54.7870   26.7120   45.2870 H   0  0  0  0  0  0  0  0  0  0  0  0
   56.4427   27.0242   46.4385 H   0  0  0  0  0  0  0  0  0  0  0  0
  1  2  2  0
  2  3  1  0
  3  4  2  0
  4  5  1  0
  5  6  2  0
  6  7  1  0
  6  8  1  0
  8  9  1  0
  9 10  1  0
 10 11  1  0
 11 12  1  0
 12 13  1  0
 12 14  1  0
 14 15  1  0
  8 16  2  0
  2 17  1  0
 17 18  2  0
 18 19  1  0
 19 20  2  0
 20 21  1  0
 21 22  1  0
 22 23  2  0
 23 24  1  0
 24 25  1  0
 24 26  2  0
 23 27  1  0
 27 28  2  0
 16  3  1  0
 28 17  1  0
 15  9  1  0
 27 20  1  0
  1 29  1  0
  1 30  1  0
  4 31  1  0
  5 32  1  0
 10 33  1  0
 10 34  1  0
 11 35  1  0
 11 36  1  0
 13 37  1  0
 13 38  1  0
 13 39  1  0
 14 40  1  0
 14 41  1  0
 15 42  1  0
 15 43  1  0
 16 44  1  0
 18 45  1  0
 19 46  1  0
 21 47  1  0
 22 48  1  0
 25 49  1  0
 28 50  1  0
M  CHG  2   7  -1  25  -1
M  END
>  <UniqueID>  (27) 
23

>  <SMILES>  (27) 
C=C(c1ccc([O-])c(N2CCN(C)CC2)c1)c1ccc2[nH]cc(C([NH-])=O)c2c1

>  <Energy>  (27) 
106.98044889784406

>  <Genealogy>  (27) 
C=C(c1ccc([O-])c(N2CCN(C)CC2)c1)c1ccc2[nH]cc(C([NH-])=O)c2c1 (protonated)
C=C(c1ccc([O-])c(N2CCN(C)CC2)c1)c1ccc2[nH]cc(C([NH-])=O)c2c1 (3D coordinates assigned)
C=C(c1ccc([O-])c(N2CCN(C)CC2)c1)c1ccc2[nH]cc(C([NH-])=O)c2c1 (nonaromatic ring conformer: 106.98044889784406 kcal/mol)

>  <smiles>  (27) 
C=C(c1ccc(O)c(N2CCN(C)CC2)c1)c1ccc2[nH]cc(C(N)=O)c2c1

>  <score_type>  (27) 
oracle

>  <origin>  (27) 
adg

>  <m_score__min__energy>  (27) 
-14.039999999999999

>  <m_primary>  (27) 
energy

$$$$
27:0
     RDKit          3D

 57 59  0  0  0  0  0  0  0  0999 V2000
   58.3697   20.2797   42.4458 H   0  0  0  0  0  0  0  0  0  0  0  0
   57.9660   21.1300   43.0150 C   0  0  0  0  0  0  0  0  0  0  0  0
   58.7620   21.7760   43.9630 C   0  0  0  0  0  0  0  0  0  0  0  0
   59.7929   21.4347   44.1382 H   0  0  0  0  0  0  0  0  0  0  0  0
   58.2510   22.8570   44.6910 C   0  0  0  0  0  0  0  0  0  0  0  0
   58.8853   23.3711   45.4282 H   0  0  0  0  0  0  0  0  0  0  0  0
   56.9290   23.2870   44.4820 C   0  0  0  0  0  0  0  0  0  0  0  0
   56.3530   24.4040   45.3090 C   0  0  0  0  0  0  0  0  0  0  0  0
   55.2592   24.2922   45.3423 H   0  0  0  0  0  0  0  0  0  0  0  0
   56.6445   25.3556   44.8405 H   0  0  0  0  0  0  0  0  0  0  0  0
   56.9830   24.4010   46.9820 S   0  0  0  0  0  0  0  0  0  0  0  0
   55.8790   24.8470   47.8970 O   0  0  0  0  0  0  0  0  0  0  0  0
   57.3920   23.0170   47.3940 O   0  0  0  0  0  0  0  0  0  0  0  0
   58.3080   25.5140   47.1490 N   0  0  0  0  0  0  0  0  0  0  0  0
   58.7030   26.5520   46.2410 C   0  0  0  0  0  0  0  0  0  0  0  0
   59.9290   27.1880   46.4640 C   0  0  0  0  0  0  0  0  0  0  0  0
   60.5542   26.8822   47.3158 H   0  0  0  0  0  0  0  0  0  0  0  0
   60.3670   28.2080   45.6150 C   0  0  0  0  0  0  0  0  0  0  0  0
   61.3297   28.7050   45.8053 H   0  0  0  0  0  0  0  0  0  0  0  0
   59.5860   28.5970   44.5270 C   0  0  0  0  0  0  0  0  0  0  0  0
   59.9347   29.4009   43.8620 H   0  0  0  0  0  0  0  0  0  0  0  0
   58.3570   27.9670   44.2770 C   0  0  0  0  0  0  0  0  0  0  0  0
   57.5430   28.3680   43.1540 N   0  0  0  0  0  0  0  0  0  0  0  0
   56.6240   27.8690   43.2010 H   0  0  0  0  0  0  0  0  0  0  0  0
   58.0080   28.0940   42.2560 H   0  0  0  0  0  0  0  0  0  0  0  0
   57.3380   29.8220   43.1750 C   0  0  0  0  0  0  0  0  0  0  0  0
   56.7695   30.1179   42.2810 H   0  0  0  0  0  0  0  0  0  0  0  0
   58.3217   30.3141   43.1870 H   0  0  0  0  0  0  0  0  0  0  0  0
   56.5760   30.2430   44.4050 C   0  0  0  0  0  0  0  0  0  0  0  0
   55.7860   29.4180   44.9330 O   0  0  0  0  0  0  0  0  0  0  0  0
   56.6000   31.5890   44.9030 N   0  0  0  0  0  0  0  0  0  0  0  0
   57.5820   32.2070   45.4930 C   0  0  0  0  0  0  0  0  0  0  0  0
   57.9230   33.4710   45.1690 N   0  0  0  0  0  0  0  0  0  0  0  0
   58.9580   33.9340   45.9240 C   0  0  0  0  0  0  0  0  0  0  0  0
   59.5170   35.3040   45.7000 C   0  0  0  0  0  0  0  0  0  0  0  0
   59.7126   35.7834   46.6705 H   0  0  0  0  0  0  0  0  0  0  0  0
   60.4562   35.2285   45.1324 H   0  0  0  0  0  0  0  0  0  0  0  0
   58.7931   35.9071   45.1324 H   0  0  0  0  0  0  0  0  0  0  0  0
   59.4450   33.0290   46.8790 C   0  0  0  0  0  0  0  0  0  0  0  0
   60.6210   33.2150   47.7610 C   0  0  0  0  0  0  0  0  0  0  0  0
   60.6070   34.1630   48.5930 O   0  0  0  0  0  0  0  0  0  0  0  0
   61.7850   32.3650   47.6870 N   0  0  0  0  0  0  0  0  0  0  0  0
   63.0520   32.8450   48.2430 C   0  0  0  0  0  0  0  0  0  0  0  0
   63.0010   32.8257   49.3416 H   0  0  0  0  0  0  0  0  0  0  0  0
   63.8715   32.1950   47.9025 H   0  0  0  0  0  0  0  0  0  0  0  0
   63.2351   33.8748   47.9025 H   0  0  0  0  0  0  0  0  0  0  0  0
   61.6990   30.9990   47.1590 C   0  0  0  0  0  0  0  0  0  0  0  0
   61.6541   30.2851   47.9946 H   0  0  0  0  0  0  0  0  0  0  0  0
   60.7929   30.9003   46.5432 H   0  0  0  0  0  0  0  0  0  0  0  0
   62.5856   30.7874   46.5432 H   0  0  0  0  0  0  0  0  0  0  0  0
   58.5390   31.6140   46.7470 S   0  0  0  0  0  0  0  0  0  0  0  0
   57.9110   26.9570   45.1510 C   0  0  0  0  0  0  0  0  0  0  0  0
   56.9345   26.4803   44.9800 H   0  0  0  0  0  0  0  0  0  0  0  0
   56.1360   22.6310   43.5260 C   0  0  0  0  0  0  0  0  0  0  0  0
   55.0999   22.9591   43.3563 H   0  0  0  0  0  0  0  0  0  0  0  0
   56.6570   21.5630   42.7890 C   0  0  0  0  0  0  0  0  0  0  0  0
   56.0359   21.0635   42.0309 H   0  0  0  0  0  0  0  0  0  0  0  0
  1  2  1  0
  2  3  2  0
  3  4  1  0
  3  5  1  0
  5  6  1  0
  5  7  2  0
  7  8  1  0
  8  9  1  0
  8 10  1  0
  8 11  1  0
 11 12  2  0
 11 13  2  0
 11 14  1  0
 14 15  1  0
 15 16  2  0
 16 17  1  0
 16 18  1  0
 18 19  1  0
 18 20  2  0
 20 21  1  0
 20 22  1  0
 22 23  1  0
 23 24  1  0
 23 25  1  0
 23 26  1  0
 26 27  1  0
 26 28  1  0
 26 29  1  0
 29 30  2  0
 29 31  1  0
 31 32  2  0
 32 33  1  0
 33 34  1  0
 34 35  1  0
 35 36  1  0
 35 37  1  0
 35 38  1  0
 34 39  2  0
 39 40  1  0
 40 41  2  0
 40 42  1  0
 42 43  1  0
 43 44  1  0
 43 45  1  0
 43 46  1  0
 42 47  1  0
 47 48  1  0
 47 49  1  0
 47 50  1  0
 39 51  1  0
 22 52  2  0
 52 53  1  0
  7 54  1  0
 54 55  1  0
 54 56  2  0
 56 57  1  0
 56  2  1  0
 52 15  1  0
 51 32  1  0
M  CHG  3  14  -1  23   1  33  -1
M  END
>  <UniqueID>  (28) 
24

>  <SMILES>  (28) 
Cc1[n-]/c(=N/C(=O)C[NH2+]c2cccc([N-]S(=O)(=O)Cc3ccccc3)c2)sc1C(=O)N(C)C

>  <Energy>  (28) 
87.6407752249101

>  <Genealogy>  (28) 
Cc1[n-]c(=NC(=O)C[NH2+]c2cccc([N-]S(=O)(=O)Cc3ccccc3)c2)sc1C(=O)N(C)C (protonated)
Cc1[n-]/c(=N/C(=O)C[NH2+]c2cccc([N-]S(=O)(=O)Cc3ccccc3)c2)sc1C(=O)N(C)C (cis-trans isomerization)
Cc1[n-]/c(=N/C(=O)C[NH2+]c2cccc([N-]S(=O)(=O)Cc3ccccc3)c2)sc1C(=O)N(C)C (3D coordinates assigned)
Cc1[n-]/c(=N/C(=O)C[NH2+]c2cccc([N-]S(=O)(=O)Cc3ccccc3)c2)sc1C(=O)N(C)C (optimized conformer: 87.6407752249101 kcal/mol)

>  <smiles>  (28) 
Cc1[nH]c(=NC(=O)CNc2cccc(NS(=O)(=O)Cc3ccccc3)c2)sc1C(=O)N(C)C

>  <score_type>  (28) 
oracle

>  <origin>  (28) 
adg

>  <m_score__min__energy>  (28) 
-11.529999999999999

>  <m_primary>  (28) 
energy

$$$$
28:0
     RDKit          3D

 40 42  0  0  0  0  0  0  0  0999 V2000
   57.3540   25.9320   44.4680 C   0  0  0  0  0  0  0  0  0  0  0  0
   57.7600   26.3580   45.6740 C   0  0  0  0  0  0  0  0  0  0  0  0
   57.6510   25.6770   46.8980 C   0  0  0  0  0  0  0  0  0  0  0  0
   56.9590   24.5710   47.2350 C   0  0  0  0  0  0  0  0  0  0  0  0
   55.7740   24.0590   46.5320 C   0  0  0  0  0  0  0  0  0  0  0  0
   55.4640   22.7460   46.4650 N   0  0  0  0  0  0  0  0  0  0  0  0
   54.2700   22.7300   45.8330 C   0  0  0  0  0  0  0  0  0  0  0  0
   53.6400   21.6660   45.5910 O   0  0  0  0  0  0  0  0  0  0  0  0
   53.8110   23.9560   45.5080 N   0  0  0  0  0  0  0  0  0  0  0  0
   52.5150   24.3010   44.9340 C   0  0  0  0  0  0  0  0  0  0  0  0
   54.7410   24.8000   45.9820 C   0  0  0  0  0  0  0  0  0  0  0  0
   54.6290   26.1890   45.9480 O   0  0  0  0  0  0  0  0  0  0  0  0
   58.4220   26.3860   47.8060 C   0  0  0  0  0  0  0  0  0  0  0  0
   58.9090   27.4910   47.1400 C   0  0  0  0  0  0  0  0  0  0  0  0
   59.7800   28.5450   47.7510 C   0  0  0  0  0  0  0  0  0  0  0  0
   58.4990   27.4820   45.8530 N   0  0  0  0  0  0  0  0  0  0  0  0
   58.8370   28.4680   44.8640 C   0  0  0  0  0  0  0  0  0  0  0  0
   59.6720   28.1840   43.9650 O   0  0  0  0  0  0  0  0  0  0  0  0
   58.2520   29.7760   44.9120 N   0  0  0  0  0  0  0  0  0  0  0  0
   58.9560   30.9800   45.3570 C   0  0  0  0  0  0  0  0  0  0  0  0
   58.0760   32.1630   45.0180 C   0  0  0  0  0  0  0  0  0  0  0  0
   56.9210   31.8760   44.4140 C   0  0  0  0  0  0  0  0  0  0  0  0
   56.7500   30.1730   44.1800 S   0  0  0  0  0  0  0  0  0  0  0  0
   56.7220   29.7980   42.7260 O   0  0  0  0  0  0  0  0  0  0  0  0
   55.5930   29.5980   44.9440 O   0  0  0  0  0  0  0  0  0  0  0  0
   57.4998   26.5678   43.5823 H   0  0  0  0  0  0  0  0  0  0  0  0
   56.8754   24.9470   44.3651 H   0  0  0  0  0  0  0  0  0  0  0  0
   57.3103   24.0037   48.1095 H   0  0  0  0  0  0  0  0  0  0  0  0
   51.7949   24.4927   45.7432 H   0  0  0  0  0  0  0  0  0  0  0  0
   52.6175   25.2031   44.3130 H   0  0  0  0  0  0  0  0  0  0  0  0
   52.1554   23.4673   44.3130 H   0  0  0  0  0  0  0  0  0  0  0  0
   54.3020   26.7140   46.7480 H   0  0  0  0  0  0  0  0  0  0  0  0
   58.6094   26.1185   48.8564 H   0  0  0  0  0  0  0  0  0  0  0  0
   59.7237   28.4769   48.8474 H   0  0  0  0  0  0  0  0  0  0  0  0
   60.8204   28.3940   47.4272 H   0  0  0  0  0  0  0  0  0  0  0  0
   59.4357   29.5383   47.4272 H   0  0  0  0  0  0  0  0  0  0  0  0
   59.1277   30.9367   46.4426 H   0  0  0  0  0  0  0  0  0  0  0  0
   59.9344   31.0661   44.8617 H   0  0  0  0  0  0  0  0  0  0  0  0
   58.3700   33.1962   45.2548 H   0  0  0  0  0  0  0  0  0  0  0  0
   56.1764   32.6248   44.1059 H   0  0  0  0  0  0  0  0  0  0  0  0
  1  2  2  0
  2  3  1  0
  3  4  2  3
  4  5  1  0
  5  6  1  0
  6  7  1  0
  7  8  2  0
  7  9  1  0
  9 10  1  0
  9 11  1  0
 11 12  1  0
  3 13  1  0
 13 14  2  0
 14 15  1  0
 14 16  1  0
 16 17  1  0
 17 18  2  0
 17 19  1  0
 19 20  1  0
 20 21  1  0
 21 22  2  0
 22 23  1  0
 23 24  2  0
 23 25  2  0
 16  2  1  0
 23 19  1  0
 11  5  2  0
  1 26  1  0
  1 27  1  0
  4 28  1  0
 10 29  1  0
 10 30  1  0
 10 31  1  0
 12 32  1  0
 13 33  1  0
 15 34  1  0
 15 35  1  0
 15 36  1  0
 20 37  1  0
 20 38  1  0
 21 39  1  0
 22 40  1  0
M  CHG  1   6  -1
M  END
>  <UniqueID>  (29) 
25

>  <SMILES>  (29) 
C=c1c(=Cc2[n-]c(=O)n(C)c2O)cc(C)n1C(=O)N1CC=CS1(=O)=O

>  <Energy>  (29) 
129.8028259121008

>  <Genealogy>  (29) 
C=c1c(=Cc2[n-]c(=O)n(C)c2O)cc(C)n1C(=O)N1CC=CS1(=O)=O (protonated)
C=c1c(=Cc2[n-]c(=O)n(C)c2O)cc(C)n1C(=O)N1CC=CS1(=O)=O (3D coordinates assigned)
C=c1c(=Cc2[n-]c(=O)n(C)c2O)cc(C)n1C(=O)N1CC=CS1(=O)=O (nonaromatic ring conformer: 129.8028259121008 kcal/mol)

>  <smiles>  (29) 
C=c1c(=Cc2[nH]c(=O)n(C)c2O)cc(C)n1C(=O)N1CC=CS1(=O)=O

>  <score_type>  (29) 
oracle

>  <origin>  (29) 
adg

>  <m_score__min__energy>  (29) 
-10.58

>  <m_primary>  (29) 
energy

$$$$
29:0
     RDKit          3D

 44 45  0  0  0  0  0  0  0  0999 V2000
   57.8840   22.9430   44.3030 C   0  0  0  0  0  0  0  0  0  0  0  0
   56.2200   22.5460   43.7990 S   0  0  0  0  0  0  0  0  0  0  0  0
   56.2650   21.9100   42.4370 O   0  0  0  0  0  0  0  0  0  0  0  0
   55.6180   21.5720   44.7720 O   0  0  0  0  0  0  0  0  0  0  0  0
   55.2510   23.9870   43.7150 N   0  0  0  0  0  0  0  0  0  0  0  0
   54.2750   24.0000   44.8050 C   0  0  0  0  0  0  0  0  0  0  0  0
   54.8490   24.7060   45.9910 C   0  0  0  0  0  0  0  0  0  0  0  0
   55.0880   24.0650   47.0490 O   0  0  0  0  0  0  0  0  0  0  0  0
   55.0990   26.1140   45.9270 N   0  0  0  0  0  0  0  0  0  0  0  0
   56.3320   26.7170   46.4110 C   0  0  0  0  0  0  0  0  0  0  0  0
   57.1800   27.1710   45.2260 C   0  0  0  0  0  0  0  0  0  0  0  0
   57.0330   28.6460   45.0130 C   0  0  0  0  0  0  0  0  0  0  0  0
   57.9550   29.5430   45.4200 N   0  0  0  0  0  0  0  0  0  0  0  0
   57.4180   30.7330   45.0930 C   0  0  0  0  0  0  0  0  0  0  0  0
   58.0750   32.0360   45.3580 C   0  0  0  0  0  0  0  0  0  0  0  0
   57.4630   33.2280   44.9270 C   0  0  0  0  0  0  0  0  0  0  0  0
   58.0700   34.4640   45.1680 C   0  0  0  0  0  0  0  0  0  0  0  0
   59.2910   34.5270   45.8380 C   0  0  0  0  0  0  0  0  0  0  0  0
   59.9160   33.3520   46.2730 C   0  0  0  0  0  0  0  0  0  0  0  0
   61.4350   33.4360   47.1590 S   0  0  0  0  0  0  0  0  0  0  0  0
   61.1610   34.2460   48.7170 C   0  0  0  0  0  0  0  0  0  0  0  0
   62.4510   34.2040   46.3610 O   0  0  0  0  0  0  0  0  0  0  0  0
   61.9600   32.0480   47.4000 O   0  0  0  0  0  0  0  0  0  0  0  0
   59.3050   32.1120   46.0390 C   0  0  0  0  0  0  0  0  0  0  0  0
   56.1830   30.5230   44.5070 C   0  0  0  0  0  0  0  0  0  0  0  0
   55.9350   29.2030   44.4620 N   0  0  0  0  0  0  0  0  0  0  0  0
   57.9410   22.9566   45.4014 H   0  0  0  0  0  0  0  0  0  0  0  0
   58.5771   22.1850   43.9092 H   0  0  0  0  0  0  0  0  0  0  0  0
   58.1602   23.9323   43.9092 H   0  0  0  0  0  0  0  0  0  0  0  0
   55.9000   24.7960   43.8490 H   0  0  0  0  0  0  0  0  0  0  0  0
   53.3652   24.5224   44.4742 H   0  0  0  0  0  0  0  0  0  0  0  0
   54.0279   22.9649   45.0833 H   0  0  0  0  0  0  0  0  0  0  0  0
   56.0916   27.5848   47.0428 H   0  0  0  0  0  0  0  0  0  0  0  0
   56.8938   25.9769   46.9997 H   0  0  0  0  0  0  0  0  0  0  0  0
   58.2362   26.9372   45.4255 H   0  0  0  0  0  0  0  0  0  0  0  0
   56.8403   26.6445   44.3219 H   0  0  0  0  0  0  0  0  0  0  0  0
   56.5001   33.1867   44.3967 H   0  0  0  0  0  0  0  0  0  0  0  0
   57.5828   35.3897   44.8280 H   0  0  0  0  0  0  0  0  0  0  0  0
   59.7645   35.5021   46.0253 H   0  0  0  0  0  0  0  0  0  0  0  0
   61.3958   33.5519   49.5374 H   0  0  0  0  0  0  0  0  0  0  0  0
   61.8096   35.1315   48.7889 H   0  0  0  0  0  0  0  0  0  0  0  0
   60.1080   34.5559   48.7889 H   0  0  0  0  0  0  0  0  0  0  0  0
   59.7910   31.1900   46.3907 H   0  0  0  0  0  0  0  0  0  0  0  0
   55.5107   31.3110   44.1367 H   0  0  0  0  0  0  0  0  0  0  0  0
  1  2  1  0
  2  3  2  0
  2  4  2  0
  2  5  1  0
  5  6  1  0
  6  7  1  0
  7  8  2  0
  7  9  1  0
  9 10  1  0
 10 11  1  0
 11 12  1  0
 12 13  2  0
 13 14  1  0
 14 15  1  0
 15 16  2  0
 16 17  1  0
 17 18  2  0
 18 19  1  0
 19 20  1  0
 20 21  1  0
 20 22  2  0
 20 23  2  0
 19 24  2  0
 14 25  2  0
 25 26  1  0
 26 12  1  0
 24 15  1  0
  1 27  1  0
  1 28  1  0
  1 29  1  0
  5 30  1  0
  6 31  1  0
  6 32  1  0
 10 33  1  0
 10 34  1  0
 11 35  1  0
 11 36  1  0
 16 37  1  0
 17 38  1  0
 18 39  1  0
 21 40  1  0
 21 41  1  0
 21 42  1  0
 24 43  1  0
 25 44  1  0
M  CHG  2   9  -1  26  -1
M  END
>  <UniqueID>  (30) 
26

>  <SMILES>  (30) 
CS(=O)(=O)NCC(=O)[N-]CCc1nc(-c2cccc(S(C)(=O)=O)c2)c[n-]1

>  <Energy>  (30) 
56.16132387709048

>  <Genealogy>  (30) 
CS(=O)(=O)NCC(=O)[N-]CCc1nc(-c2cccc(S(C)(=O)=O)c2)c[n-]1 (protonated)
CS(=O)(=O)NCC(=O)[N-]CCc1nc(-c2cccc(S(C)(=O)=O)c2)c[n-]1 (3D coordinates assigned)
CS(=O)(=O)NCC(=O)[N-]CCc1nc(-c2cccc(S(C)(=O)=O)c2)c[n-]1 (optimized conformer: 56.16132387709048 kcal/mol)

>  <smiles>  (30) 
CS(=O)(=O)NCC(=O)NCCc1nc(-c2cccc(S(C)(=O)=O)c2)c[nH]1

>  <score_type>  (30) 
oracle

>  <origin>  (30) 
adg

>  <m_score__min__energy>  (30) 
-12.550000000000001

>  <m_primary>  (30) 
energy

$$$$
30:0
     RDKit          3D

 53 56  0  0  0  0  0  0  0  0999 V2000
   59.0300   28.8460   44.1500 O   0  0  0  0  0  0  0  0  0  0  0  0
   58.2890   28.6650   45.1550 C   0  0  0  0  0  0  0  0  0  0  0  0
   57.5770   29.7760   45.7230 N   0  0  0  0  0  0  0  0  0  0  0  0
   57.9630   31.1500   45.5400 C   0  0  0  0  0  0  0  0  0  0  0  0
   57.3420   31.9120   44.5410 C   0  0  0  0  0  0  0  0  0  0  0  0
   57.6810   33.2560   44.3630 C   0  0  0  0  0  0  0  0  0  0  0  0
   58.6400   33.8520   45.1840 C   0  0  0  0  0  0  0  0  0  0  0  0
   59.2720   33.1060   46.1900 C   0  0  0  0  0  0  0  0  0  0  0  0
   60.2590   33.7400   47.0880 C   0  0  0  0  0  0  0  0  0  0  0  0
   59.9300   34.7860   47.7110 O   0  0  0  0  0  0  0  0  0  0  0  0
   61.5760   33.1880   47.2710 N   0  0  0  0  0  0  0  0  0  0  0  0
   62.6640   33.9430   47.8680 C   0  0  0  0  0  0  0  0  0  0  0  0
   63.7250   32.9180   48.2460 C   0  0  0  0  0  0  0  0  0  0  0  0
   63.3570   31.6360   47.5030 C   0  0  0  0  0  0  0  0  0  0  0  0
   61.8870   31.7740   47.1340 C   0  0  0  0  0  0  0  0  0  0  0  0
   58.9120   31.7610   46.3810 C   0  0  0  0  0  0  0  0  0  0  0  0
   58.1250   27.2950   45.7040 C   0  0  0  0  0  0  0  0  0  0  0  0
   58.3060   27.0480   47.0720 C   0  0  0  0  0  0  0  0  0  0  0  0
   58.1630   25.7590   47.5780 C   0  0  0  0  0  0  0  0  0  0  0  0
   57.8390   24.6980   46.7310 C   0  0  0  0  0  0  0  0  0  0  0  0
   57.6480   24.9040   45.3450 C   0  0  0  0  0  0  0  0  0  0  0  0
   57.3090   23.7940   44.4560 N   0  0  0  0  0  0  0  0  0  0  0  0
   58.0470   22.5170   44.5750 C   0  0  0  0  0  0  0  0  0  0  0  0
   57.6410   21.4730   43.5320 C   0  0  0  0  0  0  0  0  0  0  0  0
   56.2530   21.5100   43.2950 O   0  0  0  0  0  0  0  0  0  0  0  0
   55.9510   22.7120   42.6300 C   0  0  0  0  0  0  0  0  0  0  0  0
   56.1410   23.9160   43.5560 C   0  0  0  0  0  0  0  0  0  0  0  0
   57.8060   26.2220   44.8500 C   0  0  0  0  0  0  0  0  0  0  0  0
   56.6660   29.5850   46.1990 H   0  0  0  0  0  0  0  0  0  0  0  0
   56.5830   31.4493   43.8930 H   0  0  0  0  0  0  0  0  0  0  0  0
   57.1911   33.8457   43.5742 H   0  0  0  0  0  0  0  0  0  0  0  0
   58.9012   34.9110   45.0415 H   0  0  0  0  0  0  0  0  0  0  0  0
   63.0704   34.6654   47.1448 H   0  0  0  0  0  0  0  0  0  0  0  0
   62.3253   34.5155   48.7440 H   0  0  0  0  0  0  0  0  0  0  0  0
   64.7210   33.2669   47.9356 H   0  0  0  0  0  0  0  0  0  0  0  0
   63.7596   32.7570   49.3336 H   0  0  0  0  0  0  0  0  0  0  0  0
   63.9706   31.5299   46.5962 H   0  0  0  0  0  0  0  0  0  0  0  0
   63.5355   30.7450   48.1229 H   0  0  0  0  0  0  0  0  0  0  0  0
   61.7192   31.4433   46.0984 H   0  0  0  0  0  0  0  0  0  0  0  0
   61.2473   31.1540   47.7793 H   0  0  0  0  0  0  0  0  0  0  0  0
   59.3751   31.1817   47.1934 H   0  0  0  0  0  0  0  0  0  0  0  0
   58.5622   27.8765   47.7487 H   0  0  0  0  0  0  0  0  0  0  0  0
   58.3064   25.5754   48.6530 H   0  0  0  0  0  0  0  0  0  0  0  0
   57.7305   23.6859   47.1480 H   0  0  0  0  0  0  0  0  0  0  0  0
   59.1210   22.7244   44.4591 H   0  0  0  0  0  0  0  0  0  0  0  0
   57.8052   22.0964   45.5622 H   0  0  0  0  0  0  0  0  0  0  0  0
   58.1723   21.6789   42.5911 H   0  0  0  0  0  0  0  0  0  0  0  0
   57.9051   20.4755   43.9131 H   0  0  0  0  0  0  0  0  0  0  0  0
   56.6164   22.8187   41.7606 H   0  0  0  0  0  0  0  0  0  0  0  0
   54.8992   22.6797   42.3097 H   0  0  0  0  0  0  0  0  0  0  0  0
   56.2729   24.8145   42.9352 H   0  0  0  0  0  0  0  0  0  0  0  0
   55.2472   23.9754   44.1945 H   0  0  0  0  0  0  0  0  0  0  0  0
   57.6765   26.4113   43.7742 H   0  0  0  0  0  0  0  0  0  0  0  0
  1  2  2  0
  2  3  1  0
  3  4  1  0
  4  5  2  0
  5  6  1  0
  6  7  2  0
  7  8  1  0
  8  9  1  0
  9 10  2  0
  9 11  1  0
 11 12  1  0
 12 13  1  0
 13 14  1  0
 14 15  1  0
  8 16  2  0
  2 17  1  0
 17 18  2  0
 18 19  1  0
 19 20  2  0
 20 21  1  0
 21 22  1  0
 22 23  1  0
 23 24  1  0
 24 25  1  0
 25 26  1  0
 26 27  1  0
 21 28  2  0
 16  4  1  0
 28 17  1  0
 15 11  1  0
 27 22  1  0
  3 29  1  0
  5 30  1  0
  6 31  1  0
  7 32  1  0
 12 33  1  0
 12 34  1  0
 13 35  1  0
 13 36  1  0
 14 37  1  0
 14 38  1  0
 15 39  1  0
 15 40  1  0
 16 41  1  0
 18 42  1  0
 19 43  1  0
 20 44  1  0
 23 45  1  0
 23 46  1  0
 24 47  1  0
 24 48  1  0
 26 49  1  0
 26 50  1  0
 27 51  1  0
 27 52  1  0
 28 53  1  0
M  END
>  <UniqueID>  (31) 
27

>  <SMILES>  (31) 
O=C(Nc1cccc(C(=O)N2CCCC2)c1)c1cccc(N2CCOCC2)c1

>  <Energy>  (31) 
73.3958028968631

>  <Genealogy>  (31) 
O=C(Nc1cccc(C(=O)N2CCCC2)c1)c1cccc(N2CCOCC2)c1 (3D coordinates assigned)
O=C(Nc1cccc(C(=O)N2CCCC2)c1)c1cccc(N2CCOCC2)c1 (nonaromatic ring conformer: 73.3958028968631 kcal/mol)

>  <smiles>  (31) 
O=C(Nc1cccc(C(=O)N2CCCC2)c1)c1cccc(N2CCOCC2)c1

>  <score_type>  (31) 
oracle

>  <origin>  (31) 
adg

>  <m_score__min__energy>  (31) 
-8.9499999999999993

>  <m_primary>  (31) 
energy

$$$$
31:0
     RDKit          3D

 56 59  0  0  0  0  0  0  0  0999 V2000
   59.6020   33.8280   51.1550 C   0  0  0  0  0  0  0  0  0  0  0  0
   60.4370   33.6330   49.9350 C   0  0  0  0  0  0  0  0  0  0  0  0
   61.6240   32.9280   49.8730 C   0  0  0  0  0  0  0  0  0  0  0  0
   61.9690   32.9650   48.5370 C   0  0  0  0  0  0  0  0  0  0  0  0
   63.1460   32.2720   47.9250 C   0  0  0  0  0  0  0  0  0  0  0  0
   61.0150   33.6410   47.8600 N   0  0  0  0  0  0  0  0  0  0  0  0
   60.9350   33.8530   46.4150 C   0  0  0  0  0  0  0  0  0  0  0  0
   59.5590   33.5080   45.9110 C   0  0  0  0  0  0  0  0  0  0  0  0
   58.6820   34.5150   45.4820 C   0  0  0  0  0  0  0  0  0  0  0  0
   57.4110   34.1830   45.0070 C   0  0  0  0  0  0  0  0  0  0  0  0
   57.0060   32.8480   44.9590 C   0  0  0  0  0  0  0  0  0  0  0  0
   57.8680   31.8270   45.3930 C   0  0  0  0  0  0  0  0  0  0  0  0
   57.4490   30.4060   45.3350 C   0  0  0  0  0  0  0  0  0  0  0  0
   56.3100   30.1160   44.8820 O   0  0  0  0  0  0  0  0  0  0  0  0
   58.2830   29.3480   45.8260 N   0  0  0  0  0  0  0  0  0  0  0  0
   57.8540   28.0180   46.1630 C   0  0  0  0  0  0  0  0  0  0  0  0
   56.6840   27.4780   45.5970 C   0  0  0  0  0  0  0  0  0  0  0  0
   56.2400   26.2070   45.9670 C   0  0  0  0  0  0  0  0  0  0  0  0
   56.9460   25.4680   46.9140 C   0  0  0  0  0  0  0  0  0  0  0  0
   58.0980   25.9970   47.4990 C   0  0  0  0  0  0  0  0  0  0  0  0
   58.5590   27.2760   47.1390 C   0  0  0  0  0  0  0  0  0  0  0  0
   59.8020   27.7970   47.7580 C   0  0  0  0  0  0  0  0  0  0  0  0
   60.9180   27.3400   47.3870 O   0  0  0  0  0  0  0  0  0  0  0  0
   59.7500   28.7760   48.8110 N   0  0  0  0  0  0  0  0  0  0  0  0
   60.8070   28.7980   49.8260 C   0  0  0  0  0  0  0  0  0  0  0  0
   60.2820   29.4570   51.1050 C   0  0  0  0  0  0  0  0  0  0  0  0
   59.7090   30.7210   50.8240 O   0  0  0  0  0  0  0  0  0  0  0  0
   58.5620   30.5550   50.0110 C   0  0  0  0  0  0  0  0  0  0  0  0
   58.9440   29.9900   48.6400 C   0  0  0  0  0  0  0  0  0  0  0  0
   59.1500   32.1660   45.8580 C   0  0  0  0  0  0  0  0  0  0  0  0
   60.0750   34.0420   48.7020 N   0  0  0  0  0  0  0  0  0  0  0  0
   60.2229   33.6830   52.0513 H   0  0  0  0  0  0  0  0  0  0  0  0
   59.1878   34.8470   51.1568 H   0  0  0  0  0  0  0  0  0  0  0  0
   58.7793   33.0978   51.1568 H   0  0  0  0  0  0  0  0  0  0  0  0
   62.1689   32.4475   50.6990 H   0  0  0  0  0  0  0  0  0  0  0  0
   63.7998   31.8871   48.7215 H   0  0  0  0  0  0  0  0  0  0  0  0
   62.7959   31.4358   47.3019 H   0  0  0  0  0  0  0  0  0  0  0  0
   63.7073   32.9838   47.3019 H   0  0  0  0  0  0  0  0  0  0  0  0
   61.1494   34.9083   46.1908 H   0  0  0  0  0  0  0  0  0  0  0  0
   61.6711   33.2046   45.9172 H   0  0  0  0  0  0  0  0  0  0  0  0
   58.9958   35.5686   45.5197 H   0  0  0  0  0  0  0  0  0  0  0  0
   56.7272   34.9759   44.6698 H   0  0  0  0  0  0  0  0  0  0  0  0
   56.0055   32.5938   44.5789 H   0  0  0  0  0  0  0  0  0  0  0  0
   56.1153   28.0614   44.8579 H   0  0  0  0  0  0  0  0  0  0  0  0
   55.3312   25.7883   45.5100 H   0  0  0  0  0  0  0  0  0  0  0  0
   56.5950   24.4659   47.2013 H   0  0  0  0  0  0  0  0  0  0  0  0
   58.6494   25.4088   48.2473 H   0  0  0  0  0  0  0  0  0  0  0  0
   61.1217   27.7677   50.0484 H   0  0  0  0  0  0  0  0  0  0  0  0
   61.6645   29.3727   49.4460 H   0  0  0  0  0  0  0  0  0  0  0  0
   59.5178   28.8077   51.5570 H   0  0  0  0  0  0  0  0  0  0  0  0
   61.1243   29.5994   51.7980 H   0  0  0  0  0  0  0  0  0  0  0  0
   57.8666   29.8611   50.5059 H   0  0  0  0  0  0  0  0  0  0  0  0
   58.0865   31.5365   49.8677 H   0  0  0  0  0  0  0  0  0  0  0  0
   58.0305   29.7459   48.0780 H   0  0  0  0  0  0  0  0  0  0  0  0
   59.5290   30.7401   48.0877 H   0  0  0  0  0  0  0  0  0  0  0  0
   59.8392   31.3728   46.1834 H   0  0  0  0  0  0  0  0  0  0  0  0
  1  2  1  0
  2  3  1  0
  3  4  2  0
  4  5  1  0
  4  6  1  0
  6  7  1  0
  7  8  1  0
  8  9  2  0
  9 10  1  0
 10 11  2  0
 11 12  1  0
 12 13  1  0
 13 14  2  0
 13 15  1  0
 15 16  1  0
 16 17  2  0
 17 18  1  0
 18 19  2  0
 19 20  1  0
 20 21  2  0
 21 22  1  0
 22 23  2  0
 22 24  1  0
 24 25  1  0
 25 26  1  0
 26 27  1  0
 27 28  1  0
 28 29  1  0
 12 30  2  0
  6 31  1  0
 31  2  2  0
 30  8  1  0
 21 16  1  0
 29 24  1  0
  1 32  1  0
  1 33  1  0
  1 34  1  0
  3 35  1  0
  5 36  1  0
  5 37  1  0
  5 38  1  0
  7 39  1  0
  7 40  1  0
  9 41  1  0
 10 42  1  0
 11 43  1  0
 17 44  1  0
 18 45  1  0
 19 46  1  0
 20 47  1  0
 25 48  1  0
 25 49  1  0
 26 50  1  0
 26 51  1  0
 28 52  1  0
 28 53  1  0
 29 54  1  0
 29 55  1  0
 30 56  1  0
M  CHG  1  15  -1
M  END
>  <UniqueID>  (32) 
28

>  <SMILES>  (32) 
Cc1cc(C)n(Cc2cccc(C(=O)[N-]c3ccccc3C(=O)N3CCOCC3)c2)n1

>  <Energy>  (32) 
98.62010606096028

>  <Genealogy>  (32) 
Cc1cc(C)n(Cc2cccc(C(=O)[N-]c3ccccc3C(=O)N3CCOCC3)c2)n1 (protonated)
Cc1cc(C)n(Cc2cccc(C(=O)[N-]c3ccccc3C(=O)N3CCOCC3)c2)n1 (3D coordinates assigned)
Cc1cc(C)n(Cc2cccc(C(=O)[N-]c3ccccc3C(=O)N3CCOCC3)c2)n1 (nonaromatic ring conformer: 98.62010606096028 kcal/mol)

>  <smiles>  (32) 
Cc1cc(C)n(Cc2cccc(C(=O)Nc3ccccc3C(=O)N3CCOCC3)c2)n1

>  <score_type>  (32) 
oracle

>  <origin>  (32) 
adg

>  <m_score__min__energy>  (32) 
-12.81

>  <m_primary>  (32) 
energy

$$$$
32:0
     RDKit          3D

 59 62  0  0  0  0  0  0  0  0999 V2000
   58.7801   35.5728   43.9724 H   0  0  0  0  0  0  0  0  0  0  0  0
   58.9100   34.9320   44.8570 C   0  0  0  0  0  0  0  0  0  0  0  0
   58.3640   33.6900   44.8820 N   0  0  0  0  0  0  0  0  0  0  0  0
   58.4910   32.8440   45.9410 C   0  0  0  0  0  0  0  0  0  0  0  0
   57.8630   31.7020   45.8680 N   0  0  0  0  0  0  0  0  0  0  0  0
   58.3960   30.3730   45.8300 C   0  0  0  0  0  0  0  0  0  0  0  0
   58.7370   29.8190   46.9080 O   0  0  0  0  0  0  0  0  0  0  0  0
   58.6420   29.7260   44.5730 N   0  0  0  0  0  0  0  0  0  0  0  0
   58.4320   30.2430   43.6890 H   0  0  0  0  0  0  0  0  0  0  0  0
   59.1990   28.3800   44.4770 C   0  0  0  0  0  0  0  0  0  0  0  0
   59.2029   28.0628   43.4237 H   0  0  0  0  0  0  0  0  0  0  0  0
   60.2260   28.3880   44.8710 H   0  0  0  0  0  0  0  0  0  0  0  0
   58.3720   27.4160   45.2830 C   0  0  0  0  0  0  0  0  0  0  0  0
   59.0030   26.4550   46.0900 C   0  0  0  0  0  0  0  0  0  0  0  0
   60.1012   26.3987   46.1177 H   0  0  0  0  0  0  0  0  0  0  0  0
   58.2410   25.5700   46.8580 C   0  0  0  0  0  0  0  0  0  0  0  0
   58.7403   24.8175   47.4860 H   0  0  0  0  0  0  0  0  0  0  0  0
   56.8450   25.6400   46.8290 C   0  0  0  0  0  0  0  0  0  0  0  0
   56.2469   24.9424   47.4337 H   0  0  0  0  0  0  0  0  0  0  0  0
   56.2090   26.5960   46.0320 C   0  0  0  0  0  0  0  0  0  0  0  0
   54.8220   26.6680   46.0070 O   0  0  0  0  0  0  0  0  0  0  0  0
   56.9690   27.4840   45.2620 C   0  0  0  0  0  0  0  0  0  0  0  0
   56.4660   28.2377   44.6383 H   0  0  0  0  0  0  0  0  0  0  0  0
   59.2930   33.2560   47.0500 C   0  0  0  0  0  0  0  0  0  0  0  0
   59.7190   32.3630   48.1500 C   0  0  0  0  0  0  0  0  0  0  0  0
   58.8360   31.9070   48.9270 O   0  0  0  0  0  0  0  0  0  0  0  0
   61.1130   32.0690   48.3870 N   0  0  0  0  0  0  0  0  0  0  0  0
   61.5020   30.9340   49.2380 C   0  0  0  0  0  0  0  0  0  0  0  0
   61.9975   30.1692   48.6219 H   0  0  0  0  0  0  0  0  0  0  0  0
   60.6028   30.5082   49.7072 H   0  0  0  0  0  0  0  0  0  0  0  0
   62.4650   31.4080   50.3310 C   0  0  0  0  0  0  0  0  0  0  0  0
   62.9320   30.5310   50.8030 H   0  0  0  0  0  0  0  0  0  0  0  0
   61.8942   31.9882   51.0710 H   0  0  0  0  0  0  0  0  0  0  0  0
   63.5170   32.2700   49.7740 N   0  0  0  0  0  0  0  0  0  0  0  0
   64.4650   32.8870   50.6570 C   0  0  0  0  0  0  0  0  0  0  0  0
   64.2270   34.1870   51.1270 C   0  0  0  0  0  0  0  0  0  0  0  0
   63.3228   34.7269   50.8093 H   0  0  0  0  0  0  0  0  0  0  0  0
   65.1320   34.7990   51.9960 C   0  0  0  0  0  0  0  0  0  0  0  0
   64.9387   35.8179   52.3626 H   0  0  0  0  0  0  0  0  0  0  0  0
   66.2820   34.1190   52.4000 C   0  0  0  0  0  0  0  0  0  0  0  0
   66.9913   34.6010   53.0889 H   0  0  0  0  0  0  0  0  0  0  0  0
   66.5340   32.8270   51.9310 C   0  0  0  0  0  0  0  0  0  0  0  0
   67.4428   32.2964   52.2511 H   0  0  0  0  0  0  0  0  0  0  0  0
   65.6300   32.2000   51.0500 C   0  0  0  0  0  0  0  0  0  0  0  0
   65.8630   30.9140   50.5380 O   0  0  0  0  0  0  0  0  0  0  0  0
   66.5590   29.8830   51.2300 C   0  0  0  0  0  0  0  0  0  0  0  0
   66.4562   30.0353   52.3145 H   0  0  0  0  0  0  0  0  0  0  0  0
   66.1349   28.9060   50.9551 H   0  0  0  0  0  0  0  0  0  0  0  0
   67.6237   29.9110   50.9551 H   0  0  0  0  0  0  0  0  0  0  0  0
   63.5530   32.5670   48.3370 C   0  0  0  0  0  0  0  0  0  0  0  0
   63.8929   31.6756   47.7894 H   0  0  0  0  0  0  0  0  0  0  0  0
   64.2465   33.4021   48.1587 H   0  0  0  0  0  0  0  0  0  0  0  0
   62.1560   32.9610   47.8470 C   0  0  0  0  0  0  0  0  0  0  0  0
   62.1361   32.9076   46.7485 H   0  0  0  0  0  0  0  0  0  0  0  0
   61.9467   33.9824   48.1977 H   0  0  0  0  0  0  0  0  0  0  0  0
   59.8280   34.5530   47.0440 C   0  0  0  0  0  0  0  0  0  0  0  0
   60.4056   34.9086   47.9100 H   0  0  0  0  0  0  0  0  0  0  0  0
   59.6340   35.3940   45.9510 C   0  0  0  0  0  0  0  0  0  0  0  0
   60.0489   36.4127   45.9529 H   0  0  0  0  0  0  0  0  0  0  0  0
  1  2  1  0
  2  3  1  0
  3  4  1  0
  4  5  2  0
  5  6  1  0
  6  7  2  0
  6  8  1  0
  8  9  1  0
  8 10  1  0
 10 11  1  0
 10 12  1  0
 10 13  1  0
 13 14  2  0
 14 15  1  0
 14 16  1  0
 16 17  1  0
 16 18  2  0
 18 19  1  0
 18 20  1  0
 20 21  1  0
 20 22  2  0
 22 23  1  0
  4 24  1  0
 24 25  1  0
 25 26  2  0
 25 27  1  0
 27 28  1  0
 28 29  1  0
 28 30  1  0
 28 31  1  0
 31 32  1  0
 31 33  1  0
 31 34  1  0
 34 35  1  0
 35 36  2  0
 36 37  1  0
 36 38  1  0
 38 39  1  0
 38 40  2  0
 40 41  1  0
 40 42  1  0
 42 43  1  0
 42 44  2  0
 44 45  1  0
 45 46  1  0
 46 47  1  0
 46 48  1  0
 46 49  1  0
 34 50  1  0
 50 51  1  0
 50 52  1  0
 50 53  1  0
 53 54  1  0
 53 55  1  0
 24 56  2  0
 56 57  1  0
 56 58  1  0
 58 59  1  0
 58  2  2  0
 22 13  1  0
 53 27  1  0
 44 35  1  0
M  CHG  2   3  -1  21  -1
M  END
>  <UniqueID>  (33) 
29

>  <SMILES>  (33) 
COc1ccccc1N1CCN(C(=O)c2ccc[n-]/c2=N/C(=O)NCc2cccc([O-])c2)CC1

>  <Energy>  (33) 
85.00255007090851

>  <Genealogy>  (33) 
COc1ccccc1N1CCN(C(=O)c2ccc[n-]c2=NC(=O)NCc2cccc([O-])c2)CC1 (protonated)
COc1ccccc1N1CCN(C(=O)c2ccc[n-]/c2=N/C(=O)NCc2cccc([O-])c2)CC1 (cis-trans isomerization)
COc1ccccc1N1CCN(C(=O)c2ccc[n-]/c2=N/C(=O)NCc2cccc([O-])c2)CC1 (3D coordinates assigned)
COc1ccccc1N1CCN(C(=O)c2ccc[n-]/c2=N/C(=O)NCc2cccc([O-])c2)CC1 (nonaromatic ring conformer: 85.00255007090851 kcal/mol)

>  <smiles>  (33) 
COc1ccccc1N1CCN(C(=O)c2ccc[nH]c2=NC(=O)NCc2cccc(O)c2)CC1

>  <score_type>  (33) 
oracle

>  <origin>  (33) 
adg

>  <m_score__min__energy>  (33) 
-14.619999999999999

>  <m_primary>  (33) 
energy

$$$$
33:0
     RDKit          3D

 41 43  0  0  0  0  0  0  0  0999 V2000
   55.8440   30.5250   51.3770 O   0  0  0  0  0  0  0  0  0  0  0  0
   55.9230   30.7670   52.6130 C   0  0  0  0  0  0  0  0  0  0  0  0
   57.1480   31.4360   53.1550 C   0  0  0  0  0  0  0  0  0  0  0  0
   58.0670   31.8210   52.0290 C   0  0  0  0  0  0  0  0  0  0  0  0
   58.4340   33.1620   51.8440 C   0  0  0  0  0  0  0  0  0  0  0  0
   59.3150   33.5170   50.8200 C   0  0  0  0  0  0  0  0  0  0  0  0
   59.8490   32.5370   49.9660 C   0  0  0  0  0  0  0  0  0  0  0  0
   60.7910   32.9160   48.8850 C   0  0  0  0  0  0  0  0  0  0  0  0
   60.3340   33.6580   47.7810 C   0  0  0  0  0  0  0  0  0  0  0  0
   61.2150   34.0260   46.7600 C   0  0  0  0  0  0  0  0  0  0  0  0
   62.5590   33.6550   46.8270 C   0  0  0  0  0  0  0  0  0  0  0  0
   63.0250   32.9130   47.9140 C   0  0  0  0  0  0  0  0  0  0  0  0
   62.1500   32.5410   48.9410 C   0  0  0  0  0  0  0  0  0  0  0  0
   62.6230   31.7880   49.9660 F   0  0  0  0  0  0  0  0  0  0  0  0
   59.4930   31.1910   50.1660 C   0  0  0  0  0  0  0  0  0  0  0  0
   58.6110   30.8370   51.1910 C   0  0  0  0  0  0  0  0  0  0  0  0
   54.8300   30.4490   53.4850 N   0  0  0  0  0  0  0  0  0  0  0  0
   53.6110   29.7980   53.0110 C   0  0  0  0  0  0  0  0  0  0  0  0
   52.5750   30.8290   52.6530 C   0  0  0  0  0  0  0  0  0  0  0  0
   51.6730   31.2850   53.6240 C   0  0  0  0  0  0  0  0  0  0  0  0
   50.7030   32.2270   53.2740 C   0  0  0  0  0  0  0  0  0  0  0  0
   50.6330   32.6920   51.9990 N   0  0  0  0  0  0  0  0  0  0  0  0
   51.4900   32.2640   51.0340 C   0  0  0  0  0  0  0  0  0  0  0  0
   51.3920   32.7160   49.8640 O   0  0  0  0  0  0  0  0  0  0  0  0
   52.4770   31.3210   51.3430 C   0  0  0  0  0  0  0  0  0  0  0  0
   56.8540   32.3392   53.7098 H   0  0  0  0  0  0  0  0  0  0  0  0
   57.6722   30.7391   53.8255 H   0  0  0  0  0  0  0  0  0  0  0  0
   58.0260   33.9378   52.5086 H   0  0  0  0  0  0  0  0  0  0  0  0
   59.5931   34.5721   50.6809 H   0  0  0  0  0  0  0  0  0  0  0  0
   59.2754   33.9509   47.7206 H   0  0  0  0  0  0  0  0  0  0  0  0
   60.8485   34.6090   45.9022 H   0  0  0  0  0  0  0  0  0  0  0  0
   63.2510   33.9472   46.0234 H   0  0  0  0  0  0  0  0  0  0  0  0
   64.0840   32.6196   47.9634 H   0  0  0  0  0  0  0  0  0  0  0  0
   59.9113   30.4120   49.5116 H   0  0  0  0  0  0  0  0  0  0  0  0
   58.3422   29.7810   51.3411 H   0  0  0  0  0  0  0  0  0  0  0  0
   54.8970   30.7020   54.4970 H   0  0  0  0  0  0  0  0  0  0  0  0
   53.8443   29.1937   52.1219 H   0  0  0  0  0  0  0  0  0  0  0  0
   53.2147   29.1543   53.8101 H   0  0  0  0  0  0  0  0  0  0  0  0
   51.7286   30.9037   54.6543 H   0  0  0  0  0  0  0  0  0  0  0  0
   49.9945   32.5931   54.0317 H   0  0  0  0  0  0  0  0  0  0  0  0
   53.1702   30.9686   50.5650 H   0  0  0  0  0  0  0  0  0  0  0  0
  1  2  2  0
  2  3  1  0
  3  4  1  0
  4  5  2  0
  5  6  1  0
  6  7  2  0
  7  8  1  0
  8  9  2  0
  9 10  1  0
 10 11  2  0
 11 12  1  0
 12 13  2  0
 13 14  1  0
  7 15  1  0
 15 16  2  0
  2 17  1  0
 17 18  1  0
 18 19  1  0
 19 20  1  0
 20 21  2  0
 21 22  1  0
 22 23  1  0
 23 24  2  0
 23 25  1  0
 16  4  1  0
 25 19  2  0
 13  8  1  0
  3 26  1  0
  3 27  1  0
  5 28  1  0
  6 29  1  0
  9 30  1  0
 10 31  1  0
 11 32  1  0
 12 33  1  0
 15 34  1  0
 16 35  1  0
 17 36  1  0
 18 37  1  0
 18 38  1  0
 20 39  1  0
 21 40  1  0
 25 41  1  0
M  CHG  1  22  -1
M  END
>  <UniqueID>  (34) 
30

>  <SMILES>  (34) 
O=C(Cc1ccc(-c2ccccc2F)cc1)NCc1cc[n-]c(=O)c1

>  <Energy>  (34) 
46.054714449282415

>  <Genealogy>  (34) 
O=C(Cc1ccc(-c2ccccc2F)cc1)NCc1cc[n-]c(=O)c1 (protonated)
O=C(Cc1ccc(-c2ccccc2F)cc1)NCc1cc[n-]c(=O)c1 (3D coordinates assigned)
O=C(Cc1ccc(-c2ccccc2F)cc1)NCc1cc[n-]c(=O)c1 (optimized conformer: 46.054714449282415 kcal/mol)

>  <smiles>  (34) 
O=C(Cc1ccc(-c2ccccc2F)cc1)NCc1cc[nH]c(=O)c1

>  <score_type>  (34) 
oracle

>  <origin>  (34) 
adg

>  <m_score__min__energy>  (34) 
-11.23

>  <m_primary>  (34) 
energy

$$$$
34:0
     RDKit          3D

 53 55  0  0  0  0  0  0  0  0999 V2000
   56.7270   30.3830   43.3860 C   0  0  0  0  0  0  0  0  0  0  0  0
   56.4480   31.2210   44.5030 O   0  0  0  0  0  0  0  0  0  0  0  0
   57.3860   32.0630   45.1160 C   0  0  0  0  0  0  0  0  0  0  0  0
   57.9130   33.1240   44.3700 C   0  0  0  0  0  0  0  0  0  0  0  0
   58.8450   33.9960   44.9380 C   0  0  0  0  0  0  0  0  0  0  0  0
   59.2650   33.8090   46.2570 C   0  0  0  0  0  0  0  0  0  0  0  0
   58.7660   32.7370   47.0130 C   0  0  0  0  0  0  0  0  0  0  0  0
   59.1700   32.5400   48.3760 N   0  0  0  0  0  0  0  0  0  0  0  0
   60.5140   32.2230   48.7760 C   0  0  0  0  0  0  0  0  0  0  0  0
   60.9780   32.5950   50.3040 S   0  0  0  0  0  0  0  0  0  0  0  0
   61.3250   31.3280   47.9890 N   0  0  0  0  0  0  0  0  0  0  0  0
   60.4880   30.3270   47.3750 C   0  0  0  0  0  0  0  0  0  0  0  0
   60.5430   30.1010   45.9870 C   0  0  0  0  0  0  0  0  0  0  0  0
   59.7050   29.1570   45.3890 C   0  0  0  0  0  0  0  0  0  0  0  0
   58.8010   28.4230   46.1680 C   0  0  0  0  0  0  0  0  0  0  0  0
   57.7270   27.2580   45.3970 S   0  0  0  0  0  0  0  0  0  0  0  0
   56.3140   27.5790   45.7990 O   0  0  0  0  0  0  0  0  0  0  0  0
   57.8310   27.3860   43.9010 O   0  0  0  0  0  0  0  0  0  0  0  0
   58.1150   25.6260   45.9070 N   0  0  0  0  0  0  0  0  0  0  0  0
   57.7650   24.6220   44.8850 C   0  0  0  0  0  0  0  0  0  0  0  0
   56.2390   24.4290   44.7390 C   0  0  0  0  0  0  0  0  0  0  0  0
   55.5000   24.8180   45.9590 N   0  0  0  0  0  0  0  0  0  0  0  0
   54.1720   24.1900   45.9810 C   0  0  0  0  0  0  0  0  0  0  0  0
   56.2580   24.4710   47.1700 C   0  0  0  0  0  0  0  0  0  0  0  0
   57.5470   25.3110   47.2380 C   0  0  0  0  0  0  0  0  0  0  0  0
   58.7360   28.6470   47.5500 C   0  0  0  0  0  0  0  0  0  0  0  0
   59.5710   29.5940   48.1500 C   0  0  0  0  0  0  0  0  0  0  0  0
   57.8100   31.8800   46.4460 C   0  0  0  0  0  0  0  0  0  0  0  0
   57.0558   29.3954   43.7416 H   0  0  0  0  0  0  0  0  0  0  0  0
   55.8182   30.2694   42.7768 H   0  0  0  0  0  0  0  0  0  0  0  0
   57.5225   30.8369   42.7768 H   0  0  0  0  0  0  0  0  0  0  0  0
   57.5908   33.2722   43.3287 H   0  0  0  0  0  0  0  0  0  0  0  0
   59.2485   34.8307   44.3460 H   0  0  0  0  0  0  0  0  0  0  0  0
   59.9898   34.5047   46.7050 H   0  0  0  0  0  0  0  0  0  0  0  0
   58.4370   32.6030   49.1180 H   0  0  0  0  0  0  0  0  0  0  0  0
   62.0440   30.8700   48.5960 H   0  0  0  0  0  0  0  0  0  0  0  0
   61.8460   31.8530   47.2530 H   0  0  0  0  0  0  0  0  0  0  0  0
   61.2511   30.6720   45.3685 H   0  0  0  0  0  0  0  0  0  0  0  0
   59.7550   28.9893   44.3030 H   0  0  0  0  0  0  0  0  0  0  0  0
   58.1730   24.9479   43.9169 H   0  0  0  0  0  0  0  0  0  0  0  0
   58.1933   23.6600   45.2029 H   0  0  0  0  0  0  0  0  0  0  0  0
   55.8841   25.0455   43.8999 H   0  0  0  0  0  0  0  0  0  0  0  0
   56.0527   23.3594   44.5621 H   0  0  0  0  0  0  0  0  0  0  0  0
   53.8546   24.0399   47.0235 H   0  0  0  0  0  0  0  0  0  0  0  0
   53.4496   24.8419   45.4680 H   0  0  0  0  0  0  0  0  0  0  0  0
   54.2175   23.2180   45.4680 H   0  0  0  0  0  0  0  0  0  0  0  0
   55.6416   24.6758   48.0577 H   0  0  0  0  0  0  0  0  0  0  0  0
   56.5217   23.4035   47.1397 H   0  0  0  0  0  0  0  0  0  0  0  0
   57.3204   26.2563   47.7529 H   0  0  0  0  0  0  0  0  0  0  0  0
   58.2962   24.7128   47.7773 H   0  0  0  0  0  0  0  0  0  0  0  0
   58.0252   28.0754   48.1649 H   0  0  0  0  0  0  0  0  0  0  0  0
   59.5106   29.7670   49.2346 H   0  0  0  0  0  0  0  0  0  0  0  0
   57.3889   31.0593   47.0452 H   0  0  0  0  0  0  0  0  0  0  0  0
  1  2  1  0
  2  3  1  0
  3  4  2  0
  4  5  1  0
  5  6  2  0
  6  7  1  0
  7  8  1  0
  8  9  1  0
  9 10  2  0
  9 11  1  0
 11 12  1  0
 12 13  2  0
 13 14  1  0
 14 15  2  0
 15 16  1  0
 16 17  2  0
 16 18  2  0
 16 19  1  0
 19 20  1  0
 20 21  1  0
 21 22  1  0
 22 23  1  0
 22 24  1  0
 24 25  1  0
 15 26  1  0
 26 27  2  0
  7 28  2  0
 28  3  1  0
 27 12  1  0
 25 19  1  0
  1 29  1  0
  1 30  1  0
  1 31  1  0
  4 32  1  0
  5 33  1  0
  6 34  1  0
  8 35  1  0
 11 36  1  0
 11 37  1  0
 13 38  1  0
 14 39  1  0
 20 40  1  0
 20 41  1  0
 21 42  1  0
 21 43  1  0
 23 44  1  0
 23 45  1  0
 23 46  1  0
 24 47  1  0
 24 48  1  0
 25 49  1  0
 25 50  1  0
 26 51  1  0
 27 52  1  0
 28 53  1  0
M  CHG  1  11   1
M  END
>  <UniqueID>  (35) 
31

>  <SMILES>  (35) 
COc1cccc(NC(=S)[NH2+]c2ccc(S(=O)(=O)N3CCN(C)CC3)cc2)c1

>  <Energy>  (35) 
67.64908899714334

>  <Genealogy>  (35) 
COc1cccc(NC(=S)[NH2+]c2ccc(S(=O)(=O)N3CCN(C)CC3)cc2)c1 (protonated)
COc1cccc(NC(=S)[NH2+]c2ccc(S(=O)(=O)N3CCN(C)CC3)cc2)c1 (3D coordinates assigned)
COc1cccc(NC(=S)[NH2+]c2ccc(S(=O)(=O)N3CCN(C)CC3)cc2)c1 (nonaromatic ring conformer: 67.64908899714334 kcal/mol)

>  <smiles>  (35) 
COc1cccc(NC(=S)Nc2ccc(S(=O)(=O)N3CCN(C)CC3)cc2)c1

>  <score_type>  (35) 
oracle

>  <origin>  (35) 
adg

>  <m_score__min__energy>  (35) 
-7.1900000000000004

>  <m_primary>  (35) 
energy

$$$$
35:0
     RDKit          3D

 59 63  0  0  0  0  0  0  0  0999 V2000
   65.6080   28.4240   52.5050 O   0  0  0  0  0  0  0  0  0  0  0  0
   66.5930   28.7070   51.7700 C   0  0  0  0  0  0  0  0  0  0  0  0
   66.8670   30.0800   51.4500 N   0  0  0  0  0  0  0  0  0  0  0  0
   65.8750   31.1230   51.4650 C   0  0  0  0  0  0  0  0  0  0  0  0
   65.0500   31.3450   52.5810 C   0  0  0  0  0  0  0  0  0  0  0  0
   64.1010   32.3170   52.5470 N   0  0  0  0  0  0  0  0  0  0  0  0
   63.9130   33.1000   51.4520 C   0  0  0  0  0  0  0  0  0  0  0  0
   64.7040   32.9120   50.3070 C   0  0  0  0  0  0  0  0  0  0  0  0
   64.5160   33.6610   49.1350 O   0  0  0  0  0  0  0  0  0  0  0  0
   63.3130   33.7670   48.4240 C   0  0  0  0  0  0  0  0  0  0  0  0
   62.1450   34.0990   49.1210 C   0  0  0  0  0  0  0  0  0  0  0  0
   60.9290   34.2230   48.4440 C   0  0  0  0  0  0  0  0  0  0  0  0
   60.8670   33.9910   47.0630 C   0  0  0  0  0  0  0  0  0  0  0  0
   59.5940   34.1570   46.3480 C   0  0  0  0  0  0  0  0  0  0  0  0
   59.1340   35.3230   46.2050 O   0  0  0  0  0  0  0  0  0  0  0  0
   58.8910   33.0230   45.7860 N   0  0  0  0  0  0  0  0  0  0  0  0
   57.7700   33.2650   44.8690 C   0  0  0  0  0  0  0  0  0  0  0  0
   57.3740   31.9840   44.1260 C   0  0  0  0  0  0  0  0  0  0  0  0
   57.1260   30.8860   45.0810 N   0  0  0  0  0  0  0  0  0  0  0  0
   56.6200   29.6020   44.5330 C   0  0  0  0  0  0  0  0  0  0  0  0
   57.1870   28.3570   45.2180 C   0  0  0  0  0  0  0  0  0  0  0  0
   57.5700   28.6650   43.7750 C   0  0  0  0  0  0  0  0  0  0  0  0
   58.1640   30.6900   46.1280 C   0  0  0  0  0  0  0  0  0  0  0  0
   59.3590   31.6480   45.9990 C   0  0  0  0  0  0  0  0  0  0  0  0
   62.0240   33.6230   46.3660 C   0  0  0  0  0  0  0  0  0  0  0  0
   63.2430   33.5100   47.0430 C   0  0  0  0  0  0  0  0  0  0  0  0
   65.6730   31.9050   50.3200 C   0  0  0  0  0  0  0  0  0  0  0  0
   67.4830   27.6170   51.2970 C   0  0  0  0  0  0  0  0  0  0  0  0
   67.8990   27.5750   49.9500 C   0  0  0  0  0  0  0  0  0  0  0  0
   68.7430   26.5560   49.4950 C   0  0  0  0  0  0  0  0  0  0  0  0
   69.1860   25.5690   50.3780 C   0  0  0  0  0  0  0  0  0  0  0  0
   68.7910   25.6040   51.7200 C   0  0  0  0  0  0  0  0  0  0  0  0
   67.9470   26.6220   52.1800 C   0  0  0  0  0  0  0  0  0  0  0  0
   67.8600   30.3540   51.2620 H   0  0  0  0  0  0  0  0  0  0  0  0
   65.1729   30.7300   53.4847 H   0  0  0  0  0  0  0  0  0  0  0  0
   63.1398   33.8824   51.4627 H   0  0  0  0  0  0  0  0  0  0  0  0
   62.1849   34.2632   50.2079 H   0  0  0  0  0  0  0  0  0  0  0  0
   60.0193   34.5030   48.9954 H   0  0  0  0  0  0  0  0  0  0  0  0
   56.9061   33.6265   45.4461 H   0  0  0  0  0  0  0  0  0  0  0  0
   58.0827   34.0148   44.1274 H   0  0  0  0  0  0  0  0  0  0  0  0
   56.4591   32.1712   43.5446 H   0  0  0  0  0  0  0  0  0  0  0  0
   58.1969   31.6931   43.4565 H   0  0  0  0  0  0  0  0  0  0  0  0
   55.6305   30.0182   44.2929 H   0  0  0  0  0  0  0  0  0  0  0  0
   57.9336   28.4629   46.0188 H   0  0  0  0  0  0  0  0  0  0  0  0
   56.7512   27.4906   45.7371 H   0  0  0  0  0  0  0  0  0  0  0  0
   58.5919   28.9941   43.5355 H   0  0  0  0  0  0  0  0  0  0  0  0
   57.5243   28.1145   42.8238 H   0  0  0  0  0  0  0  0  0  0  0  0
   57.6984   30.8459   47.1123 H   0  0  0  0  0  0  0  0  0  0  0  0
   58.5552   29.6692   46.0062 H   0  0  0  0  0  0  0  0  0  0  0  0
   59.9574   31.6074   46.9211 H   0  0  0  0  0  0  0  0  0  0  0  0
   59.9710   31.3416   45.1378 H   0  0  0  0  0  0  0  0  0  0  0  0
   61.9746   33.4226   45.2855 H   0  0  0  0  0  0  0  0  0  0  0  0
   64.1502   33.2190   46.4931 H   0  0  0  0  0  0  0  0  0  0  0  0
   66.2830   31.7246   49.4226 H   0  0  0  0  0  0  0  0  0  0  0  0
   67.5564   28.3513   49.2500 H   0  0  0  0  0  0  0  0  0  0  0  0
   69.0577   26.5323   48.4412 H   0  0  0  0  0  0  0  0  0  0  0  0
   69.8449   24.7647   50.0189 H   0  0  0  0  0  0  0  0  0  0  0  0
   69.1448   24.8291   52.4159 H   0  0  0  0  0  0  0  0  0  0  0  0
   67.6443   26.6451   53.2373 H   0  0  0  0  0  0  0  0  0  0  0  0
  1  2  2  0
  2  3  1  0
  3  4  1  0
  4  5  2  0
  5  6  1  0
  6  7  2  0
  7  8  1  0
  8  9  1  0
  9 10  1  0
 10 11  2  0
 11 12  1  0
 12 13  2  0
 13 14  1  0
 14 15  2  0
 14 16  1  0
 16 17  1  0
 17 18  1  0
 18 19  1  0
 19 20  1  0
 20 21  1  0
 21 22  1  0
 19 23  1  0
 23 24  1  0
 13 25  1  0
 25 26  2  0
  8 27  2  0
  2 28  1  0
 28 29  2  0
 29 30  1  0
 30 31  2  0
 31 32  1  0
 32 33  2  0
 27  4  1  0
 33 28  1  0
 26 10  1  0
 24 16  1  0
 22 20  1  0
  3 34  1  0
  5 35  1  0
  7 36  1  0
 11 37  1  0
 12 38  1  0
 17 39  1  0
 17 40  1  0
 18 41  1  0
 18 42  1  0
 20 43  1  0
 21 44  1  0
 21 45  1  0
 22 46  1  0
 22 47  1  0
 23 48  1  0
 23 49  1  0
 24 50  1  0
 24 51  1  0
 25 52  1  0
 26 53  1  0
 27 54  1  0
 29 55  1  0
 30 56  1  0
 31 57  1  0
 32 58  1  0
 33 59  1  0
M  END
>  <UniqueID>  (36) 
32

>  <SMILES>  (36) 
O=C(Nc1cncc(Oc2ccc(C(=O)N3CCN(C4CC4)CC3)cc2)c1)c1ccccc1

>  <Energy>  (36) 
364.5861894419681

>  <Genealogy>  (36) 
O=C(Nc1cncc(Oc2ccc(C(=O)N3CCN(C4CC4)CC3)cc2)c1)c1ccccc1 (3D coordinates assigned)
O=C(Nc1cncc(Oc2ccc(C(=O)N3CCN(C4CC4)CC3)cc2)c1)c1ccccc1 (nonaromatic ring conformer: 364.5861894419681 kcal/mol)

>  <smiles>  (36) 
O=C(Nc1cncc(Oc2ccc(C(=O)N3CCN(C4CC4)CC3)cc2)c1)c1ccccc1

>  <score_type>  (36) 
oracle

>  <origin>  (36) 
adg

>  <m_score__min__energy>  (36) 
-9.5

>  <m_primary>  (36) 
energy

$$$$
36:0
     RDKit          3D

 44 46  0  0  0  0  0  0  0  0999 V2000
   59.5650   25.4940   46.4400 C   0  0  0  0  0  0  0  0  0  0  0  0
   58.0670   25.4500   46.4730 C   0  0  0  0  0  0  0  0  0  0  0  0
   57.2950   24.3460   46.7600 C   0  0  0  0  0  0  0  0  0  0  0  0
   57.7750   23.0820   47.0750 O   0  0  0  0  0  0  0  0  0  0  0  0
   55.9840   24.6500   46.6930 N   0  0  0  0  0  0  0  0  0  0  0  0
   55.9920   25.9600   46.3670 C   0  0  0  0  0  0  0  0  0  0  0  0
   54.9340   26.6300   46.2250 O   0  0  0  0  0  0  0  0  0  0  0  0
   57.2320   26.4850   46.2350 N   0  0  0  0  0  0  0  0  0  0  0  0
   57.5690   27.8480   45.9160 C   0  0  0  0  0  0  0  0  0  0  0  0
   56.9140   28.5110   44.8660 C   0  0  0  0  0  0  0  0  0  0  0  0
   57.2170   29.8440   44.5720 C   0  0  0  0  0  0  0  0  0  0  0  0
   58.1680   30.5370   45.3380 C   0  0  0  0  0  0  0  0  0  0  0  0
   58.5150   31.8940   45.0450 N   0  0  0  0  0  0  0  0  0  0  0  0
   57.8190   33.0660   45.4900 C   0  0  0  0  0  0  0  0  0  0  0  0
   57.0540   33.6550   44.6810 O   0  0  0  0  0  0  0  0  0  0  0  0
   58.0670   33.6880   46.8410 C   0  0  0  0  0  0  0  0  0  0  0  0
   58.6320   32.6680   47.8320 C   0  0  0  0  0  0  0  0  0  0  0  0
   58.9640   33.3240   49.0900 N   0  0  0  0  0  0  0  0  0  0  0  0
   60.3040   33.5290   49.5490 C   0  0  0  0  0  0  0  0  0  0  0  0
   60.5120   33.8940   50.7380 O   0  0  0  0  0  0  0  0  0  0  0  0
   61.4420   33.3500   48.6200 C   0  0  0  0  0  0  0  0  0  0  0  0
   61.4550   34.0320   47.3890 C   0  0  0  0  0  0  0  0  0  0  0  0
   62.5100   33.8530   46.4910 C   0  0  0  0  0  0  0  0  0  0  0  0
   63.5660   32.9990   46.8110 C   0  0  0  0  0  0  0  0  0  0  0  0
   63.5750   32.3290   48.0350 C   0  0  0  0  0  0  0  0  0  0  0  0
   62.5200   32.4990   48.9400 C   0  0  0  0  0  0  0  0  0  0  0  0
   62.5690   31.8500   50.1300 F   0  0  0  0  0  0  0  0  0  0  0  0
   58.8420   29.8690   46.3660 C   0  0  0  0  0  0  0  0  0  0  0  0
   58.5360   28.5390   46.6640 C   0  0  0  0  0  0  0  0  0  0  0  0
   59.9542   25.5054   47.4688 H   0  0  0  0  0  0  0  0  0  0  0  0
   59.9464   24.6067   45.9135 H   0  0  0  0  0  0  0  0  0  0  0  0
   59.8936   26.4022   45.9135 H   0  0  0  0  0  0  0  0  0  0  0  0
   56.1576   27.9784   44.2708 H   0  0  0  0  0  0  0  0  0  0  0  0
   56.7090   30.3511   43.7384 H   0  0  0  0  0  0  0  0  0  0  0  0
   58.7857   34.5131   46.7283 H   0  0  0  0  0  0  0  0  0  0  0  0
   57.1074   34.0559   47.2333 H   0  0  0  0  0  0  0  0  0  0  0  0
   57.8813   31.8855   48.0166 H   0  0  0  0  0  0  0  0  0  0  0  0
   59.5427   32.2199   47.4080 H   0  0  0  0  0  0  0  0  0  0  0  0
   60.6285   34.7109   47.1321 H   0  0  0  0  0  0  0  0  0  0  0  0
   62.5082   34.3867   45.5291 H   0  0  0  0  0  0  0  0  0  0  0  0
   64.3914   32.8539   46.0984 H   0  0  0  0  0  0  0  0  0  0  0  0
   64.4140   31.6648   48.2899 H   0  0  0  0  0  0  0  0  0  0  0  0
   59.6174   30.3942   46.9430 H   0  0  0  0  0  0  0  0  0  0  0  0
   59.0555   28.0300   47.4893 H   0  0  0  0  0  0  0  0  0  0  0  0
  1  2  1  0
  2  3  2  0
  3  4  1  0
  3  5  1  0
  5  6  1  0
  6  7  2  0
  6  8  1  0
  8  9  1  0
  9 10  2  0
 10 11  1  0
 11 12  2  0
 12 13  1  0
 13 14  1  0
 14 15  2  0
 14 16  1  0
 16 17  1  0
 17 18  1  0
 18 19  1  0
 19 20  2  0
 19 21  1  0
 21 22  2  0
 22 23  1  0
 23 24  2  0
 24 25  1  0
 25 26  2  0
 26 27  1  0
 12 28  1  0
 28 29  2  0
  8  2  1  0
 29  9  1  0
 26 21  1  0
  1 30  1  0
  1 31  1  0
  1 32  1  0
 10 33  1  0
 11 34  1  0
 16 35  1  0
 16 36  1  0
 17 37  1  0
 17 38  1  0
 22 39  1  0
 23 40  1  0
 24 41  1  0
 25 42  1  0
 28 43  1  0
 29 44  1  0
M  CHG  4   4  -1   5  -1  13  -1  18  -1
M  END
>  <UniqueID>  (37) 
33

>  <SMILES>  (37) 
Cc1c([O-])[n-]c(=O)n1-c1ccc([N-]C(=O)CC[N-]C(=O)c2ccccc2F)cc1

>  <Energy>  (37) 
82.70924650767252

>  <Genealogy>  (37) 
Cc1c([O-])[n-]c(=O)n1-c1ccc([N-]C(=O)CC[N-]C(=O)c2ccccc2F)cc1 (protonated)
Cc1c([O-])[n-]c(=O)n1-c1ccc([N-]C(=O)CC[N-]C(=O)c2ccccc2F)cc1 (3D coordinates assigned)
Cc1c([O-])[n-]c(=O)n1-c1ccc([N-]C(=O)CC[N-]C(=O)c2ccccc2F)cc1 (optimized conformer: 82.70924650767252 kcal/mol)

>  <smiles>  (37) 
Cc1c(O)[nH]c(=O)n1-c1ccc(NC(=O)CCNC(=O)c2ccccc2F)cc1

>  <score_type>  (37) 
oracle

>  <origin>  (37) 
adg

>  <m_score__min__energy>  (37) 
-13.279999999999999

>  <m_primary>  (37) 
energy

$$$$
37:0
     RDKit          3D

 56 58  0  0  0  0  0  0  0  0999 V2000
   58.9320   34.1720   46.0190 C   0  0  0  0  0  0  0  0  0  0  0  0
   58.3510   33.1800   45.0680 C   0  0  0  0  0  0  0  0  0  0  0  0
   57.7050   32.0120   45.4220 C   0  0  0  0  0  0  0  0  0  0  0  0
   57.3700   31.4010   44.2300 C   0  0  0  0  0  0  0  0  0  0  0  0
   56.6630   30.1150   44.0960 C   0  0  0  0  0  0  0  0  0  0  0  0
   55.7120   29.8280   44.8710 O   0  0  0  0  0  0  0  0  0  0  0  0
   57.0580   29.2170   43.0950 O   0  0  0  0  0  0  0  0  0  0  0  0
   57.7760   28.0140   43.3630 C   0  0  0  0  0  0  0  0  0  0  0  0
   58.6300   28.1670   44.5830 C   0  0  0  0  0  0  0  0  0  0  0  0
   59.6380   28.9240   44.5530 O   0  0  0  0  0  0  0  0  0  0  0  0
   58.3210   27.4150   45.7590 N   0  0  0  0  0  0  0  0  0  0  0  0
   58.1210   28.0110   47.0770 C   0  0  0  0  0  0  0  0  0  0  0  0
   59.4260   28.0470   47.8810 C   0  0  0  0  0  0  0  0  0  0  0  0
   60.0180   29.4330   47.9170 C   0  0  0  0  0  0  0  0  0  0  0  0
   60.7910   29.9010   46.8430 C   0  0  0  0  0  0  0  0  0  0  0  0
   61.3120   31.1990   46.8610 C   0  0  0  0  0  0  0  0  0  0  0  0
   61.0590   32.0460   47.9490 C   0  0  0  0  0  0  0  0  0  0  0  0
   61.7070   33.6880   47.9640 S   0  0  0  0  0  0  0  0  0  0  0  0
   60.6500   34.6300   48.4700 O   0  0  0  0  0  0  0  0  0  0  0  0
   62.0570   34.0940   46.5590 O   0  0  0  0  0  0  0  0  0  0  0  0
   63.1240   33.8180   48.9750 N   0  0  0  0  0  0  0  0  0  0  0  0
   64.0610   32.7140   48.7030 C   0  0  0  0  0  0  0  0  0  0  0  0
   65.1920   32.6910   49.7530 C   0  0  0  0  0  0  0  0  0  0  0  0
   65.2090   33.8880   50.5080 O   0  0  0  0  0  0  0  0  0  0  0  0
   64.0140   33.9990   51.2650 C   0  0  0  0  0  0  0  0  0  0  0  0
   62.7490   33.8250   50.3960 C   0  0  0  0  0  0  0  0  0  0  0  0
   60.2830   31.5820   49.0190 C   0  0  0  0  0  0  0  0  0  0  0  0
   59.7620   30.2860   49.0030 C   0  0  0  0  0  0  0  0  0  0  0  0
   57.8390   32.2380   43.2250 C   0  0  0  0  0  0  0  0  0  0  0  0
   57.7310   32.0190   41.7500 C   0  0  0  0  0  0  0  0  0  0  0  0
   58.4210   33.2860   43.7610 O   0  0  0  0  0  0  0  0  0  0  0  0
   58.7407   33.8454   47.0518 H   0  0  0  0  0  0  0  0  0  0  0  0
   60.0168   34.2471   45.8532 H   0  0  0  0  0  0  0  0  0  0  0  0
   58.4668   35.1549   45.8532 H   0  0  0  0  0  0  0  0  0  0  0  0
   57.5005   31.6457   46.4389 H   0  0  0  0  0  0  0  0  0  0  0  0
   57.0600   27.1946   43.5241 H   0  0  0  0  0  0  0  0  0  0  0  0
   58.4249   27.7909   42.5033 H   0  0  0  0  0  0  0  0  0  0  0  0
   57.7497   29.0389   46.9519 H   0  0  0  0  0  0  0  0  0  0  0  0
   57.3934   27.3962   47.6271 H   0  0  0  0  0  0  0  0  0  0  0  0
   59.2198   27.7201   48.9109 H   0  0  0  0  0  0  0  0  0  0  0  0
   60.1491   27.3768   47.3932 H   0  0  0  0  0  0  0  0  0  0  0  0
   60.9880   29.2439   45.9831 H   0  0  0  0  0  0  0  0  0  0  0  0
   61.9223   31.5564   46.0185 H   0  0  0  0  0  0  0  0  0  0  0  0
   63.5153   31.7596   48.7383 H   0  0  0  0  0  0  0  0  0  0  0  0
   64.5042   32.8619   47.7072 H   0  0  0  0  0  0  0  0  0  0  0  0
   65.0350   31.8399   50.4320 H   0  0  0  0  0  0  0  0  0  0  0  0
   66.1542   32.5941   49.2288 H   0  0  0  0  0  0  0  0  0  0  0  0
   64.0164   33.2233   52.0449 H   0  0  0  0  0  0  0  0  0  0  0  0
   63.9854   35.0085   51.7011 H   0  0  0  0  0  0  0  0  0  0  0  0
   62.2585   32.8737   50.6498 H   0  0  0  0  0  0  0  0  0  0  0  0
   62.0571   34.6586   50.5871 H   0  0  0  0  0  0  0  0  0  0  0  0
   60.0829   32.2416   49.8762 H   0  0  0  0  0  0  0  0  0  0  0  0
   59.1486   29.9320   49.8446 H   0  0  0  0  0  0  0  0  0  0  0  0
   57.2520   31.0476   41.5576 H   0  0  0  0  0  0  0  0  0  0  0  0
   57.1253   32.8214   41.3036 H   0  0  0  0  0  0  0  0  0  0  0  0
   58.7363   32.0269   41.3036 H   0  0  0  0  0  0  0  0  0  0  0  0
  1  2  1  0
  2  3  2  0
  3  4  1  0
  4  5  1  0
  5  6  2  0
  5  7  1  0
  7  8  1  0
  8  9  1  0
  9 10  2  0
  9 11  1  0
 11 12  1  0
 12 13  1  0
 13 14  1  0
 14 15  2  0
 15 16  1  0
 16 17  2  0
 17 18  1  0
 18 19  2  0
 18 20  2  0
 18 21  1  0
 21 22  1  0
 22 23  1  0
 23 24  1  0
 24 25  1  0
 25 26  1  0
 17 27  1  0
 27 28  2  0
  4 29  2  0
 29 30  1  0
 29 31  1  0
 31  2  1  0
 28 14  1  0
 26 21  1  0
  1 32  1  0
  1 33  1  0
  1 34  1  0
  3 35  1  0
  8 36  1  0
  8 37  1  0
 12 38  1  0
 12 39  1  0
 13 40  1  0
 13 41  1  0
 15 42  1  0
 16 43  1  0
 22 44  1  0
 22 45  1  0
 23 46  1  0
 23 47  1  0
 25 48  1  0
 25 49  1  0
 26 50  1  0
 26 51  1  0
 27 52  1  0
 28 53  1  0
 30 54  1  0
 30 55  1  0
 30 56  1  0
M  CHG  1  11  -1
M  END
>  <UniqueID>  (38) 
34

>  <SMILES>  (38) 
Cc1cc(C(=O)OCC(=O)[N-]CCc2ccc(S(=O)(=O)N3CCOCC3)cc2)c(C)o1

>  <Energy>  (38) 
80.18632389803321

>  <Genealogy>  (38) 
Cc1cc(C(=O)OCC(=O)[N-]CCc2ccc(S(=O)(=O)N3CCOCC3)cc2)c(C)o1 (protonated)
Cc1cc(C(=O)OCC(=O)[N-]CCc2ccc(S(=O)(=O)N3CCOCC3)cc2)c(C)o1 (3D coordinates assigned)
Cc1cc(C(=O)OCC(=O)[N-]CCc2ccc(S(=O)(=O)N3CCOCC3)cc2)c(C)o1 (nonaromatic ring conformer: 80.18632389803321 kcal/mol)

>  <smiles>  (38) 
Cc1cc(C(=O)OCC(=O)NCCc2ccc(S(=O)(=O)N3CCOCC3)cc2)c(C)o1

>  <score_type>  (38) 
oracle

>  <origin>  (38) 
adg

>  <m_score__min__energy>  (38) 
-11.710000000000001

>  <m_primary>  (38) 
energy

$$$$
38:0
     RDKit          3D

 49 52  0  0  0  0  0  0  0  0999 V2000
   60.0720   29.0420   51.1980 C   0  0  0  0  0  0  0  0  0  0  0  0
   60.1680   29.0420   49.4190 S   0  0  0  0  0  0  0  0  0  0  0  0
   60.7860   27.7340   49.0120 O   0  0  0  0  0  0  0  0  0  0  0  0
   58.7850   29.1080   48.8370 O   0  0  0  0  0  0  0  0  0  0  0  0
   61.1560   30.3840   48.7920 C   0  0  0  0  0  0  0  0  0  0  0  0
   62.1560   30.9170   49.6260 C   0  0  0  0  0  0  0  0  0  0  0  0
   62.9350   31.9970   49.2070 C   0  0  0  0  0  0  0  0  0  0  0  0
   62.7340   32.5590   47.9480 C   0  0  0  0  0  0  0  0  0  0  0  0
   61.7550   32.0400   47.1020 C   0  0  0  0  0  0  0  0  0  0  0  0
   60.9600   30.9530   47.5050 C   0  0  0  0  0  0  0  0  0  0  0  0
   59.9390   30.4480   46.5630 C   0  0  0  0  0  0  0  0  0  0  0  0
   59.6710   29.1060   46.5030 N   0  0  0  0  0  0  0  0  0  0  0  0
   58.7330   28.5960   45.6530 C   0  0  0  0  0  0  0  0  0  0  0  0
   58.5010   27.3570   45.6310 O   0  0  0  0  0  0  0  0  0  0  0  0
   58.0420   29.4610   44.8050 C   0  0  0  0  0  0  0  0  0  0  0  0
   58.3200   30.8010   44.8130 C   0  0  0  0  0  0  0  0  0  0  0  0
   59.2750   31.3330   45.6790 C   0  0  0  0  0  0  0  0  0  0  0  0
   59.5760   32.6940   45.6290 O   0  0  0  0  0  0  0  0  0  0  0  0
   58.7400   33.8360   46.5790 S   0  0  0  0  0  0  0  0  0  0  0  0
   57.2770   33.8280   46.2370 O   0  0  0  0  0  0  0  0  0  0  0  0
   59.2910   35.2120   46.3290 O   0  0  0  0  0  0  0  0  0  0  0  0
   58.9460   33.4150   48.2730 C   0  0  0  0  0  0  0  0  0  0  0  0
   58.2090   32.3610   48.8330 C   0  0  0  0  0  0  0  0  0  0  0  0
   58.3600   32.0380   50.1850 C   0  0  0  0  0  0  0  0  0  0  0  0
   59.2420   32.7710   50.9850 C   0  0  0  0  0  0  0  0  0  0  0  0
   59.9710   33.8280   50.4340 C   0  0  0  0  0  0  0  0  0  0  0  0
   59.8220   34.1540   49.0830 C   0  0  0  0  0  0  0  0  0  0  0  0
   57.5110   31.5430   43.8170 C   0  0  0  0  0  0  0  0  0  0  0  0
   56.6210   30.4620   43.1740 C   0  0  0  0  0  0  0  0  0  0  0  0
   57.0050   29.1100   43.8060 C   0  0  0  0  0  0  0  0  0  0  0  0
   60.0522   28.0049   51.5641 H   0  0  0  0  0  0  0  0  0  0  0  0
   60.9491   29.5605   51.6125 H   0  0  0  0  0  0  0  0  0  0  0  0
   59.1554   29.5605   51.5157 H   0  0  0  0  0  0  0  0  0  0  0  0
   62.3260   30.4775   50.6200 H   0  0  0  0  0  0  0  0  0  0  0  0
   63.7097   32.4054   49.8726 H   0  0  0  0  0  0  0  0  0  0  0  0
   63.3475   33.4118   47.6217 H   0  0  0  0  0  0  0  0  0  0  0  0
   61.6029   32.4861   46.1081 H   0  0  0  0  0  0  0  0  0  0  0  0
   60.2170   28.4460   47.1030 H   0  0  0  0  0  0  0  0  0  0  0  0
   57.5103   31.7869   48.2067 H   0  0  0  0  0  0  0  0  0  0  0  0
   57.7848   31.2071   50.6194 H   0  0  0  0  0  0  0  0  0  0  0  0
   59.3619   32.5155   52.0482 H   0  0  0  0  0  0  0  0  0  0  0  0
   60.6636   34.4047   51.0647 H   0  0  0  0  0  0  0  0  0  0  0  0
   60.3922   34.9911   48.6540 H   0  0  0  0  0  0  0  0  0  0  0  0
   56.8973   32.3126   44.3079 H   0  0  0  0  0  0  0  0  0  0  0  0
   58.1319   32.0720   43.0790 H   0  0  0  0  0  0  0  0  0  0  0  0
   55.5614   30.6815   43.3716 H   0  0  0  0  0  0  0  0  0  0  0  0
   56.7687   30.4362   42.0843 H   0  0  0  0  0  0  0  0  0  0  0  0
   56.1350   28.6451   44.2928 H   0  0  0  0  0  0  0  0  0  0  0  0
   57.3631   28.3825   43.0627 H   0  0  0  0  0  0  0  0  0  0  0  0
  1  2  1  0
  2  3  2  0
  2  4  2  0
  2  5  1  0
  5  6  2  0
  6  7  1  0
  7  8  2  0
  8  9  1  0
  9 10  2  0
 10 11  1  0
 11 12  1  0
 12 13  1  0
 13 14  2  0
 13 15  1  0
 15 16  2  0
 16 17  1  0
 17 18  1  0
 18 19  1  0
 19 20  2  0
 19 21  2  0
 19 22  1  0
 22 23  2  0
 23 24  1  0
 24 25  2  0
 25 26  1  0
 26 27  2  0
 16 28  1  0
 28 29  1  0
 29 30  1  0
 10  5  1  0
 17 11  2  0
 27 22  1  0
 30 15  1  0
  1 31  1  0
  1 32  1  0
  1 33  1  0
  6 34  1  0
  7 35  1  0
  8 36  1  0
  9 37  1  0
 12 38  1  0
 23 39  1  0
 24 40  1  0
 25 41  1  0
 26 42  1  0
 27 43  1  0
 28 44  1  0
 28 45  1  0
 29 46  1  0
 29 47  1  0
 30 48  1  0
 30 49  1  0
M  END
>  <UniqueID>  (39) 
35

>  <SMILES>  (39) 
CS(=O)(=O)c1ccccc1-c1[nH]c(=O)c2c(c1OS(=O)(=O)c1ccccc1)CCC2

>  <Energy>  (39) 
71.82614213994952

>  <Genealogy>  (39) 
CS(=O)(=O)c1ccccc1-c1[nH]c(=O)c2c(c1OS(=O)(=O)c1ccccc1)CCC2 (3D coordinates assigned)
CS(=O)(=O)c1ccccc1-c1[nH]c(=O)c2c(c1OS(=O)(=O)c1ccccc1)CCC2 (nonaromatic ring conformer: 71.82614213994952 kcal/mol)

>  <smiles>  (39) 
CS(=O)(=O)c1ccccc1-c1[nH]c(=O)c2c(c1OS(=O)(=O)c1ccccc1)CCC2

>  <score_type>  (39) 
oracle

>  <origin>  (39) 
adg

>  <m_score__min__energy>  (39) 
-9.7200000000000006

>  <m_primary>  (39) 
energy

$$$$
39:0
     RDKit          3D

 40 42  0  0  0  0  0  0  0  0999 V2000
   53.8200   28.7290   54.2510 C   0  0  0  0  0  0  0  0  0  0  0  0
   54.3910   29.6480   53.4530 C   0  0  0  0  0  0  0  0  0  0  0  0
   53.7320   30.4140   52.4820 C   0  0  0  0  0  0  0  0  0  0  0  0
   52.4080   30.4230   52.2150 C   0  0  0  0  0  0  0  0  0  0  0  0
   51.7890   30.8290   50.9330 C   0  0  0  0  0  0  0  0  0  0  0  0
   51.6870   30.0680   49.8280 N   0  0  0  0  0  0  0  0  0  0  0  0
   51.0100   30.8540   48.9630 C   0  0  0  0  0  0  0  0  0  0  0  0
   50.7210   30.4850   47.7960 O   0  0  0  0  0  0  0  0  0  0  0  0
   50.6650   32.0640   49.4500 N   0  0  0  0  0  0  0  0  0  0  0  0
   51.1600   32.0300   50.6980 C   0  0  0  0  0  0  0  0  0  0  0  0
   51.0380   33.0750   51.6040 O   0  0  0  0  0  0  0  0  0  0  0  0
   54.7160   31.1720   51.8610 C   0  0  0  0  0  0  0  0  0  0  0  0
   55.9170   30.8450   52.4590 C   0  0  0  0  0  0  0  0  0  0  0  0
   57.2200   31.3950   52.0270 C   0  0  0  0  0  0  0  0  0  0  0  0
   57.3210   32.6000   51.6690 O   0  0  0  0  0  0  0  0  0  0  0  0
   58.3830   30.5600   52.0550 N   0  0  0  0  0  0  0  0  0  0  0  0
   59.0720   30.0910   50.8590 C   0  0  0  0  0  0  0  0  0  0  0  0
   59.4740   31.2570   49.9990 C   0  0  0  0  0  0  0  0  0  0  0  0
   58.8880   31.4320   48.7350 C   0  0  0  0  0  0  0  0  0  0  0  0
   59.2410   32.5260   47.9400 C   0  0  0  0  0  0  0  0  0  0  0  0
   60.1750   33.4570   48.4020 C   0  0  0  0  0  0  0  0  0  0  0  0
   60.7590   33.2990   49.6630 C   0  0  0  0  0  0  0  0  0  0  0  0
   61.6850   34.2370   50.1150 O   0  0  0  0  0  0  0  0  0  0  0  0
   60.4090   32.2000   50.4610 C   0  0  0  0  0  0  0  0  0  0  0  0
   55.7190   29.9410   53.4510 N   0  0  0  0  0  0  0  0  0  0  0  0
   56.7510   29.3800   54.3340 C   0  0  0  0  0  0  0  0  0  0  0  0
   54.4308   28.1808   54.9834 H   0  0  0  0  0  0  0  0  0  0  0  0
   52.7420   28.5252   54.1715 H   0  0  0  0  0  0  0  0  0  0  0  0
   51.7310   30.1007   53.0199 H   0  0  0  0  0  0  0  0  0  0  0  0
   54.5669   31.8962   51.0465 H   0  0  0  0  0  0  0  0  0  0  0  0
   59.9712   29.5305   51.1542 H   0  0  0  0  0  0  0  0  0  0  0  0
   58.3942   29.4405   50.2868 H   0  0  0  0  0  0  0  0  0  0  0  0
   58.1480   30.7050   48.3690 H   0  0  0  0  0  0  0  0  0  0  0  0
   58.7825   32.6544   46.9484 H   0  0  0  0  0  0  0  0  0  0  0  0
   60.4515   34.3158   47.7727 H   0  0  0  0  0  0  0  0  0  0  0  0
   62.4720   33.9680   50.6930 H   0  0  0  0  0  0  0  0  0  0  0  0
   60.8681   32.0752   51.4528 H   0  0  0  0  0  0  0  0  0  0  0  0
   56.4610   29.5376   55.3833 H   0  0  0  0  0  0  0  0  0  0  0  0
   56.8533   28.3021   54.1398 H   0  0  0  0  0  0  0  0  0  0  0  0
   57.7112   29.8803   54.1398 H   0  0  0  0  0  0  0  0  0  0  0  0
  1  2  2  0
  2  3  1  0
  3  4  2  3
  4  5  1  0
  5  6  1  0
  6  7  1  0
  7  8  2  0
  7  9  1  0
  9 10  1  0
 10 11  1  0
  3 12  1  0
 12 13  2  0
 13 14  1  0
 14 15  2  0
 14 16  1  0
 16 17  1  0
 17 18  1  0
 18 19  2  0
 19 20  1  0
 20 21  2  0
 21 22  1  0
 22 23  1  0
 22 24  2  0
 13 25  1  0
 25 26  1  0
 25  2  1  0
 10  5  2  0
 24 18  1  0
  1 27  1  0
  1 28  1  0
  4 29  1  0
 12 30  1  0
 17 31  1  0
 17 32  1  0
 19 33  1  0
 20 34  1  0
 21 35  1  0
 23 36  1  0
 24 37  1  0
 26 38  1  0
 26 39  1  0
 26 40  1  0
M  CHG  4   6  -1   9  -1  11  -1  16  -1
M  END
>  <UniqueID>  (40) 
36

>  <SMILES>  (40) 
C=c1c(=Cc2[n-]c(=O)[n-]c2[O-])cc(C(=O)[N-]Cc2cccc(O)c2)n1C

>  <Energy>  (40) 
104.90885870930124

>  <Genealogy>  (40) 
C=c1c(=Cc2[n-]c(=O)[n-]c2[O-])cc(C(=O)[N-]Cc2cccc(O)c2)n1C (protonated)
C=c1c(=Cc2[n-]c(=O)[n-]c2[O-])cc(C(=O)[N-]Cc2cccc(O)c2)n1C (3D coordinates assigned)
C=c1c(=Cc2[n-]c(=O)[n-]c2[O-])cc(C(=O)[N-]Cc2cccc(O)c2)n1C (optimized conformer: 104.90885870930124 kcal/mol)

>  <smiles>  (40) 
C=c1c(=Cc2[nH]c(=O)[nH]c2O)cc(C(=O)NCc2cccc(O)c2)n1C

>  <score_type>  (40) 
oracle

>  <origin>  (40) 
adg

>  <m_score__min__energy>  (40) 
-17.18

>  <m_primary>  (40) 
energy

$$$$
40:0
     RDKit          3D

 36 38  0  0  1  0  0  0  0  0999 V2000
   56.7860   29.3520   43.4580 C   0  0  0  0  0  0  0  0  0  0  0  0
   56.7340   29.7720   44.7980 O   0  0  0  0  0  0  0  0  0  0  0  0
   57.4490   30.8650   45.2570 C   0  0  0  0  0  0  0  0  0  0  0  0
   57.5100   32.0730   44.5980 C   0  0  0  0  0  0  0  0  0  0  0  0
   58.2470   33.1170   45.1240 C   0  0  0  0  0  0  0  0  0  0  0  0
   58.3370   34.3230   44.5140 N   0  0  0  0  0  0  0  0  0  0  0  0
   59.0650   35.3350   45.0440 C   0  0  0  0  0  0  0  0  0  0  0  0
   59.7430   35.2140   46.2010 N   0  0  0  0  0  0  0  0  0  0  0  0
   59.6800   34.0330   46.8400 C   0  0  0  0  0  0  0  0  0  0  0  0
   60.2890   33.8080   47.9530 N   0  0  0  0  0  0  0  0  0  0  0  0
   61.6950   33.5960   47.9660 C   0  0  0  0  0  0  0  0  0  0  0  0
   62.4320   33.3310   46.8290 C   0  0  0  0  0  0  0  0  0  0  0  0
   63.7940   33.1380   46.9300 C   0  0  0  0  0  0  0  0  0  0  0  0
   64.4130   33.2090   48.1390 N   0  0  0  0  0  0  0  0  0  0  0  0
   63.7340   33.4650   49.2720 C   0  0  0  0  0  0  0  0  0  0  0  0
   64.3240   33.5300   50.4030 O   0  0  0  0  0  0  0  0  0  0  0  0
   62.3620   33.6630   49.1940 C   0  0  0  0  0  0  0  0  0  0  0  0
   58.9400   32.9880   46.3120 C   0  0  0  0  0  0  0  0  0  0  0  0
   58.8640   31.7630   46.9550 C   0  0  0  0  0  0  0  0  0  0  0  0
   58.1330   30.7120   46.4450 C   0  0  0  0  0  0  0  0  0  0  0  0
   58.1010   29.5120   47.1420 O   0  0  0  0  0  0  0  0  0  0  0  0
   59.1780   28.6130   46.9490 C   0  0  0  0  0  0  0  0  0  0  0  0
   56.9211   28.2610   43.4207 H   0  0  0  0  0  0  0  0  0  0  0  0
   55.8475   29.6228   42.9522 H   0  0  0  0  0  0  0  0  0  0  0  0
   57.6302   29.8435   42.9522 H   0  0  0  0  0  0  0  0  0  0  0  0
   56.9699   32.2073   43.6492 H   0  0  0  0  0  0  0  0  0  0  0  0
   59.1038   36.2945   44.5074 H   0  0  0  0  0  0  0  0  0  0  0  0
   60.3090   35.9850   46.6230 H   0  0  0  0  0  0  0  0  0  0  0  0
   61.9361   33.2741   45.8488 H   0  0  0  0  0  0  0  0  0  0  0  0
   64.3838   32.9251   46.0262 H   0  0  0  0  0  0  0  0  0  0  0  0
   65.4600   33.0590   48.2070 H   0  0  0  0  0  0  0  0  0  0  0  0
   61.7916   33.8755   50.1103 H   0  0  0  0  0  0  0  0  0  0  0  0
   59.4045   31.6250   47.9030 H   0  0  0  0  0  0  0  0  0  0  0  0
   59.5654   28.2897   47.9264 H   0  0  0  0  0  0  0  0  0  0  0  0
   58.8271   27.7360   46.3853 H   0  0  0  0  0  0  0  0  0  0  0  0
   59.9782   29.1150   46.3853 H   0  0  0  0  0  0  0  0  0  0  0  0
  1  2  1  0
  2  3  1  0
  3  4  2  0
  4  5  1  0
  5  6  1  0
  6  7  2  0
  7  8  1  0
  8  9  1  0
  9 10  2  0
 10 11  1  0
 11 12  1  0
 12 13  2  0
 13 14  1  0
 14 15  1  0
 15 16  2  0
 15 17  1  0
  9 18  1  0
 18 19  1  0
 19 20  2  0
 20 21  1  0
 21 22  1  0
 20  3  1  0
 18  5  2  0
 17 11  2  0
  1 23  1  0
  1 24  1  0
  1 25  1  0
  4 26  1  0
  7 27  1  0
  8 28  1  0
 12 29  1  0
 13 30  1  0
 14 31  1  0
 17 32  1  0
 19 33  1  0
 22 34  1  0
 22 35  1  0
 22 36  1  0
M  END
>  <smiles>  (41) 
COc1cc2nc[nH]c(=Nc3cc[nH]c(=O)c3)c2cc1OC

>  <score_type>  (41) 
oracle

>  <origin>  (41) 
adg

>  <m_score__min__energy>  (41) 
-7.0999999999999996

>  <m_primary>  (41) 
energy

$$$$
41:0
     RDKit          3D

 50 53  0  0  0  0  0  0  0  0999 V2000
   51.5440   31.1520   54.6220 H   0  0  0  0  0  0  0  0  0  0  0  0
   51.0350   31.7240   53.9580 O   0  0  0  0  0  0  0  0  0  0  0  0
   51.4140   31.8030   52.6220 C   0  0  0  0  0  0  0  0  0  0  0  0
   50.6490   32.3620   51.6700 N   0  0  0  0  0  0  0  0  0  0  0  0
   51.3930   32.2080   50.5550 C   0  0  0  0  0  0  0  0  0  0  0  0
   51.0070   32.5940   49.4210 O   0  0  0  0  0  0  0  0  0  0  0  0
   52.5760   31.5880   50.7480 N   0  0  0  0  0  0  0  0  0  0  0  0
   52.5930   31.3440   52.0700 C   0  0  0  0  0  0  0  0  0  0  0  0
   53.6470   30.5800   52.7700 C   0  0  0  0  0  0  0  0  0  0  0  0
   53.3327   29.8198   53.5003 H   0  0  0  0  0  0  0  0  0  0  0  0
   54.9680   30.7550   52.5710 C   0  0  0  0  0  0  0  0  0  0  0  0
   55.6210   31.9600   52.3380 C   0  0  0  0  0  0  0  0  0  0  0  0
   55.1548   32.9523   52.2489 H   0  0  0  0  0  0  0  0  0  0  0  0
   56.9670   31.6710   52.2400 C   0  0  0  0  0  0  0  0  0  0  0  0
   58.0510   32.6810   52.0120 C   0  0  0  0  0  0  0  0  0  0  0  0
   58.4315   33.0356   52.9813 H   0  0  0  0  0  0  0  0  0  0  0  0
   58.8707   32.2172   51.4437 H   0  0  0  0  0  0  0  0  0  0  0  0
   57.6462   33.5314   51.4437 H   0  0  0  0  0  0  0  0  0  0  0  0
   57.1750   30.3490   52.4070 N   0  0  0  0  0  0  0  0  0  0  0  0
   58.4520   29.6960   52.3910 C   0  0  0  0  0  0  0  0  0  0  0  0
   58.9220   29.2320   53.4650 O   0  0  0  0  0  0  0  0  0  0  0  0
   59.1890   29.5710   51.1630 N   0  0  0  0  0  0  0  0  0  0  0  0
   58.9880   30.5720   50.1020 C   0  0  0  0  0  0  0  0  0  0  0  0
   57.9466   30.5190   49.7519 H   0  0  0  0  0  0  0  0  0  0  0  0
   59.2088   31.5667   50.5165 H   0  0  0  0  0  0  0  0  0  0  0  0
   59.9240   30.3230   48.9200 C   0  0  0  0  0  0  0  0  0  0  0  0
   59.5873   30.9130   48.0548 H   0  0  0  0  0  0  0  0  0  0  0  0
   60.9468   30.6229   49.1920 H   0  0  0  0  0  0  0  0  0  0  0  0
   59.9070   28.8960   48.5760 N   0  0  0  0  0  0  0  0  0  0  0  0
   59.5440   28.4600   47.2510 C   0  0  0  0  0  0  0  0  0  0  0  0
   58.5210   27.5100   47.0660 C   0  0  0  0  0  0  0  0  0  0  0  0
   57.9917   27.1008   47.9392 H   0  0  0  0  0  0  0  0  0  0  0  0
   58.1730   27.0830   45.7810 C   0  0  0  0  0  0  0  0  0  0  0  0
   57.3676   26.3461   45.6459 H   0  0  0  0  0  0  0  0  0  0  0  0
   58.8480   27.5920   44.6680 C   0  0  0  0  0  0  0  0  0  0  0  0
   58.5110   27.1750   43.4230 F   0  0  0  0  0  0  0  0  0  0  0  0
   59.8740   28.5250   44.8420 C   0  0  0  0  0  0  0  0  0  0  0  0
   60.4097   28.9201   43.9662 H   0  0  0  0  0  0  0  0  0  0  0  0
   60.2220   28.9580   46.1250 C   0  0  0  0  0  0  0  0  0  0  0  0
   61.0308   29.6924   46.2539 H   0  0  0  0  0  0  0  0  0  0  0  0
   60.1470   27.8960   49.6280 C   0  0  0  0  0  0  0  0  0  0  0  0
   59.3222   27.1682   49.6231 H   0  0  0  0  0  0  0  0  0  0  0  0
   61.1083   27.4032   49.4203 H   0  0  0  0  0  0  0  0  0  0  0  0
   60.2310   28.5440   51.0180 C   0  0  0  0  0  0  0  0  0  0  0  0
   60.0895   27.7715   51.7882 H   0  0  0  0  0  0  0  0  0  0  0  0
   61.2181   29.0150   51.1355 H   0  0  0  0  0  0  0  0  0  0  0  0
   55.9660   29.7730   52.6140 C   0  0  0  0  0  0  0  0  0  0  0  0
   55.7920   28.4600   52.8370 C   0  0  0  0  0  0  0  0  0  0  0  0
   56.6598   27.7840   52.8468 H   0  0  0  0  0  0  0  0  0  0  0  0
   54.7817   28.0606   53.0099 H   0  0  0  0  0  0  0  0  0  0  0  0
  1  2  1  0
  2  3  1  0
  3  4  1  0
  4  5  1  0
  5  6  2  0
  5  7  1  0
  7  8  1  0
  8  9  1  0
  9 10  1  0
  9 11  2  0
 11 12  1  0
 12 13  1  0
 12 14  2  0
 14 15  1  0
 15 16  1  0
 15 17  1  0
 15 18  1  0
 14 19  1  0
 19 20  1  0
 20 21  2  0
 20 22  1  0
 22 23  1  0
 23 24  1  0
 23 25  1  0
 23 26  1  0
 26 27  1  0
 26 28  1  0
 26 29  1  0
 29 30  1  0
 30 31  2  0
 31 32  1  0
 31 33  1  0
 33 34  1  0
 33 35  2  0
 35 36  1  0
 35 37  1  0
 37 38  1  0
 37 39  2  0
 39 40  1  0
 29 41  1  0
 41 42  1  0
 41 43  1  0
 41 44  1  0
 44 45  1  0
 44 46  1  0
 19 47  1  0
 47 48  2  0
 48 49  1  0
 48 50  1  0
  8  3  2  0
 47 11  1  0
 44 22  1  0
 39 30  1  0
M  CHG  2   4  -1   7  -1
M  END
>  <UniqueID>  (42) 
37

>  <SMILES>  (42) 
C=c1/c(=C/c2[n-]c(=O)[n-]c2O)cc(C)n1C(=O)N1CCN(c2ccc(F)cc2)CC1

>  <Energy>  (42) 
125.23031950850425

>  <Genealogy>  (42) 
C=c1c(=Cc2[n-]c(=O)[n-]c2O)cc(C)n1C(=O)N1CCN(c2ccc(F)cc2)CC1 (protonated)
C=c1/c(=C/c2[n-]c(=O)[n-]c2O)cc(C)n1C(=O)N1CCN(c2ccc(F)cc2)CC1 (cis-trans isomerization)
C=c1/c(=C/c2[n-]c(=O)[n-]c2O)cc(C)n1C(=O)N1CCN(c2ccc(F)cc2)CC1 (3D coordinates assigned)
C=c1/c(=C/c2[n-]c(=O)[n-]c2O)cc(C)n1C(=O)N1CCN(c2ccc(F)cc2)CC1 (nonaromatic ring conformer: 125.23031950850425 kcal/mol)

>  <smiles>  (42) 
C=c1c(=Cc2[nH]c(=O)[nH]c2O)cc(C)n1C(=O)N1CCN(c2ccc(F)cc2)CC1

>  <score_type>  (42) 
oracle

>  <origin>  (42) 
adg

>  <m_score__min__energy>  (42) 
-13.81

>  <m_primary>  (42) 
energy

$$$$
42:0
     RDKit          3D

 47 49  0  0  0  0  0  0  0  0999 V2000
   59.3350   29.5360   49.6030 C   0  0  0  0  0  0  0  0  0  0  0  0
   59.9180   28.6900   48.6180 O   0  0  0  0  0  0  0  0  0  0  0  0
   59.4310   28.5430   47.3100 C   0  0  0  0  0  0  0  0  0  0  0  0
   59.7890   27.4010   46.5910 C   0  0  0  0  0  0  0  0  0  0  0  0
   59.3340   27.2110   45.2850 C   0  0  0  0  0  0  0  0  0  0  0  0
   58.5120   28.1730   44.6680 C   0  0  0  0  0  0  0  0  0  0  0  0
   58.0340   28.0070   43.3590 O   0  0  0  0  0  0  0  0  0  0  0  0
   58.0850   26.7860   42.6270 C   0  0  0  0  0  0  0  0  0  0  0  0
   58.1580   29.3320   45.3840 C   0  0  0  0  0  0  0  0  0  0  0  0
   57.1460   30.5740   44.6360 S   0  0  0  0  0  0  0  0  0  0  0  0
   57.6740   30.9350   43.2750 O   0  0  0  0  0  0  0  0  0  0  0  0
   55.7490   30.0410   44.4960 O   0  0  0  0  0  0  0  0  0  0  0  0
   57.1030   32.0060   45.6150 N   0  0  0  0  0  0  0  0  0  0  0  0
   58.1870   32.9290   45.7800 C   0  0  0  0  0  0  0  0  0  0  0  0
   58.1730   34.2120   45.2010 C   0  0  0  0  0  0  0  0  0  0  0  0
   59.2650   35.0690   45.3650 C   0  0  0  0  0  0  0  0  0  0  0  0
   60.3740   34.6590   46.1070 C   0  0  0  0  0  0  0  0  0  0  0  0
   60.4010   33.3850   46.6960 C   0  0  0  0  0  0  0  0  0  0  0  0
   61.5520   32.9570   47.4520 N   0  0  0  0  0  0  0  0  0  0  0  0
   61.3620   32.2650   48.6140 C   0  0  0  0  0  0  0  0  0  0  0  0
   62.4530   31.8330   49.3740 C   0  0  0  0  0  0  0  0  0  0  0  0
   62.2400   31.1010   50.6710 C   0  0  0  0  0  0  0  0  0  0  0  0
   63.7400   32.1540   48.9230 C   0  0  0  0  0  0  0  0  0  0  0  0
   64.7540   31.8100   49.5870 O   0  0  0  0  0  0  0  0  0  0  0  0
   63.8970   32.8400   47.7600 N   0  0  0  0  0  0  0  0  0  0  0  0
   62.8240   33.2360   47.0230 C   0  0  0  0  0  0  0  0  0  0  0  0
   63.0150   33.8490   45.9360 O   0  0  0  0  0  0  0  0  0  0  0  0
   59.3020   32.5260   46.5250 C   0  0  0  0  0  0  0  0  0  0  0  0
   58.6020   29.5040   46.7030 C   0  0  0  0  0  0  0  0  0  0  0  0
   59.5921   29.1630   50.6054 H   0  0  0  0  0  0  0  0  0  0  0  0
   59.7207   30.5591   49.4824 H   0  0  0  0  0  0  0  0  0  0  0  0
   58.2416   29.5398   49.4824 H   0  0  0  0  0  0  0  0  0  0  0  0
   60.4358   26.6437   47.0581 H   0  0  0  0  0  0  0  0  0  0  0  0
   59.6199   26.3029   44.7340 H   0  0  0  0  0  0  0  0  0  0  0  0
   58.1204   25.9393   43.3283 H   0  0  0  0  0  0  0  0  0  0  0  0
   57.1896   26.7005   41.9937 H   0  0  0  0  0  0  0  0  0  0  0  0
   58.9844   26.7754   41.9937 H   0  0  0  0  0  0  0  0  0  0  0  0
   57.3003   34.5411   44.6179 H   0  0  0  0  0  0  0  0  0  0  0  0
   59.2504   36.0695   44.9080 H   0  0  0  0  0  0  0  0  0  0  0  0
   61.2309   35.3375   46.2308 H   0  0  0  0  0  0  0  0  0  0  0  0
   60.3397   32.0452   48.9555 H   0  0  0  0  0  0  0  0  0  0  0  0
   62.4379   31.7811   51.5126 H   0  0  0  0  0  0  0  0  0  0  0  0
   61.2008   30.7443   50.7243 H   0  0  0  0  0  0  0  0  0  0  0  0
   62.9256   30.2424   50.7243 H   0  0  0  0  0  0  0  0  0  0  0  0
   64.8610   33.0660   47.4240 H   0  0  0  0  0  0  0  0  0  0  0  0
   59.3179   31.5254   46.9817 H   0  0  0  0  0  0  0  0  0  0  0  0
   58.2995   30.3981   47.2679 H   0  0  0  0  0  0  0  0  0  0  0  0
  1  2  1  0
  2  3  1  0
  3  4  2  0
  4  5  1  0
  5  6  2  0
  6  7  1  0
  7  8  1  0
  6  9  1  0
  9 10  1  0
 10 11  2  0
 10 12  2  0
 10 13  1  0
 13 14  1  0
 14 15  2  0
 15 16  1  0
 16 17  2  0
 17 18  1  0
 18 19  1  0
 19 20  1  0
 20 21  2  0
 21 22  1  0
 21 23  1  0
 23 24  2  0
 23 25  1  0
 25 26  1  0
 26 27  2  0
 18 28  2  0
  9 29  2  0
 29  3  1  0
 28 14  1  0
 26 19  1  0
  1 30  1  0
  1 31  1  0
  1 32  1  0
  4 33  1  0
  5 34  1  0
  8 35  1  0
  8 36  1  0
  8 37  1  0
 15 38  1  0
 16 39  1  0
 17 40  1  0
 20 41  1  0
 22 42  1  0
 22 43  1  0
 22 44  1  0
 25 45  1  0
 28 46  1  0
 29 47  1  0
M  CHG  1  13  -1
M  END
>  <UniqueID>  (43) 
38

>  <SMILES>  (43) 
COc1ccc(OC)c(S(=O)(=O)[N-]c2cccc(-n3cc(C)c(=O)[nH]c3=O)c2)c1

>  <Energy>  (43) 
60.46836904364366

>  <Genealogy>  (43) 
COc1ccc(OC)c(S(=O)(=O)[N-]c2cccc(-n3cc(C)c(=O)[nH]c3=O)c2)c1 (protonated)
COc1ccc(OC)c(S(=O)(=O)[N-]c2cccc(-n3cc(C)c(=O)[nH]c3=O)c2)c1 (3D coordinates assigned)
COc1ccc(OC)c(S(=O)(=O)[N-]c2cccc(-n3cc(C)c(=O)[nH]c3=O)c2)c1 (optimized conformer: 60.46836904364366 kcal/mol)

>  <smiles>  (43) 
COc1ccc(OC)c(S(=O)(=O)Nc2cccc(-n3cc(C)c(=O)[nH]c3=O)c2)c1

>  <score_type>  (43) 
oracle

>  <origin>  (43) 
adg

>  <m_score__min__energy>  (43) 
-9.9000000000000004

>  <m_primary>  (43) 
energy

$$$$
43:0
     RDKit          3D

 38 41  0  0  0  0  0  0  0  0999 V2000
   53.6290   22.3840   45.3030 O   0  0  0  0  0  0  0  0  0  0  0  0
   54.3460   23.4190   45.2780 C   0  0  0  0  0  0  0  0  0  0  0  0
   53.9830   24.5730   45.8780 N   0  0  0  0  0  0  0  0  0  0  0  0
   55.0150   25.3880   45.6050 C   0  0  0  0  0  0  0  0  0  0  0  0
   55.0900   26.7130   46.0250 O   0  0  0  0  0  0  0  0  0  0  0  0
   55.9600   24.7210   44.8590 C   0  0  0  0  0  0  0  0  0  0  0  0
   57.2700   25.2620   44.3730 C   0  0  0  0  0  0  0  0  0  0  0  0
   57.9560   26.0600   45.4670 C   0  0  0  0  0  0  0  0  0  0  0  0
   58.5890   25.3650   46.5220 C   0  0  0  0  0  0  0  0  0  0  0  0
   58.5690   23.9720   46.5720 O   0  0  0  0  0  0  0  0  0  0  0  0
   59.2510   26.0570   47.5350 C   0  0  0  0  0  0  0  0  0  0  0  0
   59.3100   27.4510   47.5170 C   0  0  0  0  0  0  0  0  0  0  0  0
   58.7100   28.1730   46.4780 C   0  0  0  0  0  0  0  0  0  0  0  0
   58.7930   29.5770   46.4680 C   0  0  0  0  0  0  0  0  0  0  0  0
   58.2210   30.3220   45.4270 C   0  0  0  0  0  0  0  0  0  0  0  0
   58.3230   31.8050   45.4120 C   0  0  0  0  0  0  0  0  0  0  0  0
   57.4200   32.5760   44.6560 C   0  0  0  0  0  0  0  0  0  0  0  0
   57.5100   33.9700   44.6500 C   0  0  0  0  0  0  0  0  0  0  0  0
   58.5010   34.6120   45.4000 C   0  0  0  0  0  0  0  0  0  0  0  0
   59.4040   33.8580   46.1540 C   0  0  0  0  0  0  0  0  0  0  0  0
   60.3900   34.4960   46.8980 O   0  0  0  0  0  0  0  0  0  0  0  0
   59.3170   32.4620   46.1640 C   0  0  0  0  0  0  0  0  0  0  0  0
   57.5710   29.6460   44.3840 C   0  0  0  0  0  0  0  0  0  0  0  0
   57.4820   28.2510   44.3830 C   0  0  0  0  0  0  0  0  0  0  0  0
   58.0380   27.4860   45.4320 C   0  0  0  0  0  0  0  0  0  0  0  0
   55.5400   23.4630   44.6540 N   0  0  0  0  0  0  0  0  0  0  0  0
   55.1450   27.4690   45.3500 H   0  0  0  0  0  0  0  0  0  0  0  0
   57.9187   24.4252   44.0747 H   0  0  0  0  0  0  0  0  0  0  0  0
   57.0843   25.9236   43.5141 H   0  0  0  0  0  0  0  0  0  0  0  0
   59.7300   25.5004   48.3540 H   0  0  0  0  0  0  0  0  0  0  0  0
   59.8313   27.9863   48.3243 H   0  0  0  0  0  0  0  0  0  0  0  0
   59.3127   30.0966   47.2864 H   0  0  0  0  0  0  0  0  0  0  0  0
   56.6375   32.0770   44.0655 H   0  0  0  0  0  0  0  0  0  0  0  0
   56.8006   34.5637   44.0547 H   0  0  0  0  0  0  0  0  0  0  0  0
   58.5694   35.7099   45.3962 H   0  0  0  0  0  0  0  0  0  0  0  0
   60.0285   31.8739   46.7622 H   0  0  0  0  0  0  0  0  0  0  0  0
   57.1263   30.2200   43.5577 H   0  0  0  0  0  0  0  0  0  0  0  0
   56.9712   27.7414   43.5527 H   0  0  0  0  0  0  0  0  0  0  0  0
  1  2  2  0
  2  3  1  0
  3  4  1  0
  4  5  1  0
  4  6  2  0
  6  7  1  0
  7  8  1  0
  8  9  2  0
  9 10  1  0
  9 11  1  0
 11 12  2  0
 12 13  1  0
 13 14  2  0
 14 15  1  0
 15 16  1  0
 16 17  2  0
 17 18  1  0
 18 19  2  0
 19 20  1  0
 20 21  1  0
 20 22  2  0
 15 23  2  0
 23 24  1  0
 24 25  2  0
  6 26  1  0
 26  2  1  0
 25  8  1  0
 25 13  1  0
 22 16  1  0
  5 27  1  0
  7 28  1  0
  7 29  1  0
 11 30  1  0
 12 31  1  0
 14 32  1  0
 17 33  1  0
 18 34  1  0
 19 35  1  0
 22 36  1  0
 23 37  1  0
 24 38  1  0
M  CHG  4   3  -1  10  -1  21  -1  26  -1
M  END
>  <UniqueID>  (44) 
39

>  <SMILES>  (44) 
O=c1[n-]c(O)c(Cc2c([O-])ccc3cc(-c4cccc([O-])c4)ccc23)[n-]1

>  <Energy>  (44) 
82.78180690767604

>  <Genealogy>  (44) 
O=c1[n-]c(O)c(Cc2c([O-])ccc3cc(-c4cccc([O-])c4)ccc23)[n-]1 (protonated)
O=c1[n-]c(O)c(Cc2c([O-])ccc3cc(-c4cccc([O-])c4)ccc23)[n-]1 (3D coordinates assigned)
O=c1[n-]c(O)c(Cc2c([O-])ccc3cc(-c4cccc([O-])c4)ccc23)[n-]1 (optimized conformer: 82.78180690767604 kcal/mol)

>  <smiles>  (44) 
O=c1[nH]c(O)c(Cc2c(O)ccc3cc(-c4cccc(O)c4)ccc23)[nH]1

>  <score_type>  (44) 
oracle

>  <origin>  (44) 
adg

>  <m_score__min__energy>  (44) 
-14.85

>  <m_primary>  (44) 
energy

$$$$
44:0
     RDKit          3D

 49 51  0  0  0  0  0  0  0  0999 V2000
   63.3670   33.1420   46.7580 C   0  0  0  0  0  0  0  0  0  0  0  0
   62.4990   32.3130   47.5810 N   0  0  0  0  0  0  0  0  0  0  0  0
   61.5790   31.4410   47.1290 C   0  0  0  0  0  0  0  0  0  0  0  0
   60.9310   30.9170   48.2240 C   0  0  0  0  0  0  0  0  0  0  0  0
   59.6850   29.6820   48.2170 S   0  0  0  0  0  0  0  0  0  0  0  0
   59.2240   29.4150   49.6230 O   0  0  0  0  0  0  0  0  0  0  0  0
   58.5160   30.1650   47.4070 O   0  0  0  0  0  0  0  0  0  0  0  0
   60.3190   28.2280   47.5090 N   0  0  0  0  0  0  0  0  0  0  0  0
   59.6810   27.9820   46.2180 C   0  0  0  0  0  0  0  0  0  0  0  0
   58.6130   26.9360   46.3860 C   0  0  0  0  0  0  0  0  0  0  0  0
   58.7190   25.9850   47.4150 C   0  0  0  0  0  0  0  0  0  0  0  0
   57.7280   25.0150   47.5870 C   0  0  0  0  0  0  0  0  0  0  0  0
   56.6150   24.9950   46.7450 C   0  0  0  0  0  0  0  0  0  0  0  0
   56.4900   25.9440   45.7280 C   0  0  0  0  0  0  0  0  0  0  0  0
   57.4920   26.9120   45.5280 C   0  0  0  0  0  0  0  0  0  0  0  0
   57.3550   27.9130   44.5050 N   0  0  0  0  0  0  0  0  0  0  0  0
   56.7300   29.1920   44.6670 C   0  0  0  0  0  0  0  0  0  0  0  0
   55.4920   29.2430   44.8940 O   0  0  0  0  0  0  0  0  0  0  0  0
   57.5110   30.4390   44.6090 C   0  0  0  0  0  0  0  0  0  0  0  0
   58.7360   30.3910   44.3110 O   0  0  0  0  0  0  0  0  0  0  0  0
   56.8820   31.7040   44.8600 N   0  0  0  0  0  0  0  0  0  0  0  0
   57.4900   32.9630   44.4360 C   0  0  0  0  0  0  0  0  0  0  0  0
   58.3310   33.5280   45.5500 C   0  0  0  0  0  0  0  0  0  0  0  0
   59.2350   34.5760   45.3020 C   0  0  0  0  0  0  0  0  0  0  0  0
   59.9620   35.1400   46.3550 C   0  0  0  0  0  0  0  0  0  0  0  0
   59.7910   34.6670   47.6580 C   0  0  0  0  0  0  0  0  0  0  0  0
   58.8920   33.6280   47.9110 C   0  0  0  0  0  0  0  0  0  0  0  0
   58.1620   33.0620   46.8630 C   0  0  0  0  0  0  0  0  0  0  0  0
   61.5040   31.5210   49.3230 C   0  0  0  0  0  0  0  0  0  0  0  0
   62.4540   32.3790   48.9040 N   0  0  0  0  0  0  0  0  0  0  0  0
   64.0098   33.7559   47.4060 H   0  0  0  0  0  0  0  0  0  0  0  0
   63.9940   32.4988   46.1230 H   0  0  0  0  0  0  0  0  0  0  0  0
   62.7533   33.7978   46.1230 H   0  0  0  0  0  0  0  0  0  0  0  0
   61.3810   31.1924   46.0759 H   0  0  0  0  0  0  0  0  0  0  0  0
   59.2286   28.9137   45.8476 H   0  0  0  0  0  0  0  0  0  0  0  0
   60.4322   27.6308   45.4952 H   0  0  0  0  0  0  0  0  0  0  0  0
   59.5877   26.0042   48.0895 H   0  0  0  0  0  0  0  0  0  0  0  0
   57.8252   24.2663   48.3870 H   0  0  0  0  0  0  0  0  0  0  0  0
   55.8356   24.2311   46.8826 H   0  0  0  0  0  0  0  0  0  0  0  0
   55.6021   25.9349   45.0787 H   0  0  0  0  0  0  0  0  0  0  0  0
   55.9120   31.7280   45.2470 H   0  0  0  0  0  0  0  0  0  0  0  0
   58.1244   32.7832   43.5555 H   0  0  0  0  0  0  0  0  0  0  0  0
   56.6960   33.6808   44.1825 H   0  0  0  0  0  0  0  0  0  0  0  0
   59.3706   34.9530   44.2776 H   0  0  0  0  0  0  0  0  0  0  0  0
   60.6702   35.9580   46.1567 H   0  0  0  0  0  0  0  0  0  0  0  0
   60.3639   35.1124   48.4847 H   0  0  0  0  0  0  0  0  0  0  0  0
   58.7587   33.2549   48.9372 H   0  0  0  0  0  0  0  0  0  0  0  0
   57.4516   32.2475   47.0678 H   0  0  0  0  0  0  0  0  0  0  0  0
   61.2299   31.3328   50.3715 H   0  0  0  0  0  0  0  0  0  0  0  0
  1  2  1  0
  2  3  1  0
  3  4  2  0
  4  5  1  0
  5  6  2  0
  5  7  2  0
  5  8  1  0
  8  9  1  0
  9 10  1  0
 10 11  2  0
 11 12  1  0
 12 13  2  0
 13 14  1  0
 14 15  2  0
 15 16  1  0
 16 17  1  0
 17 18  2  0
 17 19  1  0
 19 20  2  0
 19 21  1  0
 21 22  1  0
 22 23  1  0
 23 24  2  0
 24 25  1  0
 25 26  2  0
 26 27  1  0
 27 28  2  0
  4 29  1  0
 29 30  2  0
 30  2  1  0
 15 10  1  0
 28 23  1  0
  1 31  1  0
  1 32  1  0
  1 33  1  0
  3 34  1  0
  9 35  1  0
  9 36  1  0
 11 37  1  0
 12 38  1  0
 13 39  1  0
 14 40  1  0
 21 41  1  0
 22 42  1  0
 22 43  1  0
 24 44  1  0
 25 45  1  0
 26 46  1  0
 27 47  1  0
 28 48  1  0
 29 49  1  0
M  CHG  2   8  -1  16  -1
M  END
>  <UniqueID>  (45) 
40

>  <SMILES>  (45) 
Cn1cc(S(=O)(=O)[N-]Cc2ccccc2[N-]C(=O)C(=O)NCc2ccccc2)cn1

>  <Energy>  (45) 
78.47244360822594

>  <Genealogy>  (45) 
Cn1cc(S(=O)(=O)[N-]Cc2ccccc2[N-]C(=O)C(=O)NCc2ccccc2)cn1 (protonated)
Cn1cc(S(=O)(=O)[N-]Cc2ccccc2[N-]C(=O)C(=O)NCc2ccccc2)cn1 (3D coordinates assigned)
Cn1cc(S(=O)(=O)[N-]Cc2ccccc2[N-]C(=O)C(=O)NCc2ccccc2)cn1 (optimized conformer: 78.47244360822594 kcal/mol)

>  <smiles>  (45) 
Cn1cc(S(=O)(=O)NCc2ccccc2NC(=O)C(=O)NCc2ccccc2)cn1

>  <score_type>  (45) 
oracle

>  <origin>  (45) 
adg

>  <m_score__min__energy>  (45) 
-13.4

>  <m_primary>  (45) 
energy

$$$$
45:0
     RDKit          3D

 45 47  0  0  0  0  0  0  0  0999 V2000
   60.0160   27.9220   48.3810 C   0  0  0  0  0  0  0  0  0  0  0  0
   59.9670   28.9310   47.4970 C   0  0  0  0  0  0  0  0  0  0  0  0
   59.3160   28.9320   46.2520 C   0  0  0  0  0  0  0  0  0  0  0  0
   58.7860   27.9270   45.5290 C   0  0  0  0  0  0  0  0  0  0  0  0
   57.5440   27.2030   45.8500 C   0  0  0  0  0  0  0  0  0  0  0  0
   57.4820   25.9050   46.2020 N   0  0  0  0  0  0  0  0  0  0  0  0
   56.1540   25.6600   46.2550 C   0  0  0  0  0  0  0  0  0  0  0  0
   55.6850   24.5360   46.5710 O   0  0  0  0  0  0  0  0  0  0  0  0
   55.3710   26.7110   45.9310 N   0  0  0  0  0  0  0  0  0  0  0  0
   56.2680   27.6740   45.6630 C   0  0  0  0  0  0  0  0  0  0  0  0
   55.9300   28.9590   45.2520 O   0  0  0  0  0  0  0  0  0  0  0  0
   59.3120   30.2470   45.8210 C   0  0  0  0  0  0  0  0  0  0  0  0
   59.9920   30.9840   46.7670 C   0  0  0  0  0  0  0  0  0  0  0  0
   60.2040   32.4440   46.6740 C   0  0  0  0  0  0  0  0  0  0  0  0
   61.3890   32.8740   46.6400 O   0  0  0  0  0  0  0  0  0  0  0  0
   59.1030   33.3750   46.5900 N   0  0  0  0  0  0  0  0  0  0  0  0
   59.3190   34.8180   46.7390 C   0  0  0  0  0  0  0  0  0  0  0  0
   57.7210   32.8750   46.5910 C   0  0  0  0  0  0  0  0  0  0  0  0
   57.1880   32.7550   45.1560 C   0  0  1  0  0  0  0  0  0  0  0  0
   58.2640   33.0620   44.1290 C   0  0  0  0  0  0  0  0  0  0  0  0
   57.8470   32.2190   42.9640 C   0  0  0  0  0  0  0  0  0  0  0  0
   57.0840   31.0810   43.6170 C   0  0  0  0  0  0  0  0  0  0  0  0
   56.7100   31.4490   44.9270 O   0  0  0  0  0  0  0  0  0  0  0  0
   60.4240   30.1810   47.7690 N   0  0  0  0  0  0  0  0  0  0  0  0
   61.2150   30.5890   48.9350 C   0  0  0  0  0  0  0  0  0  0  0  0
   60.5622   28.0462   49.3277 H   0  0  0  0  0  0  0  0  0  0  0  0
   59.5099   26.9710   48.1587 H   0  0  0  0  0  0  0  0  0  0  0  0
   59.3267   27.6207   44.6214 H   0  0  0  0  0  0  0  0  0  0  0  0
   55.8480   29.7110   45.9260 H   0  0  0  0  0  0  0  0  0  0  0  0
   58.8531   30.6315   44.8982 H   0  0  0  0  0  0  0  0  0  0  0  0
   59.3574   35.0746   47.8080 H   0  0  0  0  0  0  0  0  0  0  0  0
   60.2690   35.0979   46.2604 H   0  0  0  0  0  0  0  0  0  0  0  0
   58.4926   35.3638   46.2604 H   0  0  0  0  0  0  0  0  0  0  0  0
   57.6952   31.8851   47.0701 H   0  0  0  0  0  0  0  0  0  0  0  0
   57.0883   33.5833   47.1460 H   0  0  0  0  0  0  0  0  0  0  0  0
   56.3752   33.4882   45.0472 H   0  0  0  0  0  0  0  0  0  0  0  0
   58.2695   34.1300   43.8656 H   0  0  0  0  0  0  0  0  0  0  0  0
   59.2832   32.8485   44.4833 H   0  0  0  0  0  0  0  0  0  0  0  0
   57.2001   32.7857   42.2782 H   0  0  0  0  0  0  0  0  0  0  0  0
   58.6952   31.8761   42.3533 H   0  0  0  0  0  0  0  0  0  0  0  0
   56.1819   30.8600   43.0277 H   0  0  0  0  0  0  0  0  0  0  0  0
   57.7259   30.1887   43.6586 H   0  0  0  0  0  0  0  0  0  0  0  0
   60.6801   30.3131   49.8557 H   0  0  0  0  0  0  0  0  0  0  0  0
   62.1908   30.0817   48.9118 H   0  0  0  0  0  0  0  0  0  0  0  0
   61.3673   31.6782   48.9118 H   0  0  0  0  0  0  0  0  0  0  0  0
  1  2  2  0
  2  3  1  0
  3  4  2  3
  4  5  1  0
  5  6  1  0
  6  7  1  0
  7  8  2  0
  7  9  1  0
  9 10  1  0
 10 11  1  0
  3 12  1  0
 12 13  2  0
 13 14  1  0
 14 15  2  0
 14 16  1  0
 16 17  1  0
 16 18  1  0
 18 19  1  0
 19 20  1  0
 20 21  1  0
 21 22  1  0
 22 23  1  0
 13 24  1  0
 24 25  1  0
 24  2  1  0
 10  5  2  0
 23 19  1  0
  1 26  1  0
  1 27  1  0
  4 28  1  0
 11 29  1  0
 12 30  1  0
 17 31  1  0
 17 32  1  0
 17 33  1  0
 18 34  1  0
 18 35  1  0
 19 36  1  1
 20 37  1  0
 20 38  1  0
 21 39  1  0
 21 40  1  0
 22 41  1  0
 22 42  1  0
 25 43  1  0
 25 44  1  0
 25 45  1  0
M  CHG  2   6  -1   9  -1
M  END
>  <UniqueID>  (46) 
41

>  <SMILES>  (46) 
C=c1c(=Cc2[n-]c(=O)[n-]c2O)cc(C(=O)N(C)C[C@H]2CCCO2)n1C

>  <Energy>  (46) 
115.6214951232863

>  <Genealogy>  (46) 
C=c1c(=Cc2[n-]c(=O)[n-]c2O)cc(C(=O)N(C)CC2CCCO2)n1C (protonated)
C=c1c(=Cc2[n-]c(=O)[n-]c2O)cc(C(=O)N(C)C[C@H]2CCCO2)n1C (chirality)
C=c1c(=Cc2[n-]c(=O)[n-]c2O)cc(C(=O)N(C)C[C@H]2CCCO2)n1C (3D coordinates assigned)
C=c1c(=Cc2[n-]c(=O)[n-]c2O)cc(C(=O)N(C)C[C@H]2CCCO2)n1C (nonaromatic ring conformer: 115.6214951232863 kcal/mol)

>  <smiles>  (46) 
C=c1c(=Cc2[nH]c(=O)[nH]c2O)cc(C(=O)N(C)CC2CCCO2)n1C

>  <score_type>  (46) 
oracle

>  <origin>  (46) 
adg

>  <m_score__min__energy>  (46) 
-12.380000000000001

>  <m_primary>  (46) 
energy

$$$$
46:0
     RDKit          3D

 75 79  0  0  0  0  0  0  0  0999 V2000
   53.6670   31.1460   50.8710 N   0  0  0  0  0  0  0  0  0  0  0  0
   53.0190   30.2610   51.7920 C   0  0  0  0  0  0  0  0  0  0  0  0
   51.7600   30.2570   51.8470 O   0  0  0  0  0  0  0  0  0  0  0  0
   53.8050   29.3560   52.6700 C   0  0  0  0  0  0  0  0  0  0  0  0
   53.1380   28.5500   53.6140 C   0  0  0  0  0  0  0  0  0  0  0  0
   53.8610   27.7280   54.4830 C   0  0  0  0  0  0  0  0  0  0  0  0
   55.2540   27.7040   54.4310 C   0  0  0  0  0  0  0  0  0  0  0  0
   55.9320   28.4960   53.5040 C   0  0  0  0  0  0  0  0  0  0  0  0
   55.2220   29.3120   52.6140 C   0  0  0  0  0  0  0  0  0  0  0  0
   55.9610   30.0940   51.6700 N   0  0  0  0  0  0  0  0  0  0  0  0
   56.8220   31.1870   52.0150 C   0  0  0  0  0  0  0  0  0  0  0  0
   56.8050   31.6170   53.2020 O   0  0  0  0  0  0  0  0  0  0  0  0
   57.8120   31.7600   51.0290 C   0  0  0  0  0  0  0  0  0  0  0  0
   59.0610   30.9170   50.9590 C   0  0  0  0  0  0  0  0  0  0  0  0
   59.9290   30.8500   52.0580 C   0  0  0  0  0  0  0  0  0  0  0  0
   61.0690   30.0430   52.0070 C   0  0  0  0  0  0  0  0  0  0  0  0
   61.3370   29.2790   50.8680 C   0  0  0  0  0  0  0  0  0  0  0  0
   60.4640   29.3040   49.7770 C   0  0  0  0  0  0  0  0  0  0  0  0
   60.7690   28.5180   48.6570 O   0  0  0  0  0  0  0  0  0  0  0  0
   60.0540   28.5300   47.4490 C   0  0  0  0  0  0  0  0  0  0  0  0
   58.7920   27.9290   47.4010 C   0  0  0  0  0  0  0  0  0  0  0  0
   58.0780   27.8760   46.2010 C   0  0  0  0  0  0  0  0  0  0  0  0
   58.6110   28.4440   45.0320 C   0  0  0  0  0  0  0  0  0  0  0  0
   57.8540   28.3760   43.7640 C   0  0  0  0  0  0  0  0  0  0  0  0
   58.1130   27.4590   42.9420 O   0  0  0  0  0  0  0  0  0  0  0  0
   56.8290   29.3210   43.4380 N   0  0  0  0  0  0  0  0  0  0  0  0
   56.2800   30.3150   44.3590 C   0  0  0  0  0  0  0  0  0  0  0  0
   57.2760   31.4170   44.5970 C   0  0  0  0  0  0  0  0  0  0  0  0
   57.5780   32.3150   43.5630 C   0  0  0  0  0  0  0  0  0  0  0  0
   58.4780   33.3610   43.7770 C   0  0  0  0  0  0  0  0  0  0  0  0
   59.0860   33.5170   45.0240 C   0  0  0  0  0  0  0  0  0  0  0  0
   58.8150   32.6140   46.0660 C   0  0  0  0  0  0  0  0  0  0  0  0
   59.4550   32.8080   47.3870 C   0  0  0  0  0  0  0  0  0  0  0  0
   58.7220   33.0230   48.3880 O   0  0  0  0  0  0  0  0  0  0  0  0
   60.8890   32.8110   47.5410 N   0  0  0  0  0  0  0  0  0  0  0  0
   61.7120   33.4760   46.5180 C   0  0  0  0  0  0  0  0  0  0  0  0
   63.1460   33.6840   47.0190 C   0  0  0  0  0  0  0  0  0  0  0  0
   63.6670   32.4390   47.5930 N   0  0  0  0  0  0  0  0  0  0  0  0
   62.9010   31.9770   48.7690 C   0  0  0  0  0  0  0  0  0  0  0  0
   61.4660   32.5460   48.8680 C   0  0  0  0  0  0  0  0  0  0  0  0
   57.9070   31.5620   45.8470 C   0  0  0  0  0  0  0  0  0  0  0  0
   59.8370   29.1270   45.1030 C   0  0  0  0  0  0  0  0  0  0  0  0
   60.5590   29.1630   46.2980 C   0  0  0  0  0  0  0  0  0  0  0  0
   59.3320   30.1430   49.8190 C   0  0  0  0  0  0  0  0  0  0  0  0
   54.7020   31.2790   50.8830 H   0  0  0  0  0  0  0  0  0  0  0  0
   53.0940   31.7420   50.2310 H   0  0  0  0  0  0  0  0  0  0  0  0
   52.0394   28.5679   53.6674 H   0  0  0  0  0  0  0  0  0  0  0  0
   53.3289   27.0976   55.2107 H   0  0  0  0  0  0  0  0  0  0  0  0
   55.8188   27.0602   55.1213 H   0  0  0  0  0  0  0  0  0  0  0  0
   57.0314   28.4796   53.4718 H   0  0  0  0  0  0  0  0  0  0  0  0
   57.3468   31.7958   50.0329 H   0  0  0  0  0  0  0  0  0  0  0  0
   58.0914   32.7703   51.3626 H   0  0  0  0  0  0  0  0  0  0  0  0
   59.7119   31.4349   52.9640 H   0  0  0  0  0  0  0  0  0  0  0  0
   61.7565   30.0092   52.8650 H   0  0  0  0  0  0  0  0  0  0  0  0
   62.2412   28.6537   50.8299 H   0  0  0  0  0  0  0  0  0  0  0  0
   58.3585   27.4951   48.3141 H   0  0  0  0  0  0  0  0  0  0  0  0
   57.0932   27.3868   46.1716 H   0  0  0  0  0  0  0  0  0  0  0  0
   55.3633   30.7423   43.9265 H   0  0  0  0  0  0  0  0  0  0  0  0
   56.0536   29.8259   45.3179 H   0  0  0  0  0  0  0  0  0  0  0  0
   57.1033   32.1947   42.5780 H   0  0  0  0  0  0  0  0  0  0  0  0
   58.7082   34.0630   42.9620 H   0  0  0  0  0  0  0  0  0  0  0  0
   59.7818   34.3523   45.1920 H   0  0  0  0  0  0  0  0  0  0  0  0
   61.7340   32.8522   45.6122 H   0  0  0  0  0  0  0  0  0  0  0  0
   61.2710   34.4592   46.2971 H   0  0  0  0  0  0  0  0  0  0  0  0
   63.7841   33.9911   46.1773 H   0  0  0  0  0  0  0  0  0  0  0  0
   63.1460   34.4645   47.7942 H   0  0  0  0  0  0  0  0  0  0  0  0
   63.6250   31.6950   46.8560 H   0  0  0  0  0  0  0  0  0  0  0  0
   62.8326   30.8800   48.7244 H   0  0  0  0  0  0  0  0  0  0  0  0
   63.4419   32.3404   49.6552 H   0  0  0  0  0  0  0  0  0  0  0  0
   60.8302   31.8183   49.3935 H   0  0  0  0  0  0  0  0  0  0  0  0
   61.5137   33.4987   49.4158 H   0  0  0  0  0  0  0  0  0  0  0  0
   57.6891   30.8495   46.6562 H   0  0  0  0  0  0  0  0  0  0  0  0
   60.2308   29.6368   44.2113 H   0  0  0  0  0  0  0  0  0  0  0  0
   61.5250   29.6875   46.3396 H   0  0  0  0  0  0  0  0  0  0  0  0
   58.6561   30.1918   48.9526 H   0  0  0  0  0  0  0  0  0  0  0  0
  1  2  1  0
  2  3  2  0
  2  4  1  0
  4  5  2  0
  5  6  1  0
  6  7  2  0
  7  8  1  0
  8  9  2  0
  9 10  1  0
 10 11  1  0
 11 12  2  0
 11 13  1  0
 13 14  1  0
 14 15  2  0
 15 16  1  0
 16 17  2  0
 17 18  1  0
 18 19  1  0
 19 20  1  0
 20 21  2  0
 21 22  1  0
 22 23  2  0
 23 24  1  0
 24 25  2  0
 24 26  1  0
 26 27  1  0
 27 28  1  0
 28 29  2  0
 29 30  1  0
 30 31  2  0
 31 32  1  0
 32 33  1  0
 33 34  2  0
 33 35  1  0
 35 36  1  0
 36 37  1  0
 37 38  1  0
 38 39  1  0
 39 40  1  0
 32 41  2  0
 23 42  1  0
 42 43  2  0
 18 44  2  0
  9  4  1  0
 44 14  1  0
 43 20  1  0
 41 28  1  0
 40 35  1  0
  1 45  1  0
  1 46  1  0
  5 47  1  0
  6 48  1  0
  7 49  1  0
  8 50  1  0
 13 51  1  0
 13 52  1  0
 15 53  1  0
 16 54  1  0
 17 55  1  0
 21 56  1  0
 22 57  1  0
 27 58  1  0
 27 59  1  0
 29 60  1  0
 30 61  1  0
 31 62  1  0
 36 63  1  0
 36 64  1  0
 37 65  1  0
 37 66  1  0
 38 67  1  0
 39 68  1  0
 39 69  1  0
 40 70  1  0
 40 71  1  0
 41 72  1  0
 42 73  1  0
 43 74  1  0
 44 75  1  0
M  CHG  2  10  -1  26  -1
M  END
>  <UniqueID>  (47) 
42

>  <SMILES>  (47) 
NC(=O)c1ccccc1[N-]C(=O)Cc1cccc(Oc2ccc(C(=O)[N-]Cc3cccc(C(=O)N4CCNCC4)c3)cc2)c1

>  <Energy>  (47) 
104.00067080215995

>  <Genealogy>  (47) 
NC(=O)c1ccccc1[N-]C(=O)Cc1cccc(Oc2ccc(C(=O)[N-]Cc3cccc(C(=O)N4CCNCC4)c3)cc2)c1 (protonated)
NC(=O)c1ccccc1[N-]C(=O)Cc1cccc(Oc2ccc(C(=O)[N-]Cc3cccc(C(=O)N4CCNCC4)c3)cc2)c1 (3D coordinates assigned)
NC(=O)c1ccccc1[N-]C(=O)Cc1cccc(Oc2ccc(C(=O)[N-]Cc3cccc(C(=O)N4CCNCC4)c3)cc2)c1 (nonaromatic ring conformer: 104.00067080215995 kcal/mol)

>  <smiles>  (47) 
NC(=O)c1ccccc1NC(=O)Cc1cccc(Oc2ccc(C(=O)NCc3cccc(C(=O)N4CCNCC4)c3)cc2)c1

>  <score_type>  (47) 
oracle

>  <origin>  (47) 
adg

>  <m_score__min__energy>  (47) 
-13.58

>  <m_primary>  (47) 
energy

$$$$
47:0
     RDKit          3D

 49 52  0  0  0  0  0  0  0  0999 V2000
   57.5121   34.4063   44.4209 H   0  0  0  0  0  0  0  0  0  0  0  0
   57.5070   33.3150   44.5590 C   0  0  0  0  0  0  0  0  0  0  0  0
   57.5790   32.7640   45.8490 C   0  0  0  0  0  0  0  0  0  0  0  0
   57.6650   33.5740   47.0360 N   0  0  0  0  0  0  0  0  0  0  0  0
   56.7900   34.0590   47.3400 H   0  0  0  0  0  0  0  0  0  0  0  0
   58.8970   33.8560   47.7850 C   0  0  1  0  0  0  0  0  0  0  0  0
   58.5874   34.3179   48.7341 H   0  0  0  0  0  0  0  0  0  0  0  0
   59.6800   32.6050   47.9640 C   0  0  0  0  0  0  0  0  0  0  0  0
   59.3250   31.4880   48.7280 C   0  0  0  0  0  0  0  0  0  0  0  0
   58.3841   31.4751   49.2977 H   0  0  0  0  0  0  0  0  0  0  0  0
   60.1910   30.3850   48.7540 C   0  0  0  0  0  0  0  0  0  0  0  0
   59.9306   29.4978   49.3500 H   0  0  0  0  0  0  0  0  0  0  0  0
   61.3910   30.4090   48.0210 C   0  0  0  0  0  0  0  0  0  0  0  0
   62.0663   29.5410   48.0445 H   0  0  0  0  0  0  0  0  0  0  0  0
   61.7280   31.5380   47.2600 C   0  0  0  0  0  0  0  0  0  0  0  0
   62.6634   31.5651   46.6818 H   0  0  0  0  0  0  0  0  0  0  0  0
   60.8540   32.6270   47.2500 C   0  0  0  0  0  0  0  0  0  0  0  0
   61.0270   33.8890   46.4970 C   0  0  0  0  0  0  0  0  0  0  0  0
   60.9775   33.7081   45.4131 H   0  0  0  0  0  0  0  0  0  0  0  0
   62.0027   34.3626   46.6806 H   0  0  0  0  0  0  0  0  0  0  0  0
   59.8450   34.7620   46.9620 C   0  0  0  0  0  0  0  0  0  0  0  0
   59.3126   35.1697   46.0900 H   0  0  0  0  0  0  0  0  0  0  0  0
   60.2011   35.6064   47.5705 H   0  0  0  0  0  0  0  0  0  0  0  0
   57.5550   31.4100   45.9880 N   0  0  0  0  0  0  0  0  0  0  0  0
   57.4730   30.5500   44.9360 C   0  0  0  0  0  0  0  0  0  0  0  0
   57.4550   29.2720   45.1970 N   0  0  0  0  0  0  0  0  0  0  0  0
   58.0510   28.5510   46.3230 C   0  0  0  0  0  0  0  0  0  0  0  0
   57.4068   28.6719   47.2064 H   0  0  0  0  0  0  0  0  0  0  0  0
   59.0520   28.9674   46.5091 H   0  0  0  0  0  0  0  0  0  0  0  0
   58.1980   27.0810   46.0210 C   0  0  0  0  0  0  0  0  0  0  0  0
   57.0920   26.3280   45.5890 C   0  0  0  0  0  0  0  0  0  0  0  0
   56.1203   26.8209   45.4381 H   0  0  0  0  0  0  0  0  0  0  0  0
   57.2200   24.9560   45.3500 C   0  0  0  0  0  0  0  0  0  0  0  0
   56.3516   24.3760   45.0042 H   0  0  0  0  0  0  0  0  0  0  0  0
   58.4520   24.3180   45.5500 C   0  0  0  0  0  0  0  0  0  0  0  0
   58.6270   22.5880   45.2610 S   0  0  0  0  0  0  0  0  0  0  0  0
   58.0910   22.2560   43.8960 O   0  0  0  0  0  0  0  0  0  0  0  0
   57.8580   21.8060   46.2890 O   0  0  0  0  0  0  0  0  0  0  0  0
   60.2970   22.1460   45.3540 N   0  0  0  0  0  0  0  0  0  0  0  0
   60.7690   22.5560   44.5160 H   0  0  0  0  0  0  0  0  0  0  0  0
   60.3470   21.1080   45.2490 H   0  0  0  0  0  0  0  0  0  0  0  0
   59.5500   25.0610   45.9980 C   0  0  0  0  0  0  0  0  0  0  0  0
   60.5179   24.5639   46.1596 H   0  0  0  0  0  0  0  0  0  0  0  0
   59.4230   26.4310   46.2410 C   0  0  0  0  0  0  0  0  0  0  0  0
   60.2879   27.0038   46.6069 H   0  0  0  0  0  0  0  0  0  0  0  0
   57.4160   31.0820   43.6270 C   0  0  0  0  0  0  0  0  0  0  0  0
   57.3550   30.3040   42.5200 F   0  0  0  0  0  0  0  0  0  0  0  0
   57.4290   32.4670   43.4550 C   0  0  0  0  0  0  0  0  0  0  0  0
   57.3774   32.8923   42.4419 H   0  0  0  0  0  0  0  0  0  0  0  0
  1  2  1  0
  2  3  2  0
  3  4  1  0
  4  5  1  0
  4  6  1  0
  6  7  1  1
  6  8  1  0
  8  9  2  0
  9 10  1  0
  9 11  1  0
 11 12  1  0
 11 13  2  0
 13 14  1  0
 13 15  1  0
 15 16  1  0
 15 17  2  0
 17 18  1  0
 18 19  1  0
 18 20  1  0
 18 21  1  0
 21 22  1  0
 21 23  1  0
  3 24  1  0
 24 25  1  0
 25 26  2  0
 26 27  1  0
 27 28  1  0
 27 29  1  0
 27 30  1  0
 30 31  2  0
 31 32  1  0
 31 33  1  0
 33 34  1  0
 33 35  2  0
 35 36  1  0
 36 37  2  0
 36 38  2  0
 36 39  1  0
 39 40  1  0
 39 41  1  0
 35 42  1  0
 42 43  1  0
 42 44  2  0
 44 45  1  0
 25 46  1  0
 46 47  1  0
 46 48  2  0
 48 49  1  0
 48  2  1  0
 21  6  1  0
 44 30  1  0
 17  8  1  0
M  CHG  1  24  -1
M  END
>  <UniqueID>  (48) 
43

>  <SMILES>  (48) 
NS(=O)(=O)c1ccc(C/N=c2/[n-]c(N[C@@H]3CCc4ccccc43)ccc2F)cc1

>  <Energy>  (48) 
65.68824182906572

>  <Genealogy>  (48) 
NS(=O)(=O)c1ccc(CN=c2[n-]c(NC3CCc4ccccc43)ccc2F)cc1 (protonated)
NS(=O)(=O)c1ccc(CN=c2[n-]c(N[C@@H]3CCc4ccccc43)ccc2F)cc1 (chirality)
NS(=O)(=O)c1ccc(C/N=c2/[n-]c(N[C@@H]3CCc4ccccc43)ccc2F)cc1 (cis-trans isomerization)
NS(=O)(=O)c1ccc(C/N=c2/[n-]c(N[C@@H]3CCc4ccccc43)ccc2F)cc1 (3D coordinates assigned)
NS(=O)(=O)c1ccc(C/N=c2/[n-]c(N[C@@H]3CCc4ccccc43)ccc2F)cc1 (nonaromatic ring conformer: 65.68824182906572 kcal/mol)

>  <smiles>  (48) 
NS(=O)(=O)c1ccc(CN=c2[nH]c(NC3CCc4ccccc43)ccc2F)cc1

>  <score_type>  (48) 
oracle

>  <origin>  (48) 
adg

>  <m_score__min__energy>  (48) 
-10.99

>  <m_primary>  (48) 
energy

$$$$
48:0
     RDKit          3D

 43 45  0  0  0  0  0  0  0  0999 V2000
   59.2830   33.0410   49.9350 C   0  0  0  0  0  0  0  0  0  0  0  0
   59.7680   34.1210   49.0890 N   0  0  0  0  0  0  0  0  0  0  0  0
   59.2300   34.3860   47.7920 C   0  0  0  0  0  0  0  0  0  0  0  0
   59.6910   35.3320   47.0950 O   0  0  0  0  0  0  0  0  0  0  0  0
   58.1600   33.5750   47.2940 N   0  0  0  0  0  0  0  0  0  0  0  0
   57.5610   33.7780   45.9760 C   0  0  0  0  0  0  0  0  0  0  0  0
   58.6380   33.7430   44.8900 C   0  0  0  0  0  0  0  0  0  0  0  0
   58.0080   32.9500   43.3680 S   0  0  0  0  0  0  0  0  0  0  0  0
   57.7410   31.3380   44.1140 C   0  0  0  0  0  0  0  0  0  0  0  0
   58.6950   30.8050   44.9870 C   0  0  0  0  0  0  0  0  0  0  0  0
   58.4960   29.5470   45.5630 C   0  0  0  0  0  0  0  0  0  0  0  0
   57.3360   28.8000   45.2690 C   0  0  0  0  0  0  0  0  0  0  0  0
   57.1020   27.4600   45.8670 C   0  0  0  0  0  0  0  0  0  0  0  0
   58.0020   26.8070   46.7170 C   0  0  0  0  0  0  0  0  0  0  0  0
   57.3300   25.3300   47.1620 S   0  0  0  0  0  0  0  0  0  0  0  0
   55.9270   25.5780   46.2620 C   0  0  0  0  0  0  0  0  0  0  0  0
   54.9190   24.7620   46.1530 N   0  0  0  0  0  0  0  0  0  0  0  0
   54.7350   23.7220   45.1800 C   0  0  0  0  0  0  0  0  0  0  0  0
   53.5840   23.3310   44.8450 O   0  0  0  0  0  0  0  0  0  0  0  0
   55.9330   23.1340   44.5040 C   0  0  0  0  0  0  0  0  0  0  0  0
   55.8070   23.0040   42.9920 C   0  0  0  0  0  0  0  0  0  0  0  0
   56.6810   24.0940   43.5900 C   0  0  0  0  0  0  0  0  0  0  0  0
   55.9540   26.7660   45.6250 N   0  0  0  0  0  0  0  0  0  0  0  0
   56.3930   29.3420   44.3750 C   0  0  0  0  0  0  0  0  0  0  0  0
   56.5970   30.6010   43.8010 C   0  0  0  0  0  0  0  0  0  0  0  0
   59.4078   33.3189   50.9920 H   0  0  0  0  0  0  0  0  0  0  0  0
   58.2180   32.8618   49.7263 H   0  0  0  0  0  0  0  0  0  0  0  0
   59.8566   32.1259   49.7263 H   0  0  0  0  0  0  0  0  0  0  0  0
   57.7510   32.8460   47.9220 H   0  0  0  0  0  0  0  0  0  0  0  0
   56.8272   32.9812   45.7847 H   0  0  0  0  0  0  0  0  0  0  0  0
   57.0660   34.7601   45.9563 H   0  0  0  0  0  0  0  0  0  0  0  0
   58.9479   34.7725   44.6574 H   0  0  0  0  0  0  0  0  0  0  0  0
   59.4921   33.1582   45.2621 H   0  0  0  0  0  0  0  0  0  0  0  0
   59.6046   31.3775   45.2210 H   0  0  0  0  0  0  0  0  0  0  0  0
   59.2498   29.1363   46.2509 H   0  0  0  0  0  0  0  0  0  0  0  0
   58.9805   27.1930   47.0388 H   0  0  0  0  0  0  0  0  0  0  0  0
   56.2151   22.4588   45.3253 H   0  0  0  0  0  0  0  0  0  0  0  0
   56.2692   22.1514   42.4729 H   0  0  0  0  0  0  0  0  0  0  0  0
   54.9683   22.9826   42.2805 H   0  0  0  0  0  0  0  0  0  0  0  0
   57.7757   24.0302   43.5034 H   0  0  0  0  0  0  0  0  0  0  0  0
   56.7365   25.1880   43.4901 H   0  0  0  0  0  0  0  0  0  0  0  0
   55.4872   28.7699   44.1256 H   0  0  0  0  0  0  0  0  0  0  0  0
   55.8543   31.0117   43.1012 H   0  0  0  0  0  0  0  0  0  0  0  0
  1  2  1  0
  2  3  1  0
  3  4  2  0
  3  5  1  0
  5  6  1  0
  6  7  1  0
  7  8  1  0
  8  9  1  0
  9 10  2  0
 10 11  1  0
 11 12  2  0
 12 13  1  0
 13 14  2  0
 14 15  1  0
 15 16  1  0
 16 17  2  3
 17 18  1  0
 18 19  2  0
 18 20  1  0
 20 21  1  0
 21 22  1  0
 16 23  1  0
 12 24  1  0
 24 25  2  0
 25  9  1  0
 23 13  1  0
 22 20  1  0
  1 26  1  0
  1 27  1  0
  1 28  1  0
  5 29  1  0
  6 30  1  0
  6 31  1  0
  7 32  1  0
  7 33  1  0
 10 34  1  0
 11 35  1  0
 14 36  1  0
 20 37  1  0
 21 38  1  0
 21 39  1  0
 22 40  1  0
 22 41  1  0
 24 42  1  0
 25 43  1  0
M  CHG  2   2  -1  23  -1
M  END
>  <UniqueID>  (49) 
44

>  <SMILES>  (49) 
C[N-]C(=O)NCCSc1ccc(-c2csc(=NC(=O)C3CC3)[n-]2)cc1

>  <Energy>  (49) 
331.5620429122115

>  <Genealogy>  (49) 
C[N-]C(=O)NCCSc1ccc(-c2csc(=NC(=O)C3CC3)[n-]2)cc1 (protonated)
C[N-]C(=O)NCCSc1ccc(-c2csc(=NC(=O)C3CC3)[n-]2)cc1 (3D coordinates assigned)
C[N-]C(=O)NCCSc1ccc(-c2csc(=NC(=O)C3CC3)[n-]2)cc1 (nonaromatic ring conformer: 331.5620429122115 kcal/mol)

>  <smiles>  (49) 
CNC(=O)NCCSc1ccc(-c2csc(=NC(=O)C3CC3)[nH]2)cc1

>  <score_type>  (49) 
oracle

>  <origin>  (49) 
adg

>  <m_score__min__energy>  (49) 
-11.17

>  <m_primary>  (49) 
energy

$$$$
49:0
     RDKit          3D

 53 56  0  0  0  0  0  0  0  0999 V2000
   56.9445   27.7371   43.1075 H   0  0  0  0  0  0  0  0  0  0  0  0
   57.4220   28.5550   43.6670 C   0  0  0  0  0  0  0  0  0  0  0  0
   56.7420   29.8640   43.6730 C   0  0  0  0  0  0  0  0  0  0  0  0
   56.2500   30.2910   42.5960 O   0  0  0  0  0  0  0  0  0  0  0  0
   56.6400   30.6800   44.8480 N   0  0  0  0  0  0  0  0  0  0  0  0
   56.7410   32.1370   44.8810 C   0  0  0  0  0  0  0  0  0  0  0  0
   55.9810   32.5657   44.2112 H   0  0  0  0  0  0  0  0  0  0  0  0
   56.5787   32.4767   45.9146 H   0  0  0  0  0  0  0  0  0  0  0  0
   58.1270   32.6000   44.4270 C   0  0  0  0  0  0  0  0  0  0  0  0
   58.7777   31.7200   44.3163 H   0  0  0  0  0  0  0  0  0  0  0  0
   58.0135   33.1309   43.4703 H   0  0  0  0  0  0  0  0  0  0  0  0
   58.7510   33.5450   45.4140 C   0  0  0  0  0  0  0  0  0  0  0  0
   59.1330   34.8070   45.1150 N   0  0  0  0  0  0  0  0  0  0  0  0
   59.6000   35.3570   46.2320 N   0  0  0  0  0  0  0  0  0  0  0  0
   59.4970   34.4160   47.1860 C   0  0  0  0  0  0  0  0  0  0  0  0
   59.8160   34.5550   48.5340 C   0  0  0  0  0  0  0  0  0  0  0  0
   60.2285   35.4964   48.9259 H   0  0  0  0  0  0  0  0  0  0  0  0
   59.5930   33.4490   49.3810 C   0  0  0  0  0  0  0  0  0  0  0  0
   59.8230   33.5600   50.8360 C   0  0  0  0  0  0  0  0  0  0  0  0
   58.9910   34.1910   51.5400 O   0  0  0  0  0  0  0  0  0  0  0  0
   60.9740   32.9910   51.4750 N   0  0  0  0  0  0  0  0  0  0  0  0
   62.3600   33.3550   51.1970 C   0  0  0  0  0  0  0  0  0  0  0  0
   62.5096   34.4201   51.4274 H   0  0  0  0  0  0  0  0  0  0  0  0
   63.0257   32.7401   51.8205 H   0  0  0  0  0  0  0  0  0  0  0  0
   62.6780   33.1100   49.7470 C   0  0  0  0  0  0  0  0  0  0  0  0
   63.0710   34.1850   48.9320 C   0  0  0  0  0  0  0  0  0  0  0  0
   63.1208   35.2004   49.3522 H   0  0  0  0  0  0  0  0  0  0  0  0
   63.3990   33.9710   47.5900 C   0  0  0  0  0  0  0  0  0  0  0  0
   63.7001   34.8184   46.9566 H   0  0  0  0  0  0  0  0  0  0  0  0
   63.3450   32.6830   47.0520 C   0  0  0  0  0  0  0  0  0  0  0  0
   63.6056   32.5162   45.9964 H   0  0  0  0  0  0  0  0  0  0  0  0
   62.9600   31.6070   47.8550 C   0  0  0  0  0  0  0  0  0  0  0  0
   62.9161   30.5936   47.4295 H   0  0  0  0  0  0  0  0  0  0  0  0
   62.6300   31.8140   49.1990 C   0  0  0  0  0  0  0  0  0  0  0  0
   62.2650   30.7530   49.9640 F   0  0  0  0  0  0  0  0  0  0  0  0
   59.0490   32.2560   48.8440 C   0  0  0  0  0  0  0  0  0  0  0  0
   58.8664   31.3902   49.4974 H   0  0  0  0  0  0  0  0  0  0  0  0
   58.7440   32.1820   47.4770 C   0  0  0  0  0  0  0  0  0  0  0  0
   58.3259   31.2637   47.0389 H   0  0  0  0  0  0  0  0  0  0  0  0
   58.9800   33.2770   46.7110 N   0  0  0  0  0  0  0  0  0  0  0  0
   58.5770   28.2860   44.2910 C   0  0  0  0  0  0  0  0  0  0  0  0
   59.4671   28.1273   43.6644 H   0  0  0  0  0  0  0  0  0  0  0  0
   58.7480   28.1860   45.7560 C   0  0  0  0  0  0  0  0  0  0  0  0
   57.9990   27.4290   46.6390 C   0  0  0  0  0  0  0  0  0  0  0  0
   56.6850   26.3200   46.2930 Cl  0  0  0  0  0  0  0  0  0  0  0  0
   58.5780   27.6420   47.8730 C   0  0  0  0  0  0  0  0  0  0  0  0
   58.2345   27.2021   48.8209 H   0  0  0  0  0  0  0  0  0  0  0  0
   59.6300   28.4730   47.7360 N   0  0  0  0  0  0  0  0  0  0  0  0
   59.7430   28.7780   46.4530 N   0  0  0  0  0  0  0  0  0  0  0  0
   60.7300   29.7280   45.9460 C   0  0  0  0  0  0  0  0  0  0  0  0
   61.2371   30.2161   46.7914 H   0  0  0  0  0  0  0  0  0  0  0  0
   61.4709   29.1946   45.3324 H   0  0  0  0  0  0  0  0  0  0  0  0
   60.2252   30.4888   45.3324 H   0  0  0  0  0  0  0  0  0  0  0  0
  1  2  1  0
  2  3  1  0
  3  4  2  0
  3  5  1  0
  5  6  1  0
  6  7  1  0
  6  8  1  0
  6  9  1  0
  9 10  1  0
  9 11  1  0
  9 12  1  0
 12 13  2  0
 13 14  1  0
 14 15  2  0
 15 16  1  0
 16 17  1  0
 16 18  2  0
 18 19  1  0
 19 20  2  0
 19 21  1  0
 21 22  1  0
 22 23  1  0
 22 24  1  0
 22 25  1  0
 25 26  2  0
 26 27  1  0
 26 28  1  0
 28 29  1  0
 28 30  2  0
 30 31  1  0
 30 32  1  0
 32 33  1  0
 32 34  2  0
 34 35  1  0
 18 36  1  0
 36 37  1  0
 36 38  2  0
 38 39  1  0
 38 40  1  0
  2 41  2  0
 41 42  1  0
 41 43  1  0
 43 44  2  0
 44 45  1  0
 44 46  1  0
 46 47  1  0
 46 48  2  0
 48 49  1  0
 49 50  1  0
 50 51  1  0
 50 52  1  0
 50 53  1  0
 40 12  1  0
 49 43  1  0
 40 15  1  0
 34 25  1  0
M  CHG  2   5  -1  21  -1
M  END
>  <UniqueID>  (50) 
45

>  <SMILES>  (50) 
Cn1ncc(Cl)c1/C=C\C(=O)[N-]CCc1nnc2cc(C(=O)[N-]Cc3ccccc3F)ccn12

>  <Energy>  (50) 
135.30472829901146

>  <Genealogy>  (50) 
Cn1ncc(Cl)c1C=CC(=O)[N-]CCc1nnc2cc(C(=O)[N-]Cc3ccccc3F)ccn12 (protonated)
Cn1ncc(Cl)c1/C=C\C(=O)[N-]CCc1nnc2cc(C(=O)[N-]Cc3ccccc3F)ccn12 (cis-trans isomerization)
Cn1ncc(Cl)c1/C=C\C(=O)[N-]CCc1nnc2cc(C(=O)[N-]Cc3ccccc3F)ccn12 (3D coordinates assigned)
Cn1ncc(Cl)c1/C=C\C(=O)[N-]CCc1nnc2cc(C(=O)[N-]Cc3ccccc3F)ccn12 (optimized conformer: 135.30472829901146 kcal/mol)

>  <smiles>  (50) 
Cn1ncc(Cl)c1C=CC(=O)NCCc1nnc2cc(C(=O)NCc3ccccc3F)ccn12

>  <score_type>  (50) 
oracle

>  <origin>  (50) 
adg

>  <m_score__min__energy>  (50) 
-12.65

>  <m_primary>  (50) 
energy

$$$$
50:0
     RDKit          3D

 53 55  0  0  1  0  0  0  0  0999 V2000
   55.7480   23.7390   44.1070 C   0  0  0  0  0  0  0  0  0  0  0  0
   55.3980   23.3600   45.3270 C   0  0  0  0  0  0  0  0  0  0  0  0
   55.6360   24.1790   46.5470 C   0  0  0  0  0  0  0  0  0  0  0  0
   56.0570   25.5540   46.0920 C   0  0  0  0  0  0  0  0  0  0  0  0
   55.1410   26.4000   46.0100 O   0  0  0  0  0  0  0  0  0  0  0  0
   57.4150   25.8210   45.7850 N   0  0  0  0  0  0  0  0  0  0  0  0
   57.9280   27.0620   45.3520 C   0  0  0  0  0  0  0  0  0  0  0  0
   59.3010   27.2300   45.4080 C   0  0  0  0  0  0  0  0  0  0  0  0
   59.8850   28.4110   45.0070 C   0  0  0  0  0  0  0  0  0  0  0  0
   59.1550   29.4810   44.5340 C   0  0  0  0  0  0  0  0  0  0  0  0
   57.7870   29.3200   44.4770 C   0  0  0  0  0  0  0  0  0  0  0  0
   56.9540   30.4140   43.9900 C   0  0  0  0  0  0  0  0  0  0  0  0
   56.5470   30.3300   42.8060 O   0  0  0  0  0  0  0  0  0  0  0  0
   56.6460   31.5040   44.8530 N   0  0  0  0  0  0  0  0  0  0  0  0
   57.5270   32.2340   45.4190 C   0  0  0  0  0  0  0  0  0  0  0  0
   58.1100   31.8090   46.5960 C   0  0  0  0  0  0  0  0  0  0  0  0
   59.0640   32.5910   47.2110 C   0  0  0  0  0  0  0  0  0  0  0  0
   59.7380   32.2070   48.4800 C   0  0  1  0  0  0  0  0  0  0  0  0
   58.9690   31.1140   49.2010 C   0  0  0  0  0  0  0  0  0  0  0  0
   59.8200   29.8810   49.3890 C   0  0  0  0  0  0  0  0  0  0  0  0
   60.3260   29.3430   48.0680 C   0  0  0  0  0  0  0  0  0  0  0  0
   60.8010   30.4390   47.2780 N   0  0  0  0  0  0  0  0  0  0  0  0
   61.0810   31.6120   48.1140 C   0  0  0  0  0  0  0  0  0  0  0  0
   59.4000   33.7620   46.6360 N   0  0  0  0  0  0  0  0  0  0  0  0
   58.8420   34.2030   45.4790 C   0  0  0  0  0  0  0  0  0  0  0  0
   59.2470   35.5120   44.8760 C   0  0  0  0  0  0  0  0  0  0  0  0
   57.9160   33.4070   44.9130 N   0  0  0  0  0  0  0  0  0  0  0  0
   57.1960   28.1170   44.8860 C   0  0  0  0  0  0  0  0  0  0  0  0
   55.5422   23.0842   43.2474 H   0  0  0  0  0  0  0  0  0  0  0  0
   56.2445   24.7085   43.9535 H   0  0  0  0  0  0  0  0  0  0  0  0
   54.9034   22.3846   45.4453 H   0  0  0  0  0  0  0  0  0  0  0  0
   54.7126   24.2459   47.1410 H   0  0  0  0  0  0  0  0  0  0  0  0
   56.4148   23.7224   47.1755 H   0  0  0  0  0  0  0  0  0  0  0  0
   58.0690   25.0060   45.9000 H   0  0  0  0  0  0  0  0  0  0  0  0
   59.9337   26.4096   45.7776 H   0  0  0  0  0  0  0  0  0  0  0  0
   60.9794   28.5047   45.0665 H   0  0  0  0  0  0  0  0  0  0  0  0
   59.6400   30.4163   44.2179 H   0  0  0  0  0  0  0  0  0  0  0  0
   57.8138   30.8482   47.0422 H   0  0  0  0  0  0  0  0  0  0  0  0
   59.8133   33.0952   49.1245 H   0  0  0  0  0  0  0  0  0  0  0  0
   58.6548   31.4869   50.1870 H   0  0  0  0  0  0  0  0  0  0  0  0
   58.0939   30.8438   48.5918 H   0  0  0  0  0  0  0  0  0  0  0  0
   60.6816   30.1359   50.0236 H   0  0  0  0  0  0  0  0  0  0  0  0
   59.1993   29.1046   49.8601 H   0  0  0  0  0  0  0  0  0  0  0  0
   61.1467   28.6329   48.2474 H   0  0  0  0  0  0  0  0  0  0  0  0
   59.5135   28.8236   47.5387 H   0  0  0  0  0  0  0  0  0  0  0  0
   61.6690   30.1840   46.7360 H   0  0  0  0  0  0  0  0  0  0  0  0
   61.6239   31.3110   49.0221 H   0  0  0  0  0  0  0  0  0  0  0  0
   61.7079   32.3414   47.5802 H   0  0  0  0  0  0  0  0  0  0  0  0
   59.4697   36.2317   45.6775 H   0  0  0  0  0  0  0  0  0  0  0  0
   60.1425   35.3676   44.2537 H   0  0  0  0  0  0  0  0  0  0  0  0
   58.4264   35.8985   44.2537 H   0  0  0  0  0  0  0  0  0  0  0  0
   57.4710   33.7190   44.0250 H   0  0  0  0  0  0  0  0  0  0  0  0
   56.1019   28.0186   44.8297 H   0  0  0  0  0  0  0  0  0  0  0  0
  1  2  2  0
  2  3  1  0
  3  4  1  0
  4  5  2  0
  4  6  1  0
  6  7  1  0
  7  8  2  0
  8  9  1  0
  9 10  2  0
 10 11  1  0
 11 12  1  0
 12 13  2  0
 12 14  1  0
 14 15  2  0
 15 16  1  0
 16 17  2  0
 17 18  1  0
 18 19  1  0
 19 20  1  0
 20 21  1  0
 21 22  1  0
 22 23  1  0
 17 24  1  0
 24 25  2  0
 25 26  1  0
 25 27  1  0
 11 28  2  0
 28  7  1  0
 27 15  1  0
 23 18  1  0
  1 29  1  0
  1 30  1  0
  2 31  1  0
  3 32  1  0
  3 33  1  0
  6 34  1  0
  8 35  1  0
  9 36  1  0
 10 37  1  0
 16 38  1  0
 18 39  1  1
 19 40  1  0
 19 41  1  0
 20 42  1  0
 20 43  1  0
 21 44  1  0
 21 45  1  0
 22 46  1  0
 23 47  1  0
 23 48  1  0
 26 49  1  0
 26 50  1  0
 26 51  1  0
 27 52  1  0
 28 53  1  0
M  END
>  <smiles>  (51) 
C=CCC(=O)Nc1cccc(C(=O)N=c2cc(C3CCCNC3)nc(C)[nH]2)c1

>  <score_type>  (51) 
oracle

>  <origin>  (51) 
adg

>  <m_score__min__energy>  (51) 
-9.4100000000000001

>  <m_primary>  (51) 
energy

$$$$
51:0
     RDKit          3D

 54 56  0  0  0  0  0  0  0  0999 V2000
   66.7210   32.7810   50.1570 C   0  0  0  0  0  0  0  0  0  0  0  0
   65.3530   32.4810   50.4070 O   0  0  0  0  0  0  0  0  0  0  0  0
   64.2910   32.8830   49.5820 C   0  0  0  0  0  0  0  0  0  0  0  0
   64.1020   32.3650   48.2870 C   0  0  0  0  0  0  0  0  0  0  0  0
   63.0270   32.7970   47.5040 C   0  0  0  0  0  0  0  0  0  0  0  0
   62.1150   33.7420   48.0070 C   0  0  0  0  0  0  0  0  0  0  0  0
   61.0210   34.2250   47.2100 N   0  0  0  0  0  0  0  0  0  0  0  0
   59.6560   34.2610   47.6530 C   0  0  0  0  0  0  0  0  0  0  0  0
   59.3820   34.2590   48.8850 O   0  0  0  0  0  0  0  0  0  0  0  0
   58.5470   34.3560   46.6480 C   0  0  0  0  0  0  0  0  0  0  0  0
   58.0730   33.0100   46.2730 N   0  0  0  0  0  0  0  0  0  0  0  0
   57.0370   33.0740   45.2110 C   0  0  0  0  0  0  0  0  0  0  0  0
   56.8450   31.7360   44.4620 C   0  0  0  0  0  0  0  0  0  0  0  0
   57.3730   30.6020   45.2350 N   0  0  0  0  0  0  0  0  0  0  0  0
   56.6560   29.3550   45.3050 C   0  0  0  0  0  0  0  0  0  0  0  0
   55.5640   29.2120   44.6900 O   0  0  0  0  0  0  0  0  0  0  0  0
   57.1870   28.2640   46.0680 N   0  0  0  0  0  0  0  0  0  0  0  0
   57.0860   26.8870   45.6870 C   0  0  0  0  0  0  0  0  0  0  0  0
   56.3240   26.0250   46.4880 C   0  0  0  0  0  0  0  0  0  0  0  0
   56.1840   24.6770   46.1460 C   0  0  0  0  0  0  0  0  0  0  0  0
   56.7890   24.1840   44.9880 C   0  0  0  0  0  0  0  0  0  0  0  0
   57.5230   25.0390   44.1620 C   0  0  0  0  0  0  0  0  0  0  0  0
   57.6690   26.3930   44.4950 C   0  0  0  0  0  0  0  0  0  0  0  0
   58.5400   27.4680   43.3420 S   0  0  0  0  0  0  0  0  0  0  0  0
   59.7640   28.0110   44.5740 C   0  0  0  0  0  0  0  0  0  0  0  0
   58.7080   30.7010   45.8410 C   0  0  0  0  0  0  0  0  0  0  0  0
   59.1950   32.1500   45.8670 C   0  0  0  0  0  0  0  0  0  0  0  0
   62.3200   34.2710   49.2880 C   0  0  0  0  0  0  0  0  0  0  0  0
   63.3950   33.8390   50.0710 C   0  0  0  0  0  0  0  0  0  0  0  0
   67.2516   32.8974   51.1135 H   0  0  0  0  0  0  0  0  0  0  0  0
   67.1770   31.9615   49.5821 H   0  0  0  0  0  0  0  0  0  0  0  0
   66.7922   33.7161   49.5821 H   0  0  0  0  0  0  0  0  0  0  0  0
   64.8033   31.6168   47.8890 H   0  0  0  0  0  0  0  0  0  0  0  0
   62.8939   32.3953   46.4887 H   0  0  0  0  0  0  0  0  0  0  0  0
   61.2310   34.5930   46.2540 H   0  0  0  0  0  0  0  0  0  0  0  0
   57.7124   34.9257   47.0826 H   0  0  0  0  0  0  0  0  0  0  0  0
   58.9247   34.8637   45.7482 H   0  0  0  0  0  0  0  0  0  0  0  0
   56.0796   33.3554   45.6739 H   0  0  0  0  0  0  0  0  0  0  0  0
   57.3741   33.8155   44.4717 H   0  0  0  0  0  0  0  0  0  0  0  0
   55.7711   31.5775   44.2840 H   0  0  0  0  0  0  0  0  0  0  0  0
   57.3968   31.7914   43.5120 H   0  0  0  0  0  0  0  0  0  0  0  0
   55.8325   26.4125   47.3926 H   0  0  0  0  0  0  0  0  0  0  0  0
   55.5973   24.0045   46.7890 H   0  0  0  0  0  0  0  0  0  0  0  0
   56.6875   23.1206   44.7257 H   0  0  0  0  0  0  0  0  0  0  0  0
   57.9888   24.6477   43.2455 H   0  0  0  0  0  0  0  0  0  0  0  0
   59.3688   27.8357   45.5855 H   0  0  0  0  0  0  0  0  0  0  0  0
   60.6958   27.4418   44.4407 H   0  0  0  0  0  0  0  0  0  0  0  0
   59.9674   29.0838   44.4407 H   0  0  0  0  0  0  0  0  0  0  0  0
   58.6640   30.3183   46.8713 H   0  0  0  0  0  0  0  0  0  0  0  0
   59.4104   30.1073   45.2375 H   0  0  0  0  0  0  0  0  0  0  0  0
   60.0203   32.2516   46.5871 H   0  0  0  0  0  0  0  0  0  0  0  0
   59.5560   32.4452   44.8707 H   0  0  0  0  0  0  0  0  0  0  0  0
   61.6299   35.0322   49.6809 H   0  0  0  0  0  0  0  0  0  0  0  0
   63.5370   34.2544   51.0796 H   0  0  0  0  0  0  0  0  0  0  0  0
  1  2  1  0
  2  3  1  0
  3  4  2  0
  4  5  1  0
  5  6  2  0
  6  7  1  0
  7  8  1  0
  8  9  2  0
  8 10  1  0
 10 11  1  0
 11 12  1  0
 12 13  1  0
 13 14  1  0
 14 15  1  0
 15 16  2  0
 15 17  1  0
 17 18  1  0
 18 19  2  0
 19 20  1  0
 20 21  2  0
 21 22  1  0
 22 23  2  0
 23 24  1  0
 24 25  1  0
 14 26  1  0
 26 27  1  0
  6 28  1  0
 28 29  2  0
 29  3  1  0
 27 11  1  0
 23 18  1  0
  1 30  1  0
  1 31  1  0
  1 32  1  0
  4 33  1  0
  5 34  1  0
  7 35  1  0
 10 36  1  0
 10 37  1  0
 12 38  1  0
 12 39  1  0
 13 40  1  0
 13 41  1  0
 19 42  1  0
 20 43  1  0
 21 44  1  0
 22 45  1  0
 25 46  1  0
 25 47  1  0
 25 48  1  0
 26 49  1  0
 26 50  1  0
 27 51  1  0
 27 52  1  0
 28 53  1  0
 29 54  1  0
M  CHG  1  17  -1
M  END
>  <UniqueID>  (52) 
46

>  <SMILES>  (52) 
COc1ccc(NC(=O)CN2CCN(C(=O)[N-]c3ccccc3SC)CC2)cc1

>  <Energy>  (52) 
64.38276662793848

>  <Genealogy>  (52) 
COc1ccc(NC(=O)CN2CCN(C(=O)[N-]c3ccccc3SC)CC2)cc1 (protonated)
COc1ccc(NC(=O)CN2CCN(C(=O)[N-]c3ccccc3SC)CC2)cc1 (3D coordinates assigned)
COc1ccc(NC(=O)CN2CCN(C(=O)[N-]c3ccccc3SC)CC2)cc1 (nonaromatic ring conformer: 64.38276662793848 kcal/mol)

>  <smiles>  (52) 
COc1ccc(NC(=O)CN2CCN(C(=O)Nc3ccccc3SC)CC2)cc1

>  <score_type>  (52) 
oracle

>  <origin>  (52) 
adg

>  <m_score__min__energy>  (52) 
-9.8399999999999999

>  <m_primary>  (52) 
energy

$$$$
52:0
     RDKit          3D

 45 48  0  0  0  0  0  0  0  0999 V2000
   54.4700   30.0640   45.1800 H   0  0  0  0  0  0  0  0  0  0  0  0
   55.3730   30.4330   44.8060 N   0  0  0  0  0  0  0  0  0  0  0  0
   56.4650   29.7390   44.8640 C   0  0  0  0  0  0  0  0  0  0  0  0
   56.4060   28.4190   45.1940 N   0  0  0  0  0  0  0  0  0  0  0  0
   57.5180   27.6400   45.2490 C   0  0  0  0  0  0  0  0  0  0  0  0
   57.4323   26.5790   45.5265 H   0  0  0  0  0  0  0  0  0  0  0  0
   58.7680   28.1840   44.9540 C   0  0  0  0  0  0  0  0  0  0  0  0
   59.6704   27.5562   44.9929 H   0  0  0  0  0  0  0  0  0  0  0  0
   58.8620   29.5330   44.6090 C   0  0  0  0  0  0  0  0  0  0  0  0
   59.8416   29.9696   44.3646 H   0  0  0  0  0  0  0  0  0  0  0  0
   57.7120   30.3330   44.5730 C   0  0  0  0  0  0  0  0  0  0  0  0
   57.8460   31.7690   44.2290 C   0  0  0  0  0  0  0  0  0  0  0  0
   58.5190   32.0600   43.2010 O   0  0  0  0  0  0  0  0  0  0  0  0
   57.1740   32.8150   44.9930 N   0  0  1  0  0  0  0  0  0  0  0  0
   56.1460   32.7050   44.8290 H   0  0  0  0  0  0  0  0  0  0  0  0
   57.4110   32.7040   46.4510 C   0  0  0  0  0  0  0  0  0  0  0  0
   57.1575   31.6840   46.7756 H   0  0  0  0  0  0  0  0  0  0  0  0
   56.7799   33.4501   46.9561 H   0  0  0  0  0  0  0  0  0  0  0  0
   58.8520   32.9880   46.8130 C   0  0  0  0  0  0  0  0  0  0  0  0
   59.4230   32.4170   47.9710 C   0  0  0  0  0  0  0  0  0  0  0  0
   58.6490   31.5320   48.7430 O   0  0  0  0  0  0  0  0  0  0  0  0
   59.0790   30.2690   49.2480 C   0  0  0  0  0  0  0  0  0  0  0  0
   60.0207   30.4005   49.8010 H   0  0  0  0  0  0  0  0  0  0  0  0
   58.3034   29.8672   49.9166 H   0  0  0  0  0  0  0  0  0  0  0  0
   59.3030   29.2840   48.0930 C   0  0  0  0  0  0  0  0  0  0  0  0
   58.2740   29.3368   47.7079 H   0  0  0  0  0  0  0  0  0  0  0  0
   60.2900   28.1610   48.3740 C   0  0  0  0  0  0  0  0  0  0  0  0
   60.7387   28.0602   49.3732 H   0  0  0  0  0  0  0  0  0  0  0  0
   60.2724   27.0659   48.2716 H   0  0  0  0  0  0  0  0  0  0  0  0
   60.6910   29.3200   47.4730 C   0  0  0  0  0  0  0  0  0  0  0  0
   61.4298   30.0570   47.8209 H   0  0  0  0  0  0  0  0  0  0  0  0
   61.0835   29.4097   46.4493 H   0  0  0  0  0  0  0  0  0  0  0  0
   60.7510   32.7410   48.3130 C   0  0  0  0  0  0  0  0  0  0  0  0
   61.2110   32.2888   49.2040 H   0  0  0  0  0  0  0  0  0  0  0  0
   61.4860   33.6300   47.5310 C   0  0  0  0  0  0  0  0  0  0  0  0
   62.5201   33.8797   47.8106 H   0  0  0  0  0  0  0  0  0  0  0  0
   60.9160   34.2040   46.3960 C   0  0  0  0  0  0  0  0  0  0  0  0
   61.5045   34.9012   45.7815 H   0  0  0  0  0  0  0  0  0  0  0  0
   59.5970   33.8980   46.0330 C   0  0  0  0  0  0  0  0  0  0  0  0
   59.0390   34.4870   44.7600 C   0  0  0  0  0  0  0  0  0  0  0  0
   59.6041   34.0781   43.9095 H   0  0  0  0  0  0  0  0  0  0  0  0
   59.1373   35.5799   44.8372 H   0  0  0  0  0  0  0  0  0  0  0  0
   57.5430   34.1780   44.5470 C   0  0  0  0  0  0  0  0  0  0  0  0
   57.3128   34.2725   43.4755 H   0  0  0  0  0  0  0  0  0  0  0  0
   56.9657   34.8938   45.1506 H   0  0  0  0  0  0  0  0  0  0  0  0
  1  2  1  0
  2  3  2  0
  3  4  1  0
  4  5  1  0
  5  6  1  0
  5  7  2  0
  7  8  1  0
  7  9  1  0
  9 10  1  0
  9 11  2  0
 11 12  1  0
 12 13  2  0
 12 14  1  0
 14 15  1  1
 14 16  1  0
 16 17  1  0
 16 18  1  0
 16 19  1  0
 19 20  2  0
 20 21  1  0
 21 22  1  0
 22 23  1  0
 22 24  1  0
 22 25  1  0
 25 26  1  0
 25 27  1  0
 27 28  1  0
 27 29  1  0
 27 30  1  0
 30 31  1  0
 30 32  1  0
 20 33  1  0
 33 34  1  0
 33 35  2  0
 35 36  1  0
 35 37  1  0
 37 38  1  0
 37 39  2  0
 39 40  1  0
 40 41  1  0
 40 42  1  0
 40 43  1  0
 43 44  1  0
 43 45  1  0
 11  3  1  0
 43 14  1  0
 39 19  1  0
 30 25  1  0
M  CHG  2   4  -1  14   1
M  END
>  <UniqueID>  (53) 
47

>  <SMILES>  (53) 
[H]/N=c1\[n-]cccc1C(=O)[N@@H+]1CCc2cccc(OCC3CC3)c2C1

>  <Energy>  (53) 
327.9140331055924

>  <Genealogy>  (53) 
N=c1[n-]cccc1C(=O)[NH+]1CCc2cccc(OCC3CC3)c2C1 (protonated)
N=c1[n-]cccc1C(=O)[N@@H+]1CCc2cccc(OCC3CC3)c2C1 (chirality)
[H]/N=c1\[n-]cccc1C(=O)[N@@H+]1CCc2cccc(OCC3CC3)c2C1 (cis-trans isomerization)
[H]/N=c1\[n-]cccc1C(=O)[N@@H+]1CCc2cccc(OCC3CC3)c2C1 (3D coordinates assigned)
[H]/N=c1\[n-]cccc1C(=O)[N@@H+]1CCc2cccc(OCC3CC3)c2C1 (nonaromatic ring conformer: 327.9140331055924 kcal/mol)

>  <smiles>  (53) 
N=c1[nH]cccc1C(=O)N1CCc2cccc(OCC3CC3)c2C1

>  <score_type>  (53) 
oracle

>  <origin>  (53) 
adg

>  <m_score__min__energy>  (53) 
-8.0999999999999996

>  <m_primary>  (53) 
energy

$$$$
53:0
     RDKit          3D

 65 68  0  0  0  0  0  0  0  0999 V2000
   54.0170   26.3240   46.3740 H   0  0  0  0  0  0  0  0  0  0  0  0
   54.9320   26.3690   45.9440 O   0  0  0  0  0  0  0  0  0  0  0  0
   55.9160   25.4230   46.2230 C   0  0  0  0  0  0  0  0  0  0  0  0
   55.7390   24.4130   47.0890 N   0  0  0  0  0  0  0  0  0  0  0  0
   56.8960   23.7260   46.9910 C   0  0  0  0  0  0  0  0  0  0  0  0
   57.1190   22.6780   47.6510 O   0  0  0  0  0  0  0  0  0  0  0  0
   57.7880   24.2410   46.1190 N   0  0  0  0  0  0  0  0  0  0  0  0
   57.1720   25.3420   45.6530 C   0  0  0  0  0  0  0  0  0  0  0  0
   57.7230   26.1810   44.5770 C   0  0  0  0  0  0  0  0  0  0  0  0
   57.7219   25.7569   43.5620 H   0  0  0  0  0  0  0  0  0  0  0  0
   58.2290   27.4220   44.7220 C   0  0  0  0  0  0  0  0  0  0  0  0
   57.6580   28.5280   44.1200 C   0  0  0  0  0  0  0  0  0  0  0  0
   56.8042   28.5288   43.4264 H   0  0  0  0  0  0  0  0  0  0  0  0
   58.3630   29.6290   44.5550 C   0  0  0  0  0  0  0  0  0  0  0  0
   58.0720   31.0340   44.1190 C   0  0  0  0  0  0  0  0  0  0  0  0
   57.9397   31.6728   45.0047 H   0  0  0  0  0  0  0  0  0  0  0  0
   58.9109   31.4121   43.5162 H   0  0  0  0  0  0  0  0  0  0  0  0
   57.1519   31.0478   43.5162 H   0  0  0  0  0  0  0  0  0  0  0  0
   59.3770   29.2560   45.3720 N   0  0  0  0  0  0  0  0  0  0  0  0
   60.3540   30.1730   45.9850 C   0  0  0  0  0  0  0  0  0  0  0  0
   61.3613   29.7414   45.8896 H   0  0  0  0  0  0  0  0  0  0  0  0
   60.2988   31.1415   45.4663 H   0  0  0  0  0  0  0  0  0  0  0  0
   60.0480   30.3920   47.4440 C   0  0  0  0  0  0  0  0  0  0  0  0
   60.8860   31.1860   48.2410 C   0  0  0  0  0  0  0  0  0  0  0  0
   61.7732   31.6619   47.7979 H   0  0  0  0  0  0  0  0  0  0  0  0
   60.6060   31.3700   49.5600 N   0  0  0  0  0  0  0  0  0  0  0  0
   59.5140   30.8140   50.1520 C   0  0  0  0  0  0  0  0  0  0  0  0
   59.2850   31.0380   51.5940 C   0  0  0  0  0  0  0  0  0  0  0  0
   60.2630   31.3380   52.3300 O   0  0  0  0  0  0  0  0  0  0  0  0
   57.9770   30.9030   52.1770 N   0  0  0  0  0  0  0  0  0  0  0  0
   57.8480   30.2490   53.4830 C   0  0  0  0  0  0  0  0  0  0  0  0
   58.3715   29.2820   53.4545 H   0  0  0  0  0  0  0  0  0  0  0  0
   58.2902   30.9037   54.2484 H   0  0  0  0  0  0  0  0  0  0  0  0
   56.3770   30.0120   53.8340 C   0  0  0  0  0  0  0  0  0  0  0  0
   56.2988   29.1848   54.5548 H   0  0  0  0  0  0  0  0  0  0  0  0
   55.9508   30.9224   54.2806 H   0  0  0  0  0  0  0  0  0  0  0  0
   55.6380   29.6680   52.6050 N   0  0  0  0  0  0  0  0  0  0  0  0
   54.3060   29.1270   52.9420 C   0  0  0  0  0  0  0  0  0  0  0  0
   53.9808   28.4456   52.1420 H   0  0  0  0  0  0  0  0  0  0  0  0
   54.3763   28.5891   53.8989 H   0  0  0  0  0  0  0  0  0  0  0  0
   53.2950   30.2390   53.0860 C   0  0  0  0  0  0  0  0  0  0  0  0
   53.2100   30.8170   54.2050 O   0  0  0  0  0  0  0  0  0  0  0  0
   52.4310   30.6570   52.0010 N   0  0  0  0  0  0  0  0  0  0  0  0
   51.4270   31.6940   52.2600 C   0  0  0  0  0  0  0  0  0  0  0  0
   51.3034   31.8217   53.3455 H   0  0  0  0  0  0  0  0  0  0  0  0
   51.7575   32.6438   51.8144 H   0  0  0  0  0  0  0  0  0  0  0  0
   50.4670   31.3944   51.8144 H   0  0  0  0  0  0  0  0  0  0  0  0
   52.5500   30.0730   50.6610 C   0  0  0  0  0  0  0  0  0  0  0  0
   52.7689   28.9985   50.7474 H   0  0  0  0  0  0  0  0  0  0  0  0
   51.6051   30.2119   50.1152 H   0  0  0  0  0  0  0  0  0  0  0  0
   53.3652   30.5706   50.1152 H   0  0  0  0  0  0  0  0  0  0  0  0
   55.5300   30.8520   51.7180 C   0  0  0  0  0  0  0  0  0  0  0  0
   55.2637   30.5098   50.7070 H   0  0  0  0  0  0  0  0  0  0  0  0
   54.7604   31.5131   52.1429 H   0  0  0  0  0  0  0  0  0  0  0  0
   56.8420   31.6630   51.6340 C   0  0  0  0  0  0  0  0  0  0  0  0
   57.0454   31.9068   50.5808 H   0  0  0  0  0  0  0  0  0  0  0  0
   56.7217   32.5796   52.2302 H   0  0  0  0  0  0  0  0  0  0  0  0
   58.6560   30.0060   49.3920 C   0  0  0  0  0  0  0  0  0  0  0  0
   57.7776   29.5377   49.8600 H   0  0  0  0  0  0  0  0  0  0  0  0
   58.9240   29.8000   48.0380 C   0  0  0  0  0  0  0  0  0  0  0  0
   58.2519   29.1717   47.4351 H   0  0  0  0  0  0  0  0  0  0  0  0
   59.3280   27.8970   45.4600 C   0  0  0  0  0  0  0  0  0  0  0  0
   60.2650   27.1490   46.0680 C   0  0  0  0  0  0  0  0  0  0  0  0
   61.0834   27.6344   46.6200 H   0  0  0  0  0  0  0  0  0  0  0  0
   60.2133   26.0516   46.0135 H   0  0  0  0  0  0  0  0  0  0  0  0
  1  2  1  0
  2  3  1  0
  3  4  1  0
  4  5  1  0
  5  6  2  0
  5  7  1  0
  7  8  1  0
  8  9  1  0
  9 10  1  0
  9 11  2  0
 11 12  1  0
 12 13  1  0
 12 14  2  0
 14 15  1  0
 15 16  1  0
 15 17  1  0
 15 18  1  0
 14 19  1  0
 19 20  1  0
 20 21  1  0
 20 22  1  0
 20 23  1  0
 23 24  2  0
 24 25  1  0
 24 26  1  0
 26 27  2  0
 27 28  1  0
 28 29  2  0
 28 30  1  0
 30 31  1  0
 31 32  1  0
 31 33  1  0
 31 34  1  0
 34 35  1  0
 34 36  1  0
 34 37  1  0
 37 38  1  0
 38 39  1  0
 38 40  1  0
 38 41  1  0
 41 42  2  0
 41 43  1  0
 43 44  1  0
 44 45  1  0
 44 46  1  0
 44 47  1  0
 43 48  1  0
 48 49  1  0
 48 50  1  0
 48 51  1  0
 37 52  1  0
 52 53  1  0
 52 54  1  0
 52 55  1  0
 55 56  1  0
 55 57  1  0
 27 58  1  0
 58 59  1  0
 58 60  2  0
 60 61  1  0
 19 62  1  0
 62 63  2  0
 63 64  1  0
 63 65  1  0
  8  3  2  0
 62 11  1  0
 60 23  1  0
 55 30  1  0
M  CHG  2   4  -1   7  -1
M  END
>  <UniqueID>  (54) 
48

>  <SMILES>  (54) 
C=c1/c(=C\c2[n-]c(=O)[n-]c2O)cc(C)n1Cc1ccc(C(=O)N2CCN(CC(=O)N(C)C)CC2)nc1

>  <Energy>  (54) 
144.51481665519523

>  <Genealogy>  (54) 
C=c1c(=Cc2[n-]c(=O)[n-]c2O)cc(C)n1Cc1ccc(C(=O)N2CCN(CC(=O)N(C)C)CC2)nc1 (protonated)
C=c1/c(=C\c2[n-]c(=O)[n-]c2O)cc(C)n1Cc1ccc(C(=O)N2CCN(CC(=O)N(C)C)CC2)nc1 (cis-trans isomerization)
C=c1/c(=C\c2[n-]c(=O)[n-]c2O)cc(C)n1Cc1ccc(C(=O)N2CCN(CC(=O)N(C)C)CC2)nc1 (3D coordinates assigned)
C=c1/c(=C\c2[n-]c(=O)[n-]c2O)cc(C)n1Cc1ccc(C(=O)N2CCN(CC(=O)N(C)C)CC2)nc1 (nonaromatic ring conformer: 144.51481665519523 kcal/mol)

>  <smiles>  (54) 
C=c1c(=Cc2[nH]c(=O)[nH]c2O)cc(C)n1Cc1ccc(C(=O)N2CCN(CC(=O)N(C)C)CC2)nc1

>  <score_type>  (54) 
oracle

>  <origin>  (54) 
adg

>  <m_score__min__energy>  (54) 
-15.24

>  <m_primary>  (54) 
energy

$$$$
54:0
     RDKit          3D

 45 48  0  0  0  0  0  0  0  0999 V2000
   60.9280   29.3042   48.6072 H   0  0  0  0  0  0  0  0  0  0  0  0
   60.5490   29.9830   47.8290 C   0  0  0  0  0  0  0  0  0  0  0  0
   60.7040   31.3000   48.0310 C   0  0  0  0  0  0  0  0  0  0  0  0
   62.1510   32.1590   47.4590 S   0  0  0  0  0  0  0  0  0  0  0  0
   61.7100   33.4280   48.6510 C   0  0  0  0  0  0  0  0  0  0  0  0
   62.5590   34.1890   49.0910 O   0  0  0  0  0  0  0  0  0  0  0  0
   60.3540   33.4630   49.1380 N   0  0  1  0  0  0  0  0  0  0  0  0
   60.3730   33.5240   50.1830 H   0  0  0  0  0  0  0  0  0  0  0  0
   59.6270   34.6030   48.5380 C   0  0  0  0  0  0  0  0  0  0  0  0
   58.8110   34.9015   49.2125 H   0  0  0  0  0  0  0  0  0  0  0  0
   60.3385   35.4296   48.3949 H   0  0  0  0  0  0  0  0  0  0  0  0
   59.0430   34.2400   47.1900 C   0  0  0  0  0  0  0  0  0  0  0  0
   57.7000   33.8370   47.1010 C   0  0  0  0  0  0  0  0  0  0  0  0
   57.0713   33.8258   48.0036 H   0  0  0  0  0  0  0  0  0  0  0  0
   57.1580   33.4500   45.8710 C   0  0  0  0  0  0  0  0  0  0  0  0
   56.1068   33.1318   45.8098 H   0  0  0  0  0  0  0  0  0  0  0  0
   57.9490   33.4670   44.7210 C   0  0  0  0  0  0  0  0  0  0  0  0
   57.5215   33.1606   43.7549 H   0  0  0  0  0  0  0  0  0  0  0  0
   59.2830   33.8730   44.7970 C   0  0  0  0  0  0  0  0  0  0  0  0
   59.9036   33.8875   43.8889 H   0  0  0  0  0  0  0  0  0  0  0  0
   59.8330   34.2610   46.0220 C   0  0  0  0  0  0  0  0  0  0  0  0
   61.1360   34.6380   46.0730 F   0  0  0  0  0  0  0  0  0  0  0  0
   59.7980   32.1970   48.7470 C   0  0  0  0  0  0  0  0  0  0  0  0
   58.6010   31.8950   48.9990 O   0  0  0  0  0  0  0  0  0  0  0  0
   59.9100   29.3700   46.6450 C   0  0  0  0  0  0  0  0  0  0  0  0
   60.7230   28.9010   45.6050 C   0  0  0  0  0  0  0  0  0  0  0  0
   61.8114   29.0536   45.6506 H   0  0  0  0  0  0  0  0  0  0  0  0
   60.1600   28.2410   44.5110 C   0  0  0  0  0  0  0  0  0  0  0  0
   60.8038   27.8889   43.6916 H   0  0  0  0  0  0  0  0  0  0  0  0
   58.7810   28.0270   44.4550 C   0  0  0  0  0  0  0  0  0  0  0  0
   58.3439   27.4988   43.5948 H   0  0  0  0  0  0  0  0  0  0  0  0
   57.9500   28.4820   45.4900 C   0  0  0  0  0  0  0  0  0  0  0  0
   56.5000   28.1940   45.4390 C   0  0  0  0  0  0  0  0  0  0  0  0
   56.1010   27.0250   45.6860 O   0  0  0  0  0  0  0  0  0  0  0  0
   55.5310   29.1880   45.0900 N   0  0  0  0  0  0  0  0  0  0  0  0
   55.4810   29.8820   43.8100 C   0  0  0  0  0  0  0  0  0  0  0  0
   54.3938   30.0418   43.7613 H   0  0  0  0  0  0  0  0  0  0  0  0
   56.5330   29.4200   42.8170 C   0  0  0  0  0  0  0  0  0  0  0  0
   57.1655   28.5508   43.0503 H   0  0  0  0  0  0  0  0  0  0  0  0
   56.5272   29.1309   41.7557 H   0  0  0  0  0  0  0  0  0  0  0  0
   56.7230   30.7220   43.5740 C   0  0  0  0  0  0  0  0  0  0  0  0
   57.4934   30.7963   44.3557 H   0  0  0  0  0  0  0  0  0  0  0  0
   56.9121   31.7672   43.2882 H   0  0  0  0  0  0  0  0  0  0  0  0
   58.5220   29.1380   46.5950 C   0  0  0  0  0  0  0  0  0  0  0  0
   57.8815   29.4716   47.4247 H   0  0  0  0  0  0  0  0  0  0  0  0
  1  2  1  0
  2  3  2  0
  3  4  1  0
  4  5  1  0
  5  6  2  0
  5  7  1  0
  7  8  1  1
  7  9  1  0
  9 10  1  0
  9 11  1  0
  9 12  1  0
 12 13  2  0
 13 14  1  0
 13 15  1  0
 15 16  1  0
 15 17  2  0
 17 18  1  0
 17 19  1  0
 19 20  1  0
 19 21  2  0
 21 22  1  0
  7 23  1  0
 23 24  2  0
  2 25  1  0
 25 26  2  0
 26 27  1  0
 26 28  1  0
 28 29  1  0
 28 30  2  0
 30 31  1  0
 30 32  1  0
 32 33  1  0
 33 34  2  0
 33 35  1  0
 35 36  1  0
 36 37  1  0
 36 38  1  0
 38 39  1  0
 38 40  1  0
 38 41  1  0
 41 42  1  0
 41 43  1  0
 32 44  2  0
 44 45  1  0
 23  3  1  0
 44 25  1  0
 21 12  1  0
 41 36  1  0
M  CHG  2   7   1  35  -1
M  END
>  <UniqueID>  (55) 
49

>  <SMILES>  (55) 
O=C([N-]C1CC1)c1cccc(/C=C2/SC(=O)[N@@H+](Cc3ccccc3F)C2=O)c1

>  <Energy>  (55) 
338.14882493539

>  <Genealogy>  (55) 
O=C([N-]C1CC1)c1cccc(C=C2SC(=O)[NH+](Cc3ccccc3F)C2=O)c1 (protonated)
O=C([N-]C1CC1)c1cccc(C=C2SC(=O)[N@@H+](Cc3ccccc3F)C2=O)c1 (chirality)
O=C([N-]C1CC1)c1cccc(/C=C2/SC(=O)[N@@H+](Cc3ccccc3F)C2=O)c1 (cis-trans isomerization)
O=C([N-]C1CC1)c1cccc(/C=C2/SC(=O)[N@@H+](Cc3ccccc3F)C2=O)c1 (3D coordinates assigned)
O=C([N-]C1CC1)c1cccc(/C=C2/SC(=O)[N@@H+](Cc3ccccc3F)C2=O)c1 (nonaromatic ring conformer: 338.14882493539 kcal/mol)

>  <smiles>  (55) 
O=C(NC1CC1)c1cccc(C=C2SC(=O)N(Cc3ccccc3F)C2=O)c1

>  <score_type>  (55) 
oracle

>  <origin>  (55) 
adg

>  <m_score__min__energy>  (55) 
-10.449999999999999

>  <m_primary>  (55) 
energy

$$$$
55:0
     RDKit          3D

 33 35  0  0  0  0  0  0  0  0999 V2000
   55.8417   31.1806   43.6872 H   0  0  0  0  0  0  0  0  0  0  0  0
   55.9310   30.0900   43.7990 C   0  0  0  0  0  0  0  0  0  0  0  0
   55.3250   29.4212   43.1702 H   0  0  0  0  0  0  0  0  0  0  0  0
   56.7750   29.5780   44.6980 C   0  0  0  0  0  0  0  0  0  0  0  0
   57.5850   30.2850   45.5840 C   0  0  0  0  0  0  0  0  0  0  0  0
   57.7840   31.7490   45.6800 C   0  0  0  0  0  0  0  0  0  0  0  0
   57.0180   32.5180   45.0370 O   0  0  0  0  0  0  0  0  0  0  0  0
   58.8890   32.3350   46.4780 C   0  0  0  0  0  0  0  0  0  0  0  0
   58.6450   33.4410   47.3130 C   0  0  0  0  0  0  0  0  0  0  0  0
   57.6343   33.8718   47.3670 H   0  0  0  0  0  0  0  0  0  0  0  0
   59.6770   33.9960   48.0740 C   0  0  0  0  0  0  0  0  0  0  0  0
   59.4781   34.8656   48.7175 H   0  0  0  0  0  0  0  0  0  0  0  0
   60.9620   33.4480   48.0190 C   0  0  0  0  0  0  0  0  0  0  0  0
   62.3720   34.2080   49.0600 Br  0  0  0  0  0  0  0  0  0  0  0  0
   61.2130   32.3400   47.2050 C   0  0  0  0  0  0  0  0  0  0  0  0
   62.2233   31.9069   47.1639 H   0  0  0  0  0  0  0  0  0  0  0  0
   60.1830   31.7810   46.4430 C   0  0  0  0  0  0  0  0  0  0  0  0
   60.3847   30.9028   45.8121 H   0  0  0  0  0  0  0  0  0  0  0  0
   58.2610   29.3350   46.3310 C   0  0  0  0  0  0  0  0  0  0  0  0
   58.9994   29.5254   47.1238 H   0  0  0  0  0  0  0  0  0  0  0  0
   57.8250   28.0960   45.8840 C   0  0  0  0  0  0  0  0  0  0  0  0
   58.2350   26.8930   46.3140 C   0  0  0  0  0  0  0  0  0  0  0  0
   59.3149   26.7378   46.4542 H   0  0  0  0  0  0  0  0  0  0  0  0
   57.3320   25.7650   46.6110 C   0  0  0  0  0  0  0  0  0  0  0  0
   55.9640   25.6980   46.4320 C   0  0  0  0  0  0  0  0  0  0  0  0
   55.1490   26.7170   45.9560 O   0  0  0  0  0  0  0  0  0  0  0  0
   55.5090   24.4660   46.7360 N   0  0  0  0  0  0  0  0  0  0  0  0
   56.6370   23.8060   47.0760 C   0  0  0  0  0  0  0  0  0  0  0  0
   56.6410   22.5970   47.4270 O   0  0  0  0  0  0  0  0  0  0  0  0
   57.7560   24.5520   46.9980 N   0  0  0  0  0  0  0  0  0  0  0  0
   58.7380   24.2510   47.1930 H   0  0  0  0  0  0  0  0  0  0  0  0
   56.9320   28.2530   44.8850 N   0  0  0  0  0  0  0  0  0  0  0  0
   56.4470   27.4880   44.3600 H   0  0  0  0  0  0  0  0  0  0  0  0
  1  2  1  0
  2  3  1  0
  2  4  2  0
  4  5  1  0
  5  6  1  0
  6  7  2  0
  6  8  1  0
  8  9  2  0
  9 10  1  0
  9 11  1  0
 11 12  1  0
 11 13  2  0
 13 14  1  0
 13 15  1  0
 15 16  1  0
 15 17  2  0
 17 18  1  0
  5 19  2  0
 19 20  1  0
 19 21  1  0
 21 22  2  0
 22 23  1  0
 22 24  1  0
 24 25  2  0
 25 26  1  0
 25 27  1  0
 27 28  1  0
 28 29  2  0
 28 30  1  0
 30 31  1  0
 21 32  1  0
 32 33  1  0
 32  4  1  0
 17  8  1  0
 30 24  1  0
M  CHG  2  26  -1  27  -1
M  END
>  <UniqueID>  (56) 
50

>  <SMILES>  (56) 
C=c1[nH]/c(=C/c2[nH]c(=O)[n-]c2[O-])cc1C(=O)c1ccc(Br)cc1

>  <Energy>  (56) 
103.98542813443055

>  <Genealogy>  (56) 
C=c1[nH]c(=Cc2[nH]c(=O)[n-]c2[O-])cc1C(=O)c1ccc(Br)cc1 (protonated)
C=c1[nH]/c(=C/c2[nH]c(=O)[n-]c2[O-])cc1C(=O)c1ccc(Br)cc1 (cis-trans isomerization)
C=c1[nH]/c(=C/c2[nH]c(=O)[n-]c2[O-])cc1C(=O)c1ccc(Br)cc1 (3D coordinates assigned)
C=c1[nH]/c(=C/c2[nH]c(=O)[n-]c2[O-])cc1C(=O)c1ccc(Br)cc1 (optimized conformer: 103.98542813443055 kcal/mol)

>  <smiles>  (56) 
C=c1[nH]c(=Cc2[nH]c(=O)[nH]c2O)cc1C(=O)c1ccc(Br)cc1

>  <score_type>  (56) 
oracle

>  <origin>  (56) 
adg

>  <m_score__min__energy>  (56) 
-14.449999999999999

>  <m_primary>  (56) 
energy

$$$$
56:0
     RDKit          3D

 59 62  0  0  0  0  0  0  0  0999 V2000
   57.7860   25.7240   46.7210 C   0  0  0  0  0  0  0  0  0  0  0  0
   58.8800   26.7960   46.6120 C   0  0  0  0  0  0  0  0  0  0  0  0
   60.2420   26.1460   46.3260 C   0  0  0  0  0  0  0  0  0  0  0  0
   58.5160   27.8730   45.5380 C   0  0  0  0  0  0  0  0  0  0  0  0
   58.2920   29.0980   46.2900 N   0  0  0  0  0  0  0  0  0  0  0  0
   58.2310   30.4080   45.7130 C   0  0  0  0  0  0  0  0  0  0  0  0
   59.0920   31.4020   46.2040 C   0  0  0  0  0  0  0  0  0  0  0  0
   59.0930   32.6850   45.6460 C   0  0  0  0  0  0  0  0  0  0  0  0
   60.0350   33.7090   46.1330 C   0  0  0  0  0  0  0  0  0  0  0  0
   59.8630   34.8990   45.7500 O   0  0  0  0  0  0  0  0  0  0  0  0
   61.1700   33.3850   46.9770 N   0  0  0  0  0  0  0  0  0  0  0  0
   60.9530   33.9300   48.3400 C   0  0  0  0  0  0  0  0  0  0  0  0
   62.2370   33.9280   49.2050 C   0  0  0  0  0  0  0  0  0  0  0  0
   63.2890   33.0930   48.6100 N   0  0  0  0  0  0  0  0  0  0  0  0
   64.1630   32.3200   49.4490 C   0  0  0  0  0  0  0  0  0  0  0  0
   65.4070   32.5150   49.3810 O   0  0  0  0  0  0  0  0  0  0  0  0
   63.6290   31.2800   50.3640 C   0  0  0  0  0  0  0  0  0  0  0  0
   62.3350   30.7570   50.1840 C   0  0  0  0  0  0  0  0  0  0  0  0
   61.8440   29.7700   51.0460 C   0  0  0  0  0  0  0  0  0  0  0  0
   62.6450   29.2810   52.0800 C   0  0  0  0  0  0  0  0  0  0  0  0
   63.9370   29.7810   52.2600 C   0  0  0  0  0  0  0  0  0  0  0  0
   64.4290   30.7750   51.4060 C   0  0  0  0  0  0  0  0  0  0  0  0
   63.6280   33.2490   47.1920 C   0  0  0  0  0  0  0  0  0  0  0  0
   62.4530   33.8510   46.4110 C   0  0  0  0  0  0  0  0  0  0  0  0
   58.2330   32.9770   44.5840 C   0  0  0  0  0  0  0  0  0  0  0  0
   57.3600   32.0040   44.1000 C   0  0  0  0  0  0  0  0  0  0  0  0
   57.3370   30.7070   44.6530 C   0  0  0  0  0  0  0  0  0  0  0  0
   56.4000   29.6950   44.0870 C   0  0  0  0  0  0  0  0  0  0  0  0
   55.5210   28.9670   44.9440 N   0  0  0  0  0  0  0  0  0  0  0  0
   56.3920   29.4380   42.8530 O   0  0  0  0  0  0  0  0  0  0  0  0
   58.6110   28.8280   47.6380 C   0  0  0  0  0  0  0  0  0  0  0  0
   58.5390   29.6870   48.5590 O   0  0  0  0  0  0  0  0  0  0  0  0
   58.9550   27.5120   47.8450 O   0  0  0  0  0  0  0  0  0  0  0  0
   57.5774   25.5196   47.7815 H   0  0  0  0  0  0  0  0  0  0  0  0
   56.8699   26.0838   46.2298 H   0  0  0  0  0  0  0  0  0  0  0  0
   58.1271   24.8008   46.2298 H   0  0  0  0  0  0  0  0  0  0  0  0
   60.7414   25.9077   47.2767 H   0  0  0  0  0  0  0  0  0  0  0  0
   60.0932   25.2219   45.7483 H   0  0  0  0  0  0  0  0  0  0  0  0
   60.8668   26.8430   45.7483 H   0  0  0  0  0  0  0  0  0  0  0  0
   59.3440   28.0032   44.8256 H   0  0  0  0  0  0  0  0  0  0  0  0
   57.6336   27.5846   44.9479 H   0  0  0  0  0  0  0  0  0  0  0  0
   59.7730   31.1698   47.0361 H   0  0  0  0  0  0  0  0  0  0  0  0
   61.2090   32.3400   47.0430 H   0  0  0  0  0  0  0  0  0  0  0  0
   60.5928   34.9655   48.2500 H   0  0  0  0  0  0  0  0  0  0  0  0
   60.2189   33.2813   48.8402 H   0  0  0  0  0  0  0  0  0  0  0  0
   62.6083   34.9595   49.2950 H   0  0  0  0  0  0  0  0  0  0  0  0
   61.9859   33.5131   50.1923 H   0  0  0  0  0  0  0  0  0  0  0  0
   61.7057   31.1262   49.3608 H   0  0  0  0  0  0  0  0  0  0  0  0
   60.8252   29.3786   50.9088 H   0  0  0  0  0  0  0  0  0  0  0  0
   62.2585   28.5016   52.7532 H   0  0  0  0  0  0  0  0  0  0  0  0
   64.5681   29.3933   53.0733 H   0  0  0  0  0  0  0  0  0  0  0  0
   65.4477   31.1640   51.5503 H   0  0  0  0  0  0  0  0  0  0  0  0
   64.4993   33.9142   47.1011 H   0  0  0  0  0  0  0  0  0  0  0  0
   63.8563   32.2574   46.7742 H   0  0  0  0  0  0  0  0  0  0  0  0
   62.5000   34.9483   46.4730 H   0  0  0  0  0  0  0  0  0  0  0  0
   62.5189   33.5303   45.3609 H   0  0  0  0  0  0  0  0  0  0  0  0
   58.2450   33.9781   44.1284 H   0  0  0  0  0  0  0  0  0  0  0  0
   56.6780   32.2519   43.2733 H   0  0  0  0  0  0  0  0  0  0  0  0
   54.5760   29.3390   45.1870 H   0  0  0  0  0  0  0  0  0  0  0  0
  1  2  1  0
  2  3  1  0
  2  4  1  0
  4  5  1  0
  5  6  1  0
  6  7  2  0
  7  8  1  0
  8  9  1  0
  9 10  2  0
  9 11  1  0
 11 12  1  0
 12 13  1  0
 13 14  1  0
 14 15  1  0
 15 16  2  0
 15 17  1  0
 17 18  2  0
 18 19  1  0
 19 20  2  0
 20 21  1  0
 21 22  2  0
 14 23  1  0
 23 24  1  0
  8 25  2  0
 25 26  1  0
 26 27  2  0
 27 28  1  0
 28 29  1  0
 28 30  2  0
  5 31  1  0
 31 32  2  0
 31 33  1  0
 33  2  1  0
 27  6  1  0
 24 11  1  0
 22 17  1  0
  1 34  1  0
  1 35  1  0
  1 36  1  0
  3 37  1  0
  3 38  1  0
  3 39  1  0
  4 40  1  0
  4 41  1  0
  7 42  1  0
 11 43  1  0
 12 44  1  0
 12 45  1  0
 13 46  1  0
 13 47  1  0
 18 48  1  0
 19 49  1  0
 20 50  1  0
 21 51  1  0
 22 52  1  0
 23 53  1  0
 23 54  1  0
 24 55  1  0
 24 56  1  0
 25 57  1  0
 26 58  1  0
 29 59  1  0
M  CHG  2  11   1  29  -1
M  END
>  <UniqueID>  (57) 
51

>  <SMILES>  (57) 
CC1(C)CN(c2cc(C(=O)[NH+]3CCN(C(=O)c4ccccc4)CC3)ccc2C([NH-])=O)C(=O)O1

>  <Energy>  (57) 
103.37125797697942

>  <Genealogy>  (57) 
CC1(C)CN(c2cc(C(=O)[NH+]3CCN(C(=O)c4ccccc4)CC3)ccc2C([NH-])=O)C(=O)O1 (protonated)
CC1(C)CN(c2cc(C(=O)[NH+]3CCN(C(=O)c4ccccc4)CC3)ccc2C([NH-])=O)C(=O)O1 (3D coordinates assigned)
CC1(C)CN(c2cc(C(=O)[NH+]3CCN(C(=O)c4ccccc4)CC3)ccc2C([NH-])=O)C(=O)O1 (nonaromatic ring conformer: 103.37125797697942 kcal/mol)

>  <smiles>  (57) 
CC1(C)CN(c2cc(C(=O)N3CCN(C(=O)c4ccccc4)CC3)ccc2C(N)=O)C(=O)O1

>  <score_type>  (57) 
oracle

>  <origin>  (57) 
adg

>  <m_score__min__energy>  (57) 
-11.039999999999999

>  <m_primary>  (57) 
energy

$$$$
57:0
     RDKit          3D

 58 61  0  0  0  0  0  0  0  0999 V2000
   54.8834   27.3655   53.4771 H   0  0  0  0  0  0  0  0  0  0  0  0
   54.2810   28.2510   53.2260 C   0  0  0  0  0  0  0  0  0  0  0  0
   53.1828   28.1957   53.2560 H   0  0  0  0  0  0  0  0  0  0  0  0
   54.8860   29.3990   52.8830 C   0  0  0  0  0  0  0  0  0  0  0  0
   54.2470   30.5970   52.5410 C   0  0  0  0  0  0  0  0  0  0  0  0
   52.9220   30.8360   52.5010 C   0  0  0  0  0  0  0  0  0  0  0  0
   52.3891   30.9440   53.4572 H   0  0  0  0  0  0  0  0  0  0  0  0
   52.1410   30.9620   51.2580 C   0  0  0  0  0  0  0  0  0  0  0  0
   52.2280   30.0860   50.2440 N   0  0  0  0  0  0  0  0  0  0  0  0
   51.3990   30.6030   49.3100 C   0  0  0  0  0  0  0  0  0  0  0  0
   51.1920   30.0420   48.2010 O   0  0  0  0  0  0  0  0  0  0  0  0
   50.8080   31.7650   49.6560 N   0  0  0  0  0  0  0  0  0  0  0  0
   51.2960   31.9870   50.8860 C   0  0  0  0  0  0  0  0  0  0  0  0
   51.0150   33.1250   51.6280 O   0  0  0  0  0  0  0  0  0  0  0  0
   55.2540   31.5230   52.3180 C   0  0  0  0  0  0  0  0  0  0  0  0
   55.1247   32.5775   52.0330 H   0  0  0  0  0  0  0  0  0  0  0  0
   56.4520   30.8650   52.5230 C   0  0  0  0  0  0  0  0  0  0  0  0
   57.7650   31.5410   52.5030 C   0  0  0  0  0  0  0  0  0  0  0  0
   58.2260   32.0660   53.5510 O   0  0  0  0  0  0  0  0  0  0  0  0
   58.4730   31.6900   51.2650 N   0  0  0  0  0  0  0  0  0  0  0  0
   58.8570   30.5070   50.4850 C   0  0  0  0  0  0  0  0  0  0  0  0
   59.9290   30.3107   50.6345 H   0  0  0  0  0  0  0  0  0  0  0  0
   58.2556   29.6522   50.8281 H   0  0  0  0  0  0  0  0  0  0  0  0
   58.5890   30.7220   48.9800 C   0  0  0  0  0  0  0  0  0  0  0  0
   59.5129   30.5137   48.4205 H   0  0  0  0  0  0  0  0  0  0  0  0
   57.7806   30.0408   48.6758 H   0  0  0  0  0  0  0  0  0  0  0  0
   58.1570   32.1050   48.6920 N   0  0  0  0  0  0  0  0  0  0  0  0
   58.0220   32.3330   47.2400 C   0  0  0  0  0  0  0  0  0  0  0  0
   57.4107   31.5302   46.8021 H   0  0  0  0  0  0  0  0  0  0  0  0
   57.5394   33.3076   47.0745 H   0  0  0  0  0  0  0  0  0  0  0  0
   59.3730   32.3400   46.5850 C   0  0  0  0  0  0  0  0  0  0  0  0
   60.0450   31.2770   46.5340 O   0  0  0  0  0  0  0  0  0  0  0  0
   59.8760   33.5400   45.9930 N   0  0  0  0  0  0  0  0  0  0  0  0
   60.6010   34.5620   46.7330 C   0  0  0  0  0  0  0  0  0  0  0  0
   60.9863   35.3191   46.0342 H   0  0  0  0  0  0  0  0  0  0  0  0
   59.9264   35.0454   47.4550 H   0  0  0  0  0  0  0  0  0  0  0  0
   61.7470   33.9210   47.4620 C   0  0  0  0  0  0  0  0  0  0  0  0
   61.9600   34.1710   48.8290 C   0  0  0  0  0  0  0  0  0  0  0  0
   61.2681   34.8232   49.3821 H   0  0  0  0  0  0  0  0  0  0  0  0
   63.0500   33.5920   49.4870 C   0  0  0  0  0  0  0  0  0  0  0  0
   63.2103   33.7847   50.5581 H   0  0  0  0  0  0  0  0  0  0  0  0
   63.9360   32.7690   48.7860 C   0  0  0  0  0  0  0  0  0  0  0  0
   64.7911   32.3129   49.3063 H   0  0  0  0  0  0  0  0  0  0  0  0
   63.7360   32.5250   47.4230 C   0  0  0  0  0  0  0  0  0  0  0  0
   64.4377   31.8827   46.8707 H   0  0  0  0  0  0  0  0  0  0  0  0
   62.6450   33.0970   46.7630 C   0  0  0  0  0  0  0  0  0  0  0  0
   62.4887   32.9013   45.6919 H   0  0  0  0  0  0  0  0  0  0  0  0
   59.0860   33.0680   49.3150 C   0  0  0  0  0  0  0  0  0  0  0  0
   60.1211   32.8017   49.0549 H   0  0  0  0  0  0  0  0  0  0  0  0
   58.8686   34.0819   48.9479 H   0  0  0  0  0  0  0  0  0  0  0  0
   58.9120   33.0230   50.8380 C   0  0  0  0  0  0  0  0  0  0  0  0
   59.8724   33.2594   51.3194 H   0  0  0  0  0  0  0  0  0  0  0  0
   58.1497   33.7599   51.1313 H   0  0  0  0  0  0  0  0  0  0  0  0
   56.2330   29.5670   52.8430 N   0  0  0  0  0  0  0  0  0  0  0  0
   57.2590   28.5570   53.1200 C   0  0  0  0  0  0  0  0  0  0  0  0
   57.3760   28.4419   54.2077 H   0  0  0  0  0  0  0  0  0  0  0  0
   56.9553   27.5956   52.6801 H   0  0  0  0  0  0  0  0  0  0  0  0
   58.2155   28.8757   52.6801 H   0  0  0  0  0  0  0  0  0  0  0  0
  1  2  1  0
  2  3  1  0
  2  4  2  0
  4  5  1  0
  5  6  2  0
  6  7  1  0
  6  8  1  0
  8  9  1  0
  9 10  1  0
 10 11  2  0
 10 12  1  0
 12 13  1  0
 13 14  1  0
  5 15  1  0
 15 16  1  0
 15 17  2  0
 17 18  1  0
 18 19  2  0
 18 20  1  0
 20 21  1  0
 21 22  1  0
 21 23  1  0
 21 24  1  0
 24 25  1  0
 24 26  1  0
 24 27  1  0
 27 28  1  0
 28 29  1  0
 28 30  1  0
 28 31  1  0
 31 32  2  0
 31 33  1  0
 33 34  1  0
 34 35  1  0
 34 36  1  0
 34 37  1  0
 37 38  2  0
 38 39  1  0
 38 40  1  0
 40 41  1  0
 40 42  2  0
 42 43  1  0
 42 44  1  0
 44 45  1  0
 44 46  2  0
 46 47  1  0
 27 48  1  0
 48 49  1  0
 48 50  1  0
 48 51  1  0
 51 52  1  0
 51 53  1  0
 17 54  1  0
 54 55  1  0
 55 56  1  0
 55 57  1  0
 55 58  1  0
 54  4  1  0
 13  8  2  0
 51 20  1  0
 46 37  1  0
M  CHG  4   9  -1  12  -1  14  -1  33  -1
M  END
>  <UniqueID>  (58) 
52

>  <SMILES>  (58) 
C=c1/c(=C/c2[n-]c(=O)[n-]c2[O-])cc(C(=O)N2CCN(CC(=O)[N-]Cc3ccccc3)CC2)n1C

>  <Energy>  (58) 
130.89282031612947

>  <Genealogy>  (58) 
C=c1c(=Cc2[n-]c(=O)[n-]c2[O-])cc(C(=O)N2CCN(CC(=O)[N-]Cc3ccccc3)CC2)n1C (protonated)
C=c1/c(=C/c2[n-]c(=O)[n-]c2[O-])cc(C(=O)N2CCN(CC(=O)[N-]Cc3ccccc3)CC2)n1C (cis-trans isomerization)
C=c1/c(=C/c2[n-]c(=O)[n-]c2[O-])cc(C(=O)N2CCN(CC(=O)[N-]Cc3ccccc3)CC2)n1C (3D coordinates assigned)
C=c1/c(=C/c2[n-]c(=O)[n-]c2[O-])cc(C(=O)N2CCN(CC(=O)[N-]Cc3ccccc3)CC2)n1C (nonaromatic ring conformer: 130.89282031612947 kcal/mol)

>  <smiles>  (58) 
C=c1c(=Cc2[nH]c(=O)[nH]c2O)cc(C(=O)N2CCN(CC(=O)NCc3ccccc3)CC2)n1C

>  <score_type>  (58) 
oracle

>  <origin>  (58) 
adg

>  <m_score__min__energy>  (58) 
-20.260000000000002

>  <m_primary>  (58) 
energy

$$$$
58:0
     RDKit          3D

 55 58  0  0  0  0  0  0  0  0999 V2000
   56.8897   24.0614   44.6132 H   0  0  0  0  0  0  0  0  0  0  0  0
   57.3430   24.8490   45.2330 C   0  0  0  0  0  0  0  0  0  0  0  0
   58.6740   24.7390   45.6390 C   0  0  0  0  0  0  0  0  0  0  0  0
   59.2717   23.8681   45.3319 H   0  0  0  0  0  0  0  0  0  0  0  0
   59.2490   25.7350   46.4360 C   0  0  0  0  0  0  0  0  0  0  0  0
   60.2970   25.6394   46.7562 H   0  0  0  0  0  0  0  0  0  0  0  0
   58.4980   26.8590   46.8320 C   0  0  0  0  0  0  0  0  0  0  0  0
   59.0890   27.8860   47.6620 N   0  0  0  0  0  0  0  0  0  0  0  0
   59.9020   27.5150   48.8320 C   0  0  0  0  0  0  0  0  0  0  0  0
   60.3230   26.5111   48.6739 H   0  0  0  0  0  0  0  0  0  0  0  0
   59.2585   27.5266   49.7241 H   0  0  0  0  0  0  0  0  0  0  0  0
   61.0490   28.5130   49.0430 C   0  0  0  0  0  0  0  0  0  0  0  0
   61.8265   28.3270   48.2874 H   0  0  0  0  0  0  0  0  0  0  0  0
   61.4440   28.3704   50.0597 H   0  0  0  0  0  0  0  0  0  0  0  0
   60.5920   29.9000   48.9220 N   0  0  0  0  0  0  0  0  0  0  0  0
   61.4760   30.9590   49.3110 C   0  0  0  0  0  0  0  0  0  0  0  0
   61.8810   31.0150   50.5040 O   0  0  0  0  0  0  0  0  0  0  0  0
   61.9340   31.9650   48.3260 C   0  0  0  0  0  0  0  0  0  0  0  0
   63.3030   32.1100   48.0360 C   0  0  0  0  0  0  0  0  0  0  0  0
   64.0370   31.4507   48.5224 H   0  0  0  0  0  0  0  0  0  0  0  0
   63.7370   33.0850   47.1350 C   0  0  0  0  0  0  0  0  0  0  0  0
   64.8091   33.1879   46.9113 H   0  0  0  0  0  0  0  0  0  0  0  0
   62.8120   33.9290   46.5180 C   0  0  0  0  0  0  0  0  0  0  0  0
   63.1563   34.6994   45.8124 H   0  0  0  0  0  0  0  0  0  0  0  0
   61.4490   33.7960   46.7960 C   0  0  0  0  0  0  0  0  0  0  0  0
   60.2630   34.8930   46.0100 S   0  0  0  0  0  0  0  0  0  0  0  0
   58.8670   34.4070   47.0820 C   0  0  0  0  0  0  0  0  0  0  0  0
   58.1667   35.2510   47.1666 H   0  0  0  0  0  0  0  0  0  0  0  0
   59.2615   34.1353   48.0722 H   0  0  0  0  0  0  0  0  0  0  0  0
   58.1420   33.2210   46.5110 C   0  0  0  0  0  0  0  0  0  0  0  0
   57.6460   32.3640   47.2920 O   0  0  0  0  0  0  0  0  0  0  0  0
   57.8950   33.1040   45.1030 N   0  0  0  0  0  0  0  0  0  0  0  0
   57.4930   32.0430   44.4610 C   0  0  0  0  0  0  0  0  0  0  0  0
   57.4570   32.0850   43.0610 C   0  0  0  0  0  0  0  0  0  0  0  0
   57.7834   32.9892   42.5263 H   0  0  0  0  0  0  0  0  0  0  0  0
   57.0050   30.9740   42.3490 C   0  0  0  0  0  0  0  0  0  0  0  0
   56.9702   31.0011   41.2499 H   0  0  0  0  0  0  0  0  0  0  0  0
   56.5970   29.8280   43.0330 C   0  0  0  0  0  0  0  0  0  0  0  0
   56.2545   28.9413   42.4794 H   0  0  0  0  0  0  0  0  0  0  0  0
   56.6290   29.8210   44.4270 C   0  0  0  0  0  0  0  0  0  0  0  0
   56.3033   28.9255   44.9765 H   0  0  0  0  0  0  0  0  0  0  0  0
   57.0610   30.9160   45.1130 N   0  0  0  0  0  0  0  0  0  0  0  0
   57.0170   30.8740   46.1540 H   0  0  0  0  0  0  0  0  0  0  0  0
   61.0100   32.8210   47.7010 C   0  0  0  0  0  0  0  0  0  0  0  0
   59.9371   32.7246   47.9238 H   0  0  0  0  0  0  0  0  0  0  0  0
   59.2020   30.2010   48.5670 C   0  0  0  0  0  0  0  0  0  0  0  0
   59.1234   31.2542   48.2596 H   0  0  0  0  0  0  0  0  0  0  0  0
   58.5570   30.0206   49.4396 H   0  0  0  0  0  0  0  0  0  0  0  0
   58.7550   29.3000   47.4130 C   0  0  0  0  0  0  0  0  0  0  0  0
   59.2569   29.6274   46.4906 H   0  0  0  0  0  0  0  0  0  0  0  0
   57.6621   29.3819   47.3186 H   0  0  0  0  0  0  0  0  0  0  0  0
   57.1610   26.9610   46.4040 C   0  0  0  0  0  0  0  0  0  0  0  0
   56.5614   27.8366   46.6934 H   0  0  0  0  0  0  0  0  0  0  0  0
   56.5880   25.9590   45.6140 C   0  0  0  0  0  0  0  0  0  0  0  0
   55.5397   26.0462   45.2923 H   0  0  0  0  0  0  0  0  0  0  0  0
  1  2  1  0
  2  3  2  0
  3  4  1  0
  3  5  1  0
  5  6  1  0
  5  7  2  0
  7  8  1  0
  8  9  1  0
  9 10  1  0
  9 11  1  0
  9 12  1  0
 12 13  1  0
 12 14  1  0
 12 15  1  0
 15 16  1  0
 16 17  2  0
 16 18  1  0
 18 19  2  0
 19 20  1  0
 19 21  1  0
 21 22  1  0
 21 23  2  0
 23 24  1  0
 23 25  1  0
 25 26  1  0
 26 27  1  0
 27 28  1  0
 27 29  1  0
 27 30  1  0
 30 31  2  0
 30 32  1  0
 32 33  2  0
 33 34  1  0
 34 35  1  0
 34 36  2  0
 36 37  1  0
 36 38  1  0
 38 39  1  0
 38 40  2  0
 40 41  1  0
 40 42  1  0
 42 43  1  0
 25 44  2  0
 44 45  1  0
 15 46  1  0
 46 47  1  0
 46 48  1  0
 46 49  1  0
 49 50  1  0
 49 51  1  0
  7 52  1  0
 52 53  1  0
 52 54  2  0
 54 55  1  0
 54  2  1  0
 49  8  1  0
 44 18  1  0
 42 33  1  0
M  END
>  <UniqueID>  (59) 
53

>  <SMILES>  (59) 
O=C(CSc1cccc(C(=O)N2CCN(c3ccccc3)CC2)c1)/N=c1/cccc[nH]1

>  <Energy>  (59) 
71.01190302351573

>  <Genealogy>  (59) 
O=C(CSc1cccc(C(=O)N2CCN(c3ccccc3)CC2)c1)/N=c1/cccc[nH]1 (cis-trans isomerization)
O=C(CSc1cccc(C(=O)N2CCN(c3ccccc3)CC2)c1)/N=c1/cccc[nH]1 (3D coordinates assigned)
O=C(CSc1cccc(C(=O)N2CCN(c3ccccc3)CC2)c1)/N=c1/cccc[nH]1 (nonaromatic ring conformer: 71.01190302351573 kcal/mol)

>  <smiles>  (59) 
O=C(CSc1cccc(C(=O)N2CCN(c3ccccc3)CC2)c1)N=c1cccc[nH]1

>  <score_type>  (59) 
oracle

>  <origin>  (59) 
adg

>  <m_score__min__energy>  (59) 
-9.0999999999999996

>  <m_primary>  (59) 
energy

$$$$
59:0
     RDKit          3D

 31 33  0  0  0  0  0  0  0  0999 V2000
   55.9250   29.7260   43.5260 C   0  0  0  0  0  0  0  0  0  0  0  0
   57.2750   29.3640   44.0960 C   0  0  0  0  0  0  0  0  0  0  0  0
   57.7720   28.0780   43.8190 C   0  0  0  0  0  0  0  0  0  0  0  0
   59.0100   27.6680   44.3030 C   0  0  0  0  0  0  0  0  0  0  0  0
   59.7800   28.5300   45.0750 C   0  0  0  0  0  0  0  0  0  0  0  0
   59.3220   29.8200   45.3740 C   0  0  0  0  0  0  0  0  0  0  0  0
   60.0980   30.6420   46.1360 N   0  0  0  0  0  0  0  0  0  0  0  0
   59.7120   31.9080   46.4500 C   0  0  0  0  0  0  0  0  0  0  0  0
   58.4820   32.4010   46.0050 C   0  0  0  0  0  0  0  0  0  0  0  0
   57.6420   31.5770   45.2350 C   0  0  0  0  0  0  0  0  0  0  0  0
   56.5240   32.0270   44.8660 O   0  0  0  0  0  0  0  0  0  0  0  0
   58.0570   30.2620   44.8910 C   0  0  0  0  0  0  0  0  0  0  0  0
   58.0820   33.7940   46.4340 C   0  0  0  0  0  0  0  0  0  0  0  0
   59.2590   34.7750   46.2940 C   0  0  0  0  0  0  0  0  0  0  0  0
   60.6260   34.2150   46.7670 C   0  0  0  0  0  0  0  0  0  0  0  0
   60.5690   32.7840   47.3240 C   0  0  0  0  0  0  0  0  0  0  0  0
   55.2188   29.9154   44.3478 H   0  0  0  0  0  0  0  0  0  0  0  0
   56.0188   30.6307   42.9074 H   0  0  0  0  0  0  0  0  0  0  0  0
   55.5536   28.8957   42.9074 H   0  0  0  0  0  0  0  0  0  0  0  0
   57.1724   27.3854   43.2101 H   0  0  0  0  0  0  0  0  0  0  0  0
   59.3809   26.6581   44.0740 H   0  0  0  0  0  0  0  0  0  0  0  0
   60.7572   28.1966   45.4544 H   0  0  0  0  0  0  0  0  0  0  0  0
   61.0180   30.2950   46.4940 H   0  0  0  0  0  0  0  0  0  0  0  0
   57.2494   34.1392   45.8034 H   0  0  0  0  0  0  0  0  0  0  0  0
   57.7780   33.7609   47.4906 H   0  0  0  0  0  0  0  0  0  0  0  0
   59.3502   35.0523   45.2334 H   0  0  0  0  0  0  0  0  0  0  0  0
   59.0305   35.6312   46.9457 H   0  0  0  0  0  0  0  0  0  0  0  0
   61.3159   34.2232   45.9102 H   0  0  0  0  0  0  0  0  0  0  0  0
   60.9597   34.8598   47.5934 H   0  0  0  0  0  0  0  0  0  0  0  0
   61.5875   32.3703   47.3622 H   0  0  0  0  0  0  0  0  0  0  0  0
   60.1318   32.8138   48.3329 H   0  0  0  0  0  0  0  0  0  0  0  0
  1  2  1  0
  2  3  2  0
  3  4  1  0
  4  5  2  0
  5  6  1  0
  6  7  1  0
  7  8  1  0
  8  9  2  0
  9 10  1  0
 10 11  2  0
 10 12  1  0
  9 13  1  0
 13 14  1  0
 14 15  1  0
 15 16  1  0
 12  2  1  0
 12  6  2  0
 16  8  1  0
  1 17  1  0
  1 18  1  0
  1 19  1  0
  3 20  1  0
  4 21  1  0
  5 22  1  0
  7 23  1  0
 13 24  1  0
 13 25  1  0
 14 26  1  0
 14 27  1  0
 15 28  1  0
 15 29  1  0
 16 30  1  0
 16 31  1  0
M  END
>  <UniqueID>  (60) 
54

>  <SMILES>  (60) 
Cc1cccc2[nH]c3c(c(=O)c12)CCCC3

>  <Energy>  (60) 
46.67836671333394

>  <Genealogy>  (60) 
Cc1cccc2[nH]c3c(c(=O)c12)CCCC3 (3D coordinates assigned)
Cc1cccc2[nH]c3c(c(=O)c12)CCCC3 (nonaromatic ring conformer: 46.67836671333394 kcal/mol)

>  <smiles>  (60) 
Cc1cccc2[nH]c3c(c(=O)c12)CCCC3

>  <score_type>  (60) 
oracle

>  <origin>  (60) 
adg

>  <m_score__min__energy>  (60) 
-6.8600000000000003

>  <m_primary>  (60) 
energy

$$$$
60:0
     RDKit          3D

 40 42  0  0  0  0  0  0  0  0999 V2000
   61.0680   29.2960   45.4760 C   0  0  0  0  0  0  0  0  0  0  0  0
   60.0450   30.1080   45.7790 C   0  0  0  0  0  0  0  0  0  0  0  0
   60.3410   31.1810   46.5620 N   0  0  0  0  0  0  0  0  0  0  0  0
   59.4740   32.1970   46.7980 C   0  0  0  0  0  0  0  0  0  0  0  0
   59.8670   33.3280   47.7190 C   0  0  2  0  0  0  0  0  0  0  0  0
   59.1300   34.6310   47.3500 C   0  0  0  0  0  0  0  0  0  0  0  0
   59.6330   35.1990   46.0570 C   0  0  0  0  0  0  0  0  0  0  0  0
   59.9500   36.4150   45.9800 O   0  0  0  0  0  0  0  0  0  0  0  0
   59.7950   34.3740   44.9510 O   0  0  0  0  0  0  0  0  0  0  0  0
   61.3650   33.5050   47.6880 C   0  0  0  0  0  0  0  0  0  0  0  0
   62.2010   33.5880   48.7880 C   0  0  0  0  0  0  0  0  0  0  0  0
   63.4790   33.7520   48.2910 C   0  0  0  0  0  0  0  0  0  0  0  0
   63.3680   33.7630   46.9150 C   0  0  0  0  0  0  0  0  0  0  0  0
   62.0810   33.6130   46.5540 N   0  0  0  0  0  0  0  0  0  0  0  0
   58.2170   32.1720   46.1960 C   0  0  0  0  0  0  0  0  0  0  0  0
   57.8400   31.0780   45.4120 C   0  0  0  0  0  0  0  0  0  0  0  0
   56.5650   31.0720   44.8380 O   0  0  0  0  0  0  0  0  0  0  0  0
   58.7210   29.9790   45.2390 C   0  0  0  0  0  0  0  0  0  0  0  0
   58.2400   28.8710   44.6100 C   0  0  0  0  0  0  0  0  0  0  0  0
   57.5060   27.7490   45.2410 C   0  0  0  0  0  0  0  0  0  0  0  0
   56.1230   27.8200   45.4930 C   0  0  0  0  0  0  0  0  0  0  0  0
   55.3990   28.9630   45.1730 O   0  0  0  0  0  0  0  0  0  0  0  0
   55.4790   26.7570   46.0410 N   0  0  0  0  0  0  0  0  0  0  0  0
   56.1430   25.6110   46.3360 C   0  0  0  0  0  0  0  0  0  0  0  0
   55.5260   24.6410   46.8480 O   0  0  0  0  0  0  0  0  0  0  0  0
   57.4710   25.5060   46.0730 N   0  0  0  0  0  0  0  0  0  0  0  0
   58.1610   26.5400   45.5270 C   0  0  0  0  0  0  0  0  0  0  0  0
   59.3920   26.4070   45.2910 O   0  0  0  0  0  0  0  0  0  0  0  0
   60.8990   28.4097   44.8468 H   0  0  0  0  0  0  0  0  0  0  0  0
   62.0763   29.5161   45.8566 H   0  0  0  0  0  0  0  0  0  0  0  0
   59.5661   33.0755   48.7465 H   0  0  0  0  0  0  0  0  0  0  0  0
   58.0551   34.4186   47.2530 H   0  0  0  0  0  0  0  0  0  0  0  0
   59.3130   35.3684   48.1455 H   0  0  0  0  0  0  0  0  0  0  0  0
   61.9064   33.5341   49.8464 H   0  0  0  0  0  0  0  0  0  0  0  0
   64.4044   33.8539   48.8769 H   0  0  0  0  0  0  0  0  0  0  0  0
   64.2094   33.8777   46.2158 H   0  0  0  0  0  0  0  0  0  0  0  0
   61.7140   33.5880   45.5760 H   0  0  0  0  0  0  0  0  0  0  0  0
   57.5221   33.0128   46.3379 H   0  0  0  0  0  0  0  0  0  0  0  0
   55.8040   30.5310   45.2310 H   0  0  0  0  0  0  0  0  0  0  0  0
   58.4136   28.8021   43.5260 H   0  0  0  0  0  0  0  0  0  0  0  0
  1  2  2  0
  2  3  1  0
  3  4  2  0
  4  5  1  0
  5  6  1  0
  6  7  1  0
  7  8  2  0
  7  9  1  0
  5 10  1  0
 10 11  2  0
 11 12  1  0
 12 13  2  0
 13 14  1  0
  4 15  1  0
 15 16  2  0
 16 17  1  0
 16 18  1  0
 18 19  2  3
 19 20  1  0
 20 21  2  0
 21 22  1  0
 21 23  1  0
 23 24  1  0
 24 25  2  0
 24 26  1  0
 26 27  1  0
 27 28  2  0
 18  2  1  0
 27 20  1  0
 14 10  1  0
  1 29  1  0
  1 30  1  0
  5 31  1  1
  6 32  1  0
  6 33  1  0
 11 34  1  0
 12 35  1  0
 13 36  1  0
 14 37  1  0
 15 38  1  0
 17 39  1  0
 19 40  1  0
M  CHG  4   9  -1  22  -1  23  -1  26  -1
M  END
>  <UniqueID>  (61) 
55

>  <SMILES>  (61) 
C=c1nc([C@H](CC(=O)[O-])c2ccc[nH]2)cc(O)c1=Cc1c([O-])[n-]c(=O)[n-]c1=O

>  <Energy>  (61) 
89.86628990919397

>  <Genealogy>  (61) 
C=c1nc(C(CC(=O)[O-])c2ccc[nH]2)cc(O)c1=Cc1c([O-])[n-]c(=O)[n-]c1=O (protonated)
C=c1nc([C@H](CC(=O)[O-])c2ccc[nH]2)cc(O)c1=Cc1c([O-])[n-]c(=O)[n-]c1=O (chirality)
C=c1nc([C@H](CC(=O)[O-])c2ccc[nH]2)cc(O)c1=Cc1c([O-])[n-]c(=O)[n-]c1=O (3D coordinates assigned)
C=c1nc([C@H](CC(=O)[O-])c2ccc[nH]2)cc(O)c1=Cc1c([O-])[n-]c(=O)[n-]c1=O (optimized conformer: 89.86628990919397 kcal/mol)

>  <smiles>  (61) 
C=c1nc(C(CC(=O)O)c2ccc[nH]2)cc(O)c1=Cc1c(O)[nH]c(=O)[nH]c1=O

>  <score_type>  (61) 
oracle

>  <origin>  (61) 
adg

>  <m_score__min__energy>  (61) 
-16.670000000000002

>  <m_primary>  (61) 
energy

$$$$
61:0
     RDKit          3D

 58 62  0  0  0  0  0  0  0  0999 V2000
   63.4190   34.2870   48.6240 N   0  0  0  0  0  0  0  0  0  0  0  0
   62.8440   33.5420   47.1740 S   0  0  0  0  0  0  0  0  0  0  0  0
   63.2620   32.0960   47.1620 O   0  0  0  0  0  0  0  0  0  0  0  0
   63.4480   34.2300   45.9800 O   0  0  0  0  0  0  0  0  0  0  0  0
   61.0890   33.6770   47.1060 C   0  0  0  0  0  0  0  0  0  0  0  0
   60.3860   33.2460   45.9680 C   0  0  0  0  0  0  0  0  0  0  0  0
   58.9850   33.3510   45.9160 C   0  0  0  0  0  0  0  0  0  0  0  0
   58.2190   32.8680   44.7120 C   0  0  0  0  0  0  0  0  0  0  0  0
   57.8030   31.4650   44.9130 N   0  0  0  0  0  0  0  0  0  0  0  0
   56.5800   31.1600   44.1350 C   0  0  0  0  0  0  0  0  0  0  0  0
   56.2520   29.6480   44.1120 C   0  0  0  0  0  0  0  0  0  0  0  0
   57.0320   28.8940   45.2000 C   0  0  0  0  0  0  0  0  0  0  0  0
   56.6780   27.4740   45.2470 N   0  0  0  0  0  0  0  0  0  0  0  0
   56.8100   26.5830   46.3610 C   0  0  0  0  0  0  0  0  0  0  0  0
   55.8010   25.9180   46.7200 O   0  0  0  0  0  0  0  0  0  0  0  0
   58.0600   26.4700   47.0620 N   0  0  0  0  0  0  0  0  0  0  0  0
   58.7440   27.4240   47.6270 C   0  0  0  0  0  0  0  0  0  0  0  0
   58.1360   28.5180   48.1480 N   0  0  0  0  0  0  0  0  0  0  0  0
   59.0460   29.3710   48.6830 C   0  0  0  0  0  0  0  0  0  0  0  0
   58.7270   30.5770   49.3010 C   0  0  0  0  0  0  0  0  0  0  0  0
   59.7630   31.3650   49.8290 C   0  0  0  0  0  0  0  0  0  0  0  0
   61.1140   30.9480   49.7330 C   0  0  0  0  0  0  0  0  0  0  0  0
   62.2000   31.7820   50.3070 C   0  0  0  0  0  0  0  0  0  0  0  0
   63.5490   31.4850   50.0650 C   0  0  0  0  0  0  0  0  0  0  0  0
   64.5250   32.2630   50.5990 N   0  0  0  0  0  0  0  0  0  0  0  0
   64.2190   33.3340   51.3740 C   0  0  0  0  0  0  0  0  0  0  0  0
   65.4970   34.3180   52.0520 Cl  0  0  0  0  0  0  0  0  0  0  0  0
   62.9220   33.6440   51.6250 N   0  0  0  0  0  0  0  0  0  0  0  0
   61.9130   32.8970   51.1080 C   0  0  0  0  0  0  0  0  0  0  0  0
   61.4170   29.7240   49.0940 C   0  0  0  0  0  0  0  0  0  0  0  0
   60.3680   28.9650   48.5860 C   0  0  0  0  0  0  0  0  0  0  0  0
   60.4350   27.4790   47.8070 S   0  0  0  0  0  0  0  0  0  0  0  0
   58.5510   29.1000   45.0420 C   0  0  0  0  0  0  0  0  0  0  0  0
   58.8920   30.5260   44.5670 C   0  0  0  0  0  0  0  0  0  0  0  0
   58.2900   33.8760   47.0160 C   0  0  0  0  0  0  0  0  0  0  0  0
   58.9870   34.3030   48.1510 C   0  0  0  0  0  0  0  0  0  0  0  0
   60.3810   34.2060   48.1970 C   0  0  0  0  0  0  0  0  0  0  0  0
   61.0410   34.6280   49.3080 F   0  0  0  0  0  0  0  0  0  0  0  0
   63.2760   33.5970   49.3970 H   0  0  0  0  0  0  0  0  0  0  0  0
   60.9350   32.8241   45.1132 H   0  0  0  0  0  0  0  0  0  0  0  0
   57.3274   33.4965   44.5703 H   0  0  0  0  0  0  0  0  0  0  0  0
   58.8629   32.9319   43.8224 H   0  0  0  0  0  0  0  0  0  0  0  0
   55.7326   31.6977   44.5853 H   0  0  0  0  0  0  0  0  0  0  0  0
   56.7568   31.4787   43.0971 H   0  0  0  0  0  0  0  0  0  0  0  0
   55.1740   29.5120   44.2838 H   0  0  0  0  0  0  0  0  0  0  0  0
   56.5424   29.2433   43.1312 H   0  0  0  0  0  0  0  0  0  0  0  0
   56.7380   29.3238   46.1689 H   0  0  0  0  0  0  0  0  0  0  0  0
   57.6804   30.9075   49.3746 H   0  0  0  0  0  0  0  0  0  0  0  0
   59.5226   32.3178   50.3233 H   0  0  0  0  0  0  0  0  0  0  0  0
   63.8170   30.6196   49.4410 H   0  0  0  0  0  0  0  0  0  0  0  0
   60.8675   33.1670   51.3179 H   0  0  0  0  0  0  0  0  0  0  0  0
   62.4577   29.3800   49.0007 H   0  0  0  0  0  0  0  0  0  0  0  0
   59.0366   28.9231   46.0130 H   0  0  0  0  0  0  0  0  0  0  0  0
   58.9135   28.3921   44.2821 H   0  0  0  0  0  0  0  0  0  0  0  0
   59.8219   30.8561   45.0531 H   0  0  0  0  0  0  0  0  0  0  0  0
   59.0166   30.5151   43.4741 H   0  0  0  0  0  0  0  0  0  0  0  0
   57.1931   33.9521   46.9857 H   0  0  0  0  0  0  0  0  0  0  0  0
   58.4371   34.7161   49.0095 H   0  0  0  0  0  0  0  0  0  0  0  0
  1  2  1  0
  2  3  2  0
  2  4  2  0
  2  5  1  0
  5  6  2  0
  6  7  1  0
  7  8  1  0
  8  9  1  0
  9 10  1  0
 10 11  1  0
 11 12  1  0
 12 13  1  0
 13 14  1  0
 14 15  2  0
 14 16  1  0
 16 17  2  3
 17 18  1  0
 18 19  1  0
 19 20  2  0
 20 21  1  0
 21 22  2  0
 22 23  1  0
 23 24  2  0
 24 25  1  0
 25 26  2  0
 26 27  1  0
 26 28  1  0
 28 29  2  0
 22 30  1  0
 30 31  2  0
 31 32  1  0
 12 33  1  0
 33 34  1  0
  7 35  2  0
 35 36  1  0
 36 37  2  0
 37 38  1  0
 37  5  1  0
 34  9  1  0
 32 17  1  0
 31 19  1  0
 29 23  1  0
  1 39  1  0
  6 40  1  0
  8 41  1  0
  8 42  1  0
 10 43  1  0
 10 44  1  0
 11 45  1  0
 11 46  1  0
 12 47  1  0
 20 48  1  0
 21 49  1  0
 24 50  1  0
 29 51  1  0
 30 52  1  0
 33 53  1  0
 33 54  1  0
 34 55  1  0
 34 56  1  0
 35 57  1  0
 36 58  1  0
M  CHG  3   1  -1  13  -1  18  -1
M  END
>  <UniqueID>  (62) 
56

>  <SMILES>  (62) 
[NH-]S(=O)(=O)c1cc(CN2CCC([N-]C(=O)N=c3[n-]c4ccc(-c5cnc(Cl)nc5)cc4s3)CC2)ccc1F

>  <Energy>  (62) 
113.44374394492772

>  <Genealogy>  (62) 
[NH-]S(=O)(=O)c1cc(CN2CCC([N-]C(=O)N=c3[n-]c4ccc(-c5cnc(Cl)nc5)cc4s3)CC2)ccc1F (protonated)
[NH-]S(=O)(=O)c1cc(CN2CCC([N-]C(=O)N=c3[n-]c4ccc(-c5cnc(Cl)nc5)cc4s3)CC2)ccc1F (3D coordinates assigned)
[NH-]S(=O)(=O)c1cc(CN2CCC([N-]C(=O)N=c3[n-]c4ccc(-c5cnc(Cl)nc5)cc4s3)CC2)ccc1F (nonaromatic ring conformer: 113.44374394492772 kcal/mol)

>  <smiles>  (62) 
NS(=O)(=O)c1cc(CN2CCC(NC(=O)N=c3[nH]c4ccc(-c5cnc(Cl)nc5)cc4s3)CC2)ccc1F

>  <score_type>  (62) 
oracle

>  <origin>  (62) 
adg

>  <m_score__min__energy>  (62) 
-14.59

>  <m_primary>  (62) 
energy

$$$$
62:0
     RDKit          3D

 47 50  0  0  0  0  0  0  0  0999 V2000
   65.9500   30.8460   51.6220 C   0  0  0  0  0  0  0  0  0  0  0  0
   64.9770   31.4800   50.6720 C   0  0  0  0  0  0  0  0  0  0  0  0
   65.3990   32.4880   49.7940 C   0  0  0  0  0  0  0  0  0  0  0  0
   64.4860   33.1050   48.9340 C   0  0  0  0  0  0  0  0  0  0  0  0
   63.1270   32.7400   48.9610 C   0  0  0  0  0  0  0  0  0  0  0  0
   62.1710   33.3390   48.0700 N   0  0  0  0  0  0  0  0  0  0  0  0
   61.1700   32.5950   47.3490 C   0  0  0  0  0  0  0  0  0  0  0  0
   61.1640   31.3340   47.4030 O   0  0  0  0  0  0  0  0  0  0  0  0
   60.1430   33.2830   46.5300 C   0  0  0  0  0  0  0  0  0  0  0  0
   60.2170   34.6630   46.2720 C   0  0  0  0  0  0  0  0  0  0  0  0
   59.2540   35.2870   45.4760 C   0  0  0  0  0  0  0  0  0  0  0  0
   58.2040   34.5450   44.9340 C   0  0  0  0  0  0  0  0  0  0  0  0
   58.1010   33.1740   45.1880 C   0  0  0  0  0  0  0  0  0  0  0  0
   57.0200   32.4420   44.5910 N   0  0  0  0  0  0  0  0  0  0  0  0
   57.1210   31.2160   43.8540 C   0  0  0  0  0  0  0  0  0  0  0  0
   57.0280   31.2330   42.5970 O   0  0  0  0  0  0  0  0  0  0  0  0
   57.3930   29.9300   44.5540 C   0  0  0  0  0  0  0  0  0  0  0  0
   58.7200   29.5320   44.7890 C   0  0  0  0  0  0  0  0  0  0  0  0
   58.9850   28.3270   45.4450 C   0  0  0  0  0  0  0  0  0  0  0  0
   60.2970   27.9010   45.6970 C   0  0  0  0  0  0  0  0  0  0  0  0
   60.5220   26.6880   46.3560 C   0  0  0  0  0  0  0  0  0  0  0  0
   59.4410   25.8990   46.7660 C   0  0  0  0  0  0  0  0  0  0  0  0
   58.1300   26.3200   46.5170 C   0  0  0  0  0  0  0  0  0  0  0  0
   57.8960   27.5320   45.8570 C   0  0  0  0  0  0  0  0  0  0  0  0
   56.6520   27.9300   45.6210 O   0  0  0  0  0  0  0  0  0  0  0  0
   56.3600   29.0700   45.0000 C   0  0  0  0  0  0  0  0  0  0  0  0
   55.1490   29.3620   44.8170 O   0  0  0  0  0  0  0  0  0  0  0  0
   59.0870   32.5410   45.9660 C   0  0  0  0  0  0  0  0  0  0  0  0
   62.7100   31.7260   49.8360 C   0  0  0  0  0  0  0  0  0  0  0  0
   63.6240   31.1110   50.6960 C   0  0  0  0  0  0  0  0  0  0  0  0
   65.6376   31.0495   52.6569 H   0  0  0  0  0  0  0  0  0  0  0  0
   65.9725   29.7593   51.4528 H   0  0  0  0  0  0  0  0  0  0  0  0
   66.9532   31.2643   51.4528 H   0  0  0  0  0  0  0  0  0  0  0  0
   66.4551   32.7953   49.7817 H   0  0  0  0  0  0  0  0  0  0  0  0
   64.8312   33.8792   48.2330 H   0  0  0  0  0  0  0  0  0  0  0  0
   62.2530   34.3680   47.9140 H   0  0  0  0  0  0  0  0  0  0  0  0
   61.0391   35.2554   46.7001 H   0  0  0  0  0  0  0  0  0  0  0  0
   59.3235   36.3664   45.2758 H   0  0  0  0  0  0  0  0  0  0  0  0
   57.4525   35.0418   44.3028 H   0  0  0  0  0  0  0  0  0  0  0  0
   59.5517   30.1702   44.4559 H   0  0  0  0  0  0  0  0  0  0  0  0
   61.1481   28.5200   45.3768 H   0  0  0  0  0  0  0  0  0  0  0  0
   61.5512   26.3532   46.5526 H   0  0  0  0  0  0  0  0  0  0  0  0
   59.6224   24.9462   47.2849 H   0  0  0  0  0  0  0  0  0  0  0  0
   57.2824   25.6978   46.8403 H   0  0  0  0  0  0  0  0  0  0  0  0
   59.0329   31.4555   46.1357 H   0  0  0  0  0  0  0  0  0  0  0  0
   61.6557   31.4125   49.8453 H   0  0  0  0  0  0  0  0  0  0  0  0
   63.2807   30.3340   51.3949 H   0  0  0  0  0  0  0  0  0  0  0  0
  1  2  1  0
  2  3  2  0
  3  4  1  0
  4  5  2  0
  5  6  1  0
  6  7  1  0
  7  8  2  0
  7  9  1  0
  9 10  2  0
 10 11  1  0
 11 12  2  0
 12 13  1  0
 13 14  1  0
 14 15  1  0
 15 16  2  0
 15 17  1  0
 17 18  2  0
 18 19  1  0
 19 20  2  0
 20 21  1  0
 21 22  2  0
 22 23  1  0
 23 24  2  0
 24 25  1  0
 25 26  1  0
 26 27  2  0
 13 28  2  0
  5 29  1  0
 29 30  2  0
 30  2  1  0
 28  9  1  0
 26 17  1  0
 24 19  1  0
  1 31  1  0
  1 32  1  0
  1 33  1  0
  3 34  1  0
  4 35  1  0
  6 36  1  0
 10 37  1  0
 11 38  1  0
 12 39  1  0
 18 40  1  0
 20 41  1  0
 21 42  1  0
 22 43  1  0
 23 44  1  0
 28 45  1  0
 29 46  1  0
 30 47  1  0
M  CHG  1  14  -1
M  END
>  <UniqueID>  (63) 
57

>  <SMILES>  (63) 
Cc1ccc(NC(=O)c2cccc([N-]C(=O)c3cc4ccccc4oc3=O)c2)cc1

>  <Energy>  (63) 
68.65430381197629

>  <Genealogy>  (63) 
Cc1ccc(NC(=O)c2cccc([N-]C(=O)c3cc4ccccc4oc3=O)c2)cc1 (protonated)
Cc1ccc(NC(=O)c2cccc([N-]C(=O)c3cc4ccccc4oc3=O)c2)cc1 (3D coordinates assigned)
Cc1ccc(NC(=O)c2cccc([N-]C(=O)c3cc4ccccc4oc3=O)c2)cc1 (optimized conformer: 68.65430381197629 kcal/mol)

>  <smiles>  (63) 
Cc1ccc(NC(=O)c2cccc(NC(=O)c3cc4ccccc4oc3=O)c2)cc1

>  <score_type>  (63) 
oracle

>  <origin>  (63) 
adg

>  <m_score__min__energy>  (63) 
-11

>  <m_primary>  (63) 
energy

$$$$
63:0
     RDKit          3D

 50 52  0  0  0  0  0  0  0  0999 V2000
   62.5260   34.5610   49.4210 C   0  0  0  0  0  0  0  0  0  0  0  0
   61.3620   33.6650   49.7210 C   0  0  0  0  0  0  0  0  0  0  0  0
   61.3550   33.0270   50.8060 O   0  0  0  0  0  0  0  0  0  0  0  0
   60.2540   33.5440   48.8030 N   0  0  0  0  0  0  0  0  0  0  0  0
   59.9940   34.6110   47.8240 C   0  0  0  0  0  0  0  0  0  0  0  0
   58.6380   34.4230   47.1410 C   0  0  0  0  0  0  0  0  0  0  0  0
   58.5190   33.0380   46.6580 N   0  0  0  0  0  0  0  0  0  0  0  0
   58.2500   32.7570   45.2650 C   0  0  0  0  0  0  0  0  0  0  0  0
   58.2870   33.6850   44.4090 O   0  0  0  0  0  0  0  0  0  0  0  0
   57.9890   31.3820   44.8010 C   0  0  0  0  0  0  0  0  0  0  0  0
   56.6980   30.9940   44.4160 C   0  0  0  0  0  0  0  0  0  0  0  0
   56.4470   29.6700   44.0420 C   0  0  0  0  0  0  0  0  0  0  0  0
   57.4730   28.7220   44.0930 C   0  0  0  0  0  0  0  0  0  0  0  0
   58.7610   29.0900   44.5070 C   0  0  0  0  0  0  0  0  0  0  0  0
   59.7560   28.0660   44.6580 N   0  0  0  0  0  0  0  0  0  0  0  0
   59.8880   26.9800   46.0150 S   0  0  0  0  0  0  0  0  0  0  0  0
   59.6340   27.7340   47.2970 O   0  0  0  0  0  0  0  0  0  0  0  0
   61.2890   26.4260   46.0490 O   0  0  0  0  0  0  0  0  0  0  0  0
   58.7730   25.6190   45.8650 C   0  0  0  0  0  0  0  0  0  0  0  0
   59.2560   24.3130   45.7250 C   0  0  0  0  0  0  0  0  0  0  0  0
   58.3700   23.2340   45.7140 C   0  0  0  0  0  0  0  0  0  0  0  0
   56.9900   23.4590   45.7920 C   0  0  0  0  0  0  0  0  0  0  0  0
   56.4850   24.7650   45.8990 C   0  0  0  0  0  0  0  0  0  0  0  0
   55.0200   24.9940   45.9890 C   0  0  0  0  0  0  0  0  0  0  0  0
   54.5010   26.3300   45.9950 N   0  0  0  0  0  0  0  0  0  0  0  0
   54.2250   24.0200   46.0530 O   0  0  0  0  0  0  0  0  0  0  0  0
   57.3880   25.8450   45.9400 C   0  0  0  0  0  0  0  0  0  0  0  0
   59.0280   30.4380   44.7990 C   0  0  0  0  0  0  0  0  0  0  0  0
   58.8260   31.9320   47.5830 C   0  0  0  0  0  0  0  0  0  0  0  0
   59.2950   32.4350   48.9570 C   0  0  0  0  0  0  0  0  0  0  0  0
   62.9751   34.9067   50.3637 H   0  0  0  0  0  0  0  0  0  0  0  0
   63.2763   34.0051   48.8396 H   0  0  0  0  0  0  0  0  0  0  0  0
   62.1806   35.4286   48.8396 H   0  0  0  0  0  0  0  0  0  0  0  0
   60.0026   35.5816   48.3416 H   0  0  0  0  0  0  0  0  0  0  0  0
   60.7782   34.5728   47.0535 H   0  0  0  0  0  0  0  0  0  0  0  0
   57.8329   34.6304   47.8613 H   0  0  0  0  0  0  0  0  0  0  0  0
   58.5570   35.1158   46.2904 H   0  0  0  0  0  0  0  0  0  0  0  0
   55.8819   31.7315   44.4081 H   0  0  0  0  0  0  0  0  0  0  0  0
   55.4416   29.3745   43.7075 H   0  0  0  0  0  0  0  0  0  0  0  0
   57.2684   27.6799   43.8063 H   0  0  0  0  0  0  0  0  0  0  0  0
   60.3369   24.1360   45.6233 H   0  0  0  0  0  0  0  0  0  0  0  0
   58.7562   22.2064   45.6440 H   0  0  0  0  0  0  0  0  0  0  0  0
   56.2960   22.6059   45.7693 H   0  0  0  0  0  0  0  0  0  0  0  0
   54.9030   27.0880   46.6160 H   0  0  0  0  0  0  0  0  0  0  0  0
   57.0065   26.8727   46.0314 H   0  0  0  0  0  0  0  0  0  0  0  0
   60.0562   30.7553   45.0272 H   0  0  0  0  0  0  0  0  0  0  0  0
   57.9202   31.3230   47.7194 H   0  0  0  0  0  0  0  0  0  0  0  0
   59.6437   31.3422   47.1432 H   0  0  0  0  0  0  0  0  0  0  0  0
   58.4243   32.7867   49.5299 H   0  0  0  0  0  0  0  0  0  0  0  0
   59.7903   31.6084   49.4875 H   0  0  0  0  0  0  0  0  0  0  0  0
  1  2  1  0
  2  3  2  0
  2  4  1  0
  4  5  1  0
  5  6  1  0
  6  7  1  0
  7  8  1  0
  8  9  2  0
  8 10  1  0
 10 11  2  0
 11 12  1  0
 12 13  2  0
 13 14  1  0
 14 15  1  0
 15 16  1  0
 16 17  2  0
 16 18  2  0
 16 19  1  0
 19 20  2  0
 20 21  1  0
 21 22  2  0
 22 23  1  0
 23 24  1  0
 24 25  1  0
 24 26  2  0
 23 27  2  0
 14 28  2  0
  7 29  1  0
 29 30  1  0
 30  4  1  0
 28 10  1  0
 27 19  1  0
  1 31  1  0
  1 32  1  0
  1 33  1  0
  5 34  1  0
  5 35  1  0
  6 36  1  0
  6 37  1  0
 11 38  1  0
 12 39  1  0
 13 40  1  0
 20 41  1  0
 21 42  1  0
 22 43  1  0
 25 44  1  0
 27 45  1  0
 28 46  1  0
 29 47  1  0
 29 48  1  0
 30 49  1  0
 30 50  1  0
M  CHG  2  15  -1  25  -1
M  END
>  <UniqueID>  (64) 
58

>  <SMILES>  (64) 
CC(=O)N1CCN(C(=O)c2cccc([N-]S(=O)(=O)c3cccc(C([NH-])=O)c3)c2)CC1

>  <Energy>  (64) 
58.98501863400156

>  <Genealogy>  (64) 
CC(=O)N1CCN(C(=O)c2cccc([N-]S(=O)(=O)c3cccc(C([NH-])=O)c3)c2)CC1 (protonated)
CC(=O)N1CCN(C(=O)c2cccc([N-]S(=O)(=O)c3cccc(C([NH-])=O)c3)c2)CC1 (3D coordinates assigned)
CC(=O)N1CCN(C(=O)c2cccc([N-]S(=O)(=O)c3cccc(C([NH-])=O)c3)c2)CC1 (nonaromatic ring conformer: 58.98501863400156 kcal/mol)

>  <smiles>  (64) 
CC(=O)N1CCN(C(=O)c2cccc(NS(=O)(=O)c3cccc(C(N)=O)c3)c2)CC1

>  <score_type>  (64) 
oracle

>  <origin>  (64) 
adg

>  <m_score__min__energy>  (64) 
-14.57

>  <m_primary>  (64) 
energy

$$$$
64:0
     RDKit          3D

 52 55  0  0  0  0  0  0  0  0999 V2000
   54.3560   28.9540   44.5350 H   0  0  0  0  0  0  0  0  0  0  0  0
   55.2800   29.1230   44.9120 O   0  0  0  0  0  0  0  0  0  0  0  0
   56.1100   28.0660   45.2760 C   0  0  0  0  0  0  0  0  0  0  0  0
   55.5820   26.9810   45.9020 N   0  0  0  0  0  0  0  0  0  0  0  0
   56.3610   25.9310   46.2670 C   0  0  0  0  0  0  0  0  0  0  0  0
   55.8500   24.9410   46.8500 O   0  0  0  0  0  0  0  0  0  0  0  0
   57.6910   25.9470   45.9970 N   0  0  0  0  0  0  0  0  0  0  0  0
   58.2680   27.0060   45.3720 C   0  0  0  0  0  0  0  0  0  0  0  0
   59.5000   26.9700   45.1080 O   0  0  0  0  0  0  0  0  0  0  0  0
   57.4860   28.1180   45.0110 C   0  0  0  0  0  0  0  0  0  0  0  0
   58.0600   29.2880   44.3100 C   0  0  0  0  0  0  0  0  0  0  0  0
   58.4634   29.1399   43.2974 H   0  0  0  0  0  0  0  0  0  0  0  0
   58.1160   30.5170   44.8390 C   0  0  0  0  0  0  0  0  0  0  0  0
   57.4850   31.8890   44.1000 S   0  0  0  0  0  0  0  0  0  0  0  0
   57.8930   32.9630   45.3280 C   0  0  0  0  0  0  0  0  0  0  0  0
   57.6000   34.2630   45.3050 C   0  0  0  0  0  0  0  0  0  0  0  0
   57.8978   34.9089   46.1441 H   0  0  0  0  0  0  0  0  0  0  0  0
   57.0603   34.6901   44.4469 H   0  0  0  0  0  0  0  0  0  0  0  0
   58.5300   32.2540   46.3550 C   0  0  0  0  0  0  0  0  0  0  0  0
   59.0620   32.8530   47.5970 C   0  0  0  0  0  0  0  0  0  0  0  0
   58.3760   32.7820   48.6530 O   0  0  0  0  0  0  0  0  0  0  0  0
   60.3400   33.5220   47.6180 N   0  0  0  0  0  0  0  0  0  0  0  0
   60.6270   34.5480   48.6280 C   0  0  0  0  0  0  0  0  0  0  0  0
   60.8695   35.4939   48.1216 H   0  0  0  0  0  0  0  0  0  0  0  0
   59.7397   34.6704   49.2666 H   0  0  0  0  0  0  0  0  0  0  0  0
   61.8150   34.1310   49.5120 C   0  0  0  0  0  0  0  0  0  0  0  0
   62.3171   35.0408   49.8728 H   0  0  0  0  0  0  0  0  0  0  0  0
   61.4093   33.5248   50.3354 H   0  0  0  0  0  0  0  0  0  0  0  0
   62.8610   33.2530   48.7690 C   0  0  0  0  0  0  0  0  0  0  0  0
   62.6014   32.2034   48.9712 H   0  0  0  0  0  0  0  0  0  0  0  0
   64.2920   33.4910   49.2980 C   0  0  0  0  0  0  0  0  0  0  0  0
   64.9644   33.6580   48.4436 H   0  0  0  0  0  0  0  0  0  0  0  0
   64.2702   34.3685   49.9610 H   0  0  0  0  0  0  0  0  0  0  0  0
   64.7970   32.3140   50.0940 C   0  0  0  0  0  0  0  0  0  0  0  0
   66.1720   32.1550   50.3410 C   0  0  0  0  0  0  0  0  0  0  0  0
   66.8898   32.8820   49.9333 H   0  0  0  0  0  0  0  0  0  0  0  0
   66.6300   31.0760   51.1030 C   0  0  0  0  0  0  0  0  0  0  0  0
   67.7071   30.9539   51.2898 H   0  0  0  0  0  0  0  0  0  0  0  0
   65.7220   30.1520   51.6280 C   0  0  0  0  0  0  0  0  0  0  0  0
   66.0843   29.3036   52.2272 H   0  0  0  0  0  0  0  0  0  0  0  0
   64.3540   30.3070   51.3910 C   0  0  0  0  0  0  0  0  0  0  0  0
   63.6397   29.5799   51.8047 H   0  0  0  0  0  0  0  0  0  0  0  0
   63.8910   31.3830   50.6300 C   0  0  0  0  0  0  0  0  0  0  0  0
   62.8125   31.5021   50.4495 H   0  0  0  0  0  0  0  0  0  0  0  0
   62.8010   33.4840   47.2490 C   0  0  0  0  0  0  0  0  0  0  0  0
   62.9881   34.5466   47.0349 H   0  0  0  0  0  0  0  0  0  0  0  0
   63.5662   32.8630   46.7602 H   0  0  0  0  0  0  0  0  0  0  0  0
   61.4160   33.0930   46.7090 C   0  0  0  0  0  0  0  0  0  0  0  0
   61.2670   33.5699   45.7290 H   0  0  0  0  0  0  0  0  0  0  0  0
   61.3770   31.9971   46.6220 H   0  0  0  0  0  0  0  0  0  0  0  0
   58.6520   30.8830   46.0750 C   0  0  0  0  0  0  0  0  0  0  0  0
   59.1244   30.1667   46.7633 H   0  0  0  0  0  0  0  0  0  0  0  0
  1  2  1  0
  2  3  1  0
  3  4  1  0
  4  5  1  0
  5  6  2  0
  5  7  1  0
  7  8  1  0
  8  9  2  0
  8 10  1  0
 10 11  1  0
 11 12  1  0
 11 13  2  0
 13 14  1  0
 14 15  1  0
 15 16  2  0
 16 17  1  0
 16 18  1  0
 15 19  1  0
 19 20  1  0
 20 21  2  0
 20 22  1  0
 22 23  1  0
 23 24  1  0
 23 25  1  0
 23 26  1  0
 26 27  1  0
 26 28  1  0
 26 29  1  0
 29 30  1  0
 29 31  1  0
 31 32  1  0
 31 33  1  0
 31 34  1  0
 34 35  2  0
 35 36  1  0
 35 37  1  0
 37 38  1  0
 37 39  2  0
 39 40  1  0
 39 41  1  0
 41 42  1  0
 41 43  2  0
 43 44  1  0
 29 45  1  0
 45 46  1  0
 45 47  1  0
 45 48  1  0
 48 49  1  0
 48 50  1  0
 19 51  2  0
 51 52  1  0
 10  3  2  0
 51 13  1  0
 48 22  1  0
 43 34  1  0
M  CHG  2   4  -1   7  -1
M  END
>  <UniqueID>  (65) 
59

>  <SMILES>  (65) 
C=c1s/c(=C/c2c(O)[n-]c(=O)[n-]c2=O)cc1C(=O)N1CCC(Cc2ccccc2)CC1

>  <Energy>  (65) 
96.31157635699022

>  <Genealogy>  (65) 
C=c1sc(=Cc2c(O)[n-]c(=O)[n-]c2=O)cc1C(=O)N1CCC(Cc2ccccc2)CC1 (protonated)
C=c1s/c(=C/c2c(O)[n-]c(=O)[n-]c2=O)cc1C(=O)N1CCC(Cc2ccccc2)CC1 (cis-trans isomerization)
C=c1s/c(=C/c2c(O)[n-]c(=O)[n-]c2=O)cc1C(=O)N1CCC(Cc2ccccc2)CC1 (3D coordinates assigned)
C=c1s/c(=C/c2c(O)[n-]c(=O)[n-]c2=O)cc1C(=O)N1CCC(Cc2ccccc2)CC1 (nonaromatic ring conformer: 96.31157635699022 kcal/mol)

>  <smiles>  (65) 
C=c1sc(=Cc2c(O)[nH]c(=O)[nH]c2=O)cc1C(=O)N1CCC(Cc2ccccc2)CC1

>  <score_type>  (65) 
oracle

>  <origin>  (65) 
adg

>  <m_score__min__energy>  (65) 
-14.6

>  <m_primary>  (65) 
energy

$$$$
65:0
     RDKit          3D

 49 51  0  0  0  0  0  0  0  0999 V2000
   58.2040   26.6250   46.0990 C   0  0  0  0  0  0  0  0  0  0  0  0
   57.5640   26.8460   44.9440 C   0  0  0  0  0  0  0  0  0  0  0  0
   58.2020   27.7830   43.9420 C   0  0  0  0  0  0  0  0  0  0  0  0
   57.5640   29.0960   44.0260 N   0  0  0  0  0  0  0  0  0  0  0  0
   56.5440   29.4290   43.0590 C   0  0  0  0  0  0  0  0  0  0  0  0
   55.2380   29.8660   43.6750 C   0  0  0  0  0  0  0  0  0  0  0  0
   55.2100   29.3440   44.9790 O   0  0  0  0  0  0  0  0  0  0  0  0
   58.0190   29.9500   45.0570 C   0  0  0  0  0  0  0  0  0  0  0  0
   57.3650   31.1030   45.2770 N   0  0  0  0  0  0  0  0  0  0  0  0
   57.7740   31.9230   46.2380 C   0  0  0  0  0  0  0  0  0  0  0  0
   57.1380   32.9930   46.4160 O   0  0  0  0  0  0  0  0  0  0  0  0
   58.8810   31.5790   47.0100 C   0  0  0  0  0  0  0  0  0  0  0  0
   59.2320   32.5230   48.0650 C   0  0  0  0  0  0  0  0  0  0  0  0
   59.8470   33.7310   47.8480 C   0  0  0  0  0  0  0  0  0  0  0  0
   60.1590   34.5860   48.9170 C   0  0  0  0  0  0  0  0  0  0  0  0
   59.8440   34.2080   50.2090 C   0  0  0  0  0  0  0  0  0  0  0  0
   59.2190   32.9780   50.4120 C   0  0  0  0  0  0  0  0  0  0  0  0
   58.9050   32.1270   49.3760 C   0  0  0  0  0  0  0  0  0  0  0  0
   59.5750   30.3890   46.7960 C   0  0  0  0  0  0  0  0  0  0  0  0
   60.7070   30.1060   47.6290 C   0  0  0  0  0  0  0  0  0  0  0  0
   60.7330   28.9200   48.1480 O   0  0  0  0  0  0  0  0  0  0  0  0
   61.8230   30.9390   47.9730 C   0  0  0  0  0  0  0  0  0  0  0  0
   62.2070   30.9520   49.3200 C   0  0  0  0  0  0  0  0  0  0  0  0
   63.2310   31.7020   49.8150 C   0  0  0  0  0  0  0  0  0  0  0  0
   63.9460   32.4980   48.9660 C   0  0  0  0  0  0  0  0  0  0  0  0
   64.9590   33.2320   49.4700 F   0  0  0  0  0  0  0  0  0  0  0  0
   63.6000   32.5140   47.6390 C   0  0  0  0  0  0  0  0  0  0  0  0
   62.5440   31.7410   47.1380 C   0  0  0  0  0  0  0  0  0  0  0  0
   59.1040   29.6100   45.8100 N   0  0  0  0  0  0  0  0  0  0  0  0
   57.7674   25.9492   46.8491 H   0  0  0  0  0  0  0  0  0  0  0  0
   59.1664   27.1192   46.2978 H   0  0  0  0  0  0  0  0  0  0  0  0
   56.6009   26.3598   44.7295 H   0  0  0  0  0  0  0  0  0  0  0  0
   59.2748   27.8819   44.1642 H   0  0  0  0  0  0  0  0  0  0  0  0
   58.0730   27.3774   42.9277 H   0  0  0  0  0  0  0  0  0  0  0  0
   56.9198   30.2470   42.4268 H   0  0  0  0  0  0  0  0  0  0  0  0
   56.3364   28.5137   42.4854 H   0  0  0  0  0  0  0  0  0  0  0  0
   55.1822   30.9642   43.7053 H   0  0  0  0  0  0  0  0  0  0  0  0
   54.3827   29.5033   43.0860 H   0  0  0  0  0  0  0  0  0  0  0  0
   55.4800   30.0680   45.5980 H   0  0  0  0  0  0  0  0  0  0  0  0
   60.0992   34.0337   46.8210 H   0  0  0  0  0  0  0  0  0  0  0  0
   60.6513   35.5513   48.7276 H   0  0  0  0  0  0  0  0  0  0  0  0
   60.0815   34.8640   51.0594 H   0  0  0  0  0  0  0  0  0  0  0  0
   58.9671   32.6760   51.4393 H   0  0  0  0  0  0  0  0  0  0  0  0
   58.4115   31.1628   49.5676 H   0  0  0  0  0  0  0  0  0  0  0  0
   61.6468   30.3170   50.0220 H   0  0  0  0  0  0  0  0  0  0  0  0
   63.4791   31.6669   50.8861 H   0  0  0  0  0  0  0  0  0  0  0  0
   64.1685   33.1528   46.9471 H   0  0  0  0  0  0  0  0  0  0  0  0
   62.2956   31.7812   46.0672 H   0  0  0  0  0  0  0  0  0  0  0  0
   59.5320   28.7120   45.5950 H   0  0  0  0  0  0  0  0  0  0  0  0
  1  2  2  0
  2  3  1  0
  3  4  1  0
  4  5  1  0
  5  6  1  0
  6  7  1  0
  4  8  1  0
  8  9  2  0
  9 10  1  0
 10 11  2  0
 10 12  1  0
 12 13  1  0
 13 14  2  0
 14 15  1  0
 15 16  2  0
 16 17  1  0
 17 18  2  0
 12 19  2  0
 19 20  1  0
 20 21  2  0
 20 22  1  0
 22 23  2  0
 23 24  1  0
 24 25  2  0
 25 26  1  0
 25 27  1  0
 27 28  2  0
 19 29  1  0
 29  8  1  0
 18 13  1  0
 28 22  1  0
  1 30  1  0
  1 31  1  0
  2 32  1  0
  3 33  1  0
  3 34  1  0
  5 35  1  0
  5 36  1  0
  6 37  1  0
  6 38  1  0
  7 39  1  0
 14 40  1  0
 15 41  1  0
 16 42  1  0
 17 43  1  0
 18 44  1  0
 23 45  1  0
 24 46  1  0
 27 47  1  0
 28 48  1  0
 29 49  1  0
M  END
>  <smiles>  (66) 
C=CCN(CCO)c1nc(=O)c(-c2ccccc2)c(C(=O)c2ccc(F)cc2)[nH]1

>  <score_type>  (66) 
oracle

>  <origin>  (66) 
adg

>  <m_score__min__energy>  (66) 
-8.5600000000000005

>  <m_primary>  (66) 
energy

$$$$
66:0
     RDKit          3D

 75 79  0  0  0  0  0  0  0  0999 V2000
   61.0490   27.2590   50.7320 O   0  0  0  0  0  0  0  0  0  0  0  0
   60.5090   28.1380   50.0070 C   0  0  0  0  0  0  0  0  0  0  0  0
   60.3410   27.8870   48.5430 C   0  0  0  0  0  0  0  0  0  0  0  0
   60.1340   26.3940   48.2860 C   0  0  0  0  0  0  0  0  0  0  0  0
   59.2590   26.1920   47.1350 N   0  0  0  0  0  0  0  0  0  0  0  0
   59.4390   26.7730   45.9600 N   0  0  0  0  0  0  0  0  0  0  0  0
   58.4420   26.3730   45.1420 C   0  0  0  0  0  0  0  0  0  0  0  0
   58.1950   27.0030   43.8000 C   0  0  0  0  0  0  0  0  0  0  0  0
   57.8370   28.4560   43.9740 C   0  0  0  0  0  0  0  0  0  0  0  0
   58.6530   29.2890   44.7580 C   0  0  0  0  0  0  0  0  0  0  0  0
   58.2690   30.6040   45.0210 C   0  0  0  0  0  0  0  0  0  0  0  0
   57.0630   31.1010   44.5110 C   0  0  0  0  0  0  0  0  0  0  0  0
   56.6390   32.3920   44.8200 O   0  0  0  0  0  0  0  0  0  0  0  0
   57.7420   33.6950   44.8630 S   0  0  0  0  0  0  0  0  0  0  0  0
   58.7560   33.5240   43.7670 O   0  0  0  0  0  0  0  0  0  0  0  0
   56.9990   34.9790   44.6290 O   0  0  0  0  0  0  0  0  0  0  0  0
   58.5670   33.7680   46.4180 C   0  0  0  0  0  0  0  0  0  0  0  0
   58.1130   32.9900   47.4960 C   0  0  0  0  0  0  0  0  0  0  0  0
   58.7850   33.0280   48.7220 C   0  0  0  0  0  0  0  0  0  0  0  0
   59.9130   33.8380   48.8760 C   0  0  0  0  0  0  0  0  0  0  0  0
   60.3730   34.6100   47.8040 C   0  0  0  0  0  0  0  0  0  0  0  0
   59.7040   34.5730   46.5760 C   0  0  0  0  0  0  0  0  0  0  0  0
   56.2740   30.2930   43.6860 C   0  0  0  0  0  0  0  0  0  0  0  0
   56.6550   28.9760   43.4210 C   0  0  0  0  0  0  0  0  0  0  0  0
   57.5890   25.5150   45.8330 C   0  0  0  0  0  0  0  0  0  0  0  0
   56.3120   24.9390   45.3800 C   0  0  0  0  0  0  0  0  0  0  0  0
   55.1980   25.1610   45.9870 N   0  0  0  0  0  0  0  0  0  0  0  0
   54.1160   24.4660   45.3000 C   0  0  0  0  0  0  0  0  0  0  0  0
   54.7920   23.7220   44.1380 C   0  0  0  0  0  0  0  0  0  0  0  0
   56.1900   24.0900   44.2560 N   0  0  0  0  0  0  0  0  0  0  0  0
   58.1480   25.4340   47.0950 C   0  0  0  0  0  0  0  0  0  0  0  0
   57.6680   24.6970   48.1780 O   0  0  0  0  0  0  0  0  0  0  0  0
   60.0090   29.3500   50.5810 N   0  0  0  0  0  0  0  0  0  0  0  0
   60.8100   30.2490   51.4060 C   0  0  0  0  0  0  0  0  0  0  0  0
   61.2660   31.4610   50.5840 C   0  0  0  0  0  0  0  0  0  0  0  0
   62.2580   31.0720   49.5550 N   0  0  0  0  0  0  0  0  0  0  0  0
   61.6960   31.1910   48.1850 C   0  0  0  0  0  0  0  0  0  0  0  0
   62.8020   31.3530   47.1320 C   0  0  0  0  0  0  0  0  0  0  0  0
   63.5840   32.5830   47.3520 N   0  0  0  0  0  0  0  0  0  0  0  0
   63.6730   32.9870   48.7690 C   0  0  0  0  0  0  0  0  0  0  0  0
   63.5490   31.7880   49.7220 C   0  0  0  0  0  0  0  0  0  0  0  0
   59.4661   28.4440   48.1765 H   0  0  0  0  0  0  0  0  0  0  0  0
   61.2459   28.2212   48.0144 H   0  0  0  0  0  0  0  0  0  0  0  0
   61.1077   25.9219   48.0883 H   0  0  0  0  0  0  0  0  0  0  0  0
   59.6671   25.9407   49.1729 H   0  0  0  0  0  0  0  0  0  0  0  0
   59.1043   26.9223   43.1862 H   0  0  0  0  0  0  0  0  0  0  0  0
   57.3635   26.4821   43.3028 H   0  0  0  0  0  0  0  0  0  0  0  0
   59.5986   28.9025   45.1661 H   0  0  0  0  0  0  0  0  0  0  0  0
   58.9153   31.2525   45.6307 H   0  0  0  0  0  0  0  0  0  0  0  0
   57.2269   32.3494   47.3756 H   0  0  0  0  0  0  0  0  0  0  0  0
   58.4254   32.4200   49.5652 H   0  0  0  0  0  0  0  0  0  0  0  0
   60.4398   33.8687   49.8411 H   0  0  0  0  0  0  0  0  0  0  0  0
   61.2616   35.2467   47.9267 H   0  0  0  0  0  0  0  0  0  0  0  0
   60.0707   35.1767   45.7327 H   0  0  0  0  0  0  0  0  0  0  0  0
   55.3506   30.6961   43.2446 H   0  0  0  0  0  0  0  0  0  0  0  0
   56.0270   28.3432   42.7766 H   0  0  0  0  0  0  0  0  0  0  0  0
   53.6217   23.7549   45.9783 H   0  0  0  0  0  0  0  0  0  0  0  0
   53.3384   25.1600   44.9482 H   0  0  0  0  0  0  0  0  0  0  0  0
   54.6633   22.6345   44.2416 H   0  0  0  0  0  0  0  0  0  0  0  0
   54.3647   23.9853   43.1592 H   0  0  0  0  0  0  0  0  0  0  0  0
   56.9710   23.6910   43.6900 H   0  0  0  0  0  0  0  0  0  0  0  0
   56.7050   24.3860   48.2240 H   0  0  0  0  0  0  0  0  0  0  0  0
   60.2059   30.5947   52.2578 H   0  0  0  0  0  0  0  0  0  0  0  0
   61.6967   29.7079   51.7679 H   0  0  0  0  0  0  0  0  0  0  0  0
   60.3913   31.9068   50.0878 H   0  0  0  0  0  0  0  0  0  0  0  0
   61.7382   32.1842   51.2651 H   0  0  0  0  0  0  0  0  0  0  0  0
   61.1162   30.2844   47.9571 H   0  0  0  0  0  0  0  0  0  0  0  0
   61.0563   32.0852   48.1522 H   0  0  0  0  0  0  0  0  0  0  0  0
   63.4770   30.4862   47.1868 H   0  0  0  0  0  0  0  0  0  0  0  0
   62.3276   31.4191   46.1418 H   0  0  0  0  0  0  0  0  0  0  0  0
   64.5510   32.4210   46.9860 H   0  0  0  0  0  0  0  0  0  0  0  0
   64.6441   33.4752   48.9381 H   0  0  0  0  0  0  0  0  0  0  0  0
   62.8389   33.6730   48.9782 H   0  0  0  0  0  0  0  0  0  0  0  0
   64.3721   31.0871   49.5190 H   0  0  0  0  0  0  0  0  0  0  0  0
   63.5940   32.1689   50.7530 H   0  0  0  0  0  0  0  0  0  0  0  0
  1  2  2  0
  2  3  1  0
  3  4  1  0
  4  5  1  0
  5  6  1  0
  6  7  2  0
  7  8  1  0
  8  9  1  0
  9 10  2  0
 10 11  1  0
 11 12  2  0
 12 13  1  0
 13 14  1  0
 14 15  2  0
 14 16  2  0
 14 17  1  0
 17 18  2  0
 18 19  1  0
 19 20  2  0
 20 21  1  0
 21 22  2  0
 12 23  1  0
 23 24  2  0
  7 25  1  0
 25 26  1  0
 26 27  2  0
 27 28  1  0
 28 29  1  0
 29 30  1  0
 25 31  2  0
 31 32  1  0
  2 33  1  0
 33 34  1  0
 34 35  1  0
 35 36  1  0
 36 37  1  0
 37 38  1  0
 38 39  1  0
 39 40  1  0
 40 41  1  0
 31  5  1  0
 41 36  1  0
 24  9  1  0
 30 26  1  0
 22 17  1  0
  3 42  1  0
  3 43  1  0
  4 44  1  0
  4 45  1  0
  8 46  1  0
  8 47  1  0
 10 48  1  0
 11 49  1  0
 18 50  1  0
 19 51  1  0
 20 52  1  0
 21 53  1  0
 22 54  1  0
 23 55  1  0
 24 56  1  0
 28 57  1  0
 28 58  1  0
 29 59  1  0
 29 60  1  0
 30 61  1  0
 32 62  1  0
 34 63  1  0
 34 64  1  0
 35 65  1  0
 35 66  1  0
 37 67  1  0
 37 68  1  0
 38 69  1  0
 38 70  1  0
 39 71  1  0
 40 72  1  0
 40 73  1  0
 41 74  1  0
 41 75  1  0
M  CHG  1  33  -1
M  END
>  <UniqueID>  (67) 
60

>  <SMILES>  (67) 
O=C(CCn1nc(Cc2ccc(OS(=O)(=O)c3ccccc3)cc2)c(C2=NCCN2)c1O)[N-]CCN1CCNCC1

>  <Energy>  (67) 
131.2959673883893

>  <Genealogy>  (67) 
O=C(CCn1nc(Cc2ccc(OS(=O)(=O)c3ccccc3)cc2)c(C2=NCCN2)c1O)[N-]CCN1CCNCC1 (protonated)
O=C(CCn1nc(Cc2ccc(OS(=O)(=O)c3ccccc3)cc2)c(C2=NCCN2)c1O)[N-]CCN1CCNCC1 (3D coordinates assigned)
O=C(CCn1nc(Cc2ccc(OS(=O)(=O)c3ccccc3)cc2)c(C2=NCCN2)c1O)[N-]CCN1CCNCC1 (nonaromatic ring conformer: 131.2959673883893 kcal/mol)

>  <smiles>  (67) 
O=C(CCn1nc(Cc2ccc(OS(=O)(=O)c3ccccc3)cc2)c(C2=NCCN2)c1O)NCCN1CCNCC1

>  <score_type>  (67) 
oracle

>  <origin>  (67) 
adg

>  <m_score__min__energy>  (67) 
-13.85

>  <m_primary>  (67) 
energy

$$$$
67:0
     RDKit          3D

 53 55  0  0  0  0  0  0  0  0999 V2000
   55.1610   29.3430   44.8180 O   0  0  0  0  0  0  0  0  0  0  0  0
   56.3520   29.7500   44.8720 C   0  0  0  0  0  0  0  0  0  0  0  0
   56.6160   31.1360   44.6160 N   0  0  0  0  0  0  0  0  0  0  0  0
   57.6100   31.9780   45.2810 C   0  0  0  0  0  0  0  0  0  0  0  0
   57.2430   33.4680   45.2230 C   0  0  0  0  0  0  0  0  0  0  0  0
   58.4700   34.3610   44.9920 C   0  0  0  0  0  0  0  0  0  0  0  0
   59.0290   34.9160   46.3090 C   0  0  0  0  0  0  0  0  0  0  0  0
   60.4550   34.8290   46.3570 O   0  0  0  0  0  0  0  0  0  0  0  0
   61.1990   33.7000   46.7350 C   0  0  0  0  0  0  0  0  0  0  0  0
   62.5820   33.8460   46.8890 C   0  0  0  0  0  0  0  0  0  0  0  0
   63.3720   32.7590   47.2620 C   0  0  0  0  0  0  0  0  0  0  0  0
   62.7860   31.5120   47.4890 C   0  0  0  0  0  0  0  0  0  0  0  0
   61.4030   31.3370   47.3390 C   0  0  0  0  0  0  0  0  0  0  0  0
   60.8300   30.0360   47.5840 N   0  0  0  0  0  0  0  0  0  0  0  0
   59.4130   29.7920   47.8570 C   0  0  0  0  0  0  0  0  0  0  0  0
   59.0090   30.3920   49.1800 C   0  0  0  0  0  0  0  0  0  0  0  0
   58.5410   31.7150   49.2500 C   0  0  0  0  0  0  0  0  0  0  0  0
   58.1720   32.2670   50.4810 C   0  0  0  0  0  0  0  0  0  0  0  0
   58.2760   31.5070   51.6490 C   0  0  0  0  0  0  0  0  0  0  0  0
   58.7550   30.1960   51.5900 C   0  0  0  0  0  0  0  0  0  0  0  0
   59.1240   29.6390   50.3620 C   0  0  0  0  0  0  0  0  0  0  0  0
   60.6130   32.4390   46.9560 C   0  0  0  0  0  0  0  0  0  0  0  0
   57.4230   28.7770   45.1660 C   0  0  0  0  0  0  0  0  0  0  0  0
   57.1690   27.6320   45.9380 C   0  0  0  0  0  0  0  0  0  0  0  0
   58.1950   26.7210   46.2060 C   0  0  0  0  0  0  0  0  0  0  0  0
   59.4760   26.9370   45.6900 C   0  0  0  0  0  0  0  0  0  0  0  0
   59.7300   28.0590   44.8970 C   0  0  0  0  0  0  0  0  0  0  0  0
   58.7060   28.9730   44.6290 C   0  0  0  0  0  0  0  0  0  0  0  0
   57.6842   31.6726   46.3351 H   0  0  0  0  0  0  0  0  0  0  0  0
   58.5680   31.8464   44.7566 H   0  0  0  0  0  0  0  0  0  0  0  0
   56.5309   33.6252   44.3995 H   0  0  0  0  0  0  0  0  0  0  0  0
   56.8030   33.7445   46.1925 H   0  0  0  0  0  0  0  0  0  0  0  0
   59.2525   33.7688   44.4949 H   0  0  0  0  0  0  0  0  0  0  0  0
   58.1601   35.2118   44.3674 H   0  0  0  0  0  0  0  0  0  0  0  0
   58.7329   35.9710   46.4054 H   0  0  0  0  0  0  0  0  0  0  0  0
   58.6210   34.3148   47.1349 H   0  0  0  0  0  0  0  0  0  0  0  0
   63.0499   34.8261   46.7144 H   0  0  0  0  0  0  0  0  0  0  0  0
   64.4587   32.8841   47.3776 H   0  0  0  0  0  0  0  0  0  0  0  0
   63.4145   30.6601   47.7879 H   0  0  0  0  0  0  0  0  0  0  0  0
   61.4620   29.2040   47.5740 H   0  0  0  0  0  0  0  0  0  0  0  0
   58.8089   30.2445   47.0568 H   0  0  0  0  0  0  0  0  0  0  0  0
   59.2448   28.7057   47.8977 H   0  0  0  0  0  0  0  0  0  0  0  0
   58.4646   32.3186   48.3336 H   0  0  0  0  0  0  0  0  0  0  0  0
   57.7994   33.3008   50.5298 H   0  0  0  0  0  0  0  0  0  0  0  0
   57.9805   31.9413   52.6155 H   0  0  0  0  0  0  0  0  0  0  0  0
   58.8419   29.6011   52.5112 H   0  0  0  0  0  0  0  0  0  0  0  0
   59.5056   28.6082   50.3202 H   0  0  0  0  0  0  0  0  0  0  0  0
   59.5277   32.3129   46.8284 H   0  0  0  0  0  0  0  0  0  0  0  0
   56.1586   27.4511   46.3335 H   0  0  0  0  0  0  0  0  0  0  0  0
   57.9940   25.8332   46.8236 H   0  0  0  0  0  0  0  0  0  0  0  0
   60.2843   26.2235   45.9083 H   0  0  0  0  0  0  0  0  0  0  0  0
   60.7359   28.2235   44.4833 H   0  0  0  0  0  0  0  0  0  0  0  0
   58.9062   29.8492   43.9949 H   0  0  0  0  0  0  0  0  0  0  0  0
  1  2  2  0
  2  3  1  0
  3  4  1  0
  4  5  1  0
  5  6  1  0
  6  7  1  0
  7  8  1  0
  8  9  1  0
  9 10  2  0
 10 11  1  0
 11 12  2  0
 12 13  1  0
 13 14  1  0
 14 15  1  0
 15 16  1  0
 16 17  2  0
 17 18  1  0
 18 19  2  0
 19 20  1  0
 20 21  2  0
 13 22  2  0
  2 23  1  0
 23 24  2  0
 24 25  1  0
 25 26  2  0
 26 27  1  0
 27 28  2  0
 22  9  1  0
 28 23  1  0
 21 16  1  0
  4 29  1  0
  4 30  1  0
  5 31  1  0
  5 32  1  0
  6 33  1  0
  6 34  1  0
  7 35  1  0
  7 36  1  0
 10 37  1  0
 11 38  1  0
 12 39  1  0
 14 40  1  0
 15 41  1  0
 15 42  1  0
 17 43  1  0
 18 44  1  0
 19 45  1  0
 20 46  1  0
 21 47  1  0
 22 48  1  0
 24 49  1  0
 25 50  1  0
 26 51  1  0
 27 52  1  0
 28 53  1  0
M  CHG  1   3  -1
M  END
>  <UniqueID>  (68) 
61

>  <SMILES>  (68) 
O=C([N-]CCCCOc1cccc(NCc2ccccc2)c1)c1ccccc1

>  <Energy>  (68) 
49.26251060135624

>  <Genealogy>  (68) 
O=C([N-]CCCCOc1cccc(NCc2ccccc2)c1)c1ccccc1 (protonated)
O=C([N-]CCCCOc1cccc(NCc2ccccc2)c1)c1ccccc1 (3D coordinates assigned)
O=C([N-]CCCCOc1cccc(NCc2ccccc2)c1)c1ccccc1 (optimized conformer: 49.26251060135624 kcal/mol)

>  <smiles>  (68) 
O=C(NCCCCOc1cccc(NCc2ccccc2)c1)c1ccccc1

>  <score_type>  (68) 
oracle

>  <origin>  (68) 
adg

>  <m_score__min__energy>  (68) 
-11.449999999999999

>  <m_primary>  (68) 
energy

$$$$
68:0
     RDKit          3D

 60 63  0  0  0  0  0  0  0  0999 V2000
   55.9980   20.2340   44.7730 C   0  0  0  0  0  0  0  0  0  0  0  0
   57.0510   21.3390   44.5950 C   0  0  1  0  0  0  0  0  0  0  0  0
   57.1180   21.8080   43.1260 C   0  0  0  0  0  0  0  0  0  0  0  0
   55.9060   22.6700   42.7350 C   0  0  0  0  0  0  0  0  0  0  0  0
   55.4590   23.6110   43.8700 C   0  0  0  0  0  0  0  0  0  0  0  0
   56.5410   23.7900   44.8510 N   0  0  0  0  0  0  0  0  0  0  0  0
   56.1230   25.0500   45.9870 S   0  0  0  0  0  0  0  0  0  0  0  0
   56.0320   24.4640   47.3680 O   0  0  0  0  0  0  0  0  0  0  0  0
   54.7740   25.6140   45.6330 O   0  0  0  0  0  0  0  0  0  0  0  0
   57.3180   26.3490   45.9850 C   0  0  0  0  0  0  0  0  0  0  0  0
   57.8180   26.8450   47.1950 C   0  0  0  0  0  0  0  0  0  0  0  0
   58.7720   27.8660   47.1960 C   0  0  0  0  0  0  0  0  0  0  0  0
   59.2460   28.4050   45.9860 C   0  0  0  0  0  0  0  0  0  0  0  0
   60.2490   29.4980   45.9980 C   0  0  0  0  0  0  0  0  0  0  0  0
   61.3080   29.3790   45.3230 O   0  0  0  0  0  0  0  0  0  0  0  0
   60.0220   30.7030   46.7470 N   0  0  0  0  0  0  0  0  0  0  0  0
   61.0860   31.6050   47.0830 C   0  0  0  0  0  0  0  0  0  0  0  0
   62.3370   31.0770   47.4330 C   0  0  0  0  0  0  0  0  0  0  0  0
   63.3840   31.9230   47.8090 C   0  0  0  0  0  0  0  0  0  0  0  0
   63.1930   33.3050   47.8260 C   0  0  0  0  0  0  0  0  0  0  0  0
   61.9600   33.8460   47.4530 C   0  0  0  0  0  0  0  0  0  0  0  0
   60.9010   33.0080   47.0690 C   0  0  0  0  0  0  0  0  0  0  0  0
   59.6810   33.5990   46.5880 N   0  0  0  0  0  0  0  0  0  0  0  0
   58.4510   33.4580   47.3760 C   0  0  0  0  0  0  0  0  0  0  0  0
   57.2330   33.7960   46.5210 C   0  0  0  0  0  0  0  0  0  0  0  0
   57.3920   33.2150   45.2460 O   0  0  0  0  0  0  0  0  0  0  0  0
   58.3570   33.9340   44.4960 C   0  0  0  0  0  0  0  0  0  0  0  0
   59.6500   34.2680   45.2800 C   0  0  0  0  0  0  0  0  0  0  0  0
   58.7320   27.9060   44.7740 C   0  0  0  0  0  0  0  0  0  0  0  0
   57.7760   26.8860   44.7770 C   0  0  0  0  0  0  0  0  0  0  0  0
   56.8000   22.5260   45.5690 C   0  0  0  0  0  0  0  0  0  0  0  0
   55.8296   20.0573   45.8456 H   0  0  0  0  0  0  0  0  0  0  0  0
   55.0551   20.5465   44.3004 H   0  0  0  0  0  0  0  0  0  0  0  0
   56.3555   19.3073   44.3004 H   0  0  0  0  0  0  0  0  0  0  0  0
   58.0326   20.9140   44.8515 H   0  0  0  0  0  0  0  0  0  0  0  0
   58.0341   22.4002   42.9848 H   0  0  0  0  0  0  0  0  0  0  0  0
   57.1165   20.9135   42.4858 H   0  0  0  0  0  0  0  0  0  0  0  0
   56.1738   23.2777   41.8581 H   0  0  0  0  0  0  0  0  0  0  0  0
   55.0695   21.9900   42.5164 H   0  0  0  0  0  0  0  0  0  0  0  0
   55.1916   24.5894   43.4442 H   0  0  0  0  0  0  0  0  0  0  0  0
   54.5902   23.1665   44.3776 H   0  0  0  0  0  0  0  0  0  0  0  0
   57.4587   26.4296   48.1481 H   0  0  0  0  0  0  0  0  0  0  0  0
   59.1560   28.2519   48.1518 H   0  0  0  0  0  0  0  0  0  0  0  0
   59.0400   31.0390   46.8630 H   0  0  0  0  0  0  0  0  0  0  0  0
   62.4955   29.9887   47.4115 H   0  0  0  0  0  0  0  0  0  0  0  0
   64.3589   31.4992   48.0916 H   0  0  0  0  0  0  0  0  0  0  0  0
   64.0141   33.9694   48.1334 H   0  0  0  0  0  0  0  0  0  0  0  0
   61.8179   34.9368   47.4602 H   0  0  0  0  0  0  0  0  0  0  0  0
   58.3664   32.4215   47.7345 H   0  0  0  0  0  0  0  0  0  0  0  0
   58.4918   34.1498   48.2302 H   0  0  0  0  0  0  0  0  0  0  0  0
   56.3255   33.3969   46.9976 H   0  0  0  0  0  0  0  0  0  0  0  0
   57.1389   34.8876   46.4230 H   0  0  0  0  0  0  0  0  0  0  0  0
   58.6318   33.3302   43.6185 H   0  0  0  0  0  0  0  0  0  0  0  0
   57.8948   34.8946   44.2245 H   0  0  0  0  0  0  0  0  0  0  0  0
   60.5189   33.9394   44.6909 H   0  0  0  0  0  0  0  0  0  0  0  0
   59.6768   35.3545   45.4500 H   0  0  0  0  0  0  0  0  0  0  0  0
   59.0849   28.3214   43.8185 H   0  0  0  0  0  0  0  0  0  0  0  0
   57.3816   26.5034   43.8241 H   0  0  0  0  0  0  0  0  0  0  0  0
   57.6874   22.6556   46.2060 H   0  0  0  0  0  0  0  0  0  0  0  0
   55.9088   22.2889   46.1685 H   0  0  0  0  0  0  0  0  0  0  0  0
  1  2  1  0
  2  3  1  0
  3  4  1  0
  4  5  1  0
  5  6  1  0
  6  7  1  0
  7  8  2  0
  7  9  2  0
  7 10  1  0
 10 11  2  0
 11 12  1  0
 12 13  2  0
 13 14  1  0
 14 15  2  0
 14 16  1  0
 16 17  1  0
 17 18  2  0
 18 19  1  0
 19 20  2  0
 20 21  1  0
 21 22  2  0
 22 23  1  0
 23 24  1  0
 24 25  1  0
 25 26  1  0
 26 27  1  0
 27 28  1  0
 13 29  1  0
 29 30  2  0
  6 31  1  0
 31  2  1  0
 30 10  1  0
 22 17  1  0
 28 23  1  0
  1 32  1  0
  1 33  1  0
  1 34  1  0
  2 35  1  1
  3 36  1  0
  3 37  1  0
  4 38  1  0
  4 39  1  0
  5 40  1  0
  5 41  1  0
 11 42  1  0
 12 43  1  0
 16 44  1  0
 18 45  1  0
 19 46  1  0
 20 47  1  0
 21 48  1  0
 24 49  1  0
 24 50  1  0
 25 51  1  0
 25 52  1  0
 27 53  1  0
 27 54  1  0
 28 55  1  0
 28 56  1  0
 29 57  1  0
 30 58  1  0
 31 59  1  0
 31 60  1  0
M  END
>  <UniqueID>  (69) 
62

>  <SMILES>  (69) 
C[C@H]1CCCN(S(=O)(=O)c2ccc(C(=O)Nc3ccccc3N3CCOCC3)cc2)C1

>  <Energy>  (69) 
81.80748248180979

>  <Genealogy>  (69) 
C[C@H]1CCCN(S(=O)(=O)c2ccc(C(=O)Nc3ccccc3N3CCOCC3)cc2)C1 (chirality)
C[C@H]1CCCN(S(=O)(=O)c2ccc(C(=O)Nc3ccccc3N3CCOCC3)cc2)C1 (3D coordinates assigned)
C[C@H]1CCCN(S(=O)(=O)c2ccc(C(=O)Nc3ccccc3N3CCOCC3)cc2)C1 (nonaromatic ring conformer: 81.80748248180979 kcal/mol)

>  <smiles>  (69) 
CC1CCCN(S(=O)(=O)c2ccc(C(=O)Nc3ccccc3N3CCOCC3)cc2)C1

>  <score_type>  (69) 
oracle

>  <origin>  (69) 
adg

>  <m_score__min__energy>  (69) 
-9.5199999999999996

>  <m_primary>  (69) 
energy

$$$$
69:0
     RDKit          3D

 52 54  0  0  0  0  0  0  0  0999 V2000
   65.3380   33.0860   53.2200 C   0  0  0  0  0  0  0  0  0  0  0  0
   64.6080   32.9090   51.8830 C   0  0  0  0  0  0  0  0  0  0  0  0
   65.5220   32.2450   50.8280 C   0  0  0  0  0  0  0  0  0  0  0  0
   65.2630   32.7220   49.3900 C   0  0  0  0  0  0  0  0  0  0  0  0
   63.8510   33.0950   49.1780 N   0  0  0  0  0  0  0  0  0  0  0  0
   63.2430   32.8630   47.8840 C   0  0  0  0  0  0  0  0  0  0  0  0
   63.9700   32.5690   46.8920 O   0  0  0  0  0  0  0  0  0  0  0  0
   61.7880   33.0010   47.6610 C   0  0  0  0  0  0  0  0  0  0  0  0
   61.1590   34.2550   47.7380 C   0  0  0  0  0  0  0  0  0  0  0  0
   59.7790   34.3650   47.5320 C   0  0  0  0  0  0  0  0  0  0  0  0
   59.0040   33.2200   47.2850 C   0  0  0  0  0  0  0  0  0  0  0  0
   57.5250   33.3440   47.0330 C   0  0  0  0  0  0  0  0  0  0  0  0
   57.2080   34.1320   45.4190 S   0  0  0  0  0  0  0  0  0  0  0  0
   57.2840   32.6010   44.4980 C   0  0  0  0  0  0  0  0  0  0  0  0
   57.8970   32.4590   43.3140 N   0  0  0  0  0  0  0  0  0  0  0  0
   57.7240   31.2070   42.9270 N   0  0  0  0  0  0  0  0  0  0  0  0
   57.0060   30.6240   43.9100 C   0  0  0  0  0  0  0  0  0  0  0  0
   56.5690   29.1980   43.8990 C   0  0  0  0  0  0  0  0  0  0  0  0
   56.0120   28.8370   45.2030 N   0  0  0  0  0  0  0  0  0  0  0  0
   56.6590   27.3200   45.7680 S   0  0  0  0  0  0  0  0  0  0  0  0
   57.7260   26.6170   44.5280 C   0  0  0  0  0  0  0  0  0  0  0  0
   57.4290   27.5260   47.0470 O   0  0  0  0  0  0  0  0  0  0  0  0
   55.5230   26.3670   46.0290 O   0  0  0  0  0  0  0  0  0  0  0  0
   56.7380   31.4710   44.8780 O   0  0  0  0  0  0  0  0  0  0  0  0
   59.6280   31.9640   47.2380 C   0  0  0  0  0  0  0  0  0  0  0  0
   61.0080   31.8520   47.4290 C   0  0  0  0  0  0  0  0  0  0  0  0
   63.2080   34.0250   50.1220 C   0  0  0  0  0  0  0  0  0  0  0  0
   64.0580   34.2510   51.3800 C   0  0  0  0  0  0  0  0  0  0  0  0
   64.6338   32.9153   54.0476 H   0  0  0  0  0  0  0  0  0  0  0  0
   66.1635   32.3620   53.2857 H   0  0  0  0  0  0  0  0  0  0  0  0
   65.7403   34.1077   53.2857 H   0  0  0  0  0  0  0  0  0  0  0  0
   63.7548   32.2350   52.0495 H   0  0  0  0  0  0  0  0  0  0  0  0
   66.5676   32.4706   51.0846 H   0  0  0  0  0  0  0  0  0  0  0  0
   65.3044   31.1670   50.8506 H   0  0  0  0  0  0  0  0  0  0  0  0
   65.8963   33.5982   49.1868 H   0  0  0  0  0  0  0  0  0  0  0  0
   65.5017   31.8924   48.7083 H   0  0  0  0  0  0  0  0  0  0  0  0
   61.7532   35.1534   47.9610 H   0  0  0  0  0  0  0  0  0  0  0  0
   59.2986   35.3540   47.5637 H   0  0  0  0  0  0  0  0  0  0  0  0
   57.0725   32.3414   47.0401 H   0  0  0  0  0  0  0  0  0  0  0  0
   57.0834   33.9685   47.8235 H   0  0  0  0  0  0  0  0  0  0  0  0
   58.3700   33.2050   42.7520 H   0  0  0  0  0  0  0  0  0  0  0  0
   55.8017   29.0578   43.1233 H   0  0  0  0  0  0  0  0  0  0  0  0
   57.4360   28.5555   43.6854 H   0  0  0  0  0  0  0  0  0  0  0  0
   58.5488   26.0749   45.0169 H   0  0  0  0  0  0  0  0  0  0  0  0
   57.1500   25.9209   43.9005 H   0  0  0  0  0  0  0  0  0  0  0  0
   58.1383   27.4209   43.9005 H   0  0  0  0  0  0  0  0  0  0  0  0
   59.0273   31.0620   47.0497 H   0  0  0  0  0  0  0  0  0  0  0  0
   61.4867   30.8621   47.3979 H   0  0  0  0  0  0  0  0  0  0  0  0
   63.0550   34.9913   49.6191 H   0  0  0  0  0  0  0  0  0  0  0  0
   62.2512   33.5818   50.4351 H   0  0  0  0  0  0  0  0  0  0  0  0
   64.8957   34.9220   51.1392 H   0  0  0  0  0  0  0  0  0  0  0  0
   63.4337   34.7048   52.1638 H   0  0  0  0  0  0  0  0  0  0  0  0
  1  2  1  0
  2  3  1  0
  3  4  1  0
  4  5  1  0
  5  6  1  0
  6  7  2  0
  6  8  1  0
  8  9  2  0
  9 10  1  0
 10 11  2  0
 11 12  1  0
 12 13  1  0
 13 14  1  0
 14 15  2  0
 15 16  1  0
 16 17  2  0
 17 18  1  0
 18 19  1  0
 19 20  1  0
 20 21  1  0
 20 22  2  0
 20 23  2  0
 17 24  1  0
 11 25  1  0
 25 26  2  0
  5 27  1  0
 27 28  1  0
 28  2  1  0
 26  8  1  0
 24 14  1  0
  1 29  1  0
  1 30  1  0
  1 31  1  0
  2 32  1  0
  3 33  1  0
  3 34  1  0
  4 35  1  0
  4 36  1  0
  9 37  1  0
 10 38  1  0
 12 39  1  0
 12 40  1  0
 15 41  1  0
 18 42  1  0
 18 43  1  0
 21 44  1  0
 21 45  1  0
 21 46  1  0
 25 47  1  0
 26 48  1  0
 27 49  1  0
 27 50  1  0
 28 51  1  0
 28 52  1  0
M  CHG  2  15   1  19  -1
M  END
>  <UniqueID>  (70) 
63

>  <SMILES>  (70) 
CC1CCN(C(=O)c2ccc(CSc3[nH+]nc(C[N-]S(C)(=O)=O)o3)cc2)CC1

>  <Energy>  (70) 
83.71488912876048

>  <Genealogy>  (70) 
CC1CCN(C(=O)c2ccc(CSc3[nH+]nc(C[N-]S(C)(=O)=O)o3)cc2)CC1 (protonated)
CC1CCN(C(=O)c2ccc(CSc3[nH+]nc(C[N-]S(C)(=O)=O)o3)cc2)CC1 (3D coordinates assigned)
CC1CCN(C(=O)c2ccc(CSc3[nH+]nc(C[N-]S(C)(=O)=O)o3)cc2)CC1 (nonaromatic ring conformer: 83.71488912876048 kcal/mol)

>  <smiles>  (70) 
CC1CCN(C(=O)c2ccc(CSc3nnc(CNS(C)(=O)=O)o3)cc2)CC1

>  <score_type>  (70) 
oracle

>  <origin>  (70) 
adg

>  <m_score__min__energy>  (70) 
-10.609999999999999

>  <m_primary>  (70) 
energy

$$$$
70:0
     RDKit          3D

 46 48  0  0  0  0  0  0  0  0999 V2000
   55.2060   29.3390   44.8800 O   0  0  0  0  0  0  0  0  0  0  0  0
   56.4040   29.7060   44.7500 C   0  0  0  0  0  0  0  0  0  0  0  0
   57.3990   28.7500   44.1460 C   0  0  0  0  0  0  0  0  0  0  0  0
   57.9390   27.7940   45.1830 C   0  0  0  0  0  0  0  0  0  0  0  0
   57.0660   26.8760   45.7960 C   0  0  0  0  0  0  0  0  0  0  0  0
   57.5400   25.9690   46.7460 C   0  0  0  0  0  0  0  0  0  0  0  0
   58.8900   25.9650   47.0980 C   0  0  0  0  0  0  0  0  0  0  0  0
   59.7680   26.8750   46.5070 C   0  0  0  0  0  0  0  0  0  0  0  0
   59.3040   27.7920   45.5560 C   0  0  0  0  0  0  0  0  0  0  0  0
   60.4590   28.9370   44.8800 Cl  0  0  0  0  0  0  0  0  0  0  0  0
   56.7680   31.0180   45.1960 N   0  0  0  0  0  0  0  0  0  0  0  0
   57.4110   32.0380   44.3800 C   0  0  0  0  0  0  0  0  0  0  0  0
   58.1760   32.9640   45.2690 C   0  0  0  0  0  0  0  0  0  0  0  0
   58.8120   33.9280   44.7620 O   0  0  0  0  0  0  0  0  0  0  0  0
   58.2320   32.7200   46.6800 N   0  0  0  0  0  0  0  0  0  0  0  0
   59.0690   33.5140   47.5770 C   0  0  0  0  0  0  0  0  0  0  0  0
   60.5230   33.1490   47.3870 C   0  0  0  0  0  0  0  0  0  0  0  0
   61.3660   34.0810   46.7560 C   0  0  0  0  0  0  0  0  0  0  0  0
   62.7340   33.8320   46.6280 C   0  0  0  0  0  0  0  0  0  0  0  0
   63.2790   32.6510   47.1270 C   0  0  0  0  0  0  0  0  0  0  0  0
   62.4570   31.7110   47.7500 C   0  0  0  0  0  0  0  0  0  0  0  0
   61.0770   31.9390   47.8750 C   0  0  0  0  0  0  0  0  0  0  0  0
   60.2640   30.9270   48.4860 N   0  0  0  0  0  0  0  0  0  0  0  0
   59.3690   30.1390   47.8610 C   0  0  0  0  0  0  0  0  0  0  0  0
   58.8510   29.2250   48.7560 C   0  0  0  0  0  0  0  0  0  0  0  0
   59.4720   29.4630   49.9670 C   0  0  0  0  0  0  0  0  0  0  0  0
   60.3460   30.5100   49.7640 C   0  0  0  0  0  0  0  0  0  0  0  0
   56.9048   28.1737   43.3499 H   0  0  0  0  0  0  0  0  0  0  0  0
   58.2387   29.3329   43.7397 H   0  0  0  0  0  0  0  0  0  0  0  0
   56.0001   26.8729   45.5242 H   0  0  0  0  0  0  0  0  0  0  0  0
   56.8476   25.2562   47.2178 H   0  0  0  0  0  0  0  0  0  0  0  0
   59.2625   25.2447   47.8413 H   0  0  0  0  0  0  0  0  0  0  0  0
   60.8309   26.8717   46.7901 H   0  0  0  0  0  0  0  0  0  0  0  0
   58.0987   31.5599   43.6669 H   0  0  0  0  0  0  0  0  0  0  0  0
   56.6485   32.6032   43.8240 H   0  0  0  0  0  0  0  0  0  0  0  0
   57.6790   31.9300   47.0820 H   0  0  0  0  0  0  0  0  0  0  0  0
   58.9297   34.5822   47.3546 H   0  0  0  0  0  0  0  0  0  0  0  0
   58.7785   33.3082   48.6178 H   0  0  0  0  0  0  0  0  0  0  0  0
   60.9434   35.0158   46.3592 H   0  0  0  0  0  0  0  0  0  0  0  0
   63.3824   34.5695   46.1324 H   0  0  0  0  0  0  0  0  0  0  0  0
   64.3578   32.4593   47.0299 H   0  0  0  0  0  0  0  0  0  0  0  0
   62.8941   30.7828   48.1468 H   0  0  0  0  0  0  0  0  0  0  0  0
   59.0927   30.2125   46.7988 H   0  0  0  0  0  0  0  0  0  0  0  0
   58.0920   28.4570   48.5461 H   0  0  0  0  0  0  0  0  0  0  0  0
   59.3022   28.9224   50.9098 H   0  0  0  0  0  0  0  0  0  0  0  0
   61.0093   30.9393   50.5294 H   0  0  0  0  0  0  0  0  0  0  0  0
  1  2  2  0
  2  3  1  0
  3  4  1  0
  4  5  2  0
  5  6  1  0
  6  7  2  0
  7  8  1  0
  8  9  2  0
  9 10  1  0
  2 11  1  0
 11 12  1  0
 12 13  1  0
 13 14  2  0
 13 15  1  0
 15 16  1  0
 16 17  1  0
 17 18  2  0
 18 19  1  0
 19 20  2  0
 20 21  1  0
 21 22  2  0
 22 23  1  0
 23 24  1  0
 24 25  2  0
 25 26  1  0
 26 27  2  0
  9  4  1  0
 22 17  1  0
 27 23  1  0
  3 28  1  0
  3 29  1  0
  5 30  1  0
  6 31  1  0
  7 32  1  0
  8 33  1  0
 12 34  1  0
 12 35  1  0
 15 36  1  0
 16 37  1  0
 16 38  1  0
 18 39  1  0
 19 40  1  0
 20 41  1  0
 21 42  1  0
 24 43  1  0
 25 44  1  0
 26 45  1  0
 27 46  1  0
M  CHG  1  11  -1
M  END
>  <UniqueID>  (71) 
64

>  <SMILES>  (71) 
O=C(Cc1ccccc1Cl)[N-]CC(=O)NCc1ccccc1-n1cccc1

>  <Energy>  (71) 
75.80717713826493

>  <Genealogy>  (71) 
O=C(Cc1ccccc1Cl)[N-]CC(=O)NCc1ccccc1-n1cccc1 (protonated)
O=C(Cc1ccccc1Cl)[N-]CC(=O)NCc1ccccc1-n1cccc1 (3D coordinates assigned)
O=C(Cc1ccccc1Cl)[N-]CC(=O)NCc1ccccc1-n1cccc1 (optimized conformer: 75.80717713826493 kcal/mol)

>  <smiles>  (71) 
O=C(CNC(=O)Cc1ccccc1Cl)NCc1ccccc1-n1cccc1

>  <score_type>  (71) 
oracle

>  <origin>  (71) 
adg

>  <m_score__min__energy>  (71) 
-10.289999999999999

>  <m_primary>  (71) 
energy

$$$$
71:0
     RDKit          3D

 32 33  0  0  0  0  0  0  0  0999 V2000
   56.2380   22.5560   41.5250 H   0  0  0  0  0  0  0  0  0  0  0  0
   55.8970   22.1420   42.4210 N   0  0  0  0  0  0  0  0  0  0  0  0
   56.2550   22.5970   43.5810 C   0  0  0  0  0  0  0  0  0  0  0  0
   55.6960   23.7830   44.0870 C   0  0  0  0  0  0  0  0  0  0  0  0
   54.9466   24.3339   43.4997 H   0  0  0  0  0  0  0  0  0  0  0  0
   56.0970   24.2630   45.3450 C   0  0  0  0  0  0  0  0  0  0  0  0
   55.5180   25.5090   45.8970 C   0  0  0  0  0  0  0  0  0  0  0  0
   54.3260   25.8280   45.6300 O   0  0  0  0  0  0  0  0  0  0  0  0
   56.3070   26.3570   46.7370 N   0  0  0  0  0  0  0  0  0  0  0  0
   57.5590   26.9650   46.3060 C   0  0  0  0  0  0  0  0  0  0  0  0
   57.8288   27.7739   47.0009 H   0  0  0  0  0  0  0  0  0  0  0  0
   58.3479   26.1984   46.2994 H   0  0  0  0  0  0  0  0  0  0  0  0
   57.4070   27.5390   44.8960 C   0  0  0  0  0  0  0  0  0  0  0  0
   58.2216   27.1564   44.2635 H   0  0  0  0  0  0  0  0  0  0  0  0
   56.4287   27.2306   44.4987 H   0  0  0  0  0  0  0  0  0  0  0  0
   57.4620   29.0460   44.9100 C   0  0  0  0  0  0  0  0  0  0  0  0
   56.9190   29.7840   43.8460 C   0  0  0  0  0  0  0  0  0  0  0  0
   56.4243   29.2624   43.0134 H   0  0  0  0  0  0  0  0  0  0  0  0
   57.0050   31.1810   43.8410 C   0  0  0  0  0  0  0  0  0  0  0  0
   56.5734   31.7553   43.0079 H   0  0  0  0  0  0  0  0  0  0  0  0
   57.6390   31.8470   44.8940 C   0  0  0  0  0  0  0  0  0  0  0  0
   57.7480   33.5990   44.8850 Cl  0  0  0  0  0  0  0  0  0  0  0  0
   58.1900   31.1170   45.9510 C   0  0  0  0  0  0  0  0  0  0  0  0
   58.6900   31.6417   46.7784 H   0  0  0  0  0  0  0  0  0  0  0  0
   58.1070   29.7210   45.9590 C   0  0  0  0  0  0  0  0  0  0  0  0
   58.5482   29.1501   46.7893 H   0  0  0  0  0  0  0  0  0  0  0  0
   57.0550   23.5360   46.0710 C   0  0  0  0  0  0  0  0  0  0  0  0
   57.3846   23.8904   47.0588 H   0  0  0  0  0  0  0  0  0  0  0  0
   57.5870   22.3630   45.5350 C   0  0  0  0  0  0  0  0  0  0  0  0
   58.3373   21.7932   46.1029 H   0  0  0  0  0  0  0  0  0  0  0  0
   57.1830   21.9200   44.3140 N   0  0  0  0  0  0  0  0  0  0  0  0
   57.5990   21.0380   43.9380 H   0  0  0  0  0  0  0  0  0  0  0  0
  1  2  1  0
  2  3  2  0
  3  4  1  0
  4  5  1  0
  4  6  2  0
  6  7  1  0
  7  8  2  0
  7  9  1  0
  9 10  1  0
 10 11  1  0
 10 12  1  0
 10 13  1  0
 13 14  1  0
 13 15  1  0
 13 16  1  0
 16 17  2  0
 17 18  1  0
 17 19  1  0
 19 20  1  0
 19 21  2  0
 21 22  1  0
 21 23  1  0
 23 24  1  0
 23 25  2  0
 25 26  1  0
  6 27  1  0
 27 28  1  0
 27 29  2  0
 29 30  1  0
 29 31  1  0
 31 32  1  0
 31  3  1  0
 25 16  1  0
M  CHG  1   9  -1
M  END
>  <UniqueID>  (72) 
65

>  <SMILES>  (72) 
[H]/N=c1\cc(C(=O)[N-]CCc2ccc(Cl)cc2)cc[nH]1

>  <Energy>  (72) 
28.522877521482442

>  <Genealogy>  (72) 
N=c1cc(C(=O)[N-]CCc2ccc(Cl)cc2)cc[nH]1 (protonated)
[H]/N=c1\cc(C(=O)[N-]CCc2ccc(Cl)cc2)cc[nH]1 (cis-trans isomerization)
[H]/N=c1\cc(C(=O)[N-]CCc2ccc(Cl)cc2)cc[nH]1 (3D coordinates assigned)
[H]/N=c1\cc(C(=O)[N-]CCc2ccc(Cl)cc2)cc[nH]1 (optimized conformer: 28.522877521482442 kcal/mol)

>  <smiles>  (72) 
N=c1cc(C(=O)NCCc2ccc(Cl)cc2)cc[nH]1

>  <score_type>  (72) 
oracle

>  <origin>  (72) 
adg

>  <m_score__min__energy>  (72) 
-9.4800000000000004

>  <m_primary>  (72) 
energy

$$$$
72:0
     RDKit          3D

 51 54  0  0  0  0  0  0  0  0999 V2000
   56.6779   21.5444   41.7145 H   0  0  0  0  0  0  0  0  0  0  0  0
   56.6480   22.0050   42.7130 C   0  0  0  0  0  0  0  0  0  0  0  0
   57.4820   21.5270   43.7280 C   0  0  0  0  0  0  0  0  0  0  0  0
   58.1696   20.6923   43.5267 H   0  0  0  0  0  0  0  0  0  0  0  0
   57.4430   22.1090   44.9990 C   0  0  0  0  0  0  0  0  0  0  0  0
   58.1070   21.7368   45.7931 H   0  0  0  0  0  0  0  0  0  0  0  0
   56.5580   23.1680   45.2650 C   0  0  0  0  0  0  0  0  0  0  0  0
   56.5420   23.8190   46.6180 C   0  0  0  0  0  0  0  0  0  0  0  0
   56.0769   23.1394   47.3473 H   0  0  0  0  0  0  0  0  0  0  0  0
   57.5725   24.0411   46.9322 H   0  0  0  0  0  0  0  0  0  0  0  0
   59.3170   27.9470   46.9230 N   0  0  0  0  0  0  0  0  0  0  0  0
   58.1130   27.7070   46.5000 C   0  0  0  0  0  0  0  0  0  0  0  0
   57.4080   28.6550   45.8220 N   0  0  0  0  0  0  0  0  0  0  0  0
   56.1520   28.3910   45.3840 C   0  0  0  0  0  0  0  0  0  0  0  0
   55.4980   29.3050   44.7350 N   0  0  0  0  0  0  0  0  0  0  0  0
   55.8990   29.8260   43.4290 C   0  0  0  0  0  0  0  0  0  0  0  0
   56.2943   29.0029   42.8156 H   0  0  0  0  0  0  0  0  0  0  0  0
   55.0228   30.2743   42.9378 H   0  0  0  0  0  0  0  0  0  0  0  0
   56.9910   30.9080   43.5960 C   0  0  0  0  0  0  0  0  0  0  0  0
   57.9425   30.4895   43.2362 H   0  0  0  0  0  0  0  0  0  0  0  0
   56.6480   31.7794   43.0190 H   0  0  0  0  0  0  0  0  0  0  0  0
   57.1970   31.3890   44.9850 N   0  0  0  0  0  0  0  0  0  0  0  0
   56.6490   30.7470   45.6080 H   0  0  0  0  0  0  0  0  0  0  0  0
   56.7120   32.7520   45.2530 C   0  0  0  0  0  0  0  0  0  0  0  0
   56.8537   33.3883   44.3670 H   0  0  0  0  0  0  0  0  0  0  0  0
   55.6382   32.7557   45.4916 H   0  0  0  0  0  0  0  0  0  0  0  0
   57.5370   33.2740   46.4120 C   0  0  0  0  0  0  0  0  0  0  0  0
   57.6448   34.3671   46.3528 H   0  0  0  0  0  0  0  0  0  0  0  0
   57.0732   33.0640   47.3871 H   0  0  0  0  0  0  0  0  0  0  0  0
   58.8810   32.5920   46.2500 C   0  0  0  0  0  0  0  0  0  0  0  0
   59.5832   33.2481   45.7147 H   0  0  0  0  0  0  0  0  0  0  0  0
   59.3398   32.3573   47.2218 H   0  0  0  0  0  0  0  0  0  0  0  0
   58.6020   31.3320   45.4360 C   0  0  0  0  0  0  0  0  0  0  0  0
   59.2733   31.2924   44.5655 H   0  0  0  0  0  0  0  0  0  0  0  0
   58.7737   30.4335   46.0469 H   0  0  0  0  0  0  0  0  0  0  0  0
   55.5990   27.1720   45.6240 N   0  0  0  0  0  0  0  0  0  0  0  0
   56.2950   26.2230   46.3050 C   0  0  0  0  0  0  0  0  0  0  0  0
   55.7740   25.0590   46.5480 N   0  0  0  0  0  0  0  0  0  0  0  0
   60.4930   27.9320   46.0580 C   0  0  0  0  0  0  0  0  0  0  0  0
   60.9899   27.0556   46.4997 H   0  0  0  0  0  0  0  0  0  0  0  0
   60.9290   29.3180   45.6290 C   0  0  0  0  0  0  0  0  0  0  0  0
   60.4152   30.2048   46.0286 H   0  0  0  0  0  0  0  0  0  0  0  0
   61.8807   29.8696   45.6297 H   0  0  0  0  0  0  0  0  0  0  0  0
   60.2150   28.4040   44.6440 C   0  0  0  0  0  0  0  0  0  0  0  0
   59.1847   28.6293   44.3314 H   0  0  0  0  0  0  0  0  0  0  0  0
   60.4358   28.0200   43.6371 H   0  0  0  0  0  0  0  0  0  0  0  0
   57.5510   26.4960   46.7390 N   0  0  0  0  0  0  0  0  0  0  0  0
   55.7350   23.6530   44.2360 C   0  0  0  0  0  0  0  0  0  0  0  0
   55.0555   24.4961   44.4292 H   0  0  0  0  0  0  0  0  0  0  0  0
   55.7760   23.0680   42.9660 C   0  0  0  0  0  0  0  0  0  0  0  0
   55.1217   23.4446   42.1659 H   0  0  0  0  0  0  0  0  0  0  0  0
  1  2  1  0
  2  3  2  0
  3  4  1  0
  3  5  1  0
  5  6  1  0
  5  7  2  0
  7  8  1  0
  8  9  1  0
  8 10  1  0
  8 11  1  0
 11 12  2  0
 12 13  1  0
 13 14  1  0
 14 15  2  3
 15 16  1  0
 16 17  1  0
 16 18  1  0
 16 19  1  0
 19 20  1  0
 19 21  1  0
 19 22  1  0
 22 23  1  0
 22 24  1  0
 24 25  1  0
 24 26  1  0
 24 27  1  0
 27 28  1  0
 27 29  1  0
 27 30  1  0
 30 31  1  0
 30 32  1  0
 30 33  1  0
 33 34  1  0
 33 35  1  0
 14 36  1  0
 36 37  1  0
 37 38  2  0
 38 39  1  0
 39 40  1  0
 39 41  1  0
 41 42  1  0
 41 43  1  0
 41 44  1  0
 44 45  1  0
 44 46  1  0
 37 47  1  0
  7 48  1  0
 48 49  1  0
 48 50  2  0
 50 51  1  0
 50  2  1  0
 47 12  1  0
 33 22  1  0
 44 39  1  0
M  CHG  4  13  -1  22   1  36  -1  47  -1
M  END
>  <UniqueID>  (73) 
66

>  <SMILES>  (73) 
c1ccc(C/N=c2\[n-]c(=NCC[NH+]3CCCC3)[n-]/c(=N\C3CC3)[n-]2)cc1

>  <Energy>  (73) 
322.2297280448739

>  <Genealogy>  (73) 
c1ccc(CN=c2[n-]c(=NCC[NH+]3CCCC3)[n-]c(=NC3CC3)[n-]2)cc1 (protonated)
c1ccc(C/N=c2\[n-]c(=NCC[NH+]3CCCC3)[n-]/c(=N\C3CC3)[n-]2)cc1 (cis-trans isomerization)
c1ccc(C/N=c2\[n-]c(=NCC[NH+]3CCCC3)[n-]/c(=N\C3CC3)[n-]2)cc1 (3D coordinates assigned)
c1ccc(C/N=c2\[n-]c(=NCC[NH+]3CCCC3)[n-]/c(=N\C3CC3)[n-]2)cc1 (nonaromatic ring conformer: 322.2297280448739 kcal/mol)

>  <smiles>  (73) 
c1ccc(CN=c2[nH]c(=NCCN3CCCC3)[nH]c(=NC3CC3)[nH]2)cc1

>  <score_type>  (73) 
oracle

>  <origin>  (73) 
adg

>  <m_score__min__energy>  (73) 
-10.67

>  <m_primary>  (73) 
energy

$$$$
73:0
     RDKit          3D

 63 66  0  0  0  0  0  0  0  0999 V2000
   58.8650   30.4370   45.1690 C   0  0  0  0  0  0  0  0  0  0  0  0
   58.7670   29.9680   46.4230 C   0  0  0  0  0  0  0  0  0  0  0  0
   58.6300   28.6240   46.8100 C   0  0  0  0  0  0  0  0  0  0  0  0
   58.3600   27.5180   46.0900 C   0  0  0  0  0  0  0  0  0  0  0  0
   57.1360   26.7050   46.1970 C   0  0  0  0  0  0  0  0  0  0  0  0
   57.1040   25.4140   46.5760 N   0  0  0  0  0  0  0  0  0  0  0  0
   55.8130   25.0660   46.3900 C   0  0  0  0  0  0  0  0  0  0  0  0
   55.3760   23.9160   46.6550 O   0  0  0  0  0  0  0  0  0  0  0  0
   55.0290   26.0440   45.8870 N   0  0  0  0  0  0  0  0  0  0  0  0
   55.8870   27.0690   45.7580 C   0  0  0  0  0  0  0  0  0  0  0  0
   55.5360   28.3090   45.2420 O   0  0  0  0  0  0  0  0  0  0  0  0
   58.7670   28.6010   48.1870 C   0  0  0  0  0  0  0  0  0  0  0  0
   58.9010   29.9110   48.5950 C   0  0  0  0  0  0  0  0  0  0  0  0
   58.9550   30.3500   50.0000 C   0  0  0  0  0  0  0  0  0  0  0  0
   57.8960   30.7760   50.5370 O   0  0  0  0  0  0  0  0  0  0  0  0
   60.1730   30.2580   50.7720 N   0  0  0  0  0  0  0  0  0  0  0  0
   61.1440   29.1890   50.5060 C   0  0  0  0  0  0  0  0  0  0  0  0
   60.3960   31.1740   51.8970 C   0  0  0  0  0  0  0  0  0  0  0  0
   61.1400   32.4210   51.4250 C   0  0  0  0  0  0  0  0  0  0  0  0
   60.8510   32.6530   50.0490 O   0  0  0  0  0  0  0  0  0  0  0  0
   61.8110   32.6550   49.0260 C   0  0  0  0  0  0  0  0  0  0  0  0
   62.5440   33.8280   48.8040 C   0  0  0  0  0  0  0  0  0  0  0  0
   63.5050   33.8820   47.7900 C   0  0  0  0  0  0  0  0  0  0  0  0
   63.7420   32.7600   46.9900 C   0  0  0  0  0  0  0  0  0  0  0  0
   63.0200   31.5840   47.2050 C   0  0  0  0  0  0  0  0  0  0  0  0
   62.0590   31.5270   48.2190 C   0  0  0  0  0  0  0  0  0  0  0  0
   58.9140   30.7440   47.5300 N   0  0  0  0  0  0  0  0  0  0  0  0
   58.9400   32.2130   47.5970 C   0  0  0  0  0  0  0  0  0  0  0  0
   57.7170   32.7900   46.8800 C   0  0  0  0  0  0  0  0  0  0  0  0
   57.9070   34.2360   46.6270 N   0  0  0  0  0  0  0  0  0  0  0  0
   57.9310   34.5480   45.1850 C   0  0  0  0  0  0  0  0  0  0  0  0
   59.2250   34.0360   44.5080 C   0  0  0  0  0  0  0  0  0  0  0  0
   60.2460   33.7110   45.4350 O   0  0  0  0  0  0  0  0  0  0  0  0
   60.3640   34.7320   46.4040 C   0  0  0  0  0  0  0  0  0  0  0  0
   59.1120   34.7730   47.3050 C   0  0  0  0  0  0  0  0  0  0  0  0
   58.9691   31.5178   44.9926 H   0  0  0  0  0  0  0  0  0  0  0  0
   58.8412   29.7406   44.3179 H   0  0  0  0  0  0  0  0  0  0  0  0
   59.1173   27.1946   45.3606 H   0  0  0  0  0  0  0  0  0  0  0  0
   58.7686   27.7096   48.8315 H   0  0  0  0  0  0  0  0  0  0  0  0
   61.5128   28.7830   51.4595 H   0  0  0  0  0  0  0  0  0  0  0  0
   60.6585   28.3877   49.9296 H   0  0  0  0  0  0  0  0  0  0  0  0
   61.9881   29.5955   49.9296 H   0  0  0  0  0  0  0  0  0  0  0  0
   59.4255   31.4696   52.3223 H   0  0  0  0  0  0  0  0  0  0  0  0
   61.0017   30.6631   52.6600 H   0  0  0  0  0  0  0  0  0  0  0  0
   60.8162   33.2883   52.0192 H   0  0  0  0  0  0  0  0  0  0  0  0
   62.2225   32.2731   51.5529 H   0  0  0  0  0  0  0  0  0  0  0  0
   62.3622   34.7127   49.4319 H   0  0  0  0  0  0  0  0  0  0  0  0
   64.0749   34.8076   47.6215 H   0  0  0  0  0  0  0  0  0  0  0  0
   64.4971   32.8036   46.1913 H   0  0  0  0  0  0  0  0  0  0  0  0
   63.2076   30.7015   46.5758 H   0  0  0  0  0  0  0  0  0  0  0  0
   61.4945   30.5980   48.3873 H   0  0  0  0  0  0  0  0  0  0  0  0
   58.9284   32.5301   48.6502 H   0  0  0  0  0  0  0  0  0  0  0  0
   59.8535   32.5813   47.1073 H   0  0  0  0  0  0  0  0  0  0  0  0
   57.5785   32.2686   45.9214 H   0  0  0  0  0  0  0  0  0  0  0  0
   56.8299   32.6506   47.5153 H   0  0  0  0  0  0  0  0  0  0  0  0
   57.0645   34.0716   44.7031 H   0  0  0  0  0  0  0  0  0  0  0  0
   57.8949   35.6415   45.0710 H   0  0  0  0  0  0  0  0  0  0  0  0
   58.9822   33.1356   43.9246 H   0  0  0  0  0  0  0  0  0  0  0  0
   59.6060   34.8485   43.8719 H   0  0  0  0  0  0  0  0  0  0  0  0
   61.2507   34.5395   47.0258 H   0  0  0  0  0  0  0  0  0  0  0  0
   60.4626   35.6993   45.8897 H   0  0  0  0  0  0  0  0  0  0  0  0
   59.3063   34.1734   48.2065 H   0  0  0  0  0  0  0  0  0  0  0  0
   58.9140   35.8258   47.5547 H   0  0  0  0  0  0  0  0  0  0  0  0
  1  2  2  0
  2  3  1  0
  3  4  2  3
  4  5  1  0
  5  6  1  0
  6  7  1  0
  7  8  2  0
  7  9  1  0
  9 10  1  0
 10 11  1  0
  3 12  1  0
 12 13  2  0
 13 14  1  0
 14 15  2  0
 14 16  1  0
 16 17  1  0
 16 18  1  0
 18 19  1  0
 19 20  1  0
 20 21  1  0
 21 22  2  0
 22 23  1  0
 23 24  2  0
 24 25  1  0
 25 26  2  0
 13 27  1  0
 27 28  1  0
 28 29  1  0
 29 30  1  0
 30 31  1  0
 31 32  1  0
 32 33  1  0
 33 34  1  0
 34 35  1  0
 27  2  1  0
 35 30  1  0
 10  5  2  0
 26 21  1  0
  1 36  1  0
  1 37  1  0
  4 38  1  0
 12 39  1  0
 17 40  1  0
 17 41  1  0
 17 42  1  0
 18 43  1  0
 18 44  1  0
 19 45  1  0
 19 46  1  0
 22 47  1  0
 23 48  1  0
 24 49  1  0
 25 50  1  0
 26 51  1  0
 28 52  1  0
 28 53  1  0
 29 54  1  0
 29 55  1  0
 31 56  1  0
 31 57  1  0
 32 58  1  0
 32 59  1  0
 34 60  1  0
 34 61  1  0
 35 62  1  0
 35 63  1  0
M  CHG  3   6  -1   9  -1  11  -1
M  END
>  <UniqueID>  (74) 
67

>  <SMILES>  (74) 
C=c1c(=Cc2[n-]c(=O)[n-]c2[O-])cc(C(=O)N(C)CCOc2ccccc2)n1CCN1CCOCC1

>  <Energy>  (74) 
144.97724481737652

>  <Genealogy>  (74) 
C=c1c(=Cc2[n-]c(=O)[n-]c2[O-])cc(C(=O)N(C)CCOc2ccccc2)n1CCN1CCOCC1 (protonated)
C=c1c(=Cc2[n-]c(=O)[n-]c2[O-])cc(C(=O)N(C)CCOc2ccccc2)n1CCN1CCOCC1 (3D coordinates assigned)
C=c1c(=Cc2[n-]c(=O)[n-]c2[O-])cc(C(=O)N(C)CCOc2ccccc2)n1CCN1CCOCC1 (nonaromatic ring conformer: 144.97724481737652 kcal/mol)

>  <smiles>  (74) 
C=c1c(=Cc2[nH]c(=O)[nH]c2O)cc(C(=O)N(C)CCOc2ccccc2)n1CCN1CCOCC1

>  <score_type>  (74) 
oracle

>  <origin>  (74) 
adg

>  <m_score__min__energy>  (74) 
-17.039999999999999

>  <m_primary>  (74) 
energy

$$$$
74:0
     RDKit          3D

 41 42  0  0  0  0  0  0  0  0999 V2000
   58.7570   28.1380   47.2050 C   0  0  0  0  0  0  0  0  0  0  0  0
   58.2060   28.6180   46.0780 C   0  0  0  0  0  0  0  0  0  0  0  0
   57.8590   27.8780   44.9380 C   0  0  0  0  0  0  0  0  0  0  0  0
   57.7350   26.5510   44.7500 C   0  0  0  0  0  0  0  0  0  0  0  0
   57.1310   25.6050   45.7040 C   0  0  0  0  0  0  0  0  0  0  0  0
   57.7810   24.5770   46.2790 N   0  0  0  0  0  0  0  0  0  0  0  0
   56.8810   24.0940   47.1620 C   0  0  0  0  0  0  0  0  0  0  0  0
   57.1170   23.0990   47.8960 O   0  0  0  0  0  0  0  0  0  0  0  0
   55.7110   24.7670   47.2050 N   0  0  0  0  0  0  0  0  0  0  0  0
   55.8940   25.7290   46.2850 C   0  0  0  0  0  0  0  0  0  0  0  0
   54.9490   26.7030   45.9880 O   0  0  0  0  0  0  0  0  0  0  0  0
   57.6030   28.8020   43.9410 C   0  0  0  0  0  0  0  0  0  0  0  0
   57.7070   30.0500   44.5160 C   0  0  0  0  0  0  0  0  0  0  0  0
   57.4870   31.3370   43.7790 C   0  0  0  0  0  0  0  0  0  0  0  0
   58.0680   29.9470   45.8170 N   0  0  0  0  0  0  0  0  0  0  0  0
   58.3490   31.0700   46.7270 C   0  0  0  0  0  0  0  0  0  0  0  0
   59.7730   31.6200   46.5440 C   0  0  0  0  0  0  0  0  0  0  0  0
   60.1290   32.7490   47.5240 C   0  0  0  0  0  0  0  0  0  0  0  0
   59.6530   34.1000   47.0760 C   0  0  0  0  0  0  0  0  0  0  0  0
   59.3150   34.9660   47.9290 O   0  0  0  0  0  0  0  0  0  0  0  0
   59.6930   34.4190   45.7140 O   0  0  0  0  0  0  0  0  0  0  0  0
   58.5250   34.6240   44.9200 C   0  0  0  0  0  0  0  0  0  0  0  0
   57.2830   34.0990   45.6300 C   0  0  0  0  0  0  0  0  0  0  0  0
   58.9866   28.8186   48.0381 H   0  0  0  0  0  0  0  0  0  0  0  0
   58.9786   27.0643   47.2948 H   0  0  0  0  0  0  0  0  0  0  0  0
   58.1168   26.1383   43.8045 H   0  0  0  0  0  0  0  0  0  0  0  0
   57.3624   28.5826   42.8903 H   0  0  0  0  0  0  0  0  0  0  0  0
   57.3473   32.1542   44.5019 H   0  0  0  0  0  0  0  0  0  0  0  0
   58.3614   31.5518   43.1472 H   0  0  0  0  0  0  0  0  0  0  0  0
   56.5908   31.2492   43.1472 H   0  0  0  0  0  0  0  0  0  0  0  0
   57.6287   31.8770   46.5275 H   0  0  0  0  0  0  0  0  0  0  0  0
   58.2585   30.7005   47.7591 H   0  0  0  0  0  0  0  0  0  0  0  0
   60.4856   30.7950   46.6907 H   0  0  0  0  0  0  0  0  0  0  0  0
   59.8262   32.0447   45.5307 H   0  0  0  0  0  0  0  0  0  0  0  0
   59.6700   32.5230   48.4978 H   0  0  0  0  0  0  0  0  0  0  0  0
   61.2265   32.7944   47.5819 H   0  0  0  0  0  0  0  0  0  0  0  0
   58.4031   35.7007   44.7308 H   0  0  0  0  0  0  0  0  0  0  0  0
   58.6447   34.0774   43.9729 H   0  0  0  0  0  0  0  0  0  0  0  0
   57.4292   34.1608   46.7185 H   0  0  0  0  0  0  0  0  0  0  0  0
   56.4119   34.7059   45.3420 H   0  0  0  0  0  0  0  0  0  0  0  0
   57.1113   33.0513   45.3420 H   0  0  0  0  0  0  0  0  0  0  0  0
  1  2  2  0
  2  3  1  0
  3  4  2  3
  4  5  1  0
  5  6  1  0
  6  7  1  0
  7  8  2  0
  7  9  1  0
  9 10  1  0
 10 11  1  0
  3 12  1  0
 12 13  2  0
 13 14  1  0
 13 15  1  0
 15 16  1  0
 16 17  1  0
 17 18  1  0
 18 19  1  0
 19 20  2  0
 19 21  1  0
 21 22  1  0
 22 23  1  0
 15  2  1  0
 10  5  2  0
  1 24  1  0
  1 25  1  0
  4 26  1  0
 12 27  1  0
 14 28  1  0
 14 29  1  0
 14 30  1  0
 16 31  1  0
 16 32  1  0
 17 33  1  0
 17 34  1  0
 18 35  1  0
 18 36  1  0
 22 37  1  0
 22 38  1  0
 23 39  1  0
 23 40  1  0
 23 41  1  0
M  CHG  3   6  -1   9  -1  11  -1
M  END
>  <UniqueID>  (75) 
68

>  <SMILES>  (75) 
C=c1c(=Cc2[n-]c(=O)[n-]c2[O-])cc(C)n1CCCC(=O)OCC

>  <Energy>  (75) 
98.5051137047759

>  <Genealogy>  (75) 
C=c1c(=Cc2[n-]c(=O)[n-]c2[O-])cc(C)n1CCCC(=O)OCC (protonated)
C=c1c(=Cc2[n-]c(=O)[n-]c2[O-])cc(C)n1CCCC(=O)OCC (3D coordinates assigned)
C=c1c(=Cc2[n-]c(=O)[n-]c2[O-])cc(C)n1CCCC(=O)OCC (optimized conformer: 98.5051137047759 kcal/mol)

>  <smiles>  (75) 
C=c1c(=Cc2[nH]c(=O)[nH]c2O)cc(C)n1CCCC(=O)OCC

>  <score_type>  (75) 
oracle

>  <origin>  (75) 
adg

>  <m_score__min__energy>  (75) 
-14.609999999999999

>  <m_primary>  (75) 
energy

$$$$
75:0
     RDKit          3D

 49 52  0  0  0  0  0  0  0  0999 V2000
   60.3340   28.1850   44.9780 C   0  0  0  0  0  0  0  0  0  0  0  0
   59.2330   27.5850   45.4490 C   0  0  0  0  0  0  0  0  0  0  0  0
   59.3800   26.3280   45.8510 O   0  0  0  0  0  0  0  0  0  0  0  0
   58.3710   25.5290   46.1650 C   0  0  0  0  0  0  0  0  0  0  0  0
   58.6250   24.3510   46.5320 O   0  0  0  0  0  0  0  0  0  0  0  0
   57.0430   25.9750   46.0460 C   0  0  0  0  0  0  0  0  0  0  0  0
   55.9000   25.0640   46.3240 C   0  0  0  0  0  0  0  0  0  0  0  0
   55.7390   24.5930   47.4820 O   0  0  0  0  0  0  0  0  0  0  0  0
   54.9860   24.7120   45.2750 N   0  0  0  0  0  0  0  0  0  0  0  0
   55.0550   23.5170   44.4300 C   0  0  1  0  0  0  0  0  0  0  0  0
   56.1590   23.6580   43.3640 C   0  0  0  0  0  0  0  0  0  0  0  0
   56.3490   22.3320   42.6220 C   0  0  0  0  0  0  0  0  0  0  0  0
   56.7510   21.1680   43.5650 C   0  0  2  0  0  0  0  0  0  0  0  0
   56.0560   20.0010   43.2060 O   0  0  0  0  0  0  0  0  0  0  0  0
   56.4940   21.4720   45.0550 C   0  0  0  0  0  0  0  0  0  0  0  0
   55.1710   22.2190   45.2770 C   0  0  0  0  0  0  0  0  0  0  0  0
   56.8330   27.3180   45.6800 C   0  0  0  0  0  0  0  0  0  0  0  0
   55.5310   27.8120   45.6140 O   0  0  0  0  0  0  0  0  0  0  0  0
   57.9330   28.1810   45.4510 C   0  0  0  0  0  0  0  0  0  0  0  0
   57.6850   29.5070   45.2720 C   0  0  0  0  0  0  0  0  0  0  0  0
   58.2890   30.6140   46.0420 C   0  0  0  0  0  0  0  0  0  0  0  0
   58.8030   30.5620   47.3380 C   0  0  0  0  0  0  0  0  0  0  0  0
   59.1440   31.8000   47.7610 N   0  0  0  0  0  0  0  0  0  0  0  0
   58.8290   32.6360   46.7570 C   0  0  0  0  0  0  0  0  0  0  0  0
   58.9730   34.0230   46.7340 C   0  0  0  0  0  0  0  0  0  0  0  0
   58.5510   34.7090   45.5810 C   0  0  0  0  0  0  0  0  0  0  0  0
   57.9980   34.0030   44.4910 C   0  0  0  0  0  0  0  0  0  0  0  0
   57.8600   32.6030   44.5420 C   0  0  0  0  0  0  0  0  0  0  0  0
   58.2920   31.9500   45.6980 C   0  0  0  0  0  0  0  0  0  0  0  0
   60.2855   29.2265   44.6274 H   0  0  0  0  0  0  0  0  0  0  0  0
   61.2867   27.6362   44.9418 H   0  0  0  0  0  0  0  0  0  0  0  0
   54.1060   23.4252   43.8815 H   0  0  0  0  0  0  0  0  0  0  0  0
   57.1031   23.9392   43.8535 H   0  0  0  0  0  0  0  0  0  0  0  0
   55.8647   24.4344   42.6425 H   0  0  0  0  0  0  0  0  0  0  0  0
   57.1386   22.4616   41.8672 H   0  0  0  0  0  0  0  0  0  0  0  0
   55.3849   22.0683   42.1627 H   0  0  0  0  0  0  0  0  0  0  0  0
   57.8356   21.0302   43.4441 H   0  0  0  0  0  0  0  0  0  0  0  0
   56.6480   19.2360   43.4250 H   0  0  0  0  0  0  0  0  0  0  0  0
   57.3186   22.0917   45.4371 H   0  0  0  0  0  0  0  0  0  0  0  0
   56.4324   20.5122   45.5888 H   0  0  0  0  0  0  0  0  0  0  0  0
   55.0945   22.4872   46.3411 H   0  0  0  0  0  0  0  0  0  0  0  0
   54.3582   21.5479   44.9623 H   0  0  0  0  0  0  0  0  0  0  0  0
   56.9697   29.7796   44.4821 H   0  0  0  0  0  0  0  0  0  0  0  0
   58.9150   29.6430   47.9321 H   0  0  0  0  0  0  0  0  0  0  0  0
   59.5470   32.0540   48.6910 H   0  0  0  0  0  0  0  0  0  0  0  0
   59.4029   34.5632   47.5903 H   0  0  0  0  0  0  0  0  0  0  0  0
   58.6526   35.8030   45.5283 H   0  0  0  0  0  0  0  0  0  0  0  0
   57.6723   34.5511   43.5946 H   0  0  0  0  0  0  0  0  0  0  0  0
   57.4268   32.0429   43.7002 H   0  0  0  0  0  0  0  0  0  0  0  0
  1  2  2  0
  2  3  1  0
  3  4  1  0
  4  5  2  0
  4  6  1  0
  6  7  1  0
  7  8  2  0
  7  9  1  0
  9 10  1  0
 10 11  1  0
 11 12  1  0
 12 13  1  0
 13 14  1  0
 13 15  1  0
 15 16  1  0
  6 17  2  0
 17 18  1  0
 17 19  1  0
 19 20  2  3
 20 21  1  0
 21 22  2  0
 22 23  1  0
 23 24  1  0
 24 25  2  0
 25 26  1  0
 26 27  2  0
 27 28  1  0
 28 29  2  0
 19  2  1  0
 29 21  1  0
 16 10  1  0
 29 24  1  0
  1 30  1  0
  1 31  1  0
 10 32  1  6
 11 33  1  0
 11 34  1  0
 12 35  1  0
 12 36  1  0
 13 37  1  1
 14 38  1  0
 15 39  1  0
 15 40  1  0
 16 41  1  0
 16 42  1  0
 20 43  1  0
 22 44  1  0
 23 45  1  0
 25 46  1  0
 26 47  1  0
 27 48  1  0
 28 49  1  0
M  CHG  2   9  -1  18  -1
M  END
>  <UniqueID>  (76) 
69

>  <SMILES>  (76) 
C=c1oc(=O)c(C(=O)[N-]C2CCC(O)CC2)c([O-])c1=Cc1c[nH]c2ccccc12

>  <Energy>  (76) 
116.06020995598409

>  <Genealogy>  (76) 
C=c1oc(=O)c(C(=O)[N-]C2CCC(O)CC2)c([O-])c1=Cc1c[nH]c2ccccc12 (protonated)
C=c1oc(=O)c(C(=O)[N-]C2CCC(O)CC2)c([O-])c1=Cc1c[nH]c2ccccc12 (3D coordinates assigned)
C=c1oc(=O)c(C(=O)[N-]C2CCC(O)CC2)c([O-])c1=Cc1c[nH]c2ccccc12 (nonaromatic ring conformer: 116.06020995598409 kcal/mol)

>  <smiles>  (76) 
C=c1oc(=O)c(C(=O)NC2CCC(O)CC2)c(O)c1=Cc1c[nH]c2ccccc12

>  <score_type>  (76) 
oracle

>  <origin>  (76) 
adg

>  <m_score__min__energy>  (76) 
-15.31

>  <m_primary>  (76) 
energy

$$$$
76:0
     RDKit          3D

 42 43  0  0  0  0  0  0  0  0999 V2000
   55.1450   26.7210   45.9940 O   0  0  0  0  0  0  0  0  0  0  0  0
   56.1280   25.9700   46.2390 C   0  0  0  0  0  0  0  0  0  0  0  0
   57.4930   26.3460   45.7520 C   0  0  0  0  0  0  0  0  0  0  0  0
   57.9590   27.5620   46.4160 N   0  0  0  0  0  0  0  0  0  0  0  0
   59.2370   27.6160   47.0650 C   0  0  0  0  0  0  0  0  0  0  0  0
   59.9570   26.5830   47.1350 O   0  0  0  0  0  0  0  0  0  0  0  0
   59.7320   28.8990   47.6630 C   0  0  0  0  0  0  0  0  0  0  0  0
   58.6780   29.9140   47.6300 N   0  0  0  0  0  0  0  0  0  0  0  0
   58.4610   30.5460   46.0210 S   0  0  0  0  0  0  0  0  0  0  0  0
   57.0550   30.2740   45.5600 O   0  0  0  0  0  0  0  0  0  0  0  0
   59.4250   29.8480   45.1030 O   0  0  0  0  0  0  0  0  0  0  0  0
   58.7830   32.2850   45.9700 C   0  0  0  0  0  0  0  0  0  0  0  0
   59.3420   32.9180   47.0960 C   0  0  0  0  0  0  0  0  0  0  0  0
   59.5980   34.2900   47.0840 C   0  0  0  0  0  0  0  0  0  0  0  0
   59.3140   35.0440   45.9430 C   0  0  0  0  0  0  0  0  0  0  0  0
   58.7790   34.4250   44.8110 C   0  0  0  0  0  0  0  0  0  0  0  0
   58.5130   33.0500   44.8130 C   0  0  0  0  0  0  0  0  0  0  0  0
   57.8120   32.2740   43.2030 Br  0  0  0  0  0  0  0  0  0  0  0  0
   55.9430   24.7330   46.9340 N   0  0  0  0  0  0  0  0  0  0  0  0
   56.9990   23.7440   47.1160 C   0  0  0  0  0  0  0  0  0  0  0  0
   57.2150   22.9720   45.8430 C   0  0  0  0  0  0  0  0  0  0  0  0
   58.5160   22.6020   45.4590 C   0  0  0  0  0  0  0  0  0  0  0  0
   58.7210   21.8640   44.2890 C   0  0  0  0  0  0  0  0  0  0  0  0
   57.6320   21.4870   43.4960 C   0  0  0  0  0  0  0  0  0  0  0  0
   57.8350   20.7710   42.3620 F   0  0  0  0  0  0  0  0  0  0  0  0
   56.3350   21.8460   43.8740 C   0  0  0  0  0  0  0  0  0  0  0  0
   56.1240   22.5850   45.0450 C   0  0  0  0  0  0  0  0  0  0  0  0
   58.1928   25.5252   45.9681 H   0  0  0  0  0  0  0  0  0  0  0  0
   57.4450   26.5296   44.6685 H   0  0  0  0  0  0  0  0  0  0  0  0
   57.3710   28.4260   46.3910 H   0  0  0  0  0  0  0  0  0  0  0  0
   60.0322   28.7212   48.7062 H   0  0  0  0  0  0  0  0  0  0  0  0
   60.5927   29.2575   47.0794 H   0  0  0  0  0  0  0  0  0  0  0  0
   59.5790   32.3266   47.9927 H   0  0  0  0  0  0  0  0  0  0  0  0
   60.0236   34.7777   47.9734 H   0  0  0  0  0  0  0  0  0  0  0  0
   59.5118   36.1260   45.9360 H   0  0  0  0  0  0  0  0  0  0  0  0
   58.5651   35.0215   43.9119 H   0  0  0  0  0  0  0  0  0  0  0  0
   57.9323   24.2562   47.3928 H   0  0  0  0  0  0  0  0  0  0  0  0
   56.7024   23.0457   47.9125 H   0  0  0  0  0  0  0  0  0  0  0  0
   59.3752   22.8939   46.0808 H   0  0  0  0  0  0  0  0  0  0  0  0
   59.7410   21.5793   43.9915 H   0  0  0  0  0  0  0  0  0  0  0  0
   55.4789   21.5477   43.2510 H   0  0  0  0  0  0  0  0  0  0  0  0
   55.1018   22.8634   45.3411 H   0  0  0  0  0  0  0  0  0  0  0  0
  1  2  2  0
  2  3  1  0
  3  4  1  0
  4  5  1  0
  5  6  2  0
  5  7  1  0
  7  8  1  0
  8  9  1  0
  9 10  2  0
  9 11  2  0
  9 12  1  0
 12 13  2  0
 13 14  1  0
 14 15  2  0
 15 16  1  0
 16 17  2  0
 17 18  1  0
  2 19  1  0
 19 20  1  0
 20 21  1  0
 21 22  2  0
 22 23  1  0
 23 24  2  0
 24 25  1  0
 24 26  1  0
 26 27  2  0
 17 12  1  0
 27 21  1  0
  3 28  1  0
  3 29  1  0
  4 30  1  0
  7 31  1  0
  7 32  1  0
 13 33  1  0
 14 34  1  0
 15 35  1  0
 16 36  1  0
 20 37  1  0
 20 38  1  0
 22 39  1  0
 23 40  1  0
 26 41  1  0
 27 42  1  0
M  CHG  2   8  -1  19  -1
M  END
>  <UniqueID>  (77) 
70

>  <SMILES>  (77) 
O=C(CNC(=O)C[N-]S(=O)(=O)c1ccccc1Br)[N-]Cc1ccc(F)cc1

>  <Energy>  (77) 
37.30671552917394

>  <Genealogy>  (77) 
O=C(CNC(=O)C[N-]S(=O)(=O)c1ccccc1Br)[N-]Cc1ccc(F)cc1 (protonated)
O=C(CNC(=O)C[N-]S(=O)(=O)c1ccccc1Br)[N-]Cc1ccc(F)cc1 (3D coordinates assigned)
O=C(CNC(=O)C[N-]S(=O)(=O)c1ccccc1Br)[N-]Cc1ccc(F)cc1 (optimized conformer: 37.30671552917394 kcal/mol)

>  <smiles>  (77) 
O=C(CNC(=O)CNS(=O)(=O)c1ccccc1Br)NCc1ccc(F)cc1

>  <score_type>  (77) 
oracle

>  <origin>  (77) 
adg

>  <m_score__min__energy>  (77) 
-11.56

>  <m_primary>  (77) 
energy

$$$$
77:0
     RDKit          3D

 52 54  0  0  0  0  0  0  0  0999 V2000
   55.5390   27.0380   45.8840 N   0  0  0  0  0  0  0  0  0  0  0  0
   56.7630   26.6010   46.4720 C   0  0  0  0  0  0  0  0  0  0  0  0
   56.7680   25.5490   47.1670 O   0  0  0  0  0  0  0  0  0  0  0  0
   58.0130   27.3730   46.2730 C   0  0  0  0  0  0  0  0  0  0  0  0
   58.6500   27.3830   45.0190 C   0  0  0  0  0  0  0  0  0  0  0  0
   59.8170   28.1250   44.8250 C   0  0  0  0  0  0  0  0  0  0  0  0
   60.3690   28.8540   45.8780 C   0  0  0  0  0  0  0  0  0  0  0  0
   59.7660   28.8400   47.1430 C   0  0  0  0  0  0  0  0  0  0  0  0
   60.3450   29.6170   48.2070 N   0  0  0  0  0  0  0  0  0  0  0  0
   60.5410   29.1320   49.5440 C   0  0  0  0  0  0  0  0  0  0  0  0
   60.4330   27.9030   49.8050 O   0  0  0  0  0  0  0  0  0  0  0  0
   60.9710   30.0730   50.6220 C   0  0  0  0  0  0  0  0  0  0  0  0
   61.0130   31.4290   50.0870 N   0  0  0  0  0  0  0  0  0  0  0  0
   59.8800   32.1370   49.5670 C   0  0  0  0  0  0  0  0  0  0  0  0
   58.7900   32.0810   50.1960 O   0  0  0  0  0  0  0  0  0  0  0  0
   59.9390   32.8980   48.3040 C   0  0  0  0  0  0  0  0  0  0  0  0
   61.1580   33.4030   47.8260 C   0  0  0  0  0  0  0  0  0  0  0  0
   61.1980   34.1390   46.6400 C   0  0  0  0  0  0  0  0  0  0  0  0
   60.0220   34.3900   45.9290 C   0  0  0  0  0  0  0  0  0  0  0  0
   58.7910   33.9110   46.4050 C   0  0  0  0  0  0  0  0  0  0  0  0
   57.5160   34.2120   45.6550 C   0  0  0  0  0  0  0  0  0  0  0  0
   57.2170   33.1860   44.5470 C   0  0  1  0  0  0  0  0  0  0  0  0
   58.4750   32.8050   43.7430 C   0  0  0  0  0  0  0  0  0  0  0  0
   58.1610   31.6980   42.7240 C   0  0  2  0  0  0  0  0  0  0  0  0
   57.3050   32.1680   41.7090 O   0  0  0  0  0  0  0  0  0  0  0  0
   57.5960   30.4420   43.4170 C   0  0  0  0  0  0  0  0  0  0  0  0
   56.5880   30.7790   44.4790 C   0  0  0  0  0  0  0  0  0  0  0  0
   55.7990   29.8880   44.8880 O   0  0  0  0  0  0  0  0  0  0  0  0
   56.5840   32.0320   45.1020 O   0  0  0  0  0  0  0  0  0  0  0  0
   58.7560   33.1700   47.5980 C   0  0  0  0  0  0  0  0  0  0  0  0
   58.5770   28.1120   47.3300 C   0  0  0  0  0  0  0  0  0  0  0  0
   55.5170   27.8460   45.2240 H   0  0  0  0  0  0  0  0  0  0  0  0
   58.2263   26.8028   44.1860 H   0  0  0  0  0  0  0  0  0  0  0  0
   60.3026   28.1345   43.8381 H   0  0  0  0  0  0  0  0  0  0  0  0
   61.2832   29.4435   45.7147 H   0  0  0  0  0  0  0  0  0  0  0  0
   60.7260   30.5610   47.9730 H   0  0  0  0  0  0  0  0  0  0  0  0
   60.2551   30.0287   51.4560 H   0  0  0  0  0  0  0  0  0  0  0  0
   61.9697   29.7879   50.9844 H   0  0  0  0  0  0  0  0  0  0  0  0
   62.0855   33.2183   48.3878 H   0  0  0  0  0  0  0  0  0  0  0  0
   62.1583   34.5222   46.2645 H   0  0  0  0  0  0  0  0  0  0  0  0
   60.0606   34.9653   44.9923 H   0  0  0  0  0  0  0  0  0  0  0  0
   56.6797   34.2108   46.3696 H   0  0  0  0  0  0  0  0  0  0  0  0
   57.6403   35.1926   45.1724 H   0  0  0  0  0  0  0  0  0  0  0  0
   56.5264   33.6589   43.8333 H   0  0  0  0  0  0  0  0  0  0  0  0
   58.8430   33.6929   43.2081 H   0  0  0  0  0  0  0  0  0  0  0  0
   59.2389   32.4329   44.4416 H   0  0  0  0  0  0  0  0  0  0  0  0
   59.1058   31.4044   42.2432 H   0  0  0  0  0  0  0  0  0  0  0  0
   56.3970   32.2800   42.0920 H   0  0  0  0  0  0  0  0  0  0  0  0
   57.1125   29.8077   42.6594 H   0  0  0  0  0  0  0  0  0  0  0  0
   58.4342   29.9211   43.9030 H   0  0  0  0  0  0  0  0  0  0  0  0
   57.7941   32.7998   47.9822 H   0  0  0  0  0  0  0  0  0  0  0  0
   58.0827   28.1203   48.3126 H   0  0  0  0  0  0  0  0  0  0  0  0
  1  2  1  0
  2  3  2  0
  2  4  1  0
  4  5  2  0
  5  6  1  0
  6  7  2  0
  7  8  1  0
  8  9  1  0
  9 10  1  0
 10 11  2  0
 10 12  1  0
 12 13  1  0
 13 14  1  0
 14 15  2  0
 14 16  1  0
 16 17  2  0
 17 18  1  0
 18 19  2  0
 19 20  1  0
 20 21  1  0
 21 22  1  0
 22 23  1  0
 23 24  1  0
 24 25  1  0
 24 26  1  0
 26 27  1  0
 27 28  2  0
 27 29  1  0
 20 30  2  0
  8 31  2  0
 31  4  1  0
 30 16  1  0
 29 22  1  0
  1 32  1  0
  5 33  1  0
  6 34  1  0
  7 35  1  0
  9 36  1  0
 12 37  1  0
 12 38  1  0
 17 39  1  0
 18 40  1  0
 19 41  1  0
 21 42  1  0
 21 43  1  0
 22 44  1  6
 23 45  1  0
 23 46  1  0
 24 47  1  6
 25 48  1  0
 26 49  1  0
 26 50  1  0
 30 51  1  0
 31 52  1  0
M  CHG  2   1  -1  13  -1
M  END
>  <UniqueID>  (78) 
71

>  <SMILES>  (78) 
[NH-]C(=O)c1cccc(NC(=O)C[N-]C(=O)c2cccc(C[C@H]3C[C@H](O)CC(=O)O3)c2)c1

>  <Energy>  (78) 
57.975966362318886

>  <Genealogy>  (78) 
[NH-]C(=O)c1cccc(NC(=O)C[N-]C(=O)c2cccc(CC3CC(O)CC(=O)O3)c2)c1 (protonated)
[NH-]C(=O)c1cccc(NC(=O)C[N-]C(=O)c2cccc(C[C@H]3C[C@H](O)CC(=O)O3)c2)c1 (chirality)
[NH-]C(=O)c1cccc(NC(=O)C[N-]C(=O)c2cccc(C[C@H]3C[C@H](O)CC(=O)O3)c2)c1 (3D coordinates assigned)
[NH-]C(=O)c1cccc(NC(=O)C[N-]C(=O)c2cccc(C[C@H]3C[C@H](O)CC(=O)O3)c2)c1 (nonaromatic ring conformer: 57.975966362318886 kcal/mol)

>  <smiles>  (78) 
NC(=O)c1cccc(NC(=O)CNC(=O)c2cccc(CC3CC(O)CC(=O)O3)c2)c1

>  <score_type>  (78) 
oracle

>  <origin>  (78) 
adg

>  <m_score__min__energy>  (78) 
-14.949999999999999

>  <m_primary>  (78) 
energy

$$$$
78:0
     RDKit          3D

 53 55  0  0  0  0  0  0  0  0999 V2000
   54.8370   26.3450   45.9990 N   0  0  0  0  0  0  0  0  0  0  0  0
   56.2470   26.2860   45.7880 C   0  0  0  0  0  0  0  0  0  0  0  0
   56.7670   25.2010   45.4100 O   0  0  0  0  0  0  0  0  0  0  0  0
   57.0910   27.4840   46.0070 C   0  0  0  0  0  0  0  0  0  0  0  0
   56.9900   28.5940   45.1500 C   0  0  0  0  0  0  0  0  0  0  0  0
   57.7830   29.7260   45.3610 C   0  0  0  0  0  0  0  0  0  0  0  0
   58.7030   29.7660   46.4170 C   0  0  0  0  0  0  0  0  0  0  0  0
   59.4840   30.9540   46.6290 N   0  0  0  0  0  0  0  0  0  0  0  0
   59.0250   32.2790   46.3230 C   0  0  0  0  0  0  0  0  0  0  0  0
   57.7920   32.5190   46.2210 O   0  0  0  0  0  0  0  0  0  0  0  0
   60.0150   33.4010   46.1430 C   0  0  0  0  0  0  0  0  0  0  0  0
   61.0790   33.4160   47.1690 N   0  0  0  0  0  0  0  0  0  0  0  0
   60.8930   34.4580   48.1900 C   0  0  0  0  0  0  0  0  0  0  0  0
   61.8250   34.1900   49.3910 C   0  0  0  0  0  0  0  0  0  0  0  0
   63.0480   33.4320   49.0240 N   0  0  0  0  0  0  0  0  0  0  0  0
   62.8970   31.9730   49.2270 C   0  0  0  0  0  0  0  0  0  0  0  0
   61.6190   31.6890   49.9700 C   0  0  0  0  0  0  0  0  0  0  0  0
   60.5160   31.1580   49.2850 C   0  0  0  0  0  0  0  0  0  0  0  0
   59.3290   30.8780   49.9680 C   0  0  0  0  0  0  0  0  0  0  0  0
   59.2330   31.1220   51.3430 C   0  0  0  0  0  0  0  0  0  0  0  0
   57.7380   30.7480   52.1940 S   0  0  0  0  0  0  0  0  0  0  0  0
   56.6210   32.0520   51.9960 N   0  0  0  0  0  0  0  0  0  0  0  0
   58.0280   30.5520   53.6550 O   0  0  0  0  0  0  0  0  0  0  0  0
   57.1290   29.4860   51.6480 O   0  0  0  0  0  0  0  0  0  0  0  0
   60.3370   31.6410   52.0330 C   0  0  0  0  0  0  0  0  0  0  0  0
   61.5240   31.9260   51.3510 C   0  0  0  0  0  0  0  0  0  0  0  0
   63.5090   33.7610   47.6610 C   0  0  0  0  0  0  0  0  0  0  0  0
   62.4390   33.4540   46.5900 C   0  0  0  0  0  0  0  0  0  0  0  0
   58.7920   28.6660   47.2860 C   0  0  0  0  0  0  0  0  0  0  0  0
   57.9980   27.5340   47.0800 C   0  0  0  0  0  0  0  0  0  0  0  0
   54.4240   27.0220   46.6780 H   0  0  0  0  0  0  0  0  0  0  0  0
   56.2825   28.5717   44.3080 H   0  0  0  0  0  0  0  0  0  0  0  0
   57.6837   30.5933   44.6917 H   0  0  0  0  0  0  0  0  0  0  0  0
   60.4320   30.8490   47.0580 H   0  0  0  0  0  0  0  0  0  0  0  0
   60.4856   33.2954   45.1544 H   0  0  0  0  0  0  0  0  0  0  0  0
   59.4575   34.3443   46.2398 H   0  0  0  0  0  0  0  0  0  0  0  0
   61.1309   35.4404   47.7560 H   0  0  0  0  0  0  0  0  0  0  0  0
   59.8480   34.4460   48.5332 H   0  0  0  0  0  0  0  0  0  0  0  0
   62.1282   35.1561   49.8208 H   0  0  0  0  0  0  0  0  0  0  0  0
   61.2632   33.5761   50.1104 H   0  0  0  0  0  0  0  0  0  0  0  0
   62.8702   31.4695   48.2494 H   0  0  0  0  0  0  0  0  0  0  0  0
   63.7484   31.5989   49.8145 H   0  0  0  0  0  0  0  0  0  0  0  0
   60.5855   30.9610   48.2050 H   0  0  0  0  0  0  0  0  0  0  0  0
   58.4675   30.4645   49.4232 H   0  0  0  0  0  0  0  0  0  0  0  0
   56.2340   31.9750   51.0300 H   0  0  0  0  0  0  0  0  0  0  0  0
   60.2695   31.8249   53.1154 H   0  0  0  0  0  0  0  0  0  0  0  0
   62.3856   32.3369   51.8976 H   0  0  0  0  0  0  0  0  0  0  0  0
   63.7538   34.8326   47.6194 H   0  0  0  0  0  0  0  0  0  0  0  0
   64.3900   33.1389   47.4445 H   0  0  0  0  0  0  0  0  0  0  0  0
   62.4751   34.2350   45.8163 H   0  0  0  0  0  0  0  0  0  0  0  0
   62.6568   32.4642   46.1624 H   0  0  0  0  0  0  0  0  0  0  0  0
   59.4914   28.6955   48.1345 H   0  0  0  0  0  0  0  0  0  0  0  0
   58.0836   26.6758   47.7627 H   0  0  0  0  0  0  0  0  0  0  0  0
  1  2  1  0
  2  3  2  0
  2  4  1  0
  4  5  2  0
  5  6  1  0
  6  7  2  0
  7  8  1  0
  8  9  1  0
  9 10  2  0
  9 11  1  0
 11 12  1  0
 12 13  1  0
 13 14  1  0
 14 15  1  0
 15 16  1  0
 16 17  1  0
 17 18  2  0
 18 19  1  0
 19 20  2  0
 20 21  1  0
 21 22  1  0
 21 23  2  0
 21 24  2  0
 20 25  1  0
 25 26  2  0
 15 27  1  0
 27 28  1  0
  7 29  1  0
 29 30  2  0
 30  4  1  0
 28 12  1  0
 26 17  1  0
  1 31  1  0
  5 32  1  0
  6 33  1  0
  8 34  1  0
 11 35  1  0
 11 36  1  0
 13 37  1  0
 13 38  1  0
 14 39  1  0
 14 40  1  0
 16 41  1  0
 16 42  1  0
 18 43  1  0
 19 44  1  0
 22 45  1  0
 25 46  1  0
 26 47  1  0
 27 48  1  0
 27 49  1  0
 28 50  1  0
 28 51  1  0
 29 52  1  0
 30 53  1  0
M  CHG  2   1  -1  22  -1
M  END
>  <UniqueID>  (79) 
72

>  <SMILES>  (79) 
[NH-]C(=O)c1ccc(NC(=O)CN2CCN(Cc3ccc(S([NH-])(=O)=O)cc3)CC2)cc1

>  <Energy>  (79) 
69.96873107245939

>  <Genealogy>  (79) 
[NH-]C(=O)c1ccc(NC(=O)CN2CCN(Cc3ccc(S([NH-])(=O)=O)cc3)CC2)cc1 (protonated)
[NH-]C(=O)c1ccc(NC(=O)CN2CCN(Cc3ccc(S([NH-])(=O)=O)cc3)CC2)cc1 (3D coordinates assigned)
[NH-]C(=O)c1ccc(NC(=O)CN2CCN(Cc3ccc(S([NH-])(=O)=O)cc3)CC2)cc1 (nonaromatic ring conformer: 69.96873107245939 kcal/mol)

>  <smiles>  (79) 
NC(=O)c1ccc(NC(=O)CN2CCN(Cc3ccc(S(N)(=O)=O)cc3)CC2)cc1

>  <score_type>  (79) 
oracle

>  <origin>  (79) 
adg

>  <m_score__min__energy>  (79) 
-14.08

>  <m_primary>  (79) 
energy

$$$$
79:0
     RDKit          3D

 52 55  0  0  0  0  0  0  0  0999 V2000
   54.8975   30.7582   43.6732 H   0  0  0  0  0  0  0  0  0  0  0  0
   55.7190   30.1550   44.0870 C   0  0  0  0  0  0  0  0  0  0  0  0
   55.5080   29.0660   44.8720 N   0  0  0  0  0  0  0  0  0  0  0  0
   56.6670   28.4890   45.2570 C   0  0  0  0  0  0  0  0  0  0  0  0
   56.6860   27.4240   46.0060 N   0  0  0  0  0  0  0  0  0  0  0  0
   56.0390   26.1640   45.7620 C   0  0  0  0  0  0  0  0  0  0  0  0
   54.7910   26.0390   45.8980 O   0  0  0  0  0  0  0  0  0  0  0  0
   56.8260   25.0280   45.3690 N   0  0  0  0  0  0  0  0  0  0  0  0
   57.8270   24.4470   46.2510 C   0  0  0  0  0  0  0  0  0  0  0  0
   57.3333   23.9654   47.1080 H   0  0  0  0  0  0  0  0  0  0  0  0
   58.5014   25.2303   46.6275 H   0  0  0  0  0  0  0  0  0  0  0  0
   58.7660   23.2120   45.3100 S   0  0  0  0  0  0  0  0  0  0  0  0
   57.4320   23.0840   44.0870 C   0  0  0  0  0  0  0  0  0  0  0  0
   56.7470   22.2703   44.3673 H   0  0  0  0  0  0  0  0  0  0  0  0
   57.8487   22.8668   43.0924 H   0  0  0  0  0  0  0  0  0  0  0  0
   56.6790   24.4050   44.0630 C   0  0  0  0  0  0  0  0  0  0  0  0
   55.6145   24.2245   43.8529 H   0  0  0  0  0  0  0  0  0  0  0  0
   57.0825   25.0615   43.2780 H   0  0  0  0  0  0  0  0  0  0  0  0
   58.0110   29.3130   44.6450 S   0  0  0  0  0  0  0  0  0  0  0  0
   57.0560   30.4440   43.8500 C   0  0  0  0  0  0  0  0  0  0  0  0
   57.6700   31.7800   42.8330 S   0  0  0  0  0  0  0  0  0  0  0  0
   58.0070   32.8000   44.2620 C   0  0  0  0  0  0  0  0  0  0  0  0
   59.1490   32.8070   44.9080 O   0  0  0  0  0  0  0  0  0  0  0  0
   59.0400   33.6440   45.9130 C   0  0  0  0  0  0  0  0  0  0  0  0
   60.1190   33.8840   46.9220 C   0  0  0  0  0  0  0  0  0  0  0  0
   59.7970   34.6737   47.6167 H   0  0  0  0  0  0  0  0  0  0  0  0
   61.0358   34.1931   46.3986 H   0  0  0  0  0  0  0  0  0  0  0  0
   60.3910   32.6610   47.6750 N   0  0  0  0  0  0  0  0  0  0  0  0
   61.3520   32.2490   47.6630 H   0  0  0  0  0  0  0  0  0  0  0  0
   59.3760   32.0130   48.4520 C   0  0  0  0  0  0  0  0  0  0  0  0
   58.2190   32.5090   48.5290 O   0  0  0  0  0  0  0  0  0  0  0  0
   59.6930   30.7630   49.2140 C   0  0  0  0  0  0  0  0  0  0  0  0
   58.8857   30.5602   49.9331 H   0  0  0  0  0  0  0  0  0  0  0  0
   60.6444   30.8981   49.7492 H   0  0  0  0  0  0  0  0  0  0  0  0
   59.8200   29.6020   48.2680 C   0  0  0  0  0  0  0  0  0  0  0  0
   59.2700   28.3530   48.6030 C   0  0  0  0  0  0  0  0  0  0  0  0
   58.7612   28.2197   49.5691 H   0  0  0  0  0  0  0  0  0  0  0  0
   59.3670   27.2790   47.7130 C   0  0  0  0  0  0  0  0  0  0  0  0
   58.9423   26.3011   47.9840 H   0  0  0  0  0  0  0  0  0  0  0  0
   60.0030   27.4460   46.4790 C   0  0  0  0  0  0  0  0  0  0  0  0
   60.0884   26.5949   45.7873 H   0  0  0  0  0  0  0  0  0  0  0  0
   60.5330   28.6950   46.1190 C   0  0  0  0  0  0  0  0  0  0  0  0
   61.2480   28.8640   44.8100 C   0  0  0  0  0  0  0  0  0  0  0  0
   62.3028   29.1133   44.9979 H   0  0  0  0  0  0  0  0  0  0  0  0
   61.1892   27.9272   44.2365 H   0  0  0  0  0  0  0  0  0  0  0  0
   60.7760   29.6753   44.2365 H   0  0  0  0  0  0  0  0  0  0  0  0
   60.4470   29.7690   47.0220 C   0  0  0  0  0  0  0  0  0  0  0  0
   60.8733   30.7462   46.7512 H   0  0  0  0  0  0  0  0  0  0  0  0
   57.7780   34.2080   45.9310 C   0  0  0  0  0  0  0  0  0  0  0  0
   57.3883   34.9405   46.6532 H   0  0  0  0  0  0  0  0  0  0  0  0
   57.1090   33.6620   44.8560 C   0  0  0  0  0  0  0  0  0  0  0  0
   56.0765   33.8701   44.5389 H   0  0  0  0  0  0  0  0  0  0  0  0
  1  2  1  0
  2  3  1  0
  3  4  1  0
  4  5  2  0
  5  6  1  0
  6  7  2  0
  6  8  1  0
  8  9  1  0
  9 10  1  0
  9 11  1  0
  9 12  1  0
 12 13  1  0
 13 14  1  0
 13 15  1  0
 13 16  1  0
 16 17  1  0
 16 18  1  0
  4 19  1  0
 19 20  1  0
 20 21  1  0
 21 22  1  0
 22 23  1  0
 23 24  1  0
 24 25  1  0
 25 26  1  0
 25 27  1  0
 25 28  1  0
 28 29  1  0
 28 30  1  0
 30 31  2  0
 30 32  1  0
 32 33  1  0
 32 34  1  0
 32 35  1  0
 35 36  2  0
 36 37  1  0
 36 38  1  0
 38 39  1  0
 38 40  2  0
 40 41  1  0
 40 42  1  0
 42 43  1  0
 43 44  1  0
 43 45  1  0
 43 46  1  0
 42 47  2  0
 47 48  1  0
 24 49  2  0
 49 50  1  0
 49 51  1  0
 51 52  1  0
 20  2  2  0
 51 22  2  0
 16  8  1  0
 47 35  1  0
M  CHG  1   3  -1
M  END
>  <UniqueID>  (80) 
73

>  <SMILES>  (80) 
Cc1cccc(CC(=O)NCc2ccc(Sc3c[n-]/c(=N/C(=O)N4CCSC4)s3)o2)c1

>  <Energy>  (80) 
98.9797689542611

>  <Genealogy>  (80) 
Cc1cccc(CC(=O)NCc2ccc(Sc3c[n-]c(=NC(=O)N4CCSC4)s3)o2)c1 (protonated)
Cc1cccc(CC(=O)NCc2ccc(Sc3c[n-]/c(=N/C(=O)N4CCSC4)s3)o2)c1 (cis-trans isomerization)
Cc1cccc(CC(=O)NCc2ccc(Sc3c[n-]/c(=N/C(=O)N4CCSC4)s3)o2)c1 (3D coordinates assigned)
Cc1cccc(CC(=O)NCc2ccc(Sc3c[n-]/c(=N/C(=O)N4CCSC4)s3)o2)c1 (nonaromatic ring conformer: 98.9797689542611 kcal/mol)

>  <smiles>  (80) 
Cc1cccc(CC(=O)NCc2ccc(Sc3c[nH]c(=NC(=O)N4CCSC4)s3)o2)c1

>  <score_type>  (80) 
oracle

>  <origin>  (80) 
adg

>  <m_score__min__energy>  (80) 
-11.949999999999999

>  <m_primary>  (80) 
energy

$$$$
80:0
     RDKit          3D

 49 51  0  0  0  0  0  0  0  0999 V2000
   55.1820   28.0140   44.8570 H   0  0  0  0  0  0  0  0  0  0  0  0
   55.2010   28.9950   44.4970 N   0  0  0  0  0  0  0  0  0  0  0  0
   56.1240   29.8290   44.8440 C   0  0  0  0  0  0  0  0  0  0  0  0
   56.0570   31.1090   44.3860 N   0  0  0  0  0  0  0  0  0  0  0  0
   56.9730   32.0550   44.7170 C   0  0  0  0  0  0  0  0  0  0  0  0
   56.8774   33.0748   44.3159 H   0  0  0  0  0  0  0  0  0  0  0  0
   58.0410   31.7360   45.5690 C   0  0  0  0  0  0  0  0  0  0  0  0
   59.0600   32.7450   45.9570 C   0  0  0  0  0  0  0  0  0  0  0  0
   60.1240   32.3610   46.7170 N   0  0  0  0  0  0  0  0  0  0  0  0
   61.0800   33.2460   47.1020 C   0  0  0  0  0  0  0  0  0  0  0  0
   62.1780   32.8060   47.8960 N   0  0  0  0  0  0  0  0  0  0  0  0
   62.7090   33.0480   49.2510 C   0  0  0  0  0  0  0  0  0  0  0  0
   63.0050   34.0952   49.4119 H   0  0  0  0  0  0  0  0  0  0  0  0
   62.0275   32.8777   50.0975 H   0  0  0  0  0  0  0  0  0  0  0  0
   63.8780   32.1310   49.1190 C   0  0  0  0  0  0  0  0  0  0  0  0
   65.1020   32.7780   49.1270 F   0  0  0  0  0  0  0  0  0  0  0  0
   63.8160   31.0220   49.9460 F   0  0  0  0  0  0  0  0  0  0  0  0
   63.3280   31.8950   47.7510 C   0  0  0  0  0  0  0  0  0  0  0  0
   64.0198   32.2055   46.9542 H   0  0  0  0  0  0  0  0  0  0  0  0
   63.1144   30.8543   47.4657 H   0  0  0  0  0  0  0  0  0  0  0  0
   60.9870   34.5500   46.7330 N   0  0  0  0  0  0  0  0  0  0  0  0
   59.9430   34.9880   45.9850 C   0  0  0  0  0  0  0  0  0  0  0  0
   59.8720   36.2020   45.6620 O   0  0  0  0  0  0  0  0  0  0  0  0
   58.9490   34.0940   45.5790 C   0  0  0  0  0  0  0  0  0  0  0  0
   58.0965   34.4392   44.9755 H   0  0  0  0  0  0  0  0  0  0  0  0
   58.1400   30.4170   46.0380 C   0  0  0  0  0  0  0  0  0  0  0  0
   58.9790   30.1409   46.6937 H   0  0  0  0  0  0  0  0  0  0  0  0
   57.1950   29.4450   45.6900 C   0  0  0  0  0  0  0  0  0  0  0  0
   57.3890   28.1600   46.2360 O   0  0  0  0  0  0  0  0  0  0  0  0
   57.5420   26.9130   45.5540 C   0  0  2  0  0  0  0  0  0  0  0  0
   57.5953   27.0685   44.4664 H   0  0  0  0  0  0  0  0  0  0  0  0
   56.3400   26.0480   45.8660 C   0  0  0  0  0  0  0  0  0  0  0  0
   55.2220   26.5920   46.0810 O   0  0  0  0  0  0  0  0  0  0  0  0
   56.4410   24.6060   45.9090 N   0  0  0  0  0  0  0  0  0  0  0  0
   56.9650   23.9760   47.1250 C   0  0  0  0  0  0  0  0  0  0  0  0
   56.5461   24.4797   48.0086 H   0  0  0  0  0  0  0  0  0  0  0  0
   56.6805   22.9135   47.1393 H   0  0  0  0  0  0  0  0  0  0  0  0
   58.0615   24.0622   47.1393 H   0  0  0  0  0  0  0  0  0  0  0  0
   55.9370   23.7520   44.8200 C   0  0  0  0  0  0  0  0  0  0  0  0
   55.6685   22.7673   45.2302 H   0  0  0  0  0  0  0  0  0  0  0  0
   55.0565   24.2372   44.3736 H   0  0  0  0  0  0  0  0  0  0  0  0
   56.9970   23.5680   43.7300 C   0  0  0  0  0  0  0  0  0  0  0  0
   57.3150   24.7850   43.1540 F   0  0  0  0  0  0  0  0  0  0  0  0
   58.1390   23.0240   44.2860 F   0  0  0  0  0  0  0  0  0  0  0  0
   56.5260   22.7140   42.7490 F   0  0  0  0  0  0  0  0  0  0  0  0
   58.8550   26.2390   45.9840 C   0  0  0  0  0  0  0  0  0  0  0  0
   58.9101   26.2107   47.0823 H   0  0  0  0  0  0  0  0  0  0  0  0
   58.8871   25.2130   45.5887 H   0  0  0  0  0  0  0  0  0  0  0  0
   59.7074   26.8110   45.5887 H   0  0  0  0  0  0  0  0  0  0  0  0
  1  2  1  0
  2  3  2  0
  3  4  1  0
  4  5  1  0
  5  6  1  0
  5  7  2  0
  7  8  1  0
  8  9  1  0
  9 10  2  0
 10 11  1  0
 11 12  1  0
 12 13  1  0
 12 14  1  0
 12 15  1  0
 15 16  1  0
 15 17  1  0
 15 18  1  0
 18 19  1  0
 18 20  1  0
 10 21  1  0
 21 22  1  0
 22 23  2  0
 22 24  1  0
 24 25  1  0
  7 26  1  0
 26 27  1  0
 26 28  2  0
 28 29  1  0
 29 30  1  0
 30 31  1  6
 30 32  1  0
 32 33  2  0
 32 34  1  0
 34 35  1  0
 35 36  1  0
 35 37  1  0
 35 38  1  0
 34 39  1  0
 39 40  1  0
 39 41  1  0
 39 42  1  0
 42 43  1  0
 42 44  1  0
 42 45  1  0
 30 46  1  0
 46 47  1  0
 46 48  1  0
 46 49  1  0
 28  3  1  0
 24  8  2  0
 18 11  1  0
M  CHG  2   4  -1  21  -1
M  END
>  <UniqueID>  (81) 
74

>  <SMILES>  (81) 
[H]/N=c1\[n-]cc(-c2cc(=O)[n-]c(N3CC(F)(F)C3)n2)cc1O[C@@H](C)C(=O)N(C)CC(F)(F)F

>  <Energy>  (81) 
101.21518832157986

>  <Genealogy>  (81) 
CC(Oc1cc(-c2cc(=O)[n-]c(N3CC(F)(F)C3)n2)c[n-]c1=N)C(=O)N(C)CC(F)(F)F (protonated)
C[C@H](Oc1cc(-c2cc(=O)[n-]c(N3CC(F)(F)C3)n2)c[n-]c1=N)C(=O)N(C)CC(F)(F)F (chirality)
[H]/N=c1\[n-]cc(-c2cc(=O)[n-]c(N3CC(F)(F)C3)n2)cc1O[C@@H](C)C(=O)N(C)CC(F)(F)F (cis-trans isomerization)
[H]/N=c1\[n-]cc(-c2cc(=O)[n-]c(N3CC(F)(F)C3)n2)cc1O[C@@H](C)C(=O)N(C)CC(F)(F)F (3D coordinates assigned)
[H]/N=c1\[n-]cc(-c2cc(=O)[n-]c(N3CC(F)(F)C3)n2)cc1O[C@@H](C)C(=O)N(C)CC(F)(F)F (nonaromatic ring conformer: 101.21518832157986 kcal/mol)

>  <smiles>  (81) 
CC(Oc1cc(-c2cc(=O)[nH]c(N3CC(F)(F)C3)n2)c[nH]c1=N)C(=O)N(C)CC(F)(F)F

>  <score_type>  (81) 
oracle

>  <origin>  (81) 
adg

>  <m_score__min__energy>  (81) 
-10.539999999999999

>  <m_primary>  (81) 
energy

$$$$
81:0
     RDKit          3D

 49 52  0  0  0  0  0  0  0  0999 V2000
   55.1860   26.3330   46.0230 N   0  0  0  0  0  0  0  0  0  0  0  0
   56.5710   26.5150   46.3100 C   0  0  0  0  0  0  0  0  0  0  0  0
   57.2740   25.5200   46.6350 O   0  0  0  0  0  0  0  0  0  0  0  0
   57.1680   27.8600   46.2230 C   0  0  0  0  0  0  0  0  0  0  0  0
   58.2370   28.2380   47.0450 C   0  0  0  0  0  0  0  0  0  0  0  0
   58.7670   29.5320   46.9170 C   0  0  0  0  0  0  0  0  0  0  0  0
   59.9020   29.9970   47.7550 C   0  0  0  0  0  0  0  0  0  0  0  0
   60.8250   30.9210   47.2350 C   0  0  0  0  0  0  0  0  0  0  0  0
   61.8910   31.3770   48.0140 C   0  0  0  0  0  0  0  0  0  0  0  0
   62.0620   30.9170   49.3270 C   0  0  0  0  0  0  0  0  0  0  0  0
   63.1540   31.4230   50.1150 N   0  0  0  0  0  0  0  0  0  0  0  0
   63.8050   30.6880   51.1600 C   0  0  0  0  0  0  0  0  0  0  0  0
   63.6280   29.4450   51.2720 O   0  0  0  0  0  0  0  0  0  0  0  0
   64.7310   31.3680   52.0180 N   0  0  0  0  0  0  0  0  0  0  0  0
   65.7090   32.3380   51.6160 C   0  0  0  0  0  0  0  0  0  0  0  0
   65.8450   33.5090   52.3750 C   0  0  0  0  0  0  0  0  0  0  0  0
   66.8030   34.4680   52.0310 C   0  0  0  0  0  0  0  0  0  0  0  0
   67.6420   34.2570   50.9340 C   0  0  0  0  0  0  0  0  0  0  0  0
   68.5740   35.1850   50.6030 F   0  0  0  0  0  0  0  0  0  0  0  0
   67.5310   33.0830   50.1850 C   0  0  0  0  0  0  0  0  0  0  0  0
   66.5730   32.1210   50.5250 C   0  0  0  0  0  0  0  0  0  0  0  0
   61.1220   30.0210   49.8630 C   0  0  0  0  0  0  0  0  0  0  0  0
   60.0560   29.5620   49.0840 C   0  0  0  0  0  0  0  0  0  0  0  0
   58.2350   30.3740   45.9890 N   0  0  0  0  0  0  0  0  0  0  0  0
   57.1970   30.0000   45.1980 C   0  0  0  0  0  0  0  0  0  0  0  0
   56.6890   30.9160   44.2670 O   0  0  0  0  0  0  0  0  0  0  0  0
   57.4460   31.8590   43.5600 C   0  0  0  0  0  0  0  0  0  0  0  0
   57.3830   31.9400   42.3030 O   0  0  0  0  0  0  0  0  0  0  0  0
   58.2990   32.7430   44.2890 N   0  0  0  0  0  0  0  0  0  0  0  0
   57.7760   33.8030   45.1430 C   0  0  0  0  0  0  0  0  0  0  0  0
   58.0010   33.5370   46.6190 C   0  0  0  0  0  0  0  0  0  0  0  0
   58.8530   34.5650   45.8900 C   0  0  0  0  0  0  0  0  0  0  0  0
   56.6750   28.7510   45.3230 N   0  0  0  0  0  0  0  0  0  0  0  0
   54.7700   26.6950   45.1350 H   0  0  0  0  0  0  0  0  0  0  0  0
   58.6546   27.5329   47.7788 H   0  0  0  0  0  0  0  0  0  0  0  0
   60.7067   31.2884   46.2049 H   0  0  0  0  0  0  0  0  0  0  0  0
   62.6022   32.1032   47.5936 H   0  0  0  0  0  0  0  0  0  0  0  0
   63.5480   32.3600   49.8690 H   0  0  0  0  0  0  0  0  0  0  0  0
   65.1943   33.6744   53.2463 H   0  0  0  0  0  0  0  0  0  0  0  0
   66.8960   35.3893   52.6247 H   0  0  0  0  0  0  0  0  0  0  0  0
   68.1977   32.9144   49.3265 H   0  0  0  0  0  0  0  0  0  0  0  0
   66.4946   31.1934   49.9389 H   0  0  0  0  0  0  0  0  0  0  0  0
   61.2256   29.6782   50.9031 H   0  0  0  0  0  0  0  0  0  0  0  0
   59.3314   28.8547   49.5137 H   0  0  0  0  0  0  0  0  0  0  0  0
   56.9146   34.0858   44.5201 H   0  0  0  0  0  0  0  0  0  0  0  0
   57.2545   33.8649   47.3574 H   0  0  0  0  0  0  0  0  0  0  0  0
   58.2085   32.6436   47.2263 H   0  0  0  0  0  0  0  0  0  0  0  0
   58.7230   35.6367   46.1011 H   0  0  0  0  0  0  0  0  0  0  0  0
   59.9326   34.7237   45.7513 H   0  0  0  0  0  0  0  0  0  0  0  0
  1  2  1  0
  2  3  2  0
  2  4  1  0
  4  5  2  0
  5  6  1  0
  6  7  1  0
  7  8  2  0
  8  9  1  0
  9 10  2  0
 10 11  1  0
 11 12  1  0
 12 13  2  0
 12 14  1  0
 14 15  1  0
 15 16  2  0
 16 17  1  0
 17 18  2  0
 18 19  1  0
 18 20  1  0
 20 21  2  0
 10 22  1  0
 22 23  2  0
  6 24  2  0
 24 25  1  0
 25 26  1  0
 26 27  1  0
 27 28  2  0
 27 29  1  0
 29 30  1  0
 30 31  1  0
 31 32  1  0
 25 33  2  0
 33  4  1  0
 23  7  1  0
 32 30  1  0
 21 15  1  0
  1 34  1  0
  5 35  1  0
  8 36  1  0
  9 37  1  0
 11 38  1  0
 16 39  1  0
 17 40  1  0
 20 41  1  0
 21 42  1  0
 22 43  1  0
 23 44  1  0
 30 45  1  0
 31 46  1  0
 31 47  1  0
 32 48  1  0
 32 49  1  0
M  CHG  3   1  -1  14  -1  29  -1
M  END
>  <UniqueID>  (82) 
75

>  <SMILES>  (82) 
[NH-]C(=O)c1cc(-c2ccc(NC(=O)[N-]c3ccc(F)cc3)cc2)nc(OC(=O)[N-]C2CC2)n1

>  <Energy>  (82) 
327.3778655723663

>  <Genealogy>  (82) 
[NH-]C(=O)c1cc(-c2ccc(NC(=O)[N-]c3ccc(F)cc3)cc2)nc(OC(=O)[N-]C2CC2)n1 (protonated)
[NH-]C(=O)c1cc(-c2ccc(NC(=O)[N-]c3ccc(F)cc3)cc2)nc(OC(=O)[N-]C2CC2)n1 (3D coordinates assigned)
[NH-]C(=O)c1cc(-c2ccc(NC(=O)[N-]c3ccc(F)cc3)cc2)nc(OC(=O)[N-]C2CC2)n1 (nonaromatic ring conformer: 327.3778655723663 kcal/mol)

>  <smiles>  (82) 
NC(=O)c1cc(-c2ccc(NC(=O)Nc3ccc(F)cc3)cc2)nc(OC(=O)NC2CC2)n1

>  <score_type>  (82) 
oracle

>  <origin>  (82) 
adg

>  <m_score__min__energy>  (82) 
-12.56

>  <m_primary>  (82) 
energy

$$$$
82:0
     RDKit          3D

 40 41  0  0  0  0  0  0  0  0999 V2000
   54.9310   31.9316   51.4923 H   0  0  0  0  0  0  0  0  0  0  0  0
   55.5900   31.1930   51.9720 C   0  0  0  0  0  0  0  0  0  0  0  0
   56.6812   31.2748   51.8600 H   0  0  0  0  0  0  0  0  0  0  0  0
   55.0590   30.1850   52.6990 C   0  0  0  0  0  0  0  0  0  0  0  0
   55.9110   29.2160   53.3290 C   0  0  0  0  0  0  0  0  0  0  0  0
   57.4030   29.5080   53.6080 C   0  0  1  0  0  0  0  0  0  0  0  0
   57.7139   28.6873   54.2712 H   0  0  0  0  0  0  0  0  0  0  0  0
   58.2150   29.4840   52.2980 C   0  0  0  0  0  0  0  0  0  0  0  0
   59.2891   29.4523   52.5329 H   0  0  0  0  0  0  0  0  0  0  0  0
   57.9411   28.5936   51.7131 H   0  0  0  0  0  0  0  0  0  0  0  0
   57.9942   30.3891   51.7131 H   0  0  0  0  0  0  0  0  0  0  0  0
   57.7210   30.7870   54.4340 C   0  0  0  0  0  0  0  0  0  0  0  0
   58.7826   30.7530   54.7201 H   0  0  0  0  0  0  0  0  0  0  0  0
   57.4693   31.6404   53.7872 H   0  0  0  0  0  0  0  0  0  0  0  0
   56.8880   30.9590   55.7140 C   0  0  0  0  0  0  0  0  0  0  0  0
   57.5352   30.8254   56.5934 H   0  0  0  0  0  0  0  0  0  0  0  0
   56.4479   31.9670   55.7324 H   0  0  0  0  0  0  0  0  0  0  0  0
   56.0847   30.2078   55.7324 H   0  0  0  0  0  0  0  0  0  0  0  0
   55.3470   27.9720   53.6900 C   0  0  0  0  0  0  0  0  0  0  0  0
   55.9915   27.2007   54.1369 H   0  0  0  0  0  0  0  0  0  0  0  0
   53.9930   27.6970   53.4940 C   0  0  0  0  0  0  0  0  0  0  0  0
   53.4440   26.3300   53.8140 C   0  0  0  0  0  0  0  0  0  0  0  0
   52.7158   26.4162   54.6339 H   0  0  0  0  0  0  0  0  0  0  0  0
   52.9591   25.9241   52.9139 H   0  0  0  0  0  0  0  0  0  0  0  0
   54.5630   25.3850   54.2360 C   0  0  0  0  0  0  0  0  0  0  0  0
   54.6128   25.3429   55.3341 H   0  0  0  0  0  0  0  0  0  0  0  0
   54.3624   24.3789   53.8392 H   0  0  0  0  0  0  0  0  0  0  0  0
   55.5214   25.7512   53.8392 H   0  0  0  0  0  0  0  0  0  0  0  0
   53.1510   28.6910   53.0020 C   0  0  0  0  0  0  0  0  0  0  0  0
   52.0856   28.4672   52.8445 H   0  0  0  0  0  0  0  0  0  0  0  0
   53.6380   29.9750   52.7030 C   0  0  0  0  0  0  0  0  0  0  0  0
   52.7090   30.9360   52.4630 C   0  0  0  0  0  0  0  0  0  0  0  0
   52.5177   31.6608   53.2680 H   0  0  0  0  0  0  0  0  0  0  0  0
   51.9320   31.0940   51.2150 C   0  0  0  0  0  0  0  0  0  0  0  0
   51.9250   30.2160   50.1940 N   0  0  0  0  0  0  0  0  0  0  0  0
   51.1690   30.8310   49.2590 C   0  0  0  0  0  0  0  0  0  0  0  0
   50.9150   30.3100   48.1420 O   0  0  0  0  0  0  0  0  0  0  0  0
   50.7140   32.0530   49.6120 N   0  0  0  0  0  0  0  0  0  0  0  0
   51.2160   32.2070   50.8480 C   0  0  0  0  0  0  0  0  0  0  0  0
   51.0250   33.3440   51.6230 O   0  0  0  0  0  0  0  0  0  0  0  0
  1  2  1  0
  2  3  1  0
  2  4  2  0
  4  5  1  0
  5  6  1  0
  6  7  1  1
  6  8  1  0
  8  9  1  0
  8 10  1  0
  8 11  1  0
  6 12  1  0
 12 13  1  0
 12 14  1  0
 12 15  1  0
 15 16  1  0
 15 17  1  0
 15 18  1  0
  5 19  2  0
 19 20  1  0
 19 21  1  0
 21 22  1  0
 22 23  1  0
 22 24  1  0
 22 25  1  0
 25 26  1  0
 25 27  1  0
 25 28  1  0
 21 29  2  0
 29 30  1  0
 29 31  1  0
 31 32  2  0
 32 33  1  0
 32 34  1  0
 34 35  1  0
 35 36  1  0
 36 37  2  0
 36 38  1  0
 38 39  1  0
 39 40  1  0
 31  4  1  0
 39 34  2  0
M  CHG  3  35  -1  38  -1  40  -1
M  END
>  <UniqueID>  (83) 
76

>  <SMILES>  (83) 
C=c1c([C@@H](C)CC)cc(CC)c/c1=C/c1[n-]c(=O)[n-]c1[O-]

>  <Energy>  (83) 
94.86566192213975

>  <Genealogy>  (83) 
C=c1c(C(C)CC)cc(CC)cc1=Cc1[n-]c(=O)[n-]c1[O-] (protonated)
C=c1c([C@@H](C)CC)cc(CC)cc1=Cc1[n-]c(=O)[n-]c1[O-] (chirality)
C=c1c([C@@H](C)CC)cc(CC)c/c1=C/c1[n-]c(=O)[n-]c1[O-] (cis-trans isomerization)
C=c1c([C@@H](C)CC)cc(CC)c/c1=C/c1[n-]c(=O)[n-]c1[O-] (3D coordinates assigned)
C=c1c([C@@H](C)CC)cc(CC)c/c1=C/c1[n-]c(=O)[n-]c1[O-] (optimized conformer: 94.86566192213975 kcal/mol)

>  <smiles>  (83) 
C=c1c(C(C)CC)cc(CC)cc1=Cc1[nH]c(=O)[nH]c1O

>  <score_type>  (83) 
oracle

>  <origin>  (83) 
adg

>  <m_score__min__energy>  (83) 
-15

>  <m_primary>  (83) 
energy

$$$$
83:0
     RDKit          3D

 47 49  0  0  0  0  0  0  0  0999 V2000
   58.1030   21.0960   43.5650 N   0  0  0  0  0  0  0  0  0  0  0  0
   56.7310   22.1140   43.8300 S   0  0  0  0  0  0  0  0  0  0  0  0
   55.9350   22.2210   42.5580 O   0  0  0  0  0  0  0  0  0  0  0  0
   55.8580   21.5130   44.8950 O   0  0  0  0  0  0  0  0  0  0  0  0
   57.2690   23.7140   44.3320 C   0  0  0  0  0  0  0  0  0  0  0  0
   57.3790   24.7470   43.3920 C   0  0  0  0  0  0  0  0  0  0  0  0
   57.7910   26.0210   43.7910 C   0  0  0  0  0  0  0  0  0  0  0  0
   58.1040   26.2750   45.1360 C   0  0  0  0  0  0  0  0  0  0  0  0
   58.5100   27.6520   45.5730 C   0  0  0  0  0  0  0  0  0  0  0  0
   57.3230   28.3880   46.0010 N   0  0  0  0  0  0  0  0  0  0  0  0
   56.7590   29.4040   44.7100 S   0  0  0  0  0  0  0  0  0  0  0  0
   55.2740   29.5930   44.8440 O   0  0  0  0  0  0  0  0  0  0  0  0
   57.0380   28.7470   43.3860 O   0  0  0  0  0  0  0  0  0  0  0  0
   57.5480   30.9770   44.7880 C   0  0  0  0  0  0  0  0  0  0  0  0
   57.5350   31.8180   43.6700 C   0  0  0  0  0  0  0  0  0  0  0  0
   58.1340   33.0790   43.7320 C   0  0  0  0  0  0  0  0  0  0  0  0
   58.7530   33.5050   44.9100 C   0  0  0  0  0  0  0  0  0  0  0  0
   58.7840   32.6650   46.0340 C   0  0  0  0  0  0  0  0  0  0  0  0
   59.4230   33.1080   47.2890 C   0  0  0  0  0  0  0  0  0  0  0  0
   58.8470   33.9770   47.9950 O   0  0  0  0  0  0  0  0  0  0  0  0
   60.6580   32.5480   47.7540 N   0  0  0  0  0  0  0  0  0  0  0  0
   61.8730   33.3130   48.0300 C   0  0  0  0  0  0  0  0  0  0  0  0
   62.5490   33.8170   46.7580 C   0  0  0  0  0  0  0  0  0  0  0  0
   63.7360   32.9040   47.0310 C   0  0  0  0  0  0  0  0  0  0  0  0
   63.0620   32.3980   48.2980 C   0  0  0  0  0  0  0  0  0  0  0  0
   58.1630   31.4080   45.9740 C   0  0  0  0  0  0  0  0  0  0  0  0
   57.9700   25.2450   46.0800 C   0  0  0  0  0  0  0  0  0  0  0  0
   57.5570   23.9710   45.6790 C   0  0  0  0  0  0  0  0  0  0  0  0
   58.4640   20.8200   44.5060 H   0  0  0  0  0  0  0  0  0  0  0  0
   57.7520   20.2240   43.1100 H   0  0  0  0  0  0  0  0  0  0  0  0
   57.1401   24.5543   42.3357 H   0  0  0  0  0  0  0  0  0  0  0  0
   57.8705   26.8285   43.0483 H   0  0  0  0  0  0  0  0  0  0  0  0
   59.2194   27.5783   46.4105 H   0  0  0  0  0  0  0  0  0  0  0  0
   58.9907   28.1794   44.7359 H   0  0  0  0  0  0  0  0  0  0  0  0
   57.0518   31.4856   42.7394 H   0  0  0  0  0  0  0  0  0  0  0  0
   58.1182   33.7378   42.8513 H   0  0  0  0  0  0  0  0  0  0  0  0
   59.2172   34.5012   44.9566 H   0  0  0  0  0  0  0  0  0  0  0  0
   61.5208   34.0256   48.7903 H   0  0  0  0  0  0  0  0  0  0  0  0
   62.0021   33.5791   45.8337 H   0  0  0  0  0  0  0  0  0  0  0  0
   62.6997   34.8945   46.5958 H   0  0  0  0  0  0  0  0  0  0  0  0
   63.8910   32.1293   46.2656 H   0  0  0  0  0  0  0  0  0  0  0  0
   64.7552   33.3158   47.0711 H   0  0  0  0  0  0  0  0  0  0  0  0
   62.8170   31.3258   48.2789 H   0  0  0  0  0  0  0  0  0  0  0  0
   63.5887   32.4373   49.2629 H   0  0  0  0  0  0  0  0  0  0  0  0
   58.1581   30.7572   46.8608 H   0  0  0  0  0  0  0  0  0  0  0  0
   58.1908   25.4410   47.1396 H   0  0  0  0  0  0  0  0  0  0  0  0
   57.4578   23.1674   46.4236 H   0  0  0  0  0  0  0  0  0  0  0  0
  1  2  1  0
  2  3  2  0
  2  4  2  0
  2  5  1  0
  5  6  2  0
  6  7  1  0
  7  8  2  0
  8  9  1  0
  9 10  1  0
 10 11  1  0
 11 12  2  0
 11 13  2  0
 11 14  1  0
 14 15  2  0
 15 16  1  0
 16 17  2  0
 17 18  1  0
 18 19  1  0
 19 20  2  0
 19 21  1  0
 21 22  1  0
 22 23  1  0
 23 24  1  0
 24 25  1  0
 18 26  2  0
  8 27  1  0
 27 28  2  0
 28  5  1  0
 26 14  1  0
 25 22  1  0
  1 29  1  0
  1 30  1  0
  6 31  1  0
  7 32  1  0
  9 33  1  0
  9 34  1  0
 15 35  1  0
 16 36  1  0
 17 37  1  0
 22 38  1  0
 23 39  1  0
 23 40  1  0
 24 41  1  0
 24 42  1  0
 25 43  1  0
 25 44  1  0
 26 45  1  0
 27 46  1  0
 28 47  1  0
M  CHG  2  10  -1  21  -1
M  END
>  <UniqueID>  (84) 
77

>  <SMILES>  (84) 
NS(=O)(=O)c1ccc(C[N-]S(=O)(=O)c2cccc(C(=O)[N-]C3CCC3)c2)cc1

>  <Energy>  (84) 
107.08250498964965

>  <Genealogy>  (84) 
NS(=O)(=O)c1ccc(C[N-]S(=O)(=O)c2cccc(C(=O)[N-]C3CCC3)c2)cc1 (protonated)
NS(=O)(=O)c1ccc(C[N-]S(=O)(=O)c2cccc(C(=O)[N-]C3CCC3)c2)cc1 (3D coordinates assigned)
NS(=O)(=O)c1ccc(C[N-]S(=O)(=O)c2cccc(C(=O)[N-]C3CCC3)c2)cc1 (nonaromatic ring conformer: 107.08250498964965 kcal/mol)

>  <smiles>  (84) 
NS(=O)(=O)c1ccc(CNS(=O)(=O)c2cccc(C(=O)NC3CCC3)c2)cc1

>  <score_type>  (84) 
oracle

>  <origin>  (84) 
adg

>  <m_score__min__energy>  (84) 
-12.84

>  <m_primary>  (84) 
energy

$$$$
84:0
     RDKit          3D

 53 56  0  0  0  0  0  0  0  0999 V2000
   58.7354   31.9740   45.7282 H   0  0  0  0  0  0  0  0  0  0  0  0
   58.6880   30.8760   45.6810 C   0  0  0  0  0  0  0  0  0  0  0  0
   58.5841   30.3713   44.7092 H   0  0  0  0  0  0  0  0  0  0  0  0
   58.7570   30.1510   46.8110 C   0  0  0  0  0  0  0  0  0  0  0  0
   58.7100   28.7500   46.9070 C   0  0  0  0  0  0  0  0  0  0  0  0
   58.4120   27.8070   45.9920 C   0  0  0  0  0  0  0  0  0  0  0  0
   59.1186   27.6745   45.1594 H   0  0  0  0  0  0  0  0  0  0  0  0
   57.2230   26.9380   46.0090 C   0  0  0  0  0  0  0  0  0  0  0  0
   57.2180   25.6960   46.5220 N   0  0  0  0  0  0  0  0  0  0  0  0
   55.9180   25.3360   46.4530 C   0  0  0  0  0  0  0  0  0  0  0  0
   55.5050   24.2110   46.8380 O   0  0  0  0  0  0  0  0  0  0  0  0
   55.0920   26.2810   45.9570 N   0  0  0  0  0  0  0  0  0  0  0  0
   55.9310   27.2960   45.6950 C   0  0  0  0  0  0  0  0  0  0  0  0
   55.5200   28.5330   45.2100 O   0  0  0  0  0  0  0  0  0  0  0  0
   59.0390   28.4400   48.2140 C   0  0  0  0  0  0  0  0  0  0  0  0
   59.1529   27.4317   48.6387 H   0  0  0  0  0  0  0  0  0  0  0  0
   59.1970   29.6340   48.8830 C   0  0  0  0  0  0  0  0  0  0  0  0
   59.5840   29.7430   50.3280 C   0  0  0  0  0  0  0  0  0  0  0  0
   58.7169   29.4988   50.9592 H   0  0  0  0  0  0  0  0  0  0  0  0
   60.4030   29.0406   50.5422 H   0  0  0  0  0  0  0  0  0  0  0  0
   59.9160   30.7696   50.5422 H   0  0  0  0  0  0  0  0  0  0  0  0
   59.0250   30.6800   48.0380 N   0  0  0  0  0  0  0  0  0  0  0  0
   59.1850   32.0980   48.4060 C   0  0  0  0  0  0  0  0  0  0  0  0
   58.4909   32.7064   47.8076 H   0  0  0  0  0  0  0  0  0  0  0  0
   58.9664   32.2109   49.4781 H   0  0  0  0  0  0  0  0  0  0  0  0
   60.5970   32.5620   48.1490 C   0  0  0  0  0  0  0  0  0  0  0  0
   60.8960   33.3240   47.0120 C   0  0  0  0  0  0  0  0  0  0  0  0
   60.0950   33.5927   46.3076 H   0  0  0  0  0  0  0  0  0  0  0  0
   62.2040   33.7440   46.7680 C   0  0  0  0  0  0  0  0  0  0  0  0
   62.4291   34.3422   45.8727 H   0  0  0  0  0  0  0  0  0  0  0  0
   63.2290   33.4080   47.6560 C   0  0  0  0  0  0  0  0  0  0  0  0
   64.4850   33.8570   47.4110 F   0  0  0  0  0  0  0  0  0  0  0  0
   62.9490   32.6430   48.8040 C   0  0  0  0  0  0  0  0  0  0  0  0
   63.9960   32.2860   49.7280 N   0  0  0  0  0  0  0  0  0  0  0  0
   63.8900   31.0440   50.5020 C   0  0  0  0  0  0  0  0  0  0  0  0
   62.8832   30.9752   50.9397 H   0  0  0  0  0  0  0  0  0  0  0  0
   64.0716   30.1909   49.8318 H   0  0  0  0  0  0  0  0  0  0  0  0
   64.9300   31.0210   51.6250 C   0  0  0  0  0  0  0  0  0  0  0  0
   64.7025   31.8211   52.3448 H   0  0  0  0  0  0  0  0  0  0  0  0
   64.8936   30.0404   52.1220 H   0  0  0  0  0  0  0  0  0  0  0  0
   66.2870   31.2290   51.0810 N   0  0  0  0  0  0  0  0  0  0  0  0
   67.2680   31.2840   52.1760 C   0  0  0  0  0  0  0  0  0  0  0  0
   66.7418   31.2545   53.1415 H   0  0  0  0  0  0  0  0  0  0  0  0
   67.9481   30.4226   52.1026 H   0  0  0  0  0  0  0  0  0  0  0  0
   67.8476   32.2160   52.1026 H   0  0  0  0  0  0  0  0  0  0  0  0
   66.4170   32.4060   50.1760 C   0  0  0  0  0  0  0  0  0  0  0  0
   67.1730   33.0841   50.5987 H   0  0  0  0  0  0  0  0  0  0  0  0
   66.6998   32.0144   49.1877 H   0  0  0  0  0  0  0  0  0  0  0  0
   65.1140   33.1990   49.9800 C   0  0  0  0  0  0  0  0  0  0  0  0
   64.9062   33.7855   50.8871 H   0  0  0  0  0  0  0  0  0  0  0  0
   65.2299   33.8698   49.1159 H   0  0  0  0  0  0  0  0  0  0  0  0
   61.6270   32.2300   49.0460 C   0  0  0  0  0  0  0  0  0  0  0  0
   61.3965   31.6413   49.9462 H   0  0  0  0  0  0  0  0  0  0  0  0
  1  2  1  0
  2  3  1  0
  2  4  2  0
  4  5  1  0
  5  6  2  0
  6  7  1  0
  6  8  1  0
  8  9  1  0
  9 10  1  0
 10 11  2  0
 10 12  1  0
 12 13  1  0
 13 14  1  0
  5 15  1  0
 15 16  1  0
 15 17  2  0
 17 18  1  0
 18 19  1  0
 18 20  1  0
 18 21  1  0
 17 22  1  0
 22 23  1  0
 23 24  1  0
 23 25  1  0
 23 26  1  0
 26 27  2  0
 27 28  1  0
 27 29  1  0
 29 30  1  0
 29 31  2  0
 31 32  1  0
 31 33  1  0
 33 34  1  0
 34 35  1  0
 35 36  1  0
 35 37  1  0
 35 38  1  0
 38 39  1  0
 38 40  1  0
 38 41  1  0
 41 42  1  0
 42 43  1  0
 42 44  1  0
 42 45  1  0
 41 46  1  0
 46 47  1  0
 46 48  1  0
 46 49  1  0
 49 50  1  0
 49 51  1  0
 33 52  2  0
 52 53  1  0
 22  4  1  0
 52 26  1  0
 13  8  2  0
 49 34  1  0
M  CHG  3   9  -1  12  -1  14  -1
M  END
>  <UniqueID>  (85) 
78

>  <SMILES>  (85) 
C=c1/c(=C\c2[n-]c(=O)[n-]c2[O-])cc(C)n1Cc1ccc(F)c(N2CCN(C)CC2)c1

>  <Energy>  (85) 
135.56760393041282

>  <Genealogy>  (85) 
C=c1c(=Cc2[n-]c(=O)[n-]c2[O-])cc(C)n1Cc1ccc(F)c(N2CCN(C)CC2)c1 (protonated)
C=c1/c(=C\c2[n-]c(=O)[n-]c2[O-])cc(C)n1Cc1ccc(F)c(N2CCN(C)CC2)c1 (cis-trans isomerization)
C=c1/c(=C\c2[n-]c(=O)[n-]c2[O-])cc(C)n1Cc1ccc(F)c(N2CCN(C)CC2)c1 (3D coordinates assigned)
C=c1/c(=C\c2[n-]c(=O)[n-]c2[O-])cc(C)n1Cc1ccc(F)c(N2CCN(C)CC2)c1 (nonaromatic ring conformer: 135.56760393041282 kcal/mol)

>  <smiles>  (85) 
C=c1c(=Cc2[nH]c(=O)[nH]c2O)cc(C)n1Cc1ccc(F)c(N2CCN(C)CC2)c1

>  <score_type>  (85) 
oracle

>  <origin>  (85) 
adg

>  <m_score__min__energy>  (85) 
-17.02

>  <m_primary>  (85) 
energy

$$$$
85:0
     RDKit          3D

 23 24  0  0  0  0  0  0  0  0999 V2000
   51.4450   30.3100   48.7300 O   0  0  0  0  0  0  0  0  0  0  0  0
   51.3920   30.8690   49.8560 C   0  0  0  0  0  0  0  0  0  0  0  0
   50.9260   32.1250   50.0220 N   0  0  0  0  0  0  0  0  0  0  0  0
   51.0450   32.3090   51.3460 C   0  0  0  0  0  0  0  0  0  0  0  0
   50.6690   33.4750   52.0020 O   0  0  0  0  0  0  0  0  0  0  0  0
   51.5780   31.1890   51.9360 C   0  0  0  0  0  0  0  0  0  0  0  0
   51.8050   30.9690   53.4000 C   0  0  0  0  0  0  0  0  0  0  0  0
   53.2320   30.5590   53.6460 C   0  0  0  0  0  0  0  0  0  0  0  0
   53.5730   29.8470   54.8050 C   0  0  0  0  0  0  0  0  0  0  0  0
   54.8900   29.4370   55.0150 C   0  0  0  0  0  0  0  0  0  0  0  0
   55.8760   29.7250   54.0690 C   0  0  0  0  0  0  0  0  0  0  0  0
   55.5520   30.4270   52.8920 C   0  0  0  0  0  0  0  0  0  0  0  0
   56.5620   30.7180   51.9100 N   0  0  0  0  0  0  0  0  0  0  0  0
   56.7220   31.8820   51.4860 O   0  0  0  0  0  0  0  0  0  0  0  0
   57.3690   29.7180   51.4190 O   0  0  0  0  0  0  0  0  0  0  0  0
   54.2210   30.8360   52.6890 C   0  0  0  0  0  0  0  0  0  0  0  0
   51.7920   30.2560   50.9920 N   0  0  0  0  0  0  0  0  0  0  0  0
   51.5952   31.9012   53.9449 H   0  0  0  0  0  0  0  0  0  0  0  0
   51.1351   30.1708   53.7523 H   0  0  0  0  0  0  0  0  0  0  0  0
   52.7997   29.6110   55.5509 H   0  0  0  0  0  0  0  0  0  0  0  0
   55.1527   28.8847   55.9293 H   0  0  0  0  0  0  0  0  0  0  0  0
   56.9126   29.4014   54.2444 H   0  0  0  0  0  0  0  0  0  0  0  0
   53.9526   31.3786   51.7706 H   0  0  0  0  0  0  0  0  0  0  0  0
  1  2  2  0
  2  3  1  0
  3  4  1  0
  4  5  1  0
  4  6  2  0
  6  7  1  0
  7  8  1  0
  8  9  2  0
  9 10  1  0
 10 11  2  0
 11 12  1  0
 12 13  1  0
 13 14  2  0
 13 15  1  0
 12 16  2  0
  6 17  1  0
 17  2  1  0
 16  8  1  0
  7 18  1  0
  7 19  1  0
  9 20  1  0
 10 21  1  0
 11 22  1  0
 16 23  1  0
M  CHG  5   3  -1   5  -1  13   1  15  -1  17  -1
M  END
>  <UniqueID>  (86) 
79

>  <SMILES>  (86) 
O=c1[n-]c([O-])c(Cc2cccc([N+](=O)[O-])c2)[n-]1

>  <Energy>  (86) 
52.4575426090691

>  <Genealogy>  (86) 
O=c1[n-]c([O-])c(Cc2cccc([N+](=O)[O-])c2)[n-]1 (protonated)
O=c1[n-]c([O-])c(Cc2cccc([N+](=O)[O-])c2)[n-]1 (3D coordinates assigned)
O=c1[n-]c([O-])c(Cc2cccc([N+](=O)[O-])c2)[n-]1 (optimized conformer: 52.4575426090691 kcal/mol)

>  <smiles>  (86) 
O=c1[nH]c(O)c(Cc2cccc([N+](=O)[O-])c2)[nH]1

>  <score_type>  (86) 
oracle

>  <origin>  (86) 
adg

>  <m_score__min__energy>  (86) 
-15.300000000000001

>  <m_primary>  (86) 
energy

$$$$
86:0
     RDKit          3D

 65 68  0  0  0  0  0  0  0  0999 V2000
   60.6110   28.9550   45.2960 C   0  0  0  0  0  0  0  0  0  0  0  0
   60.0110   29.1240   46.6930 C   0  0  0  0  0  0  0  0  0  0  0  0
   60.8550   30.0390   47.6070 C   0  0  0  0  0  0  0  0  0  0  0  0
   60.1190   31.2530   48.0770 N   0  0  0  0  0  0  0  0  0  0  0  0
   60.0730   31.2770   49.5650 C   0  0  0  0  0  0  0  0  0  0  0  0
   59.0510   32.3030   50.1110 C   0  0  0  0  0  0  0  0  0  0  0  0
   57.9930   31.6540   50.9980 C   0  0  0  0  0  0  0  0  0  0  0  0
   58.7250   31.3070   47.5570 C   0  0  0  0  0  0  0  0  0  0  0  0
   58.6050   31.9890   46.2110 C   0  0  0  0  0  0  0  0  0  0  0  0
   58.9700   33.2980   45.8800 C   0  0  0  0  0  0  0  0  0  0  0  0
   59.5640   34.3290   46.7580 C   0  0  0  0  0  0  0  0  0  0  0  0
   58.8940   35.3430   47.0990 O   0  0  0  0  0  0  0  0  0  0  0  0
   60.8890   34.1510   47.2840 N   0  0  0  0  0  0  0  0  0  0  0  0
   61.1530   34.4550   48.6940 C   0  0  0  0  0  0  0  0  0  0  0  0
   62.5040   33.8740   49.1270 C   0  0  0  0  0  0  0  0  0  0  0  0
   62.6850   32.5540   48.4900 N   0  0  0  0  0  0  0  0  0  0  0  0
   63.8200   31.8320   49.1100 C   0  0  0  0  0  0  0  0  0  0  0  0
   64.9370   32.7720   49.5740 C   0  0  0  0  0  0  0  0  0  0  0  0
   64.7070   32.3490   51.0150 C   0  0  0  0  0  0  0  0  0  0  0  0
   63.5740   31.4400   50.5740 C   0  0  0  0  0  0  0  0  0  0  0  0
   62.8980   32.7150   47.0300 C   0  0  0  0  0  0  0  0  0  0  0  0
   62.0150   33.8180   46.4020 C   0  0  0  0  0  0  0  0  0  0  0  0
   58.6570   33.5500   44.5850 N   0  0  0  0  0  0  0  0  0  0  0  0
   58.1080   32.3990   44.1570 C   0  0  0  0  0  0  0  0  0  0  0  0
   57.5950   32.1740   42.8790 C   0  0  0  0  0  0  0  0  0  0  0  0
   57.0200   30.9200   42.6200 C   0  0  0  0  0  0  0  0  0  0  0  0
   56.9650   29.9400   43.6290 C   0  0  0  0  0  0  0  0  0  0  0  0
   57.4930   30.2210   44.8960 C   0  0  0  0  0  0  0  0  0  0  0  0
   58.0530   31.4460   45.1070 N   0  0  0  0  0  0  0  0  0  0  0  0
   61.6664   28.6577   45.3838 H   0  0  0  0  0  0  0  0  0  0  0  0
   60.0555   28.1784   44.7499 H   0  0  0  0  0  0  0  0  0  0  0  0
   60.5425   29.9074   44.7499 H   0  0  0  0  0  0  0  0  0  0  0  0
   59.0062   29.5602   46.5923 H   0  0  0  0  0  0  0  0  0  0  0  0
   59.9823   28.1288   47.1608 H   0  0  0  0  0  0  0  0  0  0  0  0
   61.1681   29.4587   48.4875 H   0  0  0  0  0  0  0  0  0  0  0  0
   61.7119   30.3893   47.0128 H   0  0  0  0  0  0  0  0  0  0  0  0
   60.6040   32.1190   47.7560 H   0  0  0  0  0  0  0  0  0  0  0  0
   59.7942   30.2758   49.9253 H   0  0  0  0  0  0  0  0  0  0  0  0
   61.0691   31.5742   49.9250 H   0  0  0  0  0  0  0  0  0  0  0  0
   59.5902   33.0595   50.7000 H   0  0  0  0  0  0  0  0  0  0  0  0
   58.5361   32.7543   49.2501 H   0  0  0  0  0  0  0  0  0  0  0  0
   58.2527   31.8133   52.0550 H   0  0  0  0  0  0  0  0  0  0  0  0
   57.0121   32.1059   50.7893 H   0  0  0  0  0  0  0  0  0  0  0  0
   57.9513   30.5748   50.7893 H   0  0  0  0  0  0  0  0  0  0  0  0
   58.3503   30.2774   47.4595 H   0  0  0  0  0  0  0  0  0  0  0  0
   58.1372   31.9008   48.2724 H   0  0  0  0  0  0  0  0  0  0  0  0
   61.1677   35.5462   48.8320 H   0  0  0  0  0  0  0  0  0  0  0  0
   60.3597   34.0046   49.3086 H   0  0  0  0  0  0  0  0  0  0  0  0
   63.3137   34.5493   48.8132 H   0  0  0  0  0  0  0  0  0  0  0  0
   62.5288   33.7655   50.2214 H   0  0  0  0  0  0  0  0  0  0  0  0
   63.9999   31.0610   48.3463 H   0  0  0  0  0  0  0  0  0  0  0  0
   65.9321   32.5115   49.1843 H   0  0  0  0  0  0  0  0  0  0  0  0
   64.9143   33.8369   49.2992 H   0  0  0  0  0  0  0  0  0  0  0  0
   65.5575   31.8179   51.4673 H   0  0  0  0  0  0  0  0  0  0  0  0
   64.5391   33.1060   51.7952 H   0  0  0  0  0  0  0  0  0  0  0  0
   63.7454   30.3746   50.7874 H   0  0  0  0  0  0  0  0  0  0  0  0
   62.5725   31.5479   51.0161 H   0  0  0  0  0  0  0  0  0  0  0  0
   63.9535   32.9720   46.8572 H   0  0  0  0  0  0  0  0  0  0  0  0
   62.6200   31.7636   46.5529 H   0  0  0  0  0  0  0  0  0  0  0  0
   62.6247   34.7191   46.2399 H   0  0  0  0  0  0  0  0  0  0  0  0
   61.6161   33.4480   45.4460 H   0  0  0  0  0  0  0  0  0  0  0  0
   57.6396   32.9516   42.1022 H   0  0  0  0  0  0  0  0  0  0  0  0
   56.6100   30.7018   41.6228 H   0  0  0  0  0  0  0  0  0  0  0  0
   56.5103   28.9596   43.4240 H   0  0  0  0  0  0  0  0  0  0  0  0
   57.4566   29.4718   45.7006 H   0  0  0  0  0  0  0  0  0  0  0  0
  1  2  1  0
  2  3  1  0
  3  4  1  0
  4  5  1  0
  5  6  1  0
  6  7  1  0
  4  8  1  0
  8  9  1  0
  9 10  2  0
 10 11  1  0
 11 12  2  0
 11 13  1  0
 13 14  1  0
 14 15  1  0
 15 16  1  0
 16 17  1  0
 17 18  1  0
 18 19  1  0
 19 20  1  0
 16 21  1  0
 21 22  1  0
 10 23  1  0
 23 24  2  0
 24 25  1  0
 25 26  2  0
 26 27  1  0
 27 28  2  0
 28 29  1  0
 29  9  1  0
 22 13  1  0
 29 24  1  0
 20 17  1  0
  1 30  1  0
  1 31  1  0
  1 32  1  0
  2 33  1  0
  2 34  1  0
  3 35  1  0
  3 36  1  0
  4 37  1  0
  5 38  1  0
  5 39  1  0
  6 40  1  0
  6 41  1  0
  7 42  1  0
  7 43  1  0
  7 44  1  0
  8 45  1  0
  8 46  1  0
 14 47  1  0
 14 48  1  0
 15 49  1  0
 15 50  1  0
 17 51  1  0
 18 52  1  0
 18 53  1  0
 19 54  1  0
 19 55  1  0
 20 56  1  0
 20 57  1  0
 21 58  1  0
 21 59  1  0
 22 60  1  0
 22 61  1  0
 25 62  1  0
 26 63  1  0
 27 64  1  0
 28 65  1  0
M  CHG  1   4   1
M  END
>  <UniqueID>  (87) 
80

>  <SMILES>  (87) 
CCC[NH+](CCC)Cc1c(C(=O)N2CCN(C3CCC3)CC2)nc2ccccn12

>  <Energy>  (87) 
173.32268944142552

>  <Genealogy>  (87) 
CCC[NH+](CCC)Cc1c(C(=O)N2CCN(C3CCC3)CC2)nc2ccccn12 (protonated)
CCC[NH+](CCC)Cc1c(C(=O)N2CCN(C3CCC3)CC2)nc2ccccn12 (3D coordinates assigned)
CCC[NH+](CCC)Cc1c(C(=O)N2CCN(C3CCC3)CC2)nc2ccccn12 (nonaromatic ring conformer: 173.32268944142552 kcal/mol)

>  <smiles>  (87) 
CCCN(CCC)Cc1c(C(=O)N2CCN(C3CCC3)CC2)nc2ccccn12

>  <score_type>  (87) 
oracle

>  <origin>  (87) 
adg

>  <m_score__min__energy>  (87) 
-6.7400000000000002

>  <m_primary>  (87) 
energy

$$$$
87:0
     RDKit          3D

 54 57  0  0  0  0  0  0  0  0999 V2000
   55.6470   27.7650   53.5500 C   0  0  0  0  0  0  0  0  0  0  0  0
   54.8420   28.8040   53.3140 C   0  0  0  0  0  0  0  0  0  0  0  0
   53.5510   28.6670   52.9520 N   0  0  0  0  0  0  0  0  0  0  0  0
   53.0710   29.9070   52.7250 C   0  0  0  0  0  0  0  0  0  0  0  0
   51.7980   30.1420   52.3690 C   0  0  0  0  0  0  0  0  0  0  0  0
   51.3900   30.6810   51.0600 C   0  0  0  0  0  0  0  0  0  0  0  0
   51.4010   29.9560   49.9270 N   0  0  0  0  0  0  0  0  0  0  0  0
   51.0330   30.8470   48.9810 C   0  0  0  0  0  0  0  0  0  0  0  0
   50.9120   30.5370   47.7670 O   0  0  0  0  0  0  0  0  0  0  0  0
   50.8130   32.0990   49.4370 N   0  0  0  0  0  0  0  0  0  0  0  0
   51.0540   31.9810   50.7530 C   0  0  0  0  0  0  0  0  0  0  0  0
   51.0120   33.0490   51.6400 O   0  0  0  0  0  0  0  0  0  0  0  0
   54.0600   30.8540   52.9550 C   0  0  0  0  0  0  0  0  0  0  0  0
   55.1870   30.1510   53.3440 C   0  0  0  0  0  0  0  0  0  0  0  0
   56.4750   30.7650   53.7200 C   0  0  0  0  0  0  0  0  0  0  0  0
   56.9040   30.6060   54.8950 O   0  0  0  0  0  0  0  0  0  0  0  0
   57.2600   31.5080   52.7710 N   0  0  0  0  0  0  0  0  0  0  0  0
   57.5500   30.9070   51.4570 C   0  0  0  0  0  0  0  0  0  0  0  0
   57.7690   31.9950   50.4020 C   0  0  0  0  0  0  0  0  0  0  0  0
   58.7150   32.9890   50.9210 N   0  0  0  0  0  0  0  0  0  0  0  0
   60.0660   33.0750   50.4250 C   0  0  0  0  0  0  0  0  0  0  0  0
   61.0100   33.3120   51.2280 O   0  0  0  0  0  0  0  0  0  0  0  0
   60.3740   32.8340   48.9690 C   0  0  0  0  0  0  0  0  0  0  0  0
   60.4450   34.1410   48.1670 C   0  0  0  0  0  0  0  0  0  0  0  0
   59.4270   34.1390   47.0580 C   0  0  0  0  0  0  0  0  0  0  0  0
   59.6560   34.8800   45.8830 C   0  0  0  0  0  0  0  0  0  0  0  0
   58.7200   34.8560   44.8420 C   0  0  0  0  0  0  0  0  0  0  0  0
   57.5590   34.0880   44.9620 C   0  0  0  0  0  0  0  0  0  0  0  0
   57.3320   33.3360   46.1200 C   0  0  0  0  0  0  0  0  0  0  0  0
   58.2640   33.3560   47.1630 C   0  0  0  0  0  0  0  0  0  0  0  0
   58.3390   33.6400   52.1800 C   0  0  0  0  0  0  0  0  0  0  0  0
   58.1450   32.5750   53.2610 C   0  0  0  0  0  0  0  0  0  0  0  0
   56.6935   27.9354   53.8429 H   0  0  0  0  0  0  0  0  0  0  0  0
   55.2636   26.7387   53.4515 H   0  0  0  0  0  0  0  0  0  0  0  0
   53.0260   27.7670   52.8500 H   0  0  0  0  0  0  0  0  0  0  0  0
   51.0089   29.9177   53.1018 H   0  0  0  0  0  0  0  0  0  0  0  0
   53.9665   31.9449   52.8492 H   0  0  0  0  0  0  0  0  0  0  0  0
   58.4577   30.2905   51.5341 H   0  0  0  0  0  0  0  0  0  0  0  0
   56.6931   30.2873   51.1541 H   0  0  0  0  0  0  0  0  0  0  0  0
   58.1770   31.5423   49.4863 H   0  0  0  0  0  0  0  0  0  0  0  0
   56.8107   32.4832   50.1711 H   0  0  0  0  0  0  0  0  0  0  0  0
   61.3427   32.3184   48.8925 H   0  0  0  0  0  0  0  0  0  0  0  0
   59.5612   32.2237   48.5485 H   0  0  0  0  0  0  0  0  0  0  0  0
   60.2456   34.9887   48.8391 H   0  0  0  0  0  0  0  0  0  0  0  0
   61.4488   34.2322   47.7264 H   0  0  0  0  0  0  0  0  0  0  0  0
   60.5728   35.4795   45.7825 H   0  0  0  0  0  0  0  0  0  0  0  0
   58.8989   35.4424   43.9287 H   0  0  0  0  0  0  0  0  0  0  0  0
   56.8224   34.0745   44.1451 H   0  0  0  0  0  0  0  0  0  0  0  0
   56.4195   32.7283   46.2103 H   0  0  0  0  0  0  0  0  0  0  0  0
   58.0863   32.7571   48.0684 H   0  0  0  0  0  0  0  0  0  0  0  0
   59.1351   34.3344   52.4868 H   0  0  0  0  0  0  0  0  0  0  0  0
   57.4019   34.1989   52.0406 H   0  0  0  0  0  0  0  0  0  0  0  0
   59.1218   32.1438   53.5254 H   0  0  0  0  0  0  0  0  0  0  0  0
   57.6879   33.0417   54.1460 H   0  0  0  0  0  0  0  0  0  0  0  0
  1  2  2  0
  2  3  1  0
  3  4  1  0
  4  5  2  3
  5  6  1  0
  6  7  1  0
  7  8  1  0
  8  9  2  0
  8 10  1  0
 10 11  1  0
 11 12  1  0
  4 13  1  0
 13 14  2  0
 14 15  1  0
 15 16  2  0
 15 17  1  0
 17 18  1  0
 18 19  1  0
 19 20  1  0
 20 21  1  0
 21 22  2  0
 21 23  1  0
 23 24  1  0
 24 25  1  0
 25 26  2  0
 26 27  1  0
 27 28  2  0
 28 29  1  0
 29 30  2  0
 20 31  1  0
 31 32  1  0
 14  2  1  0
 32 17  1  0
 11  6  2  0
 30 25  1  0
  1 33  1  0
  1 34  1  0
  3 35  1  0
  5 36  1  0
 13 37  1  0
 18 38  1  0
 18 39  1  0
 19 40  1  0
 19 41  1  0
 23 42  1  0
 23 43  1  0
 24 44  1  0
 24 45  1  0
 26 46  1  0
 27 47  1  0
 28 48  1  0
 29 49  1  0
 30 50  1  0
 31 51  1  0
 31 52  1  0
 32 53  1  0
 32 54  1  0
M  CHG  3   7  -1  10  -1  12  -1
M  END
>  <UniqueID>  (88) 
81

>  <SMILES>  (88) 
C=c1[nH]c(=Cc2[n-]c(=O)[n-]c2[O-])cc1C(=O)N1CCN(C(=O)CCc2ccccc2)CC1

>  <Energy>  (88) 
122.4262220335243

>  <Genealogy>  (88) 
C=c1[nH]c(=Cc2[n-]c(=O)[n-]c2[O-])cc1C(=O)N1CCN(C(=O)CCc2ccccc2)CC1 (protonated)
C=c1[nH]c(=Cc2[n-]c(=O)[n-]c2[O-])cc1C(=O)N1CCN(C(=O)CCc2ccccc2)CC1 (3D coordinates assigned)
C=c1[nH]c(=Cc2[n-]c(=O)[n-]c2[O-])cc1C(=O)N1CCN(C(=O)CCc2ccccc2)CC1 (nonaromatic ring conformer: 122.4262220335243 kcal/mol)

>  <smiles>  (88) 
C=c1[nH]c(=Cc2[nH]c(=O)[nH]c2O)cc1C(=O)N1CCN(C(=O)CCc2ccccc2)CC1

>  <score_type>  (88) 
oracle

>  <origin>  (88) 
adg

>  <m_score__min__energy>  (88) 
-18.370000000000001

>  <m_primary>  (88) 
energy

$$$$
88:0
     RDKit          3D

 30 31  0  0  0  0  0  0  0  0999 V2000
   57.0380   34.2410   45.5110 O   0  0  0  0  0  0  0  0  0  0  0  0
   57.9690   33.4810   45.1320 C   0  0  0  0  0  0  0  0  0  0  0  0
   59.2220   34.0270   44.8730 O   0  0  0  0  0  0  0  0  0  0  0  0
   57.7350   32.0300   44.9640 C   0  0  0  0  0  0  0  0  0  0  0  0
   57.1010   31.5350   43.8120 C   0  0  0  0  0  0  0  0  0  0  0  0
   56.8780   30.1630   43.6590 C   0  0  0  0  0  0  0  0  0  0  0  0
   57.2890   29.2600   44.6530 C   0  0  0  0  0  0  0  0  0  0  0  0
   57.0230   27.8480   44.5120 N   0  0  0  0  0  0  0  0  0  0  0  0
   57.9500   27.0430   45.3260 C   0  0  0  0  0  0  0  0  0  0  0  0
   57.3430   25.7160   45.7260 C   0  0  0  0  0  0  0  0  0  0  0  0
   58.1460   24.5620   45.7580 C   0  0  0  0  0  0  0  0  0  0  0  0
   57.5890   23.3230   46.0840 C   0  0  0  0  0  0  0  0  0  0  0  0
   56.2270   23.2220   46.3770 C   0  0  0  0  0  0  0  0  0  0  0  0
   55.4190   24.3610   46.3430 C   0  0  0  0  0  0  0  0  0  0  0  0
   55.9690   25.6060   46.0150 C   0  0  0  0  0  0  0  0  0  0  0  0
   55.1450   26.7250   45.9770 O   0  0  0  0  0  0  0  0  0  0  0  0
   57.9220   29.7550   45.8050 C   0  0  0  0  0  0  0  0  0  0  0  0
   58.1430   31.1260   45.9600 C   0  0  0  0  0  0  0  0  0  0  0  0
   56.7777   32.2318   43.0247 H   0  0  0  0  0  0  0  0  0  0  0  0
   56.3773   29.7885   42.7540 H   0  0  0  0  0  0  0  0  0  0  0  0
   56.0440   27.6520   44.8260 H   0  0  0  0  0  0  0  0  0  0  0  0
   57.0870   27.5590   43.5080 H   0  0  0  0  0  0  0  0  0  0  0  0
   58.8636   26.8548   44.7430 H   0  0  0  0  0  0  0  0  0  0  0  0
   58.1743   27.6058   46.2441 H   0  0  0  0  0  0  0  0  0  0  0  0
   59.2186   24.6353   45.5251 H   0  0  0  0  0  0  0  0  0  0  0  0
   58.2242   22.4253   46.1100 H   0  0  0  0  0  0  0  0  0  0  0  0
   55.7907   22.2456   46.6345 H   0  0  0  0  0  0  0  0  0  0  0  0
   54.3468   24.2794   46.5748 H   0  0  0  0  0  0  0  0  0  0  0  0
   58.2464   29.0578   46.5915 H   0  0  0  0  0  0  0  0  0  0  0  0
   58.6395   31.5003   46.8674 H   0  0  0  0  0  0  0  0  0  0  0  0
  1  2  2  0
  2  3  1  0
  2  4  1  0
  4  5  2  0
  5  6  1  0
  6  7  2  0
  7  8  1  0
  8  9  1  0
  9 10  1  0
 10 11  2  0
 11 12  1  0
 12 13  2  0
 13 14  1  0
 14 15  2  0
 15 16  1  0
  7 17  1  0
 17 18  2  0
 18  4  1  0
 15 10  1  0
  5 19  1  0
  6 20  1  0
  8 21  1  0
  8 22  1  0
  9 23  1  0
  9 24  1  0
 11 25  1  0
 12 26  1  0
 13 27  1  0
 14 28  1  0
 17 29  1  0
 18 30  1  0
M  CHG  3   3  -1   8   1  16  -1
M  END
>  <UniqueID>  (89) 
82

>  <SMILES>  (89) 
O=C([O-])c1ccc([NH2+]Cc2ccccc2[O-])cc1

>  <Energy>  (89) 
32.02228496249592

>  <Genealogy>  (89) 
O=C([O-])c1ccc([NH2+]Cc2ccccc2[O-])cc1 (protonated)
O=C([O-])c1ccc([NH2+]Cc2ccccc2[O-])cc1 (3D coordinates assigned)
O=C([O-])c1ccc([NH2+]Cc2ccccc2[O-])cc1 (optimized conformer: 32.02228496249592 kcal/mol)

>  <smiles>  (89) 
O=C(O)c1ccc(NCc2ccccc2O)cc1

>  <score_type>  (89) 
oracle

>  <origin>  (89) 
adg

>  <m_score__min__energy>  (89) 
-9.2699999999999996

>  <m_primary>  (89) 
energy

$$$$
