0:0
     RDKit          3D

 47 50  0  0  0  0  0  0  0  0999 V2000
   54.2770   24.3620   46.1600 O   0  0  0  0  0  0  0  0  0  0  0  0
   55.6660   24.8970   46.3750 S   0  0  0  0  0  0  0  0  0  0  0  0
   55.9780   24.8490   47.8440 O   0  0  0  0  0  0  0  0  0  0  0  0
   55.7410   26.5290   45.8110 N   0  0  0  0  0  0  0  0  0  0  0  0
   56.9350   27.2910   45.9960 C   0  0  0  0  0  0  0  0  0  0  0  0
   57.9350   26.7870   46.8270 C   0  0  0  0  0  0  0  0  0  0  0  0
   59.1380   27.4710   46.9810 C   0  0  0  0  0  0  0  0  0  0  0  0
   59.3760   28.6690   46.2940 C   0  0  0  0  0  0  0  0  0  0  0  0
   60.6360   29.3330   46.4640 N   0  0  0  0  0  0  0  0  0  0  0  0
   60.8220   30.6000   47.6300 S   0  0  0  0  0  0  0  0  0  0  0  0
   60.2930   30.1390   48.9600 O   0  0  0  0  0  0  0  0  0  0  0  0
   62.2790   30.9410   47.7820 O   0  0  0  0  0  0  0  0  0  0  0  0
   59.9050   32.0100   47.1070 C   0  0  0  0  0  0  0  0  0  0  0  0
   60.5570   33.0550   46.4360 C   0  0  0  0  0  0  0  0  0  0  0  0
   59.8450   34.1950   46.0550 C   0  0  0  0  0  0  0  0  0  0  0  0
   58.4840   34.3050   46.3540 C   0  0  0  0  0  0  0  0  0  0  0  0
   57.8320   33.2710   47.0330 C   0  0  0  0  0  0  0  0  0  0  0  0
   58.5400   32.1250   47.4080 C   0  0  0  0  0  0  0  0  0  0  0  0
   58.3760   29.1910   45.4370 C   0  0  0  0  0  0  0  0  0  0  0  0
   58.5930   30.3620   44.6810 C   0  0  0  0  0  0  0  0  0  0  0  0
   57.6010   30.8490   43.8280 C   0  0  0  0  0  0  0  0  0  0  0  0
   56.3850   30.1820   43.7100 C   0  0  0  0  0  0  0  0  0  0  0  0
   56.1510   29.0160   44.4380 C   0  0  0  0  0  0  0  0  0  0  0  0
   57.1410   28.5000   45.2980 C   0  0  0  0  0  0  0  0  0  0  0  0
   56.8240   23.9260   45.4730 C   0  0  0  0  0  0  0  0  0  0  0  0
   56.4140   23.2350   44.3230 C   0  0  0  0  0  0  0  0  0  0  0  0
   57.3140   22.4120   43.6410 C   0  0  0  0  0  0  0  0  0  0  0  0
   58.6250   22.2690   44.1060 C   0  0  0  0  0  0  0  0  0  0  0  0
   59.4950   21.4660   43.4460 F   0  0  0  0  0  0  0  0  0  0  0  0
   59.0360   22.9510   45.2560 C   0  0  0  0  0  0  0  0  0  0  0  0
   58.1380   23.7750   45.9400 C   0  0  0  0  0  0  0  0  0  0  0  0
   57.7722   25.8415   47.3651 H   0  0  0  0  0  0  0  0  0  0  0  0
   59.9113   27.0659   47.6503 H   0  0  0  0  0  0  0  0  0  0  0  0
   61.4910   28.9720   45.9880 H   0  0  0  0  0  0  0  0  0  0  0  0
   61.6306   32.9768   46.2094 H   0  0  0  0  0  0  0  0  0  0  0  0
   60.3565   35.0078   45.5186 H   0  0  0  0  0  0  0  0  0  0  0  0
   57.9260   35.2047   46.0553 H   0  0  0  0  0  0  0  0  0  0  0  0
   56.7619   33.3591   47.2722 H   0  0  0  0  0  0  0  0  0  0  0  0
   58.0251   31.3117   47.9404 H   0  0  0  0  0  0  0  0  0  0  0  0
   59.5513   30.8956   44.7643 H   0  0  0  0  0  0  0  0  0  0  0  0
   57.7813   31.7648   43.2460 H   0  0  0  0  0  0  0  0  0  0  0  0
   55.6062   30.5759   43.0404 H   0  0  0  0  0  0  0  0  0  0  0  0
   55.1870   28.4953   44.3403 H   0  0  0  0  0  0  0  0  0  0  0  0
   55.3820   23.3413   43.9575 H   0  0  0  0  0  0  0  0  0  0  0  0
   56.9906   21.8756   42.7367 H   0  0  0  0  0  0  0  0  0  0  0  0
   60.0671   22.8387   45.6224 H   0  0  0  0  0  0  0  0  0  0  0  0
   58.4625   24.3064   46.8468 H   0  0  0  0  0  0  0  0  0  0  0  0
  1  2  2  0
  2  3  2  0
  2  4  1  0
  4  5  1  0
  5  6  2  0
  6  7  1  0
  7  8  2  0
  8  9  1  0
  9 10  1  0
 10 11  2  0
 10 12  2  0
 10 13  1  0
 13 14  2  0
 14 15  1  0
 15 16  2  0
 16 17  1  0
 17 18  2  0
  8 19  1  0
 19 20  2  0
 20 21  1  0
 21 22  2  0
 22 23  1  0
 23 24  2  0
  2 25  1  0
 25 26  2  0
 26 27  1  0
 27 28  2  0
 28 29  1  0
 28 30  1  0
 30 31  2  0
 24  5  1  0
 31 25  1  0
 18 13  1  0
 24 19  1  0
  6 32  1  0
  7 33  1  0
  9 34  1  0
 14 35  1  0
 15 36  1  0
 16 37  1  0
 17 38  1  0
 18 39  1  0
 20 40  1  0
 21 41  1  0
 22 42  1  0
 23 43  1  0
 26 44  1  0
 27 45  1  0
 30 46  1  0
 31 47  1  0
M  CHG  1   4  -1
M  END
>  <UniqueID>  (1) 
1

>  <SMILES>  (1) 
O=S(=O)([N-]c1ccc(NS(=O)(=O)c2ccccc2)c2ccccc12)c1ccc(F)cc1

>  <Energy>  (1) 
67.74679374557282

>  <Genealogy>  (1) 
O=S(=O)([N-]c1ccc(NS(=O)(=O)c2ccccc2)c2ccccc12)c1ccc(F)cc1 (protonated)
O=S(=O)([N-]c1ccc(NS(=O)(=O)c2ccccc2)c2ccccc12)c1ccc(F)cc1 (3D coordinates assigned)
O=S(=O)([N-]c1ccc(NS(=O)(=O)c2ccccc2)c2ccccc12)c1ccc(F)cc1 (optimized conformer: 67.74679374557282 kcal/mol)

>  <smiles>  (1) 
O=S(=O)(Nc1ccc(NS(=O)(=O)c2ccc(F)cc2)c2ccccc12)c1ccccc1

>  <score_type>  (1) 
oracle

>  <origin>  (1) 
adg

>  <m_score__min__energy>  (1) 
-12.09

>  <m_primary>  (1) 
energy

$$$$
1:0
     RDKit          3D

 51 53  0  0  0  0  0  0  0  0999 V2000
   56.1600   30.0410   43.5040 C   0  0  0  0  0  0  0  0  0  0  0  0
   57.1760   31.1200   43.8770 C   0  0  0  0  0  0  0  0  0  0  0  0
   56.7490   31.8820   44.9350 O   0  0  0  0  0  0  0  0  0  0  0  0
   57.0680   33.2190   44.8690 C   0  0  0  0  0  0  0  0  0  0  0  0
   57.4120   33.8360   46.2070 C   0  0  0  0  0  0  0  0  0  0  0  0
   58.6310   33.1450   46.7620 C   0  0  0  0  0  0  0  0  0  0  0  0
   59.5980   33.7600   47.4730 N   0  0  0  0  0  0  0  0  0  0  0  0
   60.5370   32.8400   47.8090 C   0  0  0  0  0  0  0  0  0  0  0  0
   61.7160   33.1760   48.5790 C   0  0  0  0  0  0  0  0  0  0  0  0
   61.7300   33.8330   49.7720 C   0  0  0  0  0  0  0  0  0  0  0  0
   62.9010   34.1250   50.4620 C   0  0  0  0  0  0  0  0  0  0  0  0
   64.1280   33.7520   49.9570 C   0  0  0  0  0  0  0  0  0  0  0  0
   64.1360   33.0880   48.7540 C   0  0  0  0  0  0  0  0  0  0  0  0
   62.9570   32.7980   48.0660 C   0  0  0  0  0  0  0  0  0  0  0  0
   63.0910   32.1400   46.8930 F   0  0  0  0  0  0  0  0  0  0  0  0
   60.0910   31.6660   47.2740 C   0  0  0  0  0  0  0  0  0  0  0  0
   60.9060   30.0880   47.3860 S   0  0  0  0  0  0  0  0  0  0  0  0
   60.6770   29.2140   45.7940 C   0  0  0  0  0  0  0  0  0  0  0  0
   59.5900   28.2300   45.8400 C   0  0  0  0  0  0  0  0  0  0  0  0
   59.7630   26.8680   45.8280 C   0  0  0  0  0  0  0  0  0  0  0  0
   58.7000   25.9780   45.8720 C   0  0  0  0  0  0  0  0  0  0  0  0
   57.4220   26.4780   45.9300 C   0  0  0  0  0  0  0  0  0  0  0  0
   55.9950   25.4680   45.9900 S   0  0  0  0  0  0  0  0  0  0  0  0
   55.9030   24.4690   44.5610 N   0  0  0  0  0  0  0  0  0  0  0  0
   54.7650   26.3220   46.0020 O   0  0  0  0  0  0  0  0  0  0  0  0
   55.9900   24.5700   47.1990 O   0  0  0  0  0  0  0  0  0  0  0  0
   57.2220   27.8450   45.9430 C   0  0  0  0  0  0  0  0  0  0  0  0
   58.2860   28.7260   45.8980 C   0  0  0  0  0  0  0  0  0  0  0  0
   58.9180   31.8400   46.6270 N   0  0  0  0  0  0  0  0  0  0  0  0
   55.7427   29.5978   44.4202 H   0  0  0  0  0  0  0  0  0  0  0  0
   55.3491   30.4900   42.9116 H   0  0  0  0  0  0  0  0  0  0  0  0
   56.6569   29.2586   42.9116 H   0  0  0  0  0  0  0  0  0  0  0  0
   58.1256   30.6356   44.1482 H   0  0  0  0  0  0  0  0  0  0  0  0
   57.3025   31.7834   43.0087 H   0  0  0  0  0  0  0  0  0  0  0  0
   57.9344   33.3354   44.2013 H   0  0  0  0  0  0  0  0  0  0  0  0
   56.1742   33.7417   44.4977 H   0  0  0  0  0  0  0  0  0  0  0  0
   57.6219   34.9079   46.0767 H   0  0  0  0  0  0  0  0  0  0  0  0
   56.5670   33.7176   46.9012 H   0  0  0  0  0  0  0  0  0  0  0  0
   60.7708   34.1469   50.2096 H   0  0  0  0  0  0  0  0  0  0  0  0
   62.8477   34.6597   51.4218 H   0  0  0  0  0  0  0  0  0  0  0  0
   65.0613   33.9763   50.4942 H   0  0  0  0  0  0  0  0  0  0  0  0
   65.0982   32.7765   48.3214 H   0  0  0  0  0  0  0  0  0  0  0  0
   60.4474   29.9559   45.0150 H   0  0  0  0  0  0  0  0  0  0  0  0
   61.6083   28.6706   45.5762 H   0  0  0  0  0  0  0  0  0  0  0  0
   60.7860   26.4663   45.7816 H   0  0  0  0  0  0  0  0  0  0  0  0
   58.8771   24.8924   45.8607 H   0  0  0  0  0  0  0  0  0  0  0  0
   56.0440   25.0790   43.7460 H   0  0  0  0  0  0  0  0  0  0  0  0
   56.6730   23.7580   44.6630 H   0  0  0  0  0  0  0  0  0  0  0  0
   56.1963   28.2397   45.9901 H   0  0  0  0  0  0  0  0  0  0  0  0
   58.1067   29.8112   45.9078 H   0  0  0  0  0  0  0  0  0  0  0  0
   58.3610   31.1170   46.1320 H   0  0  0  0  0  0  0  0  0  0  0  0
  1  2  1  0
  2  3  1  0
  3  4  1  0
  4  5  1  0
  5  6  1  0
  6  7  2  0
  7  8  1  0
  8  9  1  0
  9 10  2  0
 10 11  1  0
 11 12  2  0
 12 13  1  0
 13 14  2  0
 14 15  1  0
  8 16  2  0
 16 17  1  0
 17 18  1  0
 18 19  1  0
 19 20  2  0
 20 21  1  0
 21 22  2  0
 22 23  1  0
 23 24  1  0
 23 25  2  0
 23 26  2  0
 22 27  1  0
 27 28  2  0
 16 29  1  0
 29  6  1  0
 14  9  1  0
 28 19  1  0
  1 30  1  0
  1 31  1  0
  1 32  1  0
  2 33  1  0
  2 34  1  0
  4 35  1  0
  4 36  1  0
  5 37  1  0
  5 38  1  0
 10 39  1  0
 11 40  1  0
 12 41  1  0
 13 42  1  0
 18 43  1  0
 18 44  1  0
 20 45  1  0
 21 46  1  0
 24 47  1  0
 24 48  1  0
 27 49  1  0
 28 50  1  0
 29 51  1  0
M  END
>  <smiles>  (2) 
CCOCCc1nc(-c2ccccc2F)c(SCc2ccc(S(N)(=O)=O)cc2)[nH]1

>  <score_type>  (2) 
oracle

>  <origin>  (2) 
adg

>  <m_score__min__energy>  (2) 
-8.8699999999999992

>  <m_primary>  (2) 
energy

$$$$
2:0
     RDKit          3D

 33 33  0  0  0  0  0  0  0  0999 V2000
   59.9330   29.1920   47.5140 O   0  0  0  0  0  0  0  0  0  0  0  0
   60.1910   30.2790   46.9280 C   0  0  0  0  0  0  0  0  0  0  0  0
   61.5310   30.9190   47.1260 C   0  0  0  0  0  0  0  0  0  0  0  0
   61.4240   32.0960   48.0920 C   0  0  0  0  0  0  0  0  0  0  0  0
   61.7380   33.6570   47.2020 S   0  0  0  0  0  0  0  0  0  0  0  0
   60.0360   33.8320   46.6640 C   0  0  0  0  0  0  0  0  0  0  0  0
   59.7520   34.2620   45.3620 C   0  0  0  0  0  0  0  0  0  0  0  0
   58.4240   34.3960   44.9430 C   0  0  0  0  0  0  0  0  0  0  0  0
   57.3790   34.0990   45.8230 C   0  0  0  0  0  0  0  0  0  0  0  0
   57.6600   33.6660   47.1230 C   0  0  0  0  0  0  0  0  0  0  0  0
   58.9880   33.5300   47.5440 C   0  0  0  0  0  0  0  0  0  0  0  0
   59.2000   30.9280   46.1150 N   0  0  0  0  0  0  0  0  0  0  0  0
   57.8860   30.4070   45.8760 C   0  0  0  0  0  0  0  0  0  0  0  0
   57.5310   29.3010   46.3710 O   0  0  0  0  0  0  0  0  0  0  0  0
   57.0010   31.1380   45.0740 O   0  0  0  0  0  0  0  0  0  0  0  0
   56.6570   30.7660   43.7410 C   0  0  0  0  0  0  0  0  0  0  0  0
   55.5130   29.7550   43.7350 C   0  0  0  0  0  0  0  0  0  0  0  0
   55.1460   29.4460   45.0500 O   0  0  0  0  0  0  0  0  0  0  0  0
   62.2299   30.1757   47.5371 H   0  0  0  0  0  0  0  0  0  0  0  0
   61.8962   31.2871   46.1559 H   0  0  0  0  0  0  0  0  0  0  0  0
   60.4140   32.1206   48.5271 H   0  0  0  0  0  0  0  0  0  0  0  0
   62.1697   31.9779   48.8920 H   0  0  0  0  0  0  0  0  0  0  0  0
   60.5735   34.4945   44.6684 H   0  0  0  0  0  0  0  0  0  0  0  0
   58.2018   34.7353   43.9205 H   0  0  0  0  0  0  0  0  0  0  0  0
   56.3352   34.2059   45.4928 H   0  0  0  0  0  0  0  0  0  0  0  0
   56.8372   33.4323   47.8147 H   0  0  0  0  0  0  0  0  0  0  0  0
   59.2089   33.1862   48.5653 H   0  0  0  0  0  0  0  0  0  0  0  0
   59.4430   31.8420   45.6710 H   0  0  0  0  0  0  0  0  0  0  0  0
   56.3474   31.6634   43.1853 H   0  0  0  0  0  0  0  0  0  0  0  0
   57.5360   30.3046   43.2672 H   0  0  0  0  0  0  0  0  0  0  0  0
   54.6492   30.1842   43.2061 H   0  0  0  0  0  0  0  0  0  0  0  0
   55.8418   28.8377   43.2248 H   0  0  0  0  0  0  0  0  0  0  0  0
   55.6320   30.0890   45.6290 H   0  0  0  0  0  0  0  0  0  0  0  0
  1  2  2  0
  2  3  1  0
  3  4  1  0
  4  5  1  0
  5  6  1  0
  6  7  2  0
  7  8  1  0
  8  9  2  0
  9 10  1  0
 10 11  2  0
  2 12  1  0
 12 13  1  0
 13 14  2  0
 13 15  1  0
 15 16  1  0
 16 17  1  0
 17 18  1  0
 11  6  1  0
  3 19  1  0
  3 20  1  0
  4 21  1  0
  4 22  1  0
  7 23  1  0
  8 24  1  0
  9 25  1  0
 10 26  1  0
 11 27  1  0
 12 28  1  0
 16 29  1  0
 16 30  1  0
 17 31  1  0
 17 32  1  0
 18 33  1  0
M  END
>  <UniqueID>  (3) 
2

>  <SMILES>  (3) 
O=C(CCSc1ccccc1)NC(=O)OCCO

>  <Energy>  (3) 
18.70535417409446

>  <Genealogy>  (3) 
O=C(CCSc1ccccc1)NC(=O)OCCO (3D coordinates assigned)
O=C(CCSc1ccccc1)NC(=O)OCCO (optimized conformer: 18.70535417409446 kcal/mol)

>  <smiles>  (3) 
O=C(CCSc1ccccc1)NC(=O)OCCO

>  <score_type>  (3) 
oracle

>  <origin>  (3) 
adg

>  <m_score__min__energy>  (3) 
-7.0099999999999998

>  <m_primary>  (3) 
energy

$$$$
3:0
     RDKit          3D

 40 42  0  0  0  0  0  0  0  0999 V2000
   56.3710   30.7940   44.7990 O   0  0  0  0  0  0  0  0  0  0  0  0
   57.5790   31.0640   45.0390 C   0  0  0  0  0  0  0  0  0  0  0  0
   58.5720   30.0260   44.9900 N   0  0  0  0  0  0  0  0  0  0  0  0
   58.2670   28.6230   45.0670 C   0  0  0  0  0  0  0  0  0  0  0  0
   57.7460   28.0950   46.2570 C   0  0  0  0  0  0  0  0  0  0  0  0
   57.4210   26.7390   46.3510 C   0  0  0  0  0  0  0  0  0  0  0  0
   57.5980   25.8910   45.2460 C   0  0  0  0  0  0  0  0  0  0  0  0
   57.2630   24.4260   45.3400 C   0  0  0  0  0  0  0  0  0  0  0  0
   57.7910   23.7060   44.1590 N   0  0  0  0  0  0  0  0  0  0  0  0
   58.1090   22.2880   44.4540 C   0  0  0  0  0  0  0  0  0  0  0  0
   56.9410   21.3370   44.1230 C   0  0  0  0  0  0  0  0  0  0  0  0
   55.7070   22.0130   44.2200 O   0  0  0  0  0  0  0  0  0  0  0  0
   55.5990   22.9820   43.1900 C   0  0  0  0  0  0  0  0  0  0  0  0
   56.8880   23.8160   42.9970 C   0  0  0  0  0  0  0  0  0  0  0  0
   58.0990   26.4200   44.0470 C   0  0  0  0  0  0  0  0  0  0  0  0
   58.4240   27.7770   43.9540 C   0  0  0  0  0  0  0  0  0  0  0  0
   57.9610   32.4600   45.3240 C   0  0  0  0  0  0  0  0  0  0  0  0
   58.6040   32.8940   46.4680 C   0  0  0  0  0  0  0  0  0  0  0  0
   58.7850   34.2540   46.3200 C   0  0  0  0  0  0  0  0  0  0  0  0
   58.2500   34.5910   45.0940 C   0  0  0  0  0  0  0  0  0  0  0  0
   57.7510   33.4980   44.4890 N   0  0  0  0  0  0  0  0  0  0  0  0
   59.5580   30.2980   44.7770 H   0  0  0  0  0  0  0  0  0  0  0  0
   57.5917   28.7539   47.1242 H   0  0  0  0  0  0  0  0  0  0  0  0
   57.0251   26.3345   47.2942 H   0  0  0  0  0  0  0  0  0  0  0  0
   57.7133   24.0077   46.2523 H   0  0  0  0  0  0  0  0  0  0  0  0
   56.1698   24.3084   45.3740 H   0  0  0  0  0  0  0  0  0  0  0  0
   58.9844   21.9918   43.8574 H   0  0  0  0  0  0  0  0  0  0  0  0
   58.3077   22.2087   45.5330 H   0  0  0  0  0  0  0  0  0  0  0  0
   57.0646   20.9556   43.0987 H   0  0  0  0  0  0  0  0  0  0  0  0
   56.9467   20.5049   44.8424 H   0  0  0  0  0  0  0  0  0  0  0  0
   55.3733   22.4645   42.2460 H   0  0  0  0  0  0  0  0  0  0  0  0
   54.8000   23.6797   43.4813 H   0  0  0  0  0  0  0  0  0  0  0  0
   57.4148   23.4552   42.1013 H   0  0  0  0  0  0  0  0  0  0  0  0
   56.5990   24.8717   42.8873 H   0  0  0  0  0  0  0  0  0  0  0  0
   58.2369   25.7636   43.1751 H   0  0  0  0  0  0  0  0  0  0  0  0
   58.8043   28.1849   43.0059 H   0  0  0  0  0  0  0  0  0  0  0  0
   58.9106   32.2777   47.3260 H   0  0  0  0  0  0  0  0  0  0  0  0
   59.2625   34.9359   47.0390 H   0  0  0  0  0  0  0  0  0  0  0  0
   58.2338   35.6067   44.6720 H   0  0  0  0  0  0  0  0  0  0  0  0
   57.3050   33.4760   43.5460 H   0  0  0  0  0  0  0  0  0  0  0  0
  1  2  2  0
  2  3  1  0
  3  4  1  0
  4  5  2  0
  5  6  1  0
  6  7  2  0
  7  8  1  0
  8  9  1  0
  9 10  1  0
 10 11  1  0
 11 12  1  0
 12 13  1  0
 13 14  1  0
  7 15  1  0
 15 16  2  0
  2 17  1  0
 17 18  2  0
 18 19  1  0
 19 20  2  0
 20 21  1  0
 16  4  1  0
 21 17  1  0
 14  9  1  0
  3 22  1  0
  5 23  1  0
  6 24  1  0
  8 25  1  0
  8 26  1  0
 10 27  1  0
 10 28  1  0
 11 29  1  0
 11 30  1  0
 13 31  1  0
 13 32  1  0
 14 33  1  0
 14 34  1  0
 15 35  1  0
 16 36  1  0
 18 37  1  0
 19 38  1  0
 20 39  1  0
 21 40  1  0
M  END
>  <UniqueID>  (4) 
3

>  <SMILES>  (4) 
O=C(Nc1ccc(CN2CCOCC2)cc1)c1ccc[nH]1

>  <Energy>  (4) 
81.27829905145055

>  <Genealogy>  (4) 
O=C(Nc1ccc(CN2CCOCC2)cc1)c1ccc[nH]1 (3D coordinates assigned)
O=C(Nc1ccc(CN2CCOCC2)cc1)c1ccc[nH]1 (nonaromatic ring conformer: 81.27829905145055 kcal/mol)

>  <smiles>  (4) 
O=C(Nc1ccc(CN2CCOCC2)cc1)c1ccc[nH]1

>  <score_type>  (4) 
oracle

>  <origin>  (4) 
adg

>  <m_score__min__energy>  (4) 
-6.9000000000000004

>  <m_primary>  (4) 
energy

$$$$
4:0
     RDKit          3D

 75 78  0  0  0  0  0  0  0  0999 V2000
   59.1240   35.0160   54.2040 C   0  0  0  0  0  0  0  0  0  0  0  0
   59.3550   34.2030   52.9180 C   0  0  0  0  0  0  0  0  0  0  0  0
   60.2110   33.0110   53.3870 C   0  0  0  0  0  0  0  0  0  0  0  0
   58.0370   33.6780   52.4240 C   0  0  0  0  0  0  0  0  0  0  0  0
   58.1390   32.4350   51.6560 C   0  0  0  0  0  0  0  0  0  0  0  0
   57.7060   31.2190   52.0720 C   0  0  0  0  0  0  0  0  0  0  0  0
   57.0020   30.9640   53.3130 C   0  0  0  0  0  0  0  0  0  0  0  0
   57.2610   31.4460   54.4290 O   0  0  0  0  0  0  0  0  0  0  0  0
   55.8940   30.0570   53.2450 N   0  0  0  0  0  0  0  0  0  0  0  0
   54.8940   30.1730   52.4790 C   0  0  0  0  0  0  0  0  0  0  0  0
   54.3490   31.3080   52.0590 N   0  0  0  0  0  0  0  0  0  0  0  0
   53.3110   31.0120   51.2680 N   0  0  0  0  0  0  0  0  0  0  0  0
   53.2000   29.6890   51.1890 N   0  0  0  0  0  0  0  0  0  0  0  0
   54.1860   29.1730   51.9430 N   0  0  0  0  0  0  0  0  0  0  0  0
   57.9000   30.0950   51.2500 C   0  0  0  0  0  0  0  0  0  0  0  0
   58.5170   30.1860   50.0260 C   0  0  0  0  0  0  0  0  0  0  0  0
   58.9550   31.4190   49.6040 C   0  0  0  0  0  0  0  0  0  0  0  0
   58.7630   32.5130   50.4140 C   0  0  0  0  0  0  0  0  0  0  0  0
   59.2770   33.5650   49.7630 N   0  0  0  0  0  0  0  0  0  0  0  0
   59.7870   33.1990   48.5790 C   0  0  0  0  0  0  0  0  0  0  0  0
   60.6370   34.2270   47.4170 S   0  0  0  0  0  0  0  0  0  0  0  0
   59.6340   34.7260   46.0330 C   0  0  0  0  0  0  0  0  0  0  0  0
   58.6670   33.8310   45.4490 C   0  0  0  0  0  0  0  0  0  0  0  0
   57.5880   34.4130   44.9930 O   0  0  0  0  0  0  0  0  0  0  0  0
   58.6780   32.4480   45.2910 N   0  0  0  0  0  0  0  0  0  0  0  0
   57.5580   31.7360   44.6740 C   0  0  0  0  0  0  0  0  0  0  0  0
   57.4380   31.9590   43.2050 C   0  0  0  0  0  0  0  0  0  0  0  0
   56.8460   30.6980   42.5600 C   0  0  0  0  0  0  0  0  0  0  0  0
   55.8620   30.0610   43.4930 C   0  0  0  0  0  0  0  0  0  0  0  0
   56.4760   29.5520   44.7570 C   0  0  0  0  0  0  0  0  0  0  0  0
   57.7940   30.2540   44.9740 C   0  0  0  0  0  0  0  0  0  0  0  0
   59.5820   31.8620   48.4990 N   0  0  0  0  0  0  0  0  0  0  0  0
   60.0450   30.9520   47.4900 C   0  0  0  0  0  0  0  0  0  0  0  0
   61.1100   31.1100   46.8530 O   0  0  0  0  0  0  0  0  0  0  0  0
   59.2640   29.8560   47.2110 O   0  0  0  0  0  0  0  0  0  0  0  0
   59.6370   28.5200   47.1840 C   0  0  0  0  0  0  0  0  0  0  0  0
   60.4020   28.3220   45.8660 C   0  0  0  0  0  0  0  0  0  0  0  0
   58.5470   27.5080   47.1950 C   0  0  0  0  0  0  0  0  0  0  0  0
   60.6400   28.1710   48.2720 C   0  0  0  0  0  0  0  0  0  0  0  0
   59.3058   34.3760   55.0800 H   0  0  0  0  0  0  0  0  0  0  0  0
   59.8145   35.8720   54.2256 H   0  0  0  0  0  0  0  0  0  0  0  0
   58.0866   35.3811   54.2256 H   0  0  0  0  0  0  0  0  0  0  0  0
   59.8221   34.7919   52.1149 H   0  0  0  0  0  0  0  0  0  0  0  0
   60.2306   32.9838   54.4865 H   0  0  0  0  0  0  0  0  0  0  0  0
   59.7773   32.0752   53.0047 H   0  0  0  0  0  0  0  0  0  0  0  0
   61.2363   33.1230   53.0047 H   0  0  0  0  0  0  0  0  0  0  0  0
   57.3901   33.4943   53.2945 H   0  0  0  0  0  0  0  0  0  0  0  0
   57.6271   34.4389   51.7435 H   0  0  0  0  0  0  0  0  0  0  0  0
   52.4970   29.1210   50.6560 H   0  0  0  0  0  0  0  0  0  0  0  0
   54.3210   28.1490   52.0500 H   0  0  0  0  0  0  0  0  0  0  0  0
   57.5470   29.1129   51.5975 H   0  0  0  0  0  0  0  0  0  0  0  0
   58.6573   29.2935   49.3984 H   0  0  0  0  0  0  0  0  0  0  0  0
   59.0773   35.6176   46.3572 H   0  0  0  0  0  0  0  0  0  0  0  0
   60.3753   34.8355   45.2277 H   0  0  0  0  0  0  0  0  0  0  0  0
   59.4870   31.9070   45.6200 H   0  0  0  0  0  0  0  0  0  0  0  0
   56.6110   32.1111   45.0892 H   0  0  0  0  0  0  0  0  0  0  0  0
   56.7768   32.8171   43.0141 H   0  0  0  0  0  0  0  0  0  0  0  0
   58.4293   32.1678   42.7764 H   0  0  0  0  0  0  0  0  0  0  0  0
   56.3366   30.9719   41.6243 H   0  0  0  0  0  0  0  0  0  0  0  0
   57.6567   29.9855   42.3477 H   0  0  0  0  0  0  0  0  0  0  0  0
   55.0975   30.8076   43.7542 H   0  0  0  0  0  0  0  0  0  0  0  0
   55.4377   29.1920   42.9688 H   0  0  0  0  0  0  0  0  0  0  0  0
   55.8040   29.7573   45.6033 H   0  0  0  0  0  0  0  0  0  0  0  0
   56.6382   28.4665   44.6832 H   0  0  0  0  0  0  0  0  0  0  0  0
   58.1247   30.1260   46.0153 H   0  0  0  0  0  0  0  0  0  0  0  0
   58.5758   29.8380   44.3215 H   0  0  0  0  0  0  0  0  0  0  0  0
   61.4456   28.0519   46.0848 H   0  0  0  0  0  0  0  0  0  0  0  0
   59.9289   27.5167   45.2849 H   0  0  0  0  0  0  0  0  0  0  0  0
   60.3790   29.2557   45.2849 H   0  0  0  0  0  0  0  0  0  0  0  0
   58.2839   27.2637   48.2348 H   0  0  0  0  0  0  0  0  0  0  0  0
   57.6644   27.9141   46.6792 H   0  0  0  0  0  0  0  0  0  0  0  0
   58.8866   26.5977   46.6792 H   0  0  0  0  0  0  0  0  0  0  0  0
   60.1810   28.3307   49.2588 H   0  0  0  0  0  0  0  0  0  0  0  0
   60.9372   27.1166   48.1722 H   0  0  0  0  0  0  0  0  0  0  0  0
   61.5275   28.8131   48.1722 H   0  0  0  0  0  0  0  0  0  0  0  0
  1  2  1  0
  2  3  1  0
  2  4  1  0
  4  5  1  0
  5  6  2  0
  6  7  1  0
  7  8  2  0
  7  9  1  0
  9 10  2  3
 10 11  1  0
 11 12  2  0
 12 13  1  0
 13 14  1  0
  6 15  1  0
 15 16  2  0
 16 17  1  0
 17 18  2  0
 18 19  1  0
 19 20  2  0
 20 21  1  0
 21 22  1  0
 22 23  1  0
 23 24  2  0
 23 25  1  0
 25 26  1  0
 26 27  1  0
 27 28  1  0
 28 29  1  0
 29 30  1  0
 30 31  1  0
 20 32  1  0
 32 33  1  0
 33 34  2  0
 33 35  1  0
 35 36  1  0
 36 37  1  0
 36 38  1  0
 36 39  1  0
 18  5  1  0
 31 26  1  0
 14 10  1  0
 32 17  1  0
  1 40  1  0
  1 41  1  0
  1 42  1  0
  2 43  1  0
  3 44  1  0
  3 45  1  0
  3 46  1  0
  4 47  1  0
  4 48  1  0
 13 49  1  0
 14 50  1  0
 15 51  1  0
 16 52  1  0
 22 53  1  0
 22 54  1  0
 25 55  1  0
 26 56  1  0
 27 57  1  0
 27 58  1  0
 28 59  1  0
 28 60  1  0
 29 61  1  0
 29 62  1  0
 30 63  1  0
 30 64  1  0
 31 65  1  0
 31 66  1  0
 37 67  1  0
 37 68  1  0
 37 69  1  0
 38 70  1  0
 38 71  1  0
 38 72  1  0
 39 73  1  0
 39 74  1  0
 39 75  1  0
M  END
>  <smiles>  (5) 
CC(C)Cc1c(C(=O)N=c2nn[nH][nH]2)ccc2c1nc(SCC(=O)NC1CCCCC1)n2C(=O)OC(C)(C)C

>  <score_type>  (5) 
oracle

>  <origin>  (5) 
adg

>  <m_score__min__energy>  (5) 
-10.550000000000001

>  <m_primary>  (5) 
energy

$$$$
5:0
     RDKit          3D

 42 43  0  0  0  0  0  0  0  0999 V2000
   60.3970   27.5260   49.1120 C   0  0  0  0  0  0  0  0  0  0  0  0
   59.4150   28.6700   48.8120 C   0  0  1  0  0  0  0  0  0  0  0  0
   59.7400   29.9400   49.6250 C   0  0  0  0  0  0  0  0  0  0  0  0
   58.4970   30.6740   50.0260 C   0  0  0  0  0  0  0  0  0  0  0  0
   57.6950   30.1500   50.8470 O   0  0  0  0  0  0  0  0  0  0  0  0
   58.2480   31.9820   49.5060 N   0  0  0  0  0  0  0  0  0  0  0  0
   59.3040   32.8370   48.9810 C   0  0  0  0  0  0  0  0  0  0  0  0
   58.9750   33.2240   47.5650 C   0  0  0  0  0  0  0  0  0  0  0  0
   57.6280   33.3310   47.1730 C   0  0  0  0  0  0  0  0  0  0  0  0
   57.2970   33.7150   45.8710 C   0  0  0  0  0  0  0  0  0  0  0  0
   58.3050   34.0060   44.9500 C   0  0  0  0  0  0  0  0  0  0  0  0
   59.6460   33.9180   45.3290 C   0  0  0  0  0  0  0  0  0  0  0  0
   59.9900   33.5360   46.6320 C   0  0  0  0  0  0  0  0  0  0  0  0
   61.8520   33.4650   47.0910 Br  0  0  0  0  0  0  0  0  0  0  0  0
   59.3980   28.9780   47.3250 C   0  0  0  0  0  0  0  0  0  0  0  0
   60.5930   29.0420   46.5840 C   0  0  0  0  0  0  0  0  0  0  0  0
   60.5640   29.3340   45.2180 C   0  0  0  0  0  0  0  0  0  0  0  0
   59.3460   29.5610   44.5750 C   0  0  0  0  0  0  0  0  0  0  0  0
   58.1470   29.4950   45.2950 C   0  0  0  0  0  0  0  0  0  0  0  0
   56.6140   29.7980   44.4840 S   0  0  0  0  0  0  0  0  0  0  0  0
   56.7170   29.2690   42.8430 N   0  0  0  0  0  0  0  0  0  0  0  0
   56.3010   31.2680   44.5180 O   0  0  0  0  0  0  0  0  0  0  0  0
   55.5130   29.0550   45.1880 O   0  0  0  0  0  0  0  0  0  0  0  0
   58.1760   29.2110   46.6680 C   0  0  0  0  0  0  0  0  0  0  0  0
   60.4994   27.4067   50.2007 H   0  0  0  0  0  0  0  0  0  0  0  0
   60.0156   26.5913   48.6750 H   0  0  0  0  0  0  0  0  0  0  0  0
   61.3786   27.7613   48.6750 H   0  0  0  0  0  0  0  0  0  0  0  0
   58.4138   28.3333   49.1189 H   0  0  0  0  0  0  0  0  0  0  0  0
   60.2919   29.6514   50.5317 H   0  0  0  0  0  0  0  0  0  0  0  0
   60.3434   30.6074   48.9922 H   0  0  0  0  0  0  0  0  0  0  0  0
   59.3847   33.7428   49.5998 H   0  0  0  0  0  0  0  0  0  0  0  0
   60.2606   32.2943   49.0011 H   0  0  0  0  0  0  0  0  0  0  0  0
   56.8296   33.1107   47.8969 H   0  0  0  0  0  0  0  0  0  0  0  0
   56.2411   33.7881   45.5713 H   0  0  0  0  0  0  0  0  0  0  0  0
   58.0425   34.3050   43.9245 H   0  0  0  0  0  0  0  0  0  0  0  0
   60.4367   34.1499   44.6003 H   0  0  0  0  0  0  0  0  0  0  0  0
   61.5561   28.8609   47.0837 H   0  0  0  0  0  0  0  0  0  0  0  0
   61.5033   29.3851   44.6478 H   0  0  0  0  0  0  0  0  0  0  0  0
   59.3281   29.7924   43.4998 H   0  0  0  0  0  0  0  0  0  0  0  0
   56.6310   28.2280   42.8510 H   0  0  0  0  0  0  0  0  0  0  0  0
   57.6830   29.4890   42.5110 H   0  0  0  0  0  0  0  0  0  0  0  0
   57.2350   29.1701   47.2362 H   0  0  0  0  0  0  0  0  0  0  0  0
  1  2  1  0
  2  3  1  0
  3  4  1  0
  4  5  2  0
  4  6  1  0
  6  7  1  0
  7  8  1  0
  8  9  2  0
  9 10  1  0
 10 11  2  0
 11 12  1  0
 12 13  2  0
 13 14  1  0
  2 15  1  0
 15 16  2  0
 16 17  1  0
 17 18  2  0
 18 19  1  0
 19 20  1  0
 20 21  1  0
 20 22  2  0
 20 23  2  0
 19 24  2  0
 13  8  1  0
 24 15  1  0
  1 25  1  0
  1 26  1  0
  1 27  1  0
  2 28  1  1
  3 29  1  0
  3 30  1  0
  7 31  1  0
  7 32  1  0
  9 33  1  0
 10 34  1  0
 11 35  1  0
 12 36  1  0
 16 37  1  0
 17 38  1  0
 18 39  1  0
 21 40  1  0
 21 41  1  0
 24 42  1  0
M  CHG  1   6  -1
M  END
>  <UniqueID>  (6) 
4

>  <SMILES>  (6) 
C[C@@H](CC(=O)[N-]Cc1ccccc1Br)c1cccc(S(N)(=O)=O)c1

>  <Energy>  (6) 
35.480091724199944

>  <Genealogy>  (6) 
CC(CC(=O)[N-]Cc1ccccc1Br)c1cccc(S(N)(=O)=O)c1 (protonated)
C[C@@H](CC(=O)[N-]Cc1ccccc1Br)c1cccc(S(N)(=O)=O)c1 (chirality)
C[C@@H](CC(=O)[N-]Cc1ccccc1Br)c1cccc(S(N)(=O)=O)c1 (3D coordinates assigned)
C[C@@H](CC(=O)[N-]Cc1ccccc1Br)c1cccc(S(N)(=O)=O)c1 (optimized conformer: 35.480091724199944 kcal/mol)

>  <smiles>  (6) 
CC(CC(=O)NCc1ccccc1Br)c1cccc(S(N)(=O)=O)c1

>  <score_type>  (6) 
oracle

>  <origin>  (6) 
adg

>  <m_score__min__energy>  (6) 
-10.550000000000001

>  <m_primary>  (6) 
energy

$$$$
6:0
     RDKit          3D

 37 38  0  0  0  0  0  0  0  0999 V2000
   57.4680   34.2200   45.2970 C   0  0  0  0  0  0  0  0  0  0  0  0
   58.7490   34.1850   46.0840 C   0  0  0  0  0  0  0  0  0  0  0  0
   59.9640   33.8950   45.4440 C   0  0  0  0  0  0  0  0  0  0  0  0
   61.1550   33.8480   46.1750 C   0  0  0  0  0  0  0  0  0  0  0  0
   61.1460   34.0770   47.5590 C   0  0  0  0  0  0  0  0  0  0  0  0
   62.6450   33.9190   48.4750 S   0  0  0  0  0  0  0  0  0  0  0  0
   63.7730   34.5150   47.6840 O   0  0  0  0  0  0  0  0  0  0  0  0
   62.5400   34.6300   49.7960 O   0  0  0  0  0  0  0  0  0  0  0  0
   62.9610   32.2390   48.7610 N   0  0  0  0  0  0  0  0  0  0  0  0
   62.5840   31.2250   47.8290 C   0  0  0  0  0  0  0  0  0  0  0  0
   63.2210   31.1050   46.7510 O   0  0  0  0  0  0  0  0  0  0  0  0
   61.4890   30.3450   48.1160 N   0  0  0  0  0  0  0  0  0  0  0  0
   60.3320   30.2130   47.2640 C   0  0  0  0  0  0  0  0  0  0  0  0
   59.2380   31.0720   47.4590 C   0  0  0  0  0  0  0  0  0  0  0  0
   58.1190   31.0020   46.6250 C   0  0  0  0  0  0  0  0  0  0  0  0
   58.0830   30.0820   45.5720 C   0  0  0  0  0  0  0  0  0  0  0  0
   56.6570   29.9870   44.5430 S   0  0  0  0  0  0  0  0  0  0  0  0
   55.5380   28.8560   45.2250 N   0  0  0  0  0  0  0  0  0  0  0  0
   57.0420   29.5310   43.1650 O   0  0  0  0  0  0  0  0  0  0  0  0
   56.0130   31.3420   44.4430 O   0  0  0  0  0  0  0  0  0  0  0  0
   59.1730   29.2250   45.3630 C   0  0  0  0  0  0  0  0  0  0  0  0
   60.2930   29.2920   46.2000 C   0  0  0  0  0  0  0  0  0  0  0  0
   59.9300   34.3410   48.2070 C   0  0  0  0  0  0  0  0  0  0  0  0
   58.7360   34.3860   47.4740 C   0  0  0  0  0  0  0  0  0  0  0  0
   56.6131   34.2434   45.9889 H   0  0  0  0  0  0  0  0  0  0  0  0
   57.4515   35.1189   44.6632 H   0  0  0  0  0  0  0  0  0  0  0  0
   57.4024   33.3233   44.6632 H   0  0  0  0  0  0  0  0  0  0  0  0
   59.9794   33.7036   44.3609 H   0  0  0  0  0  0  0  0  0  0  0  0
   62.1036   33.6304   45.6624 H   0  0  0  0  0  0  0  0  0  0  0  0
   61.4500   29.9270   49.0730 H   0  0  0  0  0  0  0  0  0  0  0  0
   59.2623   31.8074   48.2767 H   0  0  0  0  0  0  0  0  0  0  0  0
   57.2640   31.6723   46.7971 H   0  0  0  0  0  0  0  0  0  0  0  0
   54.6120   29.3380   45.2670 H   0  0  0  0  0  0  0  0  0  0  0  0
   59.1479   28.4975   44.5384 H   0  0  0  0  0  0  0  0  0  0  0  0
   61.1473   28.6214   46.0254 H   0  0  0  0  0  0  0  0  0  0  0  0
   59.9135   34.5132   49.2933 H   0  0  0  0  0  0  0  0  0  0  0  0
   57.7841   34.5797   47.9900 H   0  0  0  0  0  0  0  0  0  0  0  0
  1  2  1  0
  2  3  2  0
  3  4  1  0
  4  5  2  0
  5  6  1  0
  6  7  2  0
  6  8  2  0
  6  9  1  0
  9 10  1  0
 10 11  2  0
 10 12  1  0
 12 13  1  0
 13 14  2  0
 14 15  1  0
 15 16  2  0
 16 17  1  0
 17 18  1  0
 17 19  2  0
 17 20  2  0
 16 21  1  0
 21 22  2  0
  5 23  1  0
 23 24  2  0
 24  2  1  0
 22 13  1  0
  1 25  1  0
  1 26  1  0
  1 27  1  0
  3 28  1  0
  4 29  1  0
 12 30  1  0
 14 31  1  0
 15 32  1  0
 18 33  1  0
 21 34  1  0
 22 35  1  0
 23 36  1  0
 24 37  1  0
M  CHG  2   9  -1  18  -1
M  END
>  <UniqueID>  (7) 
5

>  <SMILES>  (7) 
Cc1ccc(S(=O)(=O)[N-]C(=O)Nc2ccc(S([NH-])(=O)=O)cc2)cc1

>  <Energy>  (7) 
39.70136815290019

>  <Genealogy>  (7) 
Cc1ccc(S(=O)(=O)[N-]C(=O)Nc2ccc(S([NH-])(=O)=O)cc2)cc1 (protonated)
Cc1ccc(S(=O)(=O)[N-]C(=O)Nc2ccc(S([NH-])(=O)=O)cc2)cc1 (3D coordinates assigned)
Cc1ccc(S(=O)(=O)[N-]C(=O)Nc2ccc(S([NH-])(=O)=O)cc2)cc1 (optimized conformer: 39.70136815290019 kcal/mol)

>  <smiles>  (7) 
Cc1ccc(S(=O)(=O)NC(=O)Nc2ccc(S(N)(=O)=O)cc2)cc1

>  <score_type>  (7) 
oracle

>  <origin>  (7) 
adg

>  <m_score__min__energy>  (7) 
-12.59

>  <m_primary>  (7) 
energy

$$$$
7:0
     RDKit          3D

 50 52  0  0  0  0  0  0  0  0999 V2000
   50.0330   32.2300   53.9760 H   0  0  0  0  0  0  0  0  0  0  0  0
   50.8190   31.6270   54.1920 O   0  0  0  0  0  0  0  0  0  0  0  0
   51.7990   31.3390   53.2430 C   0  0  0  0  0  0  0  0  0  0  0  0
   52.8800   30.5080   53.5690 C   0  0  0  0  0  0  0  0  0  0  0  0
   52.9551   30.0785   54.5789 H   0  0  0  0  0  0  0  0  0  0  0  0
   53.8680   30.2210   52.6120 C   0  0  0  0  0  0  0  0  0  0  0  0
   55.0130   29.3010   52.9530 C   0  0  0  0  0  0  0  0  0  0  0  0
   55.0288   28.4686   52.2341 H   0  0  0  0  0  0  0  0  0  0  0  0
   54.8644   28.9308   53.9781 H   0  0  0  0  0  0  0  0  0  0  0  0
   56.3550   30.0310   52.8970 C   0  0  0  0  0  0  0  0  0  0  0  0
   57.1491   29.3606   53.2575 H   0  0  0  0  0  0  0  0  0  0  0  0
   56.3041   30.9271   53.5330 H   0  0  0  0  0  0  0  0  0  0  0  0
   56.6500   30.4350   51.5250 N   0  0  0  0  0  0  0  0  0  0  0  0
   57.3790   31.6130   51.1560 C   0  0  0  0  0  0  0  0  0  0  0  0
   57.1400   32.6890   51.7640 O   0  0  0  0  0  0  0  0  0  0  0  0
   58.4420   31.6010   50.1340 C   0  0  0  0  0  0  0  0  0  0  0  0
   58.8010   30.6361   49.7465 H   0  0  0  0  0  0  0  0  0  0  0  0
   58.9820   32.7330   49.6650 C   0  0  0  0  0  0  0  0  0  0  0  0
   59.5738   33.3443   50.3622 H   0  0  0  0  0  0  0  0  0  0  0  0
   58.8380   33.2220   48.2680 C   0  0  0  0  0  0  0  0  0  0  0  0
   59.6230   34.3140   47.8630 C   0  0  0  0  0  0  0  0  0  0  0  0
   60.3184   34.7796   48.5769 H   0  0  0  0  0  0  0  0  0  0  0  0
   59.5290   34.8140   46.5630 C   0  0  0  0  0  0  0  0  0  0  0  0
   60.1465   35.6724   46.2600 H   0  0  0  0  0  0  0  0  0  0  0  0
   58.6550   34.2290   45.6470 C   0  0  0  0  0  0  0  0  0  0  0  0
   58.5784   34.6338   44.6270 H   0  0  0  0  0  0  0  0  0  0  0  0
   57.8710   33.1230   46.0230 C   0  0  0  0  0  0  0  0  0  0  0  0
   56.9850   32.4880   45.1370 O   0  0  0  0  0  0  0  0  0  0  0  0
   57.3640   31.6120   44.0750 C   0  0  0  0  0  0  0  0  0  0  0  0
   56.5256   31.5166   43.3693 H   0  0  0  0  0  0  0  0  0  0  0  0
   58.2448   32.0325   43.5677 H   0  0  0  0  0  0  0  0  0  0  0  0
   57.7180   30.2500   44.6080 C   0  0  0  0  0  0  0  0  0  0  0  0
   59.0510   29.9170   44.8990 C   0  0  0  0  0  0  0  0  0  0  0  0
   59.8481   30.6576   44.7372 H   0  0  0  0  0  0  0  0  0  0  0  0
   59.3700   28.6470   45.3940 C   0  0  0  0  0  0  0  0  0  0  0  0
   60.4146   28.3947   45.6287 H   0  0  0  0  0  0  0  0  0  0  0  0
   58.3620   27.7000   45.5900 C   0  0  0  0  0  0  0  0  0  0  0  0
   58.6129   26.7028   45.9806 H   0  0  0  0  0  0  0  0  0  0  0  0
   57.0350   28.0190   45.2900 C   0  0  0  0  0  0  0  0  0  0  0  0
   56.2430   27.2708   45.4413 H   0  0  0  0  0  0  0  0  0  0  0  0
   56.7120   29.2870   44.7980 C   0  0  0  0  0  0  0  0  0  0  0  0
   55.6667   29.5320   44.5587 H   0  0  0  0  0  0  0  0  0  0  0  0
   57.9670   32.6270   47.3300 C   0  0  0  0  0  0  0  0  0  0  0  0
   57.3557   31.7627   47.6289 H   0  0  0  0  0  0  0  0  0  0  0  0
   53.7540   30.7610   51.3200 C   0  0  0  0  0  0  0  0  0  0  0  0
   54.5148   30.5293   50.5601 H   0  0  0  0  0  0  0  0  0  0  0  0
   52.6780   31.5910   50.9970 C   0  0  0  0  0  0  0  0  0  0  0  0
   52.5981   32.0165   49.9858 H   0  0  0  0  0  0  0  0  0  0  0  0
   51.7010   31.8830   51.9560 C   0  0  0  0  0  0  0  0  0  0  0  0
   50.6350   32.7100   51.6250 O   0  0  0  0  0  0  0  0  0  0  0  0
  1  2  1  0
  2  3  1  0
  3  4  2  0
  4  5  1  0
  4  6  1  0
  6  7  1  0
  7  8  1  0
  7  9  1  0
  7 10  1  0
 10 11  1  0
 10 12  1  0
 10 13  1  0
 13 14  1  0
 14 15  2  0
 14 16  1  0
 16 17  1  0
 16 18  2  0
 18 19  1  0
 18 20  1  0
 20 21  2  0
 21 22  1  0
 21 23  1  0
 23 24  1  0
 23 25  2  0
 25 26  1  0
 25 27  1  0
 27 28  1  0
 28 29  1  0
 29 30  1  0
 29 31  1  0
 29 32  1  0
 32 33  2  0
 33 34  1  0
 33 35  1  0
 35 36  1  0
 35 37  2  0
 37 38  1  0
 37 39  1  0
 39 40  1  0
 39 41  2  0
 41 42  1  0
 27 43  2  0
 43 44  1  0
  6 45  2  0
 45 46  1  0
 45 47  1  0
 47 48  1  0
 47 49  2  0
 49 50  1  0
 49  3  1  0
 43 20  1  0
 41 32  1  0
M  CHG  2  13  -1  50  -1
M  END
>  <UniqueID>  (8) 
6

>  <SMILES>  (8) 
O=C(/C=C/c1cccc(OCc2ccccc2)c1)[N-]CCc1ccc([O-])c(O)c1

>  <Energy>  (8) 
54.783604980128835

>  <Genealogy>  (8) 
O=C(C=Cc1cccc(OCc2ccccc2)c1)[N-]CCc1ccc([O-])c(O)c1 (protonated)
O=C(/C=C/c1cccc(OCc2ccccc2)c1)[N-]CCc1ccc([O-])c(O)c1 (cis-trans isomerization)
O=C(/C=C/c1cccc(OCc2ccccc2)c1)[N-]CCc1ccc([O-])c(O)c1 (3D coordinates assigned)
O=C(/C=C/c1cccc(OCc2ccccc2)c1)[N-]CCc1ccc([O-])c(O)c1 (optimized conformer: 54.783604980128835 kcal/mol)

>  <smiles>  (8) 
O=C(C=Cc1cccc(OCc2ccccc2)c1)NCCc1ccc(O)c(O)c1

>  <score_type>  (8) 
oracle

>  <origin>  (8) 
adg

>  <m_score__min__energy>  (8) 
-13.94

>  <m_primary>  (8) 
energy

$$$$
8:0
     RDKit          3D

 51 53  0  0  0  0  0  0  0  0999 V2000
   57.3210   22.8580   47.8050 N   0  0  0  0  0  0  0  0  0  0  0  0
   56.3190   23.6240   46.6250 S   0  0  0  0  0  0  0  0  0  0  0  0
   54.9040   23.6830   47.1310 O   0  0  0  0  0  0  0  0  0  0  0  0
   56.3430   22.8300   45.3490 O   0  0  0  0  0  0  0  0  0  0  0  0
   56.9220   25.2510   46.3240 C   0  0  0  0  0  0  0  0  0  0  0  0
   58.2870   25.5380   46.4540 C   0  0  0  0  0  0  0  0  0  0  0  0
   58.7610   26.8250   46.1930 C   0  0  0  0  0  0  0  0  0  0  0  0
   57.8760   27.8300   45.7870 C   0  0  0  0  0  0  0  0  0  0  0  0
   56.5160   27.5500   45.6200 C   0  0  0  0  0  0  0  0  0  0  0  0
   55.6360   28.6060   45.2060 N   0  0  0  0  0  0  0  0  0  0  0  0
   55.9610   29.7060   44.3440 C   0  0  0  0  0  0  0  0  0  0  0  0
   55.3500   30.7960   44.5010 O   0  0  0  0  0  0  0  0  0  0  0  0
   57.0110   29.5950   43.2680 C   0  0  0  0  0  0  0  0  0  0  0  0
   58.3400   29.9460   43.7750 N   0  0  0  0  0  0  0  0  0  0  0  0
   58.5510   30.9380   44.7990 C   0  0  0  0  0  0  0  0  0  0  0  0
   59.2840   30.6540   45.9670 C   0  0  0  0  0  0  0  0  0  0  0  0
   59.4740   31.6400   46.9400 C   0  0  0  0  0  0  0  0  0  0  0  0
   58.9420   32.9210   46.7620 C   0  0  0  0  0  0  0  0  0  0  0  0
   59.2000   34.1730   48.0250 S   0  0  0  0  0  0  0  0  0  0  0  0
   59.3300   32.9810   49.4060 C   0  0  0  0  0  0  0  0  0  0  0  0
   59.7580   33.6820   50.6540 C   0  0  0  0  0  0  0  0  0  0  0  0
   58.8990   34.2770   51.3580 O   0  0  0  0  0  0  0  0  0  0  0  0
   61.1240   33.5860   51.0770 N   0  0  0  0  0  0  0  0  0  0  0  0
   62.2770   33.2930   50.2720 C   0  0  0  0  0  0  0  0  0  0  0  0
   63.4510   32.7310   50.8100 C   0  0  0  0  0  0  0  0  0  0  0  0
   64.5580   32.4920   49.9890 C   0  0  0  0  0  0  0  0  0  0  0  0
   64.5100   32.8270   48.6290 C   0  0  0  0  0  0  0  0  0  0  0  0
   63.3560   33.4040   48.0900 C   0  0  0  0  0  0  0  0  0  0  0  0
   63.3040   33.8450   46.3890 Cl  0  0  0  0  0  0  0  0  0  0  0  0
   62.2470   33.6410   48.9110 C   0  0  0  0  0  0  0  0  0  0  0  0
   58.1980   33.2090   45.6090 C   0  0  0  0  0  0  0  0  0  0  0  0
   57.6570   34.4410   45.4310 F   0  0  0  0  0  0  0  0  0  0  0  0
   58.0100   32.2240   44.6330 C   0  0  0  0  0  0  0  0  0  0  0  0
   56.0380   26.2620   45.9170 C   0  0  0  0  0  0  0  0  0  0  0  0
   58.0740   23.5390   48.0540 H   0  0  0  0  0  0  0  0  0  0  0  0
   58.9870   24.7475   46.7624 H   0  0  0  0  0  0  0  0  0  0  0  0
   59.8319   27.0493   46.3067 H   0  0  0  0  0  0  0  0  0  0  0  0
   58.2522   28.8463   45.5981 H   0  0  0  0  0  0  0  0  0  0  0  0
   57.0326   28.5603   42.8953 H   0  0  0  0  0  0  0  0  0  0  0  0
   56.7534   30.2970   42.4613 H   0  0  0  0  0  0  0  0  0  0  0  0
   59.1810   29.4810   43.3610 H   0  0  0  0  0  0  0  0  0  0  0  0
   59.7097   29.6506   46.1150 H   0  0  0  0  0  0  0  0  0  0  0  0
   60.0452   31.4068   47.8507 H   0  0  0  0  0  0  0  0  0  0  0  0
   58.3504   32.5090   49.5721 H   0  0  0  0  0  0  0  0  0  0  0  0
   60.0772   32.2153   49.1501 H   0  0  0  0  0  0  0  0  0  0  0  0
   63.4976   32.4791   51.8798 H   0  0  0  0  0  0  0  0  0  0  0  0
   65.4677   32.0404   50.4115 H   0  0  0  0  0  0  0  0  0  0  0  0
   65.3810   32.6358   47.9850 H   0  0  0  0  0  0  0  0  0  0  0  0
   61.3439   34.1039   48.4867 H   0  0  0  0  0  0  0  0  0  0  0  0
   57.4328   32.4589   43.7266 H   0  0  0  0  0  0  0  0  0  0  0  0
   54.9632   26.0449   45.8298 H   0  0  0  0  0  0  0  0  0  0  0  0
  1  2  1  0
  2  3  2  0
  2  4  2  0
  2  5  1  0
  5  6  2  0
  6  7  1  0
  7  8  2  0
  8  9  1  0
  9 10  1  0
 10 11  1  0
 11 12  2  0
 11 13  1  0
 13 14  1  0
 14 15  1  0
 15 16  2  0
 16 17  1  0
 17 18  2  0
 18 19  1  0
 19 20  1  0
 20 21  1  0
 21 22  2  0
 21 23  1  0
 23 24  1  0
 24 25  2  0
 25 26  1  0
 26 27  2  0
 27 28  1  0
 28 29  1  0
 28 30  2  0
 18 31  1  0
 31 32  1  0
 31 33  2  0
  9 34  2  0
 34  5  1  0
 33 15  1  0
 30 24  1  0
  1 35  1  0
  6 36  1  0
  7 37  1  0
  8 38  1  0
 13 39  1  0
 13 40  1  0
 14 41  1  0
 16 42  1  0
 17 43  1  0
 20 44  1  0
 20 45  1  0
 25 46  1  0
 26 47  1  0
 27 48  1  0
 30 49  1  0
 33 50  1  0
 34 51  1  0
M  CHG  3   1  -1  10  -1  23  -1
M  END
>  <UniqueID>  (9) 
7

>  <SMILES>  (9) 
[NH-]S(=O)(=O)c1cccc([N-]C(=O)CNc2ccc(SCC(=O)[N-]c3cccc(Cl)c3)c(F)c2)c1

>  <Energy>  (9) 
56.29744199803798

>  <Genealogy>  (9) 
[NH-]S(=O)(=O)c1cccc([N-]C(=O)CNc2ccc(SCC(=O)[N-]c3cccc(Cl)c3)c(F)c2)c1 (protonated)
[NH-]S(=O)(=O)c1cccc([N-]C(=O)CNc2ccc(SCC(=O)[N-]c3cccc(Cl)c3)c(F)c2)c1 (3D coordinates assigned)
[NH-]S(=O)(=O)c1cccc([N-]C(=O)CNc2ccc(SCC(=O)[N-]c3cccc(Cl)c3)c(F)c2)c1 (optimized conformer: 56.29744199803798 kcal/mol)

>  <smiles>  (9) 
NS(=O)(=O)c1cccc(NC(=O)CNc2ccc(SCC(=O)Nc3cccc(Cl)c3)c(F)c2)c1

>  <score_type>  (9) 
oracle

>  <origin>  (9) 
adg

>  <m_score__min__energy>  (9) 
-15.43

>  <m_primary>  (9) 
energy

$$$$
9:0
     RDKit          3D

 33 34  0  0  0  0  0  0  0  0999 V2000
   55.1670   28.6520   45.6250 H   0  0  0  0  0  0  0  0  0  0  0  0
   55.1290   29.3230   44.8260 N   0  0  0  0  0  0  0  0  0  0  0  0
   56.7210   29.3950   44.1550 S   0  0  0  0  0  0  0  0  0  0  0  0
   56.6320   29.4340   42.6550 O   0  0  0  0  0  0  0  0  0  0  0  0
   57.4910   28.1700   44.5610 O   0  0  0  0  0  0  0  0  0  0  0  0
   57.5390   30.8360   44.7450 C   0  0  0  0  0  0  0  0  0  0  0  0
   57.6770   31.9560   43.9140 C   0  0  0  0  0  0  0  0  0  0  0  0
   57.2417   31.9464   42.9038 H   0  0  0  0  0  0  0  0  0  0  0  0
   58.3660   33.0850   44.3650 C   0  0  0  0  0  0  0  0  0  0  0  0
   58.4645   33.9643   43.7114 H   0  0  0  0  0  0  0  0  0  0  0  0
   58.9320   33.1010   45.6470 C   0  0  0  0  0  0  0  0  0  0  0  0
   59.9030   34.4700   46.1850 S   0  0  0  0  0  0  0  0  0  0  0  0
   61.3690   34.1900   46.0010 O   0  0  0  0  0  0  0  0  0  0  0  0
   59.5320   35.6650   45.3510 O   0  0  0  0  0  0  0  0  0  0  0  0
   59.5940   34.8380   47.8840 C   0  0  0  0  0  0  0  0  0  0  0  0
   58.9038   35.6638   48.1115 H   0  0  0  0  0  0  0  0  0  0  0  0
   60.1420   34.1810   48.9160 C   0  0  0  0  0  0  0  0  0  0  0  0
   59.5736   34.1360   49.8567 H   0  0  0  0  0  0  0  0  0  0  0  0
   61.4560   33.5150   48.8730 C   0  0  0  0  0  0  0  0  0  0  0  0
   61.5700   32.2470   48.2830 C   0  0  0  0  0  0  0  0  0  0  0  0
   60.6771   31.7488   47.8774 H   0  0  0  0  0  0  0  0  0  0  0  0
   62.8140   31.6150   48.2090 C   0  0  0  0  0  0  0  0  0  0  0  0
   62.9016   30.6291   47.7291 H   0  0  0  0  0  0  0  0  0  0  0  0
   63.9470   32.2340   48.7440 C   0  0  0  0  0  0  0  0  0  0  0  0
   64.9272   31.7394   48.6766 H   0  0  0  0  0  0  0  0  0  0  0  0
   63.8350   33.4820   49.3650 C   0  0  0  0  0  0  0  0  0  0  0  0
   64.7249   33.9623   49.7979 H   0  0  0  0  0  0  0  0  0  0  0  0
   62.5920   34.1200   49.4360 C   0  0  0  0  0  0  0  0  0  0  0  0
   62.5040   35.0971   49.9335 H   0  0  0  0  0  0  0  0  0  0  0  0
   58.7810   31.9870   46.4830 C   0  0  0  0  0  0  0  0  0  0  0  0
   59.2070   32.0010   47.4971 H   0  0  0  0  0  0  0  0  0  0  0  0
   58.0910   30.8580   46.0330 C   0  0  0  0  0  0  0  0  0  0  0  0
   57.9808   29.9840   46.6918 H   0  0  0  0  0  0  0  0  0  0  0  0
  1  2  1  0
  2  3  1  0
  3  4  2  0
  3  5  2  0
  3  6  1  0
  6  7  2  0
  7  8  1  0
  7  9  1  0
  9 10  1  0
  9 11  2  0
 11 12  1  0
 12 13  2  0
 12 14  2  0
 12 15  1  0
 15 16  1  0
 15 17  2  0
 17 18  1  0
 17 19  1  0
 19 20  2  0
 20 21  1  0
 20 22  1  0
 22 23  1  0
 22 24  2  0
 24 25  1  0
 24 26  1  0
 26 27  1  0
 26 28  2  0
 28 29  1  0
 11 30  1  0
 30 31  1  0
 30 32  2  0
 32 33  1  0
 32  6  1  0
 28 19  1  0
M  CHG  1   2  -1
M  END
>  <UniqueID>  (10) 
8

>  <SMILES>  (10) 
[NH-]S(=O)(=O)c1ccc(S(=O)(=O)/C=C\c2ccccc2)cc1

>  <Energy>  (10) 
38.4457023786209

>  <Genealogy>  (10) 
[NH-]S(=O)(=O)c1ccc(S(=O)(=O)C=Cc2ccccc2)cc1 (protonated)
[NH-]S(=O)(=O)c1ccc(S(=O)(=O)/C=C\c2ccccc2)cc1 (cis-trans isomerization)
[NH-]S(=O)(=O)c1ccc(S(=O)(=O)/C=C\c2ccccc2)cc1 (3D coordinates assigned)
[NH-]S(=O)(=O)c1ccc(S(=O)(=O)/C=C\c2ccccc2)cc1 (optimized conformer: 38.4457023786209 kcal/mol)

>  <smiles>  (10) 
NS(=O)(=O)c1ccc(S(=O)(=O)C=Cc2ccccc2)cc1

>  <score_type>  (10) 
oracle

>  <origin>  (10) 
adg

>  <m_score__min__energy>  (10) 
-11.06

>  <m_primary>  (10) 
energy

$$$$
10:0
     RDKit          3D

 48 50  0  0  0  0  0  0  0  0999 V2000
   57.9560   32.3870   41.1860 C   0  0  0  0  0  0  0  0  0  0  0  0
   57.5430   31.5820   42.3830 C   0  0  0  0  0  0  0  0  0  0  0  0
   56.6390   30.5240   42.2490 C   0  0  0  0  0  0  0  0  0  0  0  0
   56.2950   29.7580   43.3600 C   0  0  0  0  0  0  0  0  0  0  0  0
   56.8680   30.0460   44.6010 C   0  0  0  0  0  0  0  0  0  0  0  0
   56.5650   29.3320   45.5980 O   0  0  0  0  0  0  0  0  0  0  0  0
   57.7600   31.0820   44.7270 N   0  0  0  0  0  0  0  0  0  0  0  0
   58.3710   31.3890   45.9950 C   0  0  0  0  0  0  0  0  0  0  0  0
   58.0920   32.5310   46.6230 C   0  0  0  0  0  0  0  0  0  0  0  0
   58.7730   32.8950   47.8720 C   0  0  0  0  0  0  0  0  0  0  0  0
   59.8980   32.2620   48.2820 C   0  0  0  0  0  0  0  0  0  0  0  0
   60.9430   33.0080   49.1620 C   0  0  0  0  0  0  0  0  0  0  0  0
   60.8030   34.5580   49.0470 C   0  0  0  0  0  0  0  0  0  0  0  0
   60.7180   32.6390   50.6430 C   0  0  0  0  0  0  0  0  0  0  0  0
   62.3990   32.5910   48.7180 C   0  0  2  0  0  0  0  0  0  0  0  0
   63.3720   33.5370   49.1010 O   0  0  0  0  0  0  0  0  0  0  0  0
   62.4720   32.3000   47.2010 C   0  0  0  0  0  0  0  0  0  0  0  0
   61.5610   31.1310   46.7540 C   0  0  0  0  0  0  0  0  0  0  0  0
   60.2860   30.9120   47.6310 C   0  0  1  0  0  0  0  0  0  0  0  0
   60.5840   29.8350   48.7170 C   0  0  0  0  0  0  0  0  0  0  0  0
   59.1250   30.3220   46.7380 C   0  0  1  0  0  0  0  0  0  0  0  0
   58.1900   29.6250   47.5270 O   0  0  0  0  0  0  0  0  0  0  0  0
   58.1100   31.8330   43.6390 C   0  0  0  0  0  0  0  0  0  0  0  0
   58.4346   33.3198   41.5188 H   0  0  0  0  0  0  0  0  0  0  0  0
   58.6672   31.8057   40.5808 H   0  0  0  0  0  0  0  0  0  0  0  0
   57.0690   32.6256   40.5808 H   0  0  0  0  0  0  0  0  0  0  0  0
   56.1997   30.2967   41.2665 H   0  0  0  0  0  0  0  0  0  0  0  0
   55.5764   28.9311   43.2609 H   0  0  0  0  0  0  0  0  0  0  0  0
   57.3394   33.2119   46.1988 H   0  0  0  0  0  0  0  0  0  0  0  0
   58.3582   33.7038   48.4915 H   0  0  0  0  0  0  0  0  0  0  0  0
   60.7632   34.9983   50.0543 H   0  0  0  0  0  0  0  0  0  0  0  0
   61.6680   34.9649   48.5028 H   0  0  0  0  0  0  0  0  0  0  0  0
   59.8790   34.8033   48.5028 H   0  0  0  0  0  0  0  0  0  0  0  0
   61.1828   33.4013   51.2855 H   0  0  0  0  0  0  0  0  0  0  0  0
   59.6385   32.5939   50.8497 H   0  0  0  0  0  0  0  0  0  0  0  0
   61.1722   31.6587   50.8497 H   0  0  0  0  0  0  0  0  0  0  0  0
   62.6304   31.6580   49.2527 H   0  0  0  0  0  0  0  0  0  0  0  0
   63.7010   33.3060   50.0080 H   0  0  0  0  0  0  0  0  0  0  0  0
   62.1679   33.2065   46.6572 H   0  0  0  0  0  0  0  0  0  0  0  0
   63.5084   32.0079   46.9762 H   0  0  0  0  0  0  0  0  0  0  0  0
   61.2351   31.3282   45.7220 H   0  0  0  0  0  0  0  0  0  0  0  0
   62.1638   30.2165   46.8556 H   0  0  0  0  0  0  0  0  0  0  0  0
   60.4614   30.2782   49.7163 H   0  0  0  0  0  0  0  0  0  0  0  0
   59.8849   28.9938   48.6007 H   0  0  0  0  0  0  0  0  0  0  0  0
   61.6161   29.4728   48.6007 H   0  0  0  0  0  0  0  0  0  0  0  0
   59.6159   29.6509   46.0178 H   0  0  0  0  0  0  0  0  0  0  0  0
   57.5290   29.2170   46.9080 H   0  0  0  0  0  0  0  0  0  0  0  0
   58.8452   32.6434   43.7515 H   0  0  0  0  0  0  0  0  0  0  0  0
  1  2  1  0
  2  3  1  0
  3  4  2  0
  4  5  1  0
  5  6  2  0
  5  7  1  0
  7  8  1  0
  8  9  2  0
  9 10  1  0
 10 11  2  0
 11 12  1  0
 12 13  1  0
 12 14  1  0
 12 15  1  0
 15 16  1  0
 15 17  1  0
 17 18  1  0
 18 19  1  0
 19 20  1  1
 19 21  1  0
 21 22  1  0
  7 23  1  0
 23  2  2  0
 21  8  1  0
 19 11  1  0
  1 24  1  0
  1 25  1  0
  1 26  1  0
  3 27  1  0
  4 28  1  0
  9 29  1  0
 10 30  1  0
 13 31  1  0
 13 32  1  0
 13 33  1  0
 14 34  1  0
 14 35  1  0
 14 36  1  0
 15 37  1  1
 16 38  1  0
 17 39  1  0
 17 40  1  0
 18 41  1  0
 18 42  1  0
 20 43  1  0
 20 44  1  0
 20 45  1  0
 21 46  1  6
 22 47  1  0
 23 48  1  0
M  END
>  <UniqueID>  (11) 
9

>  <SMILES>  (11) 
Cc1ccc(=O)n(C2=CC=C3C(C)(C)[C@H](O)CC[C@]3(C)C2O)c1

>  <Energy>  (11) 
82.90716728881544

>  <Genealogy>  (11) 
Cc1ccc(=O)n(C2=CC=C3C(C)(C)[C@H](O)CC[C@]3(C)C2O)c1 (chirality)
Cc1ccc(=O)n(C2=CC=C3C(C)(C)[C@H](O)CC[C@]3(C)C2O)c1 (3D coordinates assigned)
Cc1ccc(=O)n(C2=CC=C3C(C)(C)[C@H](O)CC[C@]3(C)C2O)c1 (nonaromatic ring conformer: 82.90716728881544 kcal/mol)

>  <smiles>  (11) 
Cc1ccc(=O)n(C2=CC=C3C(C)(C)C(O)CCC3(C)C2O)c1

>  <score_type>  (11) 
oracle

>  <origin>  (11) 
adg

>  <m_score__min__energy>  (11) 
-8.1400000000000006

>  <m_primary>  (11) 
energy

$$$$
11:0
     RDKit          3D

 42 44  0  0  0  0  0  0  0  0999 V2000
   59.7060   34.2250   48.6640 C   0  0  0  0  0  0  0  0  0  0  0  0
   59.3030   34.0770   47.2270 C   0  0  0  0  0  0  0  0  0  0  0  0
   59.5850   35.1070   46.3170 C   0  0  0  0  0  0  0  0  0  0  0  0
   59.2100   34.9840   44.9790 C   0  0  0  0  0  0  0  0  0  0  0  0
   58.5400   33.8400   44.5410 C   0  0  0  0  0  0  0  0  0  0  0  0
   58.2230   32.8100   45.4440 C   0  0  0  0  0  0  0  0  0  0  0  0
   57.5250   31.5970   44.9600 C   0  0  0  0  0  0  0  0  0  0  0  0
   56.2690   31.6130   44.8520 O   0  0  0  0  0  0  0  0  0  0  0  0
   58.2270   30.4150   44.5470 N   0  0  0  0  0  0  0  0  0  0  0  0
   58.0490   29.0750   45.0300 C   0  0  0  0  0  0  0  0  0  0  0  0
   59.1750   28.2500   45.1380 C   0  0  0  0  0  0  0  0  0  0  0  0
   59.0390   26.9100   45.5030 C   0  0  0  0  0  0  0  0  0  0  0  0
   57.7760   26.3820   45.7760 C   0  0  0  0  0  0  0  0  0  0  0  0
   56.6400   27.2070   45.7220 C   0  0  0  0  0  0  0  0  0  0  0  0
   55.3240   26.7150   46.0180 N   0  0  0  0  0  0  0  0  0  0  0  0
   54.8440   25.3660   45.9140 C   0  0  0  0  0  0  0  0  0  0  0  0
   53.6360   25.1770   45.6210 O   0  0  0  0  0  0  0  0  0  0  0  0
   55.6870   24.2240   46.1250 N   0  0  0  0  0  0  0  0  0  0  0  0
   56.2860   23.3890   45.1250 C   0  0  0  0  0  0  0  0  0  0  0  0
   57.4010   22.5770   45.4020 C   0  0  0  0  0  0  0  0  0  0  0  0
   57.9550   21.7820   44.3940 C   0  0  0  0  0  0  0  0  0  0  0  0
   57.3970   21.7790   43.1140 C   0  0  0  0  0  0  0  0  0  0  0  0
   56.2740   22.5640   42.8410 C   0  0  0  0  0  0  0  0  0  0  0  0
   55.7170   23.3610   43.8450 C   0  0  0  0  0  0  0  0  0  0  0  0
   56.7770   28.5380   45.3070 C   0  0  0  0  0  0  0  0  0  0  0  0
   58.6080   32.9370   46.7900 C   0  0  0  0  0  0  0  0  0  0  0  0
   58.8717   33.9186   49.3122 H   0  0  0  0  0  0  0  0  0  0  0  0
   60.5805   33.5894   48.8669 H   0  0  0  0  0  0  0  0  0  0  0  0
   59.9613   35.2756   48.8669 H   0  0  0  0  0  0  0  0  0  0  0  0
   60.1035   36.0146   46.6598 H   0  0  0  0  0  0  0  0  0  0  0  0
   59.4426   35.7900   44.2675 H   0  0  0  0  0  0  0  0  0  0  0  0
   58.2582   33.7439   43.4821 H   0  0  0  0  0  0  0  0  0  0  0  0
   60.1745   28.6612   44.9336 H   0  0  0  0  0  0  0  0  0  0  0  0
   59.9294   26.2682   45.5758 H   0  0  0  0  0  0  0  0  0  0  0  0
   57.6699   25.3179   46.0339 H   0  0  0  0  0  0  0  0  0  0  0  0
   57.8371   22.5676   46.4118 H   0  0  0  0  0  0  0  0  0  0  0  0
   58.8337   21.1566   44.6101 H   0  0  0  0  0  0  0  0  0  0  0  0
   57.8412   21.1591   42.3213 H   0  0  0  0  0  0  0  0  0  0  0  0
   55.8280   22.5548   41.8355 H   0  0  0  0  0  0  0  0  0  0  0  0
   54.8267   23.9698   43.6290 H   0  0  0  0  0  0  0  0  0  0  0  0
   55.8830   29.1693   45.1965 H   0  0  0  0  0  0  0  0  0  0  0  0
   58.3635   32.1384   47.5059 H   0  0  0  0  0  0  0  0  0  0  0  0
  1  2  1  0
  2  3  2  0
  3  4  1  0
  4  5  2  0
  5  6  1  0
  6  7  1  0
  7  8  2  0
  7  9  1  0
  9 10  1  0
 10 11  2  0
 11 12  1  0
 12 13  2  0
 13 14  1  0
 14 15  1  0
 15 16  1  0
 16 17  2  0
 16 18  1  0
 18 19  1  0
 19 20  2  0
 20 21  1  0
 21 22  2  0
 22 23  1  0
 23 24  2  0
 14 25  2  0
  6 26  2  0
 26  2  1  0
 25 10  1  0
 24 19  1  0
  1 27  1  0
  1 28  1  0
  1 29  1  0
  3 30  1  0
  4 31  1  0
  5 32  1  0
 11 33  1  0
 12 34  1  0
 13 35  1  0
 20 36  1  0
 21 37  1  0
 22 38  1  0
 23 39  1  0
 24 40  1  0
 25 41  1  0
 26 42  1  0
M  CHG  3   9  -1  15  -1  18  -1
M  END
>  <UniqueID>  (12) 
10

>  <SMILES>  (12) 
Cc1cccc(C(=O)[N-]c2cccc([N-]C(=O)[N-]c3ccccc3)c2)c1

>  <Energy>  (12) 
57.672318600793616

>  <Genealogy>  (12) 
Cc1cccc(C(=O)[N-]c2cccc([N-]C(=O)[N-]c3ccccc3)c2)c1 (protonated)
Cc1cccc(C(=O)[N-]c2cccc([N-]C(=O)[N-]c3ccccc3)c2)c1 (3D coordinates assigned)
Cc1cccc(C(=O)[N-]c2cccc([N-]C(=O)[N-]c3ccccc3)c2)c1 (optimized conformer: 57.672318600793616 kcal/mol)

>  <smiles>  (12) 
Cc1cccc(C(=O)Nc2cccc(NC(=O)Nc3ccccc3)c2)c1

>  <score_type>  (12) 
oracle

>  <origin>  (12) 
adg

>  <m_score__min__energy>  (12) 
-13.59

>  <m_primary>  (12) 
energy

$$$$
12:0
     RDKit          3D

 43 45  0  0  0  0  0  0  0  0999 V2000
   61.7280   31.3030   46.7910 O   0  0  0  0  0  0  0  0  0  0  0  0
   60.8350   30.4490   47.0350 C   0  0  0  0  0  0  0  0  0  0  0  0
   60.6910   29.2980   46.1910 N   0  0  0  0  0  0  0  0  0  0  0  0
   59.5140   28.4900   46.0410 C   0  0  0  0  0  0  0  0  0  0  0  0
   59.6070   27.1160   46.2910 C   0  0  0  0  0  0  0  0  0  0  0  0
   58.4820   26.2980   46.1670 C   0  0  0  0  0  0  0  0  0  0  0  0
   57.2480   26.8490   45.8150 C   0  0  0  0  0  0  0  0  0  0  0  0
   57.1260   28.2340   45.6090 C   0  0  0  0  0  0  0  0  0  0  0  0
   55.8800   28.8410   45.2420 N   0  0  0  0  0  0  0  0  0  0  0  0
   55.6450   29.7060   44.1210 C   0  0  0  0  0  0  0  0  0  0  0  0
   54.6170   29.5500   43.4080 O   0  0  0  0  0  0  0  0  0  0  0  0
   56.5840   30.8160   43.8300 C   0  0  0  0  0  0  0  0  0  0  0  0
   57.0760   31.0120   42.5280 C   0  0  0  0  0  0  0  0  0  0  0  0
   57.9740   32.0470   42.2590 C   0  0  0  0  0  0  0  0  0  0  0  0
   58.3860   32.9030   43.2800 C   0  0  0  0  0  0  0  0  0  0  0  0
   57.8890   32.7450   44.5840 C   0  0  0  0  0  0  0  0  0  0  0  0
   58.3640   33.6360   45.7050 C   0  0  0  0  0  0  0  0  0  0  0  0
   59.6540   33.3100   46.0880 F   0  0  0  0  0  0  0  0  0  0  0  0
   57.5210   33.4900   46.7900 F   0  0  0  0  0  0  0  0  0  0  0  0
   58.3550   34.9610   45.3020 F   0  0  0  0  0  0  0  0  0  0  0  0
   57.0050   31.6850   44.8550 C   0  0  0  0  0  0  0  0  0  0  0  0
   58.2640   29.0470   45.7100 C   0  0  0  0  0  0  0  0  0  0  0  0
   59.9650   30.6080   48.2260 C   0  0  0  0  0  0  0  0  0  0  0  0
   59.7430   29.5310   49.1000 C   0  0  0  0  0  0  0  0  0  0  0  0
   58.9200   29.6820   50.2190 C   0  0  0  0  0  0  0  0  0  0  0  0
   58.3000   30.9130   50.4900 C   0  0  0  0  0  0  0  0  0  0  0  0
   57.4530   31.0650   51.6430 N   0  0  0  0  0  0  0  0  0  0  0  0
   57.5400   32.0760   52.3690 O   0  0  0  0  0  0  0  0  0  0  0  0
   56.5310   30.0950   51.9670 O   0  0  0  0  0  0  0  0  0  0  0  0
   58.5210   31.9910   49.6150 C   0  0  0  0  0  0  0  0  0  0  0  0
   59.3450   31.8400   48.4960 C   0  0  0  0  0  0  0  0  0  0  0  0
   60.5717   26.6780   46.5868 H   0  0  0  0  0  0  0  0  0  0  0  0
   58.5681   25.2163   46.3471 H   0  0  0  0  0  0  0  0  0  0  0  0
   56.3694   26.1975   45.6987 H   0  0  0  0  0  0  0  0  0  0  0  0
   56.7514   30.3455   41.7154 H   0  0  0  0  0  0  0  0  0  0  0  0
   58.3579   32.1877   41.2378 H   0  0  0  0  0  0  0  0  0  0  0  0
   59.1047   33.7069   43.0626 H   0  0  0  0  0  0  0  0  0  0  0  0
   56.6379   31.5329   45.8807 H   0  0  0  0  0  0  0  0  0  0  0  0
   58.1794   30.1287   45.5292 H   0  0  0  0  0  0  0  0  0  0  0  0
   60.2212   28.5604   48.9018 H   0  0  0  0  0  0  0  0  0  0  0  0
   58.7561   28.8290   50.8940 H   0  0  0  0  0  0  0  0  0  0  0  0
   58.0416   32.9611   49.8126 H   0  0  0  0  0  0  0  0  0  0  0  0
   59.5096   32.6928   47.8210 H   0  0  0  0  0  0  0  0  0  0  0  0
  1  2  2  0
  2  3  1  0
  3  4  1  0
  4  5  2  0
  5  6  1  0
  6  7  2  0
  7  8  1  0
  8  9  1  0
  9 10  1  0
 10 11  2  0
 10 12  1  0
 12 13  2  0
 13 14  1  0
 14 15  2  0
 15 16  1  0
 16 17  1  0
 17 18  1  0
 17 19  1  0
 17 20  1  0
 16 21  2  0
  8 22  2  0
  2 23  1  0
 23 24  2  0
 24 25  1  0
 25 26  2  0
 26 27  1  0
 27 28  2  0
 27 29  1  0
 26 30  1  0
 30 31  2  0
 22  4  1  0
 31 23  1  0
 21 12  1  0
  5 32  1  0
  6 33  1  0
  7 34  1  0
 13 35  1  0
 14 36  1  0
 15 37  1  0
 21 38  1  0
 22 39  1  0
 24 40  1  0
 25 41  1  0
 30 42  1  0
 31 43  1  0
M  CHG  4   3  -1   9  -1  27   1  29  -1
M  END
>  <UniqueID>  (13) 
11

>  <SMILES>  (13) 
O=C([N-]c1cccc([N-]C(=O)c2cccc(C(F)(F)F)c2)c1)c1ccc([N+](=O)[O-])cc1

>  <Energy>  (13) 
56.6238873357891

>  <Genealogy>  (13) 
O=C([N-]c1cccc([N-]C(=O)c2cccc(C(F)(F)F)c2)c1)c1ccc([N+](=O)[O-])cc1 (protonated)
O=C([N-]c1cccc([N-]C(=O)c2cccc(C(F)(F)F)c2)c1)c1ccc([N+](=O)[O-])cc1 (3D coordinates assigned)
O=C([N-]c1cccc([N-]C(=O)c2cccc(C(F)(F)F)c2)c1)c1ccc([N+](=O)[O-])cc1 (optimized conformer: 56.6238873357891 kcal/mol)

>  <smiles>  (13) 
O=C(Nc1cccc(NC(=O)c2cccc(C(F)(F)F)c2)c1)c1ccc([N+](=O)[O-])cc1

>  <score_type>  (13) 
oracle

>  <origin>  (13) 
adg

>  <m_score__min__energy>  (13) 
-11.460000000000001

>  <m_primary>  (13) 
energy

$$$$
13:0
     RDKit          3D

 35 36  0  0  1  0  0  0  0  0999 V2000
   64.1150   33.0270   49.8030 N   0  0  0  0  0  0  0  0  0  0  0  0
   63.4660   33.2830   48.7170 C   0  0  0  0  0  0  0  0  0  0  0  0
   64.0660   33.2120   47.5060 N   0  0  0  0  0  0  0  0  0  0  0  0
   63.3720   33.4820   46.3860 C   0  0  0  0  0  0  0  0  0  0  0  0
   62.0720   33.8250   46.4560 N   0  0  0  0  0  0  0  0  0  0  0  0
   61.4550   33.9010   47.6440 C   0  0  0  0  0  0  0  0  0  0  0  0
   62.1410   33.6280   48.8330 C   0  0  0  0  0  0  0  0  0  0  0  0
   61.2810   33.7830   49.8410 N   0  0  0  0  0  0  0  0  0  0  0  0
   60.0900   34.1420   49.3110 C   0  0  0  0  0  0  0  0  0  0  0  0
   60.1740   34.2200   47.9710 N   0  0  0  0  0  0  0  0  0  0  0  0
   59.0800   34.5780   47.0940 C   0  0  0  0  0  0  0  0  0  0  0  0
   58.2350   33.3880   46.7400 C   0  0  0  0  0  0  0  0  0  0  0  0
   58.3750   33.1550   45.2330 C   0  0  0  0  0  0  0  0  0  0  0  0
   57.1770   32.3800   44.7050 C   0  0  0  0  0  0  0  0  0  0  0  0
   57.6450   31.3380   43.6980 C   0  0  0  0  0  0  0  0  0  0  0  0
   56.8900   30.0860   43.8070 C   0  0  0  0  0  0  0  0  0  0  0  0
   56.9700   29.1000   42.8480 O   0  0  0  0  0  0  0  0  0  0  0  0
   56.1160   29.8910   44.8440 N   0  0  0  0  0  0  0  0  0  0  0  0
   55.5940   28.6210   45.0100 O   0  0  0  0  0  0  0  0  0  0  0  0
   63.7160   33.0120   50.7560 H   0  0  0  0  0  0  0  0  0  0  0  0
   65.0740   32.9430   47.5090 H   0  0  0  0  0  0  0  0  0  0  0  0
   63.8696   33.4222   45.4068 H   0  0  0  0  0  0  0  0  0  0  0  0
   59.1793   34.3423   49.8945 H   0  0  0  0  0  0  0  0  0  0  0  0
   58.4493   35.3248   47.5985 H   0  0  0  0  0  0  0  0  0  0  0  0
   59.5063   34.9827   46.1642 H   0  0  0  0  0  0  0  0  0  0  0  0
   58.5843   32.5023   47.2909 H   0  0  0  0  0  0  0  0  0  0  0  0
   57.1832   33.5666   47.0080 H   0  0  0  0  0  0  0  0  0  0  0  0
   58.4339   34.1261   44.7196 H   0  0  0  0  0  0  0  0  0  0  0  0
   59.2891   32.5729   45.0443 H   0  0  0  0  0  0  0  0  0  0  0  0
   56.6684   31.8781   45.5413 H   0  0  0  0  0  0  0  0  0  0  0  0
   56.4804   33.0752   44.2137 H   0  0  0  0  0  0  0  0  0  0  0  0
   57.5159   31.7426   42.6833 H   0  0  0  0  0  0  0  0  0  0  0  0
   58.7015   31.1152   43.9081 H   0  0  0  0  0  0  0  0  0  0  0  0
   56.5130   28.2150   42.9680 H   0  0  0  0  0  0  0  0  0  0  0  0
   55.9340   27.8380   44.4910 H   0  0  0  0  0  0  0  0  0  0  0  0
  1  2  2  3
  2  3  1  0
  3  4  1  0
  4  5  2  0
  5  6  1  0
  6  7  2  0
  7  8  1  0
  8  9  2  0
  9 10  1  0
 10 11  1  0
 11 12  1  0
 12 13  1  0
 13 14  1  0
 14 15  1  0
 15 16  1  0
 16 17  1  0
 16 18  2  0
 18 19  1  0
  7  2  1  0
 10  6  1  0
  1 20  1  0
  3 21  1  0
  4 22  1  0
  9 23  1  0
 11 24  1  0
 11 25  1  0
 12 26  1  0
 12 27  1  0
 13 28  1  0
 13 29  1  0
 14 30  1  0
 14 31  1  0
 15 32  1  0
 15 33  1  0
 17 34  1  0
 19 35  1  0
M  END
>  <smiles>  (14) 
N=c1[nH]cnc2c1ncn2CCCCCC(O)=NO

>  <score_type>  (14) 
oracle

>  <origin>  (14) 
adg

>  <m_score__min__energy>  (14) 
-6.9199999999999999

>  <m_primary>  (14) 
energy

$$$$
14:0
     RDKit          3D

 39 41  0  0  0  0  0  0  0  0999 V2000
   59.2000   28.9940   49.1980 C   0  0  0  0  0  0  0  0  0  0  0  0
   59.2270   28.9870   47.6950 C   0  0  0  0  0  0  0  0  0  0  0  0
   58.4550   28.0530   46.9830 C   0  0  0  0  0  0  0  0  0  0  0  0
   58.4720   28.0330   45.5820 C   0  0  0  0  0  0  0  0  0  0  0  0
   57.6140   27.0560   44.8250 C   0  0  0  0  0  0  0  0  0  0  0  0
   57.1500   25.9630   45.7360 C   0  0  0  0  0  0  0  0  0  0  0  0
   58.0760   24.6380   46.2110 S   0  0  0  0  0  0  0  0  0  0  0  0
   56.8030   23.9520   47.0680 C   0  0  0  0  0  0  0  0  0  0  0  0
   56.8780   22.8680   47.7030 O   0  0  0  0  0  0  0  0  0  0  0  0
   55.6740   24.6880   47.0020 N   0  0  0  0  0  0  0  0  0  0  0  0
   55.8660   25.8060   46.2530 C   0  0  0  0  0  0  0  0  0  0  0  0
   54.8410   26.7150   46.0260 O   0  0  0  0  0  0  0  0  0  0  0  0
   59.2500   28.9710   44.8900 C   0  0  0  0  0  0  0  0  0  0  0  0
   60.0190   29.9040   45.5890 C   0  0  0  0  0  0  0  0  0  0  0  0
   60.0180   29.9200   46.9970 C   0  0  0  0  0  0  0  0  0  0  0  0
   60.7760   30.8450   47.7380 O   0  0  0  0  0  0  0  0  0  0  0  0
   60.7030   32.2670   47.6190 C   0  0  0  0  0  0  0  0  0  0  0  0
   59.2670   32.7530   47.8180 C   0  0  0  0  0  0  0  0  0  0  0  0
   58.7240   33.2510   46.5550 N   0  0  0  0  0  0  0  0  0  0  0  0
   57.8680   32.6120   45.7340 C   0  0  0  0  0  0  0  0  0  0  0  0
   57.4050   31.3190   45.9460 O   0  0  0  0  0  0  0  0  0  0  0  0
   57.5130   33.4160   44.6690 C   0  0  0  0  0  0  0  0  0  0  0  0
   58.1760   34.6170   44.8560 C   0  0  0  0  0  0  0  0  0  0  0  0
   58.8980   34.4770   46.0250 C   0  0  0  0  0  0  0  0  0  0  0  0
   59.6940   35.4650   46.5900 O   0  0  0  0  0  0  0  0  0  0  0  0
   60.1971   28.7355   49.5838 H   0  0  0  0  0  0  0  0  0  0  0  0
   58.9169   29.9952   49.5550 H   0  0  0  0  0  0  0  0  0  0  0  0
   58.4662   28.2564   49.5550 H   0  0  0  0  0  0  0  0  0  0  0  0
   57.8316   27.3309   47.5307 H   0  0  0  0  0  0  0  0  0  0  0  0
   56.7399   27.5823   44.4140 H   0  0  0  0  0  0  0  0  0  0  0  0
   58.2053   26.6163   44.0083 H   0  0  0  0  0  0  0  0  0  0  0  0
   59.2550   28.9724   43.7900 H   0  0  0  0  0  0  0  0  0  0  0  0
   60.6302   30.6320   45.0354 H   0  0  0  0  0  0  0  0  0  0  0  0
   61.3488   32.7268   48.3816 H   0  0  0  0  0  0  0  0  0  0  0  0
   61.0375   32.5552   46.6115 H   0  0  0  0  0  0  0  0  0  0  0  0
   58.6469   31.9180   48.1762 H   0  0  0  0  0  0  0  0  0  0  0  0
   59.2624   33.5676   48.5572 H   0  0  0  0  0  0  0  0  0  0  0  0
   56.8394   33.1550   43.8395 H   0  0  0  0  0  0  0  0  0  0  0  0
   58.1358   35.5031   44.2054 H   0  0  0  0  0  0  0  0  0  0  0  0
  1  2  1  0
  2  3  2  0
  3  4  1  0
  4  5  1  0
  5  6  1  0
  6  7  1  0
  7  8  1  0
  8  9  2  0
  8 10  1  0
 10 11  1  0
 11 12  1  0
  4 13  2  0
 13 14  1  0
 14 15  2  0
 15 16  1  0
 16 17  1  0
 17 18  1  0
 18 19  1  0
 19 20  1  0
 20 21  1  0
 20 22  2  0
 22 23  1  0
 23 24  2  0
 24 25  1  0
 15  2  1  0
 24 19  1  0
 11  6  2  0
  1 26  1  0
  1 27  1  0
  1 28  1  0
  3 29  1  0
  5 30  1  0
  5 31  1  0
 13 32  1  0
 14 33  1  0
 17 34  1  0
 17 35  1  0
 18 36  1  0
 18 37  1  0
 22 38  1  0
 23 39  1  0
M  CHG  4  10  -1  12  -1  21  -1  25  -1
M  END
>  <UniqueID>  (15) 
12

>  <SMILES>  (15) 
Cc1cc(Cc2sc(=O)[n-]c2[O-])ccc1OCCn1c([O-])ccc1[O-]

>  <Energy>  (15) 
95.68188698615556

>  <Genealogy>  (15) 
Cc1cc(Cc2sc(=O)[n-]c2[O-])ccc1OCCn1c([O-])ccc1[O-] (protonated)
Cc1cc(Cc2sc(=O)[n-]c2[O-])ccc1OCCn1c([O-])ccc1[O-] (3D coordinates assigned)
Cc1cc(Cc2sc(=O)[n-]c2[O-])ccc1OCCn1c([O-])ccc1[O-] (optimized conformer: 95.68188698615556 kcal/mol)

>  <smiles>  (15) 
Cc1cc(Cc2sc(=O)[nH]c2O)ccc1OCCn1c(O)ccc1O

>  <score_type>  (15) 
oracle

>  <origin>  (15) 
adg

>  <m_score__min__energy>  (15) 
-15.43

>  <m_primary>  (15) 
energy

$$$$
15:0
     RDKit          3D

 58 60  0  0  0  0  0  0  0  0999 V2000
   58.1460   25.8630   47.3640 C   0  0  0  0  0  0  0  0  0  0  0  0
   57.5120   25.7660   45.9800 C   0  0  0  0  0  0  0  0  0  0  0  0
   56.1190   26.3150   45.9860 C   0  0  0  0  0  0  0  0  0  0  0  0
   55.1620   25.5880   46.3660 O   0  0  0  0  0  0  0  0  0  0  0  0
   55.8980   27.6830   45.6230 N   0  0  0  0  0  0  0  0  0  0  0  0
   56.9070   28.6900   45.4640 C   0  0  0  0  0  0  0  0  0  0  0  0
   56.9710   29.3940   44.2590 C   0  0  0  0  0  0  0  0  0  0  0  0
   57.9150   30.4070   44.0820 C   0  0  0  0  0  0  0  0  0  0  0  0
   58.7970   30.7300   45.1150 C   0  0  0  0  0  0  0  0  0  0  0  0
   58.7500   30.0370   46.3320 C   0  0  0  0  0  0  0  0  0  0  0  0
   59.6360   30.4230   47.3950 N   0  0  0  0  0  0  0  0  0  0  0  0
   59.4090   30.1220   48.7830 C   0  0  0  0  0  0  0  0  0  0  0  0
   58.4970   29.3170   49.1180 O   0  0  0  0  0  0  0  0  0  0  0  0
   60.3030   30.7500   49.8340 C   0  0  1  0  0  0  0  0  0  0  0  0
   61.2830   31.7090   49.2760 N   0  0  0  0  0  0  0  0  0  0  0  0
   60.7160   33.0000   48.8480 C   0  0  0  0  0  0  0  0  0  0  0  0
   60.6780   33.0800   47.3430 C   0  0  0  0  0  0  0  0  0  0  0  0
   61.6970   32.7120   46.6950 O   0  0  0  0  0  0  0  0  0  0  0  0
   59.4980   33.5130   46.6300 N   0  0  0  0  0  0  0  0  0  0  0  0
   58.2120   33.6760   47.3210 C   0  0  0  0  0  0  0  0  0  0  0  0
   57.0480   33.5410   46.3320 C   0  0  0  0  0  0  0  0  0  0  0  0
   57.2440   34.3720   45.2050 O   0  0  0  0  0  0  0  0  0  0  0  0
   58.3700   33.9240   44.4780 C   0  0  0  0  0  0  0  0  0  0  0  0
   59.6500   34.1110   45.2960 C   0  0  0  0  0  0  0  0  0  0  0  0
   59.5440   31.3280   51.0250 C   0  0  0  0  0  0  0  0  0  0  0  0
   60.0980   31.1690   52.3090 C   0  0  0  0  0  0  0  0  0  0  0  0
   59.4590   31.6990   53.4340 C   0  0  0  0  0  0  0  0  0  0  0  0
   58.2640   32.4040   53.2920 C   0  0  0  0  0  0  0  0  0  0  0  0
   57.7090   32.5910   52.0240 C   0  0  0  0  0  0  0  0  0  0  0  0
   58.3410   32.0640   50.8920 C   0  0  0  0  0  0  0  0  0  0  0  0
   57.7700   32.2790   49.6820 F   0  0  0  0  0  0  0  0  0  0  0  0
   57.7820   29.0320   46.5110 C   0  0  0  0  0  0  0  0  0  0  0  0
   57.3683   25.7440   48.1327 H   0  0  0  0  0  0  0  0  0  0  0  0
   58.8993   25.0697   47.4786 H   0  0  0  0  0  0  0  0  0  0  0  0
   58.6276   26.8453   47.4786 H   0  0  0  0  0  0  0  0  0  0  0  0
   58.1209   26.3387   45.2649 H   0  0  0  0  0  0  0  0  0  0  0  0
   57.4688   24.7061   45.6888 H   0  0  0  0  0  0  0  0  0  0  0  0
   56.2733   29.1486   43.4448 H   0  0  0  0  0  0  0  0  0  0  0  0
   57.9640   30.9515   43.1275 H   0  0  0  0  0  0  0  0  0  0  0  0
   59.5339   31.5341   44.9725 H   0  0  0  0  0  0  0  0  0  0  0  0
   60.5440   30.8720   47.1380 H   0  0  0  0  0  0  0  0  0  0  0  0
   60.8877   29.9078   50.2325 H   0  0  0  0  0  0  0  0  0  0  0  0
   61.7750   31.2630   48.4660 H   0  0  0  0  0  0  0  0  0  0  0  0
   59.6938   33.0964   49.2427 H   0  0  0  0  0  0  0  0  0  0  0  0
   61.3467   33.8142   49.2344 H   0  0  0  0  0  0  0  0  0  0  0  0
   58.1182   32.9027   48.0977 H   0  0  0  0  0  0  0  0  0  0  0  0
   58.1775   34.6772   47.7753 H   0  0  0  0  0  0  0  0  0  0  0  0
   56.9772   32.4947   45.9999 H   0  0  0  0  0  0  0  0  0  0  0  0
   56.1203   33.8476   46.8374 H   0  0  0  0  0  0  0  0  0  0  0  0
   58.2456   32.8572   44.2405 H   0  0  0  0  0  0  0  0  0  0  0  0
   58.4517   34.5134   43.5528 H   0  0  0  0  0  0  0  0  0  0  0  0
   60.4877   33.6250   44.7743 H   0  0  0  0  0  0  0  0  0  0  0  0
   59.8476   35.1873   45.4081 H   0  0  0  0  0  0  0  0  0  0  0  0
   61.0445   30.6215   52.4288 H   0  0  0  0  0  0  0  0  0  0  0  0
   59.8993   31.5598   54.4324 H   0  0  0  0  0  0  0  0  0  0  0  0
   57.7583   32.8130   54.1791 H   0  0  0  0  0  0  0  0  0  0  0  0
   56.7710   33.1550   51.9146 H   0  0  0  0  0  0  0  0  0  0  0  0
   57.7088   28.5099   47.4765 H   0  0  0  0  0  0  0  0  0  0  0  0
  1  2  1  0
  2  3  1  0
  3  4  2  0
  3  5  1  0
  5  6  1  0
  6  7  2  0
  7  8  1  0
  8  9  2  0
  9 10  1  0
 10 11  1  0
 11 12  1  0
 12 13  2  0
 12 14  1  0
 14 15  1  0
 15 16  1  0
 16 17  1  0
 17 18  2  0
 17 19  1  0
 19 20  1  0
 20 21  1  0
 21 22  1  0
 22 23  1  0
 23 24  1  0
 14 25  1  0
 25 26  2  0
 26 27  1  0
 27 28  2  0
 28 29  1  0
 29 30  2  0
 30 31  1  0
 10 32  2  0
 32  6  1  0
 24 19  1  0
 30 25  1  0
  1 33  1  0
  1 34  1  0
  1 35  1  0
  2 36  1  0
  2 37  1  0
  7 38  1  0
  8 39  1  0
  9 40  1  0
 11 41  1  0
 14 42  1  1
 15 43  1  0
 16 44  1  0
 16 45  1  0
 20 46  1  0
 20 47  1  0
 21 48  1  0
 21 49  1  0
 23 50  1  0
 23 51  1  0
 24 52  1  0
 24 53  1  0
 26 54  1  0
 27 55  1  0
 28 56  1  0
 29 57  1  0
 32 58  1  0
M  CHG  1   5  -1
M  END
>  <UniqueID>  (16) 
13

>  <SMILES>  (16) 
CCC(=O)[N-]c1cccc(NC(=O)[C@@H](NCC(=O)N2CCOCC2)c2ccccc2F)c1

>  <Energy>  (16) 
68.533501166183

>  <Genealogy>  (16) 
CCC(=O)[N-]c1cccc(NC(=O)C(NCC(=O)N2CCOCC2)c2ccccc2F)c1 (protonated)
CCC(=O)[N-]c1cccc(NC(=O)[C@@H](NCC(=O)N2CCOCC2)c2ccccc2F)c1 (chirality)
CCC(=O)[N-]c1cccc(NC(=O)[C@@H](NCC(=O)N2CCOCC2)c2ccccc2F)c1 (3D coordinates assigned)
CCC(=O)[N-]c1cccc(NC(=O)[C@@H](NCC(=O)N2CCOCC2)c2ccccc2F)c1 (nonaromatic ring conformer: 68.533501166183 kcal/mol)

>  <smiles>  (16) 
CCC(=O)Nc1cccc(NC(=O)C(NCC(=O)N2CCOCC2)c2ccccc2F)c1

>  <score_type>  (16) 
oracle

>  <origin>  (16) 
adg

>  <m_score__min__energy>  (16) 
-10.49

>  <m_primary>  (16) 
energy

$$$$
16:0
     RDKit          3D

 45 46  0  0  0  0  0  0  0  0999 V2000
   60.5700   28.1770   49.4450 C   0  0  0  0  0  0  0  0  0  0  0  0
   59.7920   28.8980   48.4950 O   0  0  0  0  0  0  0  0  0  0  0  0
   60.0580   30.2150   48.0870 C   0  0  0  0  0  0  0  0  0  0  0  0
   59.0350   31.1540   47.8600 C   0  0  0  0  0  0  0  0  0  0  0  0
   59.3470   32.4570   47.4440 C   0  0  0  0  0  0  0  0  0  0  0  0
   58.2520   33.4670   47.2410 C   0  0  0  0  0  0  0  0  0  0  0  0
   57.3940   33.0400   46.1280 N   0  0  0  0  0  0  0  0  0  0  0  0
   57.7880   33.6540   44.8510 C   0  0  0  0  0  0  0  0  0  0  0  0
   57.8280   32.6390   43.6960 C   0  0  0  0  0  0  0  0  0  0  0  0
   57.6820   31.2360   44.2240 C   0  0  0  0  0  0  0  0  0  0  0  0
   58.8090   30.5200   44.6540 C   0  0  0  0  0  0  0  0  0  0  0  0
   58.6780   29.2060   45.1130 C   0  0  0  0  0  0  0  0  0  0  0  0
   57.4190   28.5880   45.1320 C   0  0  0  0  0  0  0  0  0  0  0  0
   57.2540   26.9380   45.7240 S   0  0  0  0  0  0  0  0  0  0  0  0
   55.5830   26.5790   45.9740 N   0  0  0  0  0  0  0  0  0  0  0  0
   58.0020   26.7850   47.0190 O   0  0  0  0  0  0  0  0  0  0  0  0
   57.8270   25.9780   44.7210 O   0  0  0  0  0  0  0  0  0  0  0  0
   56.2920   29.2990   44.6980 C   0  0  0  0  0  0  0  0  0  0  0  0
   56.4230   30.6130   44.2380 C   0  0  0  0  0  0  0  0  0  0  0  0
   60.6900   32.8270   47.2840 C   0  0  0  0  0  0  0  0  0  0  0  0
   61.7170   31.9060   47.5060 C   0  0  0  0  0  0  0  0  0  0  0  0
   63.0420   32.3280   47.3220 O   0  0  0  0  0  0  0  0  0  0  0  0
   63.4180   33.5840   46.7670 C   0  0  0  0  0  0  0  0  0  0  0  0
   61.3920   30.5950   47.9050 C   0  0  0  0  0  0  0  0  0  0  0  0
   60.2628   28.4617   50.4622 H   0  0  0  0  0  0  0  0  0  0  0  0
   60.4136   27.0974   49.3034 H   0  0  0  0  0  0  0  0  0  0  0  0
   61.6346   28.4149   49.3034 H   0  0  0  0  0  0  0  0  0  0  0  0
   57.9843   30.8647   48.0096 H   0  0  0  0  0  0  0  0  0  0  0  0
   57.6506   33.5456   48.1587 H   0  0  0  0  0  0  0  0  0  0  0  0
   58.6947   34.4468   47.0085 H   0  0  0  0  0  0  0  0  0  0  0  0
   56.4010   33.2930   46.3450 H   0  0  0  0  0  0  0  0  0  0  0  0
   57.0643   34.4439   44.6014 H   0  0  0  0  0  0  0  0  0  0  0  0
   58.8031   34.0593   44.9746 H   0  0  0  0  0  0  0  0  0  0  0  0
   57.0043   32.8512   42.9985 H   0  0  0  0  0  0  0  0  0  0  0  0
   58.7944   32.7263   43.1779 H   0  0  0  0  0  0  0  0  0  0  0  0
   59.8009   30.9949   44.6299 H   0  0  0  0  0  0  0  0  0  0  0  0
   59.5647   28.6553   45.4602 H   0  0  0  0  0  0  0  0  0  0  0  0
   55.1410   27.4390   46.3680 H   0  0  0  0  0  0  0  0  0  0  0  0
   55.3011   28.8219   44.7193 H   0  0  0  0  0  0  0  0  0  0  0  0
   55.5367   31.1610   43.8857 H   0  0  0  0  0  0  0  0  0  0  0  0
   60.9380   33.8547   46.9801 H   0  0  0  0  0  0  0  0  0  0  0  0
   63.6308   34.2948   47.5791 H   0  0  0  0  0  0  0  0  0  0  0  0
   64.3173   33.4562   46.1465 H   0  0  0  0  0  0  0  0  0  0  0  0
   62.5964   33.9714   46.1465 H   0  0  0  0  0  0  0  0  0  0  0  0
   62.1950   29.8627   48.0752 H   0  0  0  0  0  0  0  0  0  0  0  0
  1  2  1  0
  2  3  1  0
  3  4  2  0
  4  5  1  0
  5  6  1  0
  6  7  1  0
  7  8  1  0
  8  9  1  0
  9 10  1  0
 10 11  2  0
 11 12  1  0
 12 13  2  0
 13 14  1  0
 14 15  1  0
 14 16  2  0
 14 17  2  0
 13 18  1  0
 18 19  2  0
  5 20  2  0
 20 21  1  0
 21 22  1  0
 22 23  1  0
 21 24  2  0
 24  3  1  0
 19 10  1  0
  1 25  1  0
  1 26  1  0
  1 27  1  0
  4 28  1  0
  6 29  1  0
  6 30  1  0
  7 31  1  0
  8 32  1  0
  8 33  1  0
  9 34  1  0
  9 35  1  0
 11 36  1  0
 12 37  1  0
 15 38  1  0
 18 39  1  0
 19 40  1  0
 20 41  1  0
 23 42  1  0
 23 43  1  0
 23 44  1  0
 24 45  1  0
M  CHG  1  15  -1
M  END
>  <UniqueID>  (17) 
14

>  <SMILES>  (17) 
COc1cc(CNCCc2ccc(S([NH-])(=O)=O)cc2)cc(OC)c1

>  <Energy>  (17) 
40.78196671798004

>  <Genealogy>  (17) 
COc1cc(CNCCc2ccc(S([NH-])(=O)=O)cc2)cc(OC)c1 (protonated)
COc1cc(CNCCc2ccc(S([NH-])(=O)=O)cc2)cc(OC)c1 (3D coordinates assigned)
COc1cc(CNCCc2ccc(S([NH-])(=O)=O)cc2)cc(OC)c1 (optimized conformer: 40.78196671798004 kcal/mol)

>  <smiles>  (17) 
COc1cc(CNCCc2ccc(S(N)(=O)=O)cc2)cc(OC)c1

>  <score_type>  (17) 
oracle

>  <origin>  (17) 
adg

>  <m_score__min__energy>  (17) 
-10.24

>  <m_primary>  (17) 
energy

$$$$
17:0
     RDKit          3D

 39 40  0  0  0  0  0  0  0  0999 V2000
   59.7220   31.9270   52.4360 C   0  0  0  0  0  0  0  0  0  0  0  0
   59.4830   33.2280   51.2440 S   0  0  0  0  0  0  0  0  0  0  0  0
   58.5750   32.7240   50.1590 O   0  0  0  0  0  0  0  0  0  0  0  0
   58.8440   34.4230   51.8920 O   0  0  0  0  0  0  0  0  0  0  0  0
   61.0020   33.6760   50.5370 N   0  0  0  0  0  0  0  0  0  0  0  0
   61.2940   33.7260   49.1330 C   0  0  0  0  0  0  0  0  0  0  0  0
   62.4530   33.1450   48.5890 C   0  0  0  0  0  0  0  0  0  0  0  0
   62.7010   33.2230   47.2170 C   0  0  0  0  0  0  0  0  0  0  0  0
   61.8000   33.8750   46.3750 C   0  0  0  0  0  0  0  0  0  0  0  0
   60.6290   34.4470   46.8960 C   0  0  0  0  0  0  0  0  0  0  0  0
   59.6690   35.1560   45.9720 C   0  0  0  0  0  0  0  0  0  0  0  0
   58.3640   34.4920   45.9660 N   0  0  0  0  0  0  0  0  0  0  0  0
   58.1700   33.0790   45.7560 C   0  0  0  0  0  0  0  0  0  0  0  0
   57.5820   32.6410   44.5590 C   0  0  0  0  0  0  0  0  0  0  0  0
   57.3880   31.2780   44.3190 C   0  0  0  0  0  0  0  0  0  0  0  0
   57.7670   30.3280   45.2790 C   0  0  0  0  0  0  0  0  0  0  0  0
   57.5920   28.8600   45.0060 C   0  0  0  0  0  0  0  0  0  0  0  0
   56.1620   28.4700   45.1980 C   0  0  0  0  0  0  0  0  0  0  0  0
   55.8710   27.3430   45.6760 O   0  0  0  0  0  0  0  0  0  0  0  0
   55.1490   29.3720   44.8940 O   0  0  0  0  0  0  0  0  0  0  0  0
   58.3610   30.7610   46.4750 C   0  0  0  0  0  0  0  0  0  0  0  0
   58.5540   32.1240   46.7160 C   0  0  0  0  0  0  0  0  0  0  0  0
   60.3900   34.3830   48.2830 C   0  0  0  0  0  0  0  0  0  0  0  0
   59.2790   34.9560   48.8150 F   0  0  0  0  0  0  0  0  0  0  0  0
   59.6458   32.3419   53.4519 H   0  0  0  0  0  0  0  0  0  0  0  0
   58.9506   31.1554   52.2962 H   0  0  0  0  0  0  0  0  0  0  0  0
   60.7173   31.4800   52.2962 H   0  0  0  0  0  0  0  0  0  0  0  0
   63.1669   32.6272   49.2464 H   0  0  0  0  0  0  0  0  0  0  0  0
   63.6109   32.7683   46.7983 H   0  0  0  0  0  0  0  0  0  0  0  0
   62.0084   33.9412   45.2969 H   0  0  0  0  0  0  0  0  0  0  0  0
   59.5431   36.1948   46.3113 H   0  0  0  0  0  0  0  0  0  0  0  0
   60.0803   35.1325   44.9521 H   0  0  0  0  0  0  0  0  0  0  0  0
   57.5220   35.0980   46.0850 H   0  0  0  0  0  0  0  0  0  0  0  0
   57.2711   33.3772   43.8031 H   0  0  0  0  0  0  0  0  0  0  0  0
   56.9356   30.9483   43.3721 H   0  0  0  0  0  0  0  0  0  0  0  0
   57.8923   28.6440   43.9701 H   0  0  0  0  0  0  0  0  0  0  0  0
   58.2191   28.2862   45.7042 H   0  0  0  0  0  0  0  0  0  0  0  0
   58.6765   30.0229   47.2271 H   0  0  0  0  0  0  0  0  0  0  0  0
   59.0090   32.4526   47.6621 H   0  0  0  0  0  0  0  0  0  0  0  0
  1  2  1  0
  2  3  2  0
  2  4  2  0
  2  5  1  0
  5  6  1  0
  6  7  2  0
  7  8  1  0
  8  9  2  0
  9 10  1  0
 10 11  1  0
 11 12  1  0
 12 13  1  0
 13 14  2  0
 14 15  1  0
 15 16  2  0
 16 17  1  0
 17 18  1  0
 18 19  2  0
 18 20  1  0
 16 21  1  0
 21 22  2  0
 10 23  2  0
 23 24  1  0
 23  6  1  0
 22 13  1  0
  1 25  1  0
  1 26  1  0
  1 27  1  0
  7 28  1  0
  8 29  1  0
  9 30  1  0
 11 31  1  0
 11 32  1  0
 12 33  1  0
 14 34  1  0
 15 35  1  0
 17 36  1  0
 17 37  1  0
 21 38  1  0
 22 39  1  0
M  CHG  2   5  -1  20  -1
M  END
>  <UniqueID>  (18) 
15

>  <SMILES>  (18) 
CS(=O)(=O)[N-]c1cccc(CNc2ccc(CC(=O)[O-])cc2)c1F

>  <Energy>  (18) 
36.4953956040789

>  <Genealogy>  (18) 
CS(=O)(=O)[N-]c1cccc(CNc2ccc(CC(=O)[O-])cc2)c1F (protonated)
CS(=O)(=O)[N-]c1cccc(CNc2ccc(CC(=O)[O-])cc2)c1F (3D coordinates assigned)
CS(=O)(=O)[N-]c1cccc(CNc2ccc(CC(=O)[O-])cc2)c1F (optimized conformer: 36.4953956040789 kcal/mol)

>  <smiles>  (18) 
CS(=O)(=O)Nc1cccc(CNc2ccc(CC(=O)O)cc2)c1F

>  <score_type>  (18) 
oracle

>  <origin>  (18) 
adg

>  <m_score__min__energy>  (18) 
-11.67

>  <m_primary>  (18) 
energy

$$$$
18:0
     RDKit          3D

 44 45  0  0  0  0  0  0  0  0999 V2000
   56.6560   24.3170   43.9610 C   0  0  0  0  0  0  0  0  0  0  0  0
   55.9320   24.0510   45.0460 C   0  0  0  0  0  0  0  0  0  0  0  0
   55.5410   25.0900   46.0110 C   0  0  0  0  0  0  0  0  0  0  0  0
   54.5470   25.8360   45.7880 O   0  0  0  0  0  0  0  0  0  0  0  0
   56.2900   25.2410   47.1830 O   0  0  0  0  0  0  0  0  0  0  0  0
   57.6780   25.5700   47.1870 C   0  0  0  0  0  0  0  0  0  0  0  0
   57.9240   26.8080   46.3800 C   0  0  0  0  0  0  0  0  0  0  0  0
   59.0650   27.0110   45.8850 O   0  0  0  0  0  0  0  0  0  0  0  0
   56.8490   27.7280   46.1350 N   0  0  0  0  0  0  0  0  0  0  0  0
   57.0430   29.0880   45.7110 C   0  0  0  0  0  0  0  0  0  0  0  0
   58.1380   29.8410   46.1740 C   0  0  0  0  0  0  0  0  0  0  0  0
   58.2980   31.1770   45.7840 C   0  0  0  0  0  0  0  0  0  0  0  0
   59.6530   32.1290   46.3840 S   0  0  0  0  0  0  0  0  0  0  0  0
   60.8960   31.2880   46.4540 O   0  0  0  0  0  0  0  0  0  0  0  0
   59.8900   33.2660   45.4290 O   0  0  0  0  0  0  0  0  0  0  0  0
   59.2810   32.7440   47.9690 N   0  0  0  0  0  0  0  0  0  0  0  0
   59.2850   34.1910   48.1890 C   0  0  0  0  0  0  0  0  0  0  0  0
   58.9450   31.8480   49.0450 C   0  0  0  0  0  0  0  0  0  0  0  0
   58.1420   32.2860   50.1150 C   0  0  0  0  0  0  0  0  0  0  0  0
   57.8230   31.4170   51.1620 C   0  0  0  0  0  0  0  0  0  0  0  0
   58.3040   30.1060   51.1570 C   0  0  0  0  0  0  0  0  0  0  0  0
   59.1090   29.6620   50.1050 C   0  0  0  0  0  0  0  0  0  0  0  0
   59.4310   30.5270   49.0560 C   0  0  0  0  0  0  0  0  0  0  0  0
   57.3490   31.7740   44.9450 C   0  0  0  0  0  0  0  0  0  0  0  0
   56.2500   31.0400   44.4950 C   0  0  0  0  0  0  0  0  0  0  0  0
   56.0920   29.7040   44.8780 C   0  0  0  0  0  0  0  0  0  0  0  0
   54.9880   28.9910   44.4210 O   0  0  0  0  0  0  0  0  0  0  0  0
   56.9248   23.5070   43.2670 H   0  0  0  0  0  0  0  0  0  0  0  0
   56.9855   25.3468   43.7585 H   0  0  0  0  0  0  0  0  0  0  0  0
   55.6138   23.0139   45.2280 H   0  0  0  0  0  0  0  0  0  0  0  0
   58.0068   25.7412   48.2226 H   0  0  0  0  0  0  0  0  0  0  0  0
   58.2433   24.7370   46.7435 H   0  0  0  0  0  0  0  0  0  0  0  0
   55.8710   27.3780   46.2610 H   0  0  0  0  0  0  0  0  0  0  0  0
   58.8739   29.3770   46.8472 H   0  0  0  0  0  0  0  0  0  0  0  0
   59.2856   34.3976   49.2694 H   0  0  0  0  0  0  0  0  0  0  0  0
   60.1844   34.6290   47.7315 H   0  0  0  0  0  0  0  0  0  0  0  0
   58.3881   34.6339   47.7315 H   0  0  0  0  0  0  0  0  0  0  0  0
   57.7632   33.3187   50.1271 H   0  0  0  0  0  0  0  0  0  0  0  0
   57.1915   31.7666   51.9921 H   0  0  0  0  0  0  0  0  0  0  0  0
   58.0492   29.4232   51.9810 H   0  0  0  0  0  0  0  0  0  0  0  0
   59.4898   28.6300   50.1025 H   0  0  0  0  0  0  0  0  0  0  0  0
   60.0690   30.1731   48.2327 H   0  0  0  0  0  0  0  0  0  0  0  0
   57.4698   32.8239   44.6398 H   0  0  0  0  0  0  0  0  0  0  0  0
   55.5062   31.5136   43.8374 H   0  0  0  0  0  0  0  0  0  0  0  0
  1  2  2  0
  2  3  1  0
  3  4  2  0
  3  5  1  0
  5  6  1  0
  6  7  1  0
  7  8  2  0
  7  9  1  0
  9 10  1  0
 10 11  2  0
 11 12  1  0
 12 13  1  0
 13 14  2  0
 13 15  2  0
 13 16  1  0
 16 17  1  0
 16 18  1  0
 18 19  2  0
 19 20  1  0
 20 21  2  0
 21 22  1  0
 22 23  2  0
 12 24  2  0
 24 25  1  0
 25 26  2  0
 26 27  1  0
 26 10  1  0
 23 18  1  0
  1 28  1  0
  1 29  1  0
  2 30  1  0
  6 31  1  0
  6 32  1  0
  9 33  1  0
 11 34  1  0
 17 35  1  0
 17 36  1  0
 17 37  1  0
 19 38  1  0
 20 39  1  0
 21 40  1  0
 22 41  1  0
 23 42  1  0
 24 43  1  0
 25 44  1  0
M  CHG  1  27  -1
M  END
>  <UniqueID>  (19) 
16

>  <SMILES>  (19) 
C=CC(=O)OCC(=O)Nc1cc(S(=O)(=O)N(C)c2ccccc2)ccc1[O-]

>  <Energy>  (19) 
47.766766559301935

>  <Genealogy>  (19) 
C=CC(=O)OCC(=O)Nc1cc(S(=O)(=O)N(C)c2ccccc2)ccc1[O-] (protonated)
C=CC(=O)OCC(=O)Nc1cc(S(=O)(=O)N(C)c2ccccc2)ccc1[O-] (3D coordinates assigned)
C=CC(=O)OCC(=O)Nc1cc(S(=O)(=O)N(C)c2ccccc2)ccc1[O-] (optimized conformer: 47.766766559301935 kcal/mol)

>  <smiles>  (19) 
C=CC(=O)OCC(=O)Nc1cc(S(=O)(=O)N(C)c2ccccc2)ccc1O

>  <score_type>  (19) 
oracle

>  <origin>  (19) 
adg

>  <m_score__min__energy>  (19) 
-10.43

>  <m_primary>  (19) 
energy

$$$$
19:0
     RDKit          3D

 28 29  0  0  0  0  0  0  0  0999 V2000
   55.1550   29.3240   44.7480 N   0  0  0  0  0  0  0  0  0  0  0  0
   56.8150   29.0060   45.1120 S   0  0  0  0  0  0  0  0  0  0  0  0
   57.6010   28.9240   43.8350 O   0  0  0  0  0  0  0  0  0  0  0  0
   57.3490   30.1300   45.9560 O   0  0  0  0  0  0  0  0  0  0  0  0
   56.9540   27.4820   45.9830 C   0  0  0  0  0  0  0  0  0  0  0  0
   58.0880   27.2120   46.7610 C   0  0  0  0  0  0  0  0  0  0  0  0
   58.1990   25.9980   47.4470 C   0  0  0  0  0  0  0  0  0  0  0  0
   57.1750   25.0470   47.3710 C   0  0  0  0  0  0  0  0  0  0  0  0
   57.3270   23.8060   48.0770 N   0  0  0  0  0  0  0  0  0  0  0  0
   57.0130   22.5010   47.5700 C   0  0  0  0  0  0  0  0  0  0  0  0
   56.8350   21.5640   48.3940 O   0  0  0  0  0  0  0  0  0  0  0  0
   56.8400   22.2390   46.1220 C   0  0  0  0  0  0  0  0  0  0  0  0
   57.9420   21.9660   45.2950 C   0  0  0  0  0  0  0  0  0  0  0  0
   57.7540   21.7260   43.9340 C   0  0  0  0  0  0  0  0  0  0  0  0
   56.4640   21.7720   43.4020 C   0  0  0  0  0  0  0  0  0  0  0  0
   56.2750   21.5570   42.1760 O   0  0  0  0  0  0  0  0  0  0  0  0
   55.4070   22.0530   44.2090 N   0  0  0  0  0  0  0  0  0  0  0  0
   55.5630   22.2890   45.5390 C   0  0  0  0  0  0  0  0  0  0  0  0
   56.0520   25.3060   46.5650 C   0  0  0  0  0  0  0  0  0  0  0  0
   55.9420   26.5190   45.8800 C   0  0  0  0  0  0  0  0  0  0  0  0
   54.6450   29.3560   45.6590 H   0  0  0  0  0  0  0  0  0  0  0  0
   58.8937   27.9575   46.8325 H   0  0  0  0  0  0  0  0  0  0  0  0
   59.0956   25.7897   48.0492 H   0  0  0  0  0  0  0  0  0  0  0  0
   58.9556   21.9414   45.7217 H   0  0  0  0  0  0  0  0  0  0  0  0
   58.6141   21.5025   43.2857 H   0  0  0  0  0  0  0  0  0  0  0  0
   54.6856   22.5200   46.1609 H   0  0  0  0  0  0  0  0  0  0  0  0
   55.2573   24.5510   46.4735 H   0  0  0  0  0  0  0  0  0  0  0  0
   55.0573   26.7184   45.2575 H   0  0  0  0  0  0  0  0  0  0  0  0
  1  2  1  0
  2  3  2  0
  2  4  2  0
  2  5  1  0
  5  6  2  0
  6  7  1  0
  7  8  2  0
  8  9  1  0
  9 10  1  0
 10 11  2  0
 10 12  1  0
 12 13  1  0
 13 14  2  0
 14 15  1  0
 15 16  2  0
 15 17  1  0
 17 18  1  0
  8 19  1  0
 19 20  2  0
 20  5  1  0
 18 12  2  0
  1 21  1  0
  6 22  1  0
  7 23  1  0
 13 24  1  0
 14 25  1  0
 18 26  1  0
 19 27  1  0
 20 28  1  0
M  CHG  3   1  -1   9  -1  17  -1
M  END
>  <UniqueID>  (20) 
17

>  <SMILES>  (20) 
[NH-]S(=O)(=O)c1ccc([N-]C(=O)c2ccc(=O)[n-]c2)cc1

>  <Energy>  (20) 
36.344690317815775

>  <Genealogy>  (20) 
[NH-]S(=O)(=O)c1ccc([N-]C(=O)c2ccc(=O)[n-]c2)cc1 (protonated)
[NH-]S(=O)(=O)c1ccc([N-]C(=O)c2ccc(=O)[n-]c2)cc1 (3D coordinates assigned)
[NH-]S(=O)(=O)c1ccc([N-]C(=O)c2ccc(=O)[n-]c2)cc1 (optimized conformer: 36.344690317815775 kcal/mol)

>  <smiles>  (20) 
NS(=O)(=O)c1ccc(NC(=O)c2ccc(=O)[nH]c2)cc1

>  <score_type>  (20) 
oracle

>  <origin>  (20) 
adg

>  <m_score__min__energy>  (20) 
-11.970000000000001

>  <m_primary>  (20) 
energy

$$$$
20:0
     RDKit          3D

 44 46  0  0  0  0  0  0  0  0999 V2000
   59.6500   28.1880   44.6070 C   0  0  0  0  0  0  0  0  0  0  0  0
   58.5100   27.2090   44.8520 C   0  0  0  0  0  0  0  0  0  0  0  0
   57.3800   27.8000   46.1050 S   0  0  0  0  0  0  0  0  0  0  0  0
   57.9430   27.5800   47.4810 O   0  0  0  0  0  0  0  0  0  0  0  0
   56.1070   27.0110   45.9910 O   0  0  0  0  0  0  0  0  0  0  0  0
   56.9990   29.4750   45.8520 N   0  0  0  0  0  0  0  0  0  0  0  0
   57.0780   30.2270   44.6280 C   0  0  0  0  0  0  0  0  0  0  0  0
   56.5220   29.7490   43.4260 C   0  0  0  0  0  0  0  0  0  0  0  0
   56.6540   30.4790   42.2430 C   0  0  0  0  0  0  0  0  0  0  0  0
   57.3440   31.6900   42.2390 C   0  0  0  0  0  0  0  0  0  0  0  0
   57.5110   32.6010   40.7490 Cl  0  0  0  0  0  0  0  0  0  0  0  0
   57.8990   32.1810   43.4230 C   0  0  0  0  0  0  0  0  0  0  0  0
   57.7640   31.4640   44.6250 C   0  0  0  0  0  0  0  0  0  0  0  0
   58.3470   32.0260   45.8680 C   0  0  0  0  0  0  0  0  0  0  0  0
   59.3490   31.3310   46.5630 C   0  0  0  0  0  0  0  0  0  0  0  0
   59.8900   31.8580   47.7390 C   0  0  0  0  0  0  0  0  0  0  0  0
   59.4360   33.0880   48.2470 C   0  0  0  0  0  0  0  0  0  0  0  0
   60.0130   33.6490   49.4920 C   0  0  0  0  0  0  0  0  0  0  0  0
   60.9810   34.4540   49.4220 O   0  0  0  0  0  0  0  0  0  0  0  0
   59.5230   33.2060   50.7700 N   0  0  0  0  0  0  0  0  0  0  0  0
   58.7820   32.1700   51.0560 C   0  0  0  0  0  0  0  0  0  0  0  0
   57.5410   32.3950   51.6680 C   0  0  0  0  0  0  0  0  0  0  0  0
   56.7180   31.3160   51.9960 C   0  0  0  0  0  0  0  0  0  0  0  0
   57.1240   30.0460   51.7370 N   0  0  0  0  0  0  0  0  0  0  0  0
   58.3270   29.7880   51.1620 C   0  0  0  0  0  0  0  0  0  0  0  0
   59.1830   30.8380   50.8150 C   0  0  0  0  0  0  0  0  0  0  0  0
   58.4260   33.7770   47.5510 C   0  0  0  0  0  0  0  0  0  0  0  0
   57.8850   33.2490   46.3760 C   0  0  0  0  0  0  0  0  0  0  0  0
   60.0512   28.5325   45.5716 H   0  0  0  0  0  0  0  0  0  0  0  0
   60.4464   27.6880   44.0362 H   0  0  0  0  0  0  0  0  0  0  0  0
   59.2761   29.0508   44.0362 H   0  0  0  0  0  0  0  0  0  0  0  0
   57.9559   27.0663   43.9125 H   0  0  0  0  0  0  0  0  0  0  0  0
   58.9444   26.2619   45.2046 H   0  0  0  0  0  0  0  0  0  0  0  0
   55.9790   28.7924   43.4188 H   0  0  0  0  0  0  0  0  0  0  0  0
   56.2119   30.0970   41.3110 H   0  0  0  0  0  0  0  0  0  0  0  0
   58.4457   33.1355   43.4151 H   0  0  0  0  0  0  0  0  0  0  0  0
   59.7108   30.3655   46.1797 H   0  0  0  0  0  0  0  0  0  0  0  0
   60.6780   31.3056   48.2719 H   0  0  0  0  0  0  0  0  0  0  0  0
   57.2156   33.4221   51.8899 H   0  0  0  0  0  0  0  0  0  0  0  0
   55.7391   31.4947   52.4650 H   0  0  0  0  0  0  0  0  0  0  0  0
   58.6295   28.7483   50.9683 H   0  0  0  0  0  0  0  0  0  0  0  0
   60.1611   30.6277   50.3578 H   0  0  0  0  0  0  0  0  0  0  0  0
   58.0589   34.7401   47.9353 H   0  0  0  0  0  0  0  0  0  0  0  0
   57.0915   33.7961   45.8458 H   0  0  0  0  0  0  0  0  0  0  0  0
  1  2  1  0
  2  3  1  0
  3  4  2  0
  3  5  2  0
  3  6  1  0
  6  7  1  0
  7  8  2  0
  8  9  1  0
  9 10  2  0
 10 11  1  0
 10 12  1  0
 12 13  2  0
 13 14  1  0
 14 15  2  0
 15 16  1  0
 16 17  2  0
 17 18  1  0
 18 19  2  0
 18 20  1  0
 20 21  2  3
 21 22  1  0
 22 23  2  0
 23 24  1  0
 24 25  1  0
 25 26  2  0
 17 27  1  0
 27 28  2  0
 13  7  1  0
 28 14  1  0
 26 21  1  0
  1 29  1  0
  1 30  1  0
  1 31  1  0
  2 32  1  0
  2 33  1  0
  8 34  1  0
  9 35  1  0
 12 36  1  0
 15 37  1  0
 16 38  1  0
 22 39  1  0
 23 40  1  0
 25 41  1  0
 26 42  1  0
 27 43  1  0
 28 44  1  0
M  CHG  2   6  -1  24  -1
M  END
>  <UniqueID>  (21) 
18

>  <SMILES>  (21) 
CCS(=O)(=O)[N-]c1ccc(Cl)cc1-c1ccc(C(=O)N=c2cc[n-]cc2)cc1

>  <Energy>  (21) 
60.204841186232684

>  <Genealogy>  (21) 
CCS(=O)(=O)[N-]c1ccc(Cl)cc1-c1ccc(C(=O)N=c2cc[n-]cc2)cc1 (protonated)
CCS(=O)(=O)[N-]c1ccc(Cl)cc1-c1ccc(C(=O)N=c2cc[n-]cc2)cc1 (3D coordinates assigned)
CCS(=O)(=O)[N-]c1ccc(Cl)cc1-c1ccc(C(=O)N=c2cc[n-]cc2)cc1 (optimized conformer: 60.204841186232684 kcal/mol)

>  <smiles>  (21) 
CCS(=O)(=O)Nc1ccc(Cl)cc1-c1ccc(C(=O)N=c2cc[nH]cc2)cc1

>  <score_type>  (21) 
oracle

>  <origin>  (21) 
adg

>  <m_score__min__energy>  (21) 
-11.630000000000001

>  <m_primary>  (21) 
energy

$$$$
21:0
     RDKit          3D

 54 56  0  0  0  0  0  0  0  0999 V2000
   57.8810   30.1150   51.4660 C   0  0  0  0  0  0  0  0  0  0  0  0
   58.7240   31.1460   50.7650 C   0  0  0  0  0  0  0  0  0  0  0  0
   58.8190   32.4380   51.3000 C   0  0  0  0  0  0  0  0  0  0  0  0
   59.5890   33.4110   50.6650 C   0  0  0  0  0  0  0  0  0  0  0  0
   60.2750   33.0940   49.4820 C   0  0  0  0  0  0  0  0  0  0  0  0
   61.1380   34.1070   48.8150 C   0  0  0  0  0  0  0  0  0  0  0  0
   62.1300   34.5660   49.4440 O   0  0  0  0  0  0  0  0  0  0  0  0
   60.9180   34.5910   47.4800 N   0  0  0  0  0  0  0  0  0  0  0  0
   59.6540   34.9350   46.8300 C   0  0  0  0  0  0  0  0  0  0  0  0
   58.9730   33.7420   46.1980 C   0  0  0  0  0  0  0  0  0  0  0  0
   57.7010   33.8330   45.6020 C   0  0  0  0  0  0  0  0  0  0  0  0
   57.1280   32.7130   44.9910 C   0  0  0  0  0  0  0  0  0  0  0  0
   57.8030   31.4860   44.9880 C   0  0  0  0  0  0  0  0  0  0  0  0
   57.0900   30.0970   44.1760 S   0  0  0  0  0  0  0  0  0  0  0  0
   56.6410   30.5460   42.5150 C   0  0  0  0  0  0  0  0  0  0  0  0
   58.0730   28.9600   44.1270 O   0  0  0  0  0  0  0  0  0  0  0  0
   55.8680   29.6500   44.9290 O   0  0  0  0  0  0  0  0  0  0  0  0
   59.0470   31.3800   45.6230 C   0  0  0  0  0  0  0  0  0  0  0  0
   59.6210   32.4970   46.2340 C   0  0  0  0  0  0  0  0  0  0  0  0
   60.1760   31.8340   48.9870 N   0  0  0  0  0  0  0  0  0  0  0  0
   59.4490   30.8530   49.5880 C   0  0  0  0  0  0  0  0  0  0  0  0
   59.4660   29.5080   48.9810 C   0  0  0  0  0  0  0  0  0  0  0  0
   60.4750   28.5910   49.3090 C   0  0  0  0  0  0  0  0  0  0  0  0
   60.5200   27.3460   48.6800 C   0  0  0  0  0  0  0  0  0  0  0  0
   59.5710   27.0130   47.7090 C   0  0  0  0  0  0  0  0  0  0  0  0
   58.5670   27.9310   47.3520 C   0  0  0  0  0  0  0  0  0  0  0  0
   57.5880   27.6320   46.3420 N   0  0  0  0  0  0  0  0  0  0  0  0
   56.7460   26.1190   46.2180 S   0  0  0  0  0  0  0  0  0  0  0  0
   57.3330   25.2010   44.8100 C   0  0  0  0  0  0  0  0  0  0  0  0
   55.2810   26.3940   46.0290 O   0  0  0  0  0  0  0  0  0  0  0  0
   56.9310   25.3220   47.4770 O   0  0  0  0  0  0  0  0  0  0  0  0
   58.5180   29.1740   48.0030 C   0  0  0  0  0  0  0  0  0  0  0  0
   57.9814   30.2378   52.5545 H   0  0  0  0  0  0  0  0  0  0  0  0
   56.8274   30.2453   51.1779 H   0  0  0  0  0  0  0  0  0  0  0  0
   58.2180   29.1083   51.1779 H   0  0  0  0  0  0  0  0  0  0  0  0
   58.2821   32.6859   52.2275 H   0  0  0  0  0  0  0  0  0  0  0  0
   59.6589   34.4235   51.0893 H   0  0  0  0  0  0  0  0  0  0  0  0
   58.9782   35.3666   47.5831 H   0  0  0  0  0  0  0  0  0  0  0  0
   59.8807   35.6500   46.0254 H   0  0  0  0  0  0  0  0  0  0  0  0
   57.1558   34.7883   45.6169 H   0  0  0  0  0  0  0  0  0  0  0  0
   56.1421   32.7963   44.5103 H   0  0  0  0  0  0  0  0  0  0  0  0
   55.8634   31.3236   42.5428 H   0  0  0  0  0  0  0  0  0  0  0  0
   57.5260   30.9312   41.9873 H   0  0  0  0  0  0  0  0  0  0  0  0
   56.2558   29.6610   41.9873 H   0  0  0  0  0  0  0  0  0  0  0  0
   59.5733   30.4142   45.6405 H   0  0  0  0  0  0  0  0  0  0  0  0
   60.5889   32.4006   46.7477 H   0  0  0  0  0  0  0  0  0  0  0  0
   61.2318   28.8533   50.0629 H   0  0  0  0  0  0  0  0  0  0  0  0
   61.3051   26.6241   48.9492 H   0  0  0  0  0  0  0  0  0  0  0  0
   59.6097   26.0277   47.2215 H   0  0  0  0  0  0  0  0  0  0  0  0
   57.4500   28.3100   45.5600 H   0  0  0  0  0  0  0  0  0  0  0  0
   57.8957   24.3210   45.1548 H   0  0  0  0  0  0  0  0  0  0  0  0
   56.4763   24.8736   44.2027 H   0  0  0  0  0  0  0  0  0  0  0  0
   57.9896   25.8413   44.2027 H   0  0  0  0  0  0  0  0  0  0  0  0
   57.7276   29.8935   47.7432 H   0  0  0  0  0  0  0  0  0  0  0  0
  1  2  1  0
  2  3  2  0
  3  4  1  0
  4  5  2  0
  5  6  1  0
  6  7  2  0
  6  8  1  0
  8  9  1  0
  9 10  1  0
 10 11  2  0
 11 12  1  0
 12 13  2  0
 13 14  1  0
 14 15  1  0
 14 16  2  0
 14 17  2  0
 13 18  1  0
 18 19  2  0
  5 20  1  0
 20 21  2  0
 21 22  1  0
 22 23  2  0
 23 24  1  0
 24 25  2  0
 25 26  1  0
 26 27  1  0
 27 28  1  0
 28 29  1  0
 28 30  2  0
 28 31  2  0
 26 32  2  0
 21  2  1  0
 32 22  1  0
 19 10  1  0
  1 33  1  0
  1 34  1  0
  1 35  1  0
  3 36  1  0
  4 37  1  0
  9 38  1  0
  9 39  1  0
 11 40  1  0
 12 41  1  0
 15 42  1  0
 15 43  1  0
 15 44  1  0
 18 45  1  0
 19 46  1  0
 23 47  1  0
 24 48  1  0
 25 49  1  0
 27 50  1  0
 29 51  1  0
 29 52  1  0
 29 53  1  0
 32 54  1  0
M  CHG  1   8  -1
M  END
>  <UniqueID>  (22) 
19

>  <SMILES>  (22) 
Cc1ccc(C(=O)[N-]Cc2ccc(S(C)(=O)=O)cc2)nc1-c1cccc(NS(C)(=O)=O)c1

>  <Energy>  (22) 
55.45331542950704

>  <Genealogy>  (22) 
Cc1ccc(C(=O)[N-]Cc2ccc(S(C)(=O)=O)cc2)nc1-c1cccc(NS(C)(=O)=O)c1 (protonated)
Cc1ccc(C(=O)[N-]Cc2ccc(S(C)(=O)=O)cc2)nc1-c1cccc(NS(C)(=O)=O)c1 (3D coordinates assigned)
Cc1ccc(C(=O)[N-]Cc2ccc(S(C)(=O)=O)cc2)nc1-c1cccc(NS(C)(=O)=O)c1 (optimized conformer: 55.45331542950704 kcal/mol)

>  <smiles>  (22) 
Cc1ccc(C(=O)NCc2ccc(S(C)(=O)=O)cc2)nc1-c1cccc(NS(C)(=O)=O)c1

>  <score_type>  (22) 
oracle

>  <origin>  (22) 
adg

>  <m_score__min__energy>  (22) 
-11.039999999999999

>  <m_primary>  (22) 
energy

$$$$
22:0
     RDKit          3D

 45 47  0  0  0  0  0  0  0  0999 V2000
   60.8840   27.5940   48.1400 N   0  0  0  0  0  0  0  0  0  0  0  0
   60.4490   28.1000   49.4390 C   0  0  0  0  0  0  0  0  0  0  0  0
   60.4090   29.6330   49.4220 C   0  0  0  0  0  0  0  0  0  0  0  0
   59.2980   30.1900   48.5040 C   0  0  0  0  0  0  0  0  0  0  0  0
   59.1580   29.4410   47.2390 N   0  0  0  0  0  0  0  0  0  0  0  0
   58.2510   30.0890   46.3070 C   0  0  0  0  0  0  0  0  0  0  0  0
   57.2140   29.3490   45.6950 C   0  0  0  0  0  0  0  0  0  0  0  0
   57.0330   27.9630   46.0000 N   0  0  0  0  0  0  0  0  0  0  0  0
   58.3830   26.8960   46.1940 S   0  0  0  0  0  0  0  0  0  0  0  0
   58.6070   26.6030   47.6520 O   0  0  0  0  0  0  0  0  0  0  0  0
   59.6150   27.5470   45.6340 O   0  0  0  0  0  0  0  0  0  0  0  0
   58.0640   25.4110   45.3050 C   0  0  0  0  0  0  0  0  0  0  0  0
   57.3960   25.4660   44.0730 C   0  0  0  0  0  0  0  0  0  0  0  0
   57.0870   24.2880   43.3870 C   0  0  0  0  0  0  0  0  0  0  0  0
   57.4360   23.0460   43.9330 C   0  0  0  0  0  0  0  0  0  0  0  0
   57.0060   21.4350   43.0010 Br  0  0  0  0  0  0  0  0  0  0  0  0
   58.0930   22.9870   45.1680 C   0  0  0  0  0  0  0  0  0  0  0  0
   58.4040   24.1650   45.8530 C   0  0  0  0  0  0  0  0  0  0  0  0
   56.3570   29.9910   44.7870 C   0  0  0  0  0  0  0  0  0  0  0  0
   55.4040   29.3610   44.2550 O   0  0  0  0  0  0  0  0  0  0  0  0
   56.5270   31.2710   44.4880 O   0  0  0  0  0  0  0  0  0  0  0  0
   57.4930   32.0120   45.0170 C   0  0  0  0  0  0  0  0  0  0  0  0
   57.6030   33.3530   44.6340 C   0  0  0  0  0  0  0  0  0  0  0  0
   58.6130   34.1550   45.1660 C   0  0  0  0  0  0  0  0  0  0  0  0
   59.5190   33.6210   46.0830 C   0  0  0  0  0  0  0  0  0  0  0  0
   59.4200   32.2830   46.4740 C   0  0  0  0  0  0  0  0  0  0  0  0
   58.4020   31.4560   45.9510 C   0  0  0  0  0  0  0  0  0  0  0  0
   60.2470   27.9830   47.4050 H   0  0  0  0  0  0  0  0  0  0  0  0
   60.7390   26.5590   48.1370 H   0  0  0  0  0  0  0  0  0  0  0  0
   59.4440   27.7125   49.6622 H   0  0  0  0  0  0  0  0  0  0  0  0
   61.1589   27.7673   50.2106 H   0  0  0  0  0  0  0  0  0  0  0  0
   60.2318   29.9919   50.4466 H   0  0  0  0  0  0  0  0  0  0  0  0
   61.3735   29.9863   49.0285 H   0  0  0  0  0  0  0  0  0  0  0  0
   58.3415   30.1437   49.0453 H   0  0  0  0  0  0  0  0  0  0  0  0
   59.5762   31.2219   48.2436 H   0  0  0  0  0  0  0  0  0  0  0  0
   60.0960   29.3400   46.7910 H   0  0  0  0  0  0  0  0  0  0  0  0
   58.8630   28.4580   47.4430 H   0  0  0  0  0  0  0  0  0  0  0  0
   57.1143   26.4395   43.6452 H   0  0  0  0  0  0  0  0  0  0  0  0
   56.5694   24.3362   42.4176 H   0  0  0  0  0  0  0  0  0  0  0  0
   58.3647   22.0124   45.5997 H   0  0  0  0  0  0  0  0  0  0  0  0
   58.9169   24.1150   46.8248 H   0  0  0  0  0  0  0  0  0  0  0  0
   56.8906   33.7766   43.9108 H   0  0  0  0  0  0  0  0  0  0  0  0
   58.6952   35.2091   44.8623 H   0  0  0  0  0  0  0  0  0  0  0  0
   60.3146   34.2559   46.5000 H   0  0  0  0  0  0  0  0  0  0  0  0
   60.1411   31.8707   47.1951 H   0  0  0  0  0  0  0  0  0  0  0  0
  1  2  1  0
  2  3  1  0
  3  4  1  0
  4  5  1  0
  5  6  1  0
  6  7  2  0
  7  8  1  0
  8  9  1  0
  9 10  2  0
  9 11  2  0
  9 12  1  0
 12 13  2  0
 13 14  1  0
 14 15  2  0
 15 16  1  0
 15 17  1  0
 17 18  2  0
  7 19  1  0
 19 20  2  0
 19 21  1  0
 21 22  1  0
 22 23  2  0
 23 24  1  0
 24 25  2  0
 25 26  1  0
 26 27  2  0
 27  6  1  0
 18 12  1  0
 27 22  1  0
  1 28  1  0
  1 29  1  0
  2 30  1  0
  2 31  1  0
  3 32  1  0
  3 33  1  0
  4 34  1  0
  4 35  1  0
  5 36  1  0
  5 37  1  0
 13 38  1  0
 14 39  1  0
 17 40  1  0
 18 41  1  0
 23 42  1  0
 24 43  1  0
 25 44  1  0
 26 45  1  0
M  CHG  2   5   1   8  -1
M  END
>  <UniqueID>  (23) 
20

>  <SMILES>  (23) 
NCCC[NH2+]c1c([N-]S(=O)(=O)c2ccc(Br)cc2)c(=O)oc2ccccc12

>  <Energy>  (23) 
60.74005468526585

>  <Genealogy>  (23) 
NCCC[NH2+]c1c([N-]S(=O)(=O)c2ccc(Br)cc2)c(=O)oc2ccccc12 (protonated)
NCCC[NH2+]c1c([N-]S(=O)(=O)c2ccc(Br)cc2)c(=O)oc2ccccc12 (3D coordinates assigned)
NCCC[NH2+]c1c([N-]S(=O)(=O)c2ccc(Br)cc2)c(=O)oc2ccccc12 (optimized conformer: 60.74005468526585 kcal/mol)

>  <smiles>  (23) 
NCCCNc1c(NS(=O)(=O)c2ccc(Br)cc2)c(=O)oc2ccccc12

>  <score_type>  (23) 
oracle

>  <origin>  (23) 
adg

>  <m_score__min__energy>  (23) 
-6.96

>  <m_primary>  (23) 
energy

$$$$
23:0
     RDKit          3D

 46 50  0  0  0  0  0  0  0  0999 V2000
   57.6980   32.3310   49.7560 H   0  0  0  0  0  0  0  0  0  0  0  0
   58.6040   31.9230   49.4940 N   0  0  0  0  0  0  0  0  0  0  0  0
   59.7350   32.4670   49.7850 C   0  0  0  0  0  0  0  0  0  0  0  0
   59.9470   34.2150   49.5890 S   0  0  0  0  0  0  0  0  0  0  0  0
   60.7480   33.9800   47.9600 C   0  0  2  0  0  0  0  0  0  0  0  0
   61.3150   34.9119   47.8186 H   0  0  0  0  0  0  0  0  0  0  0  0
   59.6970   33.6820   46.9370 C   0  0  0  0  0  0  0  0  0  0  0  0
   58.7450   34.4630   46.6700 O   0  0  0  0  0  0  0  0  0  0  0  0
   59.8470   32.4080   46.3300 N   0  0  0  0  0  0  0  0  0  0  0  0
   58.8790   31.7410   45.5030 C   0  0  0  0  0  0  0  0  0  0  0  0
   58.3310   32.3910   44.3870 C   0  0  0  0  0  0  0  0  0  0  0  0
   58.6405   33.4187   44.1463 H   0  0  0  0  0  0  0  0  0  0  0  0
   57.3950   31.7410   43.5800 C   0  0  0  0  0  0  0  0  0  0  0  0
   56.9715   32.2610   42.7081 H   0  0  0  0  0  0  0  0  0  0  0  0
   56.9900   30.4280   43.8730 C   0  0  0  0  0  0  0  0  0  0  0  0
   55.9800   29.7410   42.9970 C   0  0  0  0  0  0  0  0  0  0  0  0
   55.2339   29.2335   43.6261 H   0  0  0  0  0  0  0  0  0  0  0  0
   55.4784   30.4860   42.3619 H   0  0  0  0  0  0  0  0  0  0  0  0
   56.4886   29.0007   42.3619 H   0  0  0  0  0  0  0  0  0  0  0  0
   57.5390   29.7730   44.9940 C   0  0  0  0  0  0  0  0  0  0  0  0
   57.0700   28.1300   45.4180 Cl  0  0  0  0  0  0  0  0  0  0  0  0
   58.4780   30.4310   45.7980 C   0  0  0  0  0  0  0  0  0  0  0  0
   58.9052   29.9143   46.6701 H   0  0  0  0  0  0  0  0  0  0  0  0
   61.0350   31.8430   46.8610 C   0  0  0  0  0  0  0  0  0  0  0  0
   61.4930   30.7340   46.4760 O   0  0  0  0  0  0  0  0  0  0  0  0
   61.7360   32.7470   47.8370 C   0  0  2  0  0  0  0  0  0  0  0  0
   62.0700   32.0410   49.0970 N   0  0  0  0  0  0  0  0  0  0  0  0
   63.2150   32.7590   49.6710 C   0  0  0  0  0  0  0  0  0  0  0  0
   63.9021   32.0477   50.1526 H   0  0  0  0  0  0  0  0  0  0  0  0
   62.8806   33.4794   50.4321 H   0  0  0  0  0  0  0  0  0  0  0  0
   63.9250   33.4760   48.5230 C   0  0  0  0  0  0  0  0  0  0  0  0
   64.9460   33.0857   48.3996 H   0  0  0  0  0  0  0  0  0  0  0  0
   64.0138   34.5562   48.7111 H   0  0  0  0  0  0  0  0  0  0  0  0
   63.0940   33.1880   47.2840 C   0  0  0  0  0  0  0  0  0  0  0  0
   63.5507   32.3859   46.6856 H   0  0  0  0  0  0  0  0  0  0  0  0
   63.0148   34.0597   46.6177 H   0  0  0  0  0  0  0  0  0  0  0  0
   61.0020   31.7090   50.0810 C   0  0  2  0  0  0  0  0  0  0  0  0
   61.3138   32.0472   51.0802 H   0  0  0  0  0  0  0  0  0  0  0  0
   60.8230   30.2150   50.1990 C   0  0  0  0  0  0  0  0  0  0  0  0
   61.2220   29.3110   51.5650 S   0  0  0  0  0  0  0  0  0  0  0  0
   60.8370   27.8060   50.9230 C   0  0  0  0  0  0  0  0  0  0  0  0
   60.9120   26.8420   51.4475 H   0  0  0  0  0  0  0  0  0  0  0  0
   60.4080   27.9910   49.6160 C   0  0  0  0  0  0  0  0  0  0  0  0
   60.0962   27.1627   48.9628 H   0  0  0  0  0  0  0  0  0  0  0  0
   60.4090   29.3300   49.2060 C   0  0  0  0  0  0  0  0  0  0  0  0
   60.1116   29.6520   48.1971 H   0  0  0  0  0  0  0  0  0  0  0  0
  1  2  1  0
  2  3  2  0
  3  4  1  0
  4  5  1  0
  5  6  1  6
  5  7  1  0
  7  8  2  0
  7  9  1  0
  9 10  1  0
 10 11  2  0
 11 12  1  0
 11 13  1  0
 13 14  1  0
 13 15  2  0
 15 16  1  0
 16 17  1  0
 16 18  1  0
 16 19  1  0
 15 20  1  0
 20 21  1  0
 20 22  2  0
 22 23  1  0
  9 24  1  0
 24 25  2  0
 24 26  1  0
 26 27  1  0
 27 28  1  0
 28 29  1  0
 28 30  1  0
 28 31  1  0
 31 32  1  0
 31 33  1  0
 31 34  1  0
 34 35  1  0
 34 36  1  0
 27 37  1  0
 37 38  1  1
 37 39  1  0
 39 40  1  0
 40 41  1  0
 41 42  1  0
 41 43  2  0
 43 44  1  0
 43 45  1  0
 45 46  1  0
 37  3  1  0
 45 39  2  0
 26  5  1  0
 22 10  1  0
 26 34  1  6
M  END
>  <UniqueID>  (24) 
21

>  <SMILES>  (24) 
[H]/N=C1/S[C@@H]2C(=O)N(c3ccc(C)c(Cl)c3)C(=O)C23CCCN3[C@@H]1c1cccs1

>  <Energy>  (24) 
115.28111977889031

>  <Genealogy>  (24) 
Cc1ccc(N2C(=O)[C@H]3SC(=N)[C@@H](c4cccs4)N4CCCC34C2=O)cc1Cl (chirality)
[H]/N=C1/S[C@@H]2C(=O)N(c3ccc(C)c(Cl)c3)C(=O)C23CCCN3[C@@H]1c1cccs1 (cis-trans isomerization)
[H]/N=C1/S[C@@H]2C(=O)N(c3ccc(C)c(Cl)c3)C(=O)C23CCCN3[C@@H]1c1cccs1 (3D coordinates assigned)
[H]/N=C1/S[C@@H]2C(=O)N(c3ccc(C)c(Cl)c3)C(=O)C23CCCN3[C@@H]1c1cccs1 (nonaromatic ring conformer: 115.28111977889031 kcal/mol)

>  <smiles>  (24) 
Cc1ccc(N2C(=O)C3SC(=N)C(c4cccs4)N4CCCC34C2=O)cc1Cl

>  <score_type>  (24) 
oracle

>  <origin>  (24) 
adg

>  <m_score__min__energy>  (24) 
-8.1999999999999993

>  <m_primary>  (24) 
energy

$$$$
24:0
     RDKit          3D

 35 36  0  0  0  0  0  0  0  0999 V2000
   63.2750   33.8340   47.6120 C   0  0  0  0  0  0  0  0  0  0  0  0
   62.1300   33.3590   46.8440 N   0  0  0  0  0  0  0  0  0  0  0  0
   60.7900   33.7620   47.1660 C   0  0  0  0  0  0  0  0  0  0  0  0
   60.6030   34.6520   48.0420 O   0  0  0  0  0  0  0  0  0  0  0  0
   59.6210   33.1660   46.4750 C   0  0  0  0  0  0  0  0  0  0  0  0
   59.2130   31.8570   46.7860 C   0  0  0  0  0  0  0  0  0  0  0  0
   58.1150   31.2830   46.1370 C   0  0  0  0  0  0  0  0  0  0  0  0
   57.4010   32.0040   45.1750 C   0  0  0  0  0  0  0  0  0  0  0  0
   56.2920   31.3690   44.5220 N   0  0  0  0  0  0  0  0  0  0  0  0
   56.1110   29.9610   44.3210 C   0  0  0  0  0  0  0  0  0  0  0  0
   55.1520   29.3500   44.8650 O   0  0  0  0  0  0  0  0  0  0  0  0
   57.1310   29.1930   43.5460 C   0  0  0  0  0  0  0  0  0  0  0  0
   58.0770   28.4980   44.4870 C   0  0  0  0  0  0  0  0  0  0  0  0
   59.4420   28.8330   44.4950 C   0  0  0  0  0  0  0  0  0  0  0  0
   60.3130   28.2100   45.3940 C   0  0  0  0  0  0  0  0  0  0  0  0
   59.8290   27.2560   46.2950 C   0  0  0  0  0  0  0  0  0  0  0  0
   60.6750   26.6540   47.1650 F   0  0  0  0  0  0  0  0  0  0  0  0
   58.4700   26.9280   46.2990 C   0  0  0  0  0  0  0  0  0  0  0  0
   57.5950   27.5490   45.4040 C   0  0  0  0  0  0  0  0  0  0  0  0
   57.8260   33.3000   44.8340 C   0  0  0  0  0  0  0  0  0  0  0  0
   58.9240   33.8750   45.4810 C   0  0  0  0  0  0  0  0  0  0  0  0
   63.0584   33.7441   48.6867 H   0  0  0  0  0  0  0  0  0  0  0  0
   64.1593   33.2285   47.3643 H   0  0  0  0  0  0  0  0  0  0  0  0
   63.4710   34.8877   47.3643 H   0  0  0  0  0  0  0  0  0  0  0  0
   62.3130   32.7500   46.0160 H   0  0  0  0  0  0  0  0  0  0  0  0
   59.7613   31.2801   47.5453 H   0  0  0  0  0  0  0  0  0  0  0  0
   57.8106   30.2556   46.3855 H   0  0  0  0  0  0  0  0  0  0  0  0
   56.6244   28.4439   42.9198 H   0  0  0  0  0  0  0  0  0  0  0  0
   57.6997   29.8878   42.9106 H   0  0  0  0  0  0  0  0  0  0  0  0
   59.8260   29.5871   43.7923 H   0  0  0  0  0  0  0  0  0  0  0  0
   61.3816   28.4708   45.3926 H   0  0  0  0  0  0  0  0  0  0  0  0
   58.0886   26.1790   47.0086 H   0  0  0  0  0  0  0  0  0  0  0  0
   56.5251   27.2940   45.4174 H   0  0  0  0  0  0  0  0  0  0  0  0
   57.2924   33.8641   44.0548 H   0  0  0  0  0  0  0  0  0  0  0  0
   59.2454   34.8914   45.2098 H   0  0  0  0  0  0  0  0  0  0  0  0
  1  2  1  0
  2  3  1  0
  3  4  2  0
  3  5  1  0
  5  6  2  0
  6  7  1  0
  7  8  2  0
  8  9  1  0
  9 10  1  0
 10 11  2  0
 10 12  1  0
 12 13  1  0
 13 14  2  0
 14 15  1  0
 15 16  2  0
 16 17  1  0
 16 18  1  0
 18 19  2  0
  8 20  1  0
 20 21  2  0
 21  5  1  0
 19 13  1  0
  1 22  1  0
  1 23  1  0
  1 24  1  0
  2 25  1  0
  6 26  1  0
  7 27  1  0
 12 28  1  0
 12 29  1  0
 14 30  1  0
 15 31  1  0
 18 32  1  0
 19 33  1  0
 20 34  1  0
 21 35  1  0
M  CHG  1   9  -1
M  END
>  <UniqueID>  (25) 
22

>  <SMILES>  (25) 
CNC(=O)c1ccc([N-]C(=O)Cc2ccc(F)cc2)cc1

>  <Energy>  (25) 
36.43010453651314

>  <Genealogy>  (25) 
CNC(=O)c1ccc([N-]C(=O)Cc2ccc(F)cc2)cc1 (protonated)
CNC(=O)c1ccc([N-]C(=O)Cc2ccc(F)cc2)cc1 (3D coordinates assigned)
CNC(=O)c1ccc([N-]C(=O)Cc2ccc(F)cc2)cc1 (optimized conformer: 36.43010453651314 kcal/mol)

>  <smiles>  (25) 
CNC(=O)c1ccc(NC(=O)Cc2ccc(F)cc2)cc1

>  <score_type>  (25) 
oracle

>  <origin>  (25) 
adg

>  <m_score__min__energy>  (25) 
-8.7899999999999991

>  <m_primary>  (25) 
energy

$$$$
25:0
     RDKit          3D

 26 27  0  0  0  0  0  0  0  0999 V2000
   58.3680   33.3060   46.1330 C   0  0  0  0  0  0  0  0  0  0  0  0
   57.8940   32.6040   44.9040 C   0  0  0  0  0  0  0  0  0  0  0  0
   58.4000   32.9440   43.6900 N   0  0  0  0  0  0  0  0  0  0  0  0
   58.0130   32.2890   42.5650 C   0  0  0  0  0  0  0  0  0  0  0  0
   58.4950   32.6200   41.4500 O   0  0  0  0  0  0  0  0  0  0  0  0
   57.0880   31.2470   42.6480 C   0  0  0  0  0  0  0  0  0  0  0  0
   56.5710   30.9070   43.9060 C   0  0  0  0  0  0  0  0  0  0  0  0
   55.6040   29.8020   44.0740 C   0  0  0  0  0  0  0  0  0  0  0  0
   54.7240   29.6220   43.1910 O   0  0  0  0  0  0  0  0  0  0  0  0
   55.6030   28.9520   45.2290 N   0  0  0  0  0  0  0  0  0  0  0  0
   56.5750   27.9420   45.5370 C   0  0  0  0  0  0  0  0  0  0  0  0
   57.9560   28.1890   45.4190 C   0  0  0  0  0  0  0  0  0  0  0  0
   58.8790   27.1810   45.7110 C   0  0  0  0  0  0  0  0  0  0  0  0
   58.4350   25.9170   46.1080 C   0  0  0  0  0  0  0  0  0  0  0  0
   57.0660   25.6570   46.2050 C   0  0  0  0  0  0  0  0  0  0  0  0
   56.1370   26.6630   45.9170 C   0  0  0  0  0  0  0  0  0  0  0  0
   54.7770   26.3900   46.0140 O   0  0  0  0  0  0  0  0  0  0  0  0
   57.0020   31.5830   45.0050 N   0  0  0  0  0  0  0  0  0  0  0  0
   58.0066   32.7707   47.0234 H   0  0  0  0  0  0  0  0  0  0  0  0
   59.4677   33.3297   46.1406 H   0  0  0  0  0  0  0  0  0  0  0  0
   57.9790   34.3349   46.1406 H   0  0  0  0  0  0  0  0  0  0  0  0
   56.7713   30.7040   41.7453 H   0  0  0  0  0  0  0  0  0  0  0  0
   58.3099   29.1791   45.0958 H   0  0  0  0  0  0  0  0  0  0  0  0
   59.9571   27.3831   45.6281 H   0  0  0  0  0  0  0  0  0  0  0  0
   59.1632   25.1271   46.3440 H   0  0  0  0  0  0  0  0  0  0  0  0
   56.7173   24.6589   46.5086 H   0  0  0  0  0  0  0  0  0  0  0  0
  1  2  1  0
  2  3  2  0
  3  4  1  0
  4  5  2  0
  4  6  1  0
  6  7  2  0
  7  8  1  0
  8  9  2  0
  8 10  1  0
 10 11  1  0
 11 12  2  0
 12 13  1  0
 13 14  2  0
 14 15  1  0
 15 16  2  0
 16 17  1  0
  7 18  1  0
 18  2  1  0
 16 11  1  0
  1 19  1  0
  1 20  1  0
  1 21  1  0
  6 22  1  0
 12 23  1  0
 13 24  1  0
 14 25  1  0
 15 26  1  0
M  CHG  3  10  -1  17  -1  18  -1
M  END
>  <UniqueID>  (26) 
23

>  <SMILES>  (26) 
Cc1nc(=O)cc(C(=O)[N-]c2ccccc2[O-])[n-]1

>  <Energy>  (26) 
32.91771106008701

>  <Genealogy>  (26) 
Cc1nc(=O)cc(C(=O)[N-]c2ccccc2[O-])[n-]1 (protonated)
Cc1nc(=O)cc(C(=O)[N-]c2ccccc2[O-])[n-]1 (3D coordinates assigned)
Cc1nc(=O)cc(C(=O)[N-]c2ccccc2[O-])[n-]1 (optimized conformer: 32.91771106008701 kcal/mol)

>  <smiles>  (26) 
Cc1nc(=O)cc(C(=O)Nc2ccccc2O)[nH]1

>  <score_type>  (26) 
oracle

>  <origin>  (26) 
adg

>  <m_score__min__energy>  (26) 
-14.19

>  <m_primary>  (26) 
energy

$$$$
26:0
     RDKit          3D

 46 48  0  0  0  0  0  0  0  0999 V2000
   53.2420   29.0680   53.5640 C   0  0  0  0  0  0  0  0  0  0  0  0
   52.8890   30.2260   52.7450 N   0  0  0  0  0  0  0  0  0  0  0  0
   51.6910   30.8400   52.8040 C   0  0  0  0  0  0  0  0  0  0  0  0
   51.6900   31.8530   51.8820 C   0  0  0  0  0  0  0  0  0  0  0  0
   50.6310   32.7200   51.6410 O   0  0  0  0  0  0  0  0  0  0  0  0
   52.8610   31.9020   51.2260 N   0  0  0  0  0  0  0  0  0  0  0  0
   53.5760   30.8930   51.7720 C   0  0  0  0  0  0  0  0  0  0  0  0
   54.7870   30.6490   51.3550 N   0  0  0  0  0  0  0  0  0  0  0  0
   56.2840   30.4530   52.2150 S   0  0  0  0  0  0  0  0  0  0  0  0
   56.2530   31.1930   53.5210 O   0  0  0  0  0  0  0  0  0  0  0  0
   56.5690   28.9940   52.4370 O   0  0  0  0  0  0  0  0  0  0  0  0
   57.5650   31.1380   51.2220 C   0  0  0  0  0  0  0  0  0  0  0  0
   58.1430   30.3670   50.2050 C   0  0  0  0  0  0  0  0  0  0  0  0
   59.1820   30.8890   49.4310 C   0  0  0  0  0  0  0  0  0  0  0  0
   59.6680   32.1780   49.6780 C   0  0  0  0  0  0  0  0  0  0  0  0
   60.7390   32.6850   48.8730 N   0  0  0  0  0  0  0  0  0  0  0  0
   60.9050   32.4860   47.4610 C   0  0  0  0  0  0  0  0  0  0  0  0
   61.2870   33.4560   46.7550 O   0  0  0  0  0  0  0  0  0  0  0  0
   60.5000   31.2040   46.7790 C   0  0  0  0  0  0  0  0  0  0  0  0
   59.1560   31.3540   46.0580 C   0  0  0  0  0  0  0  0  0  0  0  0
   58.7650   30.1220   45.3750 N   0  0  0  0  0  0  0  0  0  0  0  0
   57.4590   29.5280   45.2860 C   0  0  0  0  0  0  0  0  0  0  0  0
   56.5150   30.2470   44.8640 O   0  0  0  0  0  0  0  0  0  0  0  0
   57.1720   28.1220   45.6670 C   0  0  0  0  0  0  0  0  0  0  0  0
   58.2040   27.2820   46.1140 C   0  0  0  0  0  0  0  0  0  0  0  0
   57.8940   25.9680   46.4710 C   0  0  0  0  0  0  0  0  0  0  0  0
   58.7990   25.1900   46.8710 O   0  0  0  0  0  0  0  0  0  0  0  0
   56.6120   25.5290   46.3890 N   0  0  0  0  0  0  0  0  0  0  0  0
   55.6210   26.3530   45.9670 C   0  0  0  0  0  0  0  0  0  0  0  0
   54.4380   25.9310   45.9010 O   0  0  0  0  0  0  0  0  0  0  0  0
   55.9040   27.6350   45.6170 N   0  0  0  0  0  0  0  0  0  0  0  0
   59.0530   32.9700   50.6610 C   0  0  0  0  0  0  0  0  0  0  0  0
   58.0140   32.4480   51.4370 C   0  0  0  0  0  0  0  0  0  0  0  0
   53.1611   29.3334   54.6284 H   0  0  0  0  0  0  0  0  0  0  0  0
   52.5562   28.2377   53.3400 H   0  0  0  0  0  0  0  0  0  0  0  0
   54.2744   28.7615   53.3400 H   0  0  0  0  0  0  0  0  0  0  0  0
   50.8603   30.5745   53.4744 H   0  0  0  0  0  0  0  0  0  0  0  0
   57.7773   29.3470   50.0154 H   0  0  0  0  0  0  0  0  0  0  0  0
   59.6203   30.2841   48.6235 H   0  0  0  0  0  0  0  0  0  0  0  0
   61.2716   30.9303   46.0443 H   0  0  0  0  0  0  0  0  0  0  0  0
   60.3959   30.4222   47.5457 H   0  0  0  0  0  0  0  0  0  0  0  0
   58.3828   31.6123   46.7965 H   0  0  0  0  0  0  0  0  0  0  0  0
   59.2607   32.1455   45.3014 H   0  0  0  0  0  0  0  0  0  0  0  0
   59.2377   27.6519   46.1818 H   0  0  0  0  0  0  0  0  0  0  0  0
   59.3900   34.0048   50.8210 H   0  0  0  0  0  0  0  0  0  0  0  0
   57.5479   33.0668   52.2180 H   0  0  0  0  0  0  0  0  0  0  0  0
  1  2  1  0
  2  3  1  0
  3  4  2  0
  4  5  1  0
  4  6  1  0
  6  7  1  0
  7  8  2  3
  8  9  1  0
  9 10  2  0
  9 11  2  0
  9 12  1  0
 12 13  2  0
 13 14  1  0
 14 15  2  0
 15 16  1  0
 16 17  1  0
 17 18  2  0
 17 19  1  0
 19 20  1  0
 20 21  1  0
 21 22  1  0
 22 23  2  0
 22 24  1  0
 24 25  2  0
 25 26  1  0
 26 27  2  0
 26 28  1  0
 28 29  1  0
 29 30  2  0
 29 31  1  0
 15 32  1  0
 32 33  2  0
  7  2  1  0
 33 12  1  0
 31 24  1  0
  1 34  1  0
  1 35  1  0
  1 36  1  0
  3 37  1  0
 13 38  1  0
 14 39  1  0
 19 40  1  0
 19 41  1  0
 20 42  1  0
 20 43  1  0
 25 44  1  0
 32 45  1  0
 33 46  1  0
M  CHG  6   5  -1   6  -1  16  -1  21  -1  28  -1  31  -1
M  END
>  <UniqueID>  (27) 
24

>  <SMILES>  (27) 
Cn1cc([O-])[n-]c1=NS(=O)(=O)c1ccc([N-]C(=O)CC[N-]C(=O)c2cc(=O)[n-]c(=O)[n-]2)cc1

>  <Energy>  (27) 
92.06628302952265

>  <Genealogy>  (27) 
Cn1cc([O-])[n-]c1=NS(=O)(=O)c1ccc([N-]C(=O)CC[N-]C(=O)c2cc(=O)[n-]c(=O)[n-]2)cc1 (protonated)
Cn1cc([O-])[n-]c1=NS(=O)(=O)c1ccc([N-]C(=O)CC[N-]C(=O)c2cc(=O)[n-]c(=O)[n-]2)cc1 (3D coordinates assigned)
Cn1cc([O-])[n-]c1=NS(=O)(=O)c1ccc([N-]C(=O)CC[N-]C(=O)c2cc(=O)[n-]c(=O)[n-]2)cc1 (optimized conformer: 92.06628302952265 kcal/mol)

>  <smiles>  (27) 
Cn1cc(O)[nH]c1=NS(=O)(=O)c1ccc(NC(=O)CCNC(=O)c2cc(=O)[nH]c(=O)[nH]2)cc1

>  <score_type>  (27) 
oracle

>  <origin>  (27) 
adg

>  <m_score__min__energy>  (27) 
-21.710000000000001

>  <m_primary>  (27) 
energy

$$$$
27:0
     RDKit          3D

 60 63  0  0  0  0  0  0  0  0999 V2000
   59.9640   28.1410   48.4740 C   0  0  0  0  0  0  0  0  0  0  0  0
   60.4370   29.4410   48.8060 O   0  0  0  0  0  0  0  0  0  0  0  0
   59.8210   30.3060   49.7260 C   0  0  0  0  0  0  0  0  0  0  0  0
   58.7400   31.1330   49.3540 C   0  0  0  0  0  0  0  0  0  0  0  0
   58.1420   31.9790   50.2880 C   0  0  0  0  0  0  0  0  0  0  0  0
   58.6100   32.0150   51.6020 C   0  0  0  0  0  0  0  0  0  0  0  0
   59.6780   31.2040   51.9860 C   0  0  0  0  0  0  0  0  0  0  0  0
   60.2930   30.3470   51.0580 C   0  0  0  0  0  0  0  0  0  0  0  0
   61.4360   29.4670   51.5140 C   0  0  0  0  0  0  0  0  0  0  0  0
   62.8040   30.1150   51.2570 C   0  0  0  0  0  0  0  0  0  0  0  0
   62.8070   30.9120   50.0290 N   0  0  0  0  0  0  0  0  0  0  0  0
   63.6110   32.0940   49.9050 C   0  0  0  0  0  0  0  0  0  0  0  0
   64.3860   32.4300   50.8420 O   0  0  0  0  0  0  0  0  0  0  0  0
   63.5850   32.9220   48.6490 C   0  0  0  0  0  0  0  0  0  0  0  0
   62.2190   33.0490   48.1110 N   0  0  0  0  0  0  0  0  0  0  0  0
   61.5070   34.1980   48.3570 C   0  0  0  0  0  0  0  0  0  0  0  0
   60.2540   34.3620   47.8540 N   0  0  0  0  0  0  0  0  0  0  0  0
   59.7120   33.3780   47.1060 C   0  0  0  0  0  0  0  0  0  0  0  0
   58.2020   33.3920   46.3880 S   0  0  0  0  0  0  0  0  0  0  0  0
   58.3690   31.8660   45.6770 C   0  0  0  0  0  0  0  0  0  0  0  0
   57.3250   31.2600   44.8300 C   0  0  0  0  0  0  0  0  0  0  0  0
   57.0130   31.8240   43.7500 O   0  0  0  0  0  0  0  0  0  0  0  0
   56.6410   30.0560   45.2030 N   0  0  0  0  0  0  0  0  0  0  0  0
   57.1080   28.7180   44.9800 C   0  0  0  0  0  0  0  0  0  0  0  0
   57.6810   28.3980   43.7440 C   0  0  0  0  0  0  0  0  0  0  0  0
   58.1420   27.1040   43.4940 C   0  0  0  0  0  0  0  0  0  0  0  0
   58.0650   26.1280   44.4910 C   0  0  0  0  0  0  0  0  0  0  0  0
   57.5470   26.4480   45.7550 C   0  0  0  0  0  0  0  0  0  0  0  0
   57.4580   25.3950   46.8180 C   0  0  0  0  0  0  0  0  0  0  0  0
   57.0520   27.7410   45.9910 C   0  0  0  0  0  0  0  0  0  0  0  0
   59.6150   31.3130   46.0380 C   0  0  0  0  0  0  0  0  0  0  0  0
   60.0580   29.9200   45.6800 C   0  0  0  0  0  0  0  0  0  0  0  0
   60.3770   32.2030   46.8310 C   0  0  0  0  0  0  0  0  0  0  0  0
   61.6710   32.0420   47.3490 C   0  0  0  0  0  0  0  0  0  0  0  0
   62.3330   30.9950   47.1080 O   0  0  0  0  0  0  0  0  0  0  0  0
   59.7593   27.5785   49.3969 H   0  0  0  0  0  0  0  0  0  0  0  0
   59.0395   28.2268   47.8842 H   0  0  0  0  0  0  0  0  0  0  0  0
   60.7275   27.6126   47.8842 H   0  0  0  0  0  0  0  0  0  0  0  0
   58.3661   31.1104   48.3198 H   0  0  0  0  0  0  0  0  0  0  0  0
   57.2994   32.6193   49.9879 H   0  0  0  0  0  0  0  0  0  0  0  0
   58.1363   32.6836   52.3358 H   0  0  0  0  0  0  0  0  0  0  0  0
   60.0416   31.2357   53.0237 H   0  0  0  0  0  0  0  0  0  0  0  0
   61.3300   29.2789   52.5926 H   0  0  0  0  0  0  0  0  0  0  0  0
   61.3921   28.5306   50.9385 H   0  0  0  0  0  0  0  0  0  0  0  0
   63.0534   30.7685   52.1060 H   0  0  0  0  0  0  0  0  0  0  0  0
   63.5467   29.3115   51.1444 H   0  0  0  0  0  0  0  0  0  0  0  0
   62.1900   30.6390   49.2340 H   0  0  0  0  0  0  0  0  0  0  0  0
   63.9744   33.9257   48.8750 H   0  0  0  0  0  0  0  0  0  0  0  0
   64.2071   32.4202   47.8932 H   0  0  0  0  0  0  0  0  0  0  0  0
   61.9558   34.9949   48.9682 H   0  0  0  0  0  0  0  0  0  0  0  0
   57.7687   29.1700   42.9653 H   0  0  0  0  0  0  0  0  0  0  0  0
   58.5664   26.8525   42.5108 H   0  0  0  0  0  0  0  0  0  0  0  0
   58.4118   25.1048   44.2840 H   0  0  0  0  0  0  0  0  0  0  0  0
   57.4982   25.8703   47.8092 H   0  0  0  0  0  0  0  0  0  0  0  0
   56.5103   24.8466   46.7125 H   0  0  0  0  0  0  0  0  0  0  0  0
   58.3002   24.6953   46.7125 H   0  0  0  0  0  0  0  0  0  0  0  0
   56.6186   27.9910   46.9706 H   0  0  0  0  0  0  0  0  0  0  0  0
   60.2407   29.3455   46.6001 H   0  0  0  0  0  0  0  0  0  0  0  0
   59.2726   29.4260   45.0891 H   0  0  0  0  0  0  0  0  0  0  0  0
   60.9845   29.9703   45.0891 H   0  0  0  0  0  0  0  0  0  0  0  0
  1  2  1  0
  2  3  1  0
  3  4  2  0
  4  5  1  0
  5  6  2  0
  6  7  1  0
  7  8  2  0
  8  9  1  0
  9 10  1  0
 10 11  1  0
 11 12  1  0
 12 13  2  0
 12 14  1  0
 14 15  1  0
 15 16  1  0
 16 17  2  0
 17 18  1  0
 18 19  1  0
 19 20  1  0
 20 21  1  0
 21 22  2  0
 21 23  1  0
 23 24  1  0
 24 25  2  0
 25 26  1  0
 26 27  2  0
 27 28  1  0
 28 29  1  0
 28 30  2  0
 20 31  2  0
 31 32  1  0
 31 33  1  0
 33 34  1  0
 34 35  2  0
  8  3  1  0
 34 15  1  0
 33 18  2  0
 30 24  1  0
  1 36  1  0
  1 37  1  0
  1 38  1  0
  4 39  1  0
  5 40  1  0
  6 41  1  0
  7 42  1  0
  9 43  1  0
  9 44  1  0
 10 45  1  0
 10 46  1  0
 11 47  1  0
 14 48  1  0
 14 49  1  0
 16 50  1  0
 25 51  1  0
 26 52  1  0
 27 53  1  0
 29 54  1  0
 29 55  1  0
 29 56  1  0
 30 57  1  0
 32 58  1  0
 32 59  1  0
 32 60  1  0
M  CHG  1  23  -1
M  END
>  <UniqueID>  (28) 
25

>  <SMILES>  (28) 
COc1ccccc1CCNC(=O)Cn1cnc2sc(C(=O)[N-]c3cccc(C)c3)c(C)c2c1=O

>  <Energy>  (28) 
96.96342753098827

>  <Genealogy>  (28) 
COc1ccccc1CCNC(=O)Cn1cnc2sc(C(=O)[N-]c3cccc(C)c3)c(C)c2c1=O (protonated)
COc1ccccc1CCNC(=O)Cn1cnc2sc(C(=O)[N-]c3cccc(C)c3)c(C)c2c1=O (3D coordinates assigned)
COc1ccccc1CCNC(=O)Cn1cnc2sc(C(=O)[N-]c3cccc(C)c3)c(C)c2c1=O (optimized conformer: 96.96342753098827 kcal/mol)

>  <smiles>  (28) 
COc1ccccc1CCNC(=O)Cn1cnc2sc(C(=O)Nc3cccc(C)c3)c(C)c2c1=O

>  <score_type>  (28) 
oracle

>  <origin>  (28) 
adg

>  <m_score__min__energy>  (28) 
-10.550000000000001

>  <m_primary>  (28) 
energy

$$$$
28:0
     RDKit          3D

 41 44  0  0  0  0  0  0  0  0999 V2000
   57.0830   31.1470   42.8650 O   0  0  0  0  0  0  0  0  0  0  0  0
   57.1570   31.0030   44.1170 C   0  0  0  0  0  0  0  0  0  0  0  0
   56.5890   31.9590   44.9680 O   0  0  0  0  0  0  0  0  0  0  0  0
   57.1880   33.2240   45.2380 C   0  0  0  0  0  0  0  0  0  0  0  0
   58.5010   33.0390   45.9320 C   0  0  0  0  0  0  0  0  0  0  0  0
   59.6680   33.7530   45.6650 C   0  0  0  0  0  0  0  0  0  0  0  0
   60.7430   33.3250   46.4510 C   0  0  0  0  0  0  0  0  0  0  0  0
   62.0430   33.8380   46.4210 C   0  0  0  0  0  0  0  0  0  0  0  0
   63.0080   33.2850   47.2810 C   0  0  0  0  0  0  0  0  0  0  0  0
   62.6680   32.2320   48.1530 C   0  0  0  0  0  0  0  0  0  0  0  0
   61.3600   31.7220   48.1730 C   0  0  0  0  0  0  0  0  0  0  0  0
   60.4200   32.2870   47.3140 C   0  0  0  0  0  0  0  0  0  0  0  0
   58.8030   31.8770   47.1250 S   0  0  0  0  0  0  0  0  0  0  0  0
   57.8420   29.8220   44.6900 C   0  0  0  0  0  0  0  0  0  0  0  0
   59.2390   29.6920   44.6030 C   0  0  0  0  0  0  0  0  0  0  0  0
   59.8770   28.5720   45.1400 C   0  0  0  0  0  0  0  0  0  0  0  0
   59.1340   27.5750   45.7760 C   0  0  0  0  0  0  0  0  0  0  0  0
   57.7390   27.7000   45.8920 C   0  0  0  0  0  0  0  0  0  0  0  0
   56.9330   26.6920   46.5190 N   0  0  0  0  0  0  0  0  0  0  0  0
   55.8710   25.9430   45.9130 C   0  0  0  0  0  0  0  0  0  0  0  0
   54.6770   26.3370   45.9950 O   0  0  0  0  0  0  0  0  0  0  0  0
   56.1780   24.7350   45.1410 C   0  0  0  0  0  0  0  0  0  0  0  0
   57.3230   24.5160   44.3970 C   0  0  0  0  0  0  0  0  0  0  0  0
   57.1760   23.2570   43.8540 C   0  0  0  0  0  0  0  0  0  0  0  0
   55.9550   22.7890   44.2970 C   0  0  0  0  0  0  0  0  0  0  0  0
   55.3840   23.6920   45.0620 O   0  0  0  0  0  0  0  0  0  0  0  0
   57.1000   28.8140   45.3310 C   0  0  0  0  0  0  0  0  0  0  0  0
   57.3505   33.7583   44.2903 H   0  0  0  0  0  0  0  0  0  0  0  0
   56.5182   33.8057   45.8883 H   0  0  0  0  0  0  0  0  0  0  0  0
   59.7358   34.5606   44.9213 H   0  0  0  0  0  0  0  0  0  0  0  0
   62.3060   34.6588   45.7375 H   0  0  0  0  0  0  0  0  0  0  0  0
   64.0357   33.6772   47.2730 H   0  0  0  0  0  0  0  0  0  0  0  0
   63.4312   31.8072   48.8216 H   0  0  0  0  0  0  0  0  0  0  0  0
   61.0850   30.8987   48.8486 H   0  0  0  0  0  0  0  0  0  0  0  0
   59.8322   30.4761   44.1097 H   0  0  0  0  0  0  0  0  0  0  0  0
   60.9699   28.4745   45.0617 H   0  0  0  0  0  0  0  0  0  0  0  0
   59.6418   26.6900   46.1870 H   0  0  0  0  0  0  0  0  0  0  0  0
   58.1727   25.2021   44.2659 H   0  0  0  0  0  0  0  0  0  0  0  0
   57.8877   22.7318   43.2001 H   0  0  0  0  0  0  0  0  0  0  0  0
   55.5249   21.8079   44.0472 H   0  0  0  0  0  0  0  0  0  0  0  0
   56.0052   28.9009   45.3928 H   0  0  0  0  0  0  0  0  0  0  0  0
  1  2  2  0
  2  3  1  0
  3  4  1  0
  4  5  1  0
  5  6  2  0
  6  7  1  0
  7  8  2  0
  8  9  1  0
  9 10  2  0
 10 11  1  0
 11 12  2  0
 12 13  1  0
  2 14  1  0
 14 15  2  0
 15 16  1  0
 16 17  2  0
 17 18  1  0
 18 19  1  0
 19 20  1  0
 20 21  2  0
 20 22  1  0
 22 23  2  0
 23 24  1  0
 24 25  2  0
 25 26  1  0
 18 27  2  0
 13  5  1  0
 27 14  1  0
 12  7  1  0
 26 22  1  0
  4 28  1  0
  4 29  1  0
  6 30  1  0
  8 31  1  0
  9 32  1  0
 10 33  1  0
 11 34  1  0
 15 35  1  0
 16 36  1  0
 17 37  1  0
 23 38  1  0
 24 39  1  0
 25 40  1  0
 27 41  1  0
M  CHG  1  19  -1
M  END
>  <UniqueID>  (29) 
26

>  <SMILES>  (29) 
O=C(OCc1cc2ccccc2s1)c1cccc([N-]C(=O)c2ccco2)c1

>  <Energy>  (29) 
102.59505925173548

>  <Genealogy>  (29) 
O=C(OCc1cc2ccccc2s1)c1cccc([N-]C(=O)c2ccco2)c1 (protonated)
O=C(OCc1cc2ccccc2s1)c1cccc([N-]C(=O)c2ccco2)c1 (3D coordinates assigned)
O=C(OCc1cc2ccccc2s1)c1cccc([N-]C(=O)c2ccco2)c1 (optimized conformer: 102.59505925173548 kcal/mol)

>  <smiles>  (29) 
O=C(OCc1cc2ccccc2s1)c1cccc(NC(=O)c2ccco2)c1

>  <score_type>  (29) 
oracle

>  <origin>  (29) 
adg

>  <m_score__min__energy>  (29) 
-10.74

>  <m_primary>  (29) 
energy

$$$$
29:0
     RDKit          3D

 45 47  0  0  0  0  0  0  0  0999 V2000
   59.6620   36.2180   46.0440 N   0  0  0  0  0  0  0  0  0  0  0  0
   59.9420   34.6110   46.6150 S   0  0  0  0  0  0  0  0  0  0  0  0
   61.4140   34.3110   46.5480 O   0  0  0  0  0  0  0  0  0  0  0  0
   59.4880   34.4930   48.0430 O   0  0  0  0  0  0  0  0  0  0  0  0
   59.0430   33.4730   45.6180 C   0  0  0  0  0  0  0  0  0  0  0  0
   58.8060   33.7410   44.2620 C   0  0  0  0  0  0  0  0  0  0  0  0
   58.0960   32.8260   43.4800 C   0  0  0  0  0  0  0  0  0  0  0  0
   57.6030   31.6500   44.0520 C   0  0  0  0  0  0  0  0  0  0  0  0
   57.8010   31.3870   45.4120 C   0  0  0  0  0  0  0  0  0  0  0  0
   57.2970   30.1630   45.9640 N   0  0  0  0  0  0  0  0  0  0  0  0
   56.6230   29.1170   45.2490 C   0  0  0  0  0  0  0  0  0  0  0  0
   55.4410   29.3120   44.8640 O   0  0  0  0  0  0  0  0  0  0  0  0
   57.2720   27.7910   44.9800 C   0  0  0  0  0  0  0  0  0  0  0  0
   57.4890   27.1060   46.2090 O   0  0  0  0  0  0  0  0  0  0  0  0
   58.7450   27.0310   46.8210 C   0  0  0  0  0  0  0  0  0  0  0  0
   59.2380   25.9080   47.1150 O   0  0  0  0  0  0  0  0  0  0  0  0
   59.4930   28.2720   47.1210 C   0  0  0  0  0  0  0  0  0  0  0  0
   59.4320   28.8430   48.4040 C   0  0  0  0  0  0  0  0  0  0  0  0
   60.1370   30.0160   48.6930 C   0  0  0  0  0  0  0  0  0  0  0  0
   60.9160   30.6400   47.7060 C   0  0  0  0  0  0  0  0  0  0  0  0
   61.6740   31.9040   48.0210 C   0  0  0  0  0  0  0  0  0  0  0  0
   63.2770   31.9130   47.1560 S   0  0  0  0  0  0  0  0  0  0  0  0
   63.9420   33.1110   48.3310 C   0  0  0  0  0  0  0  0  0  0  0  0
   63.6420   32.6040   49.7260 C   0  0  0  0  0  0  0  0  0  0  0  0
   61.9040   32.0740   49.8280 S   0  0  0  0  0  0  0  0  0  0  0  0
   60.9770   30.0700   46.4220 C   0  0  0  0  0  0  0  0  0  0  0  0
   60.2730   28.8980   46.1330 C   0  0  0  0  0  0  0  0  0  0  0  0
   58.5460   32.2930   46.1880 C   0  0  0  0  0  0  0  0  0  0  0  0
   59.4650   36.8120   46.8820 H   0  0  0  0  0  0  0  0  0  0  0  0
   60.5610   36.5610   45.6380 H   0  0  0  0  0  0  0  0  0  0  0  0
   59.1797   34.6731   43.8131 H   0  0  0  0  0  0  0  0  0  0  0  0
   57.9250   33.0316   42.4130 H   0  0  0  0  0  0  0  0  0  0  0  0
   57.0560   30.9268   43.4293 H   0  0  0  0  0  0  0  0  0  0  0  0
   56.6166   27.1870   44.3353 H   0  0  0  0  0  0  0  0  0  0  0  0
   58.2369   27.9525   44.4772 H   0  0  0  0  0  0  0  0  0  0  0  0
   58.8253   28.3638   49.1865 H   0  0  0  0  0  0  0  0  0  0  0  0
   60.0806   30.4526   49.7010 H   0  0  0  0  0  0  0  0  0  0  0  0
   61.0890   32.7659   47.6675 H   0  0  0  0  0  0  0  0  0  0  0  0
   65.0291   33.2070   48.1932 H   0  0  0  0  0  0  0  0  0  0  0  0
   63.4847   34.0990   48.1738 H   0  0  0  0  0  0  0  0  0  0  0  0
   64.2980   31.7508   49.9535 H   0  0  0  0  0  0  0  0  0  0  0  0
   63.8190   33.4112   50.4520 H   0  0  0  0  0  0  0  0  0  0  0  0
   61.5831   30.5500   45.6396 H   0  0  0  0  0  0  0  0  0  0  0  0
   60.3296   28.4619   45.1247 H   0  0  0  0  0  0  0  0  0  0  0  0
   58.7397   32.0742   47.2485 H   0  0  0  0  0  0  0  0  0  0  0  0
  1  2  1  0
  2  3  2  0
  2  4  2  0
  2  5  1  0
  5  6  2  0
  6  7  1  0
  7  8  2  0
  8  9  1  0
  9 10  1  0
 10 11  1  0
 11 12  2  0
 11 13  1  0
 13 14  1  0
 14 15  1  0
 15 16  2  0
 15 17  1  0
 17 18  2  0
 18 19  1  0
 19 20  2  0
 20 21  1  0
 21 22  1  0
 22 23  1  0
 23 24  1  0
 24 25  1  0
 20 26  1  0
 26 27  2  0
  9 28  2  0
 28  5  1  0
 27 17  1  0
 25 21  1  0
  1 29  1  0
  1 30  1  0
  6 31  1  0
  7 32  1  0
  8 33  1  0
 13 34  1  0
 13 35  1  0
 18 36  1  0
 19 37  1  0
 21 38  1  0
 23 39  1  0
 23 40  1  0
 24 41  1  0
 24 42  1  0
 26 43  1  0
 27 44  1  0
 28 45  1  0
M  CHG  1  10  -1
M  END
>  <UniqueID>  (30) 
27

>  <SMILES>  (30) 
NS(=O)(=O)c1cccc([N-]C(=O)COC(=O)c2ccc(C3SCCS3)cc2)c1

>  <Energy>  (30) 
42.11247777611223

>  <Genealogy>  (30) 
NS(=O)(=O)c1cccc([N-]C(=O)COC(=O)c2ccc(C3SCCS3)cc2)c1 (protonated)
NS(=O)(=O)c1cccc([N-]C(=O)COC(=O)c2ccc(C3SCCS3)cc2)c1 (3D coordinates assigned)
NS(=O)(=O)c1cccc([N-]C(=O)COC(=O)c2ccc(C3SCCS3)cc2)c1 (nonaromatic ring conformer: 42.11247777611223 kcal/mol)

>  <smiles>  (30) 
NS(=O)(=O)c1cccc(NC(=O)COC(=O)c2ccc(C3SCCS3)cc2)c1

>  <score_type>  (30) 
oracle

>  <origin>  (30) 
adg

>  <m_score__min__energy>  (30) 
-10.640000000000001

>  <m_primary>  (30) 
energy

$$$$
30:0
     RDKit          3D

 44 46  0  0  0  0  0  0  0  0999 V2000
   59.3250   25.0323   45.2147 H   0  0  0  0  0  0  0  0  0  0  0  0
   58.8240   25.9360   45.5920 C   0  0  0  0  0  0  0  0  0  0  0  0
   57.5200   25.7890   46.2730 C   0  0  0  0  0  0  0  0  0  0  0  0
   57.3370   26.4240   47.3460 O   0  0  0  0  0  0  0  0  0  0  0  0
   56.4390   24.9100   45.7640 C   0  0  0  0  0  0  0  0  0  0  0  0
   56.7170   23.5730   45.4210 C   0  0  0  0  0  0  0  0  0  0  0  0
   57.7432   23.1873   45.5117 H   0  0  0  0  0  0  0  0  0  0  0  0
   55.6970   22.7330   44.9660 C   0  0  0  0  0  0  0  0  0  0  0  0
   55.9242   21.6921   44.6924 H   0  0  0  0  0  0  0  0  0  0  0  0
   54.3910   23.2120   44.8580 C   0  0  0  0  0  0  0  0  0  0  0  0
   53.5906   22.5490   44.4978 H   0  0  0  0  0  0  0  0  0  0  0  0
   54.0990   24.5330   45.2070 C   0  0  0  0  0  0  0  0  0  0  0  0
   53.0678   24.9068   45.1238 H   0  0  0  0  0  0  0  0  0  0  0  0
   55.1140   25.3820   45.6620 C   0  0  0  0  0  0  0  0  0  0  0  0
   54.7990   26.6960   45.9960 O   0  0  0  0  0  0  0  0  0  0  0  0
   59.4230   27.1230   45.4140 C   0  0  0  0  0  0  0  0  0  0  0  0
   60.5226   27.1511   45.4039 H   0  0  0  0  0  0  0  0  0  0  0  0
   58.6910   28.4000   45.2300 C   0  0  0  0  0  0  0  0  0  0  0  0
   57.4190   28.4700   44.6250 C   0  0  0  0  0  0  0  0  0  0  0  0
   56.9292   27.5494   44.2750 H   0  0  0  0  0  0  0  0  0  0  0  0
   56.7760   29.7020   44.4670 C   0  0  0  0  0  0  0  0  0  0  0  0
   55.7770   29.7425   44.0083 H   0  0  0  0  0  0  0  0  0  0  0  0
   57.3990   30.8890   44.8910 C   0  0  0  0  0  0  0  0  0  0  0  0
   56.7850   32.1450   44.7650 O   0  0  0  0  0  0  0  0  0  0  0  0
   57.2780   33.3420   45.2970 C   0  0  0  0  0  0  0  0  0  0  0  0
   56.7910   33.8310   46.3540 O   0  0  0  0  0  0  0  0  0  0  0  0
   58.3070   34.0400   44.5920 N   0  0  0  0  0  0  0  0  0  0  0  0
   59.2370   34.9670   45.2280 C   0  0  0  0  0  0  0  0  0  0  0  0
   60.0413   35.2167   44.5204 H   0  0  0  0  0  0  0  0  0  0  0  0
   58.6926   35.8782   45.5166 H   0  0  0  0  0  0  0  0  0  0  0  0
   59.8350   34.3440   46.4590 C   0  0  0  0  0  0  0  0  0  0  0  0
   59.2860   34.6070   47.7230 C   0  0  0  0  0  0  0  0  0  0  0  0
   58.4021   35.2555   47.8130 H   0  0  0  0  0  0  0  0  0  0  0  0
   59.8440   34.0620   48.8380 N   0  0  0  0  0  0  0  0  0  0  0  0
   60.9390   33.2600   48.7700 C   0  0  0  0  0  0  0  0  0  0  0  0
   61.3652   32.8328   49.6897 H   0  0  0  0  0  0  0  0  0  0  0  0
   61.5230   32.9780   47.5350 C   0  0  0  0  0  0  0  0  0  0  0  0
   62.4110   32.3315   47.4755 H   0  0  0  0  0  0  0  0  0  0  0  0
   60.9700   33.5240   46.3750 C   0  0  0  0  0  0  0  0  0  0  0  0
   61.4241   33.3113   45.3959 H   0  0  0  0  0  0  0  0  0  0  0  0
   58.6570   30.8200   45.4950 C   0  0  0  0  0  0  0  0  0  0  0  0
   59.1431   31.7410   45.8492 H   0  0  0  0  0  0  0  0  0  0  0  0
   59.3030   29.5910   45.6530 C   0  0  0  0  0  0  0  0  0  0  0  0
   60.3013   29.5561   46.1135 H   0  0  0  0  0  0  0  0  0  0  0  0
  1  2  1  0
  2  3  1  0
  3  4  2  0
  3  5  1  0
  5  6  2  0
  6  7  1  0
  6  8  1  0
  8  9  1  0
  8 10  2  0
 10 11  1  0
 10 12  1  0
 12 13  1  0
 12 14  2  0
 14 15  1  0
  2 16  2  0
 16 17  1  0
 16 18  1  0
 18 19  2  0
 19 20  1  0
 19 21  1  0
 21 22  1  0
 21 23  2  0
 23 24  1  0
 24 25  1  0
 25 26  2  0
 25 27  1  0
 27 28  1  0
 28 29  1  0
 28 30  1  0
 28 31  1  0
 31 32  2  0
 32 33  1  0
 32 34  1  0
 34 35  2  0
 35 36  1  0
 35 37  1  0
 37 38  1  0
 37 39  2  0
 39 40  1  0
 23 41  1  0
 41 42  1  0
 41 43  2  0
 43 44  1  0
 14  5  1  0
 43 18  1  0
 39 31  1  0
M  CHG  2  15  -1  27  -1
M  END
>  <UniqueID>  (31) 
28

>  <SMILES>  (31) 
O=C([N-]Cc1cccnc1)Oc1ccc(/C=C/C(=O)c2ccccc2[O-])cc1

>  <Energy>  (31) 
58.066490933471606

>  <Genealogy>  (31) 
O=C([N-]Cc1cccnc1)Oc1ccc(C=CC(=O)c2ccccc2[O-])cc1 (protonated)
O=C([N-]Cc1cccnc1)Oc1ccc(/C=C/C(=O)c2ccccc2[O-])cc1 (cis-trans isomerization)
O=C([N-]Cc1cccnc1)Oc1ccc(/C=C/C(=O)c2ccccc2[O-])cc1 (3D coordinates assigned)
O=C([N-]Cc1cccnc1)Oc1ccc(/C=C/C(=O)c2ccccc2[O-])cc1 (optimized conformer: 58.066490933471606 kcal/mol)

>  <smiles>  (31) 
O=C(NCc1cccnc1)Oc1ccc(C=CC(=O)c2ccccc2O)cc1

>  <score_type>  (31) 
oracle

>  <origin>  (31) 
adg

>  <m_score__min__energy>  (31) 
-13.34

>  <m_primary>  (31) 
energy

$$$$
31:0
     RDKit          3D

 62 64  0  0  0  0  0  0  0  0999 V2000
   63.0770   31.4730   47.1180 C   0  0  0  0  0  0  0  0  0  0  0  0
   62.1030   32.0750   48.0860 C   0  0  0  0  0  0  0  0  0  0  0  0
   62.3940   32.1210   49.4530 C   0  0  0  0  0  0  0  0  0  0  0  0
   61.4870   32.6830   50.3450 C   0  0  0  0  0  0  0  0  0  0  0  0
   60.2750   33.2330   49.8870 C   0  0  0  0  0  0  0  0  0  0  0  0
   59.3320   33.8230   50.9030 C   0  0  0  0  0  0  0  0  0  0  0  0
   59.9900   33.2340   48.4980 C   0  0  0  0  0  0  0  0  0  0  0  0
   58.7200   33.8360   47.9270 C   0  0  0  0  0  0  0  0  0  0  0  0
   58.4720   33.3790   46.4990 C   0  0  0  0  0  0  0  0  0  0  0  0
   57.8080   32.1620   46.2750 C   0  0  0  0  0  0  0  0  0  0  0  0
   57.6090   31.6730   44.9750 C   0  0  0  0  0  0  0  0  0  0  0  0
   56.9770   30.3470   44.8030 C   0  0  0  0  0  0  0  0  0  0  0  0
   55.7490   30.2690   44.5340 O   0  0  0  0  0  0  0  0  0  0  0  0
   57.7400   29.1610   45.0170 N   0  0  0  0  0  0  0  0  0  0  0  0
   58.3440   28.6530   46.5590 S   0  0  0  0  0  0  0  0  0  0  0  0
   57.5520   27.4680   47.0390 O   0  0  0  0  0  0  0  0  0  0  0  0
   58.2290   29.7670   47.5620 O   0  0  0  0  0  0  0  0  0  0  0  0
   60.0700   28.2080   46.3970 C   0  0  0  0  0  0  0  0  0  0  0  0
   60.7140   27.8740   47.7460 C   0  0  0  0  0  0  0  0  0  0  0  0
   59.8320   28.2310   48.8570 N   0  0  0  0  0  0  0  0  0  0  0  0
   60.2850   28.9480   50.0220 C   0  0  0  0  0  0  0  0  0  0  0  0
   61.5190   28.9970   50.2840 O   0  0  0  0  0  0  0  0  0  0  0  0
   59.3260   29.6460   50.9190 C   0  0  0  0  0  0  0  0  0  0  0  0
   58.3680   30.5440   50.4070 C   0  0  0  0  0  0  0  0  0  0  0  0
   57.4690   31.1860   51.2620 C   0  0  0  0  0  0  0  0  0  0  0  0
   57.5260   30.9600   52.6370 C   0  0  0  0  0  0  0  0  0  0  0  0
   58.4720   30.0760   53.1640 C   0  0  0  0  0  0  0  0  0  0  0  0
   59.3760   29.4290   52.3120 C   0  0  0  0  0  0  0  0  0  0  0  0
   58.0700   32.4460   43.8850 C   0  0  0  0  0  0  0  0  0  0  0  0
   57.8970   32.0140   42.4560 C   0  0  0  0  0  0  0  0  0  0  0  0
   58.7150   33.6200   44.1230 N   0  0  0  0  0  0  0  0  0  0  0  0
   58.9360   34.1060   45.3750 C   0  0  0  0  0  0  0  0  0  0  0  0
   59.6760   35.4030   45.5070 C   0  0  0  0  0  0  0  0  0  0  0  0
   60.9030   32.6220   47.6190 C   0  0  0  0  0  0  0  0  0  0  0  0
   63.8847   30.9738   47.6733 H   0  0  0  0  0  0  0  0  0  0  0  0
   62.5582   30.7378   46.4853 H   0  0  0  0  0  0  0  0  0  0  0  0
   63.5026   32.2658   46.4853 H   0  0  0  0  0  0  0  0  0  0  0  0
   63.3446   31.7108   49.8245 H   0  0  0  0  0  0  0  0  0  0  0  0
   61.7193   32.6978   51.4201 H   0  0  0  0  0  0  0  0  0  0  0  0
   59.6954   33.5956   51.9160 H   0  0  0  0  0  0  0  0  0  0  0  0
   59.2824   34.9135   50.7674 H   0  0  0  0  0  0  0  0  0  0  0  0
   58.3296   33.3907   50.7674 H   0  0  0  0  0  0  0  0  0  0  0  0
   57.8683   33.5296   48.5520 H   0  0  0  0  0  0  0  0  0  0  0  0
   58.8325   34.9302   47.9214 H   0  0  0  0  0  0  0  0  0  0  0  0
   57.4376   31.5822   47.1333 H   0  0  0  0  0  0  0  0  0  0  0  0
   60.1484   27.3289   45.7404 H   0  0  0  0  0  0  0  0  0  0  0  0
   60.6022   29.0735   45.9755 H   0  0  0  0  0  0  0  0  0  0  0  0
   60.9228   26.7947   47.7863 H   0  0  0  0  0  0  0  0  0  0  0  0
   61.6444   28.4533   47.8403 H   0  0  0  0  0  0  0  0  0  0  0  0
   58.8220   28.0300   48.7340 H   0  0  0  0  0  0  0  0  0  0  0  0
   58.3279   30.7409   49.3255 H   0  0  0  0  0  0  0  0  0  0  0  0
   56.7141   31.8716   50.8496 H   0  0  0  0  0  0  0  0  0  0  0  0
   56.8253   31.4783   53.3081 H   0  0  0  0  0  0  0  0  0  0  0  0
   58.5064   29.8886   54.2474 H   0  0  0  0  0  0  0  0  0  0  0  0
   60.1301   28.7470   52.7319 H   0  0  0  0  0  0  0  0  0  0  0  0
   57.4882   30.9932   42.4285 H   0  0  0  0  0  0  0  0  0  0  0  0
   57.2043   32.7002   41.9468 H   0  0  0  0  0  0  0  0  0  0  0  0
   58.8719   32.0324   41.9468 H   0  0  0  0  0  0  0  0  0  0  0  0
   59.8117   35.6409   46.5723 H   0  0  0  0  0  0  0  0  0  0  0  0
   60.6597   35.3148   45.0228 H   0  0  0  0  0  0  0  0  0  0  0  0
   59.0995   36.2050   45.0228 H   0  0  0  0  0  0  0  0  0  0  0  0
   60.6688   32.5729   46.5453 H   0  0  0  0  0  0  0  0  0  0  0  0
  1  2  1  0
  2  3  2  0
  3  4  1  0
  4  5  2  0
  5  6  1  0
  5  7  1  0
  7  8  1  0
  8  9  1  0
  9 10  2  0
 10 11  1  0
 11 12  1  0
 12 13  2  0
 12 14  1  0
 14 15  1  0
 15 16  2  0
 15 17  2  0
 15 18  1  0
 18 19  1  0
 19 20  1  0
 20 21  1  0
 21 22  2  0
 21 23  1  0
 23 24  2  0
 24 25  1  0
 25 26  2  0
 26 27  1  0
 27 28  2  0
 11 29  2  0
 29 30  1  0
 29 31  1  0
 31 32  2  0
 32 33  1  0
  7 34  2  0
 34  2  1  0
 32  9  1  0
 28 23  1  0
  1 35  1  0
  1 36  1  0
  1 37  1  0
  3 38  1  0
  4 39  1  0
  6 40  1  0
  6 41  1  0
  6 42  1  0
  8 43  1  0
  8 44  1  0
 10 45  1  0
 18 46  1  0
 18 47  1  0
 19 48  1  0
 19 49  1  0
 20 50  1  0
 24 51  1  0
 25 52  1  0
 26 53  1  0
 27 54  1  0
 28 55  1  0
 30 56  1  0
 30 57  1  0
 30 58  1  0
 33 59  1  0
 33 60  1  0
 33 61  1  0
 34 62  1  0
M  CHG  1  14  -1
M  END
>  <UniqueID>  (32) 
29

>  <SMILES>  (32) 
Cc1ccc(C)c(Cc2cc(C(=O)[N-]S(=O)(=O)CCNC(=O)c3ccccc3)c(C)nc2C)c1

>  <Energy>  (32) 
63.47555586128149

>  <Genealogy>  (32) 
Cc1ccc(C)c(Cc2cc(C(=O)[N-]S(=O)(=O)CCNC(=O)c3ccccc3)c(C)nc2C)c1 (protonated)
Cc1ccc(C)c(Cc2cc(C(=O)[N-]S(=O)(=O)CCNC(=O)c3ccccc3)c(C)nc2C)c1 (3D coordinates assigned)
Cc1ccc(C)c(Cc2cc(C(=O)[N-]S(=O)(=O)CCNC(=O)c3ccccc3)c(C)nc2C)c1 (optimized conformer: 63.47555586128149 kcal/mol)

>  <smiles>  (32) 
Cc1ccc(C)c(Cc2cc(C(=O)NS(=O)(=O)CCNC(=O)c3ccccc3)c(C)nc2C)c1

>  <score_type>  (32) 
oracle

>  <origin>  (32) 
adg

>  <m_score__min__energy>  (32) 
-11.880000000000001

>  <m_primary>  (32) 
energy

$$$$
32:0
     RDKit          3D

 54 56  0  0  0  0  0  0  0  0999 V2000
   60.0660   33.5360   50.3710 C   0  0  0  0  0  0  0  0  0  0  0  0
   59.5620   33.5970   48.9670 C   0  0  0  0  0  0  0  0  0  0  0  0
   60.1440   34.3080   47.9270 C   0  0  0  0  0  0  0  0  0  0  0  0
   59.5090   34.1050   46.6960 C   0  0  0  0  0  0  0  0  0  0  0  0
   58.4350   33.2180   46.7650 C   0  0  0  0  0  0  0  0  0  0  0  0
   57.5770   32.7670   45.6500 C   0  0  0  0  0  0  0  0  0  0  0  0
   56.8930   33.6310   45.0340 O   0  0  0  0  0  0  0  0  0  0  0  0
   57.4830   31.3620   45.2920 N   0  0  1  0  0  0  0  0  0  0  0  0
   56.6120   31.1690   44.1040 C   0  0  0  0  0  0  0  0  0  0  0  0
   55.8330   29.8670   44.1120 C   0  0  0  0  0  0  0  0  0  0  0  0
   55.1360   29.5640   43.1090 O   0  0  0  0  0  0  0  0  0  0  0  0
   55.8060   28.9900   45.2490 N   0  0  0  0  0  0  0  0  0  0  0  0
   56.8640   28.0760   45.6690 C   0  0  0  0  0  0  0  0  0  0  0  0
   56.3780   26.6620   45.6620 C   0  0  0  0  0  0  0  0  0  0  0  0
   57.1230   25.5530   45.3130 C   0  0  0  0  0  0  0  0  0  0  0  0
   56.2720   24.4770   45.4530 C   0  0  0  0  0  0  0  0  0  0  0  0
   55.0640   24.9950   45.8760 C   0  0  0  0  0  0  0  0  0  0  0  0
   55.1570   26.3010   45.9880 O   0  0  0  0  0  0  0  0  0  0  0  0
   58.8140   30.7240   45.1250 C   0  0  0  0  0  0  0  0  0  0  0  0
   59.4540   30.4060   46.4570 C   0  0  0  0  0  0  0  0  0  0  0  0
   58.7830   29.6260   47.4060 C   0  0  0  0  0  0  0  0  0  0  0  0
   59.3850   29.3240   48.6300 C   0  0  0  0  0  0  0  0  0  0  0  0
   60.6790   29.7990   48.9390 C   0  0  0  0  0  0  0  0  0  0  0  0
   61.3030   29.4980   50.2210 N   0  0  0  0  0  0  0  0  0  0  0  0
   62.2620   30.4320   50.8250 C   0  0  0  0  0  0  0  0  0  0  0  0
   60.9930   28.2480   50.9290 C   0  0  0  0  0  0  0  0  0  0  0  0
   61.3480   30.5770   47.9690 C   0  0  0  0  0  0  0  0  0  0  0  0
   60.7430   30.8740   46.7460 C   0  0  0  0  0  0  0  0  0  0  0  0
   58.2870   32.6870   48.3570 S   0  0  0  0  0  0  0  0  0  0  0  0
   59.2216   33.6382   51.0685 H   0  0  0  0  0  0  0  0  0  0  0  0
   60.5660   32.5708   50.5395 H   0  0  0  0  0  0  0  0  0  0  0  0
   60.7818   34.3541   50.5395 H   0  0  0  0  0  0  0  0  0  0  0  0
   61.0166   34.9651   48.0569 H   0  0  0  0  0  0  0  0  0  0  0  0
   59.8263   34.5972   45.7649 H   0  0  0  0  0  0  0  0  0  0  0  0
   57.0130   30.8620   46.0830 H   0  0  0  0  0  0  0  0  0  0  0  0
   55.8937   32.0011   44.0635 H   0  0  0  0  0  0  0  0  0  0  0  0
   57.2747   31.1367   43.2266 H   0  0  0  0  0  0  0  0  0  0  0  0
   57.7153   28.1681   44.9785 H   0  0  0  0  0  0  0  0  0  0  0  0
   57.1708   28.3383   46.6923 H   0  0  0  0  0  0  0  0  0  0  0  0
   58.1746   25.5322   44.9909 H   0  0  0  0  0  0  0  0  0  0  0  0
   56.5080   23.4191   45.2655 H   0  0  0  0  0  0  0  0  0  0  0  0
   54.1606   24.4040   46.0872 H   0  0  0  0  0  0  0  0  0  0  0  0
   58.6927   29.7904   44.5561 H   0  0  0  0  0  0  0  0  0  0  0  0
   59.4674   31.4297   44.5910 H   0  0  0  0  0  0  0  0  0  0  0  0
   57.7737   29.2478   47.1863 H   0  0  0  0  0  0  0  0  0  0  0  0
   58.8439   28.7079   49.3632 H   0  0  0  0  0  0  0  0  0  0  0  0
   62.1959   30.3676   51.9211 H   0  0  0  0  0  0  0  0  0  0  0  0
   63.2809   30.1706   50.5031 H   0  0  0  0  0  0  0  0  0  0  0  0
   62.0276   31.4574   50.5031 H   0  0  0  0  0  0  0  0  0  0  0  0
   61.0359   28.4211   52.0145 H   0  0  0  0  0  0  0  0  0  0  0  0
   59.9838   27.9099   50.6512 H   0  0  0  0  0  0  0  0  0  0  0  0
   61.7273   27.4775   50.6512 H   0  0  0  0  0  0  0  0  0  0  0  0
   62.3596   30.9543   48.1796 H   0  0  0  0  0  0  0  0  0  0  0  0
   61.2825   31.4802   46.0034 H   0  0  0  0  0  0  0  0  0  0  0  0
  1  2  1  0
  2  3  2  0
  3  4  1  0
  4  5  2  0
  5  6  1  0
  6  7  2  0
  6  8  1  0
  8  9  1  0
  9 10  1  0
 10 11  2  0
 10 12  1  0
 12 13  1  0
 13 14  1  0
 14 15  2  0
 15 16  1  0
 16 17  2  0
 17 18  1  0
  8 19  1  0
 19 20  1  0
 20 21  2  0
 21 22  1  0
 22 23  2  0
 23 24  1  0
 24 25  1  0
 24 26  1  0
 23 27  1  0
 27 28  2  0
  5 29  1  0
 29  2  1  0
 18 14  1  0
 28 20  1  0
  1 30  1  0
  1 31  1  0
  1 32  1  0
  3 33  1  0
  4 34  1  0
  8 35  1  1
  9 36  1  0
  9 37  1  0
 13 38  1  0
 13 39  1  0
 15 40  1  0
 16 41  1  0
 17 42  1  0
 19 43  1  0
 19 44  1  0
 21 45  1  0
 22 46  1  0
 25 47  1  0
 25 48  1  0
 25 49  1  0
 26 50  1  0
 26 51  1  0
 26 52  1  0
 27 53  1  0
 28 54  1  0
M  CHG  2   8   1  12  -1
M  END
>  <UniqueID>  (33) 
30

>  <SMILES>  (33) 
Cc1ccc(C(=O)[N@@H+](CC(=O)[N-]Cc2ccco2)Cc2ccc(N(C)C)cc2)s1

>  <Energy>  (33) 
110.39875886006728

>  <Genealogy>  (33) 
Cc1ccc(C(=O)[NH+](CC(=O)[N-]Cc2ccco2)Cc2ccc(N(C)C)cc2)s1 (protonated)
Cc1ccc(C(=O)[N@@H+](CC(=O)[N-]Cc2ccco2)Cc2ccc(N(C)C)cc2)s1 (chirality)
Cc1ccc(C(=O)[N@@H+](CC(=O)[N-]Cc2ccco2)Cc2ccc(N(C)C)cc2)s1 (3D coordinates assigned)
Cc1ccc(C(=O)[N@@H+](CC(=O)[N-]Cc2ccco2)Cc2ccc(N(C)C)cc2)s1 (optimized conformer: 110.39875886006728 kcal/mol)

>  <smiles>  (33) 
Cc1ccc(C(=O)N(CC(=O)NCc2ccco2)Cc2ccc(N(C)C)cc2)s1

>  <score_type>  (33) 
oracle

>  <origin>  (33) 
adg

>  <m_score__min__energy>  (33) 
-8.6899999999999995

>  <m_primary>  (33) 
energy

$$$$
33:0
     RDKit          3D

 46 48  0  0  0  0  0  0  0  0999 V2000
   62.5370   34.5110   49.6450 C   0  0  0  0  0  0  0  0  0  0  0  0
   61.7640   33.7500   48.6590 N   0  0  0  0  0  0  0  0  0  0  0  0
   60.3000   33.8450   48.8390 C   0  0  0  0  0  0  0  0  0  0  0  0
   59.5120   33.9530   47.5510 C   0  0  0  0  0  0  0  0  0  0  0  0
   58.2420   33.3600   47.4320 C   0  0  0  0  0  0  0  0  0  0  0  0
   57.5170   33.4730   46.2410 C   0  0  0  0  0  0  0  0  0  0  0  0
   58.0390   34.2030   45.1700 C   0  0  0  0  0  0  0  0  0  0  0  0
   59.2790   34.8330   45.2940 C   0  0  0  0  0  0  0  0  0  0  0  0
   60.0090   34.7180   46.4810 C   0  0  0  0  0  0  0  0  0  0  0  0
   62.3650   32.1160   48.4640 S   0  0  0  0  0  0  0  0  0  0  0  0
   62.7710   31.5890   49.8120 O   0  0  0  0  0  0  0  0  0  0  0  0
   63.5910   32.1410   47.5930 O   0  0  0  0  0  0  0  0  0  0  0  0
   61.1750   31.0020   47.7760 C   0  0  0  0  0  0  0  0  0  0  0  0
   60.7690   31.1400   46.4410 C   0  0  0  0  0  0  0  0  0  0  0  0
   59.8370   30.2570   45.8900 C   0  0  0  0  0  0  0  0  0  0  0  0
   59.2650   29.2430   46.6780 C   0  0  0  0  0  0  0  0  0  0  0  0
   58.3310   28.2990   46.1270 N   0  0  0  0  0  0  0  0  0  0  0  0
   58.2960   26.9070   46.4850 C   0  0  0  0  0  0  0  0  0  0  0  0
   59.3310   26.3570   46.9500 O   0  0  0  0  0  0  0  0  0  0  0  0
   57.0730   26.0960   46.2660 C   0  0  0  0  0  0  0  0  0  0  0  0
   57.1150   24.6910   46.3030 C   0  0  0  0  0  0  0  0  0  0  0  0
   55.9530   23.9480   46.0850 C   0  0  0  0  0  0  0  0  0  0  0  0
   54.7540   24.6140   45.8240 C   0  0  0  0  0  0  0  0  0  0  0  0
   53.6970   23.9590   45.6260 O   0  0  0  0  0  0  0  0  0  0  0  0
   54.7260   25.9710   45.7830 N   0  0  0  0  0  0  0  0  0  0  0  0
   55.8440   26.7180   45.9920 C   0  0  0  0  0  0  0  0  0  0  0  0
   59.6540   29.1220   48.0200 C   0  0  0  0  0  0  0  0  0  0  0  0
   60.5840   30.0090   48.5700 C   0  0  0  0  0  0  0  0  0  0  0  0
   62.2332   34.2120   50.6591 H   0  0  0  0  0  0  0  0  0  0  0  0
   63.6090   34.3060   49.5079 H   0  0  0  0  0  0  0  0  0  0  0  0
   62.3488   35.5861   49.5079 H   0  0  0  0  0  0  0  0  0  0  0  0
   59.9611   32.9456   49.3741 H   0  0  0  0  0  0  0  0  0  0  0  0
   60.1143   34.7748   49.3967 H   0  0  0  0  0  0  0  0  0  0  0  0
   57.8165   32.8041   48.2805 H   0  0  0  0  0  0  0  0  0  0  0  0
   56.5348   32.9866   46.1475 H   0  0  0  0  0  0  0  0  0  0  0  0
   57.4735   34.2813   44.2298 H   0  0  0  0  0  0  0  0  0  0  0  0
   59.6823   35.4209   44.4563 H   0  0  0  0  0  0  0  0  0  0  0  0
   60.9781   35.2292   46.5784 H   0  0  0  0  0  0  0  0  0  0  0  0
   61.1870   31.9487   45.8235 H   0  0  0  0  0  0  0  0  0  0  0  0
   59.5490   30.3558   44.8330 H   0  0  0  0  0  0  0  0  0  0  0  0
   57.7170   28.6200   45.3450 H   0  0  0  0  0  0  0  0  0  0  0  0
   58.0658   24.1758   46.5042 H   0  0  0  0  0  0  0  0  0  0  0  0
   55.9820   22.8489   46.1186 H   0  0  0  0  0  0  0  0  0  0  0  0
   55.7848   27.8154   45.9461 H   0  0  0  0  0  0  0  0  0  0  0  0
   59.2246   28.3241   48.6437 H   0  0  0  0  0  0  0  0  0  0  0  0
   60.8540   29.9273   49.6332 H   0  0  0  0  0  0  0  0  0  0  0  0
  1  2  1  0
  2  3  1  0
  3  4  1  0
  4  5  2  0
  5  6  1  0
  6  7  2  0
  7  8  1  0
  8  9  2  0
  2 10  1  0
 10 11  2  0
 10 12  2  0
 10 13  1  0
 13 14  2  0
 14 15  1  0
 15 16  2  0
 16 17  1  0
 17 18  1  0
 18 19  2  0
 18 20  1  0
 20 21  1  0
 21 22  2  0
 22 23  1  0
 23 24  2  0
 23 25  1  0
 25 26  1  0
 16 27  1  0
 27 28  2  0
  9  4  1  0
 28 13  1  0
 26 20  2  0
  1 29  1  0
  1 30  1  0
  1 31  1  0
  3 32  1  0
  3 33  1  0
  5 34  1  0
  6 35  1  0
  7 36  1  0
  8 37  1  0
  9 38  1  0
 14 39  1  0
 15 40  1  0
 17 41  1  0
 21 42  1  0
 22 43  1  0
 26 44  1  0
 27 45  1  0
 28 46  1  0
M  CHG  1  25  -1
M  END
>  <UniqueID>  (34) 
31

>  <SMILES>  (34) 
CN(Cc1ccccc1)S(=O)(=O)c1ccc(NC(=O)c2ccc(=O)[n-]c2)cc1

>  <Energy>  (34) 
57.254322828728036

>  <Genealogy>  (34) 
CN(Cc1ccccc1)S(=O)(=O)c1ccc(NC(=O)c2ccc(=O)[n-]c2)cc1 (protonated)
CN(Cc1ccccc1)S(=O)(=O)c1ccc(NC(=O)c2ccc(=O)[n-]c2)cc1 (3D coordinates assigned)
CN(Cc1ccccc1)S(=O)(=O)c1ccc(NC(=O)c2ccc(=O)[n-]c2)cc1 (optimized conformer: 57.254322828728036 kcal/mol)

>  <smiles>  (34) 
CN(Cc1ccccc1)S(=O)(=O)c1ccc(NC(=O)c2ccc(=O)[nH]c2)cc1

>  <score_type>  (34) 
oracle

>  <origin>  (34) 
adg

>  <m_score__min__energy>  (34) 
-10.82

>  <m_primary>  (34) 
energy

$$$$
34:0
     RDKit          3D

 60 62  0  0  0  0  0  0  0  0999 V2000
   57.5970   21.0970   43.0810 C   0  0  0  0  0  0  0  0  0  0  0  0
   56.2570   21.5710   42.9950 O   0  0  0  0  0  0  0  0  0  0  0  0
   55.8900   22.8660   43.3800 C   0  0  0  0  0  0  0  0  0  0  0  0
   54.7880   23.3500   42.9980 O   0  0  0  0  0  0  0  0  0  0  0  0
   56.7950   23.6640   44.2350 C   0  0  0  0  0  0  0  0  0  0  0  0
   57.1910   23.1910   45.4990 C   0  0  0  0  0  0  0  0  0  0  0  0
   58.0510   23.9490   46.3000 C   0  0  0  0  0  0  0  0  0  0  0  0
   58.5390   25.1820   45.8540 C   0  0  0  0  0  0  0  0  0  0  0  0
   59.4080   25.9280   46.7200 N   0  0  0  0  0  0  0  0  0  0  0  0
   59.0980   27.1420   47.4180 C   0  0  0  0  0  0  0  0  0  0  0  0
   57.9290   27.3760   47.8270 O   0  0  0  0  0  0  0  0  0  0  0  0
   60.1590   28.1810   47.5890 C   0  0  0  0  0  0  0  0  0  0  0  0
   59.5990   29.5100   47.3440 N   0  0  0  0  0  0  0  0  0  0  0  0
   59.6980   30.5340   48.3440 C   0  0  0  0  0  0  0  0  0  0  0  0
   58.5700   30.8670   49.1060 C   0  0  0  0  0  0  0  0  0  0  0  0
   58.6500   31.8470   50.0950 C   0  0  0  0  0  0  0  0  0  0  0  0
   59.8630   32.5080   50.3380 C   0  0  0  0  0  0  0  0  0  0  0  0
   59.9500   33.5830   51.3820 C   0  0  0  0  0  0  0  0  0  0  0  0
   60.9870   32.1980   49.5580 C   0  0  0  0  0  0  0  0  0  0  0  0
   60.9140   31.2100   48.5560 C   0  0  0  0  0  0  0  0  0  0  0  0
   62.0170   30.8870   47.7490 O   0  0  0  0  0  0  0  0  0  0  0  0
   63.1040   31.7630   47.4760 C   0  0  0  0  0  0  0  0  0  0  0  0
   58.7470   29.8200   45.8620 S   0  0  0  0  0  0  0  0  0  0  0  0
   57.3710   29.2190   45.9200 O   0  0  0  0  0  0  0  0  0  0  0  0
   59.4980   29.1950   44.7200 O   0  0  0  0  0  0  0  0  0  0  0  0
   58.5900   31.5620   45.6340 C   0  0  0  0  0  0  0  0  0  0  0  0
   59.6330   32.4190   46.0220 C   0  0  0  0  0  0  0  0  0  0  0  0
   59.5080   33.8000   45.8550 C   0  0  0  0  0  0  0  0  0  0  0  0
   58.3420   34.3350   45.3030 C   0  0  0  0  0  0  0  0  0  0  0  0
   57.2960   33.4920   44.9170 C   0  0  0  0  0  0  0  0  0  0  0  0
   57.4090   32.0970   45.0800 C   0  0  0  0  0  0  0  0  0  0  0  0
   56.3750   31.2200   44.7070 O   0  0  0  0  0  0  0  0  0  0  0  0
   56.3620   30.4450   43.5120 C   0  0  0  0  0  0  0  0  0  0  0  0
   58.1220   25.6730   44.6050 C   0  0  0  0  0  0  0  0  0  0  0  0
   57.2650   24.9150   43.7990 C   0  0  0  0  0  0  0  0  0  0  0  0
   57.8830   20.9958   44.1383 H   0  0  0  0  0  0  0  0  0  0  0  0
   57.6721   20.1178   42.5855 H   0  0  0  0  0  0  0  0  0  0  0  0
   58.2711   21.8112   42.5855 H   0  0  0  0  0  0  0  0  0  0  0  0
   56.8222   22.2194   45.8595 H   0  0  0  0  0  0  0  0  0  0  0  0
   58.3466   23.5721   47.2902 H   0  0  0  0  0  0  0  0  0  0  0  0
   60.5528   28.1347   48.6151 H   0  0  0  0  0  0  0  0  0  0  0  0
   60.9701   27.9918   46.8704 H   0  0  0  0  0  0  0  0  0  0  0  0
   57.6154   30.3521   48.9229 H   0  0  0  0  0  0  0  0  0  0  0  0
   57.7586   32.1025   50.6867 H   0  0  0  0  0  0  0  0  0  0  0  0
   59.9131   33.1266   52.3822 H   0  0  0  0  0  0  0  0  0  0  0  0
   60.8956   34.1326   51.2644 H   0  0  0  0  0  0  0  0  0  0  0  0
   59.1051   34.2775   51.2644 H   0  0  0  0  0  0  0  0  0  0  0  0
   61.9338   32.7309   49.7301 H   0  0  0  0  0  0  0  0  0  0  0  0
   63.5392   32.1137   48.4234 H   0  0  0  0  0  0  0  0  0  0  0  0
   63.8703   31.2270   46.8967 H   0  0  0  0  0  0  0  0  0  0  0  0
   62.7431   32.6257   46.8967 H   0  0  0  0  0  0  0  0  0  0  0  0
   60.5518   32.0009   46.4591 H   0  0  0  0  0  0  0  0  0  0  0  0
   60.3285   34.4668   46.1585 H   0  0  0  0  0  0  0  0  0  0  0  0
   58.2465   35.4229   45.1716 H   0  0  0  0  0  0  0  0  0  0  0  0
   56.3799   33.9198   44.4837 H   0  0  0  0  0  0  0  0  0  0  0  0
   56.3441   29.3755   43.7687 H   0  0  0  0  0  0  0  0  0  0  0  0
   55.4679   30.6955   42.9222 H   0  0  0  0  0  0  0  0  0  0  0  0
   57.2640   30.6654   42.9222 H   0  0  0  0  0  0  0  0  0  0  0  0
   58.4707   26.6574   44.2594 H   0  0  0  0  0  0  0  0  0  0  0  0
   56.9567   25.3013   42.8163 H   0  0  0  0  0  0  0  0  0  0  0  0
  1  2  1  0
  2  3  1  0
  3  4  2  0
  3  5  1  0
  5  6  2  0
  6  7  1  0
  7  8  2  0
  8  9  1  0
  9 10  1  0
 10 11  2  0
 10 12  1  0
 12 13  1  0
 13 14  1  0
 14 15  2  0
 15 16  1  0
 16 17  2  0
 17 18  1  0
 17 19  1  0
 19 20  2  0
 20 21  1  0
 21 22  1  0
 13 23  1  0
 23 24  2  0
 23 25  2  0
 23 26  1  0
 26 27  2  0
 27 28  1  0
 28 29  2  0
 29 30  1  0
 30 31  2  0
 31 32  1  0
 32 33  1  0
  8 34  1  0
 34 35  2  0
 35  5  1  0
 20 14  1  0
 31 26  1  0
  1 36  1  0
  1 37  1  0
  1 38  1  0
  6 39  1  0
  7 40  1  0
 12 41  1  0
 12 42  1  0
 15 43  1  0
 16 44  1  0
 18 45  1  0
 18 46  1  0
 18 47  1  0
 19 48  1  0
 22 49  1  0
 22 50  1  0
 22 51  1  0
 27 52  1  0
 28 53  1  0
 29 54  1  0
 30 55  1  0
 33 56  1  0
 33 57  1  0
 33 58  1  0
 34 59  1  0
 35 60  1  0
M  CHG  1   9  -1
M  END
>  <UniqueID>  (35) 
32

>  <SMILES>  (35) 
COC(=O)c1ccc([N-]C(=O)CN(c2ccc(C)cc2OC)S(=O)(=O)c2ccccc2OC)cc1

>  <Energy>  (35) 
65.49409868521789

>  <Genealogy>  (35) 
COC(=O)c1ccc([N-]C(=O)CN(c2ccc(C)cc2OC)S(=O)(=O)c2ccccc2OC)cc1 (protonated)
COC(=O)c1ccc([N-]C(=O)CN(c2ccc(C)cc2OC)S(=O)(=O)c2ccccc2OC)cc1 (3D coordinates assigned)
COC(=O)c1ccc([N-]C(=O)CN(c2ccc(C)cc2OC)S(=O)(=O)c2ccccc2OC)cc1 (optimized conformer: 65.49409868521789 kcal/mol)

>  <smiles>  (35) 
COC(=O)c1ccc(NC(=O)CN(c2ccc(C)cc2OC)S(=O)(=O)c2ccccc2OC)cc1

>  <score_type>  (35) 
oracle

>  <origin>  (35) 
adg

>  <m_score__min__energy>  (35) 
-10.01

>  <m_primary>  (35) 
energy

$$$$
35:0
     RDKit          3D

 45 48  0  0  0  0  0  0  0  0999 V2000
   55.0320   21.9310   46.7550 C   0  0  0  0  0  0  0  0  0  0  0  0
   55.8500   23.0940   46.3700 N   0  0  0  0  0  0  0  0  0  0  0  0
   55.2590   24.3260   46.2050 C   0  0  0  0  0  0  0  0  0  0  0  0
   54.0170   24.4890   46.3580 O   0  0  0  0  0  0  0  0  0  0  0  0
   56.0640   25.3980   45.8620 C   0  0  0  0  0  0  0  0  0  0  0  0
   55.7330   26.6740   45.6270 N   0  0  0  0  0  0  0  0  0  0  0  0
   56.9220   27.2680   45.3360 C   0  0  0  0  0  0  0  0  0  0  0  0
   57.0790   28.7070   45.0020 C   0  0  0  0  0  0  0  0  0  0  0  0
   55.9960   29.4800   44.5470 C   0  0  0  0  0  0  0  0  0  0  0  0
   56.1650   30.8320   44.2380 C   0  0  0  0  0  0  0  0  0  0  0  0
   57.4240   31.4430   44.3820 C   0  0  0  0  0  0  0  0  0  0  0  0
   57.6480   32.7990   44.0930 O   0  0  0  0  0  0  0  0  0  0  0  0
   57.3800   33.8860   44.9790 C   0  0  0  0  0  0  0  0  0  0  0  0
   58.3230   33.8660   46.1530 C   0  0  0  0  0  0  0  0  0  0  0  0
   59.4990   34.6340   46.1250 C   0  0  0  0  0  0  0  0  0  0  0  0
   60.3720   34.6260   47.2180 C   0  0  0  0  0  0  0  0  0  0  0  0
   60.0730   33.8580   48.3470 C   0  0  0  0  0  0  0  0  0  0  0  0
   58.9000   33.1010   48.3870 C   0  0  0  0  0  0  0  0  0  0  0  0
   58.0240   33.1060   47.2970 C   0  0  0  0  0  0  0  0  0  0  0  0
   58.5040   30.6750   44.8270 C   0  0  0  0  0  0  0  0  0  0  0  0
   58.3370   29.3220   45.1350 C   0  0  0  0  0  0  0  0  0  0  0  0
   57.9770   26.4080   45.3860 N   0  0  0  0  0  0  0  0  0  0  0  0
   57.3960   25.2400   45.7200 C   0  0  0  0  0  0  0  0  0  0  0  0
   58.0120   24.0440   45.9200 N   0  0  0  0  0  0  0  0  0  0  0  0
   59.4630   23.9020   45.7370 C   0  0  0  0  0  0  0  0  0  0  0  0
   57.2240   22.9590   46.2410 C   0  0  0  0  0  0  0  0  0  0  0  0
   57.7630   21.8290   46.4190 O   0  0  0  0  0  0  0  0  0  0  0  0
   54.9843   21.8632   47.8519 H   0  0  0  0  0  0  0  0  0  0  0  0
   54.0158   22.0474   46.3503 H   0  0  0  0  0  0  0  0  0  0  0  0
   55.4851   21.0140   46.3503 H   0  0  0  0  0  0  0  0  0  0  0  0
   54.7780   27.0910   45.6720 H   0  0  0  0  0  0  0  0  0  0  0  0
   55.0055   29.0154   44.4332 H   0  0  0  0  0  0  0  0  0  0  0  0
   55.3086   31.4222   43.8800 H   0  0  0  0  0  0  0  0  0  0  0  0
   57.5029   34.8337   44.4342 H   0  0  0  0  0  0  0  0  0  0  0  0
   56.3501   33.7893   45.3532 H   0  0  0  0  0  0  0  0  0  0  0  0
   59.7342   35.2439   45.2403 H   0  0  0  0  0  0  0  0  0  0  0  0
   61.2945   35.2245   47.1890 H   0  0  0  0  0  0  0  0  0  0  0  0
   60.7620   33.8498   49.2045 H   0  0  0  0  0  0  0  0  0  0  0  0
   58.6648   32.4997   49.2776 H   0  0  0  0  0  0  0  0  0  0  0  0
   57.0981   32.5133   47.3350 H   0  0  0  0  0  0  0  0  0  0  0  0
   59.4949   31.1401   44.9358 H   0  0  0  0  0  0  0  0  0  0  0  0
   59.1974   28.7326   45.4847 H   0  0  0  0  0  0  0  0  0  0  0  0
   59.9536   23.8540   46.7204 H   0  0  0  0  0  0  0  0  0  0  0  0
   59.6733   22.9790   45.1768 H   0  0  0  0  0  0  0  0  0  0  0  0
   59.8483   24.7667   45.1768 H   0  0  0  0  0  0  0  0  0  0  0  0
  1  2  1  0
  2  3  1  0
  3  4  2  0
  3  5  1  0
  5  6  1  0
  6  7  1  0
  7  8  1  0
  8  9  2  0
  9 10  1  0
 10 11  2  0
 11 12  1  0
 12 13  1  0
 13 14  1  0
 14 15  2  0
 15 16  1  0
 16 17  2  0
 17 18  1  0
 18 19  2  0
 11 20  1  0
 20 21  2  0
  7 22  2  0
 22 23  1  0
 23 24  1  0
 24 25  1  0
 24 26  1  0
 26 27  2  0
 26  2  1  0
 23  5  2  0
 21  8  1  0
 19 14  1  0
  1 28  1  0
  1 29  1  0
  1 30  1  0
  6 31  1  0
  9 32  1  0
 10 33  1  0
 13 34  1  0
 13 35  1  0
 15 36  1  0
 16 37  1  0
 17 38  1  0
 18 39  1  0
 19 40  1  0
 20 41  1  0
 21 42  1  0
 25 43  1  0
 25 44  1  0
 25 45  1  0
M  END
>  <UniqueID>  (36) 
33

>  <SMILES>  (36) 
Cn1c(=O)c2[nH]c(-c3ccc(OCc4ccccc4)cc3)nc2n(C)c1=O

>  <Energy>  (36) 
94.87832190117417

>  <Genealogy>  (36) 
Cn1c(=O)c2[nH]c(-c3ccc(OCc4ccccc4)cc3)nc2n(C)c1=O (3D coordinates assigned)
Cn1c(=O)c2[nH]c(-c3ccc(OCc4ccccc4)cc3)nc2n(C)c1=O (optimized conformer: 94.87832190117417 kcal/mol)

>  <smiles>  (36) 
Cn1c(=O)c2[nH]c(-c3ccc(OCc4ccccc4)cc3)nc2n(C)c1=O

>  <score_type>  (36) 
oracle

>  <origin>  (36) 
adg

>  <m_score__min__energy>  (36) 
-8.3699999999999992

>  <m_primary>  (36) 
energy

$$$$
36:0
     RDKit          3D

 45 47  0  0  0  0  0  0  0  0999 V2000
   51.0140   32.7580   51.6160 O   0  0  0  0  0  0  0  0  0  0  0  0
   51.1830   31.9760   50.6440 C   0  0  0  0  0  0  0  0  0  0  0  0
   50.6010   32.2660   49.4170 O   0  0  0  0  0  0  0  0  0  0  0  0
   51.9690   30.7120   50.8210 C   0  0  0  0  0  0  0  0  0  0  0  0
   52.3820   30.5030   52.2840 C   0  0  0  0  0  0  0  0  0  0  0  0
   53.8640   30.2610   52.4160 C   0  0  0  0  0  0  0  0  0  0  0  0
   54.3350   29.0600   52.9680 C   0  0  0  0  0  0  0  0  0  0  0  0
   55.7070   28.8070   53.0430 C   0  0  0  0  0  0  0  0  0  0  0  0
   56.6320   29.7540   52.5640 C   0  0  0  0  0  0  0  0  0  0  0  0
   58.0200   29.5440   52.6010 O   0  0  0  0  0  0  0  0  0  0  0  0
   58.9970   30.4090   52.0230 C   0  0  0  0  0  0  0  0  0  0  0  0
   59.2470   30.0210   50.5910 C   0  0  0  0  0  0  0  0  0  0  0  0
   60.1670   29.0030   50.2950 C   0  0  0  0  0  0  0  0  0  0  0  0
   60.4280   28.6540   48.9680 C   0  0  0  0  0  0  0  0  0  0  0  0
   59.7890   29.3310   47.9270 C   0  0  0  0  0  0  0  0  0  0  0  0
   58.8960   30.3710   48.2030 C   0  0  0  0  0  0  0  0  0  0  0  0
   58.2790   31.0340   47.1330 O   0  0  0  0  0  0  0  0  0  0  0  0
   58.6030   32.3250   46.6880 C   0  0  0  0  0  0  0  0  0  0  0  0
   57.9520   32.9200   45.5900 C   0  0  0  0  0  0  0  0  0  0  0  0
   58.2870   34.2190   45.1950 C   0  0  0  0  0  0  0  0  0  0  0  0
   59.2660   34.9320   45.8900 C   0  0  0  0  0  0  0  0  0  0  0  0
   59.9050   34.3530   46.9900 C   0  0  0  0  0  0  0  0  0  0  0  0
   59.5690   33.0560   47.3910 C   0  0  0  0  0  0  0  0  0  0  0  0
   58.6090   30.7000   49.5400 C   0  0  0  0  0  0  0  0  0  0  0  0
   56.1580   30.9610   52.0330 C   0  0  0  0  0  0  0  0  0  0  0  0
   54.7860   31.2090   51.9480 C   0  0  0  0  0  0  0  0  0  0  0  0
   51.3520   29.8601   50.4992 H   0  0  0  0  0  0  0  0  0  0  0  0
   52.8828   30.7875   50.2133 H   0  0  0  0  0  0  0  0  0  0  0  0
   52.1145   31.4001   52.8615 H   0  0  0  0  0  0  0  0  0  0  0  0
   51.8545   29.6165   52.6658 H   0  0  0  0  0  0  0  0  0  0  0  0
   53.6199   28.3134   53.3438 H   0  0  0  0  0  0  0  0  0  0  0  0
   56.0663   27.8630   53.4786 H   0  0  0  0  0  0  0  0  0  0  0  0
   58.6328   31.4463   52.0608 H   0  0  0  0  0  0  0  0  0  0  0  0
   59.9360   30.3217   52.5893 H   0  0  0  0  0  0  0  0  0  0  0  0
   60.6845   28.4780   51.1114 H   0  0  0  0  0  0  0  0  0  0  0  0
   61.1380   27.8446   48.7425 H   0  0  0  0  0  0  0  0  0  0  0  0
   59.9893   29.0445   46.8840 H   0  0  0  0  0  0  0  0  0  0  0  0
   57.1785   32.3619   45.0420 H   0  0  0  0  0  0  0  0  0  0  0  0
   57.7784   34.6799   44.3354 H   0  0  0  0  0  0  0  0  0  0  0  0
   59.5345   35.9501   45.5716 H   0  0  0  0  0  0  0  0  0  0  0  0
   60.6722   34.9175   47.5403 H   0  0  0  0  0  0  0  0  0  0  0  0
   60.0663   32.6074   48.2636 H   0  0  0  0  0  0  0  0  0  0  0  0
   57.8808   31.4935   49.7638 H   0  0  0  0  0  0  0  0  0  0  0  0
   56.8723   31.7195   51.6802 H   0  0  0  0  0  0  0  0  0  0  0  0
   54.4266   32.1527   51.5118 H   0  0  0  0  0  0  0  0  0  0  0  0
  1  2  2  0
  2  3  1  0
  2  4  1  0
  4  5  1  0
  5  6  1  0
  6  7  2  0
  7  8  1  0
  8  9  2  0
  9 10  1  0
 10 11  1  0
 11 12  1  0
 12 13  2  0
 13 14  1  0
 14 15  2  0
 15 16  1  0
 16 17  1  0
 17 18  1  0
 18 19  2  0
 19 20  1  0
 20 21  2  0
 21 22  1  0
 22 23  2  0
 16 24  2  0
  9 25  1  0
 25 26  2  0
 26  6  1  0
 24 12  1  0
 23 18  1  0
  4 27  1  0
  4 28  1  0
  5 29  1  0
  5 30  1  0
  7 31  1  0
  8 32  1  0
 11 33  1  0
 11 34  1  0
 13 35  1  0
 14 36  1  0
 15 37  1  0
 19 38  1  0
 20 39  1  0
 21 40  1  0
 22 41  1  0
 23 42  1  0
 24 43  1  0
 25 44  1  0
 26 45  1  0
M  CHG  1   3  -1
M  END
>  <UniqueID>  (37) 
34

>  <SMILES>  (37) 
O=C([O-])CCc1ccc(OCc2cccc(Oc3ccccc3)c2)cc1

>  <Energy>  (37) 
48.30820929937294

>  <Genealogy>  (37) 
O=C([O-])CCc1ccc(OCc2cccc(Oc3ccccc3)c2)cc1 (protonated)
O=C([O-])CCc1ccc(OCc2cccc(Oc3ccccc3)c2)cc1 (3D coordinates assigned)
O=C([O-])CCc1ccc(OCc2cccc(Oc3ccccc3)c2)cc1 (optimized conformer: 48.30820929937294 kcal/mol)

>  <smiles>  (37) 
O=C(O)CCc1ccc(OCc2cccc(Oc3ccccc3)c2)cc1

>  <score_type>  (37) 
oracle

>  <origin>  (37) 
adg

>  <m_score__min__energy>  (37) 
-11.449999999999999

>  <m_primary>  (37) 
energy

$$$$
37:0
     RDKit          3D

 51 53  0  0  0  0  0  0  0  0999 V2000
   54.2700   24.4280   45.5590 C   0  0  0  0  0  0  0  0  0  0  0  0
   54.8390   25.6650   45.9740 O   0  0  0  0  0  0  0  0  0  0  0  0
   56.2170   25.9300   46.0340 C   0  0  0  0  0  0  0  0  0  0  0  0
   57.1380   24.9440   46.4420 C   0  0  0  0  0  0  0  0  0  0  0  0
   58.5100   25.2020   46.4190 C   0  0  0  0  0  0  0  0  0  0  0  0
   58.9800   26.4430   45.9910 C   0  0  0  0  0  0  0  0  0  0  0  0
   58.0790   27.4340   45.6010 C   0  0  0  0  0  0  0  0  0  0  0  0
   56.6980   27.1990   45.6430 C   0  0  0  0  0  0  0  0  0  0  0  0
   55.8250   28.2640   45.2380 N   0  0  0  0  0  0  0  0  0  0  0  0
   56.2250   29.5420   44.7290 C   0  0  0  0  0  0  0  0  0  0  0  0
   55.4010   30.4910   44.6430 O   0  0  0  0  0  0  0  0  0  0  0  0
   57.6600   29.7820   44.3600 C   0  0  0  0  0  0  0  0  0  0  0  0
   58.1580   31.1200   44.8680 C   0  0  0  0  0  0  0  0  0  0  0  0
   58.1400   32.2330   44.0080 C   0  0  0  0  0  0  0  0  0  0  0  0
   58.5880   33.4790   44.4500 C   0  0  0  0  0  0  0  0  0  0  0  0
   59.0510   33.6340   45.7570 C   0  0  0  0  0  0  0  0  0  0  0  0
   59.6510   35.3440   46.3620 Br  0  0  0  0  0  0  0  0  0  0  0  0
   59.0710   32.5390   46.6260 C   0  0  0  0  0  0  0  0  0  0  0  0
   58.6340   31.2780   46.1910 C   0  0  0  0  0  0  0  0  0  0  0  0
   58.6630   30.1510   47.0750 N   0  0  0  0  0  0  0  0  0  0  0  0
   60.1010   29.2890   47.5180 S   0  0  0  0  0  0  0  0  0  0  0  0
   60.7050   28.6410   46.3050 O   0  0  0  0  0  0  0  0  0  0  0  0
   59.7640   28.2360   48.5370 O   0  0  0  0  0  0  0  0  0  0  0  0
   61.2350   30.4340   48.2280 C   0  0  0  0  0  0  0  0  0  0  0  0
   62.0160   31.2430   47.3980 C   0  0  0  0  0  0  0  0  0  0  0  0
   62.8550   32.2160   47.9460 C   0  0  0  0  0  0  0  0  0  0  0  0
   62.9420   32.3840   49.3410 C   0  0  0  0  0  0  0  0  0  0  0  0
   63.8160   33.4450   49.9080 C   0  0  0  0  0  0  0  0  0  0  0  0
   65.2730   33.2130   50.1730 C   0  0  0  0  0  0  0  0  0  0  0  0
   63.3300   34.5760   50.1840 O   0  0  0  0  0  0  0  0  0  0  0  0
   62.1800   31.5390   50.1700 C   0  0  0  0  0  0  0  0  0  0  0  0
   61.3330   30.5740   49.6170 C   0  0  0  0  0  0  0  0  0  0  0  0
   53.9971   23.8347   46.4441 H   0  0  0  0  0  0  0  0  0  0  0  0
   53.3706   24.6220   44.9561 H   0  0  0  0  0  0  0  0  0  0  0  0
   55.0026   23.8714   44.9561 H   0  0  0  0  0  0  0  0  0  0  0  0
   56.7729   23.9634   46.7813 H   0  0  0  0  0  0  0  0  0  0  0  0
   59.2206   24.4256   46.7388 H   0  0  0  0  0  0  0  0  0  0  0  0
   60.0617   26.6407   45.9609 H   0  0  0  0  0  0  0  0  0  0  0  0
   58.4558   28.4087   45.2574 H   0  0  0  0  0  0  0  0  0  0  0  0
   58.2778   28.9835   44.7967 H   0  0  0  0  0  0  0  0  0  0  0  0
   57.7338   29.7852   43.2625 H   0  0  0  0  0  0  0  0  0  0  0  0
   57.7697   32.1205   42.9783 H   0  0  0  0  0  0  0  0  0  0  0  0
   58.5760   34.3406   43.7663 H   0  0  0  0  0  0  0  0  0  0  0  0
   59.4316   32.6665   47.6574 H   0  0  0  0  0  0  0  0  0  0  0  0
   61.9697   31.1127   46.3067 H   0  0  0  0  0  0  0  0  0  0  0  0
   63.4532   32.8568   47.2815 H   0  0  0  0  0  0  0  0  0  0  0  0
   65.4483   33.1851   51.2586 H   0  0  0  0  0  0  0  0  0  0  0  0
   65.5787   32.2549   49.7274 H   0  0  0  0  0  0  0  0  0  0  0  0
   65.8612   34.0288   49.7274 H   0  0  0  0  0  0  0  0  0  0  0  0
   62.2517   31.6390   51.2631 H   0  0  0  0  0  0  0  0  0  0  0  0
   60.7412   29.9221   50.2763 H   0  0  0  0  0  0  0  0  0  0  0  0
  1  2  1  0
  2  3  1  0
  3  4  2  0
  4  5  1  0
  5  6  2  0
  6  7  1  0
  7  8  2  0
  8  9  1  0
  9 10  1  0
 10 11  2  0
 10 12  1  0
 12 13  1  0
 13 14  2  0
 14 15  1  0
 15 16  2  0
 16 17  1  0
 16 18  1  0
 18 19  2  0
 19 20  1  0
 20 21  1  0
 21 22  2  0
 21 23  2  0
 21 24  1  0
 24 25  2  0
 25 26  1  0
 26 27  2  0
 27 28  1  0
 28 29  1  0
 28 30  2  0
 27 31  1  0
 31 32  2  0
  8  3  1  0
 19 13  1  0
 32 24  1  0
  1 33  1  0
  1 34  1  0
  1 35  1  0
  4 36  1  0
  5 37  1  0
  6 38  1  0
  7 39  1  0
 12 40  1  0
 12 41  1  0
 14 42  1  0
 15 43  1  0
 18 44  1  0
 25 45  1  0
 26 46  1  0
 29 47  1  0
 29 48  1  0
 29 49  1  0
 31 50  1  0
 32 51  1  0
M  CHG  2   9  -1  20  -1
M  END
>  <UniqueID>  (38) 
35

>  <SMILES>  (38) 
COc1ccccc1[N-]C(=O)Cc1ccc(Br)cc1[N-]S(=O)(=O)c1ccc(C(C)=O)cc1

>  <Energy>  (38) 
58.3399442550887

>  <Genealogy>  (38) 
COc1ccccc1[N-]C(=O)Cc1ccc(Br)cc1[N-]S(=O)(=O)c1ccc(C(C)=O)cc1 (protonated)
COc1ccccc1[N-]C(=O)Cc1ccc(Br)cc1[N-]S(=O)(=O)c1ccc(C(C)=O)cc1 (3D coordinates assigned)
COc1ccccc1[N-]C(=O)Cc1ccc(Br)cc1[N-]S(=O)(=O)c1ccc(C(C)=O)cc1 (optimized conformer: 58.3399442550887 kcal/mol)

>  <smiles>  (38) 
COc1ccccc1NC(=O)Cc1ccc(Br)cc1NS(=O)(=O)c1ccc(C(C)=O)cc1

>  <score_type>  (38) 
oracle

>  <origin>  (38) 
adg

>  <m_score__min__energy>  (38) 
-13.32

>  <m_primary>  (38) 
energy

$$$$
38:0
     RDKit          3D

 25 26  0  0  0  0  0  0  0  0999 V2000
   55.1450   28.0570   44.8750 H   0  0  0  0  0  0  0  0  0  0  0  0
   55.4610   28.9840   44.5110 N   0  0  0  0  0  0  0  0  0  0  0  0
   56.4310   29.6430   45.0600 C   0  0  0  0  0  0  0  0  0  0  0  0
   56.6490   30.9330   44.6970 N   0  0  0  0  0  0  0  0  0  0  0  0
   57.6540   31.6670   45.2420 C   0  0  0  0  0  0  0  0  0  0  0  0
   57.8430   33.0850   44.7830 C   0  0  0  0  0  0  0  0  0  0  0  0
   57.9310   33.7451   45.6585 H   0  0  0  0  0  0  0  0  0  0  0  0
   58.7585   33.1554   44.1772 H   0  0  0  0  0  0  0  0  0  0  0  0
   56.9779   33.3927   44.1772 H   0  0  0  0  0  0  0  0  0  0  0  0
   58.4850   31.0860   46.2190 C   0  0  0  0  0  0  0  0  0  0  0  0
   59.5870   31.8470   46.8520 C   0  0  0  0  0  0  0  0  0  0  0  0
   59.3150   33.0450   47.5340 C   0  0  0  0  0  0  0  0  0  0  0  0
   58.0420   33.5090   47.6260 F   0  0  0  0  0  0  0  0  0  0  0  0
   60.3560   33.7620   48.1330 C   0  0  0  0  0  0  0  0  0  0  0  0
   60.0910   34.9160   48.7960 F   0  0  0  0  0  0  0  0  0  0  0  0
   61.6700   33.2900   48.0530 C   0  0  0  0  0  0  0  0  0  0  0  0
   62.6780   33.9870   48.6340 F   0  0  0  0  0  0  0  0  0  0  0  0
   61.9470   32.1010   47.3700 C   0  0  0  0  0  0  0  0  0  0  0  0
   63.2230   31.6490   47.2870 F   0  0  0  0  0  0  0  0  0  0  0  0
   60.9090   31.3800   46.7680 C   0  0  0  0  0  0  0  0  0  0  0  0
   61.1930   30.2360   46.0960 F   0  0  0  0  0  0  0  0  0  0  0  0
   58.2480   29.7480   46.5760 C   0  0  0  0  0  0  0  0  0  0  0  0
   58.9700   29.1820   47.4430 O   0  0  0  0  0  0  0  0  0  0  0  0
   57.2320   29.0570   45.9940 N   0  0  0  0  0  0  0  0  0  0  0  0
   57.0660   28.0620   46.2730 H   0  0  0  0  0  0  0  0  0  0  0  0
  1  2  1  0
  2  3  2  0
  3  4  1  0
  4  5  1  0
  5  6  1  0
  6  7  1  0
  6  8  1  0
  6  9  1  0
  5 10  2  0
 10 11  1  0
 11 12  2  0
 12 13  1  0
 12 14  1  0
 14 15  1  0
 14 16  2  0
 16 17  1  0
 16 18  1  0
 18 19  1  0
 18 20  2  0
 20 21  1  0
 10 22  1  0
 22 23  2  0
 22 24  1  0
 24 25  1  0
 24  3  1  0
 20 11  1  0
M  CHG  1   4  -1
M  END
>  <UniqueID>  (39) 
36

>  <SMILES>  (39) 
[H]/N=c1/[n-]c(C)c(-c2c(F)c(F)c(F)c(F)c2F)c(=O)[nH]1

>  <Energy>  (39) 
35.56489920274964

>  <Genealogy>  (39) 
Cc1[n-]c(=N)[nH]c(=O)c1-c1c(F)c(F)c(F)c(F)c1F (protonated)
[H]/N=c1/[n-]c(C)c(-c2c(F)c(F)c(F)c(F)c2F)c(=O)[nH]1 (cis-trans isomerization)
[H]/N=c1/[n-]c(C)c(-c2c(F)c(F)c(F)c(F)c2F)c(=O)[nH]1 (3D coordinates assigned)
[H]/N=c1/[n-]c(C)c(-c2c(F)c(F)c(F)c(F)c2F)c(=O)[nH]1 (optimized conformer: 35.56489920274964 kcal/mol)

>  <smiles>  (39) 
Cc1[nH]c(=N)[nH]c(=O)c1-c1c(F)c(F)c(F)c(F)c1F

>  <score_type>  (39) 
oracle

>  <origin>  (39) 
adg

>  <m_score__min__energy>  (39) 
-7.2699999999999996

>  <m_primary>  (39) 
energy

$$$$
39:0
     RDKit          3D

 32 34  0  0  0  0  0  0  0  0999 V2000
   54.7710   26.7200   45.1090 H   0  0  0  0  0  0  0  0  0  0  0  0
   55.2160   26.6990   46.0540 N   0  0  0  0  0  0  0  0  0  0  0  0
   56.8960   27.0440   45.8280 S   0  0  0  0  0  0  0  0  0  0  0  0
   57.6270   26.8380   47.1240 O   0  0  0  0  0  0  0  0  0  0  0  0
   57.4450   26.1050   44.7910 O   0  0  0  0  0  0  0  0  0  0  0  0
   57.0990   28.7090   45.2990 C   0  0  0  0  0  0  0  0  0  0  0  0
   56.5220   29.1360   44.0820 C   0  0  0  0  0  0  0  0  0  0  0  0
   55.9539   28.4222   43.4674 H   0  0  0  0  0  0  0  0  0  0  0  0
   56.6680   30.4640   43.6510 C   0  0  0  0  0  0  0  0  0  0  0  0
   56.2240   30.8028   42.7033 H   0  0  0  0  0  0  0  0  0  0  0  0
   57.3900   31.3400   44.4560 C   0  0  0  0  0  0  0  0  0  0  0  0
   57.7210   32.9650   44.1980 S   0  0  0  0  0  0  0  0  0  0  0  0
   58.5860   33.0810   45.6570 C   0  0  0  0  0  0  0  0  0  0  0  0
   59.1620   34.1540   46.1100 N   0  0  0  0  0  0  0  0  0  0  0  0
   59.5730   34.3690   47.4970 C   0  0  0  0  0  0  0  0  0  0  0  0
   59.3990   35.4213   47.7662 H   0  0  0  0  0  0  0  0  0  0  0  0
   58.9834   33.7063   48.1475 H   0  0  0  0  0  0  0  0  0  0  0  0
   61.0340   34.0480   47.6750 C   0  0  0  0  0  0  0  0  0  0  0  0
   61.5820   33.9640   48.9660 C   0  0  0  0  0  0  0  0  0  0  0  0
   60.9416   34.1284   49.8451 H   0  0  0  0  0  0  0  0  0  0  0  0
   62.9390   33.6720   49.1370 C   0  0  0  0  0  0  0  0  0  0  0  0
   63.3638   33.6099   50.1498 H   0  0  0  0  0  0  0  0  0  0  0  0
   63.7560   33.4590   48.0240 C   0  0  0  0  0  0  0  0  0  0  0  0
   64.8232   33.2300   48.1608 H   0  0  0  0  0  0  0  0  0  0  0  0
   63.2170   33.5370   46.7360 C   0  0  0  0  0  0  0  0  0  0  0  0
   63.8604   33.3685   45.8599 H   0  0  0  0  0  0  0  0  0  0  0  0
   61.8610   33.8290   46.5610 C   0  0  0  0  0  0  0  0  0  0  0  0
   61.4399   33.8875   45.5465 H   0  0  0  0  0  0  0  0  0  0  0  0
   58.6270   31.9070   46.3310 N   0  0  0  0  0  0  0  0  0  0  0  0
   57.9570   30.9390   45.6540 C   0  0  0  0  0  0  0  0  0  0  0  0
   57.8200   29.6220   46.0950 C   0  0  0  0  0  0  0  0  0  0  0  0
   58.2671   29.3018   47.0477 H   0  0  0  0  0  0  0  0  0  0  0  0
  1  2  1  0
  2  3  1  0
  3  4  2  0
  3  5  2  0
  3  6  1  0
  6  7  2  0
  7  8  1  0
  7  9  1  0
  9 10  1  0
  9 11  2  0
 11 12  1  0
 12 13  1  0
 13 14  2  0
 14 15  1  0
 15 16  1  0
 15 17  1  0
 15 18  1  0
 18 19  2  0
 19 20  1  0
 19 21  1  0
 21 22  1  0
 21 23  2  0
 23 24  1  0
 23 25  1  0
 25 26  1  0
 25 27  2  0
 27 28  1  0
 13 29  1  0
 29 30  1  0
 30 31  2  0
 31 32  1  0
 31  6  1  0
 30 11  1  0
 27 18  1  0
M  CHG  2   2  -1  29  -1
M  END
>  <UniqueID>  (40) 
37

>  <SMILES>  (40) 
[NH-]S(=O)(=O)c1ccc2s/c(=N\Cc3ccccc3)[n-]c2c1

>  <Energy>  (40) 
68.54586183845105

>  <Genealogy>  (40) 
[NH-]S(=O)(=O)c1ccc2sc(=NCc3ccccc3)[n-]c2c1 (protonated)
[NH-]S(=O)(=O)c1ccc2s/c(=N\Cc3ccccc3)[n-]c2c1 (cis-trans isomerization)
[NH-]S(=O)(=O)c1ccc2s/c(=N\Cc3ccccc3)[n-]c2c1 (3D coordinates assigned)
[NH-]S(=O)(=O)c1ccc2s/c(=N\Cc3ccccc3)[n-]c2c1 (optimized conformer: 68.54586183845105 kcal/mol)

>  <smiles>  (40) 
NS(=O)(=O)c1ccc2sc(=NCc3ccccc3)[nH]c2c1

>  <score_type>  (40) 
oracle

>  <origin>  (40) 
adg

>  <m_score__min__energy>  (40) 
-12.359999999999999

>  <m_primary>  (40) 
energy

$$$$
40:0
     RDKit          3D

 35 37  0  0  1  0  0  0  0  0999 V2000
   55.6300   24.6730   45.4260 C   0  0  0  0  0  0  0  0  0  0  0  0
   55.6030   25.9830   45.9980 N   0  0  0  0  0  0  0  0  0  0  0  0
   56.4840   26.8710   45.8920 C   0  0  0  0  0  0  0  0  0  0  0  0
   56.1050   28.0420   45.2980 N   0  0  0  0  0  0  0  0  0  0  0  0
   56.9390   29.0880   45.2170 C   0  0  0  0  0  0  0  0  0  0  0  0
   56.6050   30.1930   44.6660 N   0  0  0  0  0  0  0  0  0  0  0  0
   57.3520   31.4020   44.7660 C   0  0  0  0  0  0  0  0  0  0  0  0
   57.7130   32.1610   43.6740 C   0  0  0  0  0  0  0  0  0  0  0  0
   58.4410   33.3200   43.8490 C   0  0  0  0  0  0  0  0  0  0  0  0
   58.8320   33.7600   45.1070 C   0  0  0  0  0  0  0  0  0  0  0  0
   59.5700   34.9360   45.2690 C   0  0  0  0  0  0  0  0  0  0  0  0
   59.9380   35.3310   46.5590 C   0  0  0  0  0  0  0  0  0  0  0  0
   59.5810   34.5770   47.6580 C   0  0  0  0  0  0  0  0  0  0  0  0
   58.8510   33.4170   47.4660 C   0  0  0  0  0  0  0  0  0  0  0  0
   58.4660   32.9920   46.1960 C   0  0  0  0  0  0  0  0  0  0  0  0
   57.7290   31.8170   46.0360 C   0  0  0  0  0  0  0  0  0  0  0  0
   58.1630   28.9400   45.7420 N   0  0  0  0  0  0  0  0  0  0  0  0
   58.5770   27.8050   46.3330 C   0  0  0  0  0  0  0  0  0  0  0  0
   57.7150   26.6800   46.4300 C   0  0  0  0  0  0  0  0  0  0  0  0
   58.2700   25.5670   47.0490 N   0  0  0  0  0  0  0  0  0  0  0  0
   57.8970   24.8400   47.9660 O   0  0  0  0  0  0  0  0  0  0  0  0
   59.4420   25.0600   46.4120 O   0  0  0  0  0  0  0  0  0  0  0  0
   55.6455   23.9222   46.2298 H   0  0  0  0  0  0  0  0  0  0  0  0
   54.7347   24.5259   44.8041 H   0  0  0  0  0  0  0  0  0  0  0  0
   56.5306   24.5630   44.8041 H   0  0  0  0  0  0  0  0  0  0  0  0
   55.1510   28.1380   44.8960 H   0  0  0  0  0  0  0  0  0  0  0  0
   57.4207   31.8428   42.6624 H   0  0  0  0  0  0  0  0  0  0  0  0
   58.7201   33.9133   42.9657 H   0  0  0  0  0  0  0  0  0  0  0  0
   59.8566   35.5408   44.3961 H   0  0  0  0  0  0  0  0  0  0  0  0
   60.5193   36.2543   46.6993 H   0  0  0  0  0  0  0  0  0  0  0  0
   59.8720   34.8929   48.6707 H   0  0  0  0  0  0  0  0  0  0  0  0
   58.5667   32.8135   48.3406 H   0  0  0  0  0  0  0  0  0  0  0  0
   57.4471   31.2203   46.9160 H   0  0  0  0  0  0  0  0  0  0  0  0
   58.8240   29.7250   45.6960 H   0  0  0  0  0  0  0  0  0  0  0  0
   59.5949   27.7472   46.7460 H   0  0  0  0  0  0  0  0  0  0  0  0
  1  2  1  0
  2  3  2  0
  3  4  1  0
  4  5  1  0
  5  6  2  0
  6  7  1  0
  7  8  2  0
  8  9  1  0
  9 10  2  0
 10 11  1  0
 11 12  2  0
 12 13  1  0
 13 14  2  0
 14 15  1  0
 15 16  2  0
  5 17  1  0
 17 18  1  0
 18 19  2  0
 19 20  1  0
 20 21  2  0
 20 22  1  0
 19  3  1  0
 16  7  1  0
 15 10  1  0
  1 23  1  0
  1 24  1  0
  1 25  1  0
  4 26  1  0
  8 27  1  0
  9 28  1  0
 11 29  1  0
 12 30  1  0
 13 31  1  0
 14 32  1  0
 16 33  1  0
 17 34  1  0
 18 35  1  0
M  CHG  2  20   1  22  -1
M  END
>  <smiles>  (41) 
CN=c1[nH]c(=Nc2ccc3ccccc3c2)[nH]cc1[N+](=O)[O-]

>  <score_type>  (41) 
oracle

>  <origin>  (41) 
adg

>  <m_score__min__energy>  (41) 
-8.2100000000000009

>  <m_primary>  (41) 
energy

$$$$
41:0
     RDKit          3D

 47 50  0  0  0  0  0  0  0  0999 V2000
   57.7660   23.0980   48.3670 H   0  0  0  0  0  0  0  0  0  0  0  0
   57.2820   22.4130   47.7430 N   0  0  0  0  0  0  0  0  0  0  0  0
   56.2400   23.3250   46.7060 S   0  0  0  0  0  0  0  0  0  0  0  0
   54.9830   23.6850   47.4460 O   0  0  0  0  0  0  0  0  0  0  0  0
   55.8820   22.4840   45.5110 O   0  0  0  0  0  0  0  0  0  0  0  0
   57.0630   24.7980   46.1990 C   0  0  0  0  0  0  0  0  0  0  0  0
   58.4540   24.7920   46.0490 C   0  0  0  0  0  0  0  0  0  0  0  0
   59.0249   23.8770   46.2657 H   0  0  0  0  0  0  0  0  0  0  0  0
   59.1200   25.9440   45.6250 C   0  0  0  0  0  0  0  0  0  0  0  0
   60.2121   25.9303   45.4940 H   0  0  0  0  0  0  0  0  0  0  0  0
   58.4010   27.1140   45.3670 C   0  0  0  0  0  0  0  0  0  0  0  0
   58.9292   28.0151   45.0220 H   0  0  0  0  0  0  0  0  0  0  0  0
   57.0110   27.1470   45.5450 C   0  0  0  0  0  0  0  0  0  0  0  0
   56.3180   28.3810   45.2860 N   0  0  0  0  0  0  0  0  0  0  0  0
   56.8550   29.5620   45.1770 C   0  0  0  0  0  0  0  0  0  0  0  0
   56.2750   30.6090   44.5600 N   0  0  0  0  0  0  0  0  0  0  0  0
   57.1690   31.5910   44.8070 C   0  0  0  0  0  0  0  0  0  0  0  0
   57.0220   32.8200   44.4110 N   0  0  0  0  0  0  0  0  0  0  0  0
   57.1210   33.9890   45.2870 C   0  0  0  0  0  0  0  0  0  0  0  0
   57.1261   34.8991   44.6692 H   0  0  0  0  0  0  0  0  0  0  0  0
   56.2579   33.9833   45.9689 H   0  0  0  0  0  0  0  0  0  0  0  0
   58.3800   33.9530   46.1170 C   0  0  0  0  0  0  0  0  0  0  0  0
   59.6160   34.2740   45.5400 C   0  0  0  0  0  0  0  0  0  0  0  0
   59.6627   34.5891   44.4871 H   0  0  0  0  0  0  0  0  0  0  0  0
   60.7900   34.1960   46.2950 C   0  0  0  0  0  0  0  0  0  0  0  0
   61.7546   34.4522   45.8324 H   0  0  0  0  0  0  0  0  0  0  0  0
   60.7470   33.7920   47.6430 C   0  0  0  0  0  0  0  0  0  0  0  0
   61.9960   33.6980   48.4440 C   0  0  0  0  0  0  0  0  0  0  0  0
   63.1350   33.0560   47.9220 C   0  0  0  0  0  0  0  0  0  0  0  0
   63.1023   32.6201   46.9126 H   0  0  0  0  0  0  0  0  0  0  0  0
   64.3080   32.9690   48.6790 C   0  0  0  0  0  0  0  0  0  0  0  0
   65.1932   32.4656   48.2632 H   0  0  0  0  0  0  0  0  0  0  0  0
   64.3580   33.5200   49.9620 C   0  0  0  0  0  0  0  0  0  0  0  0
   65.2817   33.4512   50.5553 H   0  0  0  0  0  0  0  0  0  0  0  0
   63.2340   34.1580   50.4900 C   0  0  0  0  0  0  0  0  0  0  0  0
   63.2737   34.5913   51.5003 H   0  0  0  0  0  0  0  0  0  0  0  0
   62.0580   34.2480   49.7390 C   0  0  0  0  0  0  0  0  0  0  0  0
   61.1762   34.7513   50.1621 H   0  0  0  0  0  0  0  0  0  0  0  0
   59.5040   33.4750   48.2180 C   0  0  0  0  0  0  0  0  0  0  0  0
   59.4541   33.1592   49.2705 H   0  0  0  0  0  0  0  0  0  0  0  0
   58.3320   33.5580   47.4630 C   0  0  0  0  0  0  0  0  0  0  0  0
   57.3650   33.3122   47.9262 H   0  0  0  0  0  0  0  0  0  0  0  0
   58.2260   31.1790   45.5340 N   0  0  0  0  0  0  0  0  0  0  0  0
   58.0190   29.8940   45.7590 N   0  0  0  0  0  0  0  0  0  0  0  0
   58.6500   29.2750   46.3160 H   0  0  0  0  0  0  0  0  0  0  0  0
   56.3400   25.9700   45.9320 C   0  0  0  0  0  0  0  0  0  0  0  0
   55.2440   25.9702   46.0252 H   0  0  0  0  0  0  0  0  0  0  0  0
  1  2  1  0
  2  3  1  0
  3  4  2  0
  3  5  2  0
  3  6  1  0
  6  7  2  0
  7  8  1  0
  7  9  1  0
  9 10  1  0
  9 11  2  0
 11 12  1  0
 11 13  1  0
 13 14  1  0
 14 15  2  0
 15 16  1  0
 16 17  1  0
 17 18  2  3
 18 19  1  0
 19 20  1  0
 19 21  1  0
 19 22  1  0
 22 23  2  0
 23 24  1  0
 23 25  1  0
 25 26  1  0
 25 27  2  0
 27 28  1  0
 28 29  2  0
 29 30  1  0
 29 31  1  0
 31 32  1  0
 31 33  2  0
 33 34  1  0
 33 35  1  0
 35 36  1  0
 35 37  2  0
 37 38  1  0
 27 39  1  0
 39 40  1  0
 39 41  2  0
 41 42  1  0
 17 43  1  0
 43 44  1  0
 44 45  1  0
 13 46  2  0
 46 47  1  0
 46  6  1  0
 44 15  1  0
 41 22  1  0
 37 28  1  0
M  CHG  3   2  -1  16  -1  43  -1
M  END
>  <UniqueID>  (42) 
38

>  <SMILES>  (42) 
[NH-]S(=O)(=O)c1cccc(/N=c2\[n-]c(=NCc3ccc(-c4ccccc4)cc3)[n-][nH]2)c1

>  <Energy>  (42) 
92.5740118419834

>  <Genealogy>  (42) 
[NH-]S(=O)(=O)c1cccc(N=c2[n-]c(=NCc3ccc(-c4ccccc4)cc3)[n-][nH]2)c1 (protonated)
[NH-]S(=O)(=O)c1cccc(/N=c2\[n-]c(=NCc3ccc(-c4ccccc4)cc3)[n-][nH]2)c1 (cis-trans isomerization)
[NH-]S(=O)(=O)c1cccc(/N=c2\[n-]c(=NCc3ccc(-c4ccccc4)cc3)[n-][nH]2)c1 (3D coordinates assigned)
[NH-]S(=O)(=O)c1cccc(/N=c2\[n-]c(=NCc3ccc(-c4ccccc4)cc3)[n-][nH]2)c1 (optimized conformer: 92.5740118419834 kcal/mol)

>  <smiles>  (42) 
NS(=O)(=O)c1cccc(N=c2[nH][nH]c(=NCc3ccc(-c4ccccc4)cc3)[nH]2)c1

>  <score_type>  (42) 
oracle

>  <origin>  (42) 
adg

>  <m_score__min__energy>  (42) 
-14.949999999999999

>  <m_primary>  (42) 
energy

$$$$
42:0
     RDKit          3D

 51 53  0  0  0  0  0  0  0  0999 V2000
   57.0040   32.6740   40.8040 C   0  0  0  0  0  0  0  0  0  0  0  0
   57.4010   31.9680   42.0670 C   0  0  0  0  0  0  0  0  0  0  0  0
   58.1310   32.6540   43.0540 C   0  0  0  0  0  0  0  0  0  0  0  0
   58.4980   32.0040   44.2380 C   0  0  0  0  0  0  0  0  0  0  0  0
   58.1250   30.6640   44.4580 C   0  0  0  0  0  0  0  0  0  0  0  0
   58.5420   29.9740   45.6510 N   0  0  0  0  0  0  0  0  0  0  0  0
   58.1350   30.4700   46.9690 C   0  0  0  0  0  0  0  0  0  0  0  0
   59.2340   31.2680   47.6010 C   0  0  0  0  0  0  0  0  0  0  0  0
   58.9610   32.0850   48.5210 O   0  0  0  0  0  0  0  0  0  0  0  0
   60.5930   31.0790   47.1770 N   0  0  0  0  0  0  0  0  0  0  0  0
   61.6430   32.0420   47.3810 C   0  0  0  0  0  0  0  0  0  0  0  0
   61.8180   33.0890   46.4590 C   0  0  0  0  0  0  0  0  0  0  0  0
   62.8600   33.9990   46.6050 C   0  0  0  0  0  0  0  0  0  0  0  0
   63.7710   33.8570   47.6490 C   0  0  0  0  0  0  0  0  0  0  0  0
   63.6390   32.8110   48.5660 C   0  0  0  0  0  0  0  0  0  0  0  0
   64.8710   32.6620   49.8170 Cl  0  0  0  0  0  0  0  0  0  0  0  0
   62.5550   31.9090   48.4620 C   0  0  0  0  0  0  0  0  0  0  0  0
   62.3970   30.7940   49.4650 C   0  0  0  0  0  0  0  0  0  0  0  0
   59.1950   28.3670   45.5110 S   0  0  0  0  0  0  0  0  0  0  0  0
   60.3100   28.1820   46.5020 O   0  0  0  0  0  0  0  0  0  0  0  0
   59.7670   28.1950   44.1330 O   0  0  0  0  0  0  0  0  0  0  0  0
   57.9370   27.1540   45.8460 C   0  0  0  0  0  0  0  0  0  0  0  0
   58.2680   25.8340   46.2350 C   0  0  0  0  0  0  0  0  0  0  0  0
   59.6830   25.3800   46.3990 C   0  0  0  0  0  0  0  0  0  0  0  0
   57.2740   24.9300   46.4480 N   0  0  0  0  0  0  0  0  0  0  0  0
   55.9670   25.2650   46.3130 C   0  0  0  0  0  0  0  0  0  0  0  0
   55.0730   24.4020   46.5120 O   0  0  0  0  0  0  0  0  0  0  0  0
   55.6220   26.5300   45.9640 N   0  0  0  0  0  0  0  0  0  0  0  0
   56.5670   27.4780   45.7300 C   0  0  0  0  0  0  0  0  0  0  0  0
   56.1970   28.6410   45.4160 O   0  0  0  0  0  0  0  0  0  0  0  0
   57.3720   29.9910   43.4820 C   0  0  0  0  0  0  0  0  0  0  0  0
   57.0030   30.6400   42.2990 C   0  0  0  0  0  0  0  0  0  0  0  0
   56.4791   33.6075   41.0552 H   0  0  0  0  0  0  0  0  0  0  0  0
   57.9038   32.9063   40.2154 H   0  0  0  0  0  0  0  0  0  0  0  0
   56.3381   32.0258   40.2154 H   0  0  0  0  0  0  0  0  0  0  0  0
   58.4145   33.7049   42.8950 H   0  0  0  0  0  0  0  0  0  0  0  0
   59.0805   32.5423   45.0002 H   0  0  0  0  0  0  0  0  0  0  0  0
   57.2460   31.1078   46.8553 H   0  0  0  0  0  0  0  0  0  0  0  0
   57.9090   29.6088   47.6149 H   0  0  0  0  0  0  0  0  0  0  0  0
   60.8310   30.1640   46.7380 H   0  0  0  0  0  0  0  0  0  0  0  0
   61.1229   33.1897   45.6124 H   0  0  0  0  0  0  0  0  0  0  0  0
   62.9647   34.8323   45.8946 H   0  0  0  0  0  0  0  0  0  0  0  0
   64.5997   34.5729   47.7523 H   0  0  0  0  0  0  0  0  0  0  0  0
   62.4554   31.2058   50.4833 H   0  0  0  0  0  0  0  0  0  0  0  0
   61.4209   30.3074   49.3216 H   0  0  0  0  0  0  0  0  0  0  0  0
   63.1995   30.0554   49.3216 H   0  0  0  0  0  0  0  0  0  0  0  0
   59.9217   25.3034   47.4701 H   0  0  0  0  0  0  0  0  0  0  0  0
   59.8098   24.3961   45.9238 H   0  0  0  0  0  0  0  0  0  0  0  0
   60.3586   26.1065   45.9238 H   0  0  0  0  0  0  0  0  0  0  0  0
   57.0703   28.9464   43.6490 H   0  0  0  0  0  0  0  0  0  0  0  0
   56.3994   30.1094   41.5479 H   0  0  0  0  0  0  0  0  0  0  0  0
  1  2  1  0
  2  3  2  0
  3  4  1  0
  4  5  2  0
  5  6  1  0
  6  7  1  0
  7  8  1  0
  8  9  2  0
  8 10  1  0
 10 11  1  0
 11 12  2  0
 12 13  1  0
 13 14  2  0
 14 15  1  0
 15 16  1  0
 15 17  2  0
 17 18  1  0
  6 19  1  0
 19 20  2  0
 19 21  2  0
 19 22  1  0
 22 23  2  0
 23 24  1  0
 23 25  1  0
 25 26  1  0
 26 27  2  0
 26 28  1  0
 28 29  1  0
 29 30  2  0
  5 31  1  0
 31 32  2  0
 32  2  1  0
 17 11  1  0
 29 22  1  0
  1 33  1  0
  1 34  1  0
  1 35  1  0
  3 36  1  0
  4 37  1  0
  7 38  1  0
  7 39  1  0
 10 40  1  0
 12 41  1  0
 13 42  1  0
 14 43  1  0
 18 44  1  0
 18 45  1  0
 18 46  1  0
 24 47  1  0
 24 48  1  0
 24 49  1  0
 31 50  1  0
 32 51  1  0
M  CHG  2  25  -1  28  -1
M  END
>  <UniqueID>  (43) 
39

>  <SMILES>  (43) 
Cc1ccc(N(CC(=O)Nc2cccc(Cl)c2C)S(=O)(=O)c2c(C)[n-]c(=O)[n-]c2=O)cc1

>  <Energy>  (43) 
62.73143429741325

>  <Genealogy>  (43) 
Cc1ccc(N(CC(=O)Nc2cccc(Cl)c2C)S(=O)(=O)c2c(C)[n-]c(=O)[n-]c2=O)cc1 (protonated)
Cc1ccc(N(CC(=O)Nc2cccc(Cl)c2C)S(=O)(=O)c2c(C)[n-]c(=O)[n-]c2=O)cc1 (3D coordinates assigned)
Cc1ccc(N(CC(=O)Nc2cccc(Cl)c2C)S(=O)(=O)c2c(C)[n-]c(=O)[n-]c2=O)cc1 (optimized conformer: 62.73143429741325 kcal/mol)

>  <smiles>  (43) 
Cc1ccc(N(CC(=O)Nc2cccc(Cl)c2C)S(=O)(=O)c2c(C)[nH]c(=O)[nH]c2=O)cc1

>  <score_type>  (43) 
oracle

>  <origin>  (43) 
adg

>  <m_score__min__energy>  (43) 
-13.49

>  <m_primary>  (43) 
energy

$$$$
43:0
     RDKit          3D

 64 68  0  0  0  0  0  0  0  0999 V2000
   58.7180   33.8490   44.8520 O   0  0  0  0  0  0  0  0  0  0  0  0
   58.8900   33.4990   46.0500 C   0  0  0  0  0  0  0  0  0  0  0  0
   58.9330   34.5460   47.1190 C   0  0  0  0  0  0  0  0  0  0  0  0
   60.2770   34.8670   47.4820 O   0  0  0  0  0  0  0  0  0  0  0  0
   61.3390   33.9490   47.5790 C   0  0  0  0  0  0  0  0  0  0  0  0
   62.3420   33.8580   46.5920 C   0  0  0  0  0  0  0  0  0  0  0  0
   63.4060   32.9660   46.7450 C   0  0  0  0  0  0  0  0  0  0  0  0
   63.4850   32.1590   47.8780 C   0  0  0  0  0  0  0  0  0  0  0  0
   62.4960   32.2330   48.8610 C   0  0  0  0  0  0  0  0  0  0  0  0
   61.4080   33.1080   48.7090 C   0  0  0  0  0  0  0  0  0  0  0  0
   60.3710   33.1620   49.7590 C   0  0  0  0  0  0  0  0  0  0  0  0
   60.2730   34.1980   50.4690 O   0  0  0  0  0  0  0  0  0  0  0  0
   59.4830   32.0540   49.9890 N   0  0  0  0  0  0  0  0  0  0  0  0
   59.8480   30.6650   49.7580 C   0  0  0  0  0  0  0  0  0  0  0  0
   58.6180   29.8520   50.1370 C   0  0  0  0  0  0  0  0  0  0  0  0
   57.7530   30.7750   50.9910 C   0  0  0  0  0  0  0  0  0  0  0  0
   58.2120   32.1940   50.6770 C   0  0  0  0  0  0  0  0  0  0  0  0
   59.0320   32.1140   46.3950 N   0  0  0  0  0  0  0  0  0  0  0  0
   58.2880   31.0190   45.8420 C   0  0  0  0  0  0  0  0  0  0  0  0
   57.5210   31.1570   44.6720 C   0  0  0  0  0  0  0  0  0  0  0  0
   56.8360   30.0600   44.1470 C   0  0  0  0  0  0  0  0  0  0  0  0
   56.9110   28.8170   44.7810 C   0  0  0  0  0  0  0  0  0  0  0  0
   57.6740   28.6610   45.9500 C   0  0  0  0  0  0  0  0  0  0  0  0
   57.7660   27.3170   46.6310 C   0  0  0  0  0  0  0  0  0  0  0  0
   56.7100   26.3690   46.1220 C   0  0  0  0  0  0  0  0  0  0  0  0
   55.4050   26.7060   46.3100 N   0  0  0  0  0  0  0  0  0  0  0  0
   54.4050   25.9200   45.9120 N   0  0  0  0  0  0  0  0  0  0  0  0
   54.6350   24.7290   45.3050 C   0  0  0  0  0  0  0  0  0  0  0  0
   53.6580   24.0240   44.9340 O   0  0  0  0  0  0  0  0  0  0  0  0
   55.9550   24.3050   45.0960 C   0  0  0  0  0  0  0  0  0  0  0  0
   57.0120   25.1340   45.5050 C   0  0  0  0  0  0  0  0  0  0  0  0
   58.4180   24.6690   45.2000 C   0  0  0  0  0  0  0  0  0  0  0  0
   58.5920   23.1880   45.5690 C   0  0  0  0  0  0  0  0  0  0  0  0
   57.4280   22.2720   45.1100 C   0  0  0  0  0  0  0  0  0  0  0  0
   56.2820   23.0090   44.3940 C   0  0  0  0  0  0  0  0  0  0  0  0
   58.3820   29.7650   46.4570 C   0  0  0  0  0  0  0  0  0  0  0  0
   58.4354   35.4549   46.7497 H   0  0  0  0  0  0  0  0  0  0  0  0
   58.4191   34.1530   48.0086 H   0  0  0  0  0  0  0  0  0  0  0  0
   62.2862   34.4935   45.6959 H   0  0  0  0  0  0  0  0  0  0  0  0
   64.1832   32.9006   45.9693 H   0  0  0  0  0  0  0  0  0  0  0  0
   64.3278   31.4624   47.9984 H   0  0  0  0  0  0  0  0  0  0  0  0
   62.5695   31.6025   49.7594 H   0  0  0  0  0  0  0  0  0  0  0  0
   60.1030   30.5055   48.6999 H   0  0  0  0  0  0  0  0  0  0  0  0
   60.7287   30.3713   50.3480 H   0  0  0  0  0  0  0  0  0  0  0  0
   58.0711   29.5421   49.2343 H   0  0  0  0  0  0  0  0  0  0  0  0
   58.8914   28.9364   50.6819 H   0  0  0  0  0  0  0  0  0  0  0  0
   56.6912   30.6510   50.7319 H   0  0  0  0  0  0  0  0  0  0  0  0
   57.8572   30.5465   52.0620 H   0  0  0  0  0  0  0  0  0  0  0  0
   57.4797   32.6995   50.0303 H   0  0  0  0  0  0  0  0  0  0  0  0
   58.3097   32.7999   51.5899 H   0  0  0  0  0  0  0  0  0  0  0  0
   57.4605   32.1331   44.1684 H   0  0  0  0  0  0  0  0  0  0  0  0
   56.2359   30.1742   43.2322 H   0  0  0  0  0  0  0  0  0  0  0  0
   56.3695   27.9559   44.3623 H   0  0  0  0  0  0  0  0  0  0  0  0
   58.7587   26.8846   46.4369 H   0  0  0  0  0  0  0  0  0  0  0  0
   57.6084   27.4640   47.7097 H   0  0  0  0  0  0  0  0  0  0  0  0
   58.6164   24.7993   44.1259 H   0  0  0  0  0  0  0  0  0  0  0  0
   59.1250   25.2669   45.7939 H   0  0  0  0  0  0  0  0  0  0  0  0
   59.5200   22.8243   45.1036 H   0  0  0  0  0  0  0  0  0  0  0  0
   58.6153   23.1390   46.6677 H   0  0  0  0  0  0  0  0  0  0  0  0
   57.8353   21.5177   44.4208 H   0  0  0  0  0  0  0  0  0  0  0  0
   56.9969   21.8324   46.0215 H   0  0  0  0  0  0  0  0  0  0  0  0
   56.5843   23.2261   43.3589 H   0  0  0  0  0  0  0  0  0  0  0  0
   55.3888   22.3670   44.4061 H   0  0  0  0  0  0  0  0  0  0  0  0
   59.0168   29.6419   47.3468 H   0  0  0  0  0  0  0  0  0  0  0  0
  1  2  2  0
  2  3  1  0
  3  4  1  0
  4  5  1  0
  5  6  2  0
  6  7  1  0
  7  8  2  0
  8  9  1  0
  9 10  2  0
 10 11  1  0
 11 12  2  0
 11 13  1  0
 13 14  1  0
 14 15  1  0
 15 16  1  0
 16 17  1  0
  2 18  1  0
 18 19  1  0
 19 20  2  0
 20 21  1  0
 21 22  2  0
 22 23  1  0
 23 24  1  0
 24 25  1  0
 25 26  2  0
 26 27  1  0
 27 28  1  0
 28 29  2  0
 28 30  1  0
 30 31  2  0
 31 32  1  0
 32 33  1  0
 33 34  1  0
 34 35  1  0
 23 36  2  0
 10  5  1  0
 17 13  1  0
 36 19  1  0
 31 25  1  0
 35 30  1  0
  3 37  1  0
  3 38  1  0
  6 39  1  0
  7 40  1  0
  8 41  1  0
  9 42  1  0
 14 43  1  0
 14 44  1  0
 15 45  1  0
 15 46  1  0
 16 47  1  0
 16 48  1  0
 17 49  1  0
 17 50  1  0
 20 51  1  0
 21 52  1  0
 22 53  1  0
 24 54  1  0
 24 55  1  0
 32 56  1  0
 32 57  1  0
 33 58  1  0
 33 59  1  0
 34 60  1  0
 34 61  1  0
 35 62  1  0
 35 63  1  0
 36 64  1  0
M  CHG  2  18  -1  27  -1
M  END
>  <UniqueID>  (44) 
40

>  <SMILES>  (44) 
O=C(COc1ccccc1C(=O)N1CCCC1)[N-]c1cccc(Cc2n[n-]c(=O)c3c2CCCC3)c1

>  <Energy>  (44) 
83.24365861328582

>  <Genealogy>  (44) 
O=C(COc1ccccc1C(=O)N1CCCC1)[N-]c1cccc(Cc2n[n-]c(=O)c3c2CCCC3)c1 (protonated)
O=C(COc1ccccc1C(=O)N1CCCC1)[N-]c1cccc(Cc2n[n-]c(=O)c3c2CCCC3)c1 (3D coordinates assigned)
O=C(COc1ccccc1C(=O)N1CCCC1)[N-]c1cccc(Cc2n[n-]c(=O)c3c2CCCC3)c1 (nonaromatic ring conformer: 83.24365861328582 kcal/mol)

>  <smiles>  (44) 
O=C(COc1ccccc1C(=O)N1CCCC1)Nc1cccc(Cc2n[nH]c(=O)c3c2CCCC3)c1

>  <score_type>  (44) 
oracle

>  <origin>  (44) 
adg

>  <m_score__min__energy>  (44) 
-13.789999999999999

>  <m_primary>  (44) 
energy

$$$$
44:0
     RDKit          3D

 52 56  0  0  0  0  0  0  0  0999 V2000
   55.5824   30.4093   42.9538 H   0  0  0  0  0  0  0  0  0  0  0  0
   56.5220   30.3640   43.5240 C   0  0  0  0  0  0  0  0  0  0  0  0
   57.1140   29.1770   43.7010 C   0  0  0  0  0  0  0  0  0  0  0  0
   57.4067   28.5891   42.8186 H   0  0  0  0  0  0  0  0  0  0  0  0
   57.3850   28.6350   45.0440 C   0  0  0  0  0  0  0  0  0  0  0  0
   56.7180   27.6030   45.6160 N   0  0  0  0  0  0  0  0  0  0  0  0
   57.2040   27.3950   46.8370 N   0  0  0  0  0  0  0  0  0  0  0  0
   58.1800   28.2990   47.0380 C   0  0  0  0  0  0  0  0  0  0  0  0
   58.9350   28.4940   48.1900 C   0  0  0  0  0  0  0  0  0  0  0  0
   58.8184   27.8360   49.0637 H   0  0  0  0  0  0  0  0  0  0  0  0
   59.8540   29.5620   48.2010 C   0  0  0  0  0  0  0  0  0  0  0  0
   60.7690   29.9390   49.6970 S   0  0  0  0  0  0  0  0  0  0  0  0
   59.2610   30.2330   50.6420 C   0  0  0  0  0  0  0  0  0  0  0  0
   58.9310   29.3320   51.6650 C   0  0  0  0  0  0  0  0  0  0  0  0
   59.5472   28.4345   51.8227 H   0  0  0  0  0  0  0  0  0  0  0  0
   57.8260   29.5670   52.4840 C   0  0  0  0  0  0  0  0  0  0  0  0
   57.5739   28.8556   53.2842 H   0  0  0  0  0  0  0  0  0  0  0  0
   57.0410   30.7030   52.2890 C   0  0  0  0  0  0  0  0  0  0  0  0
   56.1753   30.8907   52.9412 H   0  0  0  0  0  0  0  0  0  0  0  0
   57.3520   31.6030   51.2670 C   0  0  0  0  0  0  0  0  0  0  0  0
   56.7278   32.4965   51.1186 H   0  0  0  0  0  0  0  0  0  0  0  0
   58.4540   31.3770   50.4280 C   0  0  0  0  0  0  0  0  0  0  0  0
   58.7480   32.3360   49.3460 C   0  0  0  0  0  0  0  0  0  0  0  0
   57.8790   32.5610   48.4590 O   0  0  0  0  0  0  0  0  0  0  0  0
   60.0290   32.9920   49.2890 N   0  0  0  0  0  0  0  0  0  0  0  0
   60.7330   32.8030   50.0380 H   0  0  0  0  0  0  0  0  0  0  0  0
   60.3570   33.9750   48.2620 C   0  0  0  0  0  0  0  0  0  0  0  0
   59.6147   33.9207   47.4520 H   0  0  0  0  0  0  0  0  0  0  0  0
   60.3460   34.9830   48.7023 H   0  0  0  0  0  0  0  0  0  0  0  0
   61.7170   33.6860   47.7120 C   0  0  0  0  0  0  0  0  0  0  0  0
   62.7330   33.2810   48.4410 O   0  0  0  0  0  0  0  0  0  0  0  0
   63.7810   33.1560   47.6600 C   0  0  0  0  0  0  0  0  0  0  0  0
   64.7783   32.8259   47.9862 H   0  0  0  0  0  0  0  0  0  0  0  0
   63.4410   33.5020   46.3660 C   0  0  0  0  0  0  0  0  0  0  0  0
   64.1028   33.5033   45.4874 H   0  0  0  0  0  0  0  0  0  0  0  0
   62.1070   33.8450   46.3970 C   0  0  0  0  0  0  0  0  0  0  0  0
   61.4843   34.1756   45.5527 H   0  0  0  0  0  0  0  0  0  0  0  0
   60.0220   30.3690   47.0480 C   0  0  0  0  0  0  0  0  0  0  0  0
   60.7609   31.1839   47.0552 H   0  0  0  0  0  0  0  0  0  0  0  0
   59.2510   30.1360   45.8940 C   0  0  0  0  0  0  0  0  0  0  0  0
   59.3747   30.7512   44.9905 H   0  0  0  0  0  0  0  0  0  0  0  0
   58.3240   29.0950   45.9400 C   0  0  0  0  0  0  0  0  0  0  0  0
   57.0870   31.6150   44.0680 C   0  0  0  0  0  0  0  0  0  0  0  0
   56.6110   32.1450   45.2320 N   0  0  0  0  0  0  0  0  0  0  0  0
   57.1220   33.2860   45.7670 C   0  0  0  0  0  0  0  0  0  0  0  0
   56.7131   33.6826   46.7080 H   0  0  0  0  0  0  0  0  0  0  0  0
   58.1640   33.9540   45.1240 C   0  0  0  0  0  0  0  0  0  0  0  0
   58.5870   34.8726   45.5568 H   0  0  0  0  0  0  0  0  0  0  0  0
   58.6650   33.4420   43.9220 C   0  0  0  0  0  0  0  0  0  0  0  0
   59.4793   33.9636   43.3977 H   0  0  0  0  0  0  0  0  0  0  0  0
   58.1290   32.2670   43.3890 C   0  0  0  0  0  0  0  0  0  0  0  0
   58.5196   31.8564   42.4462 H   0  0  0  0  0  0  0  0  0  0  0  0
  1  2  1  0
  2  3  2  0
  3  4  1  0
  3  5  1  0
  5  6  1  0
  6  7  1  0
  7  8  2  0
  8  9  1  0
  9 10  1  0
  9 11  2  0
 11 12  1  0
 12 13  1  0
 13 14  2  0
 14 15  1  0
 14 16  1  0
 16 17  1  0
 16 18  2  0
 18 19  1  0
 18 20  1  0
 20 21  1  0
 20 22  2  0
 22 23  1  0
 23 24  2  0
 23 25  1  0
 25 26  1  0
 25 27  1  0
 27 28  1  0
 27 29  1  0
 27 30  1  0
 30 31  1  0
 31 32  1  0
 32 33  1  0
 32 34  2  0
 34 35  1  0
 34 36  1  0
 36 37  1  0
 11 38  1  0
 38 39  1  0
 38 40  2  0
 40 41  1  0
 40 42  1  0
  2 43  1  0
 43 44  2  0
 44 45  1  0
 45 46  1  0
 45 47  2  0
 47 48  1  0
 47 49  1  0
 49 50  1  0
 49 51  2  0
 51 52  1  0
 42  5  2  0
 51 43  1  0
 42  8  1  0
 22 13  1  0
 36 30  2  0
M  CHG  1   6  -1
M  END
>  <UniqueID>  (45) 
41

>  <SMILES>  (45) 
O=C(NCc1ccco1)c1ccccc1Sc1ccc2c(/C=C/c3ccccn3)[n-]nc2c1

>  <Energy>  (45) 
120.03150512425424

>  <Genealogy>  (45) 
O=C(NCc1ccco1)c1ccccc1Sc1ccc2c(C=Cc3ccccn3)[n-]nc2c1 (protonated)
O=C(NCc1ccco1)c1ccccc1Sc1ccc2c(/C=C/c3ccccn3)[n-]nc2c1 (cis-trans isomerization)
O=C(NCc1ccco1)c1ccccc1Sc1ccc2c(/C=C/c3ccccn3)[n-]nc2c1 (3D coordinates assigned)
O=C(NCc1ccco1)c1ccccc1Sc1ccc2c(/C=C/c3ccccn3)[n-]nc2c1 (optimized conformer: 120.03150512425424 kcal/mol)

>  <smiles>  (45) 
O=C(NCc1ccco1)c1ccccc1Sc1ccc2c(C=Cc3ccccn3)[nH]nc2c1

>  <score_type>  (45) 
oracle

>  <origin>  (45) 
adg

>  <m_score__min__energy>  (45) 
-11.960000000000001

>  <m_primary>  (45) 
energy

$$$$
45:0
     RDKit          3D

 47 49  0  0  0  0  0  0  0  0999 V2000
   57.2960   33.3140   47.4110 N   0  0  0  0  0  0  0  0  0  0  0  0
   58.5960   33.9070   47.3730 C   0  0  0  0  0  0  0  0  0  0  0  0
   58.7080   35.1620   47.2880 O   0  0  0  0  0  0  0  0  0  0  0  0
   59.8260   33.0340   47.3790 C   0  0  1  0  0  0  0  0  0  0  0  0
   61.0010   33.7370   46.6920 C   0  0  0  0  0  0  0  0  0  0  0  0
   62.2220   33.4310   47.5500 C   0  0  0  0  0  0  0  0  0  0  0  0
   61.6820   33.0780   48.9300 C   0  0  0  0  0  0  0  0  0  0  0  0
   60.2750   32.7470   48.7390 N   0  0  0  0  0  0  0  0  0  0  0  0
   59.4690   32.1080   49.7570 C   0  0  0  0  0  0  0  0  0  0  0  0
   59.4350   30.7040   49.8780 C   0  0  0  0  0  0  0  0  0  0  0  0
   58.6420   30.0940   50.8540 C   0  0  0  0  0  0  0  0  0  0  0  0
   57.8680   30.8700   51.7280 C   0  0  0  0  0  0  0  0  0  0  0  0
   56.9650   30.2050   52.7270 C   0  0  0  0  0  0  0  0  0  0  0  0
   55.9710   29.4080   52.0120 N   0  0  0  0  0  0  0  0  0  0  0  0
   54.6250   29.0610   53.0550 S   0  0  0  0  0  0  0  0  0  0  0  0
   55.0480   29.2380   54.4860 O   0  0  0  0  0  0  0  0  0  0  0  0
   54.1980   27.6320   52.8540 O   0  0  0  0  0  0  0  0  0  0  0  0
   53.2870   30.1590   52.7180 C   0  0  0  0  0  0  0  0  0  0  0  0
   52.7160   30.8890   53.7650 C   0  0  0  0  0  0  0  0  0  0  0  0
   51.6630   31.7680   53.5130 C   0  0  0  0  0  0  0  0  0  0  0  0
   51.1690   31.9300   52.2130 C   0  0  0  0  0  0  0  0  0  0  0  0
   50.1150   32.8160   52.0060 O   0  0  0  0  0  0  0  0  0  0  0  0
   51.7370   31.2030   51.1430 C   0  0  0  0  0  0  0  0  0  0  0  0
   51.2400   31.3490   49.7500 C   0  0  0  0  0  0  0  0  0  0  0  0
   50.7020   32.4260   49.3760 O   0  0  0  0  0  0  0  0  0  0  0  0
   51.3590   30.3130   48.8330 O   0  0  0  0  0  0  0  0  0  0  0  0
   52.8010   30.3200   51.4130 C   0  0  0  0  0  0  0  0  0  0  0  0
   57.8940   32.2660   51.6100 C   0  0  0  0  0  0  0  0  0  0  0  0
   58.6950   32.8800   50.6430 C   0  0  0  0  0  0  0  0  0  0  0  0
   56.4420   33.9180   47.4020 H   0  0  0  0  0  0  0  0  0  0  0  0
   57.1830   32.2760   47.4320 H   0  0  0  0  0  0  0  0  0  0  0  0
   59.5417   32.1104   46.8535 H   0  0  0  0  0  0  0  0  0  0  0  0
   61.1399   33.3455   45.6734 H   0  0  0  0  0  0  0  0  0  0  0  0
   60.8296   34.8197   46.6006 H   0  0  0  0  0  0  0  0  0  0  0  0
   62.7827   32.5831   47.1297 H   0  0  0  0  0  0  0  0  0  0  0  0
   62.9119   34.2868   47.5921 H   0  0  0  0  0  0  0  0  0  0  0  0
   62.2248   32.2152   49.3435 H   0  0  0  0  0  0  0  0  0  0  0  0
   61.8072   33.9116   49.6367 H   0  0  0  0  0  0  0  0  0  0  0  0
   60.0376   30.0833   49.1986 H   0  0  0  0  0  0  0  0  0  0  0  0
   58.6251   28.9973   50.9369 H   0  0  0  0  0  0  0  0  0  0  0  0
   57.5587   29.5519   53.3835 H   0  0  0  0  0  0  0  0  0  0  0  0
   56.4604   30.9680   53.3380 H   0  0  0  0  0  0  0  0  0  0  0  0
   53.0982   30.7697   54.7896 H   0  0  0  0  0  0  0  0  0  0  0  0
   51.2174   32.3381   54.3415 H   0  0  0  0  0  0  0  0  0  0  0  0
   53.2560   29.7499   50.5897 H   0  0  0  0  0  0  0  0  0  0  0  0
   57.2800   32.8827   52.2828 H   0  0  0  0  0  0  0  0  0  0  0  0
   58.7206   33.9775   50.5739 H   0  0  0  0  0  0  0  0  0  0  0  0
  1  2  1  0
  2  3  2  0
  2  4  1  0
  4  5  1  0
  5  6  1  0
  6  7  1  0
  7  8  1  0
  8  9  1  0
  9 10  2  0
 10 11  1  0
 11 12  2  0
 12 13  1  0
 13 14  1  0
 14 15  1  0
 15 16  2  0
 15 17  2  0
 15 18  1  0
 18 19  2  0
 19 20  1  0
 20 21  2  0
 21 22  1  0
 21 23  1  0
 23 24  1  0
 24 25  2  0
 24 26  1  0
 23 27  2  0
 12 28  1  0
 28 29  2  0
  8  4  1  0
 29  9  1  0
 27 18  1  0
  1 30  1  0
  1 31  1  0
  4 32  1  6
  5 33  1  0
  5 34  1  0
  6 35  1  0
  6 36  1  0
  7 37  1  0
  7 38  1  0
 10 39  1  0
 11 40  1  0
 13 41  1  0
 13 42  1  0
 19 43  1  0
 20 44  1  0
 27 45  1  0
 28 46  1  0
 29 47  1  0
M  CHG  3  14  -1  22  -1  26  -1
M  END
>  <UniqueID>  (46) 
42

>  <SMILES>  (46) 
NC(=O)[C@H]1CCCN1c1ccc(C[N-]S(=O)(=O)c2ccc([O-])c(C(=O)[O-])c2)cc1

>  <Energy>  (46) 
49.824790717793995

>  <Genealogy>  (46) 
NC(=O)C1CCCN1c1ccc(C[N-]S(=O)(=O)c2ccc([O-])c(C(=O)[O-])c2)cc1 (protonated)
NC(=O)[C@H]1CCCN1c1ccc(C[N-]S(=O)(=O)c2ccc([O-])c(C(=O)[O-])c2)cc1 (chirality)
NC(=O)[C@H]1CCCN1c1ccc(C[N-]S(=O)(=O)c2ccc([O-])c(C(=O)[O-])c2)cc1 (3D coordinates assigned)
NC(=O)[C@H]1CCCN1c1ccc(C[N-]S(=O)(=O)c2ccc([O-])c(C(=O)[O-])c2)cc1 (nonaromatic ring conformer: 49.824790717793995 kcal/mol)

>  <smiles>  (46) 
NC(=O)C1CCCN1c1ccc(CNS(=O)(=O)c2ccc(O)c(C(=O)O)c2)cc1

>  <score_type>  (46) 
oracle

>  <origin>  (46) 
adg

>  <m_score__min__energy>  (46) 
-16.789999999999999

>  <m_primary>  (46) 
energy

$$$$
46:0
     RDKit          3D

 64 67  0  0  0  0  0  0  0  0999 V2000
   63.3000   32.6930   48.9030 C   0  0  0  0  0  0  0  0  0  0  0  0
   62.9580   32.8980   47.5380 O   0  0  0  0  0  0  0  0  0  0  0  0
   61.6480   33.0140   47.0480 C   0  0  0  0  0  0  0  0  0  0  0  0
   61.2000   34.1820   46.4020 C   0  0  0  0  0  0  0  0  0  0  0  0
   59.9080   34.2550   45.8820 C   0  0  0  0  0  0  0  0  0  0  0  0
   59.0350   33.1600   45.9830 C   0  0  0  0  0  0  0  0  0  0  0  0
   57.6580   33.2370   45.4400 C   0  0  0  0  0  0  0  0  0  0  0  0
   56.6740   33.3760   46.2180 O   0  0  0  0  0  0  0  0  0  0  0  0
   57.4180   33.1640   44.0330 N   0  0  0  0  0  0  0  0  0  0  0  0
   57.8730   32.0350   43.2310 C   0  0  0  0  0  0  0  0  0  0  0  0
   57.5740   30.7430   43.9420 C   0  0  0  0  0  0  0  0  0  0  0  0
   56.2460   30.3590   44.1670 C   0  0  0  0  0  0  0  0  0  0  0  0
   55.9590   29.1850   44.8660 C   0  0  0  0  0  0  0  0  0  0  0  0
   56.9970   28.3670   45.3440 C   0  0  0  0  0  0  0  0  0  0  0  0
   56.7030   27.1220   46.0940 C   0  0  0  0  0  0  0  0  0  0  0  0
   57.4530   26.7870   47.0500 O   0  0  0  0  0  0  0  0  0  0  0  0
   55.5550   26.3110   45.8080 N   0  0  0  0  0  0  0  0  0  0  0  0
   55.5580   24.9020   45.5310 C   0  0  0  0  0  0  0  0  0  0  0  0
   54.7400   24.0200   46.2630 C   0  0  0  0  0  0  0  0  0  0  0  0
   54.7470   22.6520   45.9830 C   0  0  0  0  0  0  0  0  0  0  0  0
   55.5600   22.1510   44.9660 C   0  0  0  0  0  0  0  0  0  0  0  0
   56.3590   23.0180   44.2160 C   0  0  0  0  0  0  0  0  0  0  0  0
   56.3580   24.3960   44.4860 C   0  0  0  0  0  0  0  0  0  0  0  0
   57.1840   25.2660   43.7020 N   0  0  0  0  0  0  0  0  0  0  0  0
   58.3280   28.7670   45.1350 C   0  0  0  0  0  0  0  0  0  0  0  0
   58.6150   29.9470   44.4420 C   0  0  0  0  0  0  0  0  0  0  0  0
   59.4800   31.9940   46.6320 C   0  0  0  0  0  0  0  0  0  0  0  0
   60.7620   31.9250   47.1880 C   0  0  0  0  0  0  0  0  0  0  0  0
   61.1440   30.7210   47.8700 N   0  0  0  0  0  0  0  0  0  0  0  0
   60.5320   30.1920   49.0540 C   0  0  0  0  0  0  0  0  0  0  0  0
   60.7020   28.9760   49.3310 O   0  0  0  0  0  0  0  0  0  0  0  0
   59.6760   31.0220   49.9320 C   0  0  0  0  0  0  0  0  0  0  0  0
   59.9360   32.3910   50.1030 C   0  0  0  0  0  0  0  0  0  0  0  0
   59.1310   33.1630   50.9450 C   0  0  0  0  0  0  0  0  0  0  0  0
   58.0590   32.5770   51.6190 C   0  0  0  0  0  0  0  0  0  0  0  0
   57.7800   31.2150   51.4520 C   0  0  0  0  0  0  0  0  0  0  0  0
   56.4290   30.4940   52.3190 S   0  0  0  0  0  0  0  0  0  0  0  0
   54.9500   30.8840   51.5140 N   0  0  0  0  0  0  0  0  0  0  0  0
   56.6040   29.0010   52.3650 O   0  0  0  0  0  0  0  0  0  0  0  0
   56.3710   31.0200   53.7270 O   0  0  0  0  0  0  0  0  0  0  0  0
   58.5840   30.4410   50.6020 C   0  0  0  0  0  0  0  0  0  0  0  0
   62.5343   33.1519   49.5457 H   0  0  0  0  0  0  0  0  0  0  0  0
   63.3533   31.6139   49.1096 H   0  0  0  0  0  0  0  0  0  0  0  0
   64.2769   33.1546   49.1096 H   0  0  0  0  0  0  0  0  0  0  0  0
   61.8753   35.0450   46.3065 H   0  0  0  0  0  0  0  0  0  0  0  0
   59.5701   35.1782   45.3886 H   0  0  0  0  0  0  0  0  0  0  0  0
   57.3544   32.0451   42.2610 H   0  0  0  0  0  0  0  0  0  0  0  0
   58.9588   32.1178   43.0753 H   0  0  0  0  0  0  0  0  0  0  0  0
   55.4243   30.9861   43.7908 H   0  0  0  0  0  0  0  0  0  0  0  0
   54.9121   28.8980   45.0440 H   0  0  0  0  0  0  0  0  0  0  0  0
   54.0913   24.4112   47.0606 H   0  0  0  0  0  0  0  0  0  0  0  0
   54.1109   21.9688   46.5649 H   0  0  0  0  0  0  0  0  0  0  0  0
   55.5721   21.0717   44.7542 H   0  0  0  0  0  0  0  0  0  0  0  0
   56.9921   22.6189   43.4098 H   0  0  0  0  0  0  0  0  0  0  0  0
   57.9940   24.8860   43.1630 H   0  0  0  0  0  0  0  0  0  0  0  0
   57.0090   26.2950   43.6580 H   0  0  0  0  0  0  0  0  0  0  0  0
   59.1508   28.1466   45.5198 H   0  0  0  0  0  0  0  0  0  0  0  0
   59.6606   30.2521   44.2884 H   0  0  0  0  0  0  0  0  0  0  0  0
   58.8105   31.1241   46.7034 H   0  0  0  0  0  0  0  0  0  0  0  0
   60.7779   32.8585   49.5714 H   0  0  0  0  0  0  0  0  0  0  0  0
   59.3428   34.2344   51.0766 H   0  0  0  0  0  0  0  0  0  0  0  0
   57.4305   33.1874   52.2842 H   0  0  0  0  0  0  0  0  0  0  0  0
   55.1890   31.5370   50.7340 H   0  0  0  0  0  0  0  0  0  0  0  0
   58.3593   29.3738   50.4586 H   0  0  0  0  0  0  0  0  0  0  0  0
  1  2  1  0
  2  3  1  0
  3  4  2  0
  4  5  1  0
  5  6  2  0
  6  7  1  0
  7  8  2  0
  7  9  1  0
  9 10  1  0
 10 11  1  0
 11 12  2  0
 12 13  1  0
 13 14  2  0
 14 15  1  0
 15 16  2  0
 15 17  1  0
 17 18  1  0
 18 19  2  0
 19 20  1  0
 20 21  2  0
 21 22  1  0
 22 23  2  0
 23 24  1  0
 14 25  1  0
 25 26  2  0
  6 27  1  0
 27 28  2  0
 28 29  1  0
 29 30  1  0
 30 31  2  0
 30 32  1  0
 32 33  2  0
 33 34  1  0
 34 35  2  0
 35 36  1  0
 36 37  1  0
 37 38  1  0
 37 39  2  0
 37 40  2  0
 36 41  2  0
 28  3  1  0
 41 32  1  0
 26 11  1  0
 23 18  1  0
  1 42  1  0
  1 43  1  0
  1 44  1  0
  4 45  1  0
  5 46  1  0
 10 47  1  0
 10 48  1  0
 12 49  1  0
 13 50  1  0
 19 51  1  0
 20 52  1  0
 21 53  1  0
 22 54  1  0
 24 55  1  0
 24 56  1  0
 25 57  1  0
 26 58  1  0
 27 59  1  0
 33 60  1  0
 34 61  1  0
 35 62  1  0
 38 63  1  0
 41 64  1  0
M  CHG  4   9  -1  17  -1  29  -1  38  -1
M  END
>  <UniqueID>  (47) 
43

>  <SMILES>  (47) 
COc1ccc(C(=O)[N-]Cc2ccc(C(=O)[N-]c3ccccc3N)cc2)cc1[N-]C(=O)c1cccc(S([NH-])(=O)=O)c1

>  <Energy>  (47) 
88.95918712581309

>  <Genealogy>  (47) 
COc1ccc(C(=O)[N-]Cc2ccc(C(=O)[N-]c3ccccc3N)cc2)cc1[N-]C(=O)c1cccc(S([NH-])(=O)=O)c1 (protonated)
COc1ccc(C(=O)[N-]Cc2ccc(C(=O)[N-]c3ccccc3N)cc2)cc1[N-]C(=O)c1cccc(S([NH-])(=O)=O)c1 (3D coordinates assigned)
COc1ccc(C(=O)[N-]Cc2ccc(C(=O)[N-]c3ccccc3N)cc2)cc1[N-]C(=O)c1cccc(S([NH-])(=O)=O)c1 (optimized conformer: 88.95918712581309 kcal/mol)

>  <smiles>  (47) 
COc1ccc(C(=O)NCc2ccc(C(=O)Nc3ccccc3N)cc2)cc1NC(=O)c1cccc(S(N)(=O)=O)c1

>  <score_type>  (47) 
oracle

>  <origin>  (47) 
adg

>  <m_score__min__energy>  (47) 
-15.91

>  <m_primary>  (47) 
energy

$$$$
47:0
     RDKit          3D

 41 45  0  0  0  0  0  0  0  0999 V2000
   59.2536   26.9557   45.2406 H   0  0  0  0  0  0  0  0  0  0  0  0
   58.2170   27.1580   45.5480 C   0  0  0  0  0  0  0  0  0  0  0  0
   57.4390   26.0500   46.1290 C   0  0  0  0  0  0  0  0  0  0  0  0
   58.0050   24.9580   46.6700 N   0  0  0  0  0  0  0  0  0  0  0  0
   56.9510   24.2580   47.1420 C   0  0  0  0  0  0  0  0  0  0  0  0
   57.0780   23.1460   47.7170 O   0  0  0  0  0  0  0  0  0  0  0  0
   55.7510   24.8480   46.9580 N   0  0  0  0  0  0  0  0  0  0  0  0
   56.0770   25.9880   46.3270 C   0  0  0  0  0  0  0  0  0  0  0  0
   55.1510   26.9680   45.9880 O   0  0  0  0  0  0  0  0  0  0  0  0
   57.7380   28.3990   45.3710 C   0  0  0  0  0  0  0  0  0  0  0  0
   56.7250   28.8380   44.5220 C   0  0  0  0  0  0  0  0  0  0  0  0
   56.1218   28.1964   43.8628 H   0  0  0  0  0  0  0  0  0  0  0  0
   56.6020   30.1790   44.6380 N   0  0  0  0  0  0  0  0  0  0  0  0
   55.9160   30.7400   44.0960 H   0  0  0  0  0  0  0  0  0  0  0  0
   57.4950   30.6130   45.5200 N   0  0  0  0  0  0  0  0  0  0  0  0
   57.7720   31.8760   45.9820 C   0  0  0  0  0  0  0  0  0  0  0  0
   57.1420   32.9560   45.6100 N   0  0  0  0  0  0  0  0  0  0  0  0
   57.6650   34.1610   44.9820 C   0  0  0  0  0  0  0  0  0  0  0  0
   56.7087   34.5815   44.6374 H   0  0  0  0  0  0  0  0  0  0  0  0
   58.8920   34.7410   45.6640 C   0  0  0  0  0  0  0  0  0  0  0  0
   59.0666   35.8270   45.6512 H   0  0  0  0  0  0  0  0  0  0  0  0
   59.3191   34.6843   46.6761 H   0  0  0  0  0  0  0  0  0  0  0  0
   59.0440   33.9320   44.3870 C   0  0  0  0  0  0  0  0  0  0  0  0
   59.3286   34.4322   43.4496 H   0  0  0  0  0  0  0  0  0  0  0  0
   59.6266   33.0470   44.0915 H   0  0  0  0  0  0  0  0  0  0  0  0
   58.7680   32.0070   46.9010 N   0  0  0  0  0  0  0  0  0  0  0  0
   59.4800   30.9270   47.3430 C   0  0  0  0  0  0  0  0  0  0  0  0
   60.4900   31.0720   48.3030 O   0  0  0  0  0  0  0  0  0  0  0  0
   61.6270   31.8820   48.1650 C   0  0  0  0  0  0  0  0  0  0  0  0
   61.7640   32.8110   47.1160 C   0  0  0  0  0  0  0  0  0  0  0  0
   60.9581   32.9256   46.3762 H   0  0  0  0  0  0  0  0  0  0  0  0
   62.9210   33.5880   47.0120 C   0  0  0  0  0  0  0  0  0  0  0  0
   63.0194   34.3188   46.1958 H   0  0  0  0  0  0  0  0  0  0  0  0
   63.9530   33.4390   47.9420 C   0  0  0  0  0  0  0  0  0  0  0  0
   64.8593   34.0572   47.8621 H   0  0  0  0  0  0  0  0  0  0  0  0
   63.8330   32.5030   48.9750 C   0  0  0  0  0  0  0  0  0  0  0  0
   65.1340   32.3050   50.1360 Cl  0  0  0  0  0  0  0  0  0  0  0  0
   62.6760   31.7230   49.0800 C   0  0  0  0  0  0  0  0  0  0  0  0
   62.5895   30.9799   49.8865 H   0  0  0  0  0  0  0  0  0  0  0  0
   59.1850   29.6850   46.8780 N   0  0  0  0  0  0  0  0  0  0  0  0
   58.1920   29.5560   45.9660 C   0  0  0  0  0  0  0  0  0  0  0  0
  1  2  1  0
  2  3  1  0
  3  4  1  0
  4  5  1  0
  5  6  2  0
  5  7  1  0
  7  8  1  0
  8  9  1  0
  2 10  2  0
 10 11  1  0
 11 12  1  0
 11 13  2  0
 13 14  1  0
 13 15  1  0
 15 16  1  0
 16 17  2  3
 17 18  1  0
 18 19  1  0
 18 20  1  0
 20 21  1  0
 20 22  1  0
 20 23  1  0
 23 24  1  0
 23 25  1  0
 16 26  1  0
 26 27  2  0
 27 28  1  0
 28 29  1  0
 29 30  2  0
 30 31  1  0
 30 32  1  0
 32 33  1  0
 32 34  2  0
 34 35  1  0
 34 36  1  0
 36 37  1  0
 36 38  2  0
 38 39  1  0
 27 40  1  0
 40 41  2  0
  8  3  2  0
 41 10  1  0
 41 15  1  0
 23 18  1  0
 38 29  1  0
M  CHG  4   4  -1   7  -1   9  -1  13   1
M  END
>  <UniqueID>  (48) 
44

>  <SMILES>  (48) 
O=c1[n-]c([O-])c(/C=c2\c[nH+]n3c(=NC4CC4)nc(Oc4cccc(Cl)c4)nc23)[n-]1

>  <Energy>  (48) 
397.6960785368666

>  <Genealogy>  (48) 
O=c1[n-]c([O-])c(C=c2c[nH+]n3c(=NC4CC4)nc(Oc4cccc(Cl)c4)nc23)[n-]1 (protonated)
O=c1[n-]c([O-])c(/C=c2\c[nH+]n3c(=NC4CC4)nc(Oc4cccc(Cl)c4)nc23)[n-]1 (cis-trans isomerization)
O=c1[n-]c([O-])c(/C=c2\c[nH+]n3c(=NC4CC4)nc(Oc4cccc(Cl)c4)nc23)[n-]1 (3D coordinates assigned)
O=c1[n-]c([O-])c(/C=c2\c[nH+]n3c(=NC4CC4)nc(Oc4cccc(Cl)c4)nc23)[n-]1 (nonaromatic ring conformer: 397.6960785368666 kcal/mol)

>  <smiles>  (48) 
O=c1[nH]c(O)c(C=c2cnn3c(=NC4CC4)nc(Oc4cccc(Cl)c4)nc23)[nH]1

>  <score_type>  (48) 
oracle

>  <origin>  (48) 
adg

>  <m_score__min__energy>  (48) 
-15.699999999999999

>  <m_primary>  (48) 
energy

$$$$
48:0
     RDKit          3D

 68 72  0  0  0  0  0  0  0  0999 V2000
   54.5010   24.8780   45.5920 C   0  0  0  0  0  0  0  0  0  0  0  0
   55.2720   25.9640   46.0560 O   0  0  0  0  0  0  0  0  0  0  0  0
   56.6340   25.6000   46.1790 C   0  0  0  0  0  0  0  0  0  0  0  0
   57.4080   26.5790   47.0780 C   0  0  0  0  0  0  0  0  0  0  0  0
   58.5060   27.3680   46.3420 C   0  0  0  0  0  0  0  0  0  0  0  0
   58.2210   28.8160   46.3150 N   0  0  0  0  0  0  0  0  0  0  0  0
   57.7950   29.5380   45.2410 C   0  0  0  0  0  0  0  0  0  0  0  0
   57.4240   29.0630   43.9630 C   0  0  0  0  0  0  0  0  0  0  0  0
   57.3960   27.6880   43.6890 O   0  0  0  0  0  0  0  0  0  0  0  0
   58.1370   27.0510   42.6540 C   0  0  0  0  0  0  0  0  0  0  0  0
   57.0700   30.0150   42.9830 C   0  0  0  0  0  0  0  0  0  0  0  0
   57.0890   31.3870   43.2740 C   0  0  0  0  0  0  0  0  0  0  0  0
   57.4450   31.8410   44.5490 C   0  0  0  0  0  0  0  0  0  0  0  0
   57.7700   30.8970   45.5340 C   0  0  0  0  0  0  0  0  0  0  0  0
   58.1720   31.0140   46.8650 C   0  0  0  0  0  0  0  0  0  0  0  0
   58.4510   29.7370   47.2970 C   0  0  0  0  0  0  0  0  0  0  0  0
   58.9490   29.5430   48.5900 C   0  0  0  0  0  0  0  0  0  0  0  0
   59.2160   28.3880   49.0140 O   0  0  0  0  0  0  0  0  0  0  0  0
   59.1490   30.6360   49.3960 N   0  0  0  0  0  0  0  0  0  0  0  0
   59.6550   30.4470   50.7720 C   0  0  0  0  0  0  0  0  0  0  0  0
   58.5110   30.2830   51.7230 C   0  0  0  0  0  0  0  0  0  0  0  0
   57.3610   31.0620   51.7560 C   0  0  0  0  0  0  0  0  0  0  0  0
   56.5040   30.7350   52.8130 C   0  0  0  0  0  0  0  0  0  0  0  0
   56.9810   29.7100   53.6200 C   0  0  0  0  0  0  0  0  0  0  0  0
   58.4720   29.2120   53.0200 S   0  0  0  0  0  0  0  0  0  0  0  0
   58.8260   31.9020   48.9530 C   0  0  0  0  0  0  0  0  0  0  0  0
   59.0100   32.8920   49.7180 O   0  0  0  0  0  0  0  0  0  0  0  0
   58.3110   32.1050   47.6880 N   0  0  0  0  0  0  0  0  0  0  0  0
   57.9420   33.4700   47.2680 C   0  0  0  0  0  0  0  0  0  0  0  0
   59.0580   34.1220   46.5050 C   0  0  0  0  0  0  0  0  0  0  0  0
   58.9730   35.3420   46.2070 O   0  0  0  0  0  0  0  0  0  0  0  0
   60.2090   33.3540   46.1270 N   0  0  0  0  0  0  0  0  0  0  0  0
   61.4310   33.2140   46.8660 C   0  0  0  0  0  0  0  0  0  0  0  0
   62.5550   33.9340   46.4440 C   0  0  0  0  0  0  0  0  0  0  0  0
   63.7760   33.7940   47.1110 C   0  0  0  0  0  0  0  0  0  0  0  0
   63.8850   32.9270   48.2000 C   0  0  0  0  0  0  0  0  0  0  0  0
   62.7700   32.1910   48.6300 C   0  0  0  0  0  0  0  0  0  0  0  0
   62.8940   31.2140   49.7620 C   0  0  0  0  0  0  0  0  0  0  0  0
   61.5480   32.3230   47.9490 C   0  0  0  0  0  0  0  0  0  0  0  0
   54.1030   24.3175   46.4507 H   0  0  0  0  0  0  0  0  0  0  0  0
   53.6670   25.2547   44.9817 H   0  0  0  0  0  0  0  0  0  0  0  0
   55.1317   24.2148   44.9817 H   0  0  0  0  0  0  0  0  0  0  0  0
   56.6952   24.5919   46.6150 H   0  0  0  0  0  0  0  0  0  0  0  0
   57.0865   25.6255   45.1767 H   0  0  0  0  0  0  0  0  0  0  0  0
   56.6922   27.2973   47.5043 H   0  0  0  0  0  0  0  0  0  0  0  0
   57.9107   25.9755   47.8481 H   0  0  0  0  0  0  0  0  0  0  0  0
   59.4655   27.2042   46.8545 H   0  0  0  0  0  0  0  0  0  0  0  0
   58.5443   27.0093   45.3028 H   0  0  0  0  0  0  0  0  0  0  0  0
   58.8997   26.3953   43.0993 H   0  0  0  0  0  0  0  0  0  0  0  0
   57.4565   26.4516   42.0314 H   0  0  0  0  0  0  0  0  0  0  0  0
   58.6274   27.8138   42.0314 H   0  0  0  0  0  0  0  0  0  0  0  0
   56.7755   29.6768   41.9786 H   0  0  0  0  0  0  0  0  0  0  0  0
   56.8214   32.1132   42.4923 H   0  0  0  0  0  0  0  0  0  0  0  0
   57.4694   32.9174   44.7743 H   0  0  0  0  0  0  0  0  0  0  0  0
   60.2884   29.5483   50.8064 H   0  0  0  0  0  0  0  0  0  0  0  0
   60.2420   31.3302   51.0641 H   0  0  0  0  0  0  0  0  0  0  0  0
   57.1459   31.8555   51.0252 H   0  0  0  0  0  0  0  0  0  0  0  0
   55.5435   31.2418   52.9881 H   0  0  0  0  0  0  0  0  0  0  0  0
   56.4707   29.2945   54.5015 H   0  0  0  0  0  0  0  0  0  0  0  0
   57.0500   33.4194   46.6264 H   0  0  0  0  0  0  0  0  0  0  0  0
   57.7382   34.0688   48.1679 H   0  0  0  0  0  0  0  0  0  0  0  0
   62.4772   34.6138   45.5827 H   0  0  0  0  0  0  0  0  0  0  0  0
   64.6527   34.3683   46.7770 H   0  0  0  0  0  0  0  0  0  0  0  0
   64.8472   32.8205   48.7223 H   0  0  0  0  0  0  0  0  0  0  0  0
   62.8258   31.7515   50.7193 H   0  0  0  0  0  0  0  0  0  0  0  0
   62.0826   30.4741   49.6983 H   0  0  0  0  0  0  0  0  0  0  0  0
   63.8646   30.7002   49.6983 H   0  0  0  0  0  0  0  0  0  0  0  0
   60.6787   31.7271   48.2639 H   0  0  0  0  0  0  0  0  0  0  0  0
  1  2  1  0
  2  3  1  0
  3  4  1  0
  4  5  1  0
  5  6  1  0
  6  7  1  0
  7  8  2  0
  8  9  1  0
  9 10  1  0
  8 11  1  0
 11 12  2  0
 12 13  1  0
 13 14  2  0
 14 15  1  0
 15 16  2  0
 16 17  1  0
 17 18  2  0
 17 19  1  0
 19 20  1  0
 20 21  1  0
 21 22  2  0
 22 23  1  0
 23 24  2  0
 24 25  1  0
 19 26  1  0
 26 27  2  0
 26 28  1  0
 28 29  1  0
 29 30  1  0
 30 31  2  0
 30 32  1  0
 32 33  1  0
 33 34  2  0
 34 35  1  0
 35 36  2  0
 36 37  1  0
 37 38  1  0
 37 39  2  0
 16  6  1  0
 25 21  1  0
 39 33  1  0
 14  7  1  0
 28 15  1  0
  1 40  1  0
  1 41  1  0
  1 42  1  0
  3 43  1  0
  3 44  1  0
  4 45  1  0
  4 46  1  0
  5 47  1  0
  5 48  1  0
 10 49  1  0
 10 50  1  0
 10 51  1  0
 11 52  1  0
 12 53  1  0
 13 54  1  0
 20 55  1  0
 20 56  1  0
 22 57  1  0
 23 58  1  0
 24 59  1  0
 29 60  1  0
 29 61  1  0
 34 62  1  0
 35 63  1  0
 36 64  1  0
 38 65  1  0
 38 66  1  0
 38 67  1  0
 39 68  1  0
M  CHG  1  32  -1
M  END
>  <UniqueID>  (49) 
45

>  <SMILES>  (49) 
COCCCn1c2c(OC)cccc2c2c1c(=O)n(Cc1cccs1)c(=O)n2CC(=O)[N-]c1cccc(C)c1

>  <Energy>  (49) 
155.14705566706525

>  <Genealogy>  (49) 
COCCCn1c2c(OC)cccc2c2c1c(=O)n(Cc1cccs1)c(=O)n2CC(=O)[N-]c1cccc(C)c1 (protonated)
COCCCn1c2c(OC)cccc2c2c1c(=O)n(Cc1cccs1)c(=O)n2CC(=O)[N-]c1cccc(C)c1 (3D coordinates assigned)
COCCCn1c2c(OC)cccc2c2c1c(=O)n(Cc1cccs1)c(=O)n2CC(=O)[N-]c1cccc(C)c1 (optimized conformer: 155.14705566706525 kcal/mol)

>  <smiles>  (49) 
COCCCn1c2c(OC)cccc2c2c1c(=O)n(Cc1cccs1)c(=O)n2CC(=O)Nc1cccc(C)c1

>  <score_type>  (49) 
oracle

>  <origin>  (49) 
adg

>  <m_score__min__energy>  (49) 
-9.8399999999999999

>  <m_primary>  (49) 
energy

$$$$
49:0
     RDKit          3D

 50 52  0  0  0  0  0  0  0  0999 V2000
   57.4570   34.2160   45.3200 C   0  0  0  0  0  0  0  0  0  0  0  0
   57.6390   33.5770   46.6930 C   0  0  0  0  0  0  0  0  0  0  0  0
   58.8090   32.6390   46.6940 C   0  0  0  0  0  0  0  0  0  0  0  0
   59.9240   32.8580   47.4170 N   0  0  0  0  0  0  0  0  0  0  0  0
   60.7430   31.8350   47.0950 C   0  0  0  0  0  0  0  0  0  0  0  0
   62.1090   31.6860   47.7090 C   0  0  0  0  0  0  0  0  0  0  0  0
   63.0720   32.7260   47.1480 C   0  0  0  0  0  0  0  0  0  0  0  0
   60.2010   30.9940   46.1760 N   0  0  0  0  0  0  0  0  0  0  0  0
   60.7820   29.7390   45.6800 C   0  0  0  0  0  0  0  0  0  0  0  0
   59.7910   28.6020   45.7480 C   0  0  0  0  0  0  0  0  0  0  0  0
   59.3840   28.0630   46.9800 C   0  0  0  0  0  0  0  0  0  0  0  0
   58.4780   26.9990   47.0230 C   0  0  0  0  0  0  0  0  0  0  0  0
   57.9700   26.4480   45.8360 C   0  0  0  0  0  0  0  0  0  0  0  0
   57.0090   25.3170   45.8870 C   0  0  0  0  0  0  0  0  0  0  0  0
   57.4830   23.9940   45.8770 C   0  0  0  0  0  0  0  0  0  0  0  0
   56.5880   22.9250   45.9190 C   0  0  0  0  0  0  0  0  0  0  0  0
   55.2180   23.1820   45.9740 C   0  0  0  0  0  0  0  0  0  0  0  0
   54.7670   24.4630   45.9950 N   0  0  0  0  0  0  0  0  0  0  0  0
   55.6150   25.5270   45.9590 C   0  0  0  0  0  0  0  0  0  0  0  0
   55.1390   26.6920   46.0070 O   0  0  0  0  0  0  0  0  0  0  0  0
   58.3990   26.9680   44.6040 C   0  0  0  0  0  0  0  0  0  0  0  0
   59.3040   28.0330   44.5600 C   0  0  0  0  0  0  0  0  0  0  0  0
   58.9730   31.5000   45.9200 C   0  0  0  0  0  0  0  0  0  0  0  0
   57.9580   30.9130   45.0180 C   0  0  0  0  0  0  0  0  0  0  0  0
   57.0920   30.1290   45.4910 O   0  0  0  0  0  0  0  0  0  0  0  0
   57.9270   31.2500   43.6250 N   0  0  0  0  0  0  0  0  0  0  0  0
   56.9990   30.6090   42.7020 C   0  0  0  0  0  0  0  0  0  0  0  0
   57.1575   35.2674   45.4417 H   0  0  0  0  0  0  0  0  0  0  0  0
   58.4049   34.1667   44.7641 H   0  0  0  0  0  0  0  0  0  0  0  0
   56.6773   33.6747   44.7641 H   0  0  0  0  0  0  0  0  0  0  0  0
   57.8101   34.3674   47.4386 H   0  0  0  0  0  0  0  0  0  0  0  0
   56.7308   33.0074   46.9396 H   0  0  0  0  0  0  0  0  0  0  0  0
   62.0309   31.8176   48.7983 H   0  0  0  0  0  0  0  0  0  0  0  0
   62.4949   30.6839   47.4706 H   0  0  0  0  0  0  0  0  0  0  0  0
   63.5629   33.2562   47.9774 H   0  0  0  0  0  0  0  0  0  0  0  0
   63.8330   32.2259   46.5309 H   0  0  0  0  0  0  0  0  0  0  0  0
   62.5150   33.4464   46.5309 H   0  0  0  0  0  0  0  0  0  0  0  0
   61.0936   29.8787   44.6344 H   0  0  0  0  0  0  0  0  0  0  0  0
   61.6425   29.4836   46.3159 H   0  0  0  0  0  0  0  0  0  0  0  0
   59.7808   28.4809   47.9170 H   0  0  0  0  0  0  0  0  0  0  0  0
   58.1610   26.5907   47.9940 H   0  0  0  0  0  0  0  0  0  0  0  0
   58.5651   23.8006   45.8358 H   0  0  0  0  0  0  0  0  0  0  0  0
   56.9588   21.8894   45.9089 H   0  0  0  0  0  0  0  0  0  0  0  0
   54.5026   22.3468   46.0004 H   0  0  0  0  0  0  0  0  0  0  0  0
   58.0203   26.5343   43.6667 H   0  0  0  0  0  0  0  0  0  0  0  0
   59.6366   28.4277   43.5886 H   0  0  0  0  0  0  0  0  0  0  0  0
   58.5680   31.9830   43.2540 H   0  0  0  0  0  0  0  0  0  0  0  0
   56.2251   30.0744   43.2724 H   0  0  0  0  0  0  0  0  0  0  0  0
   56.5253   31.3734   42.0685 H   0  0  0  0  0  0  0  0  0  0  0  0
   57.5462   29.8954   42.0685 H   0  0  0  0  0  0  0  0  0  0  0  0
  1  2  1  0
  2  3  1  0
  3  4  1  0
  4  5  2  0
  5  6  1  0
  6  7  1  0
  5  8  1  0
  8  9  1  0
  9 10  1  0
 10 11  2  0
 11 12  1  0
 12 13  2  0
 13 14  1  0
 14 15  2  0
 15 16  1  0
 16 17  2  0
 17 18  1  0
 18 19  1  0
 19 20  2  0
 13 21  1  0
 21 22  2  0
  8 23  1  0
 23 24  1  0
 24 25  2  0
 24 26  1  0
 26 27  1  0
 23  3  2  0
 22 10  1  0
 19 14  1  0
  1 28  1  0
  1 29  1  0
  1 30  1  0
  2 31  1  0
  2 32  1  0
  6 33  1  0
  6 34  1  0
  7 35  1  0
  7 36  1  0
  7 37  1  0
  9 38  1  0
  9 39  1  0
 11 40  1  0
 12 41  1  0
 15 42  1  0
 16 43  1  0
 17 44  1  0
 21 45  1  0
 22 46  1  0
 26 47  1  0
 27 48  1  0
 27 49  1  0
 27 50  1  0
M  CHG  1  18  -1
M  END
>  <UniqueID>  (50) 
46

>  <SMILES>  (50) 
CCc1nc(CC)n(Cc2ccc(-c3ccc[n-]c3=O)cc2)c1C(=O)NC

>  <Energy>  (50) 
82.89666934961005

>  <Genealogy>  (50) 
CCc1nc(CC)n(Cc2ccc(-c3ccc[n-]c3=O)cc2)c1C(=O)NC (protonated)
CCc1nc(CC)n(Cc2ccc(-c3ccc[n-]c3=O)cc2)c1C(=O)NC (3D coordinates assigned)
CCc1nc(CC)n(Cc2ccc(-c3ccc[n-]c3=O)cc2)c1C(=O)NC (optimized conformer: 82.89666934961005 kcal/mol)

>  <smiles>  (50) 
CCc1nc(CC)n(Cc2ccc(-c3ccc[nH]c3=O)cc2)c1C(=O)NC

>  <score_type>  (50) 
oracle

>  <origin>  (50) 
adg

>  <m_score__min__energy>  (50) 
-10.42

>  <m_primary>  (50) 
energy

$$$$
50:0
     RDKit          3D

 38 40  0  0  1  0  0  0  0  0999 V2000
   60.0730   30.5470   46.3690 C   0  0  0  0  0  0  0  0  0  0  0  0
   58.8280   30.5190   45.5470 C   0  0  0  0  0  0  0  0  0  0  0  0
   58.3270   29.3060   45.1110 C   0  0  0  0  0  0  0  0  0  0  0  0
   57.1900   29.1760   44.3500 C   0  0  0  0  0  0  0  0  0  0  0  0
   56.5240   30.3340   44.0120 C   0  0  0  0  0  0  0  0  0  0  0  0
   57.0130   31.5540   44.4410 C   0  0  0  0  0  0  0  0  0  0  0  0
   58.1520   31.6900   45.2040 C   0  0  0  0  0  0  0  0  0  0  0  0
   58.6610   32.9860   45.6530 C   0  0  0  0  0  0  0  0  0  0  0  0
   58.7920   34.0500   44.7870 C   0  0  0  0  0  0  0  0  0  0  0  0
   59.2800   35.2870   45.2290 C   0  0  0  0  0  0  0  0  0  0  0  0
   59.6350   35.4680   46.5140 N   0  0  0  0  0  0  0  0  0  0  0  0
   59.4960   34.4110   47.3320 C   0  0  0  0  0  0  0  0  0  0  0  0
   59.8420   34.5950   48.5690 N   0  0  0  0  0  0  0  0  0  0  0  0
   59.9920   33.4660   49.4430 C   0  0  0  0  0  0  0  0  0  0  0  0
   61.4570   33.4080   49.8300 C   0  0  0  0  0  0  0  0  0  0  0  0
   62.3540   33.2740   48.6530 C   0  0  0  0  0  0  0  0  0  0  0  0
   63.2280   32.2310   48.3550 C   0  0  0  0  0  0  0  0  0  0  0  0
   63.8190   32.5610   47.1890 N   0  0  0  0  0  0  0  0  0  0  0  0
   63.3610   33.7420   46.7560 C   0  0  0  0  0  0  0  0  0  0  0  0
   62.4600   34.1900   47.6470 N   0  0  0  0  0  0  0  0  0  0  0  0
   59.0310   33.2160   46.9340 N   0  0  0  0  0  0  0  0  0  0  0  0
   59.8078   30.5410   47.4365 H   0  0  0  0  0  0  0  0  0  0  0  0
   60.6847   29.6624   46.1382 H   0  0  0  0  0  0  0  0  0  0  0  0
   60.6443   31.4582   46.1382 H   0  0  0  0  0  0  0  0  0  0  0  0
   58.8706   28.3912   45.3897 H   0  0  0  0  0  0  0  0  0  0  0  0
   56.8272   28.1898   44.0247 H   0  0  0  0  0  0  0  0  0  0  0  0
   55.6083   30.2880   43.4042 H   0  0  0  0  0  0  0  0  0  0  0  0
   56.4636   32.4641   44.1582 H   0  0  0  0  0  0  0  0  0  0  0  0
   58.5088   33.9262   43.7313 H   0  0  0  0  0  0  0  0  0  0  0  0
   59.3739   36.1200   44.5168 H   0  0  0  0  0  0  0  0  0  0  0  0
   60.0040   36.3850   46.8640 H   0  0  0  0  0  0  0  0  0  0  0  0
   59.3676   33.5946   50.3394 H   0  0  0  0  0  0  0  0  0  0  0  0
   59.6760   32.5363   48.9472 H   0  0  0  0  0  0  0  0  0  0  0  0
   61.7163   34.3322   50.3672 H   0  0  0  0  0  0  0  0  0  0  0  0
   61.6000   32.5183   50.4609 H   0  0  0  0  0  0  0  0  0  0  0  0
   63.4009   31.3223   48.9503 H   0  0  0  0  0  0  0  0  0  0  0  0
   64.5370   31.9670   46.6980 H   0  0  0  0  0  0  0  0  0  0  0  0
   63.6681   34.2556   45.8330 H   0  0  0  0  0  0  0  0  0  0  0  0
  1  2  1  0
  2  3  2  0
  3  4  1  0
  4  5  2  0
  5  6  1  0
  6  7  2  0
  7  8  1  0
  8  9  1  0
  9 10  2  0
 10 11  1  0
 11 12  1  0
 12 13  2  0
 13 14  1  0
 14 15  1  0
 15 16  1  0
 16 17  2  0
 17 18  1  0
 18 19  1  0
 19 20  2  0
 12 21  1  0
  7  2  1  0
 21  8  2  0
 20 16  1  0
  1 22  1  0
  1 23  1  0
  1 24  1  0
  3 25  1  0
  4 26  1  0
  5 27  1  0
  6 28  1  0
  9 29  1  0
 10 30  1  0
 11 31  1  0
 14 32  1  0
 14 33  1  0
 15 34  1  0
 15 35  1  0
 17 36  1  0
 18 37  1  0
 19 38  1  0
M  END
>  <smiles>  (51) 
Cc1ccccc1-c1cc[nH]c(=NCCc2c[nH]cn2)n1

>  <score_type>  (51) 
oracle

>  <origin>  (51) 
adg

>  <m_score__min__energy>  (51) 
-7.5099999999999998

>  <m_primary>  (51) 
energy

$$$$
51:0
     RDKit          3D

 44 45  0  0  0  0  0  0  0  0999 V2000
   55.1200   29.3440   44.8060 N   0  0  0  0  0  0  0  0  0  0  0  0
   56.7270   29.6950   44.2780 S   0  0  0  0  0  0  0  0  0  0  0  0
   56.8400   31.1590   43.9620 O   0  0  0  0  0  0  0  0  0  0  0  0
   57.0260   28.9080   43.0320 O   0  0  0  0  0  0  0  0  0  0  0  0
   57.8740   29.2780   45.5480 C   0  0  0  0  0  0  0  0  0  0  0  0
   57.6520   28.1660   46.3730 C   0  0  0  0  0  0  0  0  0  0  0  0
   58.5750   27.8360   47.3690 C   0  0  0  0  0  0  0  0  0  0  0  0
   59.7270   28.6150   47.5550 C   0  0  0  0  0  0  0  0  0  0  0  0
   60.7460   28.2360   48.5990 C   0  0  0  0  0  0  0  0  0  0  0  0
   60.8690   29.2930   49.6960 C   0  0  0  0  0  0  0  0  0  0  0  0
   59.6860   29.2750   50.5500 N   0  0  0  0  0  0  0  0  0  0  0  0
   58.5540   30.1430   50.4110 C   0  0  0  0  0  0  0  0  0  0  0  0
   57.5870   30.0030   51.2060 O   0  0  0  0  0  0  0  0  0  0  0  0
   58.5030   31.2500   49.3860 C   0  0  0  0  0  0  0  0  0  0  0  0
   59.2620   32.5030   49.8410 C   0  0  0  0  0  0  0  0  0  0  0  0
   60.2070   33.2520   48.5180 S   0  0  0  0  0  0  0  0  0  0  0  0
   60.7920   34.5460   49.0030 O   0  0  0  0  0  0  0  0  0  0  0  0
   61.3280   32.3250   48.1400 O   0  0  0  0  0  0  0  0  0  0  0  0
   59.1990   33.5820   47.1110 C   0  0  0  0  0  0  0  0  0  0  0  0
   57.8400   33.2340   47.1280 C   0  0  0  0  0  0  0  0  0  0  0  0
   57.0340   33.4960   46.0150 C   0  0  0  0  0  0  0  0  0  0  0  0
   57.5740   34.1270   44.8920 C   0  0  0  0  0  0  0  0  0  0  0  0
   58.9220   34.4950   44.8800 C   0  0  0  0  0  0  0  0  0  0  0  0
   59.7360   34.2170   45.9810 C   0  0  0  0  0  0  0  0  0  0  0  0
   59.9270   29.7490   46.7530 C   0  0  0  0  0  0  0  0  0  0  0  0
   59.0080   30.0740   45.7520 C   0  0  0  0  0  0  0  0  0  0  0  0
   54.7120   28.6670   44.1220 H   0  0  0  0  0  0  0  0  0  0  0  0
   56.7495   27.5522   46.2359 H   0  0  0  0  0  0  0  0  0  0  0  0
   58.3974   26.9605   48.0108 H   0  0  0  0  0  0  0  0  0  0  0  0
   60.4453   27.2826   49.0578 H   0  0  0  0  0  0  0  0  0  0  0  0
   61.7233   28.1502   48.1015 H   0  0  0  0  0  0  0  0  0  0  0  0
   61.7600   29.0818   50.3055 H   0  0  0  0  0  0  0  0  0  0  0  0
   60.9589   30.2850   49.2293 H   0  0  0  0  0  0  0  0  0  0  0  0
   58.9514   30.8857   48.4499 H   0  0  0  0  0  0  0  0  0  0  0  0
   57.4483   31.5290   49.2456 H   0  0  0  0  0  0  0  0  0  0  0  0
   58.5352   33.2389   50.2154 H   0  0  0  0  0  0  0  0  0  0  0  0
   59.9701   32.1977   50.6255 H   0  0  0  0  0  0  0  0  0  0  0  0
   57.4074   32.7542   48.0183 H   0  0  0  0  0  0  0  0  0  0  0  0
   55.9733   33.2046   46.0243 H   0  0  0  0  0  0  0  0  0  0  0  0
   56.9389   34.3340   44.0181 H   0  0  0  0  0  0  0  0  0  0  0  0
   59.3435   35.0050   44.0012 H   0  0  0  0  0  0  0  0  0  0  0  0
   60.7997   34.4965   45.9618 H   0  0  0  0  0  0  0  0  0  0  0  0
   60.8106   30.3844   46.9130 H   0  0  0  0  0  0  0  0  0  0  0  0
   59.1760   30.9593   45.1212 H   0  0  0  0  0  0  0  0  0  0  0  0
  1  2  1  0
  2  3  2  0
  2  4  2  0
  2  5  1  0
  5  6  2  0
  6  7  1  0
  7  8  2  0
  8  9  1  0
  9 10  1  0
 10 11  1  0
 11 12  1  0
 12 13  2  0
 12 14  1  0
 14 15  1  0
 15 16  1  0
 16 17  2  0
 16 18  2  0
 16 19  1  0
 19 20  2  0
 20 21  1  0
 21 22  2  0
 22 23  1  0
 23 24  2  0
  8 25  1  0
 25 26  2  0
 26  5  1  0
 24 19  1  0
  1 27  1  0
  6 28  1  0
  7 29  1  0
  9 30  1  0
  9 31  1  0
 10 32  1  0
 10 33  1  0
 14 34  1  0
 14 35  1  0
 15 36  1  0
 15 37  1  0
 20 38  1  0
 21 39  1  0
 22 40  1  0
 23 41  1  0
 24 42  1  0
 25 43  1  0
 26 44  1  0
M  CHG  2   1  -1  11  -1
M  END
>  <UniqueID>  (52) 
47

>  <SMILES>  (52) 
[NH-]S(=O)(=O)c1ccc(CC[N-]C(=O)CCS(=O)(=O)c2ccccc2)cc1

>  <Energy>  (52) 
30.142339277846173

>  <Genealogy>  (52) 
[NH-]S(=O)(=O)c1ccc(CC[N-]C(=O)CCS(=O)(=O)c2ccccc2)cc1 (protonated)
[NH-]S(=O)(=O)c1ccc(CC[N-]C(=O)CCS(=O)(=O)c2ccccc2)cc1 (3D coordinates assigned)
[NH-]S(=O)(=O)c1ccc(CC[N-]C(=O)CCS(=O)(=O)c2ccccc2)cc1 (optimized conformer: 30.142339277846173 kcal/mol)

>  <smiles>  (52) 
NS(=O)(=O)c1ccc(CCNC(=O)CCS(=O)(=O)c2ccccc2)cc1

>  <score_type>  (52) 
oracle

>  <origin>  (52) 
adg

>  <m_score__min__energy>  (52) 
-12.029999999999999

>  <m_primary>  (52) 
energy

$$$$
52:0
     RDKit          3D

 51 53  0  0  0  0  0  0  0  0999 V2000
   57.0520   20.3470   43.4090 H   0  0  0  0  0  0  0  0  0  0  0  0
   56.2410   20.9660   43.1910 N   0  0  0  0  0  0  0  0  0  0  0  0
   56.2620   22.3500   43.5330 C   0  0  0  0  0  0  0  0  0  0  0  0
   56.5930   23.1950   42.6600 O   0  0  0  0  0  0  0  0  0  0  0  0
   55.9150   22.8100   44.8490 N   0  0  0  0  0  0  0  0  0  0  0  0
   55.6930   24.0340   45.2300 C   0  0  0  0  0  0  0  0  0  0  0  0
   54.2450   24.7610   45.6230 S   0  0  0  0  0  0  0  0  0  0  0  0
   54.7900   26.2890   45.9810 N   0  0  0  0  0  0  0  0  0  0  0  0
   56.1420   26.2560   45.7990 C   0  0  0  0  0  0  0  0  0  0  0  0
   56.9710   27.4670   46.0240 C   0  0  0  0  0  0  0  0  0  0  0  0
   56.8550   28.5680   45.1550 C   0  0  0  0  0  0  0  0  0  0  0  0
   56.1498   28.5240   44.3119 H   0  0  0  0  0  0  0  0  0  0  0  0
   57.6260   29.7160   45.3520 C   0  0  0  0  0  0  0  0  0  0  0  0
   57.5166   30.5705   44.6680 H   0  0  0  0  0  0  0  0  0  0  0  0
   58.5370   29.7880   46.4130 C   0  0  0  0  0  0  0  0  0  0  0  0
   59.3010   30.9920   46.6050 N   0  0  0  0  0  0  0  0  0  0  0  0
   60.1200   30.9600   47.2530 H   0  0  0  0  0  0  0  0  0  0  0  0
   58.9540   32.2660   46.0460 C   0  0  0  0  0  0  0  0  0  0  0  0
   57.8100   32.4550   45.5490 O   0  0  0  0  0  0  0  0  0  0  0  0
   59.8870   33.3480   46.1440 N   0  0  0  0  0  0  0  0  0  0  0  0
   60.8770   33.5320   47.1670 C   0  0  0  0  0  0  0  0  0  0  0  0
   62.2330   33.7140   46.8620 C   0  0  0  0  0  0  0  0  0  0  0  0
   62.5578   33.7567   45.8119 H   0  0  0  0  0  0  0  0  0  0  0  0
   63.1710   33.8410   47.8850 C   0  0  0  0  0  0  0  0  0  0  0  0
   64.2331   33.9768   47.6329 H   0  0  0  0  0  0  0  0  0  0  0  0
   62.7790   33.7980   49.2350 C   0  0  0  0  0  0  0  0  0  0  0  0
   63.8500   33.8520   50.2940 C   0  0  0  0  0  0  0  0  0  0  0  0
   63.3828   33.8284   51.2896 H   0  0  0  0  0  0  0  0  0  0  0  0
   64.5197   32.9865   50.1827 H   0  0  0  0  0  0  0  0  0  0  0  0
   64.4292   34.7805   50.1827 H   0  0  0  0  0  0  0  0  0  0  0  0
   61.4030   33.6340   49.5540 C   0  0  0  0  0  0  0  0  0  0  0  0
   60.8900   33.5840   50.9900 C   0  0  0  0  0  0  0  0  0  0  0  0
   61.2911   32.6774   51.4667 H   0  0  0  0  0  0  0  0  0  0  0  0
   61.2286   34.5112   51.4755 H   0  0  0  0  0  0  0  0  0  0  0  0
   59.4120   33.5580   51.1150 N   0  0  0  0  0  0  0  0  0  0  0  0
   58.8450   32.2140   50.9410 C   0  0  0  0  0  0  0  0  0  0  0  0
   58.6557   31.7654   51.9274 H   0  0  0  0  0  0  0  0  0  0  0  0
   57.8998   32.2842   50.3827 H   0  0  0  0  0  0  0  0  0  0  0  0
   59.5549   31.5860   50.3827 H   0  0  0  0  0  0  0  0  0  0  0  0
   58.9170   34.1850   52.3500 C   0  0  0  0  0  0  0  0  0  0  0  0
   59.3332   33.6578   53.2211 H   0  0  0  0  0  0  0  0  0  0  0  0
   59.2287   35.2396   52.3762 H   0  0  0  0  0  0  0  0  0  0  0  0
   57.8189   34.1265   52.3762 H   0  0  0  0  0  0  0  0  0  0  0  0
   60.4800   33.4610   48.5040 C   0  0  0  0  0  0  0  0  0  0  0  0
   59.4240   33.2658   48.7423 H   0  0  0  0  0  0  0  0  0  0  0  0
   58.6350   28.7060   47.3040 C   0  0  0  0  0  0  0  0  0  0  0  0
   59.3229   28.7638   48.1604 H   0  0  0  0  0  0  0  0  0  0  0  0
   57.8640   27.5570   47.1090 C   0  0  0  0  0  0  0  0  0  0  0  0
   57.9556   26.7144   47.8101 H   0  0  0  0  0  0  0  0  0  0  0  0
   56.6680   25.0060   45.3760 C   0  0  0  0  0  0  0  0  0  0  0  0
   57.7367   24.8291   45.1847 H   0  0  0  0  0  0  0  0  0  0  0  0
  1  2  1  0
  2  3  1  0
  3  4  2  0
  3  5  1  0
  5  6  2  0
  6  7  1  0
  7  8  1  0
  8  9  1  0
  9 10  1  0
 10 11  2  0
 11 12  1  0
 11 13  1  0
 13 14  1  0
 13 15  2  0
 15 16  1  0
 16 17  1  0
 16 18  1  0
 18 19  2  0
 18 20  1  0
 20 21  1  0
 21 22  2  0
 22 23  1  0
 22 24  1  0
 24 25  1  0
 24 26  2  0
 26 27  1  0
 27 28  1  0
 27 29  1  0
 27 30  1  0
 26 31  1  0
 31 32  1  0
 32 33  1  0
 32 34  1  0
 32 35  1  0
 35 36  1  0
 36 37  1  0
 36 38  1  0
 36 39  1  0
 35 40  1  0
 40 41  1  0
 40 42  1  0
 40 43  1  0
 31 44  2  0
 44 45  1  0
 15 46  1  0
 46 47  1  0
 46 48  2  0
 48 49  1  0
  9 50  2  0
 50 51  1  0
 50  6  1  0
 48 10  1  0
 44 21  1  0
M  CHG  3   2  -1   8  -1  20  -1
M  END
>  <UniqueID>  (53) 
48

>  <SMILES>  (53) 
Cc1ccc([N-]C(=O)Nc2ccc(-c3c/c(=N/C([NH-])=O)s[n-]3)cc2)cc1CN(C)C

>  <Energy>  (53) 
103.58688986574053

>  <Genealogy>  (53) 
Cc1ccc([N-]C(=O)Nc2ccc(-c3cc(=NC([NH-])=O)s[n-]3)cc2)cc1CN(C)C (protonated)
Cc1ccc([N-]C(=O)Nc2ccc(-c3c/c(=N/C([NH-])=O)s[n-]3)cc2)cc1CN(C)C (cis-trans isomerization)
Cc1ccc([N-]C(=O)Nc2ccc(-c3c/c(=N/C([NH-])=O)s[n-]3)cc2)cc1CN(C)C (3D coordinates assigned)
Cc1ccc([N-]C(=O)Nc2ccc(-c3c/c(=N/C([NH-])=O)s[n-]3)cc2)cc1CN(C)C (optimized conformer: 103.58688986574053 kcal/mol)

>  <smiles>  (53) 
Cc1ccc(NC(=O)Nc2ccc(-c3cc(=NC(N)=O)s[nH]3)cc2)cc1CN(C)C

>  <score_type>  (53) 
oracle

>  <origin>  (53) 
adg

>  <m_score__min__energy>  (53) 
-13.029999999999999

>  <m_primary>  (53) 
energy

$$$$
53:0
     RDKit          3D

 61 66  0  0  1  0  0  0  0  0999 V2000
   56.6630   24.7910   44.1920 C   0  0  0  0  0  0  0  0  0  0  0  0
   57.4750   25.3590   45.2180 N   0  0  0  0  0  0  0  0  0  0  0  0
   56.8110   25.6230   46.4490 C   0  0  0  0  0  0  0  0  0  0  0  0
   57.6960   25.2910   47.6280 C   0  0  0  0  0  0  0  0  0  0  0  0
   58.9380   26.0030   47.4250 N   0  0  0  0  0  0  0  0  0  0  0  0
   59.4480   27.0050   48.2800 C   0  0  0  0  0  0  0  0  0  0  0  0
   60.5540   26.7280   49.0910 C   0  0  0  0  0  0  0  0  0  0  0  0
   61.0760   27.6850   49.9370 C   0  0  0  0  0  0  0  0  0  0  0  0
   60.5400   28.9520   50.0240 C   0  0  0  0  0  0  0  0  0  0  0  0
   59.4490   29.2390   49.2310 C   0  0  0  0  0  0  0  0  0  0  0  0
   60.8310   34.3670   47.8450 N   0  0  0  0  0  0  0  0  0  0  0  0
   60.0340   33.3720   47.6420 C   0  0  0  0  0  0  0  0  0  0  0  0
   58.3200   31.2590   47.1760 N   0  0  0  0  0  0  0  0  0  0  0  0
   58.5400   32.2220   46.2620 C   0  0  0  0  0  0  0  0  0  0  0  0
   58.0490   32.4370   44.9720 C   0  0  0  0  0  0  0  0  0  0  0  0
   57.2000   31.6600   44.3580 C   0  0  0  0  0  0  0  0  0  0  0  0
   57.3280   30.2070   44.2750 C   0  0  0  0  0  0  0  0  0  0  0  0
   58.4550   29.6210   43.7890 N   0  0  0  0  0  0  0  0  0  0  0  0
   58.2670   28.2890   43.8400 C   0  0  0  0  0  0  0  0  0  0  0  0
   59.1290   27.4640   43.4610 O   0  0  0  0  0  0  0  0  0  0  0  0
   57.0360   28.0650   44.3530 N   0  0  0  0  0  0  0  0  0  0  0  0
   56.4250   29.2280   44.6330 C   0  0  0  0  0  0  0  0  0  0  0  0
   55.1750   29.4600   45.1630 O   0  0  0  0  0  0  0  0  0  0  0  0
   58.5990   33.5870   44.4590 C   0  0  0  0  0  0  0  0  0  0  0  0
   59.4100   34.0590   45.4230 N   0  0  0  0  0  0  0  0  0  0  0  0
   59.3730   33.2580   46.4750 N   0  0  0  0  0  0  0  0  0  0  0  0
   58.9870   31.3840   48.3410 C   0  0  0  0  0  0  0  0  0  0  0  0
   58.8570   30.5330   49.2810 N   0  0  0  0  0  0  0  0  0  0  0  0
   62.2630   34.2070   48.0160 C   0  0  0  0  0  0  0  0  0  0  0  0
   62.7320   32.7780   47.7520 C   0  0  0  0  0  0  0  0  0  0  0  0
   63.0530   33.8640   46.7910 C   0  0  0  0  0  0  0  0  0  0  0  0
   59.8340   32.4240   48.5780 N   0  0  0  0  0  0  0  0  0  0  0  0
   58.9300   28.2750   48.3840 C   0  0  0  0  0  0  0  0  0  0  0  0
   59.6950   25.6210   46.2210 C   0  0  0  0  0  0  0  0  0  0  0  0
   58.7900   24.8080   45.3010 C   0  0  0  0  0  0  0  0  0  0  0  0
   55.8430   24.2174   44.6487 H   0  0  0  0  0  0  0  0  0  0  0  0
   56.2451   25.5947   43.5680 H   0  0  0  0  0  0  0  0  0  0  0  0
   57.2747   24.1228   43.5680 H   0  0  0  0  0  0  0  0  0  0  0  0
   56.5423   26.6889   46.4906 H   0  0  0  0  0  0  0  0  0  0  0  0
   55.9099   24.9942   46.5012 H   0  0  0  0  0  0  0  0  0  0  0  0
   57.2197   25.6178   48.5641 H   0  0  0  0  0  0  0  0  0  0  0  0
   57.8675   24.2070   47.7027 H   0  0  0  0  0  0  0  0  0  0  0  0
   61.0153   25.7301   49.0535 H   0  0  0  0  0  0  0  0  0  0  0  0
   61.9455   27.4293   50.5604 H   0  0  0  0  0  0  0  0  0  0  0  0
   60.9669   29.7064   50.7012 H   0  0  0  0  0  0  0  0  0  0  0  0
   56.3320   32.1288   43.8715 H   0  0  0  0  0  0  0  0  0  0  0  0
   59.3150   30.1140   43.4380 H   0  0  0  0  0  0  0  0  0  0  0  0
   56.6370   27.1070   44.5000 H   0  0  0  0  0  0  0  0  0  0  0  0
   55.0250   30.0810   45.9410 H   0  0  0  0  0  0  0  0  0  0  0  0
   58.4149   34.0287   43.4685 H   0  0  0  0  0  0  0  0  0  0  0  0
   62.3719   34.9614   48.8091 H   0  0  0  0  0  0  0  0  0  0  0  0
   63.5275   32.3360   48.3700 H   0  0  0  0  0  0  0  0  0  0  0  0
   62.2413   31.7959   47.6840 H   0  0  0  0  0  0  0  0  0  0  0  0
   64.0901   34.2176   46.6939 H   0  0  0  0  0  0  0  0  0  0  0  0
   62.8969   34.0056   45.7114 H   0  0  0  0  0  0  0  0  0  0  0  0
   60.3510   32.5210   49.4800 H   0  0  0  0  0  0  0  0  0  0  0  0
   58.0605   28.5375   47.7635 H   0  0  0  0  0  0  0  0  0  0  0  0
   60.0355   26.5263   45.6971 H   0  0  0  0  0  0  0  0  0  0  0  0
   60.5696   25.0188   46.5081 H   0  0  0  0  0  0  0  0  0  0  0  0
   59.2316   24.7906   44.2937 H   0  0  0  0  0  0  0  0  0  0  0  0
   58.7068   23.7933   45.7175 H   0  0  0  0  0  0  0  0  0  0  0  0
  1  2  1  0
  2  3  1  0
  3  4  1  0
  4  5  1  0
  5  6  1  0
  6  7  2  0
  7  8  1  0
  8  9  2  0
  9 10  1  0
 10 11  1  0
 11 12  2  0
 12 13  1  0
 13 14  2  0
 14 15  1  0
 15 16  2  0
 16 17  1  0
 17 18  1  0
 18 19  1  0
 19 20  2  0
 19 21  1  0
 21 22  1  0
 22 23  1  0
 15 24  1  0
 24 25  2  0
 25 26  1  0
 26 27  1  0
 27 28  2  0
 28 29  1  0
 29 30  1  0
 30 31  1  0
 27 32  1  0
 10 33  2  0
  5 34  1  0
 34 35  1  0
 35  2  1  0
 33  6  1  0
 32 12  1  0
 26 14  1  0
 31 29  1  0
 22 17  2  0
  1 36  1  0
  1 37  1  0
  1 38  1  0
  3 39  1  0
  3 40  1  0
  4 41  1  0
  4 42  1  0
  7 43  1  0
  8 44  1  0
  9 45  1  0
 16 46  1  0
 18 47  1  0
 21 48  1  0
 23 49  1  0
 24 50  1  0
 29 51  1  0
 30 52  1  0
 30 53  1  0
 31 54  1  0
 31 55  1  0
 32 56  1  0
 33 57  1  0
 34 58  1  0
 34 59  1  0
 35 60  1  0
 35 61  1  0
M  END
>  <smiles>  (54) 
CN1CCN(c2cccc(N=c3nc4c(=Cc5[nH]c(=O)[nH]c5O)cnn4c(=NC4CC4)[nH]3)c2)CC1

>  <score_type>  (54) 
oracle

>  <origin>  (54) 
adg

>  <m_score__min__energy>  (54) 
-10.619999999999999

>  <m_primary>  (54) 
energy

$$$$
54:0
     RDKit          3D

 63 67  0  0  0  0  0  0  0  0999 V2000
   58.8660   33.8420   52.8100 S   0  0  0  0  0  0  0  0  0  0  0  0
   58.9190   33.4540   51.2190 C   0  0  0  0  0  0  0  0  0  0  0  0
   59.6890   34.0520   50.3450 O   0  0  0  0  0  0  0  0  0  0  0  0
   59.4610   33.4260   49.2090 C   0  0  0  0  0  0  0  0  0  0  0  0
   60.1850   33.7130   47.9340 C   0  0  0  0  0  0  0  0  0  0  0  0
   59.2650   33.4830   46.7590 C   0  0  0  0  0  0  0  0  0  0  0  0
   58.8160   34.5800   46.0030 C   0  0  0  0  0  0  0  0  0  0  0  0
   57.9110   34.3960   44.9550 C   0  0  0  0  0  0  0  0  0  0  0  0
   57.4350   33.1190   44.6560 C   0  0  0  0  0  0  0  0  0  0  0  0
   57.8630   32.0200   45.4040 C   0  0  0  0  0  0  0  0  0  0  0  0
   58.7740   32.1900   46.4580 C   0  0  0  0  0  0  0  0  0  0  0  0
   59.2040   31.0490   47.2130 N   0  0  0  0  0  0  0  0  0  0  0  0
   59.2840   29.7210   46.6670 C   0  0  0  0  0  0  0  0  0  0  0  0
   58.6980   28.6170   47.3170 C   0  0  0  0  0  0  0  0  0  0  0  0
   58.8340   27.3300   46.7860 C   0  0  0  0  0  0  0  0  0  0  0  0
   59.5620   27.1310   45.6110 C   0  0  0  0  0  0  0  0  0  0  0  0
   60.1550   28.2180   44.9650 C   0  0  0  0  0  0  0  0  0  0  0  0
   60.0180   29.5050   45.4900 C   0  0  0  0  0  0  0  0  0  0  0  0
   58.5510   32.4400   49.3550 N   0  0  0  0  0  0  0  0  0  0  0  0
   58.2100   32.4710   50.6330 N   0  0  0  0  0  0  0  0  0  0  0  0
   57.2990   31.5180   51.2640 C   0  0  0  0  0  0  0  0  0  0  0  0
   57.9760   30.2190   51.4460 N   0  0  0  0  0  0  0  0  0  0  0  0
   58.9350   29.9760   50.3430 C   0  0  0  0  0  0  0  0  0  0  0  0
   59.9600   28.9010   50.7250 C   0  0  0  0  0  0  0  0  0  0  0  0
   60.7530   29.2940   51.9150 N   0  0  0  0  0  0  0  0  0  0  0  0
   62.1770   29.5920   51.6370 C   0  0  0  0  0  0  0  0  0  0  0  0
   62.3990   30.8960   50.8960 C   0  0  0  0  0  0  0  0  0  0  0  0
   62.4940   30.9060   49.4930 C   0  0  0  0  0  0  0  0  0  0  0  0
   62.7090   32.1060   48.8070 C   0  0  0  0  0  0  0  0  0  0  0  0
   62.8110   33.3070   49.5120 C   0  0  0  0  0  0  0  0  0  0  0  0
   62.6860   33.3130   50.9020 C   0  0  0  0  0  0  0  0  0  0  0  0
   62.4740   32.1150   51.5930 C   0  0  0  0  0  0  0  0  0  0  0  0
   60.0970   30.2920   52.7880 C   0  0  0  0  0  0  0  0  0  0  0  0
   58.5760   30.0880   52.8010 C   0  0  0  0  0  0  0  0  0  0  0  0
   60.5226   34.7599   47.9337 H   0  0  0  0  0  0  0  0  0  0  0  0
   61.0534   33.0429   47.8513 H   0  0  0  0  0  0  0  0  0  0  0  0
   59.1801   35.5909   46.2386 H   0  0  0  0  0  0  0  0  0  0  0  0
   57.5728   35.2599   44.3640 H   0  0  0  0  0  0  0  0  0  0  0  0
   56.7220   32.9777   43.8304 H   0  0  0  0  0  0  0  0  0  0  0  0
   57.4839   31.0153   45.1657 H   0  0  0  0  0  0  0  0  0  0  0  0
   59.3890   31.1840   48.2320 H   0  0  0  0  0  0  0  0  0  0  0  0
   58.1304   28.7678   48.2471 H   0  0  0  0  0  0  0  0  0  0  0  0
   58.3670   26.4737   47.2946 H   0  0  0  0  0  0  0  0  0  0  0  0
   59.6683   26.1185   45.1944 H   0  0  0  0  0  0  0  0  0  0  0  0
   60.7309   28.0603   44.0412 H   0  0  0  0  0  0  0  0  0  0  0  0
   60.4891   30.3564   44.9770 H   0  0  0  0  0  0  0  0  0  0  0  0
   56.9866   31.9068   52.2444 H   0  0  0  0  0  0  0  0  0  0  0  0
   56.4178   31.3795   50.6203 H   0  0  0  0  0  0  0  0  0  0  0  0
   58.3810   29.6432   49.4529 H   0  0  0  0  0  0  0  0  0  0  0  0
   59.4735   30.9129   50.1373 H   0  0  0  0  0  0  0  0  0  0  0  0
   59.4278   27.9639   50.9455 H   0  0  0  0  0  0  0  0  0  0  0  0
   60.6524   28.7731   49.8798 H   0  0  0  0  0  0  0  0  0  0  0  0
   62.7137   29.6429   52.5958 H   0  0  0  0  0  0  0  0  0  0  0  0
   62.5501   28.7876   50.9861 H   0  0  0  0  0  0  0  0  0  0  0  0
   62.3987   29.9648   48.9317 H   0  0  0  0  0  0  0  0  0  0  0  0
   62.7978   32.1035   47.7106 H   0  0  0  0  0  0  0  0  0  0  0  0
   62.9899   34.2484   48.9718 H   0  0  0  0  0  0  0  0  0  0  0  0
   62.7543   34.2613   51.4553 H   0  0  0  0  0  0  0  0  0  0  0  0
   62.3654   32.1268   52.6876 H   0  0  0  0  0  0  0  0  0  0  0  0
   60.4840   30.1852   53.8121 H   0  0  0  0  0  0  0  0  0  0  0  0
   60.3147   31.2978   52.3995 H   0  0  0  0  0  0  0  0  0  0  0  0
   58.3575   29.0820   53.1886 H   0  0  0  0  0  0  0  0  0  0  0  0
   58.1377   30.8691   53.4395 H   0  0  0  0  0  0  0  0  0  0  0  0
  1  2  2  0
  2  3  1  0
  3  4  1  0
  4  5  1  0
  5  6  1  0
  6  7  2  0
  7  8  1  0
  8  9  2  0
  9 10  1  0
 10 11  2  0
 11 12  1  0
 12 13  1  0
 13 14  2  0
 14 15  1  0
 15 16  2  0
 16 17  1  0
 17 18  2  0
  4 19  2  0
 19 20  1  0
 20 21  1  0
 21 22  1  0
 22 23  1  0
 23 24  1  0
 24 25  1  0
 25 26  1  0
 26 27  1  0
 27 28  2  0
 28 29  1  0
 29 30  2  0
 30 31  1  0
 31 32  2  0
 25 33  1  0
 33 34  1  0
 20  2  1  0
 34 22  1  0
 11  6  1  0
 18 13  1  0
 32 27  1  0
  5 35  1  0
  5 36  1  0
  7 37  1  0
  8 38  1  0
  9 39  1  0
 10 40  1  0
 12 41  1  0
 14 42  1  0
 15 43  1  0
 16 44  1  0
 17 45  1  0
 18 46  1  0
 21 47  1  0
 21 48  1  0
 23 49  1  0
 23 50  1  0
 24 51  1  0
 24 52  1  0
 26 53  1  0
 26 54  1  0
 28 55  1  0
 29 56  1  0
 30 57  1  0
 31 58  1  0
 32 59  1  0
 33 60  1  0
 33 61  1  0
 34 62  1  0
 34 63  1  0
M  END
>  <UniqueID>  (55) 
49

>  <SMILES>  (55) 
S=c1oc(Cc2ccccc2Nc2ccccc2)nn1CN1CCN(Cc2ccccc2)CC1

>  <Energy>  (55) 
120.77578054446263

>  <Genealogy>  (55) 
S=c1oc(Cc2ccccc2Nc2ccccc2)nn1CN1CCN(Cc2ccccc2)CC1 (3D coordinates assigned)
S=c1oc(Cc2ccccc2Nc2ccccc2)nn1CN1CCN(Cc2ccccc2)CC1 (nonaromatic ring conformer: 120.77578054446263 kcal/mol)

>  <smiles>  (55) 
S=c1oc(Cc2ccccc2Nc2ccccc2)nn1CN1CCN(Cc2ccccc2)CC1

>  <score_type>  (55) 
oracle

>  <origin>  (55) 
adg

>  <m_score__min__energy>  (55) 
-8.9499999999999993

>  <m_primary>  (55) 
energy

$$$$
55:0
     RDKit          3D

 56 58  0  0  0  0  0  0  0  0999 V2000
   59.2100   26.1590   47.2050 C   0  0  0  0  0  0  0  0  0  0  0  0
   58.5810   27.3580   46.5480 C   0  0  0  0  0  0  0  0  0  0  0  0
   59.3210   28.5500   46.4560 C   0  0  0  0  0  0  0  0  0  0  0  0
   58.7660   29.6900   45.8720 C   0  0  0  0  0  0  0  0  0  0  0  0
   57.4620   29.6550   45.3610 C   0  0  0  0  0  0  0  0  0  0  0  0
   56.8410   30.8160   44.7980 N   0  0  0  0  0  0  0  0  0  0  0  0
   57.4630   31.7260   43.8810 C   0  0  0  0  0  0  0  0  0  0  0  0
   57.4220   31.5090   42.6400 O   0  0  0  0  0  0  0  0  0  0  0  0
   58.1970   32.9390   44.3840 C   0  0  0  0  0  0  0  0  0  0  0  0
   58.2540   33.0220   45.8610 N   0  0  2  0  0  0  0  0  0  0  0  0
   56.9520   33.4670   46.3810 C   0  0  0  0  0  0  0  0  0  0  0  0
   59.5300   34.0860   46.4480 S   0  0  0  0  0  0  0  0  0  0  0  0
   59.8580   35.1410   45.4250 O   0  0  0  0  0  0  0  0  0  0  0  0
   59.0340   34.7900   47.6800 O   0  0  0  0  0  0  0  0  0  0  0  0
   61.0280   33.2360   46.8440 C   0  0  0  0  0  0  0  0  0  0  0  0
   62.2720   33.8670   46.6850 C   0  0  0  0  0  0  0  0  0  0  0  0
   63.4510   33.1900   47.0070 C   0  0  0  0  0  0  0  0  0  0  0  0
   63.3950   31.8770   47.4830 C   0  0  0  0  0  0  0  0  0  0  0  0
   62.1600   31.2400   47.6340 C   0  0  0  0  0  0  0  0  0  0  0  0
   60.9790   31.9150   47.3130 C   0  0  0  0  0  0  0  0  0  0  0  0
   56.7400   28.4610   45.3970 C   0  0  0  0  0  0  0  0  0  0  0  0
   57.2760   27.3100   45.9970 C   0  0  0  0  0  0  0  0  0  0  0  0
   56.2600   25.8640   46.1230 S   0  0  0  0  0  0  0  0  0  0  0  0
   54.8170   26.2650   45.9990 O   0  0  0  0  0  0  0  0  0  0  0  0
   56.4570   25.2210   47.4680 O   0  0  0  0  0  0  0  0  0  0  0  0
   56.6920   24.7460   44.8460 N   0  0  0  0  0  0  0  0  0  0  0  0
   58.1320   24.4030   44.8700 C   0  0  0  0  0  0  0  0  0  0  0  0
   58.4090   23.0420   45.5320 C   0  0  0  0  0  0  0  0  0  0  0  0
   57.4710   22.7950   46.5540 O   0  0  0  0  0  0  0  0  0  0  0  0
   56.1880   22.5720   45.9960 C   0  0  0  0  0  0  0  0  0  0  0  0
   55.8280   23.5530   44.8540 C   0  0  0  0  0  0  0  0  0  0  0  0
   59.1529   26.2678   48.2981 H   0  0  0  0  0  0  0  0  0  0  0  0
   58.6731   25.2492   46.8986 H   0  0  0  0  0  0  0  0  0  0  0  0
   60.2638   26.0836   46.8986 H   0  0  0  0  0  0  0  0  0  0  0  0
   60.3481   28.5846   46.8483 H   0  0  0  0  0  0  0  0  0  0  0  0
   59.3538   30.6179   45.8129 H   0  0  0  0  0  0  0  0  0  0  0  0
   59.2261   32.9092   43.9966 H   0  0  0  0  0  0  0  0  0  0  0  0
   57.6447   33.8222   44.0305 H   0  0  0  0  0  0  0  0  0  0  0  0
   58.4270   32.0640   46.2460 H   0  0  0  0  0  0  0  0  0  0  0  0
   56.9744   33.4594   47.4807 H   0  0  0  0  0  0  0  0  0  0  0  0
   56.7444   34.4871   46.0256 H   0  0  0  0  0  0  0  0  0  0  0  0
   56.1635   32.7873   46.0256 H   0  0  0  0  0  0  0  0  0  0  0  0
   62.3186   34.8984   46.3054 H   0  0  0  0  0  0  0  0  0  0  0  0
   64.4232   33.6902   46.8859 H   0  0  0  0  0  0  0  0  0  0  0  0
   64.3231   31.3448   47.7389 H   0  0  0  0  0  0  0  0  0  0  0  0
   62.1175   30.2057   48.0061 H   0  0  0  0  0  0  0  0  0  0  0  0
   60.0090   31.4092   47.4284 H   0  0  0  0  0  0  0  0  0  0  0  0
   55.7363   28.4210   44.9487 H   0  0  0  0  0  0  0  0  0  0  0  0
   58.5035   24.3727   43.8351 H   0  0  0  0  0  0  0  0  0  0  0  0
   58.6461   25.1720   45.4653 H   0  0  0  0  0  0  0  0  0  0  0  0
   58.3368   22.2484   44.7738 H   0  0  0  0  0  0  0  0  0  0  0  0
   59.4185   23.0555   45.9687 H   0  0  0  0  0  0  0  0  0  0  0  0
   56.1560   21.5474   45.5969 H   0  0  0  0  0  0  0  0  0  0  0  0
   55.4550   22.7317   46.8005 H   0  0  0  0  0  0  0  0  0  0  0  0
   55.9376   23.0309   43.8920 H   0  0  0  0  0  0  0  0  0  0  0  0
   54.7930   23.8893   45.0142 H   0  0  0  0  0  0  0  0  0  0  0  0
  1  2  1  0
  2  3  2  0
  3  4  1  0
  4  5  2  0
  5  6  1  0
  6  7  1  0
  7  8  2  0
  7  9  1  0
  9 10  1  0
 10 11  1  0
 10 12  1  0
 12 13  2  0
 12 14  2  0
 12 15  1  0
 15 16  2  0
 16 17  1  0
 17 18  2  0
 18 19  1  0
 19 20  2  0
  5 21  1  0
 21 22  2  0
 22 23  1  0
 23 24  2  0
 23 25  2  0
 23 26  1  0
 26 27  1  0
 27 28  1  0
 28 29  1  0
 29 30  1  0
 30 31  1  0
 22  2  1  0
 31 26  1  0
 20 15  1  0
  1 32  1  0
  1 33  1  0
  1 34  1  0
  3 35  1  0
  4 36  1  0
  9 37  1  0
  9 38  1  0
 10 39  1  1
 11 40  1  0
 11 41  1  0
 11 42  1  0
 16 43  1  0
 17 44  1  0
 18 45  1  0
 19 46  1  0
 20 47  1  0
 21 48  1  0
 27 49  1  0
 27 50  1  0
 28 51  1  0
 28 52  1  0
 30 53  1  0
 30 54  1  0
 31 55  1  0
 31 56  1  0
M  CHG  2   6  -1  10   1
M  END
>  <UniqueID>  (56) 
50

>  <SMILES>  (56) 
Cc1ccc([N-]C(=O)C[N@H+](C)S(=O)(=O)c2ccccc2)cc1S(=O)(=O)N1CCOCC1

>  <Energy>  (56) 
72.71813055776076

>  <Genealogy>  (56) 
Cc1ccc([N-]C(=O)C[NH+](C)S(=O)(=O)c2ccccc2)cc1S(=O)(=O)N1CCOCC1 (protonated)
Cc1ccc([N-]C(=O)C[N@H+](C)S(=O)(=O)c2ccccc2)cc1S(=O)(=O)N1CCOCC1 (chirality)
Cc1ccc([N-]C(=O)C[N@H+](C)S(=O)(=O)c2ccccc2)cc1S(=O)(=O)N1CCOCC1 (3D coordinates assigned)
Cc1ccc([N-]C(=O)C[N@H+](C)S(=O)(=O)c2ccccc2)cc1S(=O)(=O)N1CCOCC1 (nonaromatic ring conformer: 72.71813055776076 kcal/mol)

>  <smiles>  (56) 
Cc1ccc(NC(=O)CN(C)S(=O)(=O)c2ccccc2)cc1S(=O)(=O)N1CCOCC1

>  <score_type>  (56) 
oracle

>  <origin>  (56) 
adg

>  <m_score__min__energy>  (56) 
-9.8100000000000005

>  <m_primary>  (56) 
energy

$$$$
56:0
     RDKit          3D

 47 49  0  0  0  0  0  0  0  0999 V2000
   53.8110   24.8380   45.9860 N   0  0  0  0  0  0  0  0  0  0  0  0
   53.9230   23.4130   45.0130 S   0  0  0  0  0  0  0  0  0  0  0  0
   53.5820   23.7470   43.5880 O   0  0  0  0  0  0  0  0  0  0  0  0
   52.9410   22.3930   45.5190 O   0  0  0  0  0  0  0  0  0  0  0  0
   55.5690   22.7770   45.1050 C   0  0  0  0  0  0  0  0  0  0  0  0
   55.7640   21.4020   45.3210 C   0  0  0  0  0  0  0  0  0  0  0  0
   57.0560   20.8830   45.4310 C   0  0  0  0  0  0  0  0  0  0  0  0
   58.1600   21.7330   45.3530 C   0  0  0  0  0  0  0  0  0  0  0  0
   57.9790   23.0990   45.1260 C   0  0  0  0  0  0  0  0  0  0  0  0
   56.6840   23.6340   44.9870 C   0  0  0  0  0  0  0  0  0  0  0  0
   56.4780   25.0330   44.7320 N   0  0  0  0  0  0  0  0  0  0  0  0
   56.5760   26.2840   45.9330 S   0  0  0  0  0  0  0  0  0  0  0  0
   55.5270   27.3190   45.6280 O   0  0  0  0  0  0  0  0  0  0  0  0
   56.2930   25.6870   47.2830 O   0  0  0  0  0  0  0  0  0  0  0  0
   58.1890   27.0110   45.9470 C   0  0  0  0  0  0  0  0  0  0  0  0
   59.3120   26.1810   46.0910 C   0  0  0  0  0  0  0  0  0  0  0  0
   60.5990   26.7240   46.0940 C   0  0  0  0  0  0  0  0  0  0  0  0
   60.7760   28.0990   45.9620 C   0  0  0  0  0  0  0  0  0  0  0  0
   59.6660   28.9400   45.8400 C   0  0  0  0  0  0  0  0  0  0  0  0
   58.3620   28.4070   45.8350 C   0  0  0  0  0  0  0  0  0  0  0  0
   57.2060   29.2520   45.7280 N   0  0  0  0  0  0  0  0  0  0  0  0
   56.6010   29.9620   44.2660 S   0  0  0  0  0  0  0  0  0  0  0  0
   56.6450   28.9510   43.1540 O   0  0  0  0  0  0  0  0  0  0  0  0
   55.1870   30.4300   44.4710 O   0  0  0  0  0  0  0  0  0  0  0  0
   57.6240   31.3590   43.8250 C   0  0  0  0  0  0  0  0  0  0  0  0
   57.9480   32.1670   45.0520 C   0  0  0  0  0  0  0  0  0  0  0  0
   59.1000   31.8840   45.8030 C   0  0  0  0  0  0  0  0  0  0  0  0
   59.3530   32.5750   46.9920 C   0  0  0  0  0  0  0  0  0  0  0  0
   58.4520   33.5440   47.4450 C   0  0  0  0  0  0  0  0  0  0  0  0
   57.3020   33.8300   46.7040 C   0  0  0  0  0  0  0  0  0  0  0  0
   57.0510   33.1470   45.5100 C   0  0  0  0  0  0  0  0  0  0  0  0
   54.7020   25.3680   45.8580 H   0  0  0  0  0  0  0  0  0  0  0  0
   54.8956   20.7319   45.4038 H   0  0  0  0  0  0  0  0  0  0  0  0
   57.2035   19.8031   45.5793 H   0  0  0  0  0  0  0  0  0  0  0  0
   59.1752   21.3261   45.4706 H   0  0  0  0  0  0  0  0  0  0  0  0
   58.8542   23.7616   45.0553 H   0  0  0  0  0  0  0  0  0  0  0  0
   59.1775   25.0949   46.2023 H   0  0  0  0  0  0  0  0  0  0  0  0
   61.4733   26.0650   46.2007 H   0  0  0  0  0  0  0  0  0  0  0  0
   61.7906   28.5239   45.9537 H   0  0  0  0  0  0  0  0  0  0  0  0
   59.8119   30.0263   45.7472 H   0  0  0  0  0  0  0  0  0  0  0  0
   58.5579   30.9974   43.3698 H   0  0  0  0  0  0  0  0  0  0  0  0
   57.0807   31.9926   43.1085 H   0  0  0  0  0  0  0  0  0  0  0  0
   59.8061   31.1158   45.4548 H   0  0  0  0  0  0  0  0  0  0  0  0
   60.2618   32.3562   47.5718 H   0  0  0  0  0  0  0  0  0  0  0  0
   58.6485   34.0811   48.3846 H   0  0  0  0  0  0  0  0  0  0  0  0
   56.5940   34.5928   47.0603 H   0  0  0  0  0  0  0  0  0  0  0  0
   56.1474   33.3778   44.9266 H   0  0  0  0  0  0  0  0  0  0  0  0
  1  2  1  0
  2  3  2  0
  2  4  2  0
  2  5  1  0
  5  6  2  0
  6  7  1  0
  7  8  2  0
  8  9  1  0
  9 10  2  0
 10 11  1  0
 11 12  1  0
 12 13  2  0
 12 14  2  0
 12 15  1  0
 15 16  2  0
 16 17  1  0
 17 18  2  0
 18 19  1  0
 19 20  2  0
 20 21  1  0
 21 22  1  0
 22 23  2  0
 22 24  2  0
 22 25  1  0
 25 26  1  0
 26 27  2  0
 27 28  1  0
 28 29  2  0
 29 30  1  0
 30 31  2  0
 10  5  1  0
 20 15  1  0
 31 26  1  0
  1 32  1  0
  6 33  1  0
  7 34  1  0
  8 35  1  0
  9 36  1  0
 16 37  1  0
 17 38  1  0
 18 39  1  0
 19 40  1  0
 25 41  1  0
 25 42  1  0
 27 43  1  0
 28 44  1  0
 29 45  1  0
 30 46  1  0
 31 47  1  0
M  CHG  3   1  -1  11  -1  21  -1
M  END
>  <UniqueID>  (57) 
51

>  <SMILES>  (57) 
[NH-]S(=O)(=O)c1ccccc1[N-]S(=O)(=O)c1ccccc1[N-]S(=O)(=O)Cc1ccccc1

>  <Energy>  (57) 
52.28017415733714

>  <Genealogy>  (57) 
[NH-]S(=O)(=O)c1ccccc1[N-]S(=O)(=O)c1ccccc1[N-]S(=O)(=O)Cc1ccccc1 (protonated)
[NH-]S(=O)(=O)c1ccccc1[N-]S(=O)(=O)c1ccccc1[N-]S(=O)(=O)Cc1ccccc1 (3D coordinates assigned)
[NH-]S(=O)(=O)c1ccccc1[N-]S(=O)(=O)c1ccccc1[N-]S(=O)(=O)Cc1ccccc1 (optimized conformer: 52.28017415733714 kcal/mol)

>  <smiles>  (57) 
NS(=O)(=O)c1ccccc1NS(=O)(=O)c1ccccc1NS(=O)(=O)Cc1ccccc1

>  <score_type>  (57) 
oracle

>  <origin>  (57) 
adg

>  <m_score__min__energy>  (57) 
-15.720000000000001

>  <m_primary>  (57) 
energy

$$$$
57:0
     RDKit          3D

 40 41  0  0  0  0  0  0  0  0999 V2000
   57.9570   32.7400   46.5280 C   0  0  0  0  0  0  0  0  0  0  0  0
   58.7540   31.9480   45.4950 C   0  0  0  0  0  0  0  0  0  0  0  0
   58.6860   30.4650   45.7800 C   0  0  0  0  0  0  0  0  0  0  0  0
   59.6700   29.7980   46.5230 C   0  0  0  0  0  0  0  0  0  0  0  0
   60.9310   30.3900   47.0690 C   0  0  0  0  0  0  0  0  0  0  0  0
   59.2030   28.2030   46.7660 S   0  0  0  0  0  0  0  0  0  0  0  0
   57.7560   28.3200   45.9290 C   0  0  0  0  0  0  0  0  0  0  0  0
   56.8460   27.2240   45.7770 N   0  0  0  0  0  0  0  0  0  0  0  0
   56.8050   26.1090   46.6750 C   0  0  0  0  0  0  0  0  0  0  0  0
   57.5450   26.0860   47.6960 O   0  0  0  0  0  0  0  0  0  0  0  0
   55.9300   25.0120   46.3860 N   0  0  0  0  0  0  0  0  0  0  0  0
   56.1920   23.9230   45.4880 C   0  0  0  0  0  0  0  0  0  0  0  0
   55.9300   24.0250   44.1090 C   0  0  0  0  0  0  0  0  0  0  0  0
   56.2160   22.9570   43.2560 C   0  0  0  0  0  0  0  0  0  0  0  0
   56.7770   21.7850   43.7640 C   0  0  0  0  0  0  0  0  0  0  0  0
   57.0660   21.6820   45.1270 C   0  0  0  0  0  0  0  0  0  0  0  0
   56.7810   22.7520   45.9980 C   0  0  0  0  0  0  0  0  0  0  0  0
   57.0630   22.6870   47.3720 O   0  0  0  0  0  0  0  0  0  0  0  0
   56.0770   22.5840   48.3940 C   0  0  0  0  0  0  0  0  0  0  0  0
   57.5840   29.6280   45.4580 C   0  0  0  0  0  0  0  0  0  0  0  0
   56.3300   30.0910   44.8220 C   0  0  0  0  0  0  0  0  0  0  0  0
   55.1480   29.2970   44.8700 N   0  0  0  0  0  0  0  0  0  0  0  0
   56.2950   31.2110   44.2460 O   0  0  0  0  0  0  0  0  0  0  0  0
   58.2634   32.4355   47.5396 H   0  0  0  0  0  0  0  0  0  0  0  0
   58.1497   33.8147   46.3944 H   0  0  0  0  0  0  0  0  0  0  0  0
   56.8835   32.5406   46.3944 H   0  0  0  0  0  0  0  0  0  0  0  0
   58.3391   32.1416   44.4948 H   0  0  0  0  0  0  0  0  0  0  0  0
   59.8057   32.2667   45.5439 H   0  0  0  0  0  0  0  0  0  0  0  0
   60.8974   30.3742   48.1684 H   0  0  0  0  0  0  0  0  0  0  0  0
   61.7930   29.8025   46.7200 H   0  0  0  0  0  0  0  0  0  0  0  0
   61.0296   31.4285   46.7200 H   0  0  0  0  0  0  0  0  0  0  0  0
   56.0590   27.3330   45.0980 H   0  0  0  0  0  0  0  0  0  0  0  0
   55.4978   24.9506   43.7011 H   0  0  0  0  0  0  0  0  0  0  0  0
   55.9984   23.0400   42.1809 H   0  0  0  0  0  0  0  0  0  0  0  0
   56.9919   20.9417   43.0912 H   0  0  0  0  0  0  0  0  0  0  0  0
   57.5185   20.7605   45.5222 H   0  0  0  0  0  0  0  0  0  0  0  0
   56.5635   22.6348   49.3793 H   0  0  0  0  0  0  0  0  0  0  0  0
   55.3596   23.4121   48.2961 H   0  0  0  0  0  0  0  0  0  0  0  0
   55.5462   21.6255   48.2961 H   0  0  0  0  0  0  0  0  0  0  0  0
   54.4960   29.3530   45.6840 H   0  0  0  0  0  0  0  0  0  0  0  0
  1  2  1  0
  2  3  1  0
  3  4  2  0
  4  5  1  0
  4  6  1  0
  6  7  1  0
  7  8  1  0
  8  9  1  0
  9 10  2  0
  9 11  1  0
 11 12  1  0
 12 13  2  0
 13 14  1  0
 14 15  2  0
 15 16  1  0
 16 17  2  0
 17 18  1  0
 18 19  1  0
  7 20  2  0
 20 21  1  0
 21 22  1  0
 21 23  2  0
 20  3  1  0
 17 12  1  0
  1 24  1  0
  1 25  1  0
  1 26  1  0
  2 27  1  0
  2 28  1  0
  5 29  1  0
  5 30  1  0
  5 31  1  0
  8 32  1  0
 13 33  1  0
 14 34  1  0
 15 35  1  0
 16 36  1  0
 19 37  1  0
 19 38  1  0
 19 39  1  0
 22 40  1  0
M  CHG  2  11  -1  22  -1
M  END
>  <UniqueID>  (58) 
52

>  <SMILES>  (58) 
CCc1c(C)sc(NC(=O)[N-]c2ccccc2OC)c1C([NH-])=O

>  <Energy>  (58) 
73.81191885953623

>  <Genealogy>  (58) 
CCc1c(C)sc(NC(=O)[N-]c2ccccc2OC)c1C([NH-])=O (protonated)
CCc1c(C)sc(NC(=O)[N-]c2ccccc2OC)c1C([NH-])=O (3D coordinates assigned)
CCc1c(C)sc(NC(=O)[N-]c2ccccc2OC)c1C([NH-])=O (optimized conformer: 73.81191885953623 kcal/mol)

>  <smiles>  (58) 
CCc1c(C)sc(NC(=O)Nc2ccccc2OC)c1C(N)=O

>  <score_type>  (58) 
oracle

>  <origin>  (58) 
adg

>  <m_score__min__energy>  (58) 
-12.66

>  <m_primary>  (58) 
energy

$$$$
58:0
     RDKit          3D

 42 44  0  0  0  0  0  0  0  0999 V2000
   56.2760   20.4850   47.8830 C   0  0  0  0  0  0  0  0  0  0  0  0
   56.2520   21.9040   47.4130 C   0  0  0  0  0  0  0  0  0  0  0  0
   55.0880   22.4490   46.8590 C   0  0  0  0  0  0  0  0  0  0  0  0
   55.0960   23.7700   46.4120 C   0  0  0  0  0  0  0  0  0  0  0  0
   56.2580   24.5500   46.5220 C   0  0  0  0  0  0  0  0  0  0  0  0
   56.2370   25.9520   46.0480 C   0  0  0  0  0  0  0  0  0  0  0  0
   55.1330   26.5600   45.9960 O   0  0  0  0  0  0  0  0  0  0  0  0
   57.4510   26.6170   45.6560 N   0  0  0  0  0  0  0  0  0  0  0  0
   57.5120   27.9840   45.2160 C   0  0  0  0  0  0  0  0  0  0  0  0
   57.7650   29.0340   46.1150 C   0  0  0  0  0  0  0  0  0  0  0  0
   57.8390   30.3530   45.6590 C   0  0  0  0  0  0  0  0  0  0  0  0
   57.6640   30.6460   44.2960 C   0  0  0  0  0  0  0  0  0  0  0  0
   57.7320   32.0430   43.8040 C   0  0  0  0  0  0  0  0  0  0  0  0
   58.0920   32.2640   42.6170 O   0  0  0  0  0  0  0  0  0  0  0  0
   57.4460   33.1640   44.6530 N   0  0  0  0  0  0  0  0  0  0  0  0
   58.3260   33.7310   45.6350 C   0  0  0  0  0  0  0  0  0  0  0  0
   59.1360   34.8130   45.2720 C   0  0  0  0  0  0  0  0  0  0  0  0
   59.9990   35.3950   46.2070 C   0  0  0  0  0  0  0  0  0  0  0  0
   60.0470   34.9060   47.5150 C   0  0  0  0  0  0  0  0  0  0  0  0
   59.2230   33.8400   47.8950 C   0  0  0  0  0  0  0  0  0  0  0  0
   59.2620   33.3450   49.2460 C   0  0  0  0  0  0  0  0  0  0  0  0
   59.2940   32.9470   50.3330 N   0  0  0  0  0  0  0  0  0  0  0  0
   58.3550   33.2590   46.9610 C   0  0  0  0  0  0  0  0  0  0  0  0
   57.4540   29.5920   43.3930 C   0  0  0  0  0  0  0  0  0  0  0  0
   57.3830   28.2720   43.8510 C   0  0  0  0  0  0  0  0  0  0  0  0
   57.4180   23.9510   47.0560 C   0  0  0  0  0  0  0  0  0  0  0  0
   58.5050   24.5840   47.1160 O   0  0  0  0  0  0  0  0  0  0  0  0
   57.3810   22.6600   47.4850 N   0  0  0  0  0  0  0  0  0  0  0  0
   56.2764   20.4630   48.9828 H   0  0  0  0  0  0  0  0  0  0  0  0
   55.3866   19.9588   47.5060 H   0  0  0  0  0  0  0  0  0  0  0  0
   57.1827   19.9892   47.5060 H   0  0  0  0  0  0  0  0  0  0  0  0
   54.1751   21.8409   46.7769 H   0  0  0  0  0  0  0  0  0  0  0  0
   54.1864   24.2033   45.9706 H   0  0  0  0  0  0  0  0  0  0  0  0
   58.3420   26.0710   45.6380 H   0  0  0  0  0  0  0  0  0  0  0  0
   57.9056   28.8164   47.1841 H   0  0  0  0  0  0  0  0  0  0  0  0
   58.0356   31.1673   46.3720 H   0  0  0  0  0  0  0  0  0  0  0  0
   59.0940   35.2080   44.2462 H   0  0  0  0  0  0  0  0  0  0  0  0
   60.6404   36.2385   45.9120 H   0  0  0  0  0  0  0  0  0  0  0  0
   60.7325   35.3588   48.2464 H   0  0  0  0  0  0  0  0  0  0  0  0
   57.6952   32.4328   47.2643 H   0  0  0  0  0  0  0  0  0  0  0  0
   57.3447   29.8051   42.3194 H   0  0  0  0  0  0  0  0  0  0  0  0
   57.2246   27.4535   43.1334 H   0  0  0  0  0  0  0  0  0  0  0  0
  1  2  1  0
  2  3  2  0
  3  4  1  0
  4  5  2  0
  5  6  1  0
  6  7  2  0
  6  8  1  0
  8  9  1  0
  9 10  2  0
 10 11  1  0
 11 12  2  0
 12 13  1  0
 13 14  2  0
 13 15  1  0
 15 16  1  0
 16 17  2  0
 17 18  1  0
 18 19  2  0
 19 20  1  0
 20 21  1  0
 21 22  3  0
 20 23  2  0
 12 24  1  0
 24 25  2  0
  5 26  1  0
 26 27  2  0
 26 28  1  0
 28  2  1  0
 25  9  1  0
 23 16  1  0
  1 29  1  0
  1 30  1  0
  1 31  1  0
  3 32  1  0
  4 33  1  0
  8 34  1  0
 10 35  1  0
 11 36  1  0
 17 37  1  0
 18 38  1  0
 19 39  1  0
 23 40  1  0
 24 41  1  0
 25 42  1  0
M  CHG  2  15  -1  28  -1
M  END
>  <UniqueID>  (59) 
53

>  <SMILES>  (59) 
Cc1ccc(C(=O)Nc2ccc(C(=O)[N-]c3cccc(C#N)c3)cc2)c(=O)[n-]1

>  <Energy>  (59) 
59.364669482148905

>  <Genealogy>  (59) 
Cc1ccc(C(=O)Nc2ccc(C(=O)[N-]c3cccc(C#N)c3)cc2)c(=O)[n-]1 (protonated)
Cc1ccc(C(=O)Nc2ccc(C(=O)[N-]c3cccc(C#N)c3)cc2)c(=O)[n-]1 (3D coordinates assigned)
Cc1ccc(C(=O)Nc2ccc(C(=O)[N-]c3cccc(C#N)c3)cc2)c(=O)[n-]1 (optimized conformer: 59.364669482148905 kcal/mol)

>  <smiles>  (59) 
Cc1ccc(C(=O)Nc2ccc(C(=O)Nc3cccc(C#N)c3)cc2)c(=O)[nH]1

>  <score_type>  (59) 
oracle

>  <origin>  (59) 
adg

>  <m_score__min__energy>  (59) 
-11.390000000000001

>  <m_primary>  (59) 
energy

$$$$
59:0
     RDKit          3D

 48 51  0  0  0  0  0  0  0  0999 V2000
   58.5620   31.1140   43.9010 O   0  0  0  0  0  0  0  0  0  0  0  0
   57.5190   30.7030   44.4690 C   0  0  0  0  0  0  0  0  0  0  0  0
   56.4060   31.5330   44.5130 O   0  0  0  0  0  0  0  0  0  0  0  0
   57.4620   29.3680   45.1020 C   0  0  0  0  0  0  0  0  0  0  0  0
   56.2780   28.6510   45.2470 C   0  0  0  0  0  0  0  0  0  0  0  0
   56.6400   27.4560   45.8220 C   0  0  0  0  0  0  0  0  0  0  0  0
   55.8650   26.3420   46.1470 C   0  0  0  0  0  0  0  0  0  0  0  0
   54.4910   26.3350   45.9320 O   0  0  0  0  0  0  0  0  0  0  0  0
   56.5140   25.2210   46.6940 C   0  0  0  0  0  0  0  0  0  0  0  0
   57.9090   25.2380   46.9010 C   0  0  0  0  0  0  0  0  0  0  0  0
   58.6670   26.3730   46.5600 C   0  0  0  0  0  0  0  0  0  0  0  0
   57.9990   27.4790   46.0140 C   0  0  0  0  0  0  0  0  0  0  0  0
   58.5220   28.6520   45.5820 N   0  0  0  0  0  0  0  0  0  0  0  0
   59.9510   28.9940   45.5000 C   0  0  0  0  0  0  0  0  0  0  0  0
   60.4120   29.6510   46.7780 C   0  0  0  0  0  0  0  0  0  0  0  0
   60.4130   28.9410   47.9890 C   0  0  0  0  0  0  0  0  0  0  0  0
   60.8220   29.5650   49.1700 C   0  0  0  0  0  0  0  0  0  0  0  0
   61.2330   30.9010   49.1550 C   0  0  0  0  0  0  0  0  0  0  0  0
   61.2440   31.6240   47.9500 C   0  0  0  0  0  0  0  0  0  0  0  0
   61.6430   33.0040   47.9000 N   0  0  0  0  0  0  0  0  0  0  0  0
   61.2870   33.9990   48.9160 C   0  0  0  0  0  0  0  0  0  0  0  0
   59.7750   34.2620   48.9430 C   0  0  0  0  0  0  0  0  0  0  0  0
   59.1910   34.3040   47.5580 C   0  0  0  0  0  0  0  0  0  0  0  0
   59.8480   34.9850   46.5210 C   0  0  0  0  0  0  0  0  0  0  0  0
   59.2960   34.9750   45.2390 C   0  0  0  0  0  0  0  0  0  0  0  0
   58.1000   34.2920   45.0010 C   0  0  0  0  0  0  0  0  0  0  0  0
   57.4750   33.6250   46.0570 C   0  0  0  0  0  0  0  0  0  0  0  0
   58.0280   33.6420   47.2980 N   0  0  0  0  0  0  0  0  0  0  0  0
   60.8510   30.9840   46.7650 C   0  0  0  0  0  0  0  0  0  0  0  0
   55.2656   28.9728   44.9616 H   0  0  0  0  0  0  0  0  0  0  0  0
   55.9314   24.3272   46.9616 H   0  0  0  0  0  0  0  0  0  0  0  0
   58.4079   24.3575   47.3321 H   0  0  0  0  0  0  0  0  0  0  0  0
   59.7555   26.3926   46.7175 H   0  0  0  0  0  0  0  0  0  0  0  0
   60.5339   28.0760   45.3344 H   0  0  0  0  0  0  0  0  0  0  0  0
   60.1015   29.6948   44.6656 H   0  0  0  0  0  0  0  0  0  0  0  0
   60.0906   27.8895   48.0080 H   0  0  0  0  0  0  0  0  0  0  0  0
   60.8206   29.0028   50.1155 H   0  0  0  0  0  0  0  0  0  0  0  0
   61.5488   31.3879   50.0894 H   0  0  0  0  0  0  0  0  0  0  0  0
   62.1050   33.3570   47.0310 H   0  0  0  0  0  0  0  0  0  0  0  0
   61.6030   33.6303   49.9030 H   0  0  0  0  0  0  0  0  0  0  0  0
   61.7961   34.9420   48.6678 H   0  0  0  0  0  0  0  0  0  0  0  0
   59.2840   33.4590   49.5123 H   0  0  0  0  0  0  0  0  0  0  0  0
   59.6065   35.2412   49.4151 H   0  0  0  0  0  0  0  0  0  0  0  0
   60.7884   35.5211   46.7168 H   0  0  0  0  0  0  0  0  0  0  0  0
   59.8014   35.5037   44.4174 H   0  0  0  0  0  0  0  0  0  0  0  0
   57.6565   34.2799   43.9945 H   0  0  0  0  0  0  0  0  0  0  0  0
   56.5327   33.0846   45.8836 H   0  0  0  0  0  0  0  0  0  0  0  0
   60.8874   31.5342   45.8132 H   0  0  0  0  0  0  0  0  0  0  0  0
  1  2  2  0
  2  3  1  0
  2  4  1  0
  4  5  2  0
  5  6  1  0
  6  7  2  0
  7  8  1  0
  7  9  1  0
  9 10  2  0
 10 11  1  0
 11 12  2  0
 12 13  1  0
 13 14  1  0
 14 15  1  0
 15 16  2  0
 16 17  1  0
 17 18  2  0
 18 19  1  0
 19 20  1  0
 20 21  1  0
 21 22  1  0
 22 23  1  0
 23 24  2  0
 24 25  1  0
 25 26  2  0
 26 27  1  0
 27 28  2  0
 19 29  2  0
 13  4  1  0
 29 15  1  0
 12  6  1  0
 28 23  1  0
  5 30  1  0
  9 31  1  0
 10 32  1  0
 11 33  1  0
 14 34  1  0
 14 35  1  0
 16 36  1  0
 17 37  1  0
 18 38  1  0
 20 39  1  0
 21 40  1  0
 21 41  1  0
 22 42  1  0
 22 43  1  0
 24 44  1  0
 25 45  1  0
 26 46  1  0
 27 47  1  0
 29 48  1  0
M  CHG  2   3  -1   8  -1
M  END
>  <UniqueID>  (60) 
54

>  <SMILES>  (60) 
O=C([O-])c1cc2c([O-])cccc2n1Cc1cccc(NCCc2ccccn2)c1

>  <Energy>  (60) 
82.59335019490207

>  <Genealogy>  (60) 
O=C([O-])c1cc2c([O-])cccc2n1Cc1cccc(NCCc2ccccn2)c1 (protonated)
O=C([O-])c1cc2c([O-])cccc2n1Cc1cccc(NCCc2ccccn2)c1 (3D coordinates assigned)
O=C([O-])c1cc2c([O-])cccc2n1Cc1cccc(NCCc2ccccn2)c1 (optimized conformer: 82.59335019490207 kcal/mol)

>  <smiles>  (60) 
O=C(O)c1cc2c(O)cccc2n1Cc1cccc(NCCc2ccccn2)c1

>  <score_type>  (60) 
oracle

>  <origin>  (60) 
adg

>  <m_score__min__energy>  (60) 
-13.27

>  <m_primary>  (60) 
energy

$$$$
60:0
     RDKit          3D

 52 55  0  0  1  0  0  0  0  0999 V2000
   58.8690   34.5020   53.2480 C   0  0  0  0  0  0  0  0  0  0  0  0
   58.3010   33.7210   52.2350 O   0  0  0  0  0  0  0  0  0  0  0  0
   58.1240   32.3750   52.3900 C   0  0  0  0  0  0  0  0  0  0  0  0
   57.8140   31.9100   53.6740 C   0  0  0  0  0  0  0  0  0  0  0  0
   57.6260   30.5880   53.8970 C   0  0  0  0  0  0  0  0  0  0  0  0
   57.7380   29.7020   52.8640 C   0  0  0  0  0  0  0  0  0  0  0  0
   58.0390   30.1680   51.6150 C   0  0  0  0  0  0  0  0  0  0  0  0
   58.2440   31.5140   51.3200 C   0  0  0  0  0  0  0  0  0  0  0  0
   58.5530   31.9060   49.9640 C   0  0  0  0  0  0  0  0  0  0  0  0
   58.5240   30.9790   49.0910 O   0  0  0  0  0  0  0  0  0  0  0  0
   58.8760   33.1800   49.4880 N   0  0  0  0  0  0  0  0  0  0  0  0
   59.1360   33.4660   48.1180 C   0  0  0  0  0  0  0  0  0  0  0  0
   60.3560   34.1090   47.8700 C   0  0  0  0  0  0  0  0  0  0  0  0
   60.7420   34.4890   46.6060 C   0  0  0  0  0  0  0  0  0  0  0  0
   59.8640   34.2080   45.5720 C   0  0  0  0  0  0  0  0  0  0  0  0
   58.6500   33.5720   45.7920 C   0  0  0  0  0  0  0  0  0  0  0  0
   57.7770   33.3480   44.6170 C   0  0  0  0  0  0  0  0  0  0  0  0
   56.6620   32.4640   44.8730 N   0  0  0  0  0  0  0  0  0  0  0  0
   56.7710   31.2270   44.4840 C   0  0  0  0  0  0  0  0  0  0  0  0
   56.5600   30.8350   43.1850 C   0  0  0  0  0  0  0  0  0  0  0  0
   56.6740   29.5120   42.7840 C   0  0  0  0  0  0  0  0  0  0  0  0
   57.0100   28.5880   43.7300 N   0  0  0  0  0  0  0  0  0  0  0  0
   57.2110   28.9920   44.9900 C   0  0  0  0  0  0  0  0  0  0  0  0
   57.5660   28.0610   46.0220 N   0  0  0  0  0  0  0  0  0  0  0  0
   58.4120   28.0620   47.2180 C   0  0  0  0  0  0  0  0  0  0  0  0
   58.6140   26.5800   47.0080 C   0  0  0  0  0  0  0  0  0  0  0  0
   57.2570   26.6770   46.3230 C   0  0  0  0  0  0  0  0  0  0  0  0
   57.0980   30.2790   45.3740 N   0  0  0  0  0  0  0  0  0  0  0  0
   58.3030   33.2060   47.0800 C   0  0  0  0  0  0  0  0  0  0  0  0
   58.5763   34.0995   54.2290 H   0  0  0  0  0  0  0  0  0  0  0  0
   59.9649   34.4819   53.1556 H   0  0  0  0  0  0  0  0  0  0  0  0
   58.5122   35.5384   53.1556 H   0  0  0  0  0  0  0  0  0  0  0  0
   57.7227   32.6232   54.5065 H   0  0  0  0  0  0  0  0  0  0  0  0
   57.3836   30.2284   54.9079 H   0  0  0  0  0  0  0  0  0  0  0  0
   57.5877   28.6258   53.0351 H   0  0  0  0  0  0  0  0  0  0  0  0
   58.1243   29.4387   50.7959 H   0  0  0  0  0  0  0  0  0  0  0  0
   58.9280   33.9710   50.1480 H   0  0  0  0  0  0  0  0  0  0  0  0
   61.0282   34.3170   48.7155 H   0  0  0  0  0  0  0  0  0  0  0  0
   61.7030   34.9925   46.4245 H   0  0  0  0  0  0  0  0  0  0  0  0
   60.1369   34.4974   44.5464 H   0  0  0  0  0  0  0  0  0  0  0  0
   57.3796   34.3205   44.2909 H   0  0  0  0  0  0  0  0  0  0  0  0
   58.3967   32.8642   43.8477 H   0  0  0  0  0  0  0  0  0  0  0  0
   56.2915   31.5958   42.4372 H   0  0  0  0  0  0  0  0  0  0  0  0
   56.4994   29.2177   41.7386 H   0  0  0  0  0  0  0  0  0  0  0  0
   57.1120   27.5620   43.4960 H   0  0  0  0  0  0  0  0  0  0  0  0
   59.3276   28.6653   47.1300 H   0  0  0  0  0  0  0  0  0  0  0  0
   58.0521   28.4634   48.1769 H   0  0  0  0  0  0  0  0  0  0  0  0
   59.4561   26.3029   46.3568 H   0  0  0  0  0  0  0  0  0  0  0  0
   58.8458   25.8703   47.8158 H   0  0  0  0  0  0  0  0  0  0  0  0
   57.1438   26.0314   45.4396 H   0  0  0  0  0  0  0  0  0  0  0  0
   56.3294   26.3952   46.8428 H   0  0  0  0  0  0  0  0  0  0  0  0
   57.3437   32.7000   47.2637 H   0  0  0  0  0  0  0  0  0  0  0  0
  1  2  1  0
  2  3  1  0
  3  4  2  0
  4  5  1  0
  5  6  2  0
  6  7  1  0
  7  8  2  0
  8  9  1  0
  9 10  2  0
  9 11  1  0
 11 12  1  0
 12 13  2  0
 13 14  1  0
 14 15  2  0
 15 16  1  0
 16 17  1  0
 17 18  1  0
 18 19  2  0
 19 20  1  0
 20 21  2  0
 21 22  1  0
 22 23  1  0
 23 24  1  0
 24 25  1  0
 25 26  1  0
 26 27  1  0
 23 28  2  0
 16 29  2  0
  8  3  1  0
 29 12  1  0
 28 19  1  0
 27 24  1  0
  1 30  1  0
  1 31  1  0
  1 32  1  0
  4 33  1  0
  5 34  1  0
  6 35  1  0
  7 36  1  0
 11 37  1  0
 13 38  1  0
 14 39  1  0
 15 40  1  0
 17 41  1  0
 17 42  1  0
 20 43  1  0
 21 44  1  0
 22 45  1  0
 25 46  1  0
 25 47  1  0
 26 48  1  0
 26 49  1  0
 27 50  1  0
 27 51  1  0
 29 52  1  0
M  END
>  <smiles>  (61) 
COc1ccccc1C(=O)Nc1cccc(CN=c2cc[nH]c(N3CCC3)n2)c1

>  <score_type>  (61) 
oracle

>  <origin>  (61) 
adg

>  <m_score__min__energy>  (61) 
-8.7599999999999998

>  <m_primary>  (61) 
energy

$$$$
61:0
     RDKit          3D

 40 42  0  0  0  0  0  0  0  0999 V2000
   58.2960   34.5870   52.7280 N   0  0  0  0  0  0  0  0  0  0  0  0
   58.2790   33.2380   52.2510 C   0  0  0  0  0  0  0  0  0  0  0  0
   57.5390   32.2610   52.9300 C   0  0  0  0  0  0  0  0  0  0  0  0
   57.5150   30.9470   52.4590 C   0  0  0  0  0  0  0  0  0  0  0  0
   58.2310   30.5990   51.3100 C   0  0  0  0  0  0  0  0  0  0  0  0
   58.9860   31.5640   50.6240 C   0  0  0  0  0  0  0  0  0  0  0  0
   59.7130   31.2100   49.4310 N   0  0  0  0  0  0  0  0  0  0  0  0
   60.2820   32.2460   48.5620 C   0  0  0  0  0  0  0  0  0  0  0  0
   59.6710   32.1340   47.1660 C   0  0  0  0  0  0  0  0  0  0  0  0
   59.7690   30.6900   46.5930 C   0  0  0  0  0  0  0  0  0  0  0  0
   58.5090   30.2390   45.9450 N   0  0  0  0  0  0  0  0  0  0  0  0
   58.1000   28.9460   46.1500 C   0  0  0  0  0  0  0  0  0  0  0  0
   56.9080   28.4560   45.5960 C   0  0  0  0  0  0  0  0  0  0  0  0
   56.5020   27.0480   45.8370 C   0  0  0  0  0  0  0  0  0  0  0  0
   57.3610   26.1300   45.9160 O   0  0  0  0  0  0  0  0  0  0  0  0
   55.1590   26.7190   45.9770 O   0  0  0  0  0  0  0  0  0  0  0  0
   56.1390   29.3440   44.8270 C   0  0  0  0  0  0  0  0  0  0  0  0
   55.0570   28.9790   44.2960 O   0  0  0  0  0  0  0  0  0  0  0  0
   56.5610   30.6180   44.6500 N   0  0  0  0  0  0  0  0  0  0  0  0
   57.7170   31.0740   45.1910 C   0  0  0  0  0  0  0  0  0  0  0  0
   58.0450   32.2710   44.9810 O   0  0  0  0  0  0  0  0  0  0  0  0
   60.3110   29.6290   47.5900 C   0  0  0  0  0  0  0  0  0  0  0  0
   59.8060   29.7960   49.0330 C   0  0  0  0  0  0  0  0  0  0  0  0
   58.9990   32.8880   51.1010 C   0  0  0  0  0  0  0  0  0  0  0  0
   58.1230   34.8010   53.7340 H   0  0  0  0  0  0  0  0  0  0  0  0
   58.4830   35.3810   52.0750 H   0  0  0  0  0  0  0  0  0  0  0  0
   56.9759   32.5298   53.8359 H   0  0  0  0  0  0  0  0  0  0  0  0
   56.9310   30.1834   52.9936 H   0  0  0  0  0  0  0  0  0  0  0  0
   58.2028   29.5631   50.9410 H   0  0  0  0  0  0  0  0  0  0  0  0
   60.0593   33.2385   48.9809 H   0  0  0  0  0  0  0  0  0  0  0  0
   61.3717   32.1109   48.4965 H   0  0  0  0  0  0  0  0  0  0  0  0
   58.6108   32.4222   47.2196 H   0  0  0  0  0  0  0  0  0  0  0  0
   60.2349   32.8007   46.4971 H   0  0  0  0  0  0  0  0  0  0  0  0
   60.5361   30.7701   45.8087 H   0  0  0  0  0  0  0  0  0  0  0  0
   58.7216   28.2772   46.7635 H   0  0  0  0  0  0  0  0  0  0  0  0
   60.0073   28.6341   47.2323 H   0  0  0  0  0  0  0  0  0  0  0  0
   61.4029   29.7583   47.6228 H   0  0  0  0  0  0  0  0  0  0  0  0
   58.8086   29.3391   49.1141 H   0  0  0  0  0  0  0  0  0  0  0  0
   60.5280   29.3045   49.7017 H   0  0  0  0  0  0  0  0  0  0  0  0
   59.5793   33.6546   50.5665 H   0  0  0  0  0  0  0  0  0  0  0  0
  1  2  1  0
  2  3  2  0
  3  4  1  0
  4  5  2  0
  5  6  1  0
  6  7  1  0
  7  8  1  0
  8  9  1  0
  9 10  1  0
 10 11  1  0
 11 12  1  0
 12 13  2  0
 13 14  1  0
 14 15  2  0
 14 16  1  0
 13 17  1  0
 17 18  2  0
 17 19  1  0
 19 20  1  0
 20 21  2  0
 10 22  1  0
 22 23  1  0
  6 24  2  0
 24  2  1  0
 23  7  1  0
 20 11  1  0
  1 25  1  0
  1 26  1  0
  3 27  1  0
  4 28  1  0
  5 29  1  0
  8 30  1  0
  8 31  1  0
  9 32  1  0
  9 33  1  0
 10 34  1  0
 12 35  1  0
 22 36  1  0
 22 37  1  0
 23 38  1  0
 23 39  1  0
 24 40  1  0
M  CHG  2  16  -1  19  -1
M  END
>  <UniqueID>  (62) 
55

>  <SMILES>  (62) 
Nc1cccc(N2CCC(n3cc(C(=O)[O-])c(=O)[n-]c3=O)CC2)c1

>  <Energy>  (62) 
57.760138411921034

>  <Genealogy>  (62) 
Nc1cccc(N2CCC(n3cc(C(=O)[O-])c(=O)[n-]c3=O)CC2)c1 (protonated)
Nc1cccc(N2CCC(n3cc(C(=O)[O-])c(=O)[n-]c3=O)CC2)c1 (3D coordinates assigned)
Nc1cccc(N2CCC(n3cc(C(=O)[O-])c(=O)[n-]c3=O)CC2)c1 (nonaromatic ring conformer: 57.760138411921034 kcal/mol)

>  <smiles>  (62) 
Nc1cccc(N2CCC(n3cc(C(=O)O)c(=O)[nH]c3=O)CC2)c1

>  <score_type>  (62) 
oracle

>  <origin>  (62) 
adg

>  <m_score__min__energy>  (62) 
-11.119999999999999

>  <m_primary>  (62) 
energy

$$$$
62:0
     RDKit          3D

 44 46  0  0  0  0  0  0  0  0999 V2000
   56.9670   22.0080   43.2540 C   0  0  0  0  0  0  0  0  0  0  0  0
   57.1490   23.1880   44.1130 N   0  0  0  0  0  0  0  0  0  0  0  0
   58.3950   23.0950   44.8890 C   0  0  0  0  0  0  0  0  0  0  0  0
   57.0220   24.4650   43.3750 C   0  0  0  0  0  0  0  0  0  0  0  0
   57.7150   25.6630   44.0560 C   0  0  0  0  0  0  0  0  0  0  0  0
   58.1000   26.7270   43.0240 C   0  0  0  0  0  0  0  0  0  0  0  0
   58.0770   28.0560   43.6330 N   0  0  0  0  0  0  0  0  0  0  0  0
   57.1080   29.0770   43.3800 C   0  0  0  0  0  0  0  0  0  0  0  0
   56.2980   29.0640   42.4170 O   0  0  0  0  0  0  0  0  0  0  0  0
   57.1830   30.1010   44.4110 C   0  0  0  0  0  0  0  0  0  0  0  0
   56.4840   31.1440   44.4950 O   0  0  0  0  0  0  0  0  0  0  0  0
   58.2170   29.6560   45.3330 C   0  0  0  0  0  0  0  0  0  0  0  0
   58.6870   30.2330   46.5130 C   0  0  0  0  0  0  0  0  0  0  0  0
   58.1370   31.4420   46.9650 O   0  0  0  0  0  0  0  0  0  0  0  0
   58.6250   32.7210   46.6590 C   0  0  0  0  0  0  0  0  0  0  0  0
   59.2980   33.4390   47.6550 C   0  0  0  0  0  0  0  0  0  0  0  0
   59.7850   34.7240   47.3930 C   0  0  0  0  0  0  0  0  0  0  0  0
   59.5900   35.3040   46.1370 C   0  0  0  0  0  0  0  0  0  0  0  0
   58.9020   34.6020   45.1420 C   0  0  0  0  0  0  0  0  0  0  0  0
   58.4150   33.3180   45.4020 C   0  0  0  0  0  0  0  0  0  0  0  0
   59.6800   29.5330   47.2340 C   0  0  0  0  0  0  0  0  0  0  0  0
   60.1820   28.3060   46.7550 C   0  0  0  0  0  0  0  0  0  0  0  0
   59.6990   27.7550   45.5570 C   0  0  0  0  0  0  0  0  0  0  0  0
   58.7110   28.4520   44.8560 C   0  0  0  0  0  0  0  0  0  0  0  0
   56.8293   21.1152   43.8817 H   0  0  0  0  0  0  0  0  0  0  0  0
   56.0801   22.1500   42.6189 H   0  0  0  0  0  0  0  0  0  0  0  0
   57.8554   21.8762   42.6189 H   0  0  0  0  0  0  0  0  0  0  0  0
   58.1600   23.1125   45.9635 H   0  0  0  0  0  0  0  0  0  0  0  0
   58.9116   22.1558   44.6419 H   0  0  0  0  0  0  0  0  0  0  0  0
   59.0453   23.9471   44.6419 H   0  0  0  0  0  0  0  0  0  0  0  0
   57.4656   24.3319   42.3773 H   0  0  0  0  0  0  0  0  0  0  0  0
   55.9484   24.7017   43.3373 H   0  0  0  0  0  0  0  0  0  0  0  0
   57.0281   26.1063   44.7920 H   0  0  0  0  0  0  0  0  0  0  0  0
   58.6294   25.3059   44.5523 H   0  0  0  0  0  0  0  0  0  0  0  0
   59.1121   26.5178   42.6474 H   0  0  0  0  0  0  0  0  0  0  0  0
   57.3768   26.7003   42.1956 H   0  0  0  0  0  0  0  0  0  0  0  0
   59.4445   32.9904   48.6486 H   0  0  0  0  0  0  0  0  0  0  0  0
   60.3221   35.2784   48.1767 H   0  0  0  0  0  0  0  0  0  0  0  0
   59.9775   36.3126   45.9307 H   0  0  0  0  0  0  0  0  0  0  0  0
   58.7442   35.0605   44.1547 H   0  0  0  0  0  0  0  0  0  0  0  0
   57.8654   32.7720   44.6211 H   0  0  0  0  0  0  0  0  0  0  0  0
   60.0646   29.9489   48.1769 H   0  0  0  0  0  0  0  0  0  0  0  0
   60.9591   27.7753   47.3247 H   0  0  0  0  0  0  0  0  0  0  0  0
   60.0888   26.7981   45.1795 H   0  0  0  0  0  0  0  0  0  0  0  0
  1  2  1  0
  2  3  1  0
  2  4  1  0
  4  5  1  0
  5  6  1  0
  6  7  1  0
  7  8  1  0
  8  9  2  0
  8 10  1  0
 10 11  2  0
 10 12  1  0
 12 13  2  0
 13 14  1  0
 14 15  1  0
 15 16  2  0
 16 17  1  0
 17 18  2  0
 18 19  1  0
 19 20  2  0
 13 21  1  0
 21 22  2  0
 22 23  1  0
 23 24  2  0
 24  7  1  0
 24 12  1  0
 20 15  1  0
  1 25  1  0
  1 26  1  0
  1 27  1  0
  3 28  1  0
  3 29  1  0
  3 30  1  0
  4 31  1  0
  4 32  1  0
  5 33  1  0
  5 34  1  0
  6 35  1  0
  6 36  1  0
 16 37  1  0
 17 38  1  0
 18 39  1  0
 19 40  1  0
 20 41  1  0
 21 42  1  0
 22 43  1  0
 23 44  1  0
M  END
>  <UniqueID>  (63) 
56

>  <SMILES>  (63) 
CN(C)CCCN1C(=O)C(=O)c2c(Oc3ccccc3)cccc21

>  <Energy>  (63) 
82.06051160581816

>  <Genealogy>  (63) 
CN(C)CCCN1C(=O)C(=O)c2c(Oc3ccccc3)cccc21 (3D coordinates assigned)
CN(C)CCCN1C(=O)C(=O)c2c(Oc3ccccc3)cccc21 (nonaromatic ring conformer: 82.06051160581816 kcal/mol)

>  <smiles>  (63) 
CN(C)CCCN1C(=O)C(=O)c2c(Oc3ccccc3)cccc21

>  <score_type>  (63) 
oracle

>  <origin>  (63) 
adg

>  <m_score__min__energy>  (63) 
-7.4400000000000004

>  <m_primary>  (63) 
energy

$$$$
63:0
     RDKit          3D

 39 40  0  0  0  0  0  0  0  0999 V2000
   56.2630   24.8410   44.4260 N   0  0  0  0  0  0  0  0  0  0  0  0
   55.5370   25.7140   45.7310 S   0  0  0  0  0  0  0  0  0  0  0  0
   55.9880   25.1530   47.0500 O   0  0  0  0  0  0  0  0  0  0  0  0
   54.0430   25.5800   45.6350 O   0  0  0  0  0  0  0  0  0  0  0  0
   55.9520   27.3930   45.6240 N   0  0  0  0  0  0  0  0  0  0  0  0
   57.2710   27.9260   45.4400 C   0  0  0  0  0  0  0  0  0  0  0  0
   58.0120   27.7090   44.2660 C   0  0  0  0  0  0  0  0  0  0  0  0
   59.2980   28.2430   44.1400 C   0  0  0  0  0  0  0  0  0  0  0  0
   59.8480   29.0000   45.1760 C   0  0  0  0  0  0  0  0  0  0  0  0
   59.1200   29.2380   46.3480 C   0  0  0  0  0  0  0  0  0  0  0  0
   59.7190   30.0140   47.3540 O   0  0  0  0  0  0  0  0  0  0  0  0
   60.6420   31.0860   47.1510 C   0  0  0  0  0  0  0  0  0  0  0  0
   60.0020   32.4350   47.4830 C   0  0  0  0  0  0  0  0  0  0  0  0
   58.5950   32.4680   47.0740 N   0  0  0  0  0  0  0  0  0  0  0  0
   58.3560   33.4170   45.6340 S   0  0  0  0  0  0  0  0  0  0  0  0
   57.3960   34.5430   45.9010 O   0  0  0  0  0  0  0  0  0  0  0  0
   59.6750   34.0100   45.2260 O   0  0  0  0  0  0  0  0  0  0  0  0
   57.7480   32.4060   44.3270 C   0  0  0  0  0  0  0  0  0  0  0  0
   56.9320   31.3000   44.6110 C   0  0  0  0  0  0  0  0  0  0  0  0
   56.4230   30.5160   43.5710 C   0  0  0  0  0  0  0  0  0  0  0  0
   56.7330   30.8280   42.2440 C   0  0  0  0  0  0  0  0  0  0  0  0
   57.5500   31.9240   41.9560 C   0  0  0  0  0  0  0  0  0  0  0  0
   58.0580   32.7110   42.9940 C   0  0  0  0  0  0  0  0  0  0  0  0
   57.8320   28.6830   46.4750 C   0  0  0  0  0  0  0  0  0  0  0  0
   56.5950   25.5470   43.7330 H   0  0  0  0  0  0  0  0  0  0  0  0
   55.5100   24.2910   43.9580 H   0  0  0  0  0  0  0  0  0  0  0  0
   57.5797   27.1182   43.4450 H   0  0  0  0  0  0  0  0  0  0  0  0
   59.8779   28.0662   43.2221 H   0  0  0  0  0  0  0  0  0  0  0  0
   60.8620   29.4130   45.0706 H   0  0  0  0  0  0  0  0  0  0  0  0
   61.5171   30.9342   47.8000 H   0  0  0  0  0  0  0  0  0  0  0  0
   60.9417   31.0929   46.0926 H   0  0  0  0  0  0  0  0  0  0  0  0
   60.0645   32.6047   48.5680 H   0  0  0  0  0  0  0  0  0  0  0  0
   60.5427   33.2215   46.9362 H   0  0  0  0  0  0  0  0  0  0  0  0
   56.6921   31.0491   45.6548 H   0  0  0  0  0  0  0  0  0  0  0  0
   55.7786   29.6537   43.7971 H   0  0  0  0  0  0  0  0  0  0  0  0
   56.3334   30.2102   41.4263 H   0  0  0  0  0  0  0  0  0  0  0  0
   57.7939   32.1681   40.9115 H   0  0  0  0  0  0  0  0  0  0  0  0
   58.7028   33.5720   42.7642 H   0  0  0  0  0  0  0  0  0  0  0  0
   57.2593   28.8466   47.3998 H   0  0  0  0  0  0  0  0  0  0  0  0
  1  2  1  0
  2  3  2  0
  2  4  2  0
  2  5  1  0
  5  6  1  0
  6  7  2  0
  7  8  1  0
  8  9  2  0
  9 10  1  0
 10 11  1  0
 11 12  1  0
 12 13  1  0
 13 14  1  0
 14 15  1  0
 15 16  2  0
 15 17  2  0
 15 18  1  0
 18 19  2  0
 19 20  1  0
 20 21  2  0
 21 22  1  0
 22 23  2  0
 10 24  2  0
 24  6  1  0
 23 18  1  0
  1 25  1  0
  1 26  1  0
  7 27  1  0
  8 28  1  0
  9 29  1  0
 12 30  1  0
 12 31  1  0
 13 32  1  0
 13 33  1  0
 19 34  1  0
 20 35  1  0
 21 36  1  0
 22 37  1  0
 23 38  1  0
 24 39  1  0
M  CHG  2   5  -1  14  -1
M  END
>  <UniqueID>  (64) 
57

>  <SMILES>  (64) 
NS(=O)(=O)[N-]c1cccc(OCC[N-]S(=O)(=O)c2ccccc2)c1

>  <Energy>  (64) 
37.41033200080804

>  <Genealogy>  (64) 
NS(=O)(=O)[N-]c1cccc(OCC[N-]S(=O)(=O)c2ccccc2)c1 (protonated)
NS(=O)(=O)[N-]c1cccc(OCC[N-]S(=O)(=O)c2ccccc2)c1 (3D coordinates assigned)
NS(=O)(=O)[N-]c1cccc(OCC[N-]S(=O)(=O)c2ccccc2)c1 (optimized conformer: 37.41033200080804 kcal/mol)

>  <smiles>  (64) 
NS(=O)(=O)Nc1cccc(OCCNS(=O)(=O)c2ccccc2)c1

>  <score_type>  (64) 
oracle

>  <origin>  (64) 
adg

>  <m_score__min__energy>  (64) 
-10.65

>  <m_primary>  (64) 
energy

$$$$
64:0
     RDKit          3D

 57 59  0  0  0  0  0  0  0  0999 V2000
   54.8570   28.8150   53.8210 C   0  0  0  0  0  0  0  0  0  0  0  0
   53.8470   29.4720   52.9180 C   0  0  0  0  0  0  0  0  0  0  0  0
   52.5740   28.8990   52.7600 C   0  0  0  0  0  0  0  0  0  0  0  0
   51.6340   29.4890   51.9140 C   0  0  0  0  0  0  0  0  0  0  0  0
   51.9570   30.6480   51.2090 C   0  0  0  0  0  0  0  0  0  0  0  0
   53.2230   31.2240   51.3470 C   0  0  0  0  0  0  0  0  0  0  0  0
   54.1730   30.6550   52.2180 C   0  0  0  0  0  0  0  0  0  0  0  0
   55.4940   31.2090   52.3520 N   0  0  0  0  0  0  0  0  0  0  0  0
   56.6740   30.7980   51.6510 C   0  0  0  0  0  0  0  0  0  0  0  0
   57.1230   29.6280   51.7900 O   0  0  0  0  0  0  0  0  0  0  0  0
   57.3330   31.7340   50.7880 N   0  0  0  0  0  0  0  0  0  0  0  0
   58.4590   31.4100   49.9530 C   0  0  0  0  0  0  0  0  0  0  0  0
   59.2240   32.4450   49.3970 C   0  0  0  0  0  0  0  0  0  0  0  0
   60.3210   32.1540   48.5800 C   0  0  0  0  0  0  0  0  0  0  0  0
   60.6640   30.8260   48.3140 C   0  0  0  0  0  0  0  0  0  0  0  0
   59.9110   29.7790   48.8560 C   0  0  0  0  0  0  0  0  0  0  0  0
   60.2830   28.4580   48.5650 O   0  0  0  0  0  0  0  0  0  0  0  0
   59.6690   27.6270   47.6130 C   0  0  0  0  0  0  0  0  0  0  0  0
   60.4050   26.5760   47.0640 C   0  0  0  0  0  0  0  0  0  0  0  0
   59.8130   25.7370   46.1170 C   0  0  0  0  0  0  0  0  0  0  0  0
   58.5230   25.9330   45.7450 N   0  0  0  0  0  0  0  0  0  0  0  0
   57.7640   26.9280   46.2790 C   0  0  0  0  0  0  0  0  0  0  0  0
   56.3660   27.1050   45.8460 C   0  0  0  0  0  0  0  0  0  0  0  0
   55.5440   26.1680   46.0220 O   0  0  0  0  0  0  0  0  0  0  0  0
   55.9100   28.3120   45.2150 N   0  0  0  0  0  0  0  0  0  0  0  0
   56.5990   29.0340   44.1430 C   0  0  0  0  0  0  0  0  0  0  0  0
   56.5350   30.5550   44.3570 C   0  0  0  0  0  0  0  0  0  0  0  0
   57.8720   31.1040   44.6790 N   0  0  0  0  0  0  0  0  0  0  0  0
   57.8200   31.9360   45.8930 C   0  0  0  0  0  0  0  0  0  0  0  0
   58.8460   30.0160   44.8620 C   0  0  0  0  0  0  0  0  0  0  0  0
   58.3260   27.7950   47.2280 C   0  0  0  0  0  0  0  0  0  0  0  0
   58.7830   30.0760   49.6420 C   0  0  0  0  0  0  0  0  0  0  0  0
   54.5816   28.9942   54.8708 H   0  0  0  0  0  0  0  0  0  0  0  0
   54.8739   27.7326   53.6260 H   0  0  0  0  0  0  0  0  0  0  0  0
   55.8534   29.2383   53.6260 H   0  0  0  0  0  0  0  0  0  0  0  0
   52.3167   27.9797   53.3065 H   0  0  0  0  0  0  0  0  0  0  0  0
   50.6364   29.0390   51.8031 H   0  0  0  0  0  0  0  0  0  0  0  0
   51.2137   31.1100   50.5427 H   0  0  0  0  0  0  0  0  0  0  0  0
   53.4790   32.1264   50.7725 H   0  0  0  0  0  0  0  0  0  0  0  0
   57.0460   32.7370   50.8600 H   0  0  0  0  0  0  0  0  0  0  0  0
   58.9597   33.4924   49.6047 H   0  0  0  0  0  0  0  0  0  0  0  0
   60.9148   32.9720   48.1461 H   0  0  0  0  0  0  0  0  0  0  0  0
   61.5309   30.6025   47.6749 H   0  0  0  0  0  0  0  0  0  0  0  0
   61.4466   26.4091   47.3756 H   0  0  0  0  0  0  0  0  0  0  0  0
   60.3938   24.9157   45.6719 H   0  0  0  0  0  0  0  0  0  0  0  0
   57.6530   28.7202   44.1206 H   0  0  0  0  0  0  0  0  0  0  0  0
   56.1000   28.7979   43.1915 H   0  0  0  0  0  0  0  0  0  0  0  0
   56.1624   31.0318   43.4384 H   0  0  0  0  0  0  0  0  0  0  0  0
   55.8598   30.7614   45.2005 H   0  0  0  0  0  0  0  0  0  0  0  0
   57.8604   31.2899   46.7823 H   0  0  0  0  0  0  0  0  0  0  0  0
   58.6768   32.6258   45.9017 H   0  0  0  0  0  0  0  0  0  0  0  0
   56.8840   32.5138   45.9017 H   0  0  0  0  0  0  0  0  0  0  0  0
   59.0027   29.8410   45.9366 H   0  0  0  0  0  0  0  0  0  0  0  0
   58.4625   29.0978   44.3931 H   0  0  0  0  0  0  0  0  0  0  0  0
   59.8008   30.2959   44.3931 H   0  0  0  0  0  0  0  0  0  0  0  0
   57.7207   28.6010   47.6683 H   0  0  0  0  0  0  0  0  0  0  0  0
   58.1488   29.2590   50.0167 H   0  0  0  0  0  0  0  0  0  0  0  0
  1  2  1  0
  2  3  2  0
  3  4  1  0
  4  5  2  0
  5  6  1  0
  6  7  2  0
  7  8  1  0
  8  9  1  0
  9 10  2  0
  9 11  1  0
 11 12  1  0
 12 13  2  0
 13 14  1  0
 14 15  2  0
 15 16  1  0
 16 17  1  0
 17 18  1  0
 18 19  2  0
 19 20  1  0
 20 21  2  0
 21 22  1  0
 22 23  1  0
 23 24  2  0
 23 25  1  0
 25 26  1  0
 26 27  1  0
 27 28  1  0
 28 29  1  0
 28 30  1  0
 22 31  2  0
 16 32  2  0
  7  2  1  0
 32 12  1  0
 31 18  1  0
  1 33  1  0
  1 34  1  0
  1 35  1  0
  3 36  1  0
  4 37  1  0
  5 38  1  0
  6 39  1  0
 11 40  1  0
 13 41  1  0
 14 42  1  0
 15 43  1  0
 19 44  1  0
 20 45  1  0
 26 46  1  0
 26 47  1  0
 27 48  1  0
 27 49  1  0
 29 50  1  0
 29 51  1  0
 29 52  1  0
 30 53  1  0
 30 54  1  0
 30 55  1  0
 31 56  1  0
 32 57  1  0
M  CHG  2   8  -1  25  -1
M  END
>  <UniqueID>  (65) 
58

>  <SMILES>  (65) 
Cc1ccccc1[N-]C(=O)Nc1cccc(Oc2ccnc(C(=O)[N-]CCN(C)C)c2)c1

>  <Energy>  (65) 
73.13813871092178

>  <Genealogy>  (65) 
Cc1ccccc1[N-]C(=O)Nc1cccc(Oc2ccnc(C(=O)[N-]CCN(C)C)c2)c1 (protonated)
Cc1ccccc1[N-]C(=O)Nc1cccc(Oc2ccnc(C(=O)[N-]CCN(C)C)c2)c1 (3D coordinates assigned)
Cc1ccccc1[N-]C(=O)Nc1cccc(Oc2ccnc(C(=O)[N-]CCN(C)C)c2)c1 (optimized conformer: 73.13813871092178 kcal/mol)

>  <smiles>  (65) 
Cc1ccccc1NC(=O)Nc1cccc(Oc2ccnc(C(=O)NCCN(C)C)c2)c1

>  <score_type>  (65) 
oracle

>  <origin>  (65) 
adg

>  <m_score__min__energy>  (65) 
-11.550000000000001

>  <m_primary>  (65) 
energy

$$$$
65:0
     RDKit          3D

 46 49  0  0  0  0  0  0  0  0999 V2000
   61.4280   30.5240   47.5300 O   0  0  0  0  0  0  0  0  0  0  0  0
   60.3440   31.0960   47.8260 C   0  0  0  0  0  0  0  0  0  0  0  0
   59.2130   31.0150   46.9420 N   0  0  0  0  0  0  0  0  0  0  0  0
   58.6160   32.0150   46.3660 C   0  0  0  0  0  0  0  0  0  0  0  0
   57.5080   31.9050   45.5990 N   0  0  0  0  0  0  0  0  0  0  0  0
   57.1120   33.1160   45.1230 C   0  0  0  0  0  0  0  0  0  0  0  0
   57.9050   34.1910   45.5090 C   0  0  0  0  0  0  0  0  0  0  0  0
   59.1470   33.6020   46.4820 S   0  0  0  0  0  0  0  0  0  0  0  0
   60.2150   31.8350   49.1040 C   0  0  0  0  0  0  0  0  0  0  0  0
   60.9660   33.0120   49.2780 C   0  0  0  0  0  0  0  0  0  0  0  0
   60.8470   33.7690   50.4450 C   0  0  0  0  0  0  0  0  0  0  0  0
   59.9770   33.3650   51.4550 C   0  0  0  0  0  0  0  0  0  0  0  0
   59.2350   32.1930   51.3090 C   0  0  0  0  0  0  0  0  0  0  0  0
   59.3560   31.4070   50.1520 C   0  0  0  0  0  0  0  0  0  0  0  0
   58.4350   29.8550   50.0700 S   0  0  0  0  0  0  0  0  0  0  0  0
   58.4570   29.5920   51.8560 C   0  0  0  0  0  0  0  0  0  0  0  0
   59.5280   28.8600   52.3920 C   0  0  0  0  0  0  0  0  0  0  0  0
   59.6230   28.6370   53.7650 C   0  0  0  0  0  0  0  0  0  0  0  0
   58.6390   29.1290   54.6190 C   0  0  0  0  0  0  0  0  0  0  0  0
   57.5470   29.8260   54.1010 C   0  0  0  0  0  0  0  0  0  0  0  0
   57.4220   30.0530   52.7160 C   0  0  0  0  0  0  0  0  0  0  0  0
   56.1910   30.7260   52.2160 C   0  0  0  0  0  0  0  0  0  0  0  0
   56.2610   31.8440   51.6430 O   0  0  0  0  0  0  0  0  0  0  0  0
   54.9110   30.0830   52.3480 N   0  0  0  0  0  0  0  0  0  0  0  0
   53.6550   30.7820   52.2830 C   0  0  0  0  0  0  0  0  0  0  0  0
   52.8090   30.8800   53.4040 C   0  0  0  0  0  0  0  0  0  0  0  0
   51.5830   31.5460   53.3070 C   0  0  0  0  0  0  0  0  0  0  0  0
   51.1840   32.1060   52.0900 C   0  0  0  0  0  0  0  0  0  0  0  0
   49.9650   32.7680   51.9960 O   0  0  0  0  0  0  0  0  0  0  0  0
   52.0080   31.9960   50.9670 C   0  0  0  0  0  0  0  0  0  0  0  0
   53.2350   31.3310   51.0610 C   0  0  0  0  0  0  0  0  0  0  0  0
   56.2282   33.2363   44.4792 H   0  0  0  0  0  0  0  0  0  0  0  0
   57.7484   35.2429   45.2278 H   0  0  0  0  0  0  0  0  0  0  0  0
   61.6548   33.3395   48.4854 H   0  0  0  0  0  0  0  0  0  0  0  0
   61.4415   34.6864   50.5671 H   0  0  0  0  0  0  0  0  0  0  0  0
   59.8751   33.9703   52.3678 H   0  0  0  0  0  0  0  0  0  0  0  0
   58.5475   31.8811   52.1091 H   0  0  0  0  0  0  0  0  0  0  0  0
   60.3013   28.4576   51.7211 H   0  0  0  0  0  0  0  0  0  0  0  0
   60.4745   28.0729   54.1734 H   0  0  0  0  0  0  0  0  0  0  0  0
   58.7229   28.9678   55.7039 H   0  0  0  0  0  0  0  0  0  0  0  0
   56.7720   30.2040   54.7841 H   0  0  0  0  0  0  0  0  0  0  0  0
   54.8880   29.0400   52.3920 H   0  0  0  0  0  0  0  0  0  0  0  0
   53.1137   30.4306   54.3607 H   0  0  0  0  0  0  0  0  0  0  0  0
   50.9318   31.6292   54.1896 H   0  0  0  0  0  0  0  0  0  0  0  0
   51.6916   32.4327   50.0083 H   0  0  0  0  0  0  0  0  0  0  0  0
   53.8752   31.2375   50.1714 H   0  0  0  0  0  0  0  0  0  0  0  0
  1  2  2  0
  2  3  1  0
  3  4  2  3
  4  5  1  0
  5  6  1  0
  6  7  2  0
  7  8  1  0
  2  9  1  0
  9 10  2  0
 10 11  1  0
 11 12  2  0
 12 13  1  0
 13 14  2  0
 14 15  1  0
 15 16  1  0
 16 17  2  0
 17 18  1  0
 18 19  2  0
 19 20  1  0
 20 21  2  0
 21 22  1  0
 22 23  2  0
 22 24  1  0
 24 25  1  0
 25 26  2  0
 26 27  1  0
 27 28  2  0
 28 29  1  0
 28 30  1  0
 30 31  2  0
  8  4  1  0
 14  9  1  0
 21 16  1  0
 31 25  1  0
  6 32  1  0
  7 33  1  0
 10 34  1  0
 11 35  1  0
 12 36  1  0
 13 37  1  0
 17 38  1  0
 18 39  1  0
 19 40  1  0
 20 41  1  0
 24 42  1  0
 26 43  1  0
 27 44  1  0
 30 45  1  0
 31 46  1  0
M  CHG  2   5  -1  29  -1
M  END
>  <UniqueID>  (66) 
59

>  <SMILES>  (66) 
O=C(N=c1[n-]ccs1)c1ccccc1Sc1ccccc1C(=O)Nc1ccc([O-])cc1

>  <Energy>  (66) 
93.33861409341336

>  <Genealogy>  (66) 
O=C(N=c1[n-]ccs1)c1ccccc1Sc1ccccc1C(=O)Nc1ccc([O-])cc1 (protonated)
O=C(N=c1[n-]ccs1)c1ccccc1Sc1ccccc1C(=O)Nc1ccc([O-])cc1 (3D coordinates assigned)
O=C(N=c1[n-]ccs1)c1ccccc1Sc1ccccc1C(=O)Nc1ccc([O-])cc1 (optimized conformer: 93.33861409341336 kcal/mol)

>  <smiles>  (66) 
O=C(N=c1[nH]ccs1)c1ccccc1Sc1ccccc1C(=O)Nc1ccc(O)cc1

>  <score_type>  (66) 
oracle

>  <origin>  (66) 
adg

>  <m_score__min__energy>  (66) 
-12.92

>  <m_primary>  (66) 
energy

$$$$
66:0
     RDKit          3D

 55 57  0  0  0  0  0  0  0  0999 V2000
   68.7830   32.6990   52.5010 C   0  0  0  0  0  0  0  0  0  0  0  0
   67.7150   31.7650   52.3800 O   0  0  0  0  0  0  0  0  0  0  0  0
   66.6410   31.9000   51.4870 C   0  0  0  0  0  0  0  0  0  0  0  0
   66.7010   32.9090   50.5210 C   0  0  0  0  0  0  0  0  0  0  0  0
   65.6590   33.0830   49.6050 C   0  0  0  0  0  0  0  0  0  0  0  0
   64.5300   32.2500   49.6500 C   0  0  0  0  0  0  0  0  0  0  0  0
   63.4210   32.4420   48.6920 C   0  0  0  0  0  0  0  0  0  0  0  0
   63.1040   31.5620   47.7200 N   0  0  0  0  0  0  0  0  0  0  0  0
   62.0660   32.0720   47.1320 O   0  0  0  0  0  0  0  0  0  0  0  0
   61.7500   33.2070   47.7020 C   0  0  0  0  0  0  0  0  0  0  0  0
   60.5870   34.0540   47.2970 C   0  0  0  0  0  0  0  0  0  0  0  0
   59.4690   33.2070   46.8570 N   0  0  0  0  0  0  0  0  0  0  0  0
   59.6480   32.3750   45.6560 C   0  0  0  0  0  0  0  0  0  0  0  0
   58.4550   31.4800   45.4430 C   0  0  0  0  0  0  0  0  0  0  0  0
   58.3960   30.2220   46.0660 C   0  0  0  0  0  0  0  0  0  0  0  0
   57.2970   29.3830   45.8570 C   0  0  0  0  0  0  0  0  0  0  0  0
   56.2510   29.7910   45.0230 C   0  0  0  0  0  0  0  0  0  0  0  0
   55.1620   28.9550   44.8150 O   0  0  0  0  0  0  0  0  0  0  0  0
   56.3030   31.0420   44.4000 C   0  0  0  0  0  0  0  0  0  0  0  0
   57.3980   31.8850   44.6100 C   0  0  0  0  0  0  0  0  0  0  0  0
   58.2250   33.1220   47.5960 C   0  0  0  0  0  0  0  0  0  0  0  0
   57.1820   33.6410   47.1130 O   0  0  0  0  0  0  0  0  0  0  0  0
   58.1130   32.4370   48.9380 C   0  0  0  0  0  0  0  0  0  0  0  0
   59.1300   32.9810   49.9570 C   0  0  0  0  0  0  0  0  0  0  0  0
   60.0390   31.8940   50.5520 C   0  0  0  0  0  0  0  0  0  0  0  0
   60.7840   31.1820   49.5150 N   0  0  0  0  0  0  0  0  0  0  0  0
   60.3120   29.9700   48.9140 C   0  0  0  0  0  0  0  0  0  0  0  0
   61.0690   29.3570   47.8760 N   0  0  0  0  0  0  0  0  0  0  0  0
   59.2360   29.4400   49.2980 O   0  0  0  0  0  0  0  0  0  0  0  0
   62.5870   33.5040   48.7140 N   0  0  0  0  0  0  0  0  0  0  0  0
   64.4640   31.2400   50.6240 C   0  0  0  0  0  0  0  0  0  0  0  0
   65.5110   31.0630   51.5330 C   0  0  0  0  0  0  0  0  0  0  0  0
   68.9917   32.8815   53.5655 H   0  0  0  0  0  0  0  0  0  0  0  0
   69.6824   32.2924   52.0155 H   0  0  0  0  0  0  0  0  0  0  0  0
   68.4999   33.6446   52.0155 H   0  0  0  0  0  0  0  0  0  0  0  0
   67.5771   33.5729   50.4812 H   0  0  0  0  0  0  0  0  0  0  0  0
   65.7242   33.8762   48.8457 H   0  0  0  0  0  0  0  0  0  0  0  0
   60.2654   34.6631   48.1546 H   0  0  0  0  0  0  0  0  0  0  0  0
   60.8913   34.7063   46.4652 H   0  0  0  0  0  0  0  0  0  0  0  0
   59.7698   33.0283   44.7795 H   0  0  0  0  0  0  0  0  0  0  0  0
   60.5406   31.7466   45.7920 H   0  0  0  0  0  0  0  0  0  0  0  0
   59.2176   29.8958   46.7207 H   0  0  0  0  0  0  0  0  0  0  0  0
   57.2551   28.4003   46.3494 H   0  0  0  0  0  0  0  0  0  0  0  0
   55.4808   31.3631   43.7436 H   0  0  0  0  0  0  0  0  0  0  0  0
   57.4326   32.8698   44.1211 H   0  0  0  0  0  0  0  0  0  0  0  0
   57.0982   32.5945   49.3322 H   0  0  0  0  0  0  0  0  0  0  0  0
   58.3241   31.3678   48.7892 H   0  0  0  0  0  0  0  0  0  0  0  0
   59.7623   33.7274   49.4540 H   0  0  0  0  0  0  0  0  0  0  0  0
   58.5558   33.4151   50.7887 H   0  0  0  0  0  0  0  0  0  0  0  0
   60.7530   32.3659   51.2430 H   0  0  0  0  0  0  0  0  0  0  0  0
   59.4030   31.1661   51.0770 H   0  0  0  0  0  0  0  0  0  0  0  0
   61.7240   31.5410   49.2370 H   0  0  0  0  0  0  0  0  0  0  0  0
   61.7520   29.9110   47.3110 H   0  0  0  0  0  0  0  0  0  0  0  0
   63.5824   30.5839   50.6717 H   0  0  0  0  0  0  0  0  0  0  0  0
   65.4512   30.2653   52.2881 H   0  0  0  0  0  0  0  0  0  0  0  0
  1  2  1  0
  2  3  1  0
  3  4  2  0
  4  5  1  0
  5  6  2  0
  6  7  1  0
  7  8  2  0
  8  9  1  0
  9 10  1  0
 10 11  1  0
 11 12  1  0
 12 13  1  0
 13 14  1  0
 14 15  2  0
 15 16  1  0
 16 17  2  0
 17 18  1  0
 17 19  1  0
 19 20  2  0
 12 21  1  0
 21 22  2  0
 21 23  1  0
 23 24  1  0
 24 25  1  0
 25 26  1  0
 26 27  1  0
 27 28  1  0
 27 29  2  0
 10 30  2  0
  6 31  1  0
 31 32  2  0
 32  3  1  0
 30  7  1  0
 20 14  1  0
  1 33  1  0
  1 34  1  0
  1 35  1  0
  4 36  1  0
  5 37  1  0
 11 38  1  0
 11 39  1  0
 13 40  1  0
 13 41  1  0
 15 42  1  0
 16 43  1  0
 19 44  1  0
 20 45  1  0
 23 46  1  0
 23 47  1  0
 24 48  1  0
 24 49  1  0
 25 50  1  0
 25 51  1  0
 26 52  1  0
 28 53  1  0
 31 54  1  0
 32 55  1  0
M  CHG  2  18  -1  28  -1
M  END
>  <UniqueID>  (67) 
60

>  <SMILES>  (67) 
COc1ccc(-c2noc(CN(Cc3ccc([O-])cc3)C(=O)CCCNC([NH-])=O)n2)cc1

>  <Energy>  (67) 
78.83040394600413

>  <Genealogy>  (67) 
COc1ccc(-c2noc(CN(Cc3ccc([O-])cc3)C(=O)CCCNC([NH-])=O)n2)cc1 (protonated)
COc1ccc(-c2noc(CN(Cc3ccc([O-])cc3)C(=O)CCCNC([NH-])=O)n2)cc1 (3D coordinates assigned)
COc1ccc(-c2noc(CN(Cc3ccc([O-])cc3)C(=O)CCCNC([NH-])=O)n2)cc1 (optimized conformer: 78.83040394600413 kcal/mol)

>  <smiles>  (67) 
COc1ccc(-c2noc(CN(Cc3ccc(O)cc3)C(=O)CCCNC(N)=O)n2)cc1

>  <score_type>  (67) 
oracle

>  <origin>  (67) 
adg

>  <m_score__min__energy>  (67) 
-11.52

>  <m_primary>  (67) 
energy

$$$$
67:0
     RDKit          3D

 49 51  0  0  0  0  0  0  0  0999 V2000
   61.3330   33.9880   46.9900 C   0  0  0  0  0  0  0  0  0  0  0  0
   62.6750   33.2620   47.0580 C   0  0  0  0  0  0  0  0  0  0  0  0
   62.6030   31.9630   47.8680 C   0  0  0  0  0  0  0  0  0  0  0  0
   61.3120   31.2310   47.6230 C   0  0  0  0  0  0  0  0  0  0  0  0
   60.9950   30.9310   46.4400 O   0  0  0  0  0  0  0  0  0  0  0  0
   60.3520   30.9540   48.7130 C   0  0  0  0  0  0  0  0  0  0  0  0
   59.8940   32.0300   49.4890 C   0  0  0  0  0  0  0  0  0  0  0  0
   58.9340   31.8300   50.4820 C   0  0  0  0  0  0  0  0  0  0  0  0
   58.3930   30.5610   50.6830 C   0  0  0  0  0  0  0  0  0  0  0  0
   58.8250   29.4840   49.9090 C   0  0  0  0  0  0  0  0  0  0  0  0
   59.8390   29.6550   48.9460 C   0  0  0  0  0  0  0  0  0  0  0  0
   60.2990   28.5580   48.1370 N   0  0  0  0  0  0  0  0  0  0  0  0
   59.8000   28.0840   46.8760 C   0  0  0  0  0  0  0  0  0  0  0  0
   60.4530   28.3650   45.8360 O   0  0  0  0  0  0  0  0  0  0  0  0
   58.5620   27.2750   46.7350 C   0  0  0  0  0  0  0  0  0  0  0  0
   58.5950   25.9360   47.1550 C   0  0  0  0  0  0  0  0  0  0  0  0
   57.5150   25.1300   46.9870 N   0  0  0  0  0  0  0  0  0  0  0  0
   56.3670   25.5810   46.4240 C   0  0  0  0  0  0  0  0  0  0  0  0
   55.3900   24.8000   46.2830 O   0  0  0  0  0  0  0  0  0  0  0  0
   56.2690   26.9090   46.0070 C   0  0  0  0  0  0  0  0  0  0  0  0
   57.3590   27.7780   46.1750 C   0  0  0  0  0  0  0  0  0  0  0  0
   57.1950   29.1930   45.7850 C   0  0  0  0  0  0  0  0  0  0  0  0
   56.1200   29.5690   45.2460 O   0  0  0  0  0  0  0  0  0  0  0  0
   58.2480   30.1350   46.0540 N   0  0  0  0  0  0  0  0  0  0  0  0
   58.2210   31.5120   45.6470 C   0  0  0  0  0  0  0  0  0  0  0  0
   58.1780   32.5560   46.5900 C   0  0  0  0  0  0  0  0  0  0  0  0
   58.1510   33.8880   46.1640 C   0  0  0  0  0  0  0  0  0  0  0  0
   58.1520   34.1870   44.7990 C   0  0  0  0  0  0  0  0  0  0  0  0
   58.1670   33.1560   43.8570 C   0  0  0  0  0  0  0  0  0  0  0  0
   58.1930   31.8230   44.2780 C   0  0  0  0  0  0  0  0  0  0  0  0
   60.9702   34.1843   48.0097 H   0  0  0  0  0  0  0  0  0  0  0  0
   61.4585   34.9413   46.4556 H   0  0  0  0  0  0  0  0  0  0  0  0
   60.6038   33.3614   46.4556 H   0  0  0  0  0  0  0  0  0  0  0  0
   62.9973   33.0212   46.0342 H   0  0  0  0  0  0  0  0  0  0  0  0
   63.3892   33.9295   47.5623 H   0  0  0  0  0  0  0  0  0  0  0  0
   63.4424   31.3140   47.5779 H   0  0  0  0  0  0  0  0  0  0  0  0
   62.6569   32.2192   48.9364 H   0  0  0  0  0  0  0  0  0  0  0  0
   60.2949   33.0391   49.3131 H   0  0  0  0  0  0  0  0  0  0  0  0
   58.6042   32.6737   51.1061 H   0  0  0  0  0  0  0  0  0  0  0  0
   57.6234   30.4086   51.4540 H   0  0  0  0  0  0  0  0  0  0  0  0
   58.3701   28.4927   50.0517 H   0  0  0  0  0  0  0  0  0  0  0  0
   59.5052   25.5354   47.6251 H   0  0  0  0  0  0  0  0  0  0  0  0
   55.3390   27.2746   45.5472 H   0  0  0  0  0  0  0  0  0  0  0  0
   59.0020   29.8390   46.7150 H   0  0  0  0  0  0  0  0  0  0  0  0
   58.1656   32.3237   47.6651 H   0  0  0  0  0  0  0  0  0  0  0  0
   58.1290   34.7012   46.9044 H   0  0  0  0  0  0  0  0  0  0  0  0
   58.1410   35.2354   44.4661 H   0  0  0  0  0  0  0  0  0  0  0  0
   58.1583   33.3929   42.7829 H   0  0  0  0  0  0  0  0  0  0  0  0
   58.1915   31.0137   43.5330 H   0  0  0  0  0  0  0  0  0  0  0  0
  1  2  1  0
  2  3  1  0
  3  4  1  0
  4  5  2  0
  4  6  1  0
  6  7  2  0
  7  8  1  0
  8  9  2  0
  9 10  1  0
 10 11  2  0
 11 12  1  0
 12 13  1  0
 13 14  2  0
 13 15  1  0
 15 16  2  0
 16 17  1  0
 17 18  1  0
 18 19  2  0
 18 20  1  0
 20 21  2  0
 21 22  1  0
 22 23  2  0
 22 24  1  0
 24 25  1  0
 25 26  2  0
 26 27  1  0
 27 28  2  0
 28 29  1  0
 29 30  2  0
 11  6  1  0
 21 15  1  0
 30 25  1  0
  1 31  1  0
  1 32  1  0
  1 33  1  0
  2 34  1  0
  2 35  1  0
  3 36  1  0
  3 37  1  0
  7 38  1  0
  8 39  1  0
  9 40  1  0
 10 41  1  0
 16 42  1  0
 20 43  1  0
 24 44  1  0
 26 45  1  0
 27 46  1  0
 28 47  1  0
 29 48  1  0
 30 49  1  0
M  CHG  2  12  -1  17  -1
M  END
>  <UniqueID>  (68) 
61

>  <SMILES>  (68) 
CCCC(=O)c1ccccc1[N-]C(=O)c1c[n-]c(=O)cc1C(=O)Nc1ccccc1

>  <Energy>  (68) 
66.1297766289988

>  <Genealogy>  (68) 
CCCC(=O)c1ccccc1[N-]C(=O)c1c[n-]c(=O)cc1C(=O)Nc1ccccc1 (protonated)
CCCC(=O)c1ccccc1[N-]C(=O)c1c[n-]c(=O)cc1C(=O)Nc1ccccc1 (3D coordinates assigned)
CCCC(=O)c1ccccc1[N-]C(=O)c1c[n-]c(=O)cc1C(=O)Nc1ccccc1 (optimized conformer: 66.1297766289988 kcal/mol)

>  <smiles>  (68) 
CCCC(=O)c1ccccc1NC(=O)c1c[nH]c(=O)cc1C(=O)Nc1ccccc1

>  <score_type>  (68) 
oracle

>  <origin>  (68) 
adg

>  <m_score__min__energy>  (68) 
-11.130000000000001

>  <m_primary>  (68) 
energy

$$$$
68:0
     RDKit          3D

 68 72  0  0  0  0  0  0  0  0999 V2000
   59.1550   28.7710   48.2340 C   0  0  0  0  0  0  0  0  0  0  0  0
   59.1500   29.2180   46.8490 N   0  0  0  0  0  0  0  0  0  0  0  0
   59.9220   28.7350   45.8570 C   0  0  0  0  0  0  0  0  0  0  0  0
   59.5510   29.3460   44.6770 C   0  0  0  0  0  0  0  0  0  0  0  0
   58.5270   30.2020   45.0440 C   0  0  0  0  0  0  0  0  0  0  0  0
   57.6960   31.0300   44.1110 C   0  0  0  0  0  0  0  0  0  0  0  0
   56.6900   31.7800   44.8730 N   0  0  0  0  0  0  0  0  0  0  0  0
   57.0180   33.2080   44.8930 C   0  0  0  0  0  0  0  0  0  0  0  0
   58.1920   33.4480   45.8030 C   0  0  0  0  0  0  0  0  0  0  0  0
   59.3750   33.9900   45.2820 C   0  0  0  0  0  0  0  0  0  0  0  0
   60.5040   34.1310   46.0890 C   0  0  0  0  0  0  0  0  0  0  0  0
   60.4680   33.7480   47.4420 C   0  0  0  0  0  0  0  0  0  0  0  0
   61.6990   33.8330   48.2710 C   0  0  0  0  0  0  0  0  0  0  0  0
   62.9540   33.5230   47.7200 C   0  0  0  0  0  0  0  0  0  0  0  0
   64.0910   33.4770   48.5300 C   0  0  0  0  0  0  0  0  0  0  0  0
   63.9970   33.7470   49.9070 C   0  0  0  0  0  0  0  0  0  0  0  0
   65.1130   33.5600   50.7840 N   0  0  0  0  0  0  0  0  0  0  0  0
   66.3080   32.8530   50.4380 C   0  0  0  0  0  0  0  0  0  0  0  0
   67.2180   33.4380   49.7860 O   0  0  0  0  0  0  0  0  0  0  0  0
   66.4030   31.3810   50.7530 C   0  0  0  0  0  0  0  0  0  0  0  0
   67.5070   31.1510   51.8110 C   0  0  0  0  0  0  0  0  0  0  0  0
   67.3470   29.8090   52.5470 C   0  0  0  0  0  0  0  0  0  0  0  0
   66.6010   28.8450   51.7070 N   0  0  0  0  0  0  0  0  0  0  0  0
   66.6590   27.4820   52.2750 C   0  0  0  0  0  0  0  0  0  0  0  0
   67.6430   26.6420   51.5180 C   0  0  0  0  0  0  0  0  0  0  0  0
   68.5490   25.8250   52.1060 N   0  0  0  0  0  0  0  0  0  0  0  0
   69.3930   25.2470   51.2120 C   0  0  0  0  0  0  0  0  0  0  0  0
   69.1670   25.6070   49.8890 C   0  0  0  0  0  0  0  0  0  0  0  0
   67.8730   26.6870   49.8550 S   0  0  0  0  0  0  0  0  0  0  0  0
   65.1910   29.2780   51.5580 C   0  0  0  0  0  0  0  0  0  0  0  0
   65.0640   30.7840   51.2280 C   0  0  0  0  0  0  0  0  0  0  0  0
   62.7570   34.0880   50.4520 C   0  0  0  0  0  0  0  0  0  0  0  0
   61.6170   34.1330   49.6440 C   0  0  0  0  0  0  0  0  0  0  0  0
   59.2710   33.2250   47.9690 C   0  0  0  0  0  0  0  0  0  0  0  0
   58.1460   33.0720   47.1520 C   0  0  0  0  0  0  0  0  0  0  0  0
   58.2830   30.0910   46.3640 N   0  0  0  0  0  0  0  0  0  0  0  0
   59.1452   29.6453   48.9015 H   0  0  0  0  0  0  0  0  0  0  0  0
   58.2637   28.1549   48.4237 H   0  0  0  0  0  0  0  0  0  0  0  0
   60.0599   28.1750   48.4237 H   0  0  0  0  0  0  0  0  0  0  0  0
   60.7147   27.9806   45.9687 H   0  0  0  0  0  0  0  0  0  0  0  0
   59.9728   29.1888   43.6733 H   0  0  0  0  0  0  0  0  0  0  0  0
   58.3456   31.7349   43.5714 H   0  0  0  0  0  0  0  0  0  0  0  0
   57.1889   30.3689   43.3928 H   0  0  0  0  0  0  0  0  0  0  0  0
   56.7110   31.4380   45.8630 H   0  0  0  0  0  0  0  0  0  0  0  0
   57.2713   33.5389   43.8750 H   0  0  0  0  0  0  0  0  0  0  0  0
   56.1505   33.7750   45.2617 H   0  0  0  0  0  0  0  0  0  0  0  0
   59.4134   34.3064   44.2292 H   0  0  0  0  0  0  0  0  0  0  0  0
   61.4301   34.5451   45.6638 H   0  0  0  0  0  0  0  0  0  0  0  0
   63.0416   33.3151   46.6434 H   0  0  0  0  0  0  0  0  0  0  0  0
   65.0669   33.2278   48.0877 H   0  0  0  0  0  0  0  0  0  0  0  0
   66.6622   30.8578   49.8208 H   0  0  0  0  0  0  0  0  0  0  0  0
   68.4854   31.1633   51.3084 H   0  0  0  0  0  0  0  0  0  0  0  0
   67.4264   31.9540   52.5585 H   0  0  0  0  0  0  0  0  0  0  0  0
   68.3423   29.3986   52.7727 H   0  0  0  0  0  0  0  0  0  0  0  0
   66.7873   29.9778   53.4788 H   0  0  0  0  0  0  0  0  0  0  0  0
   66.9683   27.5414   53.3289 H   0  0  0  0  0  0  0  0  0  0  0  0
   65.6632   27.0210   52.1988 H   0  0  0  0  0  0  0  0  0  0  0  0
   68.6000   25.6560   53.1340 H   0  0  0  0  0  0  0  0  0  0  0  0
   70.1903   24.5507   51.5111 H   0  0  0  0  0  0  0  0  0  0  0  0
   69.7335   25.2497   49.0164 H   0  0  0  0  0  0  0  0  0  0  0  0
   64.7284   28.6988   50.7453 H   0  0  0  0  0  0  0  0  0  0  0  0
   64.6850   29.1032   52.5189 H   0  0  0  0  0  0  0  0  0  0  0  0
   64.3150   30.9123   50.4327 H   0  0  0  0  0  0  0  0  0  0  0  0
   64.7612   31.3105   52.1451 H   0  0  0  0  0  0  0  0  0  0  0  0
   62.6769   34.3226   51.5237 H   0  0  0  0  0  0  0  0  0  0  0  0
   60.6469   34.4054   50.0852 H   0  0  0  0  0  0  0  0  0  0  0  0
   59.2207   32.9353   49.0290 H   0  0  0  0  0  0  0  0  0  0  0  0
   57.2191   32.6537   47.5713 H   0  0  0  0  0  0  0  0  0  0  0  0
  1  2  1  0
  2  3  1  0
  3  4  2  0
  4  5  1  0
  5  6  1  0
  6  7  1  0
  7  8  1  0
  8  9  1  0
  9 10  2  0
 10 11  1  0
 11 12  2  0
 12 13  1  0
 13 14  2  0
 14 15  1  0
 15 16  2  0
 16 17  1  0
 17 18  1  0
 18 19  2  0
 18 20  1  0
 20 21  1  0
 21 22  1  0
 22 23  1  0
 23 24  1  0
 24 25  1  0
 25 26  2  0
 26 27  1  0
 27 28  2  0
 28 29  1  0
 23 30  1  0
 30 31  1  0
 16 32  1  0
 32 33  2  0
 12 34  1  0
 34 35  2  0
  5 36  2  0
 36  2  1  0
 35  9  1  0
 33 13  1  0
 31 20  1  0
 29 25  1  0
  1 37  1  0
  1 38  1  0
  1 39  1  0
  3 40  1  0
  4 41  1  0
  6 42  1  0
  6 43  1  0
  7 44  1  0
  8 45  1  0
  8 46  1  0
 10 47  1  0
 11 48  1  0
 14 49  1  0
 15 50  1  0
 20 51  1  0
 21 52  1  0
 21 53  1  0
 22 54  1  0
 22 55  1  0
 24 56  1  0
 24 57  1  0
 26 58  1  0
 27 59  1  0
 28 60  1  0
 30 61  1  0
 30 62  1  0
 31 63  1  0
 31 64  1  0
 32 65  1  0
 33 66  1  0
 34 67  1  0
 35 68  1  0
M  CHG  2  17  -1  26   1
M  END
>  <UniqueID>  (69) 
62

>  <SMILES>  (69) 
Cn1ccc(CNCc2ccc(-c3ccc([N-]C(=O)C4CCN(Cc5[nH+]ccs5)CC4)cc3)cc2)n1

>  <Energy>  (69) 
144.14435722175804

>  <Genealogy>  (69) 
Cn1ccc(CNCc2ccc(-c3ccc([N-]C(=O)C4CCN(Cc5[nH+]ccs5)CC4)cc3)cc2)n1 (protonated)
Cn1ccc(CNCc2ccc(-c3ccc([N-]C(=O)C4CCN(Cc5[nH+]ccs5)CC4)cc3)cc2)n1 (3D coordinates assigned)
Cn1ccc(CNCc2ccc(-c3ccc([N-]C(=O)C4CCN(Cc5[nH+]ccs5)CC4)cc3)cc2)n1 (nonaromatic ring conformer: 144.14435722175804 kcal/mol)

>  <smiles>  (69) 
Cn1ccc(CNCc2ccc(-c3ccc(NC(=O)C4CCN(Cc5nccs5)CC4)cc3)cc2)n1

>  <score_type>  (69) 
oracle

>  <origin>  (69) 
adg

>  <m_score__min__energy>  (69) 
-9.2799999999999994

>  <m_primary>  (69) 
energy

$$$$
69:0
     RDKit          3D

 48 48  0  0  0  0  0  0  0  0999 V2000
   59.9840   34.3880   45.9770 C   0  0  0  0  0  0  0  0  0  0  0  0
   59.9550   32.9360   46.3780 C   0  0  0  0  0  0  0  0  0  0  0  0
   61.0500   32.2730   46.9620 C   0  0  0  0  0  0  0  0  0  0  0  0
   62.4210   32.7910   47.1660 C   0  0  0  0  0  0  0  0  0  0  0  0
   63.5490   31.9160   47.0910 N   0  0  0  0  0  0  0  0  0  0  0  0
   62.6140   34.0180   47.3770 O   0  0  0  0  0  0  0  0  0  0  0  0
   60.5750   30.7090   47.3640 S   0  0  0  0  0  0  0  0  0  0  0  0
   59.0110   30.8290   46.7650 C   0  0  0  0  0  0  0  0  0  0  0  0
   58.0130   29.8010   46.8290 N   0  0  0  0  0  0  0  0  0  0  0  0
   58.2000   28.4290   46.4640 C   0  0  0  0  0  0  0  0  0  0  0  0
   57.7940   27.5380   47.2540 O   0  0  0  0  0  0  0  0  0  0  0  0
   58.7550   28.0550   45.1420 C   0  0  0  0  0  0  0  0  0  0  0  0
   59.7000   28.7560   44.6870 O   0  0  0  0  0  0  0  0  0  0  0  0
   58.2900   26.9130   44.3820 N   0  0  0  0  0  0  0  0  0  0  0  0
   58.1310   27.0690   42.9300 C   0  0  0  0  0  0  0  0  0  0  0  0
   58.1100   25.5800   44.9800 C   0  0  0  0  0  0  0  0  0  0  0  0
   56.6760   25.0560   44.7810 C   0  0  0  0  0  0  0  0  0  0  0  0
   55.7930   25.2380   46.0180 C   0  0  0  0  0  0  0  0  0  0  0  0
   55.2150   26.5130   46.0160 O   0  0  0  0  0  0  0  0  0  0  0  0
   58.8090   32.1080   46.2470 C   0  0  0  0  0  0  0  0  0  0  0  0
   57.5430   32.5160   45.5980 C   0  0  0  0  0  0  0  0  0  0  0  0
   57.1370   33.7060   45.7050 O   0  0  0  0  0  0  0  0  0  0  0  0
   56.7840   31.5760   44.8900 O   0  0  0  0  0  0  0  0  0  0  0  0
   57.2690   30.8560   43.7580 C   0  0  0  0  0  0  0  0  0  0  0  0
   57.6840   31.8290   42.6510 C   0  0  0  0  0  0  0  0  0  0  0  0
   56.1690   29.9190   43.2630 C   0  0  0  0  0  0  0  0  0  0  0  0
   59.9966   35.0173   46.8791 H   0  0  0  0  0  0  0  0  0  0  0  0
   60.8863   34.5855   45.3796 H   0  0  0  0  0  0  0  0  0  0  0  0
   59.0903   34.6213   45.3796 H   0  0  0  0  0  0  0  0  0  0  0  0
   64.5150   32.2970   47.2060 H   0  0  0  0  0  0  0  0  0  0  0  0
   63.4340   30.8890   46.9460 H   0  0  0  0  0  0  0  0  0  0  0  0
   57.3596   27.8259   42.7248 H   0  0  0  0  0  0  0  0  0  0  0  0
   59.0862   27.3901   42.4889 H   0  0  0  0  0  0  0  0  0  0  0  0
   57.8282   26.1079   42.4889 H   0  0  0  0  0  0  0  0  0  0  0  0
   58.8144   24.8793   44.5079 H   0  0  0  0  0  0  0  0  0  0  0  0
   58.2990   25.6604   46.0606 H   0  0  0  0  0  0  0  0  0  0  0  0
   56.2182   25.5992   43.9411 H   0  0  0  0  0  0  0  0  0  0  0  0
   56.7459   23.9760   44.5840 H   0  0  0  0  0  0  0  0  0  0  0  0
   54.9974   24.4784   46.0115 H   0  0  0  0  0  0  0  0  0  0  0  0
   56.4119   25.1259   46.9204 H   0  0  0  0  0  0  0  0  0  0  0  0
   55.7840   27.0750   46.6050 H   0  0  0  0  0  0  0  0  0  0  0  0
   58.1529   30.2660   44.0420 H   0  0  0  0  0  0  0  0  0  0  0  0
   58.0775   32.7517   43.1024 H   0  0  0  0  0  0  0  0  0  0  0  0
   58.4624   31.3648   42.0277 H   0  0  0  0  0  0  0  0  0  0  0  0
   56.8102   32.0695   42.0277 H   0  0  0  0  0  0  0  0  0  0  0  0
   55.6491   29.4761   44.1253 H   0  0  0  0  0  0  0  0  0  0  0  0
   55.4505   30.4868   42.6536 H   0  0  0  0  0  0  0  0  0  0  0  0
   56.6153   29.1193   42.6536 H   0  0  0  0  0  0  0  0  0  0  0  0
  1  2  1  0
  2  3  2  0
  3  4  1  0
  4  5  1  0
  4  6  2  0
  3  7  1  0
  7  8  1  0
  8  9  1  0
  9 10  1  0
 10 11  2  0
 10 12  1  0
 12 13  2  0
 12 14  1  0
 14 15  1  0
 14 16  1  0
 16 17  1  0
 17 18  1  0
 18 19  1  0
  8 20  2  0
 20 21  1  0
 21 22  2  0
 21 23  1  0
 23 24  1  0
 24 25  1  0
 24 26  1  0
 20  2  1  0
  1 27  1  0
  1 28  1  0
  1 29  1  0
  5 30  1  0
  5 31  1  0
 15 32  1  0
 15 33  1  0
 15 34  1  0
 16 35  1  0
 16 36  1  0
 17 37  1  0
 17 38  1  0
 18 39  1  0
 18 40  1  0
 19 41  1  0
 24 42  1  0
 25 43  1  0
 25 44  1  0
 25 45  1  0
 26 46  1  0
 26 47  1  0
 26 48  1  0
M  CHG  1   9  -1
M  END
>  <UniqueID>  (70) 
63

>  <SMILES>  (70) 
Cc1c(C(N)=O)sc([N-]C(=O)C(=O)N(C)CCCO)c1C(=O)OC(C)C

>  <Energy>  (70) 
71.54147550951392

>  <Genealogy>  (70) 
Cc1c(C(N)=O)sc([N-]C(=O)C(=O)N(C)CCCO)c1C(=O)OC(C)C (protonated)
Cc1c(C(N)=O)sc([N-]C(=O)C(=O)N(C)CCCO)c1C(=O)OC(C)C (3D coordinates assigned)
Cc1c(C(N)=O)sc([N-]C(=O)C(=O)N(C)CCCO)c1C(=O)OC(C)C (optimized conformer: 71.54147550951392 kcal/mol)

>  <smiles>  (70) 
Cc1c(C(N)=O)sc(NC(=O)C(=O)N(C)CCCO)c1C(=O)OC(C)C

>  <score_type>  (70) 
oracle

>  <origin>  (70) 
adg

>  <m_score__min__energy>  (70) 
-9.1199999999999992

>  <m_primary>  (70) 
energy

$$$$
70:0
     RDKit          3D

 55 57  0  0  0  0  0  0  0  0999 V2000
   57.3430   31.8320   41.8680 C   0  0  0  0  0  0  0  0  0  0  0  0
   57.7380   31.9720   43.3140 C   0  0  0  0  0  0  0  0  0  0  0  0
   58.4920   33.0900   43.7040 C   0  0  0  0  0  0  0  0  0  0  0  0
   58.8720   33.2670   45.0350 C   0  0  0  0  0  0  0  0  0  0  0  0
   58.5120   32.3180   46.0030 C   0  0  0  0  0  0  0  0  0  0  0  0
   58.8600   32.4820   47.3850 N   0  0  0  0  0  0  0  0  0  0  0  0
   59.3340   31.4520   48.2590 C   0  0  0  0  0  0  0  0  0  0  0  0
   58.5250   30.7070   48.8720 O   0  0  0  0  0  0  0  0  0  0  0  0
   60.8050   31.2830   48.4760 C   0  0  0  0  0  0  0  0  0  0  0  0
   61.2540   30.0560   47.9010 O   0  0  0  0  0  0  0  0  0  0  0  0
   60.4270   28.9760   47.5460 C   0  0  0  0  0  0  0  0  0  0  0  0
   60.2220   27.9630   48.4870 C   0  0  0  0  0  0  0  0  0  0  0  0
   59.3950   26.8760   48.1920 C   0  0  0  0  0  0  0  0  0  0  0  0
   58.7580   26.7790   46.9440 C   0  0  0  0  0  0  0  0  0  0  0  0
   57.9050   25.6570   46.6390 N   0  0  0  0  0  0  0  0  0  0  0  0
   57.7590   24.5590   47.5980 C   0  0  0  0  0  0  0  0  0  0  0  0
   57.0230   25.5980   45.1380 S   0  0  0  0  0  0  0  0  0  0  0  0
   57.5940   26.5960   44.1690 O   0  0  0  0  0  0  0  0  0  0  0  0
   55.5880   25.9660   45.3920 O   0  0  0  0  0  0  0  0  0  0  0  0
   57.1290   23.9830   44.4390 C   0  0  0  0  0  0  0  0  0  0  0  0
   56.1930   23.5770   43.4780 C   0  0  0  0  0  0  0  0  0  0  0  0
   56.2740   22.3010   42.9130 C   0  0  0  0  0  0  0  0  0  0  0  0
   57.2900   21.4250   43.3030 C   0  0  0  0  0  0  0  0  0  0  0  0
   58.2270   21.8240   44.2620 C   0  0  0  0  0  0  0  0  0  0  0  0
   58.1470   23.0990   44.8310 C   0  0  0  0  0  0  0  0  0  0  0  0
   58.9780   27.7910   45.9930 C   0  0  0  0  0  0  0  0  0  0  0  0
   59.8040   28.8790   46.2890 C   0  0  0  0  0  0  0  0  0  0  0  0
   57.7310   31.2190   45.6300 C   0  0  0  0  0  0  0  0  0  0  0  0
   57.3340   31.0310   44.2950 C   0  0  0  0  0  0  0  0  0  0  0  0
   56.3450   29.6190   43.8700 S   0  0  0  0  0  0  0  0  0  0  0  0
   56.1270   28.5520   45.2160 N   0  0  0  0  0  0  0  0  0  0  0  0
   57.0150   28.8580   42.7600 O   0  0  0  0  0  0  0  0  0  0  0  0
   54.9880   30.0770   43.4140 O   0  0  0  0  0  0  0  0  0  0  0  0
   56.3079   31.4651   41.8045 H   0  0  0  0  0  0  0  0  0  0  0  0
   57.4162   32.8108   41.3715 H   0  0  0  0  0  0  0  0  0  0  0  0
   58.0163   31.1177   41.3715 H   0  0  0  0  0  0  0  0  0  0  0  0
   58.7869   33.8358   42.9511 H   0  0  0  0  0  0  0  0  0  0  0  0
   59.4554   34.1531   45.3258 H   0  0  0  0  0  0  0  0  0  0  0  0
   61.3397   32.1212   48.0053 H   0  0  0  0  0  0  0  0  0  0  0  0
   61.0071   31.2660   49.5572 H   0  0  0  0  0  0  0  0  0  0  0  0
   60.7159   28.0220   49.4681 H   0  0  0  0  0  0  0  0  0  0  0  0
   59.2414   26.0886   48.9446 H   0  0  0  0  0  0  0  0  0  0  0  0
   57.8119   24.9571   48.6221 H   0  0  0  0  0  0  0  0  0  0  0  0
   56.7874   24.0661   47.4460 H   0  0  0  0  0  0  0  0  0  0  0  0
   58.5680   23.8294   47.4460 H   0  0  0  0  0  0  0  0  0  0  0  0
   55.3924   24.2645   43.1675 H   0  0  0  0  0  0  0  0  0  0  0  0
   55.5365   21.9861   42.1600 H   0  0  0  0  0  0  0  0  0  0  0  0
   57.3531   20.4218   42.8561 H   0  0  0  0  0  0  0  0  0  0  0  0
   59.0273   21.1344   44.5688 H   0  0  0  0  0  0  0  0  0  0  0  0
   58.8830   23.4099   45.5871 H   0  0  0  0  0  0  0  0  0  0  0  0
   58.4955   27.7259   45.0066 H   0  0  0  0  0  0  0  0  0  0  0  0
   59.9675   29.6631   45.5351 H   0  0  0  0  0  0  0  0  0  0  0  0
   57.4226   30.4901   46.3940 H   0  0  0  0  0  0  0  0  0  0  0  0
   56.8050   27.7650   45.1100 H   0  0  0  0  0  0  0  0  0  0  0  0
   55.1630   28.1540   45.1540 H   0  0  0  0  0  0  0  0  0  0  0  0
  1  2  1  0
  2  3  2  0
  3  4  1  0
  4  5  2  0
  5  6  1  0
  6  7  1  0
  7  8  2  0
  7  9  1  0
  9 10  1  0
 10 11  1  0
 11 12  2  0
 12 13  1  0
 13 14  2  0
 14 15  1  0
 15 16  1  0
 15 17  1  0
 17 18  2  0
 17 19  2  0
 17 20  1  0
 20 21  2  0
 21 22  1  0
 22 23  2  0
 23 24  1  0
 24 25  2  0
 14 26  1  0
 26 27  2  0
  5 28  1  0
 28 29  2  0
 29 30  1  0
 30 31  1  0
 30 32  2  0
 30 33  2  0
 29  2  1  0
 27 11  1  0
 25 20  1  0
  1 34  1  0
  1 35  1  0
  1 36  1  0
  3 37  1  0
  4 38  1  0
  9 39  1  0
  9 40  1  0
 12 41  1  0
 13 42  1  0
 16 43  1  0
 16 44  1  0
 16 45  1  0
 21 46  1  0
 22 47  1  0
 23 48  1  0
 24 49  1  0
 25 50  1  0
 26 51  1  0
 27 52  1  0
 28 53  1  0
 31 54  1  0
 31 55  1  0
M  CHG  1   6  -1
M  END
>  <UniqueID>  (71) 
64

>  <SMILES>  (71) 
Cc1ccc([N-]C(=O)COc2ccc(N(C)S(=O)(=O)c3ccccc3)cc2)cc1S(N)(=O)=O

>  <Energy>  (71) 
64.57178197739883

>  <Genealogy>  (71) 
Cc1ccc([N-]C(=O)COc2ccc(N(C)S(=O)(=O)c3ccccc3)cc2)cc1S(N)(=O)=O (protonated)
Cc1ccc([N-]C(=O)COc2ccc(N(C)S(=O)(=O)c3ccccc3)cc2)cc1S(N)(=O)=O (3D coordinates assigned)
Cc1ccc([N-]C(=O)COc2ccc(N(C)S(=O)(=O)c3ccccc3)cc2)cc1S(N)(=O)=O (optimized conformer: 64.57178197739883 kcal/mol)

>  <smiles>  (71) 
Cc1ccc(NC(=O)COc2ccc(N(C)S(=O)(=O)c3ccccc3)cc2)cc1S(N)(=O)=O

>  <score_type>  (71) 
oracle

>  <origin>  (71) 
adg

>  <m_score__min__energy>  (71) 
-12.390000000000001

>  <m_primary>  (71) 
energy

$$$$
71:0
     RDKit          3D

 74 77  0  0  1  0  0  0  0  0999 V2000
   68.1670   29.4800   52.5650 C   0  0  0  0  0  0  0  0  0  0  0  0
   67.1480   28.7470   51.7280 C   0  0  0  0  0  0  0  0  0  0  0  0
   66.6560   27.5310   52.5100 C   0  0  0  0  0  0  0  0  0  0  0  0
   67.7550   28.2430   50.4400 C   0  0  0  0  0  0  0  0  0  0  0  0
   66.0200   29.5470   51.4970 O   0  0  0  0  0  0  0  0  0  0  0  0
   66.0610   30.7750   50.8940 C   0  0  0  0  0  0  0  0  0  0  0  0
   67.1440   31.2430   50.4140 O   0  0  0  0  0  0  0  0  0  0  0  0
   64.9120   31.6060   50.7620 N   0  0  0  0  0  0  0  0  0  0  0  0
   65.0810   32.8830   50.1060 C   0  0  0  0  0  0  0  0  0  0  0  0
   63.8310   33.5500   49.6770 C   0  0  0  0  0  0  0  0  0  0  0  0
   62.6450   33.1180   50.3730 N   0  0  0  0  0  0  0  0  0  0  0  0
   61.3460   33.4390   49.8460 C   0  0  0  0  0  0  0  0  0  0  0  0
   60.3660   33.0230   50.5170 O   0  0  0  0  0  0  0  0  0  0  0  0
   61.2480   34.2070   48.6010 C   0  0  0  0  0  0  0  0  0  0  0  0
   60.7420   33.4130   47.5850 O   0  0  0  0  0  0  0  0  0  0  0  0
   59.6650   33.6350   46.7790 C   0  0  0  0  0  0  0  0  0  0  0  0
   59.6560   34.3830   45.6280 C   0  0  0  0  0  0  0  0  0  0  0  0
   58.5300   34.5750   44.8480 C   0  0  0  0  0  0  0  0  0  0  0  0
   57.3450   33.9940   45.2280 C   0  0  0  0  0  0  0  0  0  0  0  0
   57.3160   33.2450   46.3620 C   0  0  0  0  0  0  0  0  0  0  0  0
   58.4430   33.0550   47.1390 C   0  0  0  0  0  0  0  0  0  0  0  0
   60.2050   28.6920   46.2850 N   0  0  0  0  0  0  0  0  0  0  0  0
   59.9850   29.2830   47.4040 C   0  0  0  0  0  0  0  0  0  0  0  0
   59.4230   30.6770   49.6400 N   0  0  0  0  0  0  0  0  0  0  0  0
   60.0950   29.5200   49.7760 C   0  0  0  0  0  0  0  0  0  0  0  0
   60.3870   28.7990   48.6280 C   0  0  0  0  0  0  0  0  0  0  0  0
   61.0500   27.6420   48.6720 F   0  0  0  0  0  0  0  0  0  0  0  0
   59.0250   31.1560   48.4410 C   0  0  0  0  0  0  0  0  0  0  0  0
   58.3890   32.2550   48.3400 N   0  0  0  0  0  0  0  0  0  0  0  0
   59.4170   27.5540   45.9430 C   0  0  0  0  0  0  0  0  0  0  0  0
   59.7540   26.2710   46.3670 C   0  0  0  0  0  0  0  0  0  0  0  0
   58.9740   25.1860   46.0230 C   0  0  0  0  0  0  0  0  0  0  0  0
   57.8380   25.4020   45.2380 C   0  0  0  0  0  0  0  0  0  0  0  0
   57.5180   26.6800   44.8250 C   0  0  0  0  0  0  0  0  0  0  0  0
   58.2910   27.7870   45.1620 C   0  0  0  0  0  0  0  0  0  0  0  0
   57.8600   29.3870   44.6250 S   0  0  0  0  0  0  0  0  0  0  0  0
   57.0160   29.2660   43.1110 N   0  0  0  0  0  0  0  0  0  0  0  0
   59.0860   30.2330   44.3340 O   0  0  0  0  0  0  0  0  0  0  0  0
   57.0660   30.1150   45.6620 O   0  0  0  0  0  0  0  0  0  0  0  0
   59.3030   30.4630   47.3220 N   0  0  0  0  0  0  0  0  0  0  0  0
   62.8240   32.3650   51.5950 C   0  0  0  0  0  0  0  0  0  0  0  0
   63.6490   31.1290   51.2870 C   0  0  0  0  0  0  0  0  0  0  0  0
   67.9476   29.3222   53.6313 H   0  0  0  0  0  0  0  0  0  0  0  0
   69.1727   29.0970   52.3370 H   0  0  0  0  0  0  0  0  0  0  0  0
   68.1237   30.5552   52.3370 H   0  0  0  0  0  0  0  0  0  0  0  0
   66.7371   27.7313   53.5886 H   0  0  0  0  0  0  0  0  0  0  0  0
   65.6057   27.3298   52.2523 H   0  0  0  0  0  0  0  0  0  0  0  0
   67.2709   26.6560   52.2523 H   0  0  0  0  0  0  0  0  0  0  0  0
   68.5827   27.5557   50.6690 H   0  0  0  0  0  0  0  0  0  0  0  0
   66.9884   27.7121   49.8565 H   0  0  0  0  0  0  0  0  0  0  0  0
   68.1359   29.0941   49.8565 H   0  0  0  0  0  0  0  0  0  0  0  0
   65.6019   33.5557   50.8032 H   0  0  0  0  0  0  0  0  0  0  0  0
   65.6445   32.6765   49.1842 H   0  0  0  0  0  0  0  0  0  0  0  0
   63.9476   34.6318   49.8388 H   0  0  0  0  0  0  0  0  0  0  0  0
   63.6844   33.2821   48.6202 H   0  0  0  0  0  0  0  0  0  0  0  0
   60.5798   35.0668   48.7566 H   0  0  0  0  0  0  0  0  0  0  0  0
   62.2514   34.5564   48.3161 H   0  0  0  0  0  0  0  0  0  0  0  0
   60.5963   34.8559   45.3083 H   0  0  0  0  0  0  0  0  0  0  0  0
   58.5830   35.1856   43.9345 H   0  0  0  0  0  0  0  0  0  0  0  0
   56.4353   34.1323   44.6253 H   0  0  0  0  0  0  0  0  0  0  0  0
   56.3692   32.7771   46.6697 H   0  0  0  0  0  0  0  0  0  0  0  0
   59.2090   31.2090   50.5000 H   0  0  0  0  0  0  0  0  0  0  0  0
   60.4035   29.1568   50.7674 H   0  0  0  0  0  0  0  0  0  0  0  0
   60.6526   26.1208   46.9834 H   0  0  0  0  0  0  0  0  0  0  0  0
   59.2405   24.1731   46.3593 H   0  0  0  0  0  0  0  0  0  0  0  0
   57.1992   24.5543   44.9494 H   0  0  0  0  0  0  0  0  0  0  0  0
   56.6199   26.8285   44.2075 H   0  0  0  0  0  0  0  0  0  0  0  0
   56.6660   28.2760   42.9520 H   0  0  0  0  0  0  0  0  0  0  0  0
   57.6860   29.4220   42.3050 H   0  0  0  0  0  0  0  0  0  0  0  0
   58.9940   30.8410   46.4090 H   0  0  0  0  0  0  0  0  0  0  0  0
   63.3477   32.9841   52.3382 H   0  0  0  0  0  0  0  0  0  0  0  0
   61.8451   32.0711   52.0016 H   0  0  0  0  0  0  0  0  0  0  0  0
   63.8139   30.5427   52.2030 H   0  0  0  0  0  0  0  0  0  0  0  0
   63.1368   30.4749   50.5660 H   0  0  0  0  0  0  0  0  0  0  0  0
  1  2  1  0
  2  3  1  0
  2  4  1  0
  2  5  1  0
  5  6  1  0
  6  7  2  0
  6  8  1  0
  8  9  1  0
  9 10  1  0
 10 11  1  0
 11 12  1  0
 12 13  2  0
 12 14  1  0
 14 15  1  0
 15 16  1  0
 16 17  2  0
 17 18  1  0
 18 19  2  0
 19 20  1  0
 20 21  2  0
 21 22  1  0
 22 23  2  0
 23 24  1  0
 24 25  1  0
 25 26  2  0
 26 27  1  0
 26 28  1  0
 28 29  2  0
 29 30  1  0
 30 31  2  0
 31 32  1  0
 32 33  2  0
 33 34  1  0
 34 35  2  0
 35 36  1  0
 36 37  1  0
 36 38  2  0
 36 39  2  0
 28 40  1  0
 11 41  1  0
 41 42  1  0
 42  8  1  0
 21 16  1  0
 40 23  1  0
 35 30  1  0
  1 43  1  0
  1 44  1  0
  1 45  1  0
  3 46  1  0
  3 47  1  0
  3 48  1  0
  4 49  1  0
  4 50  1  0
  4 51  1  0
  9 52  1  0
  9 53  1  0
 10 54  1  0
 10 55  1  0
 14 56  1  0
 14 57  1  0
 17 58  1  0
 18 59  1  0
 19 60  1  0
 20 61  1  0
 24 62  1  0
 25 63  1  0
 31 64  1  0
 32 65  1  0
 33 66  1  0
 34 67  1  0
 37 68  1  0
 37 69  1  0
 40 70  1  0
 41 71  1  0
 41 72  1  0
 42 73  1  0
 42 74  1  0
M  END
>  <smiles>  (72) 
CC(C)(C)OC(=O)N1CCN(C(=O)COc2ccccc2N=c2[nH]cc(F)c(=Nc3ccccc3S(N)(=O)=O)[nH]2)CC1

>  <score_type>  (72) 
oracle

>  <origin>  (72) 
adg

>  <m_score__min__energy>  (72) 
-9.9000000000000004

>  <m_primary>  (72) 
energy

$$$$
72:0
     RDKit          3D

 46 48  0  0  0  0  0  0  0  0999 V2000
   63.4030   33.4760   46.7580 C   0  0  0  0  0  0  0  0  0  0  0  0
   62.2640   33.7820   47.7210 C   0  0  0  0  0  0  0  0  0  0  0  0
   61.1750   34.4010   47.0360 O   0  0  0  0  0  0  0  0  0  0  0  0
   60.0410   33.7400   46.5460 C   0  0  0  0  0  0  0  0  0  0  0  0
   59.3270   32.7870   47.2970 C   0  0  0  0  0  0  0  0  0  0  0  0
   58.1980   32.1680   46.7580 C   0  0  0  0  0  0  0  0  0  0  0  0
   57.7620   32.4880   45.4590 C   0  0  0  0  0  0  0  0  0  0  0  0
   56.6030   31.8860   44.8720 N   0  0  0  0  0  0  0  0  0  0  0  0
   56.6120   30.4860   43.8500 S   0  0  0  0  0  0  0  0  0  0  0  0
   56.9800   30.8940   42.4520 O   0  0  0  0  0  0  0  0  0  0  0  0
   55.2360   29.8800   43.8410 O   0  0  0  0  0  0  0  0  0  0  0  0
   57.7520   29.3060   44.4850 C   0  0  0  0  0  0  0  0  0  0  0  0
   59.0430   29.7150   44.8390 C   0  0  0  0  0  0  0  0  0  0  0  0
   59.9690   28.7860   45.3150 C   0  0  0  0  0  0  0  0  0  0  0  0
   59.6150   27.4380   45.4310 C   0  0  0  0  0  0  0  0  0  0  0  0
   58.3220   27.0080   45.0740 C   0  0  0  0  0  0  0  0  0  0  0  0
   57.9250   25.5860   45.1710 C   0  0  0  0  0  0  0  0  0  0  0  0
   57.7150   24.7020   44.1230 C   0  0  0  0  0  0  0  0  0  0  0  0
   57.3580   23.4960   44.7000 C   0  0  0  0  0  0  0  0  0  0  0  0
   57.0450   22.2430   43.9810 C   0  0  0  0  0  0  0  0  0  0  0  0
   57.8450   21.0740   44.1630 N   0  0  0  0  0  0  0  0  0  0  0  0
   56.0530   22.1910   43.2060 O   0  0  0  0  0  0  0  0  0  0  0  0
   57.3720   23.7290   46.0690 C   0  0  0  0  0  0  0  0  0  0  0  0
   57.0550   22.7960   47.1040 N   0  0  0  0  0  0  0  0  0  0  0  0
   57.7100   24.9720   46.3140 O   0  0  0  0  0  0  0  0  0  0  0  0
   57.3930   27.9560   44.6100 C   0  0  0  0  0  0  0  0  0  0  0  0
   58.4790   33.4250   44.7090 C   0  0  0  0  0  0  0  0  0  0  0  0
   59.6110   34.0450   45.2490 C   0  0  0  0  0  0  0  0  0  0  0  0
   64.3108   33.2321   47.3294 H   0  0  0  0  0  0  0  0  0  0  0  0
   63.1275   32.6200   46.1244 H   0  0  0  0  0  0  0  0  0  0  0  0
   63.5936   34.3548   46.1244 H   0  0  0  0  0  0  0  0  0  0  0  0
   61.9162   32.8440   48.1783 H   0  0  0  0  0  0  0  0  0  0  0  0
   62.6318   34.4714   48.4953 H   0  0  0  0  0  0  0  0  0  0  0  0
   59.6603   32.5291   48.3131 H   0  0  0  0  0  0  0  0  0  0  0  0
   57.6457   31.4254   47.3525 H   0  0  0  0  0  0  0  0  0  0  0  0
   59.3287   30.7728   44.7416 H   0  0  0  0  0  0  0  0  0  0  0  0
   60.9795   29.1146   45.5996 H   0  0  0  0  0  0  0  0  0  0  0  0
   60.3504   26.7095   45.8031 H   0  0  0  0  0  0  0  0  0  0  0  0
   57.8127   24.9166   43.0486 H   0  0  0  0  0  0  0  0  0  0  0  0
   58.7140   21.0820   44.7380 H   0  0  0  0  0  0  0  0  0  0  0  0
   57.5830   20.1860   43.6780 H   0  0  0  0  0  0  0  0  0  0  0  0
   56.9840   23.1300   48.0930 H   0  0  0  0  0  0  0  0  0  0  0  0
   56.8410   21.7960   46.9060 H   0  0  0  0  0  0  0  0  0  0  0  0
   56.3752   27.6358   44.3426 H   0  0  0  0  0  0  0  0  0  0  0  0
   58.1515   33.6760   43.6893 H   0  0  0  0  0  0  0  0  0  0  0  0
   60.1685   34.7791   44.6488 H   0  0  0  0  0  0  0  0  0  0  0  0
  1  2  1  0
  2  3  1  0
  3  4  1  0
  4  5  2  0
  5  6  1  0
  6  7  2  0
  7  8  1  0
  8  9  1  0
  9 10  2  0
  9 11  2  0
  9 12  1  0
 12 13  2  0
 13 14  1  0
 14 15  2  0
 15 16  1  0
 16 17  1  0
 17 18  2  0
 18 19  1  0
 19 20  1  0
 20 21  1  0
 20 22  2  0
 19 23  2  0
 23 24  1  0
 23 25  1  0
 16 26  2  0
  7 27  1  0
 27 28  2  0
 28  4  1  0
 26 12  1  0
 25 17  1  0
  1 29  1  0
  1 30  1  0
  1 31  1  0
  2 32  1  0
  2 33  1  0
  5 34  1  0
  6 35  1  0
 13 36  1  0
 14 37  1  0
 15 38  1  0
 18 39  1  0
 21 40  1  0
 21 41  1  0
 24 42  1  0
 24 43  1  0
 26 44  1  0
 27 45  1  0
 28 46  1  0
M  CHG  1   8  -1
M  END
>  <UniqueID>  (73) 
65

>  <SMILES>  (73) 
CCOc1ccc([N-]S(=O)(=O)c2cccc(-c3cc(C(N)=O)c(N)o3)c2)cc1

>  <Energy>  (73) 
76.96441871958552

>  <Genealogy>  (73) 
CCOc1ccc([N-]S(=O)(=O)c2cccc(-c3cc(C(N)=O)c(N)o3)c2)cc1 (protonated)
CCOc1ccc([N-]S(=O)(=O)c2cccc(-c3cc(C(N)=O)c(N)o3)c2)cc1 (3D coordinates assigned)
CCOc1ccc([N-]S(=O)(=O)c2cccc(-c3cc(C(N)=O)c(N)o3)c2)cc1 (optimized conformer: 76.96441871958552 kcal/mol)

>  <smiles>  (73) 
CCOc1ccc(NS(=O)(=O)c2cccc(-c3cc(C(N)=O)c(N)o3)c2)cc1

>  <score_type>  (73) 
oracle

>  <origin>  (73) 
adg

>  <m_score__min__energy>  (73) 
-11.32

>  <m_primary>  (73) 
energy

$$$$
73:0
     RDKit          3D

 45 49  0  0  0  0  0  0  0  0999 V2000
   57.2387   28.2787   45.4556 H   0  0  0  0  0  0  0  0  0  0  0  0
   57.7380   27.7060   46.2510 C   0  0  0  0  0  0  0  0  0  0  0  0
   57.1850   26.3870   46.6060 C   0  0  0  0  0  0  0  0  0  0  0  0
   57.9450   25.3540   47.0090 N   0  0  0  0  0  0  0  0  0  0  0  0
   57.0580   24.3460   47.1470 C   0  0  0  0  0  0  0  0  0  0  0  0
   57.3940   23.1950   47.5290 O   0  0  0  0  0  0  0  0  0  0  0  0
   55.7840   24.6640   46.8330 N   0  0  0  0  0  0  0  0  0  0  0  0
   55.8820   25.9570   46.4820 C   0  0  0  0  0  0  0  0  0  0  0  0
   54.8120   26.7050   46.0080 O   0  0  0  0  0  0  0  0  0  0  0  0
   58.8130   28.2500   46.8390 C   0  0  0  0  0  0  0  0  0  0  0  0
   60.0150   27.6480   47.2170 C   0  0  0  0  0  0  0  0  0  0  0  0
   60.2493   26.5788   47.1082 H   0  0  0  0  0  0  0  0  0  0  0  0
   60.8490   28.5800   47.7380 N   0  0  0  0  0  0  0  0  0  0  0  0
   60.2140   29.7420   47.6960 N   0  0  0  0  0  0  0  0  0  0  0  0
   60.6430   30.9710   48.1020 C   0  0  0  0  0  0  0  0  0  0  0  0
   61.8140   31.1810   48.6320 N   0  0  0  0  0  0  0  0  0  0  0  0
   63.0110   31.6430   47.9380 C   0  0  0  0  0  0  0  0  0  0  0  0
   63.4386   30.6567   47.7047 H   0  0  0  0  0  0  0  0  0  0  0  0
   62.7780   32.9360   47.1790 C   0  0  0  0  0  0  0  0  0  0  0  0
   63.2881   33.1107   46.2202 H   0  0  0  0  0  0  0  0  0  0  0  0
   61.8919   33.4696   46.8046 H   0  0  0  0  0  0  0  0  0  0  0  0
   63.5720   32.9470   48.4760 C   0  0  0  0  0  0  0  0  0  0  0  0
   64.6566   33.1294   48.4557 H   0  0  0  0  0  0  0  0  0  0  0  0
   63.4987   33.4915   49.4289 H   0  0  0  0  0  0  0  0  0  0  0  0
   59.7930   32.0230   47.9430 N   0  0  0  0  0  0  0  0  0  0  0  0
   58.5510   31.8520   47.3880 C   0  0  0  0  0  0  0  0  0  0  0  0
   57.7480   32.8620   47.2320 N   0  0  0  0  0  0  0  0  0  0  0  0
   57.6460   33.6680   46.0160 C   0  0  0  0  0  0  0  0  0  0  0  0
   58.5679   34.2552   45.8921 H   0  0  0  0  0  0  0  0  0  0  0  0
   56.7790   34.3391   46.1048 H   0  0  0  0  0  0  0  0  0  0  0  0
   57.4570   32.7850   44.8160 C   0  0  0  0  0  0  0  0  0  0  0  0
   56.6370   31.7020   44.9050 N   0  0  0  0  0  0  0  0  0  0  0  0
   56.4420   30.8540   43.8580 C   0  0  0  0  0  0  0  0  0  0  0  0
   55.5400   29.6720   44.0140 C   0  0  0  0  0  0  0  0  0  0  0  0
   55.3844   29.4681   45.0837 H   0  0  0  0  0  0  0  0  0  0  0  0
   54.5720   29.8839   43.5365 H   0  0  0  0  0  0  0  0  0  0  0  0
   55.9999   28.7942   43.5365 H   0  0  0  0  0  0  0  0  0  0  0  0
   57.1080   31.0820   42.6470 C   0  0  0  0  0  0  0  0  0  0  0  0
   56.9626   30.4003   41.7961 H   0  0  0  0  0  0  0  0  0  0  0  0
   57.9580   32.1830   42.5310 C   0  0  0  0  0  0  0  0  0  0  0  0
   58.4863   32.3734   41.5851 H   0  0  0  0  0  0  0  0  0  0  0  0
   58.1370   33.0420   43.6160 C   0  0  0  0  0  0  0  0  0  0  0  0
   58.8047   33.9121   43.5313 H   0  0  0  0  0  0  0  0  0  0  0  0
   58.1490   30.6130   46.9910 N   0  0  0  0  0  0  0  0  0  0  0  0
   59.0020   29.5760   47.1590 C   0  0  0  0  0  0  0  0  0  0  0  0
  1  2  1  0
  2  3  1  0
  3  4  1  0
  4  5  1  0
  5  6  2  0
  5  7  1  0
  7  8  1  0
  8  9  1  0
  2 10  2  0
 10 11  1  0
 11 12  1  0
 11 13  2  0
 13 14  1  0
 14 15  1  0
 15 16  2  3
 16 17  1  0
 17 18  1  0
 17 19  1  0
 19 20  1  0
 19 21  1  0
 19 22  1  0
 22 23  1  0
 22 24  1  0
 15 25  1  0
 25 26  1  0
 26 27  2  3
 27 28  1  0
 28 29  1  0
 28 30  1  0
 28 31  1  0
 31 32  2  0
 32 33  1  0
 33 34  1  0
 34 35  1  0
 34 36  1  0
 34 37  1  0
 33 38  2  0
 38 39  1  0
 38 40  1  0
 40 41  1  0
 40 42  2  0
 42 43  1  0
 26 44  1  0
 44 45  2  0
  8  3  2  0
 45 10  1  0
 45 14  1  0
 22 17  1  0
 42 31  1  0
M  CHG  4   4  -1   7  -1   9  -1  25  -1
M  END
>  <UniqueID>  (74) 
66

>  <SMILES>  (74) 
Cc1cccc(CN=c2nc3/c(=C/c4[n-]c(=O)[n-]c4[O-])cnn3c(=NC3CC3)[n-]2)n1

>  <Energy>  (74) 
389.1352145739891

>  <Genealogy>  (74) 
Cc1cccc(CN=c2nc3c(=Cc4[n-]c(=O)[n-]c4[O-])cnn3c(=NC3CC3)[n-]2)n1 (protonated)
Cc1cccc(CN=c2nc3/c(=C/c4[n-]c(=O)[n-]c4[O-])cnn3c(=NC3CC3)[n-]2)n1 (cis-trans isomerization)
Cc1cccc(CN=c2nc3/c(=C/c4[n-]c(=O)[n-]c4[O-])cnn3c(=NC3CC3)[n-]2)n1 (3D coordinates assigned)
Cc1cccc(CN=c2nc3/c(=C/c4[n-]c(=O)[n-]c4[O-])cnn3c(=NC3CC3)[n-]2)n1 (nonaromatic ring conformer: 389.1352145739891 kcal/mol)

>  <smiles>  (74) 
Cc1cccc(CN=c2nc3c(=Cc4[nH]c(=O)[nH]c4O)cnn3c(=NC3CC3)[nH]2)n1

>  <score_type>  (74) 
oracle

>  <origin>  (74) 
adg

>  <m_score__min__energy>  (74) 
-18.199999999999999

>  <m_primary>  (74) 
energy

$$$$
74:0
     RDKit          3D

 47 49  0  0  0  0  0  0  0  0999 V2000
   57.4040   28.5760   46.3750 N   0  0  0  0  0  0  0  0  0  0  0  0
   57.5140   27.6830   45.2540 C   0  0  0  0  0  0  0  0  0  0  0  0
   57.3420   26.2920   45.4290 C   0  0  0  0  0  0  0  0  0  0  0  0
   56.9570   25.5910   46.9960 Cl  0  0  0  0  0  0  0  0  0  0  0  0
   57.4780   25.4260   44.3390 C   0  0  0  0  0  0  0  0  0  0  0  0
   57.7760   25.9270   43.0730 C   0  0  0  0  0  0  0  0  0  0  0  0
   57.9410   27.2980   42.8850 C   0  0  0  0  0  0  0  0  0  0  0  0
   57.8220   28.1860   43.9670 C   0  0  0  0  0  0  0  0  0  0  0  0
   57.9280   29.6010   43.7400 N   0  0  0  0  0  0  0  0  0  0  0  0
   56.8860   30.5300   44.0900 C   0  0  0  0  0  0  0  0  0  0  0  0
   55.8240   30.1170   44.6230 O   0  0  0  0  0  0  0  0  0  0  0  0
   57.0210   31.9320   43.8310 N   0  0  0  0  0  0  0  0  0  0  0  0
   57.7740   33.0620   44.9080 S   0  0  0  0  0  0  0  0  0  0  0  0
   56.7760   34.1210   45.2860 O   0  0  0  0  0  0  0  0  0  0  0  0
   58.9360   33.7090   44.2080 O   0  0  0  0  0  0  0  0  0  0  0  0
   58.3680   32.2210   46.3360 C   0  0  0  0  0  0  0  0  0  0  0  0
   59.1660   31.0780   46.2100 C   0  0  0  0  0  0  0  0  0  0  0  0
   59.6450   30.4260   47.3500 C   0  0  0  0  0  0  0  0  0  0  0  0
   59.3360   30.9080   48.6320 C   0  0  0  0  0  0  0  0  0  0  0  0
   59.8480   30.2140   49.7840 N   0  0  0  0  0  0  0  0  0  0  0  0
   59.0680   30.2010   51.3350 S   0  0  0  0  0  0  0  0  0  0  0  0
   59.7610   29.2160   52.2340 O   0  0  0  0  0  0  0  0  0  0  0  0
   57.6370   29.7740   51.1640 O   0  0  0  0  0  0  0  0  0  0  0  0
   59.1670   31.8010   52.0650 C   0  0  0  0  0  0  0  0  0  0  0  0
   60.3450   32.1920   52.7180 C   0  0  0  0  0  0  0  0  0  0  0  0
   60.4340   33.4580   53.3030 C   0  0  0  0  0  0  0  0  0  0  0  0
   59.3550   34.3420   53.2300 C   0  0  0  0  0  0  0  0  0  0  0  0
   58.1790   33.9570   52.5800 C   0  0  0  0  0  0  0  0  0  0  0  0
   58.0820   32.6880   52.0010 C   0  0  0  0  0  0  0  0  0  0  0  0
   58.5250   32.0530   48.7500 C   0  0  0  0  0  0  0  0  0  0  0  0
   58.0450   32.7020   47.6090 C   0  0  0  0  0  0  0  0  0  0  0  0
   57.9530   28.4240   47.2490 H   0  0  0  0  0  0  0  0  0  0  0  0
   56.7390   29.3790   46.3760 H   0  0  0  0  0  0  0  0  0  0  0  0
   57.3490   24.3430   44.4819 H   0  0  0  0  0  0  0  0  0  0  0  0
   57.8811   25.2393   42.2210 H   0  0  0  0  0  0  0  0  0  0  0  0
   58.1662   27.6879   41.8814 H   0  0  0  0  0  0  0  0  0  0  0  0
   58.7960   29.9480   43.2810 H   0  0  0  0  0  0  0  0  0  0  0  0
   59.4169   30.6917   45.2111 H   0  0  0  0  0  0  0  0  0  0  0  0
   60.2697   29.5271   47.2417 H   0  0  0  0  0  0  0  0  0  0  0  0
   60.7690   29.7230   49.7130 H   0  0  0  0  0  0  0  0  0  0  0  0
   61.1997   31.5015   52.7697 H   0  0  0  0  0  0  0  0  0  0  0  0
   61.3559   33.7590   53.8222 H   0  0  0  0  0  0  0  0  0  0  0  0
   59.4307   35.3411   53.6840 H   0  0  0  0  0  0  0  0  0  0  0  0
   57.3290   34.6530   52.5239 H   0  0  0  0  0  0  0  0  0  0  0  0
   57.1537   32.3848   51.4947 H   0  0  0  0  0  0  0  0  0  0  0  0
   58.2674   32.4394   49.7472 H   0  0  0  0  0  0  0  0  0  0  0  0
   57.4106   33.5947   47.7126 H   0  0  0  0  0  0  0  0  0  0  0  0
  1  2  1  0
  2  3  2  0
  3  4  1  0
  3  5  1  0
  5  6  2  0
  6  7  1  0
  7  8  2  0
  8  9  1  0
  9 10  1  0
 10 11  2  0
 10 12  1  0
 12 13  1  0
 13 14  2  0
 13 15  2  0
 13 16  1  0
 16 17  2  0
 17 18  1  0
 18 19  2  0
 19 20  1  0
 20 21  1  0
 21 22  2  0
 21 23  2  0
 21 24  1  0
 24 25  2  0
 25 26  1  0
 26 27  2  0
 27 28  1  0
 28 29  2  0
 19 30  1  0
 30 31  2  0
  8  2  1  0
 31 16  1  0
 29 24  1  0
  1 32  1  0
  1 33  1  0
  5 34  1  0
  6 35  1  0
  7 36  1  0
  9 37  1  0
 17 38  1  0
 18 39  1  0
 20 40  1  0
 25 41  1  0
 26 42  1  0
 27 43  1  0
 28 44  1  0
 29 45  1  0
 30 46  1  0
 31 47  1  0
M  CHG  1  12  -1
M  END
>  <UniqueID>  (75) 
67

>  <SMILES>  (75) 
Nc1c(Cl)cccc1NC(=O)[N-]S(=O)(=O)c1ccc(NS(=O)(=O)c2ccccc2)cc1

>  <Energy>  (75) 
57.31084128501733

>  <Genealogy>  (75) 
Nc1c(Cl)cccc1NC(=O)[N-]S(=O)(=O)c1ccc(NS(=O)(=O)c2ccccc2)cc1 (protonated)
Nc1c(Cl)cccc1NC(=O)[N-]S(=O)(=O)c1ccc(NS(=O)(=O)c2ccccc2)cc1 (3D coordinates assigned)
Nc1c(Cl)cccc1NC(=O)[N-]S(=O)(=O)c1ccc(NS(=O)(=O)c2ccccc2)cc1 (optimized conformer: 57.31084128501733 kcal/mol)

>  <smiles>  (75) 
Nc1c(Cl)cccc1NC(=O)NS(=O)(=O)c1ccc(NS(=O)(=O)c2ccccc2)cc1

>  <score_type>  (75) 
oracle

>  <origin>  (75) 
adg

>  <m_score__min__energy>  (75) 
-10.74

>  <m_primary>  (75) 
energy

$$$$
75:0
     RDKit          3D

 53 56  0  0  0  0  0  0  0  0999 V2000
   57.3720   33.0670   47.7650 C   0  0  0  0  0  0  0  0  0  0  0  0
   57.9990   33.4890   46.4620 C   0  0  0  0  0  0  0  0  0  0  0  0
   59.0000   34.4720   46.4890 C   0  0  0  0  0  0  0  0  0  0  0  0
   59.6760   34.8250   45.3220 C   0  0  0  0  0  0  0  0  0  0  0  0
   59.3450   34.2210   44.1110 C   0  0  0  0  0  0  0  0  0  0  0  0
   58.3090   33.2800   44.0450 C   0  0  0  0  0  0  0  0  0  0  0  0
   57.9610   32.6450   42.7260 C   0  0  0  0  0  0  0  0  0  0  0  0
   57.6240   32.9140   45.2240 C   0  0  0  0  0  0  0  0  0  0  0  0
   56.6410   31.8720   45.1620 N   0  0  0  0  0  0  0  0  0  0  0  0
   56.9100   30.5040   44.8450 C   0  0  0  0  0  0  0  0  0  0  0  0
   55.9510   29.6880   44.8250 O   0  0  0  0  0  0  0  0  0  0  0  0
   58.3070   30.0040   44.5640 C   0  0  0  0  0  0  0  0  0  0  0  0
   58.9550   29.4510   45.7810 N   0  0  0  0  0  0  0  0  0  0  0  0
   59.8650   30.2250   46.4710 C   0  0  0  0  0  0  0  0  0  0  0  0
   60.1040   31.4080   46.0910 O   0  0  0  0  0  0  0  0  0  0  0  0
   60.5360   29.7300   47.5620 N   0  0  0  0  0  0  0  0  0  0  0  0
   61.6140   30.5300   48.1840 C   0  0  0  0  0  0  0  0  0  0  0  0
   61.0820   31.7880   48.8210 C   0  0  0  0  0  0  0  0  0  0  0  0
   61.6090   33.0430   48.4710 C   0  0  0  0  0  0  0  0  0  0  0  0
   61.0480   34.2150   48.9880 C   0  0  0  0  0  0  0  0  0  0  0  0
   59.9550   34.1450   49.8560 C   0  0  0  0  0  0  0  0  0  0  0  0
   59.4300   32.9020   50.2170 C   0  0  0  0  0  0  0  0  0  0  0  0
   59.9920   31.7270   49.7070 C   0  0  0  0  0  0  0  0  0  0  0  0
   60.2470   28.4810   48.0390 C   0  0  0  0  0  0  0  0  0  0  0  0
   60.8340   28.0410   49.0690 O   0  0  0  0  0  0  0  0  0  0  0  0
   59.3200   27.6700   47.3770 C   0  0  0  0  0  0  0  0  0  0  0  0
   59.0290   26.3710   47.8440 C   0  0  0  0  0  0  0  0  0  0  0  0
   58.1530   25.5490   47.1420 C   0  0  0  0  0  0  0  0  0  0  0  0
   57.5680   26.0000   45.9630 C   0  0  0  0  0  0  0  0  0  0  0  0
   57.8410   27.2850   45.4910 C   0  0  0  0  0  0  0  0  0  0  0  0
   58.7010   28.1590   46.2020 C   0  0  0  0  0  0  0  0  0  0  0  0
   57.9636   33.4652   48.6025 H   0  0  0  0  0  0  0  0  0  0  0  0
   56.3458   33.4589   47.8220 H   0  0  0  0  0  0  0  0  0  0  0  0
   57.3487   31.9687   47.8220 H   0  0  0  0  0  0  0  0  0  0  0  0
   59.2531   34.9676   47.4378 H   0  0  0  0  0  0  0  0  0  0  0  0
   60.4729   35.5825   45.3574 H   0  0  0  0  0  0  0  0  0  0  0  0
   59.9014   34.4849   43.1995 H   0  0  0  0  0  0  0  0  0  0  0  0
   57.4393   31.6930   42.9037 H   0  0  0  0  0  0  0  0  0  0  0  0
   57.3070   33.3205   42.1550 H   0  0  0  0  0  0  0  0  0  0  0  0
   58.8823   32.4572   42.1550 H   0  0  0  0  0  0  0  0  0  0  0  0
   58.2547   29.2147   43.7996 H   0  0  0  0  0  0  0  0  0  0  0  0
   58.9093   30.8559   44.2155 H   0  0  0  0  0  0  0  0  0  0  0  0
   62.1084   29.9219   48.9558 H   0  0  0  0  0  0  0  0  0  0  0  0
   62.3229   30.8203   47.3946 H   0  0  0  0  0  0  0  0  0  0  0  0
   62.4678   33.1037   47.7864 H   0  0  0  0  0  0  0  0  0  0  0  0
   61.4676   35.1934   48.7111 H   0  0  0  0  0  0  0  0  0  0  0  0
   59.5085   35.0679   50.2546 H   0  0  0  0  0  0  0  0  0  0  0  0
   58.5726   32.8470   50.9039 H   0  0  0  0  0  0  0  0  0  0  0  0
   59.5792   30.7506   50.0005 H   0  0  0  0  0  0  0  0  0  0  0  0
   59.4979   26.0055   48.7695 H   0  0  0  0  0  0  0  0  0  0  0  0
   57.9228   24.5418   47.5195 H   0  0  0  0  0  0  0  0  0  0  0  0
   56.8885   25.3422   45.4013 H   0  0  0  0  0  0  0  0  0  0  0  0
   57.3810   27.6250   44.5515 H   0  0  0  0  0  0  0  0  0  0  0  0
  1  2  1  0
  2  3  2  0
  3  4  1  0
  4  5  2  0
  5  6  1  0
  6  7  1  0
  6  8  2  0
  8  9  1  0
  9 10  1  0
 10 11  2  0
 10 12  1  0
 12 13  1  0
 13 14  1  0
 14 15  2  0
 14 16  1  0
 16 17  1  0
 17 18  1  0
 18 19  2  0
 19 20  1  0
 20 21  2  0
 21 22  1  0
 22 23  2  0
 16 24  1  0
 24 25  2  0
 24 26  1  0
 26 27  2  0
 27 28  1  0
 28 29  2  0
 29 30  1  0
 30 31  2  0
  8  2  1  0
 31 13  1  0
 23 18  1  0
 31 26  1  0
  1 32  1  0
  1 33  1  0
  1 34  1  0
  3 35  1  0
  4 36  1  0
  5 37  1  0
  7 38  1  0
  7 39  1  0
  7 40  1  0
 12 41  1  0
 12 42  1  0
 17 43  1  0
 17 44  1  0
 19 45  1  0
 20 46  1  0
 21 47  1  0
 22 48  1  0
 23 49  1  0
 27 50  1  0
 28 51  1  0
 29 52  1  0
 30 53  1  0
M  CHG  1   9  -1
M  END
>  <UniqueID>  (76) 
68

>  <SMILES>  (76) 
Cc1cccc(C)c1[N-]C(=O)Cn1c(=O)n(Cc2ccccc2)c(=O)c2ccccc21

>  <Energy>  (76) 
75.60904475684889

>  <Genealogy>  (76) 
Cc1cccc(C)c1[N-]C(=O)Cn1c(=O)n(Cc2ccccc2)c(=O)c2ccccc21 (protonated)
Cc1cccc(C)c1[N-]C(=O)Cn1c(=O)n(Cc2ccccc2)c(=O)c2ccccc21 (3D coordinates assigned)
Cc1cccc(C)c1[N-]C(=O)Cn1c(=O)n(Cc2ccccc2)c(=O)c2ccccc21 (optimized conformer: 75.60904475684889 kcal/mol)

>  <smiles>  (76) 
Cc1cccc(C)c1NC(=O)Cn1c(=O)n(Cc2ccccc2)c(=O)c2ccccc21

>  <score_type>  (76) 
oracle

>  <origin>  (76) 
adg

>  <m_score__min__energy>  (76) 
-10.26

>  <m_primary>  (76) 
energy

$$$$
76:0
     RDKit          3D

 60 63  0  0  0  0  0  0  0  0999 V2000
   57.9040   32.1430   43.6180 C   0  0  0  0  0  0  0  0  0  0  0  0
   57.3890   31.9790   45.0450 C   0  0  0  0  0  0  0  0  0  0  0  0
   57.8460   33.1040   45.9900 C   0  0  0  0  0  0  0  0  0  0  0  0
   59.3120   33.5160   45.7960 C   0  0  0  0  0  0  0  0  0  0  0  0
   60.0460   33.6670   47.1010 C   0  0  0  0  0  0  0  0  0  0  0  0
   59.9240   34.7620   47.8770 N   0  0  0  0  0  0  0  0  0  0  0  0
   60.7340   34.6040   48.9090 N   0  0  0  0  0  0  0  0  0  0  0  0
   61.3410   33.4140   48.7520 C   0  0  0  0  0  0  0  0  0  0  0  0
   62.5600   32.7870   49.9090 S   0  0  0  0  0  0  0  0  0  0  0  0
   61.6030   33.2450   51.3970 C   0  0  0  0  0  0  0  0  0  0  0  0
   60.2560   32.5790   51.3890 C   0  0  0  0  0  0  0  0  0  0  0  0
   60.1480   31.2000   51.1440 C   0  0  0  0  0  0  0  0  0  0  0  0
   58.8950   30.5850   51.1340 C   0  0  0  0  0  0  0  0  0  0  0  0
   57.7420   31.3390   51.3740 C   0  0  0  0  0  0  0  0  0  0  0  0
   56.5270   30.7420   51.3620 F   0  0  0  0  0  0  0  0  0  0  0  0
   57.8430   32.7100   51.6210 C   0  0  0  0  0  0  0  0  0  0  0  0
   59.0930   33.3290   51.6300 C   0  0  0  0  0  0  0  0  0  0  0  0
   60.9460   32.7960   47.6160 N   0  0  0  0  0  0  0  0  0  0  0  0
   61.4780   31.5560   47.0330 C   0  0  0  0  0  0  0  0  0  0  0  0
   60.3970   30.5180   46.8560 C   0  0  0  0  0  0  0  0  0  0  0  0
   59.4550   30.2850   47.8700 C   0  0  0  0  0  0  0  0  0  0  0  0
   58.4720   29.3040   47.7160 C   0  0  0  0  0  0  0  0  0  0  0  0
   58.3990   28.5530   46.5320 C   0  0  0  0  0  0  0  0  0  0  0  0
   57.4150   27.5180   46.3610 N   0  0  0  0  0  0  0  0  0  0  0  0
   57.6760   26.1250   46.5910 C   0  0  0  0  0  0  0  0  0  0  0  0
   58.7060   25.7780   47.2300 O   0  0  0  0  0  0  0  0  0  0  0  0
   56.7150   25.1070   46.1120 C   0  0  0  0  0  0  0  0  0  0  0  0
   57.1520   23.8300   45.9370 N   0  0  0  0  0  0  0  0  0  0  0  0
   56.3320   22.8250   45.5200 C   0  0  0  0  0  0  0  0  0  0  0  0
   54.9920   23.0950   45.2420 C   0  0  0  0  0  0  0  0  0  0  0  0
   54.5070   24.3940   45.4030 C   0  0  0  0  0  0  0  0  0  0  0  0
   53.2980   24.6490   45.1500 O   0  0  0  0  0  0  0  0  0  0  0  0
   55.3640   25.4100   45.8410 C   0  0  0  0  0  0  0  0  0  0  0  0
   54.8710   26.7000   45.9950 O   0  0  0  0  0  0  0  0  0  0  0  0
   59.3380   28.7870   45.5180 C   0  0  0  0  0  0  0  0  0  0  0  0
   60.3170   29.7720   45.6720 C   0  0  0  0  0  0  0  0  0  0  0  0
   58.9519   32.4767   43.6424 H   0  0  0  0  0  0  0  0  0  0  0  0
   57.8382   31.1795   43.0914 H   0  0  0  0  0  0  0  0  0  0  0  0
   57.2932   32.8911   43.0914 H   0  0  0  0  0  0  0  0  0  0  0  0
   56.2893   31.9689   45.0203 H   0  0  0  0  0  0  0  0  0  0  0  0
   57.8035   31.0376   45.4348 H   0  0  0  0  0  0  0  0  0  0  0  0
   57.2115   33.9850   45.8134 H   0  0  0  0  0  0  0  0  0  0  0  0
   57.7536   32.7189   47.0162 H   0  0  0  0  0  0  0  0  0  0  0  0
   59.8178   32.7469   45.1938 H   0  0  0  0  0  0  0  0  0  0  0  0
   59.3204   34.4941   45.2928 H   0  0  0  0  0  0  0  0  0  0  0  0
   62.1565   32.9291   52.2935 H   0  0  0  0  0  0  0  0  0  0  0  0
   61.4580   34.3354   51.4020 H   0  0  0  0  0  0  0  0  0  0  0  0
   61.0534   30.6032   50.9595 H   0  0  0  0  0  0  0  0  0  0  0  0
   58.8144   29.5058   50.9371 H   0  0  0  0  0  0  0  0  0  0  0  0
   56.9354   33.3025   51.8087 H   0  0  0  0  0  0  0  0  0  0  0  0
   59.1683   34.4087   51.8266 H   0  0  0  0  0  0  0  0  0  0  0  0
   61.9190   31.7834   46.0512 H   0  0  0  0  0  0  0  0  0  0  0  0
   62.2360   31.1503   47.7192 H   0  0  0  0  0  0  0  0  0  0  0  0
   59.4909   30.8801   48.7944 H   0  0  0  0  0  0  0  0  0  0  0  0
   57.7517   29.1192   48.5265 H   0  0  0  0  0  0  0  0  0  0  0  0
   56.4360   27.8080   46.1440 H   0  0  0  0  0  0  0  0  0  0  0  0
   56.7252   21.8044   45.4030 H   0  0  0  0  0  0  0  0  0  0  0  0
   54.3235   22.2916   44.8990 H   0  0  0  0  0  0  0  0  0  0  0  0
   59.3039   28.1908   44.5942 H   0  0  0  0  0  0  0  0  0  0  0  0
   61.0309   29.9636   44.8573 H   0  0  0  0  0  0  0  0  0  0  0  0
  1  2  1  0
  2  3  1  0
  3  4  1  0
  4  5  1  0
  5  6  2  0
  6  7  1  0
  7  8  2  0
  8  9  1  0
  9 10  1  0
 10 11  1  0
 11 12  2  0
 12 13  1  0
 13 14  2  0
 14 15  1  0
 14 16  1  0
 16 17  2  0
  8 18  1  0
 18 19  1  0
 19 20  1  0
 20 21  2  0
 21 22  1  0
 22 23  2  0
 23 24  1  0
 24 25  1  0
 25 26  2  0
 25 27  1  0
 27 28  1  0
 28 29  1  0
 29 30  2  0
 30 31  1  0
 31 32  2  0
 31 33  1  0
 33 34  1  0
 23 35  1  0
 35 36  2  0
 18  5  1  0
 36 20  1  0
 17 11  1  0
 33 27  2  0
  1 37  1  0
  1 38  1  0
  1 39  1  0
  2 40  1  0
  2 41  1  0
  3 42  1  0
  3 43  1  0
  4 44  1  0
  4 45  1  0
 10 46  1  0
 10 47  1  0
 12 48  1  0
 13 49  1  0
 16 50  1  0
 17 51  1  0
 19 52  1  0
 19 53  1  0
 21 54  1  0
 22 55  1  0
 24 56  1  0
 29 57  1  0
 30 58  1  0
 35 59  1  0
 36 60  1  0
M  CHG  2  28  -1  34  -1
M  END
>  <UniqueID>  (77) 
69

>  <SMILES>  (77) 
CCCCc1nnc(SCc2ccc(F)cc2)n1Cc1ccc(NC(=O)c2[n-]ccc(=O)c2[O-])cc1

>  <Energy>  (77) 
94.12190670642596

>  <Genealogy>  (77) 
CCCCc1nnc(SCc2ccc(F)cc2)n1Cc1ccc(NC(=O)c2[n-]ccc(=O)c2[O-])cc1 (protonated)
CCCCc1nnc(SCc2ccc(F)cc2)n1Cc1ccc(NC(=O)c2[n-]ccc(=O)c2[O-])cc1 (3D coordinates assigned)
CCCCc1nnc(SCc2ccc(F)cc2)n1Cc1ccc(NC(=O)c2[n-]ccc(=O)c2[O-])cc1 (optimized conformer: 94.12190670642596 kcal/mol)

>  <smiles>  (77) 
CCCCc1nnc(SCc2ccc(F)cc2)n1Cc1ccc(NC(=O)c2[nH]ccc(=O)c2O)cc1

>  <score_type>  (77) 
oracle

>  <origin>  (77) 
adg

>  <m_score__min__energy>  (77) 
-14.470000000000001

>  <m_primary>  (77) 
energy

$$$$
77:0
     RDKit          3D

 39 41  0  0  0  0  0  0  0  0999 V2000
   59.6610   33.9670   50.7600 N   0  0  0  0  0  0  0  0  0  0  0  0
   60.5350   33.8440   50.0110 C   0  0  0  0  0  0  0  0  0  0  0  0
   61.6240   33.6930   49.0790 C   0  0  0  0  0  0  0  0  0  0  0  0
   62.8480   33.1870   49.5420 C   0  0  0  0  0  0  0  0  0  0  0  0
   63.9190   33.0170   48.6600 C   0  0  0  0  0  0  0  0  0  0  0  0
   63.7770   33.3570   47.3140 C   0  0  0  0  0  0  0  0  0  0  0  0
   62.5620   33.8620   46.8440 C   0  0  0  0  0  0  0  0  0  0  0  0
   61.4690   34.0210   47.7150 C   0  0  0  0  0  0  0  0  0  0  0  0
   60.2290   34.5720   47.2330 N   0  0  0  0  0  0  0  0  0  0  0  0
   59.3120   33.8670   46.3770 C   0  0  0  0  0  0  0  0  0  0  0  0
   58.5480   34.5440   45.4110 C   0  0  0  0  0  0  0  0  0  0  0  0
   57.6700   33.8380   44.5860 C   0  0  0  0  0  0  0  0  0  0  0  0
   57.5610   32.4500   44.7020 C   0  0  0  0  0  0  0  0  0  0  0  0
   58.3460   31.7520   45.6290 C   0  0  0  0  0  0  0  0  0  0  0  0
   58.2080   30.3240   45.7390 N   0  0  0  0  0  0  0  0  0  0  0  0
   57.1270   29.5800   45.1520 C   0  0  0  0  0  0  0  0  0  0  0  0
   56.0450   30.1650   44.8710 O   0  0  0  0  0  0  0  0  0  0  0  0
   57.2490   28.1210   44.9170 C   0  0  0  0  0  0  0  0  0  0  0  0
   57.7890   27.6230   43.7150 C   0  0  0  0  0  0  0  0  0  0  0  0
   57.8930   26.2450   43.5020 C   0  0  0  0  0  0  0  0  0  0  0  0
   57.4550   25.3470   44.4790 C   0  0  0  0  0  0  0  0  0  0  0  0
   57.5860   23.6200   44.2070 Cl  0  0  0  0  0  0  0  0  0  0  0  0
   56.9070   25.8290   45.6720 C   0  0  0  0  0  0  0  0  0  0  0  0
   56.8010   27.2060   45.8890 C   0  0  0  0  0  0  0  0  0  0  0  0
   59.2140   32.4710   46.4720 C   0  0  0  0  0  0  0  0  0  0  0  0
   62.9653   32.9230   50.6034 H   0  0  0  0  0  0  0  0  0  0  0  0
   64.8747   32.6148   49.0272 H   0  0  0  0  0  0  0  0  0  0  0  0
   64.6225   33.2273   46.6224 H   0  0  0  0  0  0  0  0  0  0  0  0
   62.4593   34.1375   45.7840 H   0  0  0  0  0  0  0  0  0  0  0  0
   59.9870   35.5510   47.5050 H   0  0  0  0  0  0  0  0  0  0  0  0
   58.6421   35.6348   45.3043 H   0  0  0  0  0  0  0  0  0  0  0  0
   57.0628   34.3759   43.8431 H   0  0  0  0  0  0  0  0  0  0  0  0
   56.8544   31.9018   44.0615 H   0  0  0  0  0  0  0  0  0  0  0  0
   58.8640   29.8180   46.3750 H   0  0  0  0  0  0  0  0  0  0  0  0
   58.1312   28.3231   42.9386 H   0  0  0  0  0  0  0  0  0  0  0  0
   58.3211   25.8665   42.5621 H   0  0  0  0  0  0  0  0  0  0  0  0
   56.5588   25.1235   46.4408 H   0  0  0  0  0  0  0  0  0  0  0  0
   56.3638   27.5779   46.8273 H   0  0  0  0  0  0  0  0  0  0  0  0
   59.8222   31.9322   47.2135 H   0  0  0  0  0  0  0  0  0  0  0  0
  1  2  3  0
  2  3  1  0
  3  4  2  0
  4  5  1  0
  5  6  2  0
  6  7  1  0
  7  8  2  0
  8  9  1  0
  9 10  1  0
 10 11  2  0
 11 12  1  0
 12 13  2  0
 13 14  1  0
 14 15  1  0
 15 16  1  0
 16 17  2  0
 16 18  1  0
 18 19  2  0
 19 20  1  0
 20 21  2  0
 21 22  1  0
 21 23  1  0
 23 24  2  0
 14 25  2  0
  8  3  1  0
 25 10  1  0
 24 18  1  0
  4 26  1  0
  5 27  1  0
  6 28  1  0
  7 29  1  0
  9 30  1  0
 11 31  1  0
 12 32  1  0
 13 33  1  0
 15 34  1  0
 19 35  1  0
 20 36  1  0
 23 37  1  0
 24 38  1  0
 25 39  1  0
M  END
>  <UniqueID>  (78) 
70

>  <SMILES>  (78) 
N#Cc1ccccc1Nc1cccc(NC(=O)c2ccc(Cl)cc2)c1

>  <Energy>  (78) 
53.11689080022701

>  <Genealogy>  (78) 
N#Cc1ccccc1Nc1cccc(NC(=O)c2ccc(Cl)cc2)c1 (3D coordinates assigned)
N#Cc1ccccc1Nc1cccc(NC(=O)c2ccc(Cl)cc2)c1 (optimized conformer: 53.11689080022701 kcal/mol)

>  <smiles>  (78) 
N#Cc1ccccc1Nc1cccc(NC(=O)c2ccc(Cl)cc2)c1

>  <score_type>  (78) 
oracle

>  <origin>  (78) 
adg

>  <m_score__min__energy>  (78) 
-8.5099999999999998

>  <m_primary>  (78) 
energy

$$$$
78:0
     RDKit          3D

 41 43  0  0  0  0  0  0  0  0999 V2000
   55.1350   29.3430   44.8750 N   0  0  0  0  0  0  0  0  0  0  0  0
   56.6600   30.0080   44.4090 S   0  0  0  0  0  0  0  0  0  0  0  0
   56.6840   31.4700   44.7620 O   0  0  0  0  0  0  0  0  0  0  0  0
   56.8410   29.8630   42.9230 O   0  0  0  0  0  0  0  0  0  0  0  0
   57.9580   29.1530   45.2460 C   0  0  0  0  0  0  0  0  0  0  0  0
   58.3490   27.8640   44.8440 C   0  0  0  0  0  0  0  0  0  0  0  0
   59.3910   27.2040   45.5100 C   0  0  0  0  0  0  0  0  0  0  0  0
   60.0350   27.8200   46.5920 C   0  0  0  0  0  0  0  0  0  0  0  0
   59.6380   29.1060   47.0110 C   0  0  0  0  0  0  0  0  0  0  0  0
   60.3000   29.7890   48.0860 N   0  0  0  0  0  0  0  0  0  0  0  0
   59.7860   29.9670   49.4080 C   0  0  0  0  0  0  0  0  0  0  0  0
   60.3310   29.3940   50.3900 O   0  0  0  0  0  0  0  0  0  0  0  0
   58.5290   30.7580   49.5940 C   0  0  0  0  0  0  0  0  0  0  0  0
   58.7190   32.1380   49.2680 O   0  0  0  0  0  0  0  0  0  0  0  0
   59.5660   32.6710   48.2760 C   0  0  0  0  0  0  0  0  0  0  0  0
   60.9890   32.6150   48.3110 C   0  0  0  0  0  0  0  0  0  0  0  0
   61.6660   31.9820   49.3490 O   0  0  0  0  0  0  0  0  0  0  0  0
   61.7360   33.2060   47.2690 C   0  0  0  0  0  0  0  0  0  0  0  0
   61.0920   33.8310   46.1920 C   0  0  0  0  0  0  0  0  0  0  0  0
   59.7000   33.8600   46.1690 C   0  0  0  0  0  0  0  0  0  0  0  0
   58.9610   33.2990   47.1790 C   0  0  0  0  0  0  0  0  0  0  0  0
   57.5040   33.4390   46.9370 C   0  0  0  0  0  0  0  0  0  0  0  0
   57.4110   34.2150   45.6110 C   0  0  0  0  0  0  0  0  0  0  0  0
   58.8480   34.4480   45.1100 C   0  0  0  0  0  0  0  0  0  0  0  0
   58.6150   29.7740   46.3190 C   0  0  0  0  0  0  0  0  0  0  0  0
   55.3220   28.6270   45.6130 H   0  0  0  0  0  0  0  0  0  0  0  0
   57.8359   27.3719   44.0046 H   0  0  0  0  0  0  0  0  0  0  0  0
   59.7037   26.2013   45.1831 H   0  0  0  0  0  0  0  0  0  0  0  0
   60.8510   27.2993   47.1146 H   0  0  0  0  0  0  0  0  0  0  0  0
   57.7465   30.3422   48.9423 H   0  0  0  0  0  0  0  0  0  0  0  0
   58.2363   30.6929   50.6524 H   0  0  0  0  0  0  0  0  0  0  0  0
   61.5660   30.9870   49.5280 H   0  0  0  0  0  0  0  0  0  0  0  0
   62.8351   33.1758   47.3025 H   0  0  0  0  0  0  0  0  0  0  0  0
   61.6754   34.2900   45.3802 H   0  0  0  0  0  0  0  0  0  0  0  0
   57.0278   32.4517   46.8448 H   0  0  0  0  0  0  0  0  0  0  0  0
   56.9887   33.9532   47.7617 H   0  0  0  0  0  0  0  0  0  0  0  0
   56.8458   33.6288   44.8715 H   0  0  0  0  0  0  0  0  0  0  0  0
   56.8917   35.1734   45.7584 H   0  0  0  0  0  0  0  0  0  0  0  0
   59.0135   33.9397   44.1486 H   0  0  0  0  0  0  0  0  0  0  0  0
   59.0665   35.5117   44.9347 H   0  0  0  0  0  0  0  0  0  0  0  0
   58.3265   30.7918   46.6204 H   0  0  0  0  0  0  0  0  0  0  0  0
  1  2  1  0
  2  3  2  0
  2  4  2  0
  2  5  1  0
  5  6  2  0
  6  7  1  0
  7  8  2  0
  8  9  1  0
  9 10  1  0
 10 11  1  0
 11 12  2  0
 11 13  1  0
 13 14  1  0
 14 15  1  0
 15 16  2  0
 16 17  1  0
 16 18  1  0
 18 19  2  0
 19 20  1  0
 20 21  2  0
 21 22  1  0
 22 23  1  0
 23 24  1  0
  9 25  2  0
 25  5  1  0
 21 15  1  0
 24 20  1  0
  1 26  1  0
  6 27  1  0
  7 28  1  0
  8 29  1  0
 13 30  1  0
 13 31  1  0
 17 32  1  0
 18 33  1  0
 19 34  1  0
 22 35  1  0
 22 36  1  0
 23 37  1  0
 23 38  1  0
 24 39  1  0
 24 40  1  0
 25 41  1  0
M  CHG  2   1  -1  10  -1
M  END
>  <UniqueID>  (79) 
71

>  <SMILES>  (79) 
[NH-]S(=O)(=O)c1cccc([N-]C(=O)COc2c(O)ccc3c2CCC3)c1

>  <Energy>  (79) 
55.129690065805846

>  <Genealogy>  (79) 
[NH-]S(=O)(=O)c1cccc([N-]C(=O)COc2c(O)ccc3c2CCC3)c1 (protonated)
[NH-]S(=O)(=O)c1cccc([N-]C(=O)COc2c(O)ccc3c2CCC3)c1 (3D coordinates assigned)
[NH-]S(=O)(=O)c1cccc([N-]C(=O)COc2c(O)ccc3c2CCC3)c1 (nonaromatic ring conformer: 55.129690065805846 kcal/mol)

>  <smiles>  (79) 
NS(=O)(=O)c1cccc(NC(=O)COc2c(O)ccc3c2CCC3)c1

>  <score_type>  (79) 
oracle

>  <origin>  (79) 
adg

>  <m_score__min__energy>  (79) 
-12.06

>  <m_primary>  (79) 
energy

$$$$
79:0
     RDKit          3D

 76 81  0  0  0  0  0  0  0  0999 V2000
   59.1770   26.4000   46.3080 C   0  0  0  0  0  0  0  0  0  0  0  0
   58.7420   26.9820   47.5320 O   0  0  0  0  0  0  0  0  0  0  0  0
   59.4030   28.0260   48.1990 C   0  0  0  0  0  0  0  0  0  0  0  0
   60.0440   27.8360   49.4390 C   0  0  0  0  0  0  0  0  0  0  0  0
   60.6300   28.9230   50.1170 C   0  0  0  0  0  0  0  0  0  0  0  0
   61.2400   28.7940   51.3940 C   0  0  0  0  0  0  0  0  0  0  0  0
   61.2840   27.5900   52.1170 O   0  0  0  0  0  0  0  0  0  0  0  0
   62.4300   26.9590   52.6240 C   0  0  0  0  0  0  0  0  0  0  0  0
   62.9810   27.4620   53.8060 C   0  0  0  0  0  0  0  0  0  0  0  0
   64.1560   26.9190   54.3310 C   0  0  0  0  0  0  0  0  0  0  0  0
   64.8080   25.8710   53.6700 C   0  0  0  0  0  0  0  0  0  0  0  0
   66.0660   25.4190   54.1780 N   0  0  0  0  0  0  0  0  0  0  0  0
   67.3320   25.9650   53.8030 C   0  0  0  0  0  0  0  0  0  0  0  0
   68.3520   25.7220   54.5060 O   0  0  0  0  0  0  0  0  0  0  0  0
   67.4190   26.8490   52.6220 C   0  0  0  0  0  0  0  0  0  0  0  0
   68.3400   26.5870   51.5910 C   0  0  0  0  0  0  0  0  0  0  0  0
   68.4420   27.4560   50.5010 C   0  0  0  0  0  0  0  0  0  0  0  0
   67.6210   28.5850   50.4210 C   0  0  0  0  0  0  0  0  0  0  0  0
   66.6900   28.8540   51.4350 C   0  0  0  0  0  0  0  0  0  0  0  0
   65.7930   29.9710   51.3430 N   0  0  0  0  0  0  0  0  0  0  0  0
   66.1500   31.2310   50.7490 C   0  0  0  0  0  0  0  0  0  0  0  0
   67.3670   31.5150   50.5630 O   0  0  0  0  0  0  0  0  0  0  0  0
   65.1010   32.2220   50.4050 C   0  0  0  0  0  0  0  0  0  0  0  0
   64.7230   33.2070   51.3330 C   0  0  0  0  0  0  0  0  0  0  0  0
   63.7420   34.1450   51.0080 C   0  0  0  0  0  0  0  0  0  0  0  0
   63.1320   34.1160   49.7490 C   0  0  0  0  0  0  0  0  0  0  0  0
   63.5070   33.1530   48.7960 C   0  0  0  0  0  0  0  0  0  0  0  0
   62.8900   33.1220   47.4170 C   0  0  0  0  0  0  0  0  0  0  0  0
   63.7830   33.5400   46.4480 F   0  0  0  0  0  0  0  0  0  0  0  0
   62.4920   31.8330   47.1170 F   0  0  0  0  0  0  0  0  0  0  0  0
   61.7840   33.9520   47.3940 F   0  0  0  0  0  0  0  0  0  0  0  0
   64.4850   32.2030   49.1370 C   0  0  0  0  0  0  0  0  0  0  0  0
   66.5860   27.9750   52.5230 C   0  0  0  0  0  0  0  0  0  0  0  0
   64.2360   25.3260   52.5090 C   0  0  0  0  0  0  0  0  0  0  0  0
   63.0420   25.8480   51.9990 C   0  0  0  0  0  0  0  0  0  0  0  0
   62.4900   25.2620   50.9080 F   0  0  0  0  0  0  0  0  0  0  0  0
   61.8670   29.9070   51.9610 C   0  0  0  0  0  0  0  0  0  0  0  0
   61.8500   31.1330   51.2990 C   0  0  0  0  0  0  0  0  0  0  0  0
   61.2390   31.2480   50.0960 N   0  0  0  0  0  0  0  0  0  0  0  0
   60.6350   30.1930   49.4920 C   0  0  0  0  0  0  0  0  0  0  0  0
   60.0310   30.3710   48.2440 C   0  0  0  0  0  0  0  0  0  0  0  0
   59.4080   29.2900   47.5930 C   0  0  0  0  0  0  0  0  0  0  0  0
   58.7700   29.4270   46.3460 O   0  0  0  0  0  0  0  0  0  0  0  0
   59.2460   30.2200   45.2590 C   0  0  0  0  0  0  0  0  0  0  0  0
   58.7410   31.6310   45.3810 C   0  0  0  0  0  0  0  0  0  0  0  0
   59.5180   32.5990   46.0390 C   0  0  0  0  0  0  0  0  0  0  0  0
   59.0480   33.9070   46.1710 C   0  0  0  0  0  0  0  0  0  0  0  0
   57.7970   34.2590   45.6540 C   0  0  0  0  0  0  0  0  0  0  0  0
   57.0190   33.3010   44.9950 C   0  0  0  0  0  0  0  0  0  0  0  0
   57.4890   31.9930   44.8520 C   0  0  0  0  0  0  0  0  0  0  0  0
   59.8229   25.5358   46.5221 H   0  0  0  0  0  0  0  0  0  0  0  0
   58.3027   26.0695   45.7280 H   0  0  0  0  0  0  0  0  0  0  0  0
   59.7415   27.1449   45.7280 H   0  0  0  0  0  0  0  0  0  0  0  0
   60.0873   26.8300   49.8818 H   0  0  0  0  0  0  0  0  0  0  0  0
   62.4845   28.2934   54.3278 H   0  0  0  0  0  0  0  0  0  0  0  0
   64.5713   27.3168   55.2687 H   0  0  0  0  0  0  0  0  0  0  0  0
   68.9819   25.6952   51.6430 H   0  0  0  0  0  0  0  0  0  0  0  0
   69.1709   27.2509   49.7031 H   0  0  0  0  0  0  0  0  0  0  0  0
   67.7055   29.2644   49.5600 H   0  0  0  0  0  0  0  0  0  0  0  0
   64.9070   29.9310   51.9010 H   0  0  0  0  0  0  0  0  0  0  0  0
   65.2034   33.2390   52.3220 H   0  0  0  0  0  0  0  0  0  0  0  0
   63.4477   34.9086   51.7430 H   0  0  0  0  0  0  0  0  0  0  0  0
   62.3529   34.8525   49.5031 H   0  0  0  0  0  0  0  0  0  0  0  0
   64.7737   31.4345   48.4049 H   0  0  0  0  0  0  0  0  0  0  0  0
   65.8419   28.1703   53.3092 H   0  0  0  0  0  0  0  0  0  0  0  0
   64.7285   24.4853   51.9984 H   0  0  0  0  0  0  0  0  0  0  0  0
   62.3751   29.8149   52.9322 H   0  0  0  0  0  0  0  0  0  0  0  0
   62.3340   32.0094   51.7547 H   0  0  0  0  0  0  0  0  0  0  0  0
   60.0427   31.3625   47.7677 H   0  0  0  0  0  0  0  0  0  0  0  0
   60.3459   30.2263   45.2690 H   0  0  0  0  0  0  0  0  0  0  0  0
   58.8798   29.7896   44.3153 H   0  0  0  0  0  0  0  0  0  0  0  0
   60.5002   32.3254   46.4517 H   0  0  0  0  0  0  0  0  0  0  0  0
   59.6628   34.6622   46.6826 H   0  0  0  0  0  0  0  0  0  0  0  0
   57.4251   35.2882   45.7654 H   0  0  0  0  0  0  0  0  0  0  0  0
   56.0351   33.5781   44.5886 H   0  0  0  0  0  0  0  0  0  0  0  0
   56.8787   31.2449   44.3247 H   0  0  0  0  0  0  0  0  0  0  0  0
  1  2  1  0
  2  3  1  0
  3  4  2  0
  4  5  1  0
  5  6  2  0
  6  7  1  0
  7  8  1  0
  8  9  2  0
  9 10  1  0
 10 11  2  0
 11 12  1  0
 12 13  1  0
 13 14  2  0
 13 15  1  0
 15 16  2  0
 16 17  1  0
 17 18  2  0
 18 19  1  0
 19 20  1  0
 20 21  1  0
 21 22  2  0
 21 23  1  0
 23 24  2  0
 24 25  1  0
 25 26  2  0
 26 27  1  0
 27 28  1  0
 28 29  1  0
 28 30  1  0
 28 31  1  0
 27 32  2  0
 19 33  2  0
 11 34  1  0
 34 35  2  0
 35 36  1  0
  6 37  1  0
 37 38  2  0
 38 39  1  0
 39 40  2  0
 40 41  1  0
 41 42  2  0
 42 43  1  0
 43 44  1  0
 44 45  1  0
 45 46  2  0
 46 47  1  0
 47 48  2  0
 48 49  1  0
 49 50  2  0
 42  3  1  0
 50 45  1  0
 40  5  1  0
 35  8  1  0
 33 15  1  0
 32 23  1  0
  1 51  1  0
  1 52  1  0
  1 53  1  0
  4 54  1  0
  9 55  1  0
 10 56  1  0
 16 57  1  0
 17 58  1  0
 18 59  1  0
 20 60  1  0
 24 61  1  0
 25 62  1  0
 26 63  1  0
 32 64  1  0
 33 65  1  0
 34 66  1  0
 37 67  1  0
 38 68  1  0
 41 69  1  0
 44 70  1  0
 44 71  1  0
 46 72  1  0
 47 73  1  0
 48 74  1  0
 49 75  1  0
 50 76  1  0
M  CHG  1  12  -1
M  END
>  <UniqueID>  (80) 
72

>  <SMILES>  (80) 
COc1cc2c(Oc3ccc([N-]C(=O)c4cccc(NC(=O)c5cccc(C(F)(F)F)c5)c4)cc3F)ccnc2cc1OCc1ccccc1

>  <Energy>  (80) 
114.51734073237587

>  <Genealogy>  (80) 
COc1cc2c(Oc3ccc([N-]C(=O)c4cccc(NC(=O)c5cccc(C(F)(F)F)c5)c4)cc3F)ccnc2cc1OCc1ccccc1 (protonated)
COc1cc2c(Oc3ccc([N-]C(=O)c4cccc(NC(=O)c5cccc(C(F)(F)F)c5)c4)cc3F)ccnc2cc1OCc1ccccc1 (3D coordinates assigned)
COc1cc2c(Oc3ccc([N-]C(=O)c4cccc(NC(=O)c5cccc(C(F)(F)F)c5)c4)cc3F)ccnc2cc1OCc1ccccc1 (optimized conformer: 114.51734073237587 kcal/mol)

>  <smiles>  (80) 
COc1cc2c(Oc3ccc(NC(=O)c4cccc(NC(=O)c5cccc(C(F)(F)F)c5)c4)cc3F)ccnc2cc1OCc1ccccc1

>  <score_type>  (80) 
oracle

>  <origin>  (80) 
adg

>  <m_score__min__energy>  (80) 
-10.76

>  <m_primary>  (80) 
energy

$$$$
80:0
     RDKit          3D

 52 54  0  0  0  0  0  0  0  0999 V2000
   65.1900   32.3820   49.8660 C   0  0  0  0  0  0  0  0  0  0  0  0
   63.9950   31.6710   49.5620 O   0  0  0  0  0  0  0  0  0  0  0  0
   62.8140   32.2660   49.0930 C   0  0  0  0  0  0  0  0  0  0  0  0
   62.7500   33.6610   49.0470 C   0  0  0  0  0  0  0  0  0  0  0  0
   61.5990   34.3030   48.5920 C   0  0  0  0  0  0  0  0  0  0  0  0
   60.4850   33.5610   48.1740 C   0  0  0  0  0  0  0  0  0  0  0  0
   59.2680   34.2970   47.6700 C   0  0  0  0  0  0  0  0  0  0  0  0
   58.5290   33.4660   46.7220 N   0  0  0  0  0  0  0  0  0  0  0  0
   58.7510   33.5350   45.3030 C   0  0  0  0  0  0  0  0  0  0  0  0
   59.5470   34.3950   44.8380 O   0  0  0  0  0  0  0  0  0  0  0  0
   58.0450   32.6230   44.3710 C   0  0  0  0  0  0  0  0  0  0  0  0
   58.2540   32.7380   42.9850 C   0  0  0  0  0  0  0  0  0  0  0  0
   57.6030   31.8800   42.0960 C   0  0  0  0  0  0  0  0  0  0  0  0
   56.7380   30.8950   42.5770 C   0  0  0  0  0  0  0  0  0  0  0  0
   56.5150   30.7640   43.9550 C   0  0  0  0  0  0  0  0  0  0  0  0
   55.6240   29.6700   44.4770 C   0  0  0  0  0  0  0  0  0  0  0  0
   56.4540   28.5680   45.0670 C   0  0  0  0  0  0  0  0  0  0  0  0
   57.8490   28.6800   45.1320 C   0  0  0  0  0  0  0  0  0  0  0  0
   58.5990   27.6490   45.7160 C   0  0  0  0  0  0  0  0  0  0  0  0
   60.0900   27.7650   45.8260 C   0  0  0  0  0  0  0  0  0  0  0  0
   57.9350   26.5420   46.2620 C   0  0  0  0  0  0  0  0  0  0  0  0
   56.5410   26.4730   46.1900 C   0  0  0  0  0  0  0  0  0  0  0  0
   55.9300   25.4830   46.6730 O   0  0  0  0  0  0  0  0  0  0  0  0
   55.8380   27.4780   45.6030 N   0  0  0  0  0  0  0  0  0  0  0  0
   57.1810   31.6200   44.8480 C   0  0  0  0  0  0  0  0  0  0  0  0
   60.5330   32.1510   48.2110 C   0  0  0  0  0  0  0  0  0  0  0  0
   59.4120   31.4180   47.7850 O   0  0  0  0  0  0  0  0  0  0  0  0
   58.9710   30.1980   48.3710 C   0  0  0  0  0  0  0  0  0  0  0  0
   61.7020   31.5120   48.6740 C   0  0  0  0  0  0  0  0  0  0  0  0
   65.3075   32.4519   50.9575 H   0  0  0  0  0  0  0  0  0  0  0  0
   66.0523   31.8499   49.4377 H   0  0  0  0  0  0  0  0  0  0  0  0
   65.1338   33.3936   49.4377 H   0  0  0  0  0  0  0  0  0  0  0  0
   63.6149   34.2577   49.3725 H   0  0  0  0  0  0  0  0  0  0  0  0
   61.5645   35.4020   48.5606 H   0  0  0  0  0  0  0  0  0  0  0  0
   58.6158   34.5448   48.5204 H   0  0  0  0  0  0  0  0  0  0  0  0
   59.5915   35.2176   47.1622 H   0  0  0  0  0  0  0  0  0  0  0  0
   57.7740   32.8550   47.1020 H   0  0  0  0  0  0  0  0  0  0  0  0
   58.9356   33.5098   42.5981 H   0  0  0  0  0  0  0  0  0  0  0  0
   57.7721   31.9804   41.0137 H   0  0  0  0  0  0  0  0  0  0  0  0
   56.2300   30.2198   41.8727 H   0  0  0  0  0  0  0  0  0  0  0  0
   54.9597   30.0802   45.2519 H   0  0  0  0  0  0  0  0  0  0  0  0
   55.0255   29.2658   43.6473 H   0  0  0  0  0  0  0  0  0  0  0  0
   58.3525   29.5705   44.7277 H   0  0  0  0  0  0  0  0  0  0  0  0
   60.3787   27.7875   46.8872 H   0  0  0  0  0  0  0  0  0  0  0  0
   60.5622   26.9009   45.3357 H   0  0  0  0  0  0  0  0  0  0  0  0
   60.4228   28.6918   45.3357 H   0  0  0  0  0  0  0  0  0  0  0  0
   58.5062   25.7344   46.7431 H   0  0  0  0  0  0  0  0  0  0  0  0
   57.0255   31.5050   45.9309 H   0  0  0  0  0  0  0  0  0  0  0  0
   59.0025   30.2853   49.4671 H   0  0  0  0  0  0  0  0  0  0  0  0
   57.9402   29.9883   48.0494 H   0  0  0  0  0  0  0  0  0  0  0  0
   59.6295   29.3777   48.0494 H   0  0  0  0  0  0  0  0  0  0  0  0
   61.7450   30.4134   48.7079 H   0  0  0  0  0  0  0  0  0  0  0  0
  1  2  1  0
  2  3  1  0
  3  4  2  0
  4  5  1  0
  5  6  2  0
  6  7  1  0
  7  8  1  0
  8  9  1  0
  9 10  2  0
  9 11  1  0
 11 12  2  0
 12 13  1  0
 13 14  2  0
 14 15  1  0
 15 16  1  0
 16 17  1  0
 17 18  2  0
 18 19  1  0
 19 20  1  0
 19 21  2  0
 21 22  1  0
 22 23  2  0
 22 24  1  0
 15 25  2  0
  6 26  1  0
 26 27  1  0
 27 28  1  0
 26 29  2  0
 29  3  1  0
 25 11  1  0
 24 17  1  0
  1 30  1  0
  1 31  1  0
  1 32  1  0
  4 33  1  0
  5 34  1  0
  7 35  1  0
  7 36  1  0
  8 37  1  0
 12 38  1  0
 13 39  1  0
 14 40  1  0
 16 41  1  0
 16 42  1  0
 18 43  1  0
 20 44  1  0
 20 45  1  0
 20 46  1  0
 21 47  1  0
 25 48  1  0
 28 49  1  0
 28 50  1  0
 28 51  1  0
 29 52  1  0
M  CHG  1  24  -1
M  END
>  <UniqueID>  (81) 
73

>  <SMILES>  (81) 
COc1ccc(CNC(=O)c2cccc(Cc3cc(C)cc(=O)[n-]3)c2)c(OC)c1

>  <Energy>  (81) 
52.051137670468485

>  <Genealogy>  (81) 
COc1ccc(CNC(=O)c2cccc(Cc3cc(C)cc(=O)[n-]3)c2)c(OC)c1 (protonated)
COc1ccc(CNC(=O)c2cccc(Cc3cc(C)cc(=O)[n-]3)c2)c(OC)c1 (3D coordinates assigned)
COc1ccc(CNC(=O)c2cccc(Cc3cc(C)cc(=O)[n-]3)c2)c(OC)c1 (optimized conformer: 52.051137670468485 kcal/mol)

>  <smiles>  (81) 
COc1ccc(CNC(=O)c2cccc(Cc3cc(C)cc(=O)[nH]3)c2)c(OC)c1

>  <score_type>  (81) 
oracle

>  <origin>  (81) 
adg

>  <m_score__min__energy>  (81) 
-11.32

>  <m_primary>  (81) 
energy

$$$$
81:0
     RDKit          3D

 53 56  0  0  0  0  0  0  0  0999 V2000
   57.4010   32.7120   48.6320 O   0  0  0  0  0  0  0  0  0  0  0  0
   58.5800   32.2680   48.6660 C   0  0  0  0  0  0  0  0  0  0  0  0
   59.0200   31.3930   49.8270 C   0  0  2  0  0  0  0  0  0  0  0  0
   58.9140   29.8760   49.5260 C   0  0  0  0  0  0  0  0  0  0  0  0
   60.0660   29.2550   48.7030 C   0  0  0  0  0  0  0  0  0  0  0  0
   59.6700   28.8620   47.2970 C   0  0  0  0  0  0  0  0  0  0  0  0
   58.4260   28.2500   47.0580 C   0  0  0  0  0  0  0  0  0  0  0  0
   58.0510   27.8940   45.7590 C   0  0  0  0  0  0  0  0  0  0  0  0
   58.8980   28.1700   44.6840 C   0  0  0  0  0  0  0  0  0  0  0  0
   60.1160   28.8180   44.9040 C   0  0  0  0  0  0  0  0  0  0  0  0
   60.4960   29.1750   46.2010 C   0  0  0  0  0  0  0  0  0  0  0  0
   58.3660   31.7590   51.0950 N   0  0  0  0  0  0  0  0  0  0  0  0
   57.5310   31.0460   51.8760 C   0  0  0  0  0  0  0  0  0  0  0  0
   57.0990   29.7520   51.6190 O   0  0  0  0  0  0  0  0  0  0  0  0
   57.1800   31.7940   52.9760 C   0  0  0  0  0  0  0  0  0  0  0  0
   57.7990   32.9900   52.9090 N   0  0  0  0  0  0  0  0  0  0  0  0
   58.5060   32.9270   51.7610 C   0  0  0  0  0  0  0  0  0  0  0  0
   59.2290   33.8750   51.3540 O   0  0  0  0  0  0  0  0  0  0  0  0
   59.4890   32.5850   47.5890 N   0  0  0  0  0  0  0  0  0  0  0  0
   60.8900   32.7790   47.8530 C   0  0  0  0  0  0  0  0  0  0  0  0
   61.3130   33.7660   48.7550 C   0  0  0  0  0  0  0  0  0  0  0  0
   62.6740   33.9450   49.0170 C   0  0  0  0  0  0  0  0  0  0  0  0
   63.6250   33.1480   48.3690 C   0  0  0  0  0  0  0  0  0  0  0  0
   64.9780   33.3360   48.6400 O   0  0  0  0  0  0  0  0  0  0  0  0
   63.2070   32.1720   47.4530 C   0  0  0  0  0  0  0  0  0  0  0  0
   61.8450   31.9910   47.1930 C   0  0  0  0  0  0  0  0  0  0  0  0
   59.0100   32.6730   46.2300 C   0  0  0  0  0  0  0  0  0  0  0  0
   59.3580   33.7700   45.4200 C   0  0  0  0  0  0  0  0  0  0  0  0
   58.8830   33.8570   44.1090 C   0  0  0  0  0  0  0  0  0  0  0  0
   58.0540   32.8570   43.5950 C   0  0  0  0  0  0  0  0  0  0  0  0
   57.6930   31.7680   44.3920 C   0  0  0  0  0  0  0  0  0  0  0  0
   56.6470   30.5160   43.7480 Cl  0  0  0  0  0  0  0  0  0  0  0  0
   58.1670   31.6760   45.7060 C   0  0  0  0  0  0  0  0  0  0  0  0
   60.0926   31.5990   49.9576 H   0  0  0  0  0  0  0  0  0  0  0  0
   58.8678   29.3464   50.4890 H   0  0  0  0  0  0  0  0  0  0  0  0
   58.0160   29.7649   48.9006 H   0  0  0  0  0  0  0  0  0  0  0  0
   60.8826   29.9894   48.6407 H   0  0  0  0  0  0  0  0  0  0  0  0
   60.3676   28.3323   49.2203 H   0  0  0  0  0  0  0  0  0  0  0  0
   57.7444   28.0504   47.8980 H   0  0  0  0  0  0  0  0  0  0  0  0
   57.0864   27.3953   45.5836 H   0  0  0  0  0  0  0  0  0  0  0  0
   58.6065   27.8774   43.6645 H   0  0  0  0  0  0  0  0  0  0  0  0
   60.7770   29.0476   44.0553 H   0  0  0  0  0  0  0  0  0  0  0  0
   61.4463   29.7038   46.3662 H   0  0  0  0  0  0  0  0  0  0  0  0
   56.5036   31.4689   53.7803 H   0  0  0  0  0  0  0  0  0  0  0  0
   60.5702   34.4021   49.2585 H   0  0  0  0  0  0  0  0  0  0  0  0
   62.9986   34.7137   49.7338 H   0  0  0  0  0  0  0  0  0  0  0  0
   65.6910   33.1100   47.9540 H   0  0  0  0  0  0  0  0  0  0  0  0
   63.9519   31.5476   46.9380 H   0  0  0  0  0  0  0  0  0  0  0  0
   61.5214   31.2287   46.4690 H   0  0  0  0  0  0  0  0  0  0  0  0
   60.0070   34.5625   45.8209 H   0  0  0  0  0  0  0  0  0  0  0  0
   59.1625   34.7150   43.4800 H   0  0  0  0  0  0  0  0  0  0  0  0
   57.6849   32.9272   42.5611 H   0  0  0  0  0  0  0  0  0  0  0  0
   57.8786   30.8191   46.3325 H   0  0  0  0  0  0  0  0  0  0  0  0
  1  2  2  0
  2  3  1  0
  3  4  1  0
  4  5  1  0
  5  6  1  0
  6  7  2  0
  7  8  1  0
  8  9  2  0
  9 10  1  0
 10 11  2  0
  3 12  1  0
 12 13  1  0
 13 14  1  0
 13 15  2  0
 15 16  1  0
 16 17  1  0
 17 18  2  0
  2 19  1  0
 19 20  1  0
 20 21  2  0
 21 22  1  0
 22 23  2  0
 23 24  1  0
 23 25  1  0
 25 26  2  0
 19 27  1  0
 27 28  2  0
 28 29  1  0
 29 30  2  0
 30 31  1  0
 31 32  1  0
 31 33  2  0
 11  6  1  0
 17 12  1  0
 26 20  1  0
 33 27  1  0
  3 34  1  1
  4 35  1  0
  4 36  1  0
  5 37  1  0
  5 38  1  0
  7 39  1  0
  8 40  1  0
  9 41  1  0
 10 42  1  0
 11 43  1  0
 15 44  1  0
 21 45  1  0
 22 46  1  0
 24 47  1  0
 25 48  1  0
 26 49  1  0
 28 50  1  0
 29 51  1  0
 30 52  1  0
 33 53  1  0
M  CHG  2  14  -1  16  -1
M  END
>  <UniqueID>  (82) 
74

>  <SMILES>  (82) 
O=C([C@H](CCc1ccccc1)n1c([O-])c[n-]c1=O)N(c1ccc(O)cc1)c1cccc(Cl)c1

>  <Energy>  (82) 
100.72178859477897

>  <Genealogy>  (82) 
O=C(C(CCc1ccccc1)n1c([O-])c[n-]c1=O)N(c1ccc(O)cc1)c1cccc(Cl)c1 (protonated)
O=C([C@H](CCc1ccccc1)n1c([O-])c[n-]c1=O)N(c1ccc(O)cc1)c1cccc(Cl)c1 (chirality)
O=C([C@H](CCc1ccccc1)n1c([O-])c[n-]c1=O)N(c1ccc(O)cc1)c1cccc(Cl)c1 (3D coordinates assigned)
O=C([C@H](CCc1ccccc1)n1c([O-])c[n-]c1=O)N(c1ccc(O)cc1)c1cccc(Cl)c1 (optimized conformer: 100.72178859477897 kcal/mol)

>  <smiles>  (82) 
O=C(C(CCc1ccccc1)n1c(O)c[nH]c1=O)N(c1ccc(O)cc1)c1cccc(Cl)c1

>  <score_type>  (82) 
oracle

>  <origin>  (82) 
adg

>  <m_score__min__energy>  (82) 
-12.880000000000001

>  <m_primary>  (82) 
energy

$$$$
82:0
     RDKit          3D

 34 36  0  0  0  0  0  0  0  0999 V2000
   57.4262   26.1215   44.5696 H   0  0  0  0  0  0  0  0  0  0  0  0
   57.0060   26.7570   45.3630 C   0  0  0  0  0  0  0  0  0  0  0  0
   56.1510   26.2200   46.1890 N   0  0  0  0  0  0  0  0  0  0  0  0
   55.9030   24.8210   46.4000 C   0  0  0  0  0  0  0  0  0  0  0  0
   54.7130   24.2640   45.9140 C   0  0  0  0  0  0  0  0  0  0  0  0
   53.9995   24.8940   45.3626 H   0  0  0  0  0  0  0  0  0  0  0  0
   54.4270   22.9110   46.1260 C   0  0  0  0  0  0  0  0  0  0  0  0
   53.4977   22.4768   45.7287 H   0  0  0  0  0  0  0  0  0  0  0  0
   55.3210   22.1110   46.8420 C   0  0  0  0  0  0  0  0  0  0  0  0
   55.1009   21.0445   46.9972 H   0  0  0  0  0  0  0  0  0  0  0  0
   56.4940   22.6640   47.3610 C   0  0  0  0  0  0  0  0  0  0  0  0
   57.3720   21.8720   48.0910 O   0  0  0  0  0  0  0  0  0  0  0  0
   56.7820   24.0170   47.1510 C   0  0  0  0  0  0  0  0  0  0  0  0
   57.6984   24.4543   47.5741 H   0  0  0  0  0  0  0  0  0  0  0  0
   57.4460   28.1710   45.4280 C   0  0  0  0  0  0  0  0  0  0  0  0
   56.5590   29.2320   45.1750 C   0  0  0  0  0  0  0  0  0  0  0  0
   55.2250   28.9840   44.8720 O   0  0  0  0  0  0  0  0  0  0  0  0
   56.9800   30.4900   45.2430 O   0  0  0  0  0  0  0  0  0  0  0  0
   58.2270   30.8280   45.5660 C   0  0  0  0  0  0  0  0  0  0  0  0
   58.5920   32.2670   45.6000 C   0  0  0  0  0  0  0  0  0  0  0  0
   59.6910   32.7370   46.3490 C   0  0  0  0  0  0  0  0  0  0  0  0
   60.3055   32.0273   46.9223 H   0  0  0  0  0  0  0  0  0  0  0  0
   60.0040   34.1000   46.3670 C   0  0  0  0  0  0  0  0  0  0  0  0
   60.8668   34.4573   46.9483 H   0  0  0  0  0  0  0  0  0  0  0  0
   59.2240   35.0080   45.6490 C   0  0  0  0  0  0  0  0  0  0  0  0
   59.4748   36.0789   45.6624 H   0  0  0  0  0  0  0  0  0  0  0  0
   58.1260   34.5580   44.9140 C   0  0  0  0  0  0  0  0  0  0  0  0
   57.5102   35.2752   44.3514 H   0  0  0  0  0  0  0  0  0  0  0  0
   57.8080   33.1970   44.8920 C   0  0  0  0  0  0  0  0  0  0  0  0
   56.9374   32.8498   44.3163 H   0  0  0  0  0  0  0  0  0  0  0  0
   59.1620   29.8190   45.8560 C   0  0  0  0  0  0  0  0  0  0  0  0
   60.1956   30.0788   46.1283 H   0  0  0  0  0  0  0  0  0  0  0  0
   58.7620   28.4840   45.7940 C   0  0  0  0  0  0  0  0  0  0  0  0
   59.5940   27.5720   46.0510 O   0  0  0  0  0  0  0  0  0  0  0  0
  1  2  1  0
  2  3  2  0
  3  4  1  0
  4  5  2  0
  5  6  1  0
  5  7  1  0
  7  8  1  0
  7  9  2  0
  9 10  1  0
  9 11  1  0
 11 12  1  0
 11 13  2  0
 13 14  1  0
  2 15  1  0
 15 16  2  0
 16 17  1  0
 16 18  1  0
 18 19  1  0
 19 20  1  0
 20 21  2  0
 21 22  1  0
 21 23  1  0
 23 24  1  0
 23 25  2  0
 25 26  1  0
 25 27  1  0
 27 28  1  0
 27 29  2  0
 29 30  1  0
 19 31  2  0
 31 32  1  0
 31 33  1  0
 33 34  2  0
 13  4  1  0
 33 15  1  0
 29 20  1  0
M  CHG  2  12  -1  17  -1
M  END
>  <UniqueID>  (83) 
75

>  <SMILES>  (83) 
O=c1cc(-c2ccccc2)oc([O-])c1/C=N\c1cccc([O-])c1

>  <Energy>  (83) 
55.77826172621957

>  <Genealogy>  (83) 
O=c1cc(-c2ccccc2)oc([O-])c1C=Nc1cccc([O-])c1 (protonated)
O=c1cc(-c2ccccc2)oc([O-])c1/C=N\c1cccc([O-])c1 (cis-trans isomerization)
O=c1cc(-c2ccccc2)oc([O-])c1/C=N\c1cccc([O-])c1 (3D coordinates assigned)
O=c1cc(-c2ccccc2)oc([O-])c1/C=N\c1cccc([O-])c1 (optimized conformer: 55.77826172621957 kcal/mol)

>  <smiles>  (83) 
O=c1cc(-c2ccccc2)oc(O)c1C=Nc1cccc(O)c1

>  <score_type>  (83) 
oracle

>  <origin>  (83) 
adg

>  <m_score__min__energy>  (83) 
-12.57

>  <m_primary>  (83) 
energy

$$$$
83:0
     RDKit          3D

 53 56  0  0  0  0  0  0  0  0999 V2000
   50.0470   21.7470   46.2760 C   0  0  0  0  0  0  0  0  0  0  0  0
   51.3800   22.3050   46.0440 N   0  0  0  0  0  0  0  0  0  0  0  0
   52.5760   21.6650   46.6020 C   0  0  0  0  0  0  0  0  0  0  0  0
   53.5900   22.7250   47.0530 C   0  0  0  0  0  0  0  0  0  0  0  0
   53.8540   23.7510   45.9670 C   0  0  0  0  0  0  0  0  0  0  0  0
   55.1740   24.4250   45.9180 C   0  0  0  0  0  0  0  0  0  0  0  0
   55.3230   25.7670   45.9940 N   0  0  0  0  0  0  0  0  0  0  0  0
   56.6290   26.1460   45.9370 C   0  0  0  0  0  0  0  0  0  0  0  0
   57.0380   27.5200   46.0200 N   0  0  0  0  0  0  0  0  0  0  0  0
   57.6280   28.2400   44.9240 C   0  0  0  0  0  0  0  0  0  0  0  0
   58.0980   27.6080   43.9380 O   0  0  0  0  0  0  0  0  0  0  0  0
   57.7200   29.7200   44.9480 C   0  0  0  0  0  0  0  0  0  0  0  0
   58.1280   30.4010   46.1080 C   0  0  0  0  0  0  0  0  0  0  0  0
   58.2040   31.7960   46.1210 C   0  0  0  0  0  0  0  0  0  0  0  0
   57.8900   32.5370   44.9680 C   0  0  0  0  0  0  0  0  0  0  0  0
   57.9370   34.0150   44.9610 C   0  0  0  0  0  0  0  0  0  0  0  0
   59.0020   34.7600   45.3040 C   0  0  0  0  0  0  0  0  0  0  0  0
   59.9810   34.4180   46.3600 C   0  0  0  0  0  0  0  0  0  0  0  0
   61.2060   33.8420   45.9950 C   0  0  0  0  0  0  0  0  0  0  0  0
   62.1400   33.4850   46.9730 C   0  0  0  0  0  0  0  0  0  0  0  0
   61.8570   33.6800   48.3350 C   0  0  0  0  0  0  0  0  0  0  0  0
   62.8480   33.3020   49.3670 C   0  0  0  0  0  0  0  0  0  0  0  0
   63.5810   32.2900   49.2110 O   0  0  0  0  0  0  0  0  0  0  0  0
   62.9840   34.0610   50.5240 O   0  0  0  0  0  0  0  0  0  0  0  0
   60.6160   34.2320   48.7010 C   0  0  0  0  0  0  0  0  0  0  0  0
   59.6830   34.5860   47.7230 C   0  0  0  0  0  0  0  0  0  0  0  0
   57.4440   31.8620   43.8240 C   0  0  0  0  0  0  0  0  0  0  0  0
   57.3650   30.4670   43.8100 C   0  0  0  0  0  0  0  0  0  0  0  0
   57.5450   25.1050   45.8240 C   0  0  0  0  0  0  0  0  0  0  0  0
   56.6750   23.6670   45.7870 S   0  0  0  0  0  0  0  0  0  0  0  0
   52.8620   24.1170   45.1350 C   0  0  0  0  0  0  0  0  0  0  0  0
   51.5500   23.4580   45.2020 C   0  0  0  0  0  0  0  0  0  0  0  0
   50.5860   23.9100   44.5270 O   0  0  0  0  0  0  0  0  0  0  0  0
   49.8647   21.6707   47.3581 H   0  0  0  0  0  0  0  0  0  0  0  0
   49.2904   22.4040   45.8221 H   0  0  0  0  0  0  0  0  0  0  0  0
   49.9840   20.7470   45.8221 H   0  0  0  0  0  0  0  0  0  0  0  0
   52.2873   21.0489   47.4663 H   0  0  0  0  0  0  0  0  0  0  0  0
   53.0385   21.0364   45.8268 H   0  0  0  0  0  0  0  0  0  0  0  0
   53.1952   23.2402   47.9411 H   0  0  0  0  0  0  0  0  0  0  0  0
   54.5383   22.2159   47.2799 H   0  0  0  0  0  0  0  0  0  0  0  0
   56.9340   28.0010   46.9410 H   0  0  0  0  0  0  0  0  0  0  0  0
   58.3893   29.8315   47.0121 H   0  0  0  0  0  0  0  0  0  0  0  0
   58.5115   32.3180   47.0391 H   0  0  0  0  0  0  0  0  0  0  0  0
   57.0265   34.5481   44.6498 H   0  0  0  0  0  0  0  0  0  0  0  0
   59.1587   35.7004   44.7552 H   0  0  0  0  0  0  0  0  0  0  0  0
   61.4340   33.6698   44.9328 H   0  0  0  0  0  0  0  0  0  0  0  0
   63.1039   33.0480   46.6732 H   0  0  0  0  0  0  0  0  0  0  0  0
   60.3786   34.3860   49.7640 H   0  0  0  0  0  0  0  0  0  0  0  0
   58.7084   34.9991   48.0221 H   0  0  0  0  0  0  0  0  0  0  0  0
   57.1540   32.4344   42.9305 H   0  0  0  0  0  0  0  0  0  0  0  0
   57.0226   29.9489   42.9021 H   0  0  0  0  0  0  0  0  0  0  0  0
   58.6391   25.2047   45.7689 H   0  0  0  0  0  0  0  0  0  0  0  0
   53.0343   24.9159   44.3987 H   0  0  0  0  0  0  0  0  0  0  0  0
  1  2  1  0
  2  3  1  0
  3  4  1  0
  4  5  1  0
  5  6  1  0
  6  7  2  0
  7  8  1  0
  8  9  1  0
  9 10  1  0
 10 11  2  0
 10 12  1  0
 12 13  2  0
 13 14  1  0
 14 15  2  0
 15 16  1  0
 16 17  2  3
 17 18  1  0
 18 19  2  0
 19 20  1  0
 20 21  2  0
 21 22  1  0
 22 23  2  0
 22 24  1  0
 21 25  1  0
 25 26  2  0
 15 27  1  0
 27 28  2  0
  8 29  2  0
 29 30  1  0
  5 31  2  0
 31 32  1  0
 32 33  2  0
 32  2  1  0
 30  6  1  0
 28 12  1  0
 26 18  1  0
  1 34  1  0
  1 35  1  0
  1 36  1  0
  3 37  1  0
  3 38  1  0
  4 39  1  0
  4 40  1  0
  9 41  1  0
 13 42  1  0
 14 43  1  0
 16 44  1  0
 17 45  1  0
 19 46  1  0
 20 47  1  0
 25 48  1  0
 26 49  1  0
 27 50  1  0
 28 51  1  0
 29 52  1  0
 31 53  1  0
M  CHG  1  24  -1
M  END
>  <UniqueID>  (84) 
76

>  <SMILES>  (84) 
CN1CCC(c2nc(NC(=O)c3ccc(C=Cc4ccc(C(=O)[O-])cc4)cc3)cs2)=CC1=O

>  <Energy>  (84) 
97.36806219473861

>  <Genealogy>  (84) 
CN1CCC(c2nc(NC(=O)c3ccc(C=Cc4ccc(C(=O)[O-])cc4)cc3)cs2)=CC1=O (protonated)
CN1CCC(c2nc(NC(=O)c3ccc(C=Cc4ccc(C(=O)[O-])cc4)cc3)cs2)=CC1=O (3D coordinates assigned)
CN1CCC(c2nc(NC(=O)c3ccc(C=Cc4ccc(C(=O)[O-])cc4)cc3)cs2)=CC1=O (nonaromatic ring conformer: 97.36806219473861 kcal/mol)

>  <smiles>  (84) 
CN1CCC(c2nc(NC(=O)c3ccc(C=Cc4ccc(C(=O)O)cc4)cc3)cs2)=CC1=O

>  <score_type>  (84) 
oracle

>  <origin>  (84) 
adg

>  <m_score__min__energy>  (84) 
-11.41

>  <m_primary>  (84) 
energy

$$$$
84:0
     RDKit          3D

 40 44  0  0  0  0  0  0  0  0999 V2000
   53.6641   32.5916   52.4297 H   0  0  0  0  0  0  0  0  0  0  0  0
   53.4620   31.5770   52.0560 C   0  0  0  0  0  0  0  0  0  0  0  0
   52.4100   31.4240   51.0340 C   0  0  0  0  0  0  0  0  0  0  0  0
   52.4160   30.5090   50.0480 N   0  0  0  0  0  0  0  0  0  0  0  0
   51.3380   30.8420   49.3050 C   0  0  0  0  0  0  0  0  0  0  0  0
   51.0000   30.1990   48.2770 O   0  0  0  0  0  0  0  0  0  0  0  0
   50.6580   31.9210   49.7440 N   0  0  0  0  0  0  0  0  0  0  0  0
   51.3570   32.2840   50.8310 C   0  0  0  0  0  0  0  0  0  0  0  0
   51.0430   33.3830   51.6200 O   0  0  0  0  0  0  0  0  0  0  0  0
   54.1920   30.5710   52.5650 C   0  0  0  0  0  0  0  0  0  0  0  0
   53.7090   29.5450   53.3650 C   0  0  0  0  0  0  0  0  0  0  0  0
   52.6644   29.4356   53.6920 H   0  0  0  0  0  0  0  0  0  0  0  0
   54.7160   28.7000   53.6820 N   0  0  0  0  0  0  0  0  0  0  0  0
   55.8200   29.1450   53.1080 N   0  0  0  0  0  0  0  0  0  0  0  0
   57.0850   28.6120   53.0900 C   0  0  0  0  0  0  0  0  0  0  0  0
   57.4850   27.5550   53.7580 N   0  0  0  0  0  0  0  0  0  0  0  0
   56.9880   26.4530   54.6050 C   0  0  0  0  0  0  0  0  0  0  0  0
   57.3963   26.9013   55.5227 H   0  0  0  0  0  0  0  0  0  0  0  0
   55.6660   25.8210   54.2350 C   0  0  0  0  0  0  0  0  0  0  0  0
   54.9698   25.4970   55.0226 H   0  0  0  0  0  0  0  0  0  0  0  0
   54.8131   26.1074   53.6021 H   0  0  0  0  0  0  0  0  0  0  0  0
   56.9870   25.0620   54.0120 C   0  0  0  0  0  0  0  0  0  0  0  0
   57.2376   24.1943   54.6399 H   0  0  0  0  0  0  0  0  0  0  0  0
   57.4750   24.5782   53.1531 H   0  0  0  0  0  0  0  0  0  0  0  0
   58.0130   29.2400   52.3160 N   0  0  0  0  0  0  0  0  0  0  0  0
   57.7070   30.3450   51.5780 C   0  0  0  0  0  0  0  0  0  0  0  0
   58.6320   30.9020   50.8530 N   0  0  0  0  0  0  0  0  0  0  0  0
   58.6470   30.9970   49.4190 C   0  0  0  0  0  0  0  0  0  0  0  0
   58.8870   29.8720   48.6060 C   0  0  0  0  0  0  0  0  0  0  0  0
   59.0356   28.8842   49.0667 H   0  0  0  0  0  0  0  0  0  0  0  0
   58.9370   30.0070   47.2150 C   0  0  0  0  0  0  0  0  0  0  0  0
   59.1151   29.1241   46.5836 H   0  0  0  0  0  0  0  0  0  0  0  0
   58.7610   31.2620   46.6260 C   0  0  0  0  0  0  0  0  0  0  0  0
   58.7877   31.3641   45.5311 H   0  0  0  0  0  0  0  0  0  0  0  0
   58.5510   32.3880   47.4280 C   0  0  0  0  0  0  0  0  0  0  0  0
   58.3480   33.9660   46.6900 Cl  0  0  0  0  0  0  0  0  0  0  0  0
   58.5060   32.2560   48.8210 C   0  0  0  0  0  0  0  0  0  0  0  0
   58.3590   33.1464   49.4499 H   0  0  0  0  0  0  0  0  0  0  0  0
   56.4500   30.8650   51.6340 N   0  0  0  0  0  0  0  0  0  0  0  0
   55.5320   30.2610   52.4200 C   0  0  0  0  0  0  0  0  0  0  0  0
  1  2  1  0
  2  3  1  0
  3  4  1  0
  4  5  1  0
  5  6  2  0
  5  7  1  0
  7  8  1  0
  8  9  1  0
  2 10  2  3
 10 11  1  0
 11 12  1  0
 11 13  2  0
 13 14  1  0
 14 15  1  0
 15 16  2  3
 16 17  1  0
 17 18  1  0
 17 19  1  0
 19 20  1  0
 19 21  1  0
 19 22  1  0
 22 23  1  0
 22 24  1  0
 15 25  1  0
 25 26  1  0
 26 27  2  0
 27 28  1  0
 28 29  2  0
 29 30  1  0
 29 31  1  0
 31 32  1  0
 31 33  2  0
 33 34  1  0
 33 35  1  0
 35 36  1  0
 35 37  2  0
 37 38  1  0
 26 39  1  0
 39 40  2  0
  8  3  2  0
 40 10  1  0
 40 14  1  0
 22 17  1  0
 37 28  1  0
M  CHG  4   4  -1   7  -1   9  -1  25  -1
M  END
>  <UniqueID>  (85) 
77

>  <SMILES>  (85) 
O=c1[n-]c([O-])c(C=c2cnn3c(=NC4CC4)[n-]/c(=N/c4cccc(Cl)c4)nc23)[n-]1

>  <Energy>  (85) 
413.3415548881533

>  <Genealogy>  (85) 
O=c1[n-]c([O-])c(C=c2cnn3c(=NC4CC4)[n-]c(=Nc4cccc(Cl)c4)nc23)[n-]1 (protonated)
O=c1[n-]c([O-])c(C=c2cnn3c(=NC4CC4)[n-]/c(=N/c4cccc(Cl)c4)nc23)[n-]1 (cis-trans isomerization)
O=c1[n-]c([O-])c(C=c2cnn3c(=NC4CC4)[n-]/c(=N/c4cccc(Cl)c4)nc23)[n-]1 (3D coordinates assigned)
O=c1[n-]c([O-])c(C=c2cnn3c(=NC4CC4)[n-]/c(=N/c4cccc(Cl)c4)nc23)[n-]1 (nonaromatic ring conformer: 413.3415548881533 kcal/mol)

>  <smiles>  (85) 
O=c1[nH]c(O)c(C=c2cnn3c(=NC4CC4)[nH]c(=Nc4cccc(Cl)c4)nc23)[nH]1

>  <score_type>  (85) 
oracle

>  <origin>  (85) 
adg

>  <m_score__min__energy>  (85) 
-17.93

>  <m_primary>  (85) 
energy

$$$$
85:0
     RDKit          3D

 43 45  0  0  0  0  0  0  0  0999 V2000
   64.4170   32.4890   50.9490 C   0  0  0  0  0  0  0  0  0  0  0  0
   63.3570   33.4150   50.7340 O   0  0  0  0  0  0  0  0  0  0  0  0
   62.4970   33.4740   49.6200 C   0  0  0  0  0  0  0  0  0  0  0  0
   63.1090   33.6580   48.3720 C   0  0  0  0  0  0  0  0  0  0  0  0
   64.4930   33.7690   48.2910 O   0  0  0  0  0  0  0  0  0  0  0  0
   62.3530   33.7320   47.2070 C   0  0  0  0  0  0  0  0  0  0  0  0
   60.9620   33.6220   47.2620 C   0  0  0  0  0  0  0  0  0  0  0  0
   60.1980   33.6970   46.0900 C   0  0  0  0  0  0  0  0  0  0  0  0
   58.7990   33.5850   46.1380 C   0  0  0  0  0  0  0  0  0  0  0  0
   58.0050   33.6680   44.8830 C   0  0  0  0  0  0  0  0  0  0  0  0
   56.9180   34.3080   44.8540 O   0  0  0  0  0  0  0  0  0  0  0  0
   58.4680   33.0140   43.6940 N   0  0  0  0  0  0  0  0  0  0  0  0
   57.6620   32.0800   42.9160 C   0  0  0  0  0  0  0  0  0  0  0  0
   57.4300   30.8200   43.6970 C   0  0  0  0  0  0  0  0  0  0  0  0
   58.5030   30.0370   44.1380 C   0  0  0  0  0  0  0  0  0  0  0  0
   58.2510   28.8800   44.8780 C   0  0  0  0  0  0  0  0  0  0  0  0
   56.9310   28.5070   45.1810 C   0  0  0  0  0  0  0  0  0  0  0  0
   56.6510   27.2820   45.9650 C   0  0  0  0  0  0  0  0  0  0  0  0
   55.3330   26.7380   46.0150 N   0  0  0  0  0  0  0  0  0  0  0  0
   57.5780   26.7060   46.5980 O   0  0  0  0  0  0  0  0  0  0  0  0
   55.8850   29.3270   44.7230 C   0  0  0  0  0  0  0  0  0  0  0  0
   56.1580   30.4480   44.0040 N   0  0  0  0  0  0  0  0  0  0  0  0
   58.1950   33.3980   47.4000 C   0  0  0  0  0  0  0  0  0  0  0  0
   56.9440   33.2950   47.5140 O   0  0  0  0  0  0  0  0  0  0  0  0
   58.9620   33.3300   48.5190 N   0  0  0  0  0  0  0  0  0  0  0  0
   60.3160   33.4340   48.5020 C   0  0  0  0  0  0  0  0  0  0  0  0
   61.0810   33.3580   49.7010 C   0  0  0  0  0  0  0  0  0  0  0  0
   60.4970   33.1720   50.9700 O   0  0  0  0  0  0  0  0  0  0  0  0
   59.3560   33.8340   51.5070 C   0  0  0  0  0  0  0  0  0  0  0  0
   64.5720   32.3536   52.0296 H   0  0  0  0  0  0  0  0  0  0  0  0
   64.1581   31.5226   50.4918 H   0  0  0  0  0  0  0  0  0  0  0  0
   65.3398   32.8754   50.4918 H   0  0  0  0  0  0  0  0  0  0  0  0
   62.8529   33.8778   46.2381 H   0  0  0  0  0  0  0  0  0  0  0  0
   60.6992   33.8452   45.1221 H   0  0  0  0  0  0  0  0  0  0  0  0
   56.6933   32.5449   42.6803 H   0  0  0  0  0  0  0  0  0  0  0  0
   58.1961   31.8329   41.9867 H   0  0  0  0  0  0  0  0  0  0  0  0
   59.5368   30.3308   43.9035 H   0  0  0  0  0  0  0  0  0  0  0  0
   59.0894   28.2582   45.2250 H   0  0  0  0  0  0  0  0  0  0  0  0
   54.6320   27.0910   46.7030 H   0  0  0  0  0  0  0  0  0  0  0  0
   54.8416   29.0605   44.9473 H   0  0  0  0  0  0  0  0  0  0  0  0
   59.4005   33.8082   52.6058 H   0  0  0  0  0  0  0  0  0  0  0  0
   59.3439   34.8794   51.1650 H   0  0  0  0  0  0  0  0  0  0  0  0
   58.4424   33.3257   51.1650 H   0  0  0  0  0  0  0  0  0  0  0  0
  1  2  1  0
  2  3  1  0
  3  4  2  0
  4  5  1  0
  4  6  1  0
  6  7  2  0
  7  8  1  0
  8  9  2  0
  9 10  1  0
 10 11  2  0
 10 12  1  0
 12 13  1  0
 13 14  1  0
 14 15  2  0
 15 16  1  0
 16 17  2  0
 17 18  1  0
 18 19  1  0
 18 20  2  0
 17 21  1  0
 21 22  2  0
  9 23  1  0
 23 24  2  0
 23 25  1  0
 25 26  1  0
 26 27  2  0
 27 28  1  0
 28 29  1  0
 27  3  1  0
 26  7  1  0
 22 14  1  0
  1 30  1  0
  1 31  1  0
  1 32  1  0
  6 33  1  0
  8 34  1  0
 13 35  1  0
 13 36  1  0
 15 37  1  0
 16 38  1  0
 19 39  1  0
 21 40  1  0
 29 41  1  0
 29 42  1  0
 29 43  1  0
M  CHG  4   5  -1  12  -1  19  -1  25  -1
M  END
>  <UniqueID>  (86) 
78

>  <SMILES>  (86) 
COc1c([O-])cc2cc(C(=O)[N-]Cc3ccc(C([NH-])=O)cn3)c(=O)[n-]c2c1OC

>  <Energy>  (86) 
56.20235698146886

>  <Genealogy>  (86) 
COc1c([O-])cc2cc(C(=O)[N-]Cc3ccc(C([NH-])=O)cn3)c(=O)[n-]c2c1OC (protonated)
COc1c([O-])cc2cc(C(=O)[N-]Cc3ccc(C([NH-])=O)cn3)c(=O)[n-]c2c1OC (3D coordinates assigned)
COc1c([O-])cc2cc(C(=O)[N-]Cc3ccc(C([NH-])=O)cn3)c(=O)[n-]c2c1OC (optimized conformer: 56.20235698146886 kcal/mol)

>  <smiles>  (86) 
COc1c(O)cc2cc(C(=O)NCc3ccc(C(N)=O)cn3)c(=O)[nH]c2c1OC

>  <score_type>  (86) 
oracle

>  <origin>  (86) 
adg

>  <m_score__min__energy>  (86) 
-13.9

>  <m_primary>  (86) 
energy

$$$$
86:0
     RDKit          3D

 57 59  0  0  0  0  0  0  0  0999 V2000
   59.7540   33.8710   50.1830 C   0  0  0  0  0  0  0  0  0  0  0  0
   60.9400   33.7330   49.3140 N   0  0  0  0  0  0  0  0  0  0  0  0
   60.8100   33.7390   47.9410 C   0  0  0  0  0  0  0  0  0  0  0  0
   59.4780   33.9780   47.2490 C   0  0  0  0  0  0  0  0  0  0  0  0
   59.5290   33.6010   45.7410 C   0  0  2  0  0  0  0  0  0  0  0  0
   58.7620   34.6150   44.8780 C   0  0  0  0  0  0  0  0  0  0  0  0
   57.2380   34.4980   45.0240 C   0  0  0  0  0  0  0  0  0  0  0  0
   56.7690   33.1000   45.4640 C   0  0  0  0  0  0  0  0  0  0  0  0
   57.6460   32.0090   44.9820 N   0  0  1  0  0  0  0  0  0  0  0  0
   57.5510   31.8370   43.5060 C   0  0  0  0  0  0  0  0  0  0  0  0
   56.9570   30.4690   43.0980 C   0  0  0  0  0  0  0  0  0  0  0  0
   55.7480   30.0500   43.9530 C   0  0  0  0  0  0  0  0  0  0  0  0
   56.1460   29.5430   45.2270 O   0  0  0  0  0  0  0  0  0  0  0  0
   57.3450   28.8630   45.4970 C   0  0  0  0  0  0  0  0  0  0  0  0
   58.1910   29.2040   46.5720 C   0  0  0  0  0  0  0  0  0  0  0  0
   59.3640   28.4770   46.8010 C   0  0  0  0  0  0  0  0  0  0  0  0
   59.7060   27.4140   45.9620 C   0  0  0  0  0  0  0  0  0  0  0  0
   58.8760   27.0750   44.8910 C   0  0  0  0  0  0  0  0  0  0  0  0
   57.7030   27.7990   44.6590 C   0  0  0  0  0  0  0  0  0  0  0  0
   59.0540   32.1430   45.4580 C   0  0  0  0  0  0  0  0  0  0  0  0
   61.9340   33.5200   47.1430 C   0  0  0  0  0  0  0  0  0  0  0  0
   63.1690   33.3170   47.7390 C   0  0  0  0  0  0  0  0  0  0  0  0
   64.1750   33.1110   47.0040 O   0  0  0  0  0  0  0  0  0  0  0  0
   63.2880   33.3340   49.1000 N   0  0  0  0  0  0  0  0  0  0  0  0
   64.5970   33.0820   49.7270 C   0  0  0  0  0  0  0  0  0  0  0  0
   62.1720   33.4980   49.8820 C   0  0  0  0  0  0  0  0  0  0  0  0
   62.2790   33.4240   51.1400 O   0  0  0  0  0  0  0  0  0  0  0  0
   60.0657   33.8347   51.2373 H   0  0  0  0  0  0  0  0  0  0  0  0
   59.2602   34.8327   49.9795 H   0  0  0  0  0  0  0  0  0  0  0  0
   59.0526   33.0484   49.9795 H   0  0  0  0  0  0  0  0  0  0  0  0
   58.7071   33.3674   47.7419 H   0  0  0  0  0  0  0  0  0  0  0  0
   59.2440   35.0502   47.3234 H   0  0  0  0  0  0  0  0  0  0  0  0
   60.5900   33.6425   45.4537 H   0  0  0  0  0  0  0  0  0  0  0  0
   59.0656   35.6293   45.1763 H   0  0  0  0  0  0  0  0  0  0  0  0
   59.0083   34.4043   43.8268 H   0  0  0  0  0  0  0  0  0  0  0  0
   56.9029   35.2297   45.7739 H   0  0  0  0  0  0  0  0  0  0  0  0
   56.8024   34.6880   44.0319 H   0  0  0  0  0  0  0  0  0  0  0  0
   56.7460   33.0695   46.5633 H   0  0  0  0  0  0  0  0  0  0  0  0
   55.7743   32.9367   45.0237 H   0  0  0  0  0  0  0  0  0  0  0  0
   57.2620   31.1450   45.4260 H   0  0  0  0  0  0  0  0  0  0  0  0
   56.9099   32.6334   43.1001 H   0  0  0  0  0  0  0  0  0  0  0  0
   58.5723   31.8882   43.1007 H   0  0  0  0  0  0  0  0  0  0  0  0
   56.6379   30.5266   42.0469 H   0  0  0  0  0  0  0  0  0  0  0  0
   57.7421   29.7142   43.2525 H   0  0  0  0  0  0  0  0  0  0  0  0
   55.0999   30.9256   44.1055 H   0  0  0  0  0  0  0  0  0  0  0  0
   55.2146   29.2495   43.4194 H   0  0  0  0  0  0  0  0  0  0  0  0
   57.9281   30.0437   47.2322 H   0  0  0  0  0  0  0  0  0  0  0  0
   60.0187   28.7432   47.6439 H   0  0  0  0  0  0  0  0  0  0  0  0
   60.6288   26.8439   46.1447 H   0  0  0  0  0  0  0  0  0  0  0  0
   59.1455   26.2381   44.2300 H   0  0  0  0  0  0  0  0  0  0  0  0
   57.0555   27.5310   43.8111 H   0  0  0  0  0  0  0  0  0  0  0  0
   59.1534   31.5669   46.3898 H   0  0  0  0  0  0  0  0  0  0  0  0
   59.6873   31.7718   44.6387 H   0  0  0  0  0  0  0  0  0  0  0  0
   61.8403   33.5086   46.0471 H   0  0  0  0  0  0  0  0  0  0  0  0
   64.4894   33.1027   50.8215 H   0  0  0  0  0  0  0  0  0  0  0  0
   64.9698   32.0956   49.4138 H   0  0  0  0  0  0  0  0  0  0  0  0
   65.3093   33.8595   49.4138 H   0  0  0  0  0  0  0  0  0  0  0  0
  1  2  1  0
  2  3  1  0
  3  4  1  0
  4  5  1  0
  5  6  1  0
  6  7  1  0
  7  8  1  0
  8  9  1  0
  9 10  1  0
 10 11  1  0
 11 12  1  0
 12 13  1  0
 13 14  1  0
 14 15  2  0
 15 16  1  0
 16 17  2  0
 17 18  1  0
 18 19  2  0
  9 20  1  0
  3 21  2  0
 21 22  1  0
 22 23  2  0
 22 24  1  0
 24 25  1  0
 24 26  1  0
 26 27  2  0
 26  2  1  0
 20  5  1  0
 19 14  1  0
  1 28  1  0
  1 29  1  0
  1 30  1  0
  4 31  1  0
  4 32  1  0
  5 33  1  6
  6 34  1  0
  6 35  1  0
  7 36  1  0
  7 37  1  0
  8 38  1  0
  8 39  1  0
  9 40  1  1
 10 41  1  0
 10 42  1  0
 11 43  1  0
 11 44  1  0
 12 45  1  0
 12 46  1  0
 15 47  1  0
 16 48  1  0
 17 49  1  0
 18 50  1  0
 19 51  1  0
 20 52  1  0
 20 53  1  0
 21 54  1  0
 25 55  1  0
 25 56  1  0
 25 57  1  0
M  CHG  1   9   1
M  END
>  <UniqueID>  (87) 
79

>  <SMILES>  (87) 
Cn1c(C[C@@H]2CCC[N@@H+](CCCOc3ccccc3)C2)cc(=O)n(C)c1=O

>  <Energy>  (87) 
77.83423873902322

>  <Genealogy>  (87) 
Cn1c(CC2CCC[NH+](CCCOc3ccccc3)C2)cc(=O)n(C)c1=O (protonated)
Cn1c(C[C@@H]2CCC[N@@H+](CCCOc3ccccc3)C2)cc(=O)n(C)c1=O (chirality)
Cn1c(C[C@@H]2CCC[N@@H+](CCCOc3ccccc3)C2)cc(=O)n(C)c1=O (3D coordinates assigned)
Cn1c(C[C@@H]2CCC[N@@H+](CCCOc3ccccc3)C2)cc(=O)n(C)c1=O (nonaromatic ring conformer: 77.83423873902322 kcal/mol)

>  <smiles>  (87) 
Cn1c(CC2CCCN(CCCOc3ccccc3)C2)cc(=O)n(C)c1=O

>  <score_type>  (87) 
oracle

>  <origin>  (87) 
adg

>  <m_score__min__energy>  (87) 
-6.5599999999999996

>  <m_primary>  (87) 
energy

$$$$
87:0
     RDKit          3D

 49 52  0  0  0  0  0  0  0  0999 V2000
   64.5253   33.6879   48.9648 H   0  0  0  0  0  0  0  0  0  0  0  0
   63.4310   33.7750   49.0350 C   0  0  0  0  0  0  0  0  0  0  0  0
   62.8150   33.6430   50.2400 N   0  0  0  0  0  0  0  0  0  0  0  0
   61.4640   33.7500   50.3480 C   0  0  0  0  0  0  0  0  0  0  0  0
   60.8940   33.5890   51.5040 N   0  0  0  0  0  0  0  0  0  0  0  0
   59.6400   32.9130   51.6910 C   0  0  0  0  0  0  0  0  0  0  0  0
   59.3850   31.7610   50.9350 C   0  0  0  0  0  0  0  0  0  0  0  0
   60.1595   31.3687   50.2595 H   0  0  0  0  0  0  0  0  0  0  0  0
   58.1540   31.1070   51.0330 C   0  0  0  0  0  0  0  0  0  0  0  0
   57.9605   30.2070   50.4309 H   0  0  0  0  0  0  0  0  0  0  0  0
   57.1710   31.5940   51.8930 C   0  0  0  0  0  0  0  0  0  0  0  0
   56.1962   31.0881   51.9554 H   0  0  0  0  0  0  0  0  0  0  0  0
   57.4220   32.7240   52.6760 C   0  0  0  0  0  0  0  0  0  0  0  0
   56.6427   33.1021   53.3540 H   0  0  0  0  0  0  0  0  0  0  0  0
   58.6620   33.3810   52.6040 C   0  0  0  0  0  0  0  0  0  0  0  0
   58.8990   34.5800   53.4810 C   0  0  0  0  0  0  0  0  0  0  0  0
   58.8395   34.2791   54.5374 H   0  0  0  0  0  0  0  0  0  0  0  0
   59.8965   34.9947   53.2735 H   0  0  0  0  0  0  0  0  0  0  0  0
   58.1343   35.3430   53.2735 H   0  0  0  0  0  0  0  0  0  0  0  0
   60.7200   33.9930   49.2350 N   0  0  0  0  0  0  0  0  0  0  0  0
   61.2910   34.1280   48.0090 C   0  0  0  0  0  0  0  0  0  0  0  0
   60.5130   34.4110   46.8790 O   0  0  0  0  0  0  0  0  0  0  0  0
   59.5690   33.5410   46.3090 C   0  0  0  0  0  0  0  0  0  0  0  0
   59.4500   32.1950   46.7050 C   0  0  0  0  0  0  0  0  0  0  0  0
   60.1268   31.7877   47.4705 H   0  0  0  0  0  0  0  0  0  0  0  0
   58.4760   31.3740   46.1300 C   0  0  0  0  0  0  0  0  0  0  0  0
   58.3611   30.3358   46.4749 H   0  0  0  0  0  0  0  0  0  0  0  0
   57.6430   31.8700   45.1130 C   0  0  0  0  0  0  0  0  0  0  0  0
   56.6450   31.0490   44.4910 N   0  0  0  0  0  0  0  0  0  0  0  0
   56.3450   29.6870   44.8260 C   0  0  0  0  0  0  0  0  0  0  0  0
   55.1450   29.3490   44.9930 O   0  0  0  0  0  0  0  0  0  0  0  0
   57.3730   28.6980   44.9750 N   0  0  0  0  0  0  0  0  0  0  0  0
   57.2680   27.4890   45.7410 C   0  0  0  0  0  0  0  0  0  0  0  0
   56.1140   26.6870   45.6800 C   0  0  0  0  0  0  0  0  0  0  0  0
   55.2691   26.9918   45.0450 H   0  0  0  0  0  0  0  0  0  0  0  0
   56.0350   25.5060   46.4210 C   0  0  0  0  0  0  0  0  0  0  0  0
   55.1347   24.8771   46.3584 H   0  0  0  0  0  0  0  0  0  0  0  0
   57.1000   25.1220   47.2430 C   0  0  0  0  0  0  0  0  0  0  0  0
   57.0020   23.6360   48.1690 Cl  0  0  0  0  0  0  0  0  0  0  0  0
   58.2400   25.9260   47.3280 C   0  0  0  0  0  0  0  0  0  0  0  0
   59.0738   25.6270   47.9802 H   0  0  0  0  0  0  0  0  0  0  0  0
   58.3250   27.1110   46.5860 C   0  0  0  0  0  0  0  0  0  0  0  0
   59.7810   28.0890   46.6970 Cl  0  0  0  0  0  0  0  0  0  0  0  0
   57.7710   33.2040   44.7120 C   0  0  0  0  0  0  0  0  0  0  0  0
   57.1078   33.6062   43.9320 H   0  0  0  0  0  0  0  0  0  0  0  0
   58.7360   34.0290   45.2960 C   0  0  0  0  0  0  0  0  0  0  0  0
   58.8416   35.0700   44.9568 H   0  0  0  0  0  0  0  0  0  0  0  0
   62.6760   34.0210   47.8870 C   0  0  0  0  0  0  0  0  0  0  0  0
   63.1633   34.1282   46.9067 H   0  0  0  0  0  0  0  0  0  0  0  0
  1  2  1  0
  2  3  1  0
  3  4  1  0
  4  5  2  0
  5  6  1  0
  6  7  2  0
  7  8  1  0
  7  9  1  0
  9 10  1  0
  9 11  2  0
 11 12  1  0
 11 13  1  0
 13 14  1  0
 13 15  2  0
 15 16  1  0
 16 17  1  0
 16 18  1  0
 16 19  1  0
  4 20  1  0
 20 21  2  0
 21 22  1  0
 22 23  1  0
 23 24  2  0
 24 25  1  0
 24 26  1  0
 26 27  1  0
 26 28  2  0
 28 29  1  0
 29 30  1  0
 30 31  2  0
 30 32  1  0
 32 33  1  0
 33 34  2  0
 34 35  1  0
 34 36  1  0
 36 37  1  0
 36 38  2  0
 38 39  1  0
 38 40  1  0
 40 41  1  0
 40 42  2  0
 42 43  1  0
 28 44  1  0
 44 45  1  0
 44 46  2  0
 46 47  1  0
 21 48  1  0
 48 49  1  0
 48  2  2  0
 15  6  1  0
 46 23  1  0
 42 33  1  0
M  CHG  3   3  -1  29  -1  32  -1
M  END
>  <UniqueID>  (88) 
80

>  <SMILES>  (88) 
Cc1ccccc1/N=c1\nc(Oc2ccc([N-]C(=O)[N-]c3ccc(Cl)cc3Cl)cc2)cc[n-]1

>  <Energy>  (88) 
73.21847096844724

>  <Genealogy>  (88) 
Cc1ccccc1N=c1nc(Oc2ccc([N-]C(=O)[N-]c3ccc(Cl)cc3Cl)cc2)cc[n-]1 (protonated)
Cc1ccccc1/N=c1\nc(Oc2ccc([N-]C(=O)[N-]c3ccc(Cl)cc3Cl)cc2)cc[n-]1 (cis-trans isomerization)
Cc1ccccc1/N=c1\nc(Oc2ccc([N-]C(=O)[N-]c3ccc(Cl)cc3Cl)cc2)cc[n-]1 (3D coordinates assigned)
Cc1ccccc1/N=c1\nc(Oc2ccc([N-]C(=O)[N-]c3ccc(Cl)cc3Cl)cc2)cc[n-]1 (optimized conformer: 73.21847096844724 kcal/mol)

>  <smiles>  (88) 
Cc1ccccc1N=c1nc(Oc2ccc(NC(=O)Nc3ccc(Cl)cc3Cl)cc2)cc[nH]1

>  <score_type>  (88) 
oracle

>  <origin>  (88) 
adg

>  <m_score__min__energy>  (88) 
-12.449999999999999

>  <m_primary>  (88) 
energy

$$$$
88:0
     RDKit          3D

 53 55  0  0  0  0  0  0  0  0999 V2000
   60.1600   34.2260   48.5120 C   0  0  0  0  0  0  0  0  0  0  0  0
   60.3700   33.6530   47.2260 O   0  0  0  0  0  0  0  0  0  0  0  0
   59.3520   33.1460   46.4020 C   0  0  0  0  0  0  0  0  0  0  0  0
   58.4920   34.0000   45.6820 C   0  0  0  0  0  0  0  0  0  0  0  0
   57.4870   33.4710   44.8720 C   0  0  0  0  0  0  0  0  0  0  0  0
   57.3160   32.0910   44.7820 C   0  0  0  0  0  0  0  0  0  0  0  0
   58.1560   31.2330   45.4920 C   0  0  0  0  0  0  0  0  0  0  0  0
   59.1880   31.7470   46.3010 C   0  0  0  0  0  0  0  0  0  0  0  0
   60.0990   30.8720   46.9970 N   0  0  0  0  0  0  0  0  0  0  0  0
   59.6260   29.3880   47.7620 S   0  0  0  0  0  0  0  0  0  0  0  0
   58.6080   29.6820   48.8280 O   0  0  0  0  0  0  0  0  0  0  0  0
   60.8170   28.7520   48.4220 O   0  0  0  0  0  0  0  0  0  0  0  0
   58.9050   28.3070   46.5640 C   0  0  0  0  0  0  0  0  0  0  0  0
   57.7450   27.5880   46.8880 C   0  0  0  0  0  0  0  0  0  0  0  0
   57.1690   26.7030   45.9650 C   0  0  0  0  0  0  0  0  0  0  0  0
   55.9890   25.9070   46.3560 C   0  0  0  0  0  0  0  0  0  0  0  0
   56.0840   25.1150   47.3310 O   0  0  0  0  0  0  0  0  0  0  0  0
   54.7480   25.9650   45.6340 N   0  0  0  0  0  0  0  0  0  0  0  0
   53.8640   24.8380   45.3360 C   0  0  0  0  0  0  0  0  0  0  0  0
   54.5750   23.7760   44.4840 C   0  0  0  0  0  0  0  0  0  0  0  0
   55.7480   23.2360   45.2020 N   0  0  0  0  0  0  0  0  0  0  0  0
   55.4660   21.8800   45.7070 C   0  0  0  0  0  0  0  0  0  0  0  0
   56.6780   21.3370   46.4930 C   0  0  0  0  0  0  0  0  0  0  0  0
   57.8270   22.1530   46.3470 O   0  0  0  0  0  0  0  0  0  0  0  0
   58.0790   22.3790   44.9760 C   0  0  0  0  0  0  0  0  0  0  0  0
   56.9520   23.2170   44.3410 C   0  0  0  0  0  0  0  0  0  0  0  0
   57.7250   26.5880   44.6840 C   0  0  0  0  0  0  0  0  0  0  0  0
   58.8840   27.2900   44.3550 C   0  0  0  0  0  0  0  0  0  0  0  0
   59.4900   28.1360   45.2910 C   0  0  0  0  0  0  0  0  0  0  0  0
   60.9800   28.9540   44.8310 Cl  0  0  0  0  0  0  0  0  0  0  0  0
   60.4283   33.4939   49.2879 H   0  0  0  0  0  0  0  0  0  0  0  0
   60.7880   35.1225   48.6209 H   0  0  0  0  0  0  0  0  0  0  0  0
   59.1014   34.5044   48.6209 H   0  0  0  0  0  0  0  0  0  0  0  0
   58.6142   35.0904   45.7594 H   0  0  0  0  0  0  0  0  0  0  0  0
   56.8285   34.1442   44.3035 H   0  0  0  0  0  0  0  0  0  0  0  0
   56.5167   31.6772   44.1496 H   0  0  0  0  0  0  0  0  0  0  0  0
   58.0111   30.1450   45.4194 H   0  0  0  0  0  0  0  0  0  0  0  0
   61.0860   31.1740   47.1500 H   0  0  0  0  0  0  0  0  0  0  0  0
   57.2819   27.7198   47.8770 H   0  0  0  0  0  0  0  0  0  0  0  0
   53.5386   24.3790   46.2813 H   0  0  0  0  0  0  0  0  0  0  0  0
   53.0015   25.2163   44.7676 H   0  0  0  0  0  0  0  0  0  0  0  0
   53.8739   22.9563   44.2682 H   0  0  0  0  0  0  0  0  0  0  0  0
   54.9149   24.2412   43.5470 H   0  0  0  0  0  0  0  0  0  0  0  0
   54.5896   21.9152   46.3708 H   0  0  0  0  0  0  0  0  0  0  0  0
   55.2667   21.2152   44.8536 H   0  0  0  0  0  0  0  0  0  0  0  0
   56.4136   21.2871   47.5596 H   0  0  0  0  0  0  0  0  0  0  0  0
   56.9201   20.3424   46.0903 H   0  0  0  0  0  0  0  0  0  0  0  0
   59.0323   22.9173   44.8689 H   0  0  0  0  0  0  0  0  0  0  0  0
   58.1269   21.4074   44.4624 H   0  0  0  0  0  0  0  0  0  0  0  0
   57.3080   24.2481   44.1994 H   0  0  0  0  0  0  0  0  0  0  0  0
   56.6825   22.7633   43.3758 H   0  0  0  0  0  0  0  0  0  0  0  0
   57.2452   25.9412   43.9347 H   0  0  0  0  0  0  0  0  0  0  0  0
   59.3249   27.1782   43.3534 H   0  0  0  0  0  0  0  0  0  0  0  0
  1  2  1  0
  2  3  1  0
  3  4  2  0
  4  5  1  0
  5  6  2  0
  6  7  1  0
  7  8  2  0
  8  9  1  0
  9 10  1  0
 10 11  2  0
 10 12  2  0
 10 13  1  0
 13 14  2  0
 14 15  1  0
 15 16  1  0
 16 17  2  0
 16 18  1  0
 18 19  1  0
 19 20  1  0
 20 21  1  0
 21 22  1  0
 22 23  1  0
 23 24  1  0
 24 25  1  0
 25 26  1  0
 15 27  2  0
 27 28  1  0
 28 29  2  0
 29 30  1  0
  8  3  1  0
 29 13  1  0
 26 21  1  0
  1 31  1  0
  1 32  1  0
  1 33  1  0
  4 34  1  0
  5 35  1  0
  6 36  1  0
  7 37  1  0
  9 38  1  0
 14 39  1  0
 19 40  1  0
 19 41  1  0
 20 42  1  0
 20 43  1  0
 22 44  1  0
 22 45  1  0
 23 46  1  0
 23 47  1  0
 25 48  1  0
 25 49  1  0
 26 50  1  0
 26 51  1  0
 27 52  1  0
 28 53  1  0
M  CHG  1  18  -1
M  END
>  <UniqueID>  (89) 
81

>  <SMILES>  (89) 
COc1ccccc1NS(=O)(=O)c1cc(C(=O)[N-]CCN2CCOCC2)ccc1Cl

>  <Energy>  (89) 
67.44095393238112

>  <Genealogy>  (89) 
COc1ccccc1NS(=O)(=O)c1cc(C(=O)[N-]CCN2CCOCC2)ccc1Cl (protonated)
COc1ccccc1NS(=O)(=O)c1cc(C(=O)[N-]CCN2CCOCC2)ccc1Cl (3D coordinates assigned)
COc1ccccc1NS(=O)(=O)c1cc(C(=O)[N-]CCN2CCOCC2)ccc1Cl (nonaromatic ring conformer: 67.44095393238112 kcal/mol)

>  <smiles>  (89) 
COc1ccccc1NS(=O)(=O)c1cc(C(=O)NCCN2CCOCC2)ccc1Cl

>  <score_type>  (89) 
oracle

>  <origin>  (89) 
adg

>  <m_score__min__energy>  (89) 
-11.51

>  <m_primary>  (89) 
energy

$$$$
89:0
     RDKit          3D

 41 43  0  0  0  0  0  0  0  0999 V2000
   57.2510   33.5180   46.7170 C   0  0  0  0  0  0  0  0  0  0  0  0
   58.6860   34.0300   46.5740 C   0  0  0  0  0  0  0  0  0  0  0  0
   58.8980   34.6830   45.2050 C   0  0  0  0  0  0  0  0  0  0  0  0
   59.6340   32.9240   46.7610 N   0  0  0  0  0  0  0  0  0  0  0  0
   60.6980   32.9800   47.5450 N   0  0  0  0  0  0  0  0  0  0  0  0
   61.2800   31.7910   47.5660 N   0  0  0  0  0  0  0  0  0  0  0  0
   60.6050   30.9420   46.8020 N   0  0  0  0  0  0  0  0  0  0  0  0
   59.5830   31.6570   46.2960 C   0  0  0  0  0  0  0  0  0  0  0  0
   58.5770   31.0940   45.3730 C   0  0  0  0  0  0  0  0  0  0  0  0
   58.3220   31.7340   44.1500 C   0  0  0  0  0  0  0  0  0  0  0  0
   57.3640   31.2210   43.2730 C   0  0  0  0  0  0  0  0  0  0  0  0
   56.6340   30.0810   43.6190 C   0  0  0  0  0  0  0  0  0  0  0  0
   56.8420   29.4580   44.8610 C   0  0  0  0  0  0  0  0  0  0  0  0
   56.1150   28.2780   45.2410 N   0  0  0  0  0  0  0  0  0  0  0  0
   56.6780   27.1950   46.0030 C   0  0  0  0  0  0  0  0  0  0  0  0
   57.8610   27.2620   46.4330 O   0  0  0  0  0  0  0  0  0  0  0  0
   55.8990   26.0330   46.3130 N   0  0  0  0  0  0  0  0  0  0  0  0
   55.9940   24.7650   45.6520 C   0  0  0  0  0  0  0  0  0  0  0  0
   56.7150   24.6790   44.4530 C   0  0  0  0  0  0  0  0  0  0  0  0
   56.8100   23.4630   43.7710 C   0  0  0  0  0  0  0  0  0  0  0  0
   56.1670   22.3270   44.2710 C   0  0  0  0  0  0  0  0  0  0  0  0
   55.4190   22.4100   45.4490 C   0  0  0  0  0  0  0  0  0  0  0  0
   55.3210   23.6250   46.1360 C   0  0  0  0  0  0  0  0  0  0  0  0
   54.5370   23.6950   47.2410 F   0  0  0  0  0  0  0  0  0  0  0  0
   57.8220   29.9640   45.7280 C   0  0  0  0  0  0  0  0  0  0  0  0
   56.9984   33.4279   47.7838 H   0  0  0  0  0  0  0  0  0  0  0  0
   56.5597   34.2250   46.2350 H   0  0  0  0  0  0  0  0  0  0  0  0
   57.1633   32.5331   46.2350 H   0  0  0  0  0  0  0  0  0  0  0  0
   58.8630   34.7908   47.3485 H   0  0  0  0  0  0  0  0  0  0  0  0
   59.2350   35.7211   45.3422 H   0  0  0  0  0  0  0  0  0  0  0  0
   59.6599   34.1211   44.6448 H   0  0  0  0  0  0  0  0  0  0  0  0
   57.9514   34.6758   44.6448 H   0  0  0  0  0  0  0  0  0  0  0  0
   58.8792   32.6436   43.8813 H   0  0  0  0  0  0  0  0  0  0  0  0
   57.1836   31.7157   42.3072 H   0  0  0  0  0  0  0  0  0  0  0  0
   55.8939   29.6699   42.9166 H   0  0  0  0  0  0  0  0  0  0  0  0
   55.1470   28.1710   44.8640 H   0  0  0  0  0  0  0  0  0  0  0  0
   57.2089   25.5739   44.0466 H   0  0  0  0  0  0  0  0  0  0  0  0
   57.3916   23.3997   42.8394 H   0  0  0  0  0  0  0  0  0  0  0  0
   56.2496   21.3684   43.7379 H   0  0  0  0  0  0  0  0  0  0  0  0
   54.9060   21.5176   45.8370 H   0  0  0  0  0  0  0  0  0  0  0  0
   58.0008   29.4711   46.6950 H   0  0  0  0  0  0  0  0  0  0  0  0
  1  2  1  0
  2  3  1  0
  2  4  1  0
  4  5  1  0
  5  6  2  0
  6  7  1  0
  7  8  2  0
  8  9  1  0
  9 10  2  0
 10 11  1  0
 11 12  2  0
 12 13  1  0
 13 14  1  0
 14 15  1  0
 15 16  2  0
 15 17  1  0
 17 18  1  0
 18 19  2  0
 19 20  1  0
 20 21  2  0
 21 22  1  0
 22 23  2  0
 23 24  1  0
 13 25  2  0
  8  4  1  0
 25  9  1  0
 23 18  1  0
  1 26  1  0
  1 27  1  0
  1 28  1  0
  2 29  1  0
  3 30  1  0
  3 31  1  0
  3 32  1  0
 10 33  1  0
 11 34  1  0
 12 35  1  0
 14 36  1  0
 19 37  1  0
 20 38  1  0
 21 39  1  0
 22 40  1  0
 25 41  1  0
M  CHG  1  17  -1
M  END
>  <UniqueID>  (90) 
82

>  <SMILES>  (90) 
CC(C)n1nnnc1-c1cccc(NC(=O)[N-]c2ccccc2F)c1

>  <Energy>  (90) 
92.936867800332

>  <Genealogy>  (90) 
CC(C)n1nnnc1-c1cccc(NC(=O)[N-]c2ccccc2F)c1 (protonated)
CC(C)n1nnnc1-c1cccc(NC(=O)[N-]c2ccccc2F)c1 (3D coordinates assigned)
CC(C)n1nnnc1-c1cccc(NC(=O)[N-]c2ccccc2F)c1 (optimized conformer: 92.936867800332 kcal/mol)

>  <smiles>  (90) 
CC(C)n1nnnc1-c1cccc(NC(=O)Nc2ccccc2F)c1

>  <score_type>  (90) 
oracle

>  <origin>  (90) 
adg

>  <m_score__min__energy>  (90) 
-10.210000000000001

>  <m_primary>  (90) 
energy

$$$$
90:0
     RDKit          3D

 54 57  0  0  0  0  0  0  0  0999 V2000
   55.6920   29.6850   43.4150 C   0  0  0  0  0  0  0  0  0  0  0  0
   56.6180   30.8650   43.3840 C   0  0  0  0  0  0  0  0  0  0  0  0
   57.0800   31.3670   42.1600 C   0  0  0  0  0  0  0  0  0  0  0  0
   57.9740   32.4390   42.1330 C   0  0  0  0  0  0  0  0  0  0  0  0
   58.4200   33.0120   43.3260 C   0  0  0  0  0  0  0  0  0  0  0  0
   57.9760   32.5180   44.5650 C   0  0  0  0  0  0  0  0  0  0  0  0
   58.4590   33.1060   45.8380 C   0  0  0  0  0  0  0  0  0  0  0  0
   58.3190   34.3430   46.0430 O   0  0  0  0  0  0  0  0  0  0  0  0
   59.1290   32.2950   46.8180 N   0  0  0  0  0  0  0  0  0  0  0  0
   59.2440   32.6520   48.2060 C   0  0  0  0  0  0  0  0  0  0  0  0
   59.7830   33.8890   48.6010 C   0  0  0  0  0  0  0  0  0  0  0  0
   59.8610   34.2250   49.9530 C   0  0  0  0  0  0  0  0  0  0  0  0
   59.3930   33.3380   50.9260 C   0  0  0  0  0  0  0  0  0  0  0  0
   58.8340   32.1060   50.5510 C   0  0  0  0  0  0  0  0  0  0  0  0
   58.3300   31.1780   51.5820 C   0  0  0  0  0  0  0  0  0  0  0  0
   57.5960   30.0760   51.3260 N   0  0  0  0  0  0  0  0  0  0  0  0
   57.3430   29.5140   52.4970 N   0  0  0  0  0  0  0  0  0  0  0  0
   57.9310   30.2950   53.4210 C   0  0  0  0  0  0  0  0  0  0  0  0
   57.8840   29.9780   55.1810 S   0  0  0  0  0  0  0  0  0  0  0  0
   56.0600   29.9160   55.2670 C   0  0  0  0  0  0  0  0  0  0  0  0
   55.5280   28.6750   54.6020 C   0  0  0  0  0  0  0  0  0  0  0  0
   56.3130   27.7150   54.3840 O   0  0  0  0  0  0  0  0  0  0  0  0
   54.1390   28.5150   54.2860 N   0  0  0  0  0  0  0  0  0  0  0  0
   53.4580   29.1070   53.1730 C   0  0  0  0  0  0  0  0  0  0  0  0
   54.1330   30.0350   52.3760 C   0  0  0  0  0  0  0  0  0  0  0  0
   53.4880   30.6420   51.2950 C   0  0  0  0  0  0  0  0  0  0  0  0
   52.1430   30.3450   51.0080 C   0  0  0  0  0  0  0  0  0  0  0  0
   51.4540   30.9860   49.8640 C   0  0  0  0  0  0  0  0  0  0  0  0
   50.9940   32.3340   49.9560 N   0  0  0  0  0  0  0  0  0  0  0  0
   51.2660   30.3460   48.7950 O   0  0  0  0  0  0  0  0  0  0  0  0
   51.4580   29.4360   51.8350 C   0  0  0  0  0  0  0  0  0  0  0  0
   52.1090   28.8290   52.9140 C   0  0  0  0  0  0  0  0  0  0  0  0
   58.5400   31.3160   52.8690 O   0  0  0  0  0  0  0  0  0  0  0  0
   58.7560   31.7740   49.1870 C   0  0  0  0  0  0  0  0  0  0  0  0
   57.0820   31.4300   44.5830 C   0  0  0  0  0  0  0  0  0  0  0  0
   55.4789   29.4135   44.4594 H   0  0  0  0  0  0  0  0  0  0  0  0
   54.7525   29.9426   42.9041 H   0  0  0  0  0  0  0  0  0  0  0  0
   56.1656   28.8337   42.9041 H   0  0  0  0  0  0  0  0  0  0  0  0
   56.7372   30.9150   41.2175 H   0  0  0  0  0  0  0  0  0  0  0  0
   58.3282   32.8335   41.1692 H   0  0  0  0  0  0  0  0  0  0  0  0
   59.1242   33.8565   43.2959 H   0  0  0  0  0  0  0  0  0  0  0  0
   59.6510   31.4530   46.4850 H   0  0  0  0  0  0  0  0  0  0  0  0
   60.1452   34.5958   47.8400 H   0  0  0  0  0  0  0  0  0  0  0  0
   60.2923   35.1912   50.2538 H   0  0  0  0  0  0  0  0  0  0  0  0
   59.4629   33.6062   51.9905 H   0  0  0  0  0  0  0  0  0  0  0  0
   55.7498   29.9192   56.3223 H   0  0  0  0  0  0  0  0  0  0  0  0
   55.6555   30.7942   54.7425 H   0  0  0  0  0  0  0  0  0  0  0  0
   55.1792   30.2896   52.6009 H   0  0  0  0  0  0  0  0  0  0  0  0
   54.0359   31.3572   50.6639 H   0  0  0  0  0  0  0  0  0  0  0  0
   50.1940   32.6690   49.3750 H   0  0  0  0  0  0  0  0  0  0  0  0
   50.4028   29.2010   51.6316 H   0  0  0  0  0  0  0  0  0  0  0  0
   51.5597   28.1303   53.5622 H   0  0  0  0  0  0  0  0  0  0  0  0
   58.3078   30.8159   48.8851 H   0  0  0  0  0  0  0  0  0  0  0  0
   56.7439   31.0188   45.5456 H   0  0  0  0  0  0  0  0  0  0  0  0
  1  2  1  0
  2  3  2  0
  3  4  1  0
  4  5  2  0
  5  6  1  0
  6  7  1  0
  7  8  2  0
  7  9  1  0
  9 10  1  0
 10 11  2  0
 11 12  1  0
 12 13  2  0
 13 14  1  0
 14 15  1  0
 15 16  2  0
 16 17  1  0
 17 18  2  0
 18 19  1  0
 19 20  1  0
 20 21  1  0
 21 22  2  0
 21 23  1  0
 23 24  1  0
 24 25  2  0
 25 26  1  0
 26 27  2  0
 27 28  1  0
 28 29  1  0
 28 30  2  0
 27 31  1  0
 31 32  2  0
 18 33  1  0
 14 34  2  0
  6 35  2  0
 35  2  1  0
 34 10  1  0
 33 15  1  0
 32 24  1  0
  1 36  1  0
  1 37  1  0
  1 38  1  0
  3 39  1  0
  4 40  1  0
  5 41  1  0
  9 42  1  0
 11 43  1  0
 12 44  1  0
 13 45  1  0
 20 46  1  0
 20 47  1  0
 25 48  1  0
 26 49  1  0
 29 50  1  0
 31 51  1  0
 32 52  1  0
 34 53  1  0
 35 54  1  0
M  CHG  2  23  -1  29  -1
M  END
>  <UniqueID>  (91) 
83

>  <SMILES>  (91) 
Cc1cccc(C(=O)Nc2cccc(-c3nnc(SCC(=O)[N-]c4ccc(C([NH-])=O)cc4)o3)c2)c1

>  <Energy>  (91) 
99.73327696794563

>  <Genealogy>  (91) 
Cc1cccc(C(=O)Nc2cccc(-c3nnc(SCC(=O)[N-]c4ccc(C([NH-])=O)cc4)o3)c2)c1 (protonated)
Cc1cccc(C(=O)Nc2cccc(-c3nnc(SCC(=O)[N-]c4ccc(C([NH-])=O)cc4)o3)c2)c1 (3D coordinates assigned)
Cc1cccc(C(=O)Nc2cccc(-c3nnc(SCC(=O)[N-]c4ccc(C([NH-])=O)cc4)o3)c2)c1 (optimized conformer: 99.73327696794563 kcal/mol)

>  <smiles>  (91) 
Cc1cccc(C(=O)Nc2cccc(-c3nnc(SCC(=O)Nc4ccc(C(N)=O)cc4)o3)c2)c1

>  <score_type>  (91) 
oracle

>  <origin>  (91) 
adg

>  <m_score__min__energy>  (91) 
-13.69

>  <m_primary>  (91) 
energy

$$$$
91:0
     RDKit          3D

 50 52  0  0  0  0  0  0  0  0999 V2000
   58.8750   25.9970   45.6030 C   0  0  0  0  0  0  0  0  0  0  0  0
   57.6180   25.6880   45.2820 C   0  0  0  0  0  0  0  0  0  0  0  0
   57.3150   24.4750   43.8330 Br  0  0  0  0  0  0  0  0  0  0  0  0
   56.4640   26.2610   46.0030 C   0  0  0  0  0  0  0  0  0  0  0  0
   55.9490   25.6120   46.9510 O   0  0  0  0  0  0  0  0  0  0  0  0
   55.8970   27.5110   45.5850 N   0  0  0  0  0  0  0  0  0  0  0  0
   56.5980   28.7330   45.3380 C   0  0  0  0  0  0  0  0  0  0  0  0
   56.2380   29.6050   44.3000 C   0  0  0  0  0  0  0  0  0  0  0  0
   56.9460   30.7890   44.0990 C   0  0  0  0  0  0  0  0  0  0  0  0
   58.0210   31.1300   44.9380 C   0  0  0  0  0  0  0  0  0  0  0  0
   58.7720   32.3390   44.7490 N   0  0  0  0  0  0  0  0  0  0  0  0
   58.4760   33.8350   45.5750 S   0  0  0  0  0  0  0  0  0  0  0  0
   57.0140   34.1620   45.5030 O   0  0  0  0  0  0  0  0  0  0  0  0
   59.2520   34.9320   44.9020 O   0  0  0  0  0  0  0  0  0  0  0  0
   58.9390   33.6850   47.2680 C   0  0  0  0  0  0  0  0  0  0  0  0
   60.0090   34.4420   47.7670 C   0  0  0  0  0  0  0  0  0  0  0  0
   60.3750   34.3380   49.1140 C   0  0  0  0  0  0  0  0  0  0  0  0
   59.6750   33.4770   49.9650 C   0  0  0  0  0  0  0  0  0  0  0  0
   58.6120   32.7170   49.4710 C   0  0  0  0  0  0  0  0  0  0  0  0
   58.2430   32.8190   48.1250 C   0  0  0  0  0  0  0  0  0  0  0  0
   58.3680   30.2800   46.0000 C   0  0  0  0  0  0  0  0  0  0  0  0
   59.4380   30.6550   46.8330 O   0  0  0  0  0  0  0  0  0  0  0  0
   60.8220   30.5580   46.4930 C   0  0  0  0  0  0  0  0  0  0  0  0
   61.6960   31.2250   47.5360 C   0  0  0  0  0  0  0  0  0  0  0  0
   62.5910   32.2320   47.1260 C   0  0  0  0  0  0  0  0  0  0  0  0
   63.4180   32.8710   48.0500 C   0  0  0  0  0  0  0  0  0  0  0  0
   63.3750   32.5060   49.3950 C   0  0  0  0  0  0  0  0  0  0  0  0
   62.5180   31.4900   49.8170 C   0  0  0  0  0  0  0  0  0  0  0  0
   61.6850   30.8260   48.8990 C   0  0  0  0  0  0  0  0  0  0  0  0
   60.7950   29.7180   49.3940 C   0  0  0  0  0  0  0  0  0  0  0  0
   57.6450   29.0860   46.1950 C   0  0  0  0  0  0  0  0  0  0  0  0
   59.0761   26.6917   46.4318 H   0  0  0  0  0  0  0  0  0  0  0  0
   59.7107   25.5571   45.0390 H   0  0  0  0  0  0  0  0  0  0  0  0
   55.3934   29.3535   43.6417 H   0  0  0  0  0  0  0  0  0  0  0  0
   56.6610   31.4620   43.2769 H   0  0  0  0  0  0  0  0  0  0  0  0
   60.5616   35.1187   47.0986 H   0  0  0  0  0  0  0  0  0  0  0  0
   61.2137   34.9338   49.5034 H   0  0  0  0  0  0  0  0  0  0  0  0
   59.9616   33.3981   51.0241 H   0  0  0  0  0  0  0  0  0  0  0  0
   58.0644   32.0376   50.1408 H   0  0  0  0  0  0  0  0  0  0  0  0
   57.4059   32.2193   47.7382 H   0  0  0  0  0  0  0  0  0  0  0  0
   61.0990   29.4959   46.4202 H   0  0  0  0  0  0  0  0  0  0  0  0
   60.9789   31.0693   45.5318 H   0  0  0  0  0  0  0  0  0  0  0  0
   62.6385   32.5180   46.0649 H   0  0  0  0  0  0  0  0  0  0  0  0
   64.1046   33.6634   47.7173 H   0  0  0  0  0  0  0  0  0  0  0  0
   64.0181   33.0203   50.1244 H   0  0  0  0  0  0  0  0  0  0  0  0
   62.4934   31.2050   50.8792 H   0  0  0  0  0  0  0  0  0  0  0  0
   60.7918   29.7140   50.4940 H   0  0  0  0  0  0  0  0  0  0  0  0
   59.7711   29.8775   49.0249 H   0  0  0  0  0  0  0  0  0  0  0  0
   61.1716   28.7526   49.0249 H   0  0  0  0  0  0  0  0  0  0  0  0
   57.9078   28.4230   47.0325 H   0  0  0  0  0  0  0  0  0  0  0  0
  1  2  2  0
  2  3  1  0
  2  4  1  0
  4  5  2  0
  4  6  1  0
  6  7  1  0
  7  8  2  0
  8  9  1  0
  9 10  2  0
 10 11  1  0
 11 12  1  0
 12 13  2  0
 12 14  2  0
 12 15  1  0
 15 16  2  0
 16 17  1  0
 17 18  2  0
 18 19  1  0
 19 20  2  0
 10 21  1  0
 21 22  1  0
 22 23  1  0
 23 24  1  0
 24 25  2  0
 25 26  1  0
 26 27  2  0
 27 28  1  0
 28 29  2  0
 29 30  1  0
 21 31  2  0
 31  7  1  0
 20 15  1  0
 29 24  1  0
  1 32  1  0
  1 33  1  0
  8 34  1  0
  9 35  1  0
 16 36  1  0
 17 37  1  0
 18 38  1  0
 19 39  1  0
 20 40  1  0
 23 41  1  0
 23 42  1  0
 25 43  1  0
 26 44  1  0
 27 45  1  0
 28 46  1  0
 30 47  1  0
 30 48  1  0
 30 49  1  0
 31 50  1  0
M  CHG  2   6  -1  11  -1
M  END
>  <UniqueID>  (92) 
84

>  <SMILES>  (92) 
C=C(Br)C(=O)[N-]c1ccc([N-]S(=O)(=O)c2ccccc2)c(OCc2ccccc2C)c1

>  <Energy>  (92) 
58.84243640145651

>  <Genealogy>  (92) 
C=C(Br)C(=O)[N-]c1ccc([N-]S(=O)(=O)c2ccccc2)c(OCc2ccccc2C)c1 (protonated)
C=C(Br)C(=O)[N-]c1ccc([N-]S(=O)(=O)c2ccccc2)c(OCc2ccccc2C)c1 (3D coordinates assigned)
C=C(Br)C(=O)[N-]c1ccc([N-]S(=O)(=O)c2ccccc2)c(OCc2ccccc2C)c1 (optimized conformer: 58.84243640145651 kcal/mol)

>  <smiles>  (92) 
C=C(Br)C(=O)Nc1ccc(NS(=O)(=O)c2ccccc2)c(OCc2ccccc2C)c1

>  <score_type>  (92) 
oracle

>  <origin>  (92) 
adg

>  <m_score__min__energy>  (92) 
-12.27

>  <m_primary>  (92) 
energy

$$$$
92:0
     RDKit          3D

 43 46  0  0  0  0  0  0  0  0999 V2000
   57.4480   26.5120   46.0700 O   0  0  0  0  0  0  0  0  0  0  0  0
   56.4030   27.1410   45.7560 C   0  0  0  0  0  0  0  0  0  0  0  0
   55.1620   26.5640   45.9940 O   0  0  0  0  0  0  0  0  0  0  0  0
   56.4890   28.4760   45.1460 C   0  0  0  0  0  0  0  0  0  0  0  0
   55.4420   29.0050   44.6850 O   0  0  0  0  0  0  0  0  0  0  0  0
   57.7530   29.1510   45.0420 N   0  0  0  0  0  0  0  0  0  0  0  0
   57.8980   30.5360   44.6800 C   0  0  0  0  0  0  0  0  0  0  0  0
   58.2580   30.9190   43.3740 C   0  0  0  0  0  0  0  0  0  0  0  0
   58.3690   32.2730   43.0430 C   0  0  0  0  0  0  0  0  0  0  0  0
   58.1110   33.2530   44.0030 C   0  0  0  0  0  0  0  0  0  0  0  0
   57.7370   32.8830   45.3000 C   0  0  0  0  0  0  0  0  0  0  0  0
   57.4040   34.1440   46.5310 S   0  0  0  0  0  0  0  0  0  0  0  0
   58.9760   33.8850   47.3590 C   0  0  0  0  0  0  0  0  0  0  0  0
   59.0160   33.1460   48.5470 C   0  0  0  0  0  0  0  0  0  0  0  0
   60.2300   32.9430   49.2090 C   0  0  0  0  0  0  0  0  0  0  0  0
   61.4210   33.4750   48.6890 C   0  0  0  0  0  0  0  0  0  0  0  0
   62.6710   33.2710   49.3720 N   0  0  0  0  0  0  0  0  0  0  0  0
   63.9640   33.0670   48.7900 C   0  0  0  0  0  0  0  0  0  0  0  0
   64.2010   33.0770   47.5530 O   0  0  0  0  0  0  0  0  0  0  0  0
   64.9630   32.9060   49.8400 C   0  0  0  0  0  0  0  0  0  0  0  0
   66.3390   32.6900   49.7620 C   0  0  0  0  0  0  0  0  0  0  0  0
   67.0580   32.5760   50.9650 C   0  0  0  0  0  0  0  0  0  0  0  0
   66.3960   32.6790   52.2080 C   0  0  0  0  0  0  0  0  0  0  0  0
   65.0080   32.8980   52.2600 C   0  0  0  0  0  0  0  0  0  0  0  0
   64.3180   33.0100   51.0540 C   0  0  0  0  0  0  0  0  0  0  0  0
   62.9020   33.2330   50.7850 C   0  0  0  0  0  0  0  0  0  0  0  0
   61.9990   33.3300   51.6590 O   0  0  0  0  0  0  0  0  0  0  0  0
   61.3760   34.2090   47.4910 C   0  0  0  0  0  0  0  0  0  0  0  0
   60.1620   34.4110   46.8270 C   0  0  0  0  0  0  0  0  0  0  0  0
   60.1430   35.1320   45.6390 O   0  0  0  0  0  0  0  0  0  0  0  0
   57.6170   31.5280   45.6310 C   0  0  0  0  0  0  0  0  0  0  0  0
   58.6250   28.5820   45.1440 H   0  0  0  0  0  0  0  0  0  0  0  0
   58.4526   30.1505   42.6114 H   0  0  0  0  0  0  0  0  0  0  0  0
   58.6603   32.5666   42.0237 H   0  0  0  0  0  0  0  0  0  0  0  0
   58.2017   34.3172   43.7399 H   0  0  0  0  0  0  0  0  0  0  0  0
   58.0886   32.7235   48.9611 H   0  0  0  0  0  0  0  0  0  0  0  0
   60.2527   32.3628   50.1433 H   0  0  0  0  0  0  0  0  0  0  0  0
   66.8461   32.6113   48.7890 H   0  0  0  0  0  0  0  0  0  0  0  0
   68.1443   32.4053   50.9376 H   0  0  0  0  0  0  0  0  0  0  0  0
   66.9700   32.5873   53.1419 H   0  0  0  0  0  0  0  0  0  0  0  0
   64.4827   32.9785   53.2231 H   0  0  0  0  0  0  0  0  0  0  0  0
   62.3031   34.6278   47.0725 H   0  0  0  0  0  0  0  0  0  0  0  0
   57.3001   31.2393   46.6440 H   0  0  0  0  0  0  0  0  0  0  0  0
  1  2  2  0
  2  3  1  0
  2  4  1  0
  4  5  2  0
  4  6  1  0
  6  7  1  0
  7  8  2  0
  8  9  1  0
  9 10  2  0
 10 11  1  0
 11 12  1  0
 12 13  1  0
 13 14  2  0
 14 15  1  0
 15 16  2  0
 16 17  1  0
 17 18  1  0
 18 19  2  0
 18 20  1  0
 20 21  2  0
 21 22  1  0
 22 23  2  0
 23 24  1  0
 24 25  2  0
 25 26  1  0
 26 27  2  0
 16 28  1  0
 28 29  2  0
 29 30  1  0
 11 31  2  0
 31  7  1  0
 29 13  1  0
 26 17  1  0
 25 20  1  0
  6 32  1  0
  8 33  1  0
  9 34  1  0
 10 35  1  0
 14 36  1  0
 15 37  1  0
 21 38  1  0
 22 39  1  0
 23 40  1  0
 24 41  1  0
 28 42  1  0
 31 43  1  0
M  CHG  2   3  -1  30  -1
M  END
>  <UniqueID>  (93) 
85

>  <SMILES>  (93) 
O=C([O-])C(=O)Nc1cccc(Sc2ccc(N3C(=O)c4ccccc4C3=O)cc2[O-])c1

>  <Energy>  (93) 
83.08253135608923

>  <Genealogy>  (93) 
O=C([O-])C(=O)Nc1cccc(Sc2ccc(N3C(=O)c4ccccc4C3=O)cc2[O-])c1 (protonated)
O=C([O-])C(=O)Nc1cccc(Sc2ccc(N3C(=O)c4ccccc4C3=O)cc2[O-])c1 (3D coordinates assigned)
O=C([O-])C(=O)Nc1cccc(Sc2ccc(N3C(=O)c4ccccc4C3=O)cc2[O-])c1 (nonaromatic ring conformer: 83.08253135608923 kcal/mol)

>  <smiles>  (93) 
O=C(O)C(=O)Nc1cccc(Sc2ccc(N3C(=O)c4ccccc4C3=O)cc2O)c1

>  <score_type>  (93) 
oracle

>  <origin>  (93) 
adg

>  <m_score__min__energy>  (93) 
-12.800000000000001

>  <m_primary>  (93) 
energy

$$$$
93:0
     RDKit          3D

 48 50  0  0  0  0  0  0  0  0999 V2000
   55.7070   30.7010   52.3450 C   0  0  0  0  0  0  0  0  0  0  0  0
   56.8320   30.3850   51.5310 O   0  0  0  0  0  0  0  0  0  0  0  0
   57.8170   31.3070   51.1480 C   0  0  0  0  0  0  0  0  0  0  0  0
   57.9150   32.5860   51.7190 C   0  0  0  0  0  0  0  0  0  0  0  0
   58.9040   33.4740   51.2930 C   0  0  0  0  0  0  0  0  0  0  0  0
   59.8230   33.1000   50.2930 C   0  0  0  0  0  0  0  0  0  0  0  0
   60.7910   33.9960   49.8130 O   0  0  0  0  0  0  0  0  0  0  0  0
   62.1880   33.8810   50.0580 C   0  0  0  0  0  0  0  0  0  0  0  0
   59.7490   31.7990   49.7490 C   0  0  0  0  0  0  0  0  0  0  0  0
   60.6610   31.3390   48.7390 N   0  0  0  0  0  0  0  0  0  0  0  0
   60.9970   31.9940   47.5070 C   0  0  0  0  0  0  0  0  0  0  0  0
   62.1850   31.9170   47.0960 O   0  0  0  0  0  0  0  0  0  0  0  0
   60.0140   32.8050   46.7430 C   0  0  0  0  0  0  0  0  0  0  0  0
   59.9960   34.2050   46.8610 C   0  0  0  0  0  0  0  0  0  0  0  0
   59.0620   34.9600   46.1530 C   0  0  0  0  0  0  0  0  0  0  0  0
   58.1550   34.3140   45.3160 C   0  0  0  0  0  0  0  0  0  0  0  0
   58.1890   32.9620   45.1910 N   0  0  0  0  0  0  0  0  0  0  0  0
   59.0860   32.1950   45.8720 C   0  0  0  0  0  0  0  0  0  0  0  0
   59.0850   30.8030   45.7150 O   0  0  0  0  0  0  0  0  0  0  0  0
   58.1410   29.9310   46.3310 C   0  0  0  0  0  0  0  0  0  0  0  0
   57.0580   29.5410   45.3610 C   0  0  0  0  0  0  0  0  0  0  0  0
   56.3230   30.4500   44.8920 O   0  0  0  0  0  0  0  0  0  0  0  0
   56.8180   28.1860   44.9370 N   0  0  0  0  0  0  0  0  0  0  0  0
   57.1210   27.0630   45.5270 C   0  0  0  0  0  0  0  0  0  0  0  0
   58.4110   26.6340   45.6280 N   0  0  0  0  0  0  0  0  0  0  0  0
   58.7430   25.4800   46.2640 C   0  0  0  0  0  0  0  0  0  0  0  0
   57.7480   24.6900   46.8400 C   0  0  0  0  0  0  0  0  0  0  0  0
   56.4170   25.0990   46.7530 C   0  0  0  0  0  0  0  0  0  0  0  0
   56.0960   26.2910   46.0960 C   0  0  0  0  0  0  0  0  0  0  0  0
   54.7690   26.7000   46.0160 O   0  0  0  0  0  0  0  0  0  0  0  0
   58.7320   30.9290   50.1610 C   0  0  0  0  0  0  0  0  0  0  0  0
   55.9881   30.6221   53.4056 H   0  0  0  0  0  0  0  0  0  0  0  0
   55.3749   31.7272   52.1291 H   0  0  0  0  0  0  0  0  0  0  0  0
   54.8891   29.9978   52.1291 H   0  0  0  0  0  0  0  0  0  0  0  0
   57.2089   32.8896   52.5059 H   0  0  0  0  0  0  0  0  0  0  0  0
   58.9664   34.4760   51.7426 H   0  0  0  0  0  0  0  0  0  0  0  0
   62.3700   33.8660   51.1427 H   0  0  0  0  0  0  0  0  0  0  0  0
   62.5633   32.9489   49.6103 H   0  0  0  0  0  0  0  0  0  0  0  0
   62.7106   34.7392   49.6103 H   0  0  0  0  0  0  0  0  0  0  0  0
   60.7229   34.7081   47.5156 H   0  0  0  0  0  0  0  0  0  0  0  0
   59.0415   36.0551   46.2543 H   0  0  0  0  0  0  0  0  0  0  0  0
   57.4108   34.8992   44.7560 H   0  0  0  0  0  0  0  0  0  0  0  0
   58.6596   29.0242   46.6755 H   0  0  0  0  0  0  0  0  0  0  0  0
   57.6798   30.4558   47.1806 H   0  0  0  0  0  0  0  0  0  0  0  0
   59.7963   25.1688   46.3246 H   0  0  0  0  0  0  0  0  0  0  0  0
   58.0099   23.7551   47.3570 H   0  0  0  0  0  0  0  0  0  0  0  0
   55.6215   24.4850   47.2004 H   0  0  0  0  0  0  0  0  0  0  0  0
   58.6519   29.9330   49.7010 H   0  0  0  0  0  0  0  0  0  0  0  0
  1  2  1  0
  2  3  1  0
  3  4  2  0
  4  5  1  0
  5  6  2  0
  6  7  1  0
  7  8  1  0
  6  9  1  0
  9 10  1  0
 10 11  1  0
 11 12  2  0
 11 13  1  0
 13 14  2  0
 14 15  1  0
 15 16  2  0
 16 17  1  0
 17 18  2  0
 18 19  1  0
 19 20  1  0
 20 21  1  0
 21 22  2  0
 21 23  1  0
 23 24  2  3
 24 25  1  0
 25 26  1  0
 26 27  2  0
 27 28  1  0
 28 29  2  0
 29 30  1  0
  9 31  2  0
 31  3  1  0
 18 13  1  0
 29 24  1  0
  1 32  1  0
  1 33  1  0
  1 34  1  0
  4 35  1  0
  5 36  1  0
  8 37  1  0
  8 38  1  0
  8 39  1  0
 14 40  1  0
 15 41  1  0
 16 42  1  0
 20 43  1  0
 20 44  1  0
 26 45  1  0
 27 46  1  0
 28 47  1  0
 31 48  1  0
M  CHG  3  10  -1  25  -1  30  -1
M  END
>  <UniqueID>  (94) 
86

>  <SMILES>  (94) 
COc1ccc(OC)c([N-]C(=O)c2cccnc2OCC(=O)N=c2[n-]cccc2[O-])c1

>  <Energy>  (94) 
60.19789699094771

>  <Genealogy>  (94) 
COc1ccc(OC)c([N-]C(=O)c2cccnc2OCC(=O)N=c2[n-]cccc2[O-])c1 (protonated)
COc1ccc(OC)c([N-]C(=O)c2cccnc2OCC(=O)N=c2[n-]cccc2[O-])c1 (3D coordinates assigned)
COc1ccc(OC)c([N-]C(=O)c2cccnc2OCC(=O)N=c2[n-]cccc2[O-])c1 (optimized conformer: 60.19789699094771 kcal/mol)

>  <smiles>  (94) 
COc1ccc(OC)c(NC(=O)c2cccnc2OCC(=O)N=c2[nH]cccc2O)c1

>  <score_type>  (94) 
oracle

>  <origin>  (94) 
adg

>  <m_score__min__energy>  (94) 
-14.640000000000001

>  <m_primary>  (94) 
energy

$$$$
94:0
     RDKit          3D

 40 41  0  0  0  0  0  0  0  0999 V2000
   58.8950   34.5580   45.2290 C   0  0  0  0  0  0  0  0  0  0  0  0
   57.7660   33.5890   44.8930 C   0  0  0  0  0  0  0  0  0  0  0  0
   58.1140   32.1920   45.3300 C   0  0  0  0  0  0  0  0  0  0  0  0
   57.9690   31.1160   44.4410 C   0  0  0  0  0  0  0  0  0  0  0  0
   58.3220   29.8220   44.8370 C   0  0  0  0  0  0  0  0  0  0  0  0
   58.8460   29.5870   46.1160 C   0  0  0  0  0  0  0  0  0  0  0  0
   59.1780   28.2450   46.5090 N   0  0  0  0  0  0  0  0  0  0  0  0
   58.3910   27.0860   46.1890 C   0  0  0  0  0  0  0  0  0  0  0  0
   56.9960   27.1170   46.2520 C   0  0  0  0  0  0  0  0  0  0  0  0
   56.2780   25.9600   45.9550 C   0  0  0  0  0  0  0  0  0  0  0  0
   55.0170   25.9990   45.9960 O   0  0  0  0  0  0  0  0  0  0  0  0
   56.9340   24.8020   45.6250 N   0  0  0  0  0  0  0  0  0  0  0  0
   56.1640   23.5920   45.2690 C   0  0  0  0  0  0  0  0  0  0  0  0
   56.0280   23.4590   43.7510 C   0  0  0  0  0  0  0  0  0  0  0  0
   55.8940   22.0950   43.3920 O   0  0  0  0  0  0  0  0  0  0  0  0
   57.1540   21.4670   43.3430 C   0  0  0  0  0  0  0  0  0  0  0  0
   58.3080   24.7910   45.5840 C   0  0  0  0  0  0  0  0  0  0  0  0
   58.9330   23.7410   45.2720 O   0  0  0  0  0  0  0  0  0  0  0  0
   59.0130   25.9180   45.8770 N   0  0  0  0  0  0  0  0  0  0  0  0
   58.9800   30.6650   47.0100 C   0  0  0  0  0  0  0  0  0  0  0  0
   58.6280   31.9590   46.6140 C   0  0  0  0  0  0  0  0  0  0  0  0
   58.9930   34.6421   46.3214 H   0  0  0  0  0  0  0  0  0  0  0  0
   59.8380   34.1838   44.8040 H   0  0  0  0  0  0  0  0  0  0  0  0
   58.6681   35.5469   44.8040 H   0  0  0  0  0  0  0  0  0  0  0  0
   56.8492   33.9105   45.4088 H   0  0  0  0  0  0  0  0  0  0  0  0
   57.6125   33.5901   43.8038 H   0  0  0  0  0  0  0  0  0  0  0  0
   57.5761   31.2910   43.4286 H   0  0  0  0  0  0  0  0  0  0  0  0
   58.1875   28.9821   44.1396 H   0  0  0  0  0  0  0  0  0  0  0  0
   60.0550   28.0990   47.0580 H   0  0  0  0  0  0  0  0  0  0  0  0
   56.4711   28.0422   46.5323 H   0  0  0  0  0  0  0  0  0  0  0  0
   56.6830   22.7058   45.6632 H   0  0  0  0  0  0  0  0  0  0  0  0
   55.1580   23.6740   45.7063 H   0  0  0  0  0  0  0  0  0  0  0  0
   55.1387   24.0126   43.4155 H   0  0  0  0  0  0  0  0  0  0  0  0
   56.9282   23.8709   43.2713 H   0  0  0  0  0  0  0  0  0  0  0  0
   57.5142   21.2874   44.3667 H   0  0  0  0  0  0  0  0  0  0  0  0
   57.0652   20.5077   42.8120 H   0  0  0  0  0  0  0  0  0  0  0  0
   57.8665   22.1154   42.8120 H   0  0  0  0  0  0  0  0  0  0  0  0
   60.0590   25.8890   45.8440 H   0  0  0  0  0  0  0  0  0  0  0  0
   59.3637   30.4890   48.0258 H   0  0  0  0  0  0  0  0  0  0  0  0
   58.7549   32.7987   47.3132 H   0  0  0  0  0  0  0  0  0  0  0  0
  1  2  1  0
  2  3  1  0
  3  4  2  0
  4  5  1  0
  5  6  2  0
  6  7  1  0
  7  8  1  0
  8  9  2  0
  9 10  1  0
 10 11  2  0
 10 12  1  0
 12 13  1  0
 13 14  1  0
 14 15  1  0
 15 16  1  0
 12 17  1  0
 17 18  2  0
 17 19  1  0
  6 20  1  0
 20 21  2  0
 21  3  1  0
 19  8  1  0
  1 22  1  0
  1 23  1  0
  1 24  1  0
  2 25  1  0
  2 26  1  0
  4 27  1  0
  5 28  1  0
  7 29  1  0
  9 30  1  0
 13 31  1  0
 13 32  1  0
 14 33  1  0
 14 34  1  0
 16 35  1  0
 16 36  1  0
 16 37  1  0
 19 38  1  0
 20 39  1  0
 21 40  1  0
M  END
>  <UniqueID>  (95) 
87

>  <SMILES>  (95) 
CCc1ccc(Nc2cc(=O)n(CCOC)c(=O)[nH]2)cc1

>  <Energy>  (95) 
45.494870241317734

>  <Genealogy>  (95) 
CCc1ccc(Nc2cc(=O)n(CCOC)c(=O)[nH]2)cc1 (3D coordinates assigned)
CCc1ccc(Nc2cc(=O)n(CCOC)c(=O)[nH]2)cc1 (optimized conformer: 45.494870241317734 kcal/mol)

>  <smiles>  (95) 
CCc1ccc(Nc2cc(=O)n(CCOC)c(=O)[nH]2)cc1

>  <score_type>  (95) 
oracle

>  <origin>  (95) 
adg

>  <m_score__min__energy>  (95) 
-6.8700000000000001

>  <m_primary>  (95) 
energy

$$$$
95:0
     RDKit          3D

 47 50  0  0  0  0  0  0  0  0999 V2000
   60.2690   24.5790   45.9970 O   0  0  0  0  0  0  0  0  0  0  0  0
   59.0300   24.7930   45.8990 C   0  0  0  0  0  0  0  0  0  0  0  0
   58.4150   25.8240   46.6850 N   0  0  0  0  0  0  0  0  0  0  0  0
   58.0570   27.1390   46.2390 C   0  0  0  0  0  0  0  0  0  0  0  0
   58.9380   28.2100   46.5190 C   0  0  0  0  0  0  0  0  0  0  0  0
   58.6370   29.5330   46.1150 C   0  0  0  0  0  0  0  0  0  0  0  0
   59.5620   30.6600   46.3840 C   0  0  0  0  0  0  0  0  0  0  0  0
   60.6280   30.4500   47.0280 O   0  0  0  0  0  0  0  0  0  0  0  0
   59.2580   31.9910   45.9380 N   0  0  0  0  0  0  0  0  0  0  0  0
   60.2180   33.0840   46.0980 C   0  0  0  0  0  0  0  0  0  0  0  0
   60.5190   33.3200   47.5620 C   0  0  0  0  0  0  0  0  0  0  0  0
   59.4350   33.5490   48.4280 C   0  0  0  0  0  0  0  0  0  0  0  0
   59.6440   33.7910   49.7850 C   0  0  0  0  0  0  0  0  0  0  0  0
   60.9370   33.8140   50.2970 C   0  0  0  0  0  0  0  0  0  0  0  0
   62.0300   33.6090   49.4530 C   0  0  0  0  0  0  0  0  0  0  0  0
   61.8460   33.3790   48.0740 C   0  0  0  0  0  0  0  0  0  0  0  0
   63.0580   33.1560   47.1850 C   0  0  0  0  0  0  0  0  0  0  0  0
   64.2380   33.4670   47.8400 F   0  0  0  0  0  0  0  0  0  0  0  0
   63.1130   31.8280   46.8030 F   0  0  0  0  0  0  0  0  0  0  0  0
   62.9780   33.9550   46.0590 F   0  0  0  0  0  0  0  0  0  0  0  0
   57.4100   29.7310   45.4640 C   0  0  0  0  0  0  0  0  0  0  0  0
   56.8960   30.8790   44.9950 N   0  0  0  0  0  0  0  0  0  0  0  0
   55.7070   30.4870   44.4700 C   0  0  0  0  0  0  0  0  0  0  0  0
   55.4570   29.1580   44.5850 N   0  0  0  0  0  0  0  0  0  0  0  0
   56.5510   28.7060   45.2130 C   0  0  0  0  0  0  0  0  0  0  0  0
   56.8290   27.3960   45.5860 C   0  0  0  0  0  0  0  0  0  0  0  0
   58.2010   23.9430   45.0120 C   0  0  0  0  0  0  0  0  0  0  0  0
   57.1960   24.5160   44.2100 C   0  0  0  0  0  0  0  0  0  0  0  0
   56.4100   23.7120   43.3760 C   0  0  0  0  0  0  0  0  0  0  0  0
   56.6190   22.3320   43.3330 C   0  0  0  0  0  0  0  0  0  0  0  0
   57.6120   21.7520   44.1240 C   0  0  0  0  0  0  0  0  0  0  0  0
   58.4010   22.5510   44.9600 C   0  0  0  0  0  0  0  0  0  0  0  0
   59.8744   28.0110   47.0608 H   0  0  0  0  0  0  0  0  0  0  0  0
   58.3100   32.2000   45.5520 H   0  0  0  0  0  0  0  0  0  0  0  0
   61.1503   32.8255   45.5746 H   0  0  0  0  0  0  0  0  0  0  0  0
   59.7842   34.0013   45.6733 H   0  0  0  0  0  0  0  0  0  0  0  0
   58.4096   33.5370   48.0299 H   0  0  0  0  0  0  0  0  0  0  0  0
   58.7858   33.9638   50.4511 H   0  0  0  0  0  0  0  0  0  0  0  0
   61.0989   33.9942   51.3700 H   0  0  0  0  0  0  0  0  0  0  0  0
   63.0481   33.6271   49.8692 H   0  0  0  0  0  0  0  0  0  0  0  0
   55.0059   31.1870   43.9921 H   0  0  0  0  0  0  0  0  0  0  0  0
   56.1159   26.5843   45.3796 H   0  0  0  0  0  0  0  0  0  0  0  0
   57.0272   25.6026   44.2388 H   0  0  0  0  0  0  0  0  0  0  0  0
   55.6263   24.1682   42.7534 H   0  0  0  0  0  0  0  0  0  0  0  0
   56.0012   21.7022   42.6759 H   0  0  0  0  0  0  0  0  0  0  0  0
   57.7750   20.6647   44.0904 H   0  0  0  0  0  0  0  0  0  0  0  0
   59.1824   22.0877   45.5803 H   0  0  0  0  0  0  0  0  0  0  0  0
  1  2  2  0
  2  3  1  0
  3  4  1  0
  4  5  2  0
  5  6  1  0
  6  7  1  0
  7  8  2  0
  7  9  1  0
  9 10  1  0
 10 11  1  0
 11 12  2  0
 12 13  1  0
 13 14  2  0
 14 15  1  0
 15 16  2  0
 16 17  1  0
 17 18  1  0
 17 19  1  0
 17 20  1  0
  6 21  2  0
 21 22  1  0
 22 23  1  0
 23 24  2  0
 24 25  1  0
 25 26  2  0
  2 27  1  0
 27 28  2  0
 28 29  1  0
 29 30  2  0
 30 31  1  0
 31 32  2  0
 26  4  1  0
 32 27  1  0
 16 11  1  0
 25 21  1  0
  5 33  1  0
  9 34  1  0
 10 35  1  0
 10 36  1  0
 12 37  1  0
 13 38  1  0
 14 39  1  0
 15 40  1  0
 23 41  1  0
 26 42  1  0
 28 43  1  0
 29 44  1  0
 30 45  1  0
 31 46  1  0
 32 47  1  0
M  CHG  2   3  -1  22  -1
M  END
>  <UniqueID>  (96) 
88

>  <SMILES>  (96) 
O=C([N-]c1cc(C(=O)NCc2ccccc2C(F)(F)F)c2[n-]cnc2c1)c1ccccc1

>  <Energy>  (96) 
94.76877621308618

>  <Genealogy>  (96) 
O=C([N-]c1cc(C(=O)NCc2ccccc2C(F)(F)F)c2[n-]cnc2c1)c1ccccc1 (protonated)
O=C([N-]c1cc(C(=O)NCc2ccccc2C(F)(F)F)c2[n-]cnc2c1)c1ccccc1 (3D coordinates assigned)
O=C([N-]c1cc(C(=O)NCc2ccccc2C(F)(F)F)c2[n-]cnc2c1)c1ccccc1 (optimized conformer: 94.76877621308618 kcal/mol)

>  <smiles>  (96) 
O=C(Nc1cc(C(=O)NCc2ccccc2C(F)(F)F)c2[nH]cnc2c1)c1ccccc1

>  <score_type>  (96) 
oracle

>  <origin>  (96) 
adg

>  <m_score__min__energy>  (96) 
-11.43

>  <m_primary>  (96) 
energy

$$$$
96:0
     RDKit          3D

 51 54  0  0  0  0  0  0  0  0999 V2000
   63.3197   30.5555   47.0242 H   0  0  0  0  0  0  0  0  0  0  0  0
   62.9620   31.4920   47.4770 C   0  0  0  0  0  0  0  0  0  0  0  0
   61.9760   31.4610   48.4150 N   0  0  0  0  0  0  0  0  0  0  0  0
   61.5040   32.5970   49.0000 C   0  0  0  0  0  0  0  0  0  0  0  0
   60.4380   32.4950   50.0530 C   0  0  0  0  0  0  0  0  0  0  0  0
   60.5211   33.3515   50.7382 H   0  0  0  0  0  0  0  0  0  0  0  0
   60.5713   31.5550   50.6086 H   0  0  0  0  0  0  0  0  0  0  0  0
   59.1150   32.4990   49.4340 N   0  0  0  0  0  0  0  0  0  0  0  0
   58.7770   31.8570   48.1980 C   0  0  0  0  0  0  0  0  0  0  0  0
   58.5270   30.6230   48.2000 O   0  0  0  0  0  0  0  0  0  0  0  0
   58.6950   32.6010   46.9270 C   0  0  0  0  0  0  0  0  0  0  0  0
   58.9470   33.9820   46.9030 C   0  0  0  0  0  0  0  0  0  0  0  0
   59.1925   34.5107   47.8358 H   0  0  0  0  0  0  0  0  0  0  0  0
   58.8870   34.6870   45.6980 C   0  0  0  0  0  0  0  0  0  0  0  0
   59.0999   35.7661   45.6817 H   0  0  0  0  0  0  0  0  0  0  0  0
   58.5570   34.0230   44.5140 C   0  0  0  0  0  0  0  0  0  0  0  0
   58.5172   34.5783   43.5653 H   0  0  0  0  0  0  0  0  0  0  0  0
   58.2770   32.6520   44.5340 C   0  0  0  0  0  0  0  0  0  0  0  0
   57.8150   31.8050   43.0240 S   0  0  0  0  0  0  0  0  0  0  0  0
   57.1270   30.4150   43.9150 C   0  0  0  0  0  0  0  0  0  0  0  0
   58.0220   29.1800   44.6210 S   0  0  0  0  0  0  0  0  0  0  0  0
   56.6430   28.4070   45.1940 C   0  0  0  0  0  0  0  0  0  0  0  0
   56.6780   27.3060   45.8850 N   0  0  0  0  0  0  0  0  0  0  0  0
   57.6450   26.2510   45.7530 C   0  0  0  0  0  0  0  0  0  0  0  0
   58.8250   26.4100   46.1730 O   0  0  0  0  0  0  0  0  0  0  0  0
   57.2570   24.9670   45.1250 C   0  0  0  0  0  0  0  0  0  0  0  0
   57.1060   23.8040   45.9050 C   0  0  0  0  0  0  0  0  0  0  0  0
   57.2879   23.8452   46.9891 H   0  0  0  0  0  0  0  0  0  0  0  0
   56.7260   22.5970   45.3090 C   0  0  0  0  0  0  0  0  0  0  0  0
   56.6101   21.6959   45.9292 H   0  0  0  0  0  0  0  0  0  0  0  0
   56.4920   22.5250   43.9320 C   0  0  0  0  0  0  0  0  0  0  0  0
   56.1080   21.2910   43.3860 O   0  0  0  0  0  0  0  0  0  0  0  0
   56.1980   20.0450   44.0710 C   0  0  0  0  0  0  0  0  0  0  0  0
   56.1852   20.2217   45.1566 H   0  0  0  0  0  0  0  0  0  0  0  0
   55.3433   19.4110   43.7926 H   0  0  0  0  0  0  0  0  0  0  0  0
   57.1349   19.5404   43.7926 H   0  0  0  0  0  0  0  0  0  0  0  0
   56.6490   23.6820   43.1460 C   0  0  0  0  0  0  0  0  0  0  0  0
   56.4753   23.6346   42.0608 H   0  0  0  0  0  0  0  0  0  0  0  0
   57.0250   24.8920   43.7390 C   0  0  0  0  0  0  0  0  0  0  0  0
   57.1402   25.7919   43.1170 H   0  0  0  0  0  0  0  0  0  0  0  0
   55.5080   29.0660   44.8630 N   0  0  0  0  0  0  0  0  0  0  0  0
   55.7760   30.1900   44.1470 C   0  0  0  0  0  0  0  0  0  0  0  0
   54.9884   30.8654   43.7816 H   0  0  0  0  0  0  0  0  0  0  0  0
   58.3420   31.9430   45.7390 C   0  0  0  0  0  0  0  0  0  0  0  0
   58.1157   30.8667   45.7548 H   0  0  0  0  0  0  0  0  0  0  0  0
   62.0450   33.8400   48.6370 C   0  0  0  0  0  0  0  0  0  0  0  0
   61.6771   34.7643   49.1064 H   0  0  0  0  0  0  0  0  0  0  0  0
   63.0550   33.8920   47.6740 C   0  0  0  0  0  0  0  0  0  0  0  0
   63.4835   34.8606   47.3769 H   0  0  0  0  0  0  0  0  0  0  0  0
   63.5200   32.7130   47.0890 C   0  0  0  0  0  0  0  0  0  0  0  0
   64.3167   32.7447   46.3312 H   0  0  0  0  0  0  0  0  0  0  0  0
  1  2  1  0
  2  3  2  0
  3  4  1  0
  4  5  1  0
  5  6  1  0
  5  7  1  0
  5  8  1  0
  8  9  1  0
  9 10  2  0
  9 11  1  0
 11 12  2  0
 12 13  1  0
 12 14  1  0
 14 15  1  0
 14 16  2  0
 16 17  1  0
 16 18  1  0
 18 19  1  0
 19 20  1  0
 20 21  1  0
 21 22  1  0
 22 23  2  0
 23 24  1  0
 24 25  2  0
 24 26  1  0
 26 27  2  0
 27 28  1  0
 27 29  1  0
 29 30  1  0
 29 31  2  0
 31 32  1  0
 32 33  1  0
 33 34  1  0
 33 35  1  0
 33 36  1  0
 31 37  1  0
 37 38  1  0
 37 39  2  0
 39 40  1  0
 22 41  1  0
 41 42  1  0
 42 43  1  0
 18 44  2  0
 44 45  1  0
  4 46  2  0
 46 47  1  0
 46 48  1  0
 48 49  1  0
 48 50  2  0
 50 51  1  0
 50  2  1  0
 44 11  1  0
 42 20  2  0
 39 26  1  0
M  CHG  2   8  -1  41  -1
M  END
>  <UniqueID>  (97) 
89

>  <SMILES>  (97) 
COc1ccc(C(=O)/N=c2\[n-]cc(Sc3cccc(C(=O)[N-]Cc4ccccn4)c3)s2)cc1

>  <Energy>  (97) 
86.8078697748521

>  <Genealogy>  (97) 
COc1ccc(C(=O)N=c2[n-]cc(Sc3cccc(C(=O)[N-]Cc4ccccn4)c3)s2)cc1 (protonated)
COc1ccc(C(=O)/N=c2\[n-]cc(Sc3cccc(C(=O)[N-]Cc4ccccn4)c3)s2)cc1 (cis-trans isomerization)
COc1ccc(C(=O)/N=c2\[n-]cc(Sc3cccc(C(=O)[N-]Cc4ccccn4)c3)s2)cc1 (3D coordinates assigned)
COc1ccc(C(=O)/N=c2\[n-]cc(Sc3cccc(C(=O)[N-]Cc4ccccn4)c3)s2)cc1 (optimized conformer: 86.8078697748521 kcal/mol)

>  <smiles>  (97) 
COc1ccc(C(=O)N=c2[nH]cc(Sc3cccc(C(=O)NCc4ccccn4)c3)s2)cc1

>  <score_type>  (97) 
oracle

>  <origin>  (97) 
adg

>  <m_score__min__energy>  (97) 
-12.42

>  <m_primary>  (97) 
energy

$$$$
97:0
     RDKit          3D

 56 58  0  0  0  0  0  0  0  0999 V2000
   60.8680   32.5930   51.6410 C   0  0  0  0  0  0  0  0  0  0  0  0
   60.4490   33.0890   50.2770 C   0  0  0  0  0  0  0  0  0  0  0  0
   61.3630   33.8580   49.5450 C   0  0  0  0  0  0  0  0  0  0  0  0
   61.0280   34.3170   48.3190 N   0  0  0  0  0  0  0  0  0  0  0  0
   59.8260   34.0530   47.7490 C   0  0  0  0  0  0  0  0  0  0  0  0
   59.6010   34.5480   46.5610 N   0  0  0  0  0  0  0  0  0  0  0  0
   59.6870   33.9200   45.2390 C   0  0  0  0  0  0  0  0  0  0  0  0
   58.3660   34.0410   44.4670 C   0  0  0  0  0  0  0  0  0  0  0  0
   57.7920   32.6860   44.1440 C   0  0  0  0  0  0  0  0  0  0  0  0
   57.5750   32.3100   42.8060 C   0  0  0  0  0  0  0  0  0  0  0  0
   57.0890   31.0360   42.5040 C   0  0  0  0  0  0  0  0  0  0  0  0
   56.8180   30.1270   43.5330 C   0  0  0  0  0  0  0  0  0  0  0  0
   57.0370   30.4910   44.8660 C   0  0  0  0  0  0  0  0  0  0  0  0
   57.5260   31.7630   45.1740 C   0  0  0  0  0  0  0  0  0  0  0  0
   58.8910   33.2750   48.4800 C   0  0  0  0  0  0  0  0  0  0  0  0
   57.7530   33.0350   48.0050 O   0  0  0  0  0  0  0  0  0  0  0  0
   59.2200   32.7930   49.7280 N   0  0  0  0  0  0  0  0  0  0  0  0
   58.2080   32.0130   50.4770 C   0  0  0  0  0  0  0  0  0  0  0  0
   58.4180   30.5330   50.2600 C   0  0  0  0  0  0  0  0  0  0  0  0
   57.7720   29.7160   50.9660 O   0  0  0  0  0  0  0  0  0  0  0  0
   59.3680   30.0160   49.3170 N   0  0  0  0  0  0  0  0  0  0  0  0
   59.4880   28.6260   48.8800 C   0  0  0  0  0  0  0  0  0  0  0  0
   59.4370   28.5190   47.3770 C   0  0  0  0  0  0  0  0  0  0  0  0
   60.3310   29.2600   46.5870 C   0  0  0  0  0  0  0  0  0  0  0  0
   60.2910   29.1600   45.1930 C   0  0  0  0  0  0  0  0  0  0  0  0
   59.3730   28.3080   44.5740 C   0  0  0  0  0  0  0  0  0  0  0  0
   58.4830   27.5390   45.3480 C   0  0  0  0  0  0  0  0  0  0  0  0
   57.5120   26.6650   44.7440 N   0  0  0  0  0  0  0  0  0  0  0  0
   56.4910   25.5830   45.6420 S   0  0  0  0  0  0  0  0  0  0  0  0
   54.9730   26.3380   45.9810 N   0  0  0  0  0  0  0  0  0  0  0  0
   57.1670   25.2350   46.9390 O   0  0  0  0  0  0  0  0  0  0  0  0
   56.2750   24.3230   44.8560 O   0  0  0  0  0  0  0  0  0  0  0  0
   58.5300   27.6460   46.7500 C   0  0  0  0  0  0  0  0  0  0  0  0
   60.3654   33.1879   52.4178 H   0  0  0  0  0  0  0  0  0  0  0  0
   60.5857   31.5354   51.7492 H   0  0  0  0  0  0  0  0  0  0  0  0
   61.9579   32.6945   51.7492 H   0  0  0  0  0  0  0  0  0  0  0  0
   62.3522   34.0879   49.9677 H   0  0  0  0  0  0  0  0  0  0  0  0
   60.4838   34.4118   44.6617 H   0  0  0  0  0  0  0  0  0  0  0  0
   59.9054   32.8512   45.3802 H   0  0  0  0  0  0  0  0  0  0  0  0
   57.6430   34.5991   45.0801 H   0  0  0  0  0  0  0  0  0  0  0  0
   58.5644   34.5672   43.5216 H   0  0  0  0  0  0  0  0  0  0  0  0
   57.7888   33.0217   41.9950 H   0  0  0  0  0  0  0  0  0  0  0  0
   56.9191   30.7468   41.4564 H   0  0  0  0  0  0  0  0  0  0  0  0
   56.4323   29.1251   43.2934 H   0  0  0  0  0  0  0  0  0  0  0  0
   56.8238   29.7745   45.6729 H   0  0  0  0  0  0  0  0  0  0  0  0
   57.7035   32.0440   46.2226 H   0  0  0  0  0  0  0  0  0  0  0  0
   58.2978   32.2384   51.5499 H   0  0  0  0  0  0  0  0  0  0  0  0
   57.2061   32.2881   50.1157 H   0  0  0  0  0  0  0  0  0  0  0  0
   60.4462   28.2197   49.2360 H   0  0  0  0  0  0  0  0  0  0  0  0
   58.6450   28.0562   49.2979 H   0  0  0  0  0  0  0  0  0  0  0  0
   61.0663   29.9223   47.0673 H   0  0  0  0  0  0  0  0  0  0  0  0
   60.9852   29.7546   44.5811 H   0  0  0  0  0  0  0  0  0  0  0  0
   59.3454   28.2376   43.4766 H   0  0  0  0  0  0  0  0  0  0  0  0
   57.3450   26.7290   43.7160 H   0  0  0  0  0  0  0  0  0  0  0  0
   55.1460   27.3650   46.0230 H   0  0  0  0  0  0  0  0  0  0  0  0
   57.8484   27.0389   47.3638 H   0  0  0  0  0  0  0  0  0  0  0  0
  1  2  1  0
  2  3  2  0
  3  4  1  0
  4  5  1  0
  5  6  2  3
  6  7  1  0
  7  8  1  0
  8  9  1  0
  9 10  2  0
 10 11  1  0
 11 12  2  0
 12 13  1  0
 13 14  2  0
  5 15  1  0
 15 16  2  0
 15 17  1  0
 17 18  1  0
 18 19  1  0
 19 20  2  0
 19 21  1  0
 21 22  1  0
 22 23  1  0
 23 24  2  0
 24 25  1  0
 25 26  2  0
 26 27  1  0
 27 28  1  0
 28 29  1  0
 29 30  1  0
 29 31  2  0
 29 32  2  0
 27 33  2  0
 17  2  1  0
 33 23  1  0
 14  9  1  0
  1 34  1  0
  1 35  1  0
  1 36  1  0
  3 37  1  0
  7 38  1  0
  7 39  1  0
  8 40  1  0
  8 41  1  0
 10 42  1  0
 11 43  1  0
 12 44  1  0
 13 45  1  0
 14 46  1  0
 18 47  1  0
 18 48  1  0
 22 49  1  0
 22 50  1  0
 24 51  1  0
 25 52  1  0
 26 53  1  0
 28 54  1  0
 30 55  1  0
 33 56  1  0
M  CHG  3   4  -1  21  -1  30  -1
M  END
>  <UniqueID>  (98) 
90

>  <SMILES>  (98) 
Cc1c[n-]c(=NCCc2ccccc2)c(=O)n1CC(=O)[N-]Cc1cccc(NS([NH-])(=O)=O)c1

>  <Energy>  (98) 
63.15895405121004

>  <Genealogy>  (98) 
Cc1c[n-]c(=NCCc2ccccc2)c(=O)n1CC(=O)[N-]Cc1cccc(NS([NH-])(=O)=O)c1 (protonated)
Cc1c[n-]c(=NCCc2ccccc2)c(=O)n1CC(=O)[N-]Cc1cccc(NS([NH-])(=O)=O)c1 (3D coordinates assigned)
Cc1c[n-]c(=NCCc2ccccc2)c(=O)n1CC(=O)[N-]Cc1cccc(NS([NH-])(=O)=O)c1 (optimized conformer: 63.15895405121004 kcal/mol)

>  <smiles>  (98) 
Cc1c[nH]c(=NCCc2ccccc2)c(=O)n1CC(=O)NCc1cccc(NS(N)(=O)=O)c1

>  <score_type>  (98) 
oracle

>  <origin>  (98) 
adg

>  <m_score__min__energy>  (98) 
-14.43

>  <m_primary>  (98) 
energy

$$$$
98:0
     RDKit          3D

 43 45  0  0  0  0  0  0  0  0999 V2000
   59.6180   31.1220   47.4950 C   0  0  0  0  0  0  0  0  0  0  0  0
   58.9560   32.1270   46.5930 C   0  0  0  0  0  0  0  0  0  0  0  0
   59.4190   33.4520   46.5690 C   0  0  0  0  0  0  0  0  0  0  0  0
   58.8420   34.3860   45.7090 C   0  0  0  0  0  0  0  0  0  0  0  0
   57.8150   34.0000   44.8450 C   0  0  0  0  0  0  0  0  0  0  0  0
   57.3540   32.6810   44.8490 C   0  0  0  0  0  0  0  0  0  0  0  0
   57.9050   31.7380   45.7370 C   0  0  0  0  0  0  0  0  0  0  0  0
   57.4620   30.4070   45.7850 O   0  0  0  0  0  0  0  0  0  0  0  0
   56.7280   29.7310   44.7990 C   0  0  0  0  0  0  0  0  0  0  0  0
   55.5510   30.0710   44.5060 O   0  0  0  0  0  0  0  0  0  0  0  0
   57.3380   28.5540   44.1000 C   0  0  0  0  0  0  0  0  0  0  0  0
   58.1980   27.7420   45.0410 C   0  0  0  0  0  0  0  0  0  0  0  0
   59.5840   27.9880   45.0620 C   0  0  0  0  0  0  0  0  0  0  0  0
   60.4180   27.2900   45.9370 C   0  0  0  0  0  0  0  0  0  0  0  0
   59.8820   26.3380   46.8010 C   0  0  0  0  0  0  0  0  0  0  0  0
   58.5100   26.0860   46.8010 C   0  0  0  0  0  0  0  0  0  0  0  0
   57.6540   26.7950   45.9450 C   0  0  0  0  0  0  0  0  0  0  0  0
   55.8930   26.4050   46.0060 S   0  0  0  0  0  0  0  0  0  0  0  0
   56.0630   24.8170   45.1830 C   0  0  0  0  0  0  0  0  0  0  0  0
   56.8830   24.7010   44.0550 C   0  0  0  0  0  0  0  0  0  0  0  0
   57.0080   23.4730   43.3980 C   0  0  0  0  0  0  0  0  0  0  0  0
   56.3270   22.3470   43.8800 C   0  0  0  0  0  0  0  0  0  0  0  0
   56.4260   21.1230   43.2220 O   0  0  0  0  0  0  0  0  0  0  0  0
   55.5390   22.4530   45.0310 C   0  0  0  0  0  0  0  0  0  0  0  0
   55.4140   23.6810   45.6860 C   0  0  0  0  0  0  0  0  0  0  0  0
   59.4372   31.3964   48.5448 H   0  0  0  0  0  0  0  0  0  0  0  0
   59.2004   30.1232   47.3000 H   0  0  0  0  0  0  0  0  0  0  0  0
   60.7005   31.1113   47.3000 H   0  0  0  0  0  0  0  0  0  0  0  0
   60.2421   33.7555   47.2327 H   0  0  0  0  0  0  0  0  0  0  0  0
   59.1961   35.4275   45.7112 H   0  0  0  0  0  0  0  0  0  0  0  0
   57.3682   34.7357   44.1601 H   0  0  0  0  0  0  0  0  0  0  0  0
   56.5564   32.3780   44.1547 H   0  0  0  0  0  0  0  0  0  0  0  0
   56.5340   27.9143   43.7072 H   0  0  0  0  0  0  0  0  0  0  0  0
   57.9733   28.9263   43.2828 H   0  0  0  0  0  0  0  0  0  0  0  0
   60.0141   28.7380   44.3819 H   0  0  0  0  0  0  0  0  0  0  0  0
   61.4993   27.4919   45.9442 H   0  0  0  0  0  0  0  0  0  0  0  0
   60.5419   25.7838   47.4847 H   0  0  0  0  0  0  0  0  0  0  0  0
   58.0956   25.3246   47.4782 H   0  0  0  0  0  0  0  0  0  0  0  0
   57.4314   25.5793   43.6837 H   0  0  0  0  0  0  0  0  0  0  0  0
   57.6412   23.3907   42.5023 H   0  0  0  0  0  0  0  0  0  0  0  0
   57.1030   20.4240   43.5020 H   0  0  0  0  0  0  0  0  0  0  0  0
   55.0164   21.5673   45.4215 H   0  0  0  0  0  0  0  0  0  0  0  0
   54.8047   23.7564   46.5987 H   0  0  0  0  0  0  0  0  0  0  0  0
  1  2  1  0
  2  3  2  0
  3  4  1  0
  4  5  2  0
  5  6  1  0
  6  7  2  0
  7  8  1  0
  8  9  1  0
  9 10  2  0
  9 11  1  0
 11 12  1  0
 12 13  2  0
 13 14  1  0
 14 15  2  0
 15 16  1  0
 16 17  2  0
 17 18  1  0
 18 19  1  0
 19 20  2  0
 20 21  1  0
 21 22  2  0
 22 23  1  0
 22 24  1  0
 24 25  2  0
  7  2  1  0
 17 12  1  0
 25 19  1  0
  1 26  1  0
  1 27  1  0
  1 28  1  0
  3 29  1  0
  4 30  1  0
  5 31  1  0
  6 32  1  0
 11 33  1  0
 11 34  1  0
 13 35  1  0
 14 36  1  0
 15 37  1  0
 16 38  1  0
 20 39  1  0
 21 40  1  0
 23 41  1  0
 24 42  1  0
 25 43  1  0
M  END
>  <UniqueID>  (99) 
91

>  <SMILES>  (99) 
Cc1ccccc1OC(=O)Cc1ccccc1Sc1ccc(O)cc1

>  <Energy>  (99) 
41.34392812037901

>  <Genealogy>  (99) 
Cc1ccccc1OC(=O)Cc1ccccc1Sc1ccc(O)cc1 (3D coordinates assigned)
Cc1ccccc1OC(=O)Cc1ccccc1Sc1ccc(O)cc1 (optimized conformer: 41.34392812037901 kcal/mol)

>  <smiles>  (99) 
Cc1ccccc1OC(=O)Cc1ccccc1Sc1ccc(O)cc1

>  <score_type>  (99) 
oracle

>  <origin>  (99) 
adg

>  <m_score__min__energy>  (99) 
-8.9700000000000006

>  <m_primary>  (99) 
energy

$$$$
99:0
     RDKit          3D

 57 60  0  0  0  0  0  0  0  0999 V2000
   57.3643   31.8637   41.6312 H   0  0  0  0  0  0  0  0  0  0  0  0
   57.3820   31.2940   42.5720 C   0  0  0  0  0  0  0  0  0  0  0  0
   58.0409   31.6102   43.3941 H   0  0  0  0  0  0  0  0  0  0  0  0
   56.6040   30.2190   42.7160 C   0  0  0  0  0  0  0  0  0  0  0  0
   55.9544   29.9241   41.8787 H   0  0  0  0  0  0  0  0  0  0  0  0
   56.5770   29.4100   43.9470 C   0  0  0  0  0  0  0  0  0  0  0  0
   55.7570   29.7180   44.8550 O   0  0  0  0  0  0  0  0  0  0  0  0
   57.5330   28.3500   44.1370 N   0  0  0  0  0  0  0  0  0  0  0  0
   57.7800   27.6320   45.1980 C   0  0  0  0  0  0  0  0  0  0  0  0
   57.0220   26.4700   45.3990 C   0  0  0  0  0  0  0  0  0  0  0  0
   56.2324   26.1984   44.6829 H   0  0  0  0  0  0  0  0  0  0  0  0
   57.2680   25.6570   46.5070 C   0  0  0  0  0  0  0  0  0  0  0  0
   56.6847   24.7359   46.6530 H   0  0  0  0  0  0  0  0  0  0  0  0
   58.2260   26.0020   47.4040 N   0  0  0  0  0  0  0  0  0  0  0  0
   58.9750   27.1300   47.2600 C   0  0  0  0  0  0  0  0  0  0  0  0
   59.9490   27.4850   48.2510 N   0  0  0  0  0  0  0  0  0  0  0  0
   60.6950   26.7860   48.4760 H   0  0  0  0  0  0  0  0  0  0  0  0
   60.0090   28.7730   48.8870 C   0  0  0  0  0  0  0  0  0  0  0  0
   61.0980   29.0850   49.7150 C   0  0  0  0  0  0  0  0  0  0  0  0
   61.9191   28.3627   49.8334 H   0  0  0  0  0  0  0  0  0  0  0  0
   61.1460   30.3090   50.3910 C   0  0  0  0  0  0  0  0  0  0  0  0
   62.0055   30.5431   51.0363 H   0  0  0  0  0  0  0  0  0  0  0  0
   60.1080   31.2380   50.2520 C   0  0  0  0  0  0  0  0  0  0  0  0
   60.1550   32.4440   51.0270 N   0  0  0  0  0  0  0  0  0  0  0  0
   59.7990   33.7570   50.5800 C   0  0  0  0  0  0  0  0  0  0  0  0
   59.2600   34.5770   51.3700 O   0  0  0  0  0  0  0  0  0  0  0  0
   60.1020   34.1780   49.1730 C   0  0  0  0  0  0  0  0  0  0  0  0
   59.3996   33.6776   48.4902 H   0  0  0  0  0  0  0  0  0  0  0  0
   59.9967   35.2710   49.1075 H   0  0  0  0  0  0  0  0  0  0  0  0
   61.5140   33.8110   48.7820 C   0  0  0  0  0  0  0  0  0  0  0  0
   62.4120   33.3760   49.7740 C   0  0  0  0  0  0  0  0  0  0  0  0
   62.0847   33.3260   50.8230 H   0  0  0  0  0  0  0  0  0  0  0  0
   63.7170   33.0070   49.4360 C   0  0  0  0  0  0  0  0  0  0  0  0
   64.8260   32.4640   50.6830 Cl  0  0  0  0  0  0  0  0  0  0  0  0
   64.1370   33.0700   48.1050 C   0  0  0  0  0  0  0  0  0  0  0  0
   65.1674   32.7896   47.8410 H   0  0  0  0  0  0  0  0  0  0  0  0
   63.2520   33.4880   47.1090 C   0  0  0  0  0  0  0  0  0  0  0  0
   63.5926   33.5450   46.0646 H   0  0  0  0  0  0  0  0  0  0  0  0
   61.9270   33.8370   47.4320 C   0  0  0  0  0  0  0  0  0  0  0  0
   61.0240   34.2620   46.4430 O   0  0  0  0  0  0  0  0  0  0  0  0
   59.7920   33.6600   46.1500 C   0  0  0  0  0  0  0  0  0  0  0  0
   59.6540   32.2770   46.3380 C   0  0  0  0  0  0  0  0  0  0  0  0
   60.5066   31.6874   46.7061 H   0  0  0  0  0  0  0  0  0  0  0  0
   58.4380   31.6430   46.0600 C   0  0  0  0  0  0  0  0  0  0  0  0
   58.3316   30.5605   46.2239 H   0  0  0  0  0  0  0  0  0  0  0  0
   57.3590   32.3860   45.5740 C   0  0  0  0  0  0  0  0  0  0  0  0
   56.4014   31.8883   45.3610 H   0  0  0  0  0  0  0  0  0  0  0  0
   57.4940   33.7600   45.3580 C   0  0  0  0  0  0  0  0  0  0  0  0
   56.6461   34.3410   44.9663 H   0  0  0  0  0  0  0  0  0  0  0  0
   58.7080   34.3970   45.6400 C   0  0  0  0  0  0  0  0  0  0  0  0
   58.8146   35.4773   45.4622 H   0  0  0  0  0  0  0  0  0  0  0  0
   59.0050   30.9190   49.4420 C   0  0  0  0  0  0  0  0  0  0  0  0
   58.1757   31.6344   49.3396 H   0  0  0  0  0  0  0  0  0  0  0  0
   58.9570   29.6970   48.7660 C   0  0  0  0  0  0  0  0  0  0  0  0
   58.0892   29.4564   48.1343 H   0  0  0  0  0  0  0  0  0  0  0  0
   58.7510   27.9770   46.1630 C   0  0  0  0  0  0  0  0  0  0  0  0
   59.3300   28.9061   46.0558 H   0  0  0  0  0  0  0  0  0  0  0  0
  1  2  1  0
  2  3  1  0
  2  4  2  0
  4  5  1  0
  4  6  1  0
  6  7  2  0
  6  8  1  0
  8  9  2  0
  9 10  1  0
 10 11  1  0
 10 12  2  0
 12 13  1  0
 12 14  1  0
 14 15  1  0
 15 16  1  0
 16 17  1  0
 16 18  1  0
 18 19  2  0
 19 20  1  0
 19 21  1  0
 21 22  1  0
 21 23  2  0
 23 24  1  0
 24 25  1  0
 25 26  2  0
 25 27  1  0
 27 28  1  0
 27 29  1  0
 27 30  1  0
 30 31  2  0
 31 32  1  0
 31 33  1  0
 33 34  1  0
 33 35  2  0
 35 36  1  0
 35 37  1  0
 37 38  1  0
 37 39  2  0
 39 40  1  0
 40 41  1  0
 41 42  2  0
 42 43  1  0
 42 44  1  0
 44 45  1  0
 44 46  2  0
 46 47  1  0
 46 48  1  0
 48 49  1  0
 48 50  2  0
 50 51  1  0
 23 52  1  0
 52 53  1  0
 52 54  2  0
 54 55  1  0
 15 56  2  0
 56 57  1  0
 56  9  1  0
 54 18  1  0
 39 30  1  0
 50 41  1  0
M  CHG  2  14  -1  24  -1
M  END
>  <UniqueID>  (100) 
92

>  <SMILES>  (100) 
C=CC(=O)/N=c1/cc[n-]c(Nc2ccc([N-]C(=O)Cc3cc(Cl)ccc3Oc3ccccc3)cc2)c1

>  <Energy>  (100) 
81.38068909385646

>  <Genealogy>  (100) 
C=CC(=O)N=c1cc[n-]c(Nc2ccc([N-]C(=O)Cc3cc(Cl)ccc3Oc3ccccc3)cc2)c1 (protonated)
C=CC(=O)/N=c1/cc[n-]c(Nc2ccc([N-]C(=O)Cc3cc(Cl)ccc3Oc3ccccc3)cc2)c1 (cis-trans isomerization)
C=CC(=O)/N=c1/cc[n-]c(Nc2ccc([N-]C(=O)Cc3cc(Cl)ccc3Oc3ccccc3)cc2)c1 (3D coordinates assigned)
C=CC(=O)/N=c1/cc[n-]c(Nc2ccc([N-]C(=O)Cc3cc(Cl)ccc3Oc3ccccc3)cc2)c1 (optimized conformer: 81.38068909385646 kcal/mol)

>  <smiles>  (100) 
C=CC(=O)N=c1cc[nH]c(Nc2ccc(NC(=O)Cc3cc(Cl)ccc3Oc3ccccc3)cc2)c1

>  <score_type>  (100) 
oracle

>  <origin>  (100) 
adg

>  <m_score__min__energy>  (100) 
-12.99

>  <m_primary>  (100) 
energy

$$$$
