0:0
     RDKit          3D

 47 50  0  0  0  0  0  0  0  0999 V2000
   55.7410   21.0730   44.6170 N   0  0  0  0  0  0  0  0  0  0  0  0
   56.6580   21.9480   43.4430 S   0  0  0  0  0  0  0  0  0  0  0  0
   57.8490   21.1280   43.0300 O   0  0  0  0  0  0  0  0  0  0  0  0
   55.8080   22.2070   42.2300 O   0  0  0  0  0  0  0  0  0  0  0  0
   57.1890   23.4780   44.1320 C   0  0  0  0  0  0  0  0  0  0  0  0
   57.2270   24.6270   43.3340 C   0  0  0  0  0  0  0  0  0  0  0  0
   57.6310   25.8490   43.8790 C   0  0  0  0  0  0  0  0  0  0  0  0
   57.9750   25.9390   45.2390 C   0  0  0  0  0  0  0  0  0  0  0  0
   58.4160   27.1790   45.8140 N   0  0  0  0  0  0  0  0  0  0  0  0
   57.6570   28.0570   46.3510 N   0  0  0  0  0  0  0  0  0  0  0  0
   57.3540   29.3410   45.7870 C   0  0  0  0  0  0  0  0  0  0  0  0
   56.2120   29.7190   45.0930 C   0  0  0  0  0  0  0  0  0  0  0  0
   55.1460   28.8810   44.7880 O   0  0  0  0  0  0  0  0  0  0  0  0
   56.2360   31.0310   44.7640 N   0  0  0  0  0  0  0  0  0  0  0  0
   57.4010   31.4770   45.2790 C   0  0  0  0  0  0  0  0  0  0  0  0
   57.9020   32.7730   45.1930 C   0  0  0  0  0  0  0  0  0  0  0  0
   59.1630   33.0400   45.7670 C   0  0  0  0  0  0  0  0  0  0  0  0
   59.7540   34.3810   45.6270 C   0  0  0  0  0  0  0  0  0  0  0  0
   59.5400   35.0370   44.5750 O   0  0  0  0  0  0  0  0  0  0  0  0
   60.6190   34.9340   46.6280 N   0  0  0  0  0  0  0  0  0  0  0  0
   60.6000   34.5950   48.0520 C   0  0  0  0  0  0  0  0  0  0  0  0
   61.9370   34.0650   48.5050 C   0  0  0  0  0  0  0  0  0  0  0  0
   62.3090   34.1400   49.8580 C   0  0  0  0  0  0  0  0  0  0  0  0
   63.5390   33.6250   50.2800 C   0  0  0  0  0  0  0  0  0  0  0  0
   64.4060   33.0360   49.3570 C   0  0  0  0  0  0  0  0  0  0  0  0
   65.5960   32.5330   49.7700 F   0  0  0  0  0  0  0  0  0  0  0  0
   64.0510   32.9730   48.0070 C   0  0  0  0  0  0  0  0  0  0  0  0
   62.8230   33.4900   47.5800 C   0  0  0  0  0  0  0  0  0  0  0  0
   59.8650   32.0110   46.4440 C   0  0  0  0  0  0  0  0  0  0  0  0
   59.3320   30.7130   46.5220 C   0  0  0  0  0  0  0  0  0  0  0  0
   58.0980   30.4830   45.9200 C   0  0  0  0  0  0  0  0  0  0  0  0
   57.9670   24.7820   46.0270 C   0  0  0  0  0  0  0  0  0  0  0  0
   57.5610   23.5600   45.4820 C   0  0  0  0  0  0  0  0  0  0  0  0
   54.7620   21.4350   44.5720 H   0  0  0  0  0  0  0  0  0  0  0  0
   56.9380   24.5682   42.2743 H   0  0  0  0  0  0  0  0  0  0  0  0
   57.6800   26.7439   43.2412 H   0  0  0  0  0  0  0  0  0  0  0  0
   57.3302   33.5675   44.6911 H   0  0  0  0  0  0  0  0  0  0  0  0
   60.3566   35.4972   48.6323 H   0  0  0  0  0  0  0  0  0  0  0  0
   59.8430   33.8135   48.2136 H   0  0  0  0  0  0  0  0  0  0  0  0
   61.6303   34.6055   50.5879 H   0  0  0  0  0  0  0  0  0  0  0  0
   63.8240   33.6840   51.3408 H   0  0  0  0  0  0  0  0  0  0  0  0
   64.7378   32.5164   47.2791 H   0  0  0  0  0  0  0  0  0  0  0  0
   62.5506   33.4458   46.5152 H   0  0  0  0  0  0  0  0  0  0  0  0
   60.8357   32.2306   46.9125 H   0  0  0  0  0  0  0  0  0  0  0  0
   59.8712   29.9067   47.0408 H   0  0  0  0  0  0  0  0  0  0  0  0
   58.2815   24.8344   47.0798 H   0  0  0  0  0  0  0  0  0  0  0  0
   57.5332   22.6601   46.1139 H   0  0  0  0  0  0  0  0  0  0  0  0
  1  2  1  0
  2  3  2  0
  2  4  2  0
  2  5  1  0
  5  6  2  0
  6  7  1  0
  7  8  2  0
  8  9  1  0
  9 10  2  3
 10 11  1  0
 11 12  2  0
 12 13  1  0
 12 14  1  0
 14 15  1  0
 15 16  2  0
 16 17  1  0
 17 18  1  0
 18 19  2  0
 18 20  1  0
 20 21  1  0
 21 22  1  0
 22 23  2  0
 23 24  1  0
 24 25  2  0
 25 26  1  0
 25 27  1  0
 27 28  2  0
 17 29  2  0
 29 30  1  0
 30 31  2  0
  8 32  1  0
 32 33  2  0
 33  5  1  0
 31 11  1  0
 31 15  1  0
 28 22  1  0
  1 34  1  0
  6 35  1  0
  7 36  1  0
 16 37  1  0
 21 38  1  0
 21 39  1  0
 23 40  1  0
 24 41  1  0
 27 42  1  0
 28 43  1  0
 29 44  1  0
 30 45  1  0
 32 46  1  0
 33 47  1  0
M  CHG  4   1  -1  13  -1  14  -1  20  -1
M  END
>  <UniqueID>  (1) 
1

>  <SMILES>  (1) 
[NH-]S(=O)(=O)c1ccc(N=Nc2c([O-])[n-]c3cc(C(=O)[N-]Cc4ccc(F)cc4)ccc23)cc1

>  <Energy>  (1) 
99.20814861227153

>  <Genealogy>  (1) 
[NH-]S(=O)(=O)c1ccc(N=Nc2c([O-])[n-]c3cc(C(=O)[N-]Cc4ccc(F)cc4)ccc23)cc1 (protonated)
[NH-]S(=O)(=O)c1ccc(N=Nc2c([O-])[n-]c3cc(C(=O)[N-]Cc4ccc(F)cc4)ccc23)cc1 (3D coordinates assigned)
[NH-]S(=O)(=O)c1ccc(N=Nc2c([O-])[n-]c3cc(C(=O)[N-]Cc4ccc(F)cc4)ccc23)cc1 (optimized conformer: 99.20814861227153 kcal/mol)

>  <smiles>  (1) 
NS(=O)(=O)c1ccc(N=Nc2c(O)[nH]c3cc(C(=O)NCc4ccc(F)cc4)ccc23)cc1

>  <score_type>  (1) 
oracle

>  <origin>  (1) 
adg

>  <m_score__min__energy>  (1) 
-16.780000000000001

>  <m_primary>  (1) 
energy

$$$$
1:0
     RDKit          3D

 36 38  0  0  0  0  0  0  0  0999 V2000
   58.9030   30.5410   47.9620 C   0  0  0  0  0  0  0  0  0  0  0  0
   58.2310   31.5950   47.2820 O   0  0  0  0  0  0  0  0  0  0  0  0
   58.8160   32.8250   46.9400 C   0  0  0  0  0  0  0  0  0  0  0  0
   59.8930   33.3610   47.6730 C   0  0  0  0  0  0  0  0  0  0  0  0
   60.4680   34.5770   47.2980 C   0  0  0  0  0  0  0  0  0  0  0  0
   59.9800   35.2710   46.1910 C   0  0  0  0  0  0  0  0  0  0  0  0
   58.9130   34.7530   45.4560 C   0  0  0  0  0  0  0  0  0  0  0  0
   58.3190   33.5340   45.8240 C   0  0  0  0  0  0  0  0  0  0  0  0
   57.2120   32.9650   44.9680 C   0  0  0  0  0  0  0  0  0  0  0  0
   57.7220   31.8960   43.9890 C   0  0  0  0  0  0  0  0  0  0  0  0
   57.3190   30.5030   44.4160 C   0  0  0  0  0  0  0  0  0  0  0  0
   55.9880   30.2360   44.4810 N   0  0  0  0  0  0  0  0  0  0  0  0
   55.5150   29.0660   44.9040 N   0  0  0  0  0  0  0  0  0  0  0  0
   56.3360   28.0680   45.3070 C   0  0  0  0  0  0  0  0  0  0  0  0
   55.8360   26.9800   45.7030 O   0  0  0  0  0  0  0  0  0  0  0  0
   57.7260   28.2610   45.2800 C   0  0  0  0  0  0  0  0  0  0  0  0
   58.6100   27.2530   45.7120 C   0  0  0  0  0  0  0  0  0  0  0  0
   59.9870   27.4690   45.6930 C   0  0  0  0  0  0  0  0  0  0  0  0
   60.4990   28.6820   45.2400 C   0  0  0  0  0  0  0  0  0  0  0  0
   59.6390   29.6910   44.8020 C   0  0  0  0  0  0  0  0  0  0  0  0
   58.2390   29.5010   44.8210 C   0  0  0  0  0  0  0  0  0  0  0  0
   58.8097   30.6873   49.0482 H   0  0  0  0  0  0  0  0  0  0  0  0
   58.4521   29.5776   47.6817 H   0  0  0  0  0  0  0  0  0  0  0  0
   59.9667   30.5433   47.6817 H   0  0  0  0  0  0  0  0  0  0  0  0
   60.2835   32.8181   48.5464 H   0  0  0  0  0  0  0  0  0  0  0  0
   61.3078   34.9885   47.8771 H   0  0  0  0  0  0  0  0  0  0  0  0
   60.4367   36.2276   45.8971 H   0  0  0  0  0  0  0  0  0  0  0  0
   58.5341   35.3030   44.5820 H   0  0  0  0  0  0  0  0  0  0  0  0
   56.4551   32.5110   45.6245 H   0  0  0  0  0  0  0  0  0  0  0  0
   56.7879   33.7889   44.3753 H   0  0  0  0  0  0  0  0  0  0  0  0
   57.3029   32.0977   42.9922 H   0  0  0  0  0  0  0  0  0  0  0  0
   58.8209   31.9437   43.9740 H   0  0  0  0  0  0  0  0  0  0  0  0
   58.2118   26.2907   46.0661 H   0  0  0  0  0  0  0  0  0  0  0  0
   60.6709   26.6791   46.0368 H   0  0  0  0  0  0  0  0  0  0  0  0
   61.5866   28.8462   45.2271 H   0  0  0  0  0  0  0  0  0  0  0  0
   60.0551   30.6423   44.4389 H   0  0  0  0  0  0  0  0  0  0  0  0
  1  2  1  0
  2  3  1  0
  3  4  2  0
  4  5  1  0
  5  6  2  0
  6  7  1  0
  7  8  2  0
  8  9  1  0
  9 10  1  0
 10 11  1  0
 11 12  2  0
 12 13  1  0
 13 14  1  0
 14 15  2  0
 14 16  1  0
 16 17  2  0
 17 18  1  0
 18 19  2  0
 19 20  1  0
 20 21  2  0
  8  3  1  0
 21 11  1  0
 21 16  1  0
  1 22  1  0
  1 23  1  0
  1 24  1  0
  4 25  1  0
  5 26  1  0
  6 27  1  0
  7 28  1  0
  9 29  1  0
  9 30  1  0
 10 31  1  0
 10 32  1  0
 17 33  1  0
 18 34  1  0
 19 35  1  0
 20 36  1  0
M  CHG  1  13  -1
M  END
>  <UniqueID>  (2) 
2

>  <SMILES>  (2) 
COc1ccccc1CCc1n[n-]c(=O)c2ccccc12

>  <Energy>  (2) 
41.076382024386746

>  <Genealogy>  (2) 
COc1ccccc1CCc1n[n-]c(=O)c2ccccc12 (protonated)
COc1ccccc1CCc1n[n-]c(=O)c2ccccc12 (3D coordinates assigned)
COc1ccccc1CCc1n[n-]c(=O)c2ccccc12 (optimized conformer: 41.076382024386746 kcal/mol)

>  <smiles>  (2) 
COc1ccccc1CCc1n[nH]c(=O)c2ccccc12

>  <score_type>  (2) 
oracle

>  <origin>  (2) 
adg

>  <m_score__min__energy>  (2) 
-10.279999999999999

>  <m_primary>  (2) 
energy

$$$$
2:0
     RDKit          3D

 29 30  0  0  0  0  0  0  0  0999 V2000
   57.8660   33.3120   44.4010 N   0  0  0  0  0  0  0  0  0  0  0  0
   58.2310   32.2810   45.3270 C   0  0  0  0  0  0  0  0  0  0  0  0
   59.0650   32.4930   46.4430 C   0  0  0  0  0  0  0  0  0  0  0  0
   59.7990   34.0410   46.8530 S   0  0  0  0  0  0  0  0  0  0  0  0
   60.0030   34.8290   45.5890 O   0  0  0  0  0  0  0  0  0  0  0  0
   58.8910   34.8170   47.7660 O   0  0  0  0  0  0  0  0  0  0  0  0
   61.3330   33.7730   47.6750 C   0  0  0  0  0  0  0  0  0  0  0  0
   61.4550   34.0100   49.0520 C   0  0  0  0  0  0  0  0  0  0  0  0
   62.6800   33.8010   49.6950 C   0  0  0  0  0  0  0  0  0  0  0  0
   63.7870   33.3530   48.9660 C   0  0  0  0  0  0  0  0  0  0  0  0
   65.3220   33.0930   49.7730 Cl  0  0  0  0  0  0  0  0  0  0  0  0
   63.6670   33.1110   47.5930 C   0  0  0  0  0  0  0  0  0  0  0  0
   62.4430   33.3190   46.9500 C   0  0  0  0  0  0  0  0  0  0  0  0
   59.2890   31.3440   47.1940 C   0  0  0  0  0  0  0  0  0  0  0  0
   58.4570   30.0720   46.4780 S   0  0  0  0  0  0  0  0  0  0  0  0
   57.8010   30.9590   45.2130 C   0  0  0  0  0  0  0  0  0  0  0  0
   56.7800   30.2790   43.9530 S   0  0  0  0  0  0  0  0  0  0  0  0
   57.4140   28.7560   43.4370 N   0  0  0  0  0  0  0  0  0  0  0  0
   55.3930   30.0740   44.4960 O   0  0  0  0  0  0  0  0  0  0  0  0
   56.7070   31.2250   42.7880 O   0  0  0  0  0  0  0  0  0  0  0  0
   57.2380   33.1180   43.5920 H   0  0  0  0  0  0  0  0  0  0  0  0
   58.2250   34.2850   44.5050 H   0  0  0  0  0  0  0  0  0  0  0  0
   60.5858   34.3609   49.6276 H   0  0  0  0  0  0  0  0  0  0  0  0
   62.7728   33.9891   50.7748 H   0  0  0  0  0  0  0  0  0  0  0  0
   64.5361   32.7569   47.0192 H   0  0  0  0  0  0  0  0  0  0  0  0
   62.3510   33.1256   45.8711 H   0  0  0  0  0  0  0  0  0  0  0  0
   59.9060   31.2791   48.1023 H   0  0  0  0  0  0  0  0  0  0  0  0
   56.6240   28.2170   43.0160 H   0  0  0  0  0  0  0  0  0  0  0  0
   58.0880   28.9520   42.6640 H   0  0  0  0  0  0  0  0  0  0  0  0
  1  2  1  0
  2  3  1  0
  3  4  1  0
  4  5  2  0
  4  6  2  0
  4  7  1  0
  7  8  2  0
  8  9  1  0
  9 10  2  0
 10 11  1  0
 10 12  1  0
 12 13  2  0
  3 14  2  0
 14 15  1  0
 15 16  1  0
 16 17  1  0
 17 18  1  0
 17 19  2  0
 17 20  2  0
 16  2  2  0
 13  7  1  0
  1 21  1  0
  1 22  1  0
  8 23  1  0
  9 24  1  0
 12 25  1  0
 13 26  1  0
 14 27  1  0
 18 28  1  0
 18 29  1  0
M  END
>  <UniqueID>  (3) 
3

>  <SMILES>  (3) 
Nc1c(S(=O)(=O)c2ccc(Cl)cc2)csc1S(N)(=O)=O

>  <Energy>  (3) 
55.69983259896587

>  <Genealogy>  (3) 
Nc1c(S(=O)(=O)c2ccc(Cl)cc2)csc1S(N)(=O)=O (3D coordinates assigned)
Nc1c(S(=O)(=O)c2ccc(Cl)cc2)csc1S(N)(=O)=O (optimized conformer: 55.69983259896587 kcal/mol)

>  <smiles>  (3) 
Nc1c(S(=O)(=O)c2ccc(Cl)cc2)csc1S(N)(=O)=O

>  <score_type>  (3) 
oracle

>  <origin>  (3) 
adg

>  <m_score__min__energy>  (3) 
-8.5199999999999996

>  <m_primary>  (3) 
energy

$$$$
3:0
     RDKit          3D

 35 36  0  0  0  0  0  0  0  0999 V2000
   57.7870   21.8500   44.4440 C   0  0  0  0  0  0  0  0  0  0  0  0
   56.4560   22.4060   44.0360 C   0  0  0  0  0  0  0  0  0  0  0  0
   55.9220   21.9680   42.9840 O   0  0  0  0  0  0  0  0  0  0  0  0
   55.7450   23.3970   44.8000 N   0  0  0  0  0  0  0  0  0  0  0  0
   56.0990   24.6050   45.1340 C   0  0  0  0  0  0  0  0  0  0  0  0
   55.3870   25.3340   46.0190 N   0  0  0  0  0  0  0  0  0  0  0  0
   55.8750   26.5590   46.2120 N   0  0  0  0  0  0  0  0  0  0  0  0
   56.9840   26.8160   45.4840 C   0  0  0  0  0  0  0  0  0  0  0  0
   57.6820   28.1380   45.4790 C   0  0  0  0  0  0  0  0  0  0  0  0
   56.6850   29.2450   45.2840 C   0  0  0  0  0  0  0  0  0  0  0  0
   55.5320   28.9610   44.8640 O   0  0  0  0  0  0  0  0  0  0  0  0
   57.0200   30.6200   45.5000 N   0  0  0  0  0  0  0  0  0  0  0  0
   58.3040   31.2260   45.1710 C   0  0  0  0  0  0  0  0  0  0  0  0
   58.7370   32.1300   46.2980 C   0  0  0  0  0  0  0  0  0  0  0  0
   59.0650   31.5360   47.5300 C   0  0  0  0  0  0  0  0  0  0  0  0
   59.4580   32.3150   48.6160 C   0  0  0  0  0  0  0  0  0  0  0  0
   59.5250   33.7010   48.4930 C   0  0  0  0  0  0  0  0  0  0  0  0
   59.9160   34.4560   49.5490 F   0  0  0  0  0  0  0  0  0  0  0  0
   59.1880   34.3140   47.2850 C   0  0  0  0  0  0  0  0  0  0  0  0
   58.7700   33.5490   46.1760 C   0  0  0  0  0  0  0  0  0  0  0  0
   58.4190   34.2500   44.8750 C   0  0  0  0  0  0  0  0  0  0  0  0
   57.0540   34.4410   44.7490 F   0  0  0  0  0  0  0  0  0  0  0  0
   59.0350   35.4880   44.8380 F   0  0  0  0  0  0  0  0  0  0  0  0
   58.8390   33.4960   43.7950 F   0  0  0  0  0  0  0  0  0  0  0  0
   57.4040   25.4930   44.5300 S   0  0  0  0  0  0  0  0  0  0  0  0
   57.8521   21.8228   45.5417 H   0  0  0  0  0  0  0  0  0  0  0  0
   57.8966   20.8309   44.0448 H   0  0  0  0  0  0  0  0  0  0  0  0
   58.5890   22.4883   44.0448 H   0  0  0  0  0  0  0  0  0  0  0  0
   58.2006   28.2797   46.4387 H   0  0  0  0  0  0  0  0  0  0  0  0
   58.4102   28.1586   44.6548 H   0  0  0  0  0  0  0  0  0  0  0  0
   59.0556   30.4361   45.0252 H   0  0  0  0  0  0  0  0  0  0  0  0
   58.2057   31.8140   44.2465 H   0  0  0  0  0  0  0  0  0  0  0  0
   59.0105   30.4426   47.6373 H   0  0  0  0  0  0  0  0  0  0  0  0
   59.7157   31.8352   49.5717 H   0  0  0  0  0  0  0  0  0  0  0  0
   59.2492   35.4087   47.1967 H   0  0  0  0  0  0  0  0  0  0  0  0
  1  2  1  0
  2  3  2  0
  2  4  1  0
  4  5  2  3
  5  6  1  0
  6  7  1  0
  7  8  2  0
  8  9  1  0
  9 10  1  0
 10 11  2  0
 10 12  1  0
 12 13  1  0
 13 14  1  0
 14 15  2  0
 15 16  1  0
 16 17  2  0
 17 18  1  0
 17 19  1  0
 19 20  2  0
 20 21  1  0
 21 22  1  0
 21 23  1  0
 21 24  1  0
  8 25  1  0
 25  5  1  0
 20 14  1  0
  1 26  1  0
  1 27  1  0
  1 28  1  0
  9 29  1  0
  9 30  1  0
 13 31  1  0
 13 32  1  0
 15 33  1  0
 16 34  1  0
 19 35  1  0
M  CHG  2   6  -1  12  -1
M  END
>  <UniqueID>  (4) 
4

>  <SMILES>  (4) 
CC(=O)N=c1[n-]nc(CC(=O)[N-]Cc2ccc(F)cc2C(F)(F)F)s1

>  <Energy>  (4) 
71.74047517204689

>  <Genealogy>  (4) 
CC(=O)N=c1[n-]nc(CC(=O)[N-]Cc2ccc(F)cc2C(F)(F)F)s1 (protonated)
CC(=O)N=c1[n-]nc(CC(=O)[N-]Cc2ccc(F)cc2C(F)(F)F)s1 (3D coordinates assigned)
CC(=O)N=c1[n-]nc(CC(=O)[N-]Cc2ccc(F)cc2C(F)(F)F)s1 (optimized conformer: 71.74047517204689 kcal/mol)

>  <smiles>  (4) 
CC(=O)N=c1[nH]nc(CC(=O)NCc2ccc(F)cc2C(F)(F)F)s1

>  <score_type>  (4) 
oracle

>  <origin>  (4) 
adg

>  <m_score__min__energy>  (4) 
-11.31

>  <m_primary>  (4) 
energy

$$$$
4:0
     RDKit          3D

 44 46  0  0  0  0  0  0  0  0999 V2000
   59.6400   33.5150   49.9140 C   0  0  0  0  0  0  0  0  0  0  0  0
   60.9570   33.5760   49.2110 C   0  0  0  0  0  0  0  0  0  0  0  0
   62.1330   33.2800   49.8010 N   0  0  0  0  0  0  0  0  0  0  0  0
   63.0780   33.3650   48.8760 N   0  0  0  0  0  0  0  0  0  0  0  0
   64.4830   33.0840   49.1440 C   0  0  0  0  0  0  0  0  0  0  0  0
   62.5290   33.7030   47.6850 C   0  0  0  0  0  0  0  0  0  0  0  0
   63.2720   33.8140   46.3840 C   0  0  0  0  0  0  0  0  0  0  0  0
   61.1620   33.8330   47.8660 C   0  0  0  0  0  0  0  0  0  0  0  0
   59.9270   34.2050   46.6630 S   0  0  0  0  0  0  0  0  0  0  0  0
   60.4010   33.8820   45.2710 O   0  0  0  0  0  0  0  0  0  0  0  0
   59.6030   35.6690   46.7340 O   0  0  0  0  0  0  0  0  0  0  0  0
   58.4930   33.2880   47.0000 N   0  0  0  0  0  0  0  0  0  0  0  0
   58.2070   31.9840   46.4770 C   0  0  0  0  0  0  0  0  0  0  0  0
   58.6560   30.8090   47.1010 C   0  0  0  0  0  0  0  0  0  0  0  0
   58.3750   29.5590   46.5410 C   0  0  0  0  0  0  0  0  0  0  0  0
   57.6420   29.4680   45.3440 C   0  0  0  0  0  0  0  0  0  0  0  0
   57.3410   28.2330   44.7510 O   0  0  0  0  0  0  0  0  0  0  0  0
   57.5300   26.9800   45.3520 C   0  0  0  0  0  0  0  0  0  0  0  0
   58.8380   26.5000   45.4930 C   0  0  0  0  0  0  0  0  0  0  0  0
   59.0760   25.2640   46.0970 C   0  0  0  0  0  0  0  0  0  0  0  0
   58.0050   24.5040   46.5790 C   0  0  0  0  0  0  0  0  0  0  0  0
   56.6960   24.9800   46.4600 C   0  0  0  0  0  0  0  0  0  0  0  0
   56.4500   26.2230   45.8610 C   0  0  0  0  0  0  0  0  0  0  0  0
   55.1470   26.7160   45.7970 O   0  0  0  0  0  0  0  0  0  0  0  0
   57.1670   30.6380   44.7420 C   0  0  0  0  0  0  0  0  0  0  0  0
   57.4530   31.8880   45.2990 C   0  0  0  0  0  0  0  0  0  0  0  0
   59.8042   33.5226   51.0016 H   0  0  0  0  0  0  0  0  0  0  0  0
   59.0315   34.3859   49.6290 H   0  0  0  0  0  0  0  0  0  0  0  0
   59.1146   32.5916   49.6290 H   0  0  0  0  0  0  0  0  0  0  0  0
   64.6494   33.0507   50.2308 H   0  0  0  0  0  0  0  0  0  0  0  0
   64.7538   32.1139   48.7017 H   0  0  0  0  0  0  0  0  0  0  0  0
   65.1060   33.8753   48.7017 H   0  0  0  0  0  0  0  0  0  0  0  0
   64.3416   33.9738   46.5851 H   0  0  0  0  0  0  0  0  0  0  0  0
   63.1419   32.8865   45.8072 H   0  0  0  0  0  0  0  0  0  0  0  0
   62.8765   34.6630   45.8072 H   0  0  0  0  0  0  0  0  0  0  0  0
   59.2322   30.8723   48.0359 H   0  0  0  0  0  0  0  0  0  0  0  0
   58.7284   28.6437   47.0383 H   0  0  0  0  0  0  0  0  0  0  0  0
   59.6832   27.1006   45.1256 H   0  0  0  0  0  0  0  0  0  0  0  0
   60.1052   24.8879   46.1938 H   0  0  0  0  0  0  0  0  0  0  0  0
   58.1934   23.5293   47.0529 H   0  0  0  0  0  0  0  0  0  0  0  0
   55.8568   24.3774   46.8375 H   0  0  0  0  0  0  0  0  0  0  0  0
   54.7780   27.1400   44.9510 H   0  0  0  0  0  0  0  0  0  0  0  0
   56.5643   30.5741   43.8240 H   0  0  0  0  0  0  0  0  0  0  0  0
   57.0842   32.8017   44.8100 H   0  0  0  0  0  0  0  0  0  0  0  0
  1  2  1  0
  2  3  2  0
  3  4  1  0
  4  5  1  0
  4  6  1  0
  6  7  1  0
  6  8  2  0
  8  9  1  0
  9 10  2  0
  9 11  2  0
  9 12  1  0
 12 13  1  0
 13 14  2  0
 14 15  1  0
 15 16  2  0
 16 17  1  0
 17 18  1  0
 18 19  2  0
 19 20  1  0
 20 21  2  0
 21 22  1  0
 22 23  2  0
 23 24  1  0
 16 25  1  0
 25 26  2  0
  8  2  1  0
 26 13  1  0
 23 18  1  0
  1 27  1  0
  1 28  1  0
  1 29  1  0
  5 30  1  0
  5 31  1  0
  5 32  1  0
  7 33  1  0
  7 34  1  0
  7 35  1  0
 14 36  1  0
 15 37  1  0
 19 38  1  0
 20 39  1  0
 21 40  1  0
 22 41  1  0
 24 42  1  0
 25 43  1  0
 26 44  1  0
M  CHG  1  12  -1
M  END
>  <UniqueID>  (5) 
5

>  <SMILES>  (5) 
Cc1nn(C)c(C)c1S(=O)(=O)[N-]c1ccc(Oc2ccccc2O)cc1

>  <Energy>  (5) 
84.63663737781361

>  <Genealogy>  (5) 
Cc1nn(C)c(C)c1S(=O)(=O)[N-]c1ccc(Oc2ccccc2O)cc1 (protonated)
Cc1nn(C)c(C)c1S(=O)(=O)[N-]c1ccc(Oc2ccccc2O)cc1 (3D coordinates assigned)
Cc1nn(C)c(C)c1S(=O)(=O)[N-]c1ccc(Oc2ccccc2O)cc1 (optimized conformer: 84.63663737781361 kcal/mol)

>  <smiles>  (5) 
Cc1nn(C)c(C)c1S(=O)(=O)Nc1ccc(Oc2ccccc2O)cc1

>  <score_type>  (5) 
oracle

>  <origin>  (5) 
adg

>  <m_score__min__energy>  (5) 
-9.9100000000000001

>  <m_primary>  (5) 
energy

$$$$
5:0
     RDKit          3D

 49 52  0  0  0  0  0  0  0  0999 V2000
   55.5340   30.3710   54.3020 C   0  0  0  0  0  0  0  0  0  0  0  0
   55.6660   30.0290   52.5560 S   0  0  0  0  0  0  0  0  0  0  0  0
   54.4490   30.5370   51.8330 O   0  0  0  0  0  0  0  0  0  0  0  0
   55.7600   28.5380   52.3660 O   0  0  0  0  0  0  0  0  0  0  0  0
   57.0990   30.8240   51.9120 C   0  0  0  0  0  0  0  0  0  0  0  0
   57.0720   32.1880   51.5900 C   0  0  0  0  0  0  0  0  0  0  0  0
   58.2110   32.8100   51.0690 C   0  0  0  0  0  0  0  0  0  0  0  0
   59.3860   32.0670   50.8450 C   0  0  0  0  0  0  0  0  0  0  0  0
   60.6450   32.7330   50.3210 C   0  0  1  0  0  0  0  0  0  0  0  0
   61.8010   32.4220   51.1750 N   0  0  0  0  0  0  0  0  0  0  0  0
   63.1420   32.5690   50.6860 C   0  0  0  0  0  0  0  0  0  0  0  0
   64.2340   32.4830   51.5640 C   0  0  0  0  0  0  0  0  0  0  0  0
   65.5340   32.6650   51.0960 C   0  0  0  0  0  0  0  0  0  0  0  0
   65.7510   32.9520   49.7520 C   0  0  0  0  0  0  0  0  0  0  0  0
   64.6730   33.0180   48.8610 C   0  0  0  0  0  0  0  0  0  0  0  0
   63.3680   32.8040   49.3190 C   0  0  0  0  0  0  0  0  0  0  0  0
   62.2220   32.7270   48.3930 C   0  0  0  0  0  0  0  0  0  0  0  0
   62.3710   32.9210   47.1660 O   0  0  0  0  0  0  0  0  0  0  0  0
   60.9370   32.3760   48.9150 N   0  0  0  0  0  0  0  0  0  0  0  0
   60.0860   31.5190   48.1410 C   0  0  0  0  0  0  0  0  0  0  0  0
   60.2430   30.1290   48.2240 C   0  0  0  0  0  0  0  0  0  0  0  0
   59.4120   29.2830   47.4890 C   0  0  0  0  0  0  0  0  0  0  0  0
   58.4220   29.8210   46.6540 C   0  0  0  0  0  0  0  0  0  0  0  0
   57.4110   28.7470   45.6960 S   0  0  0  0  0  0  0  0  0  0  0  0
   55.9610   29.5770   45.2440 N   0  0  0  0  0  0  0  0  0  0  0  0
   57.0590   27.5210   46.4930 O   0  0  0  0  0  0  0  0  0  0  0  0
   58.1520   28.3190   44.4570 O   0  0  0  0  0  0  0  0  0  0  0  0
   58.2690   31.2130   46.5640 C   0  0  0  0  0  0  0  0  0  0  0  0
   59.0960   32.0600   47.3090 C   0  0  0  0  0  0  0  0  0  0  0  0
   59.4110   30.7060   51.1910 C   0  0  0  0  0  0  0  0  0  0  0  0
   58.2780   30.0920   51.7270 C   0  0  0  0  0  0  0  0  0  0  0  0
   55.8723   29.4944   54.8739 H   0  0  0  0  0  0  0  0  0  0  0  0
   56.1620   31.2381   54.5543 H   0  0  0  0  0  0  0  0  0  0  0  0
   54.4862   30.5913   54.5543 H   0  0  0  0  0  0  0  0  0  0  0  0
   56.1524   32.7707   51.7476 H   0  0  0  0  0  0  0  0  0  0  0  0
   58.1889   33.8842   50.8332 H   0  0  0  0  0  0  0  0  0  0  0  0
   60.4580   33.8166   50.3504 H   0  0  0  0  0  0  0  0  0  0  0  0
   61.6560   32.3770   52.2100 H   0  0  0  0  0  0  0  0  0  0  0  0
   64.0622   32.2703   52.6295 H   0  0  0  0  0  0  0  0  0  0  0  0
   66.3858   32.5820   51.7870 H   0  0  0  0  0  0  0  0  0  0  0  0
   66.7740   33.1278   49.3878 H   0  0  0  0  0  0  0  0  0  0  0  0
   64.8522   33.2386   47.7984 H   0  0  0  0  0  0  0  0  0  0  0  0
   61.0242   29.7034   48.8710 H   0  0  0  0  0  0  0  0  0  0  0  0
   59.5335   28.1923   47.5646 H   0  0  0  0  0  0  0  0  0  0  0  0
   55.1560   28.9760   45.5410 H   0  0  0  0  0  0  0  0  0  0  0  0
   57.4971   31.6389   45.9062 H   0  0  0  0  0  0  0  0  0  0  0  0
   58.9695   33.1507   47.2420 H   0  0  0  0  0  0  0  0  0  0  0  0
   60.3295   30.1202   51.0386 H   0  0  0  0  0  0  0  0  0  0  0  0
   58.3115   29.0283   52.0053 H   0  0  0  0  0  0  0  0  0  0  0  0
  1  2  1  0
  2  3  2  0
  2  4  2  0
  2  5  1  0
  5  6  2  0
  6  7  1  0
  7  8  2  0
  8  9  1  0
  9 10  1  0
 10 11  1  0
 11 12  2  0
 12 13  1  0
 13 14  2  0
 14 15  1  0
 15 16  2  0
 16 17  1  0
 17 18  2  0
 17 19  1  0
 19 20  1  0
 20 21  2  0
 21 22  1  0
 22 23  2  0
 23 24  1  0
 24 25  1  0
 24 26  2  0
 24 27  2  0
 23 28  1  0
 28 29  2  0
  8 30  1  0
 30 31  2  0
 31  5  1  0
 19  9  1  0
 29 20  1  0
 16 11  1  0
  1 32  1  0
  1 33  1  0
  1 34  1  0
  6 35  1  0
  7 36  1  0
  9 37  1  6
 10 38  1  0
 12 39  1  0
 13 40  1  0
 14 41  1  0
 15 42  1  0
 21 43  1  0
 22 44  1  0
 25 45  1  0
 28 46  1  0
 29 47  1  0
 30 48  1  0
 31 49  1  0
M  CHG  1  25  -1
M  END
>  <UniqueID>  (6) 
6

>  <SMILES>  (6) 
CS(=O)(=O)c1ccc([C@H]2Nc3ccccc3C(=O)N2c2ccc(S([NH-])(=O)=O)cc2)cc1

>  <Energy>  (6) 
64.30841492681071

>  <Genealogy>  (6) 
CS(=O)(=O)c1ccc(C2Nc3ccccc3C(=O)N2c2ccc(S([NH-])(=O)=O)cc2)cc1 (protonated)
CS(=O)(=O)c1ccc([C@H]2Nc3ccccc3C(=O)N2c2ccc(S([NH-])(=O)=O)cc2)cc1 (chirality)
CS(=O)(=O)c1ccc([C@H]2Nc3ccccc3C(=O)N2c2ccc(S([NH-])(=O)=O)cc2)cc1 (3D coordinates assigned)
CS(=O)(=O)c1ccc([C@H]2Nc3ccccc3C(=O)N2c2ccc(S([NH-])(=O)=O)cc2)cc1 (nonaromatic ring conformer: 64.30841492681071 kcal/mol)

>  <smiles>  (6) 
CS(=O)(=O)c1ccc(C2Nc3ccccc3C(=O)N2c2ccc(S(N)(=O)=O)cc2)cc1

>  <score_type>  (6) 
oracle

>  <origin>  (6) 
adg

>  <m_score__min__energy>  (6) 
-9.9900000000000002

>  <m_primary>  (6) 
energy

$$$$
6:0
     RDKit          3D

 57 59  0  0  0  0  0  0  0  0999 V2000
   56.7901   26.9536   44.8994 H   0  0  0  0  0  0  0  0  0  0  0  0
   57.4430   27.8380   44.8590 C   0  0  0  0  0  0  0  0  0  0  0  0
   56.8340   29.1120   44.4260 C   0  0  0  0  0  0  0  0  0  0  0  0
   55.6910   29.4130   44.8590 O   0  0  0  0  0  0  0  0  0  0  0  0
   57.5470   30.0270   43.5760 N   0  0  0  0  0  0  0  0  0  0  0  0
   58.5550   29.8520   43.3610 H   0  0  0  0  0  0  0  0  0  0  0  0
   56.9110   31.1970   42.9770 C   0  0  0  0  0  0  0  0  0  0  0  0
   56.8065   31.0375   41.8937 H   0  0  0  0  0  0  0  0  0  0  0  0
   55.9215   31.3386   43.4362 H   0  0  0  0  0  0  0  0  0  0  0  0
   57.7560   32.4510   43.2230 C   0  0  0  0  0  0  0  0  0  0  0  0
   58.8205   32.1739   43.2259 H   0  0  0  0  0  0  0  0  0  0  0  0
   57.5520   33.1769   42.4221 H   0  0  0  0  0  0  0  0  0  0  0  0
   57.3970   33.0950   44.5780 C   0  0  0  0  0  0  0  0  0  0  0  0
   56.9906   34.0986   44.3838 H   0  0  0  0  0  0  0  0  0  0  0  0
   56.6731   32.4220   45.0607 H   0  0  0  0  0  0  0  0  0  0  0  0
   58.5340   33.2310   45.5170 N   0  0  0  0  0  0  0  0  0  0  0  0
   58.1180   33.2950   46.9210 C   0  0  0  0  0  0  0  0  0  0  0  0
   57.6907   34.2866   47.1311 H   0  0  0  0  0  0  0  0  0  0  0  0
   57.3621   32.5193   47.1131 H   0  0  0  0  0  0  0  0  0  0  0  0
   59.3270   33.0600   47.8270 C   0  0  0  0  0  0  0  0  0  0  0  0
   59.0914   33.4589   48.8247 H   0  0  0  0  0  0  0  0  0  0  0  0
   59.5098   31.9753   47.8296 H   0  0  0  0  0  0  0  0  0  0  0  0
   60.5790   33.6970   47.3580 N   0  0  0  0  0  0  0  0  0  0  0  0
   61.7720   33.6140   48.2030 C   0  0  0  0  0  0  0  0  0  0  0  0
   62.9710   33.0280   47.7270 C   0  0  0  0  0  0  0  0  0  0  0  0
   63.0086   32.6287   46.7027 H   0  0  0  0  0  0  0  0  0  0  0  0
   64.1070   32.9490   48.5380 C   0  0  0  0  0  0  0  0  0  0  0  0
   65.0263   32.4873   48.1484 H   0  0  0  0  0  0  0  0  0  0  0  0
   64.0810   33.4520   49.8370 C   0  0  0  0  0  0  0  0  0  0  0  0
   65.5090   33.3490   50.8510 Cl  0  0  0  0  0  0  0  0  0  0  0  0
   62.9170   34.0430   50.3280 C   0  0  0  0  0  0  0  0  0  0  0  0
   62.8962   34.4445   51.3519 H   0  0  0  0  0  0  0  0  0  0  0  0
   61.7770   34.1270   49.5240 C   0  0  0  0  0  0  0  0  0  0  0  0
   60.8676   34.5996   49.9236 H   0  0  0  0  0  0  0  0  0  0  0  0
   60.7070   34.2690   45.9950 C   0  0  0  0  0  0  0  0  0  0  0  0
   61.1411   35.2757   46.0851 H   0  0  0  0  0  0  0  0  0  0  0  0
   61.3409   33.5742   45.4245 H   0  0  0  0  0  0  0  0  0  0  0  0
   59.3890   34.3850   45.2240 C   0  0  0  0  0  0  0  0  0  0  0  0
   58.8711   35.3078   45.5245 H   0  0  0  0  0  0  0  0  0  0  0  0
   59.6027   34.4117   44.1453 H   0  0  0  0  0  0  0  0  0  0  0  0
   58.7280   27.6720   45.2070 C   0  0  0  0  0  0  0  0  0  0  0  0
   59.3244   26.9629   44.6142 H   0  0  0  0  0  0  0  0  0  0  0  0
   59.4080   28.3650   46.3230 C   0  0  0  0  0  0  0  0  0  0  0  0
   60.1670   29.5150   46.0540 C   0  0  0  0  0  0  0  0  0  0  0  0
   60.2571   29.8815   45.0208 H   0  0  0  0  0  0  0  0  0  0  0  0
   60.8090   30.1970   47.0920 C   0  0  0  0  0  0  0  0  0  0  0  0
   61.4187   31.0854   46.8709 H   0  0  0  0  0  0  0  0  0  0  0  0
   60.6770   29.7510   48.4120 C   0  0  0  0  0  0  0  0  0  0  0  0
   61.5110   30.6210   49.7410 S   0  0  0  0  0  0  0  0  0  0  0  0
   59.9610   31.0950   50.5670 C   0  0  0  0  0  0  0  0  0  0  0  0
   60.0989   31.0528   51.6575 H   0  0  0  0  0  0  0  0  0  0  0  0
   59.6861   32.1183   50.2715 H   0  0  0  0  0  0  0  0  0  0  0  0
   59.1608   30.4005   50.2715 H   0  0  0  0  0  0  0  0  0  0  0  0
   59.9020   28.6210   48.6910 C   0  0  0  0  0  0  0  0  0  0  0  0
   59.7985   28.2691   49.7280 H   0  0  0  0  0  0  0  0  0  0  0  0
   59.2590   27.9380   47.6560 C   0  0  0  0  0  0  0  0  0  0  0  0
   58.6333   27.0624   47.8837 H   0  0  0  0  0  0  0  0  0  0  0  0
  1  2  1  0
  2  3  1  0
  3  4  2  0
  3  5  1  0
  5  6  1  0
  5  7  1  0
  7  8  1  0
  7  9  1  0
  7 10  1  0
 10 11  1  0
 10 12  1  0
 10 13  1  0
 13 14  1  0
 13 15  1  0
 13 16  1  0
 16 17  1  0
 17 18  1  0
 17 19  1  0
 17 20  1  0
 20 21  1  0
 20 22  1  0
 20 23  1  0
 23 24  1  0
 24 25  2  0
 25 26  1  0
 25 27  1  0
 27 28  1  0
 27 29  2  0
 29 30  1  0
 29 31  1  0
 31 32  1  0
 31 33  2  0
 33 34  1  0
 23 35  1  0
 35 36  1  0
 35 37  1  0
 35 38  1  0
 38 39  1  0
 38 40  1  0
  2 41  2  0
 41 42  1  0
 41 43  1  0
 43 44  2  0
 44 45  1  0
 44 46  1  0
 46 47  1  0
 46 48  2  0
 48 49  1  0
 49 50  1  0
 50 51  1  0
 50 52  1  0
 50 53  1  0
 48 54  1  0
 54 55  1  0
 54 56  2  0
 56 57  1  0
 38 16  1  0
 56 43  1  0
 33 24  1  0
M  END
>  <UniqueID>  (7) 
7

>  <SMILES>  (7) 
CSc1ccc(/C=C\C(=O)NCCCN2CCN(c3ccc(Cl)cc3)CC2)cc1

>  <Energy>  (7) 
67.37191451921288

>  <Genealogy>  (7) 
CSc1ccc(/C=C\C(=O)NCCCN2CCN(c3ccc(Cl)cc3)CC2)cc1 (cis-trans isomerization)
CSc1ccc(/C=C\C(=O)NCCCN2CCN(c3ccc(Cl)cc3)CC2)cc1 (3D coordinates assigned)
CSc1ccc(/C=C\C(=O)NCCCN2CCN(c3ccc(Cl)cc3)CC2)cc1 (nonaromatic ring conformer: 67.37191451921288 kcal/mol)

>  <smiles>  (7) 
CSc1ccc(C=CC(=O)NCCCN2CCN(c3ccc(Cl)cc3)CC2)cc1

>  <score_type>  (7) 
oracle

>  <origin>  (7) 
adg

>  <m_score__min__energy>  (7) 
-8.8000000000000007

>  <m_primary>  (7) 
energy

$$$$
7:0
     RDKit          3D

 47 48  0  0  0  0  0  0  0  0999 V2000
   60.6360   26.7320   46.3520 C   0  0  0  0  0  0  0  0  0  0  0  0
   59.7390   27.7780   45.7610 C   0  0  0  0  0  0  0  0  0  0  0  0
   60.2800   28.9490   45.2190 C   0  0  0  0  0  0  0  0  0  0  0  0
   59.4410   29.9440   44.7150 C   0  0  0  0  0  0  0  0  0  0  0  0
   58.0510   29.7990   44.7720 C   0  0  0  0  0  0  0  0  0  0  0  0
   57.2390   30.9070   44.3520 N   0  0  0  0  0  0  0  0  0  0  0  0
   57.6810   32.2710   44.3250 C   0  0  0  0  0  0  0  0  0  0  0  0
   57.5170   32.9420   43.2720 O   0  0  0  0  0  0  0  0  0  0  0  0
   58.3230   32.9050   45.4970 C   0  0  0  0  0  0  0  0  0  0  0  0
   58.3750   32.2390   46.7320 C   0  0  0  0  0  0  0  0  0  0  0  0
   58.9680   32.8480   47.8400 C   0  0  0  0  0  0  0  0  0  0  0  0
   59.5060   34.1390   47.7350 C   0  0  0  0  0  0  0  0  0  0  0  0
   60.1080   34.7850   48.8630 N   0  0  0  0  0  0  0  0  0  0  0  0
   61.4070   34.0720   49.7690 S   0  0  0  0  0  0  0  0  0  0  0  0
   60.9240   33.8170   51.1690 O   0  0  0  0  0  0  0  0  0  0  0  0
   62.5890   34.9980   49.8400 O   0  0  0  0  0  0  0  0  0  0  0  0
   61.8620   32.5050   49.0210 C   0  0  0  0  0  0  0  0  0  0  0  0
   62.9970   32.6220   47.9810 C   0  0  0  0  0  0  0  0  0  0  0  0
   63.0680   31.3400   47.1410 C   0  0  0  0  0  0  0  0  0  0  0  0
   62.8090   33.8350   47.0600 C   0  0  0  0  0  0  0  0  0  0  0  0
   59.4940   34.7870   46.4920 C   0  0  0  0  0  0  0  0  0  0  0  0
   58.9070   34.1750   45.3800 C   0  0  0  0  0  0  0  0  0  0  0  0
   57.4890   28.6000   45.2810 C   0  0  0  0  0  0  0  0  0  0  0  0
   56.0340   28.3220   45.2410 C   0  0  0  0  0  0  0  0  0  0  0  0
   55.2270   29.1720   44.7780 O   0  0  0  0  0  0  0  0  0  0  0  0
   55.5430   27.0940   45.6670 O   0  0  0  0  0  0  0  0  0  0  0  0
   58.3480   27.6110   45.7960 C   0  0  0  0  0  0  0  0  0  0  0  0
   60.5892   26.7865   47.4497 H   0  0  0  0  0  0  0  0  0  0  0  0
   60.3066   25.7364   46.0200 H   0  0  0  0  0  0  0  0  0  0  0  0
   61.6702   26.9057   46.0200 H   0  0  0  0  0  0  0  0  0  0  0  0
   61.3711   29.0860   45.1900 H   0  0  0  0  0  0  0  0  0  0  0  0
   59.8767   30.8502   44.2690 H   0  0  0  0  0  0  0  0  0  0  0  0
   57.9457   31.2307   46.8274 H   0  0  0  0  0  0  0  0  0  0  0  0
   59.0134   32.3126   48.7998 H   0  0  0  0  0  0  0  0  0  0  0  0
   59.5670   35.5350   49.3470 H   0  0  0  0  0  0  0  0  0  0  0  0
   62.1900   31.8216   49.8181 H   0  0  0  0  0  0  0  0  0  0  0  0
   60.9744   32.1323   48.4887 H   0  0  0  0  0  0  0  0  0  0  0  0
   63.9391   32.7624   48.5313 H   0  0  0  0  0  0  0  0  0  0  0  0
   63.1164   30.4667   47.8081 H   0  0  0  0  0  0  0  0  0  0  0  0
   62.1725   31.2674   46.5063 H   0  0  0  0  0  0  0  0  0  0  0  0
   63.9660   31.3668   46.5063 H   0  0  0  0  0  0  0  0  0  0  0  0
   62.6687   34.7399   47.6695 H   0  0  0  0  0  0  0  0  0  0  0  0
   63.6993   33.9549   46.4252 H   0  0  0  0  0  0  0  0  0  0  0  0
   61.9242   33.6797   46.4252 H   0  0  0  0  0  0  0  0  0  0  0  0
   59.9492   35.7832   46.3907 H   0  0  0  0  0  0  0  0  0  0  0  0
   58.9032   34.6919   44.4090 H   0  0  0  0  0  0  0  0  0  0  0  0
   57.9220   26.6952   46.2316 H   0  0  0  0  0  0  0  0  0  0  0  0
  1  2  1  0
  2  3  2  0
  3  4  1  0
  4  5  2  0
  5  6  1  0
  6  7  1  0
  7  8  2  0
  7  9  1  0
  9 10  2  0
 10 11  1  0
 11 12  2  0
 12 13  1  0
 13 14  1  0
 14 15  2  0
 14 16  2  0
 14 17  1  0
 17 18  1  0
 18 19  1  0
 18 20  1  0
 12 21  1  0
 21 22  2  0
  5 23  1  0
 23 24  1  0
 24 25  2  0
 24 26  1  0
 23 27  2  0
 27  2  1  0
 22  9  1  0
  1 28  1  0
  1 29  1  0
  1 30  1  0
  3 31  1  0
  4 32  1  0
 10 33  1  0
 11 34  1  0
 13 35  1  0
 17 36  1  0
 17 37  1  0
 18 38  1  0
 19 39  1  0
 19 40  1  0
 19 41  1  0
 20 42  1  0
 20 43  1  0
 20 44  1  0
 21 45  1  0
 22 46  1  0
 27 47  1  0
M  CHG  2   6  -1  26  -1
M  END
>  <UniqueID>  (8) 
8

>  <SMILES>  (8) 
Cc1ccc([N-]C(=O)c2ccc(NS(=O)(=O)CC(C)C)cc2)c(C(=O)[O-])c1

>  <Energy>  (8) 
54.47159972093559

>  <Genealogy>  (8) 
Cc1ccc([N-]C(=O)c2ccc(NS(=O)(=O)CC(C)C)cc2)c(C(=O)[O-])c1 (protonated)
Cc1ccc([N-]C(=O)c2ccc(NS(=O)(=O)CC(C)C)cc2)c(C(=O)[O-])c1 (3D coordinates assigned)
Cc1ccc([N-]C(=O)c2ccc(NS(=O)(=O)CC(C)C)cc2)c(C(=O)[O-])c1 (optimized conformer: 54.47159972093559 kcal/mol)

>  <smiles>  (8) 
Cc1ccc(NC(=O)c2ccc(NS(=O)(=O)CC(C)C)cc2)c(C(=O)O)c1

>  <score_type>  (8) 
oracle

>  <origin>  (8) 
adg

>  <m_score__min__energy>  (8) 
-13

>  <m_primary>  (8) 
energy

$$$$
8:0
     RDKit          3D

 35 38  0  0  0  0  0  0  0  0999 V2000
   59.5480   34.4240   44.3780 O   0  0  0  0  0  0  0  0  0  0  0  0
   59.2550   33.7310   45.3900 C   0  0  0  0  0  0  0  0  0  0  0  0
   59.7030   34.1360   46.6920 N   0  0  0  0  0  0  0  0  0  0  0  0
   61.0120   33.9430   47.2450 C   0  0  0  0  0  0  0  0  0  0  0  0
   62.1000   33.8170   46.3700 C   0  0  0  0  0  0  0  0  0  0  0  0
   63.3890   33.6070   46.8680 C   0  0  0  0  0  0  0  0  0  0  0  0
   63.5990   33.5050   48.2460 C   0  0  0  0  0  0  0  0  0  0  0  0
   62.5180   33.6040   49.1260 C   0  0  0  0  0  0  0  0  0  0  0  0
   61.2270   33.8150   48.6320 C   0  0  0  0  0  0  0  0  0  0  0  0
   58.4960   32.4700   45.2250 C   0  0  0  0  0  0  0  0  0  0  0  0
   57.4040   32.4010   44.3150 C   0  0  0  0  0  0  0  0  0  0  0  0
   56.6760   31.2090   44.1480 C   0  0  0  0  0  0  0  0  0  0  0  0
   57.0530   30.1000   44.8980 C   0  0  0  0  0  0  0  0  0  0  0  0
   56.4860   28.8730   44.8830 N   0  0  0  0  0  0  0  0  0  0  0  0
   57.2030   28.1520   45.7760 C   0  0  0  0  0  0  0  0  0  0  0  0
   57.0350   26.8140   46.1460 C   0  0  0  0  0  0  0  0  0  0  0  0
   56.0380   26.0110   45.5980 O   0  0  0  0  0  0  0  0  0  0  0  0
   57.8880   26.2930   47.0770 N   0  0  0  0  0  0  0  0  0  0  0  0
   58.8890   27.0330   47.6520 C   0  0  0  0  0  0  0  0  0  0  0  0
   59.6450   26.5010   48.5060 O   0  0  0  0  0  0  0  0  0  0  0  0
   59.0750   28.3810   47.2950 C   0  0  0  0  0  0  0  0  0  0  0  0
   58.2050   28.9070   46.3450 C   0  0  0  0  0  0  0  0  0  0  0  0
   58.1090   30.1590   45.7820 C   0  0  0  0  0  0  0  0  0  0  0  0
   58.8510   31.3210   45.9720 C   0  0  0  0  0  0  0  0  0  0  0  0
   61.9382   33.8839   45.2840 H   0  0  0  0  0  0  0  0  0  0  0  0
   64.2389   33.5219   46.1748 H   0  0  0  0  0  0  0  0  0  0  0  0
   64.6147   33.3469   48.6376 H   0  0  0  0  0  0  0  0  0  0  0  0
   62.6831   33.5157   50.2100 H   0  0  0  0  0  0  0  0  0  0  0  0
   60.3773   33.8812   49.3275 H   0  0  0  0  0  0  0  0  0  0  0  0
   57.1253   33.2925   43.7340 H   0  0  0  0  0  0  0  0  0  0  0  0
   55.8324   31.1555   43.4441 H   0  0  0  0  0  0  0  0  0  0  0  0
   55.6740   28.5640   44.3050 H   0  0  0  0  0  0  0  0  0  0  0  0
   55.8760   25.9570   44.6010 H   0  0  0  0  0  0  0  0  0  0  0  0
   59.8715   28.9910   47.7461 H   0  0  0  0  0  0  0  0  0  0  0  0
   59.6901   31.3460   46.6829 H   0  0  0  0  0  0  0  0  0  0  0  0
  1  2  2  0
  2  3  1  0
  3  4  1  0
  4  5  2  0
  5  6  1  0
  6  7  2  0
  7  8  1  0
  8  9  2  0
  2 10  1  0
 10 11  2  0
 11 12  1  0
 12 13  2  0
 13 14  1  0
 14 15  1  0
 15 16  2  0
 16 17  1  0
 16 18  1  0
 18 19  1  0
 19 20  2  0
 19 21  1  0
 21 22  2  0
 22 23  1  0
 23 24  2  0
  9  4  1  0
 24 10  1  0
 23 13  1  0
 22 15  1  0
  5 25  1  0
  6 26  1  0
  7 27  1  0
  8 28  1  0
  9 29  1  0
 11 30  1  0
 12 31  1  0
 14 32  1  0
 17 33  1  0
 21 34  1  0
 24 35  1  0
M  CHG  2   3  -1  18  -1
M  END
>  <UniqueID>  (9) 
9

>  <SMILES>  (9) 
O=C([N-]c1ccccc1)c1ccc2[nH]c3c(O)[n-]c(=O)cc3c2c1

>  <Energy>  (9) 
86.54331027803941

>  <Genealogy>  (9) 
O=C([N-]c1ccccc1)c1ccc2[nH]c3c(O)[n-]c(=O)cc3c2c1 (protonated)
O=C([N-]c1ccccc1)c1ccc2[nH]c3c(O)[n-]c(=O)cc3c2c1 (3D coordinates assigned)
O=C([N-]c1ccccc1)c1ccc2[nH]c3c(O)[n-]c(=O)cc3c2c1 (optimized conformer: 86.54331027803941 kcal/mol)

>  <smiles>  (9) 
O=C(Nc1ccccc1)c1ccc2[nH]c3c(O)[nH]c(=O)cc3c2c1

>  <score_type>  (9) 
oracle

>  <origin>  (9) 
adg

>  <m_score__min__energy>  (9) 
-10.94

>  <m_primary>  (9) 
energy

$$$$
9:0
     RDKit          3D

 36 37  0  0  0  0  0  0  0  0999 V2000
   59.6450   35.3410   46.1290 C   0  0  0  0  0  0  0  0  0  0  0  0
   59.0310   34.0180   45.7470 C   0  0  0  0  0  0  0  0  0  0  0  0
   58.3660   33.9180   44.5190 C   0  0  0  0  0  0  0  0  0  0  0  0
   57.7680   32.7250   44.1290 C   0  0  0  0  0  0  0  0  0  0  0  0
   57.8010   31.6010   44.9600 C   0  0  0  0  0  0  0  0  0  0  0  0
   56.9980   30.1270   44.3710 S   0  0  0  0  0  0  0  0  0  0  0  0
   55.5700   30.0580   44.8360 O   0  0  0  0  0  0  0  0  0  0  0  0
   56.9940   30.1620   42.8670 O   0  0  0  0  0  0  0  0  0  0  0  0
   57.8760   28.7150   44.9090 N   0  0  0  0  0  0  0  0  0  0  0  0
   56.9530   27.7550   45.5470 C   0  0  0  0  0  0  0  0  0  0  0  0
   57.5890   26.3620   45.6360 C   0  0  0  0  0  0  0  0  0  0  0  0
   57.9220   25.8100   44.3080 N   0  0  0  0  0  0  0  0  0  0  0  0
   58.0660   26.8310   43.2560 C   0  0  0  0  0  0  0  0  0  0  0  0
   58.6760   28.1300   43.8050 C   0  0  0  0  0  0  0  0  0  0  0  0
   58.4880   31.6700   46.1960 C   0  0  0  0  0  0  0  0  0  0  0  0
   58.5350   30.5180   47.0700 C   0  0  0  0  0  0  0  0  0  0  0  0
   58.5680   29.5950   47.7680 N   0  0  0  0  0  0  0  0  0  0  0  0
   59.1370   32.8760   46.5820 C   0  0  0  0  0  0  0  0  0  0  0  0
   59.8720   32.9650   47.9050 C   0  0  0  0  0  0  0  0  0  0  0  0
   59.6837   35.4244   47.2252 H   0  0  0  0  0  0  0  0  0  0  0  0
   60.6643   35.4038   45.7203 H   0  0  0  0  0  0  0  0  0  0  0  0
   59.0349   36.1600   45.7203 H   0  0  0  0  0  0  0  0  0  0  0  0
   58.3161   34.7936   43.8550 H   0  0  0  0  0  0  0  0  0  0  0  0
   57.2623   32.6646   43.1540 H   0  0  0  0  0  0  0  0  0  0  0  0
   56.7120   28.1065   46.5611 H   0  0  0  0  0  0  0  0  0  0  0  0
   56.0399   27.6866   44.9374 H   0  0  0  0  0  0  0  0  0  0  0  0
   58.5116   26.4321   46.2310 H   0  0  0  0  0  0  0  0  0  0  0  0
   56.8571   25.6883   46.1055 H   0  0  0  0  0  0  0  0  0  0  0  0
   57.1580   25.1550   44.0160 H   0  0  0  0  0  0  0  0  0  0  0  0
   58.7197   26.4370   42.4639 H   0  0  0  0  0  0  0  0  0  0  0  0
   57.0650   27.0616   42.8624 H   0  0  0  0  0  0  0  0  0  0  0  0
   59.6873   27.9133   44.1795 H   0  0  0  0  0  0  0  0  0  0  0  0
   58.6950   28.8617   42.9839 H   0  0  0  0  0  0  0  0  0  0  0  0
   59.1513   32.8777   48.7314 H   0  0  0  0  0  0  0  0  0  0  0  0
   60.6070   32.1493   47.9717 H   0  0  0  0  0  0  0  0  0  0  0  0
   60.3910   33.9326   47.9717 H   0  0  0  0  0  0  0  0  0  0  0  0
  1  2  1  0
  2  3  2  0
  3  4  1  0
  4  5  2  0
  5  6  1  0
  6  7  2  0
  6  8  2  0
  6  9  1  0
  9 10  1  0
 10 11  1  0
 11 12  1  0
 12 13  1  0
 13 14  1  0
  5 15  1  0
 15 16  1  0
 16 17  3  0
 15 18  2  0
 18 19  1  0
 18  2  1  0
 14  9  1  0
  1 20  1  0
  1 21  1  0
  1 22  1  0
  3 23  1  0
  4 24  1  0
 10 25  1  0
 10 26  1  0
 11 27  1  0
 11 28  1  0
 12 29  1  0
 13 30  1  0
 13 31  1  0
 14 32  1  0
 14 33  1  0
 19 34  1  0
 19 35  1  0
 19 36  1  0
M  END
>  <UniqueID>  (10) 
10

>  <SMILES>  (10) 
Cc1ccc(S(=O)(=O)N2CCNCC2)c(C#N)c1C

>  <Energy>  (10) 
48.553264362920956

>  <Genealogy>  (10) 
Cc1ccc(S(=O)(=O)N2CCNCC2)c(C#N)c1C (3D coordinates assigned)
Cc1ccc(S(=O)(=O)N2CCNCC2)c(C#N)c1C (nonaromatic ring conformer: 48.553264362920956 kcal/mol)

>  <smiles>  (10) 
Cc1ccc(S(=O)(=O)N2CCNCC2)c(C#N)c1C

>  <score_type>  (10) 
oracle

>  <origin>  (10) 
adg

>  <m_score__min__energy>  (10) 
-7.3499999999999996

>  <m_primary>  (10) 
energy

$$$$
10:0
     RDKit          3D

 46 48  0  0  0  0  0  0  0  0999 V2000
   56.5700   24.4720   44.5630 C   0  0  0  0  0  0  0  0  0  0  0  0
   56.1470   25.5310   45.9260 S   0  0  0  0  0  0  0  0  0  0  0  0
   56.0670   24.6920   47.1760 O   0  0  0  0  0  0  0  0  0  0  0  0
   54.7770   26.1470   45.7130 O   0  0  0  0  0  0  0  0  0  0  0  0
   57.2950   26.8350   46.1160 C   0  0  0  0  0  0  0  0  0  0  0  0
   58.5580   26.5360   46.4630 N   0  0  0  0  0  0  0  0  0  0  0  0
   59.4930   27.5220   46.6230 C   0  0  0  0  0  0  0  0  0  0  0  0
   60.6790   27.2610   46.9470 O   0  0  0  0  0  0  0  0  0  0  0  0
   59.0960   28.8450   46.4160 C   0  0  0  0  0  0  0  0  0  0  0  0
   60.1320   29.8990   46.5860 C   0  0  0  0  0  0  0  0  0  0  0  0
   59.7010   30.7350   47.7430 C   0  0  0  0  0  0  0  0  0  0  0  0
   59.3400   30.2080   48.8370 O   0  0  0  0  0  0  0  0  0  0  0  0
   59.6670   32.1610   47.6930 N   0  0  0  0  0  0  0  0  0  0  0  0
   59.2400   32.8420   48.8970 C   0  0  0  0  0  0  0  0  0  0  0  0
   59.8210   34.2120   48.9550 C   0  0  0  0  0  0  0  0  0  0  0  0
   60.8210   34.4570   48.0390 O   0  0  0  0  0  0  0  0  0  0  0  0
   60.3440   34.3160   46.7360 C   0  0  0  0  0  0  0  0  0  0  0  0
   60.0460   32.8490   46.4750 C   0  0  0  0  0  0  0  0  0  0  0  0
   57.7990   29.1460   46.0610 C   0  0  0  0  0  0  0  0  0  0  0  0
   57.4060   30.4790   45.8540 O   0  0  0  0  0  0  0  0  0  0  0  0
   57.3990   30.9040   44.5140 C   0  0  0  0  0  0  0  0  0  0  0  0
   58.0940   32.0200   44.1100 C   0  0  0  0  0  0  0  0  0  0  0  0
   58.0910   32.4380   42.8050 C   0  0  0  0  0  0  0  0  0  0  0  0
   57.3720   31.7330   41.8510 C   0  0  0  0  0  0  0  0  0  0  0  0
   56.6670   30.6060   42.2460 C   0  0  0  0  0  0  0  0  0  0  0  0
   56.6850   30.2100   43.5460 C   0  0  0  0  0  0  0  0  0  0  0  0
   56.9500   28.1150   45.9270 N   0  0  0  0  0  0  0  0  0  0  0  0
   56.9523   23.5148   44.9473 H   0  0  0  0  0  0  0  0  0  0  0  0
   55.6757   24.2897   43.9490 H   0  0  0  0  0  0  0  0  0  0  0  0
   57.3438   24.9560   43.9490 H   0  0  0  0  0  0  0  0  0  0  0  0
   61.1103   29.4403   46.7924 H   0  0  0  0  0  0  0  0  0  0  0  0
   60.2352   30.5055   45.6741 H   0  0  0  0  0  0  0  0  0  0  0  0
   58.1424   32.9137   48.9025 H   0  0  0  0  0  0  0  0  0  0  0  0
   59.5869   32.2710   49.7709 H   0  0  0  0  0  0  0  0  0  0  0  0
   59.0108   34.9346   48.7779 H   0  0  0  0  0  0  0  0  0  0  0  0
   60.2820   34.3100   49.9489 H   0  0  0  0  0  0  0  0  0  0  0  0
   59.4241   34.9067   46.6139 H   0  0  0  0  0  0  0  0  0  0  0  0
   61.1003   34.6746   46.0223 H   0  0  0  0  0  0  0  0  0  0  0  0
   59.2214   32.7748   45.7507 H   0  0  0  0  0  0  0  0  0  0  0  0
   60.9570   32.3759   46.0796 H   0  0  0  0  0  0  0  0  0  0  0  0
   58.6674   32.5922   44.8542 H   0  0  0  0  0  0  0  0  0  0  0  0
   58.6594   33.3336   42.5136 H   0  0  0  0  0  0  0  0  0  0  0  0
   57.3612   32.0616   40.8013 H   0  0  0  0  0  0  0  0  0  0  0  0
   56.0918   30.0311   41.5053 H   0  0  0  0  0  0  0  0  0  0  0  0
   56.1179   29.3144   43.8397 H   0  0  0  0  0  0  0  0  0  0  0  0
   55.9550   28.3150   45.6570 H   0  0  0  0  0  0  0  0  0  0  0  0
  1  2  1  0
  2  3  2  0
  2  4  2  0
  2  5  1  0
  5  6  2  0
  6  7  1  0
  7  8  2  0
  7  9  1  0
  9 10  1  0
 10 11  1  0
 11 12  2  0
 11 13  1  0
 13 14  1  0
 14 15  1  0
 15 16  1  0
 16 17  1  0
 17 18  1  0
  9 19  2  0
 19 20  1  0
 20 21  1  0
 21 22  2  0
 22 23  1  0
 23 24  2  0
 24 25  1  0
 25 26  2  0
 19 27  1  0
 27  5  1  0
 18 13  1  0
 26 21  1  0
  1 28  1  0
  1 29  1  0
  1 30  1  0
 10 31  1  0
 10 32  1  0
 14 33  1  0
 14 34  1  0
 15 35  1  0
 15 36  1  0
 17 37  1  0
 17 38  1  0
 18 39  1  0
 18 40  1  0
 22 41  1  0
 23 42  1  0
 24 43  1  0
 25 44  1  0
 26 45  1  0
 27 46  1  0
M  END
>  <smiles>  (11) 
CS(=O)(=O)c1nc(=O)c(CC(=O)N2CCOCC2)c(Oc2ccccc2)[nH]1

>  <score_type>  (11) 
oracle

>  <origin>  (11) 
adg

>  <m_score__min__energy>  (11) 
-8.2300000000000004

>  <m_primary>  (11) 
energy

$$$$
11:0
     RDKit          3D

 42 44  0  0  0  0  0  0  0  0999 V2000
   51.3830   30.8940   49.9050 O   0  0  0  0  0  0  0  0  0  0  0  0
   51.7150   31.5260   50.9420 C   0  0  0  0  0  0  0  0  0  0  0  0
   51.0630   32.7170   51.2430 O   0  0  0  0  0  0  0  0  0  0  0  0
   52.7850   31.0120   51.8260 C   0  0  0  0  0  0  0  0  0  0  0  0
   52.5510   30.8300   53.2000 C   0  0  0  0  0  0  0  0  0  0  0  0
   53.5650   30.3430   54.0290 C   0  0  0  0  0  0  0  0  0  0  0  0
   54.8180   30.0310   53.4980 C   0  0  0  0  0  0  0  0  0  0  0  0
   55.0700   30.2010   52.1330 C   0  0  0  0  0  0  0  0  0  0  0  0
   56.3680   29.8540   51.6290 N   0  0  0  0  0  0  0  0  0  0  0  0
   57.7360   30.9180   51.5680 S   0  0  0  0  0  0  0  0  0  0  0  0
   57.2600   32.3370   51.7180 O   0  0  0  0  0  0  0  0  0  0  0  0
   58.6660   30.5890   52.7010 O   0  0  0  0  0  0  0  0  0  0  0  0
   58.5970   30.7120   50.0460 C   0  0  0  0  0  0  0  0  0  0  0  0
   59.4000   31.7430   49.5440 C   0  0  0  0  0  0  0  0  0  0  0  0
   60.0610   31.5850   48.3240 C   0  0  0  0  0  0  0  0  0  0  0  0
   59.9310   30.3950   47.6020 C   0  0  0  0  0  0  0  0  0  0  0  0
   59.1420   29.3420   48.1010 C   0  0  0  0  0  0  0  0  0  0  0  0
   58.9800   28.0730   47.3520 C   0  0  0  0  0  0  0  0  0  0  0  0
   59.9990   27.5280   46.8460 O   0  0  0  0  0  0  0  0  0  0  0  0
   57.6890   27.4560   47.1940 N   0  0  0  0  0  0  0  0  0  0  0  0
   57.4830   26.2650   46.4200 C   0  0  0  0  0  0  0  0  0  0  0  0
   58.5250   25.3330   46.3080 C   0  0  0  0  0  0  0  0  0  0  0  0
   58.3480   24.1600   45.5690 C   0  0  0  0  0  0  0  0  0  0  0  0
   57.1230   23.9010   44.9490 C   0  0  0  0  0  0  0  0  0  0  0  0
   56.0690   24.8090   45.0780 C   0  0  0  0  0  0  0  0  0  0  0  0
   56.2380   25.9830   45.8220 C   0  0  0  0  0  0  0  0  0  0  0  0
   55.1590   26.8460   45.9830 O   0  0  0  0  0  0  0  0  0  0  0  0
   58.4730   29.5160   49.3260 C   0  0  0  0  0  0  0  0  0  0  0  0
   54.0510   30.6990   51.2990 C   0  0  0  0  0  0  0  0  0  0  0  0
   51.5655   31.0720   53.6245 H   0  0  0  0  0  0  0  0  0  0  0  0
   53.3754   30.2050   55.1037 H   0  0  0  0  0  0  0  0  0  0  0  0
   55.6116   29.6493   54.1572 H   0  0  0  0  0  0  0  0  0  0  0  0
   59.5105   32.6789   50.1113 H   0  0  0  0  0  0  0  0  0  0  0  0
   60.6861   32.3998   47.9298 H   0  0  0  0  0  0  0  0  0  0  0  0
   60.4485   30.2811   46.6381 H   0  0  0  0  0  0  0  0  0  0  0  0
   56.8700   27.8210   47.7270 H   0  0  0  0  0  0  0  0  0  0  0  0
   59.4872   25.5263   46.8047 H   0  0  0  0  0  0  0  0  0  0  0  0
   59.1742   23.4398   45.4754 H   0  0  0  0  0  0  0  0  0  0  0  0
   56.9884   22.9822   44.3593 H   0  0  0  0  0  0  0  0  0  0  0  0
   55.1036   24.6009   44.5936 H   0  0  0  0  0  0  0  0  0  0  0  0
   57.8456   28.7045   49.7232 H   0  0  0  0  0  0  0  0  0  0  0  0
   54.2465   30.8445   50.2263 H   0  0  0  0  0  0  0  0  0  0  0  0
  1  2  2  0
  2  3  1  0
  2  4  1  0
  4  5  2  0
  5  6  1  0
  6  7  2  0
  7  8  1  0
  8  9  1  0
  9 10  1  0
 10 11  2  0
 10 12  2  0
 10 13  1  0
 13 14  2  0
 14 15  1  0
 15 16  2  0
 16 17  1  0
 17 18  1  0
 18 19  2  0
 18 20  1  0
 20 21  1  0
 21 22  2  0
 22 23  1  0
 23 24  2  0
 24 25  1  0
 25 26  2  0
 26 27  1  0
 17 28  2  0
  8 29  2  0
 29  4  1  0
 28 13  1  0
 26 21  1  0
  5 30  1  0
  6 31  1  0
  7 32  1  0
 14 33  1  0
 15 34  1  0
 16 35  1  0
 20 36  1  0
 22 37  1  0
 23 38  1  0
 24 39  1  0
 25 40  1  0
 28 41  1  0
 29 42  1  0
M  CHG  3   3  -1   9  -1  27  -1
M  END
>  <UniqueID>  (12) 
11

>  <SMILES>  (12) 
O=C([O-])c1cccc([N-]S(=O)(=O)c2cccc(C(=O)Nc3ccccc3[O-])c2)c1

>  <Energy>  (12) 
56.80944121121206

>  <Genealogy>  (12) 
O=C([O-])c1cccc([N-]S(=O)(=O)c2cccc(C(=O)Nc3ccccc3[O-])c2)c1 (protonated)
O=C([O-])c1cccc([N-]S(=O)(=O)c2cccc(C(=O)Nc3ccccc3[O-])c2)c1 (3D coordinates assigned)
O=C([O-])c1cccc([N-]S(=O)(=O)c2cccc(C(=O)Nc3ccccc3[O-])c2)c1 (optimized conformer: 56.80944121121206 kcal/mol)

>  <smiles>  (12) 
O=C(O)c1cccc(NS(=O)(=O)c2cccc(C(=O)Nc3ccccc3O)c2)c1

>  <score_type>  (12) 
oracle

>  <origin>  (12) 
adg

>  <m_score__min__energy>  (12) 
-16.550000000000001

>  <m_primary>  (12) 
energy

$$$$
12:0
     RDKit          3D

 30 32  0  0  0  0  0  0  0  0999 V2000
   55.7000   25.5100   46.6340 O   0  0  0  0  0  0  0  0  0  0  0  0
   56.4310   26.4690   46.2670 C   0  0  0  0  0  0  0  0  0  0  0  0
   55.8800   27.5180   45.6180 N   0  0  0  0  0  0  0  0  0  0  0  0
   56.6290   28.5660   45.2050 C   0  0  0  0  0  0  0  0  0  0  0  0
   56.0090   29.6250   44.5350 C   0  0  0  0  0  0  0  0  0  0  0  0
   56.7580   30.7130   44.0950 C   0  0  0  0  0  0  0  0  0  0  0  0
   58.1320   30.7480   44.3220 C   0  0  0  0  0  0  0  0  0  0  0  0
   58.7670   29.6980   44.9920 C   0  0  0  0  0  0  0  0  0  0  0  0
   58.0280   28.5770   45.4530 C   0  0  0  0  0  0  0  0  0  0  0  0
   58.6020   27.5090   46.1260 N   0  0  0  0  0  0  0  0  0  0  0  0
   60.0530   27.4240   46.4170 C   0  0  0  0  0  0  0  0  0  0  0  0
   60.3610   27.9830   47.7850 C   0  0  0  0  0  0  0  0  0  0  0  0
   60.5410   27.1280   48.8860 C   0  0  0  0  0  0  0  0  0  0  0  0
   60.8040   27.6540   50.1550 C   0  0  0  0  0  0  0  0  0  0  0  0
   60.8880   29.0360   50.3370 C   0  0  0  0  0  0  0  0  0  0  0  0
   61.1430   29.5440   51.5680 F   0  0  0  0  0  0  0  0  0  0  0  0
   60.7100   29.8950   49.2490 C   0  0  0  0  0  0  0  0  0  0  0  0
   60.4460   29.3730   47.9790 C   0  0  0  0  0  0  0  0  0  0  0  0
   57.8060   26.4560   46.5250 C   0  0  0  0  0  0  0  0  0  0  0  0
   58.3020   25.4640   47.1290 O   0  0  0  0  0  0  0  0  0  0  0  0
   54.9242   29.5984   44.3546 H   0  0  0  0  0  0  0  0  0  0  0  0
   56.2654   31.5439   43.5688 H   0  0  0  0  0  0  0  0  0  0  0  0
   58.7216   31.6080   43.9716 H   0  0  0  0  0  0  0  0  0  0  0  0
   59.8526   29.7410   45.1641 H   0  0  0  0  0  0  0  0  0  0  0  0
   60.3669   26.3704   46.3793 H   0  0  0  0  0  0  0  0  0  0  0  0
   60.5977   28.0140   45.6652 H   0  0  0  0  0  0  0  0  0  0  0  0
   60.4746   26.0386   48.7488 H   0  0  0  0  0  0  0  0  0  0  0  0
   60.9449   26.9779   51.0112 H   0  0  0  0  0  0  0  0  0  0  0  0
   60.7777   30.9836   49.3920 H   0  0  0  0  0  0  0  0  0  0  0  0
   60.3040   30.0537   47.1267 H   0  0  0  0  0  0  0  0  0  0  0  0
  1  2  2  0
  2  3  1  0
  3  4  1  0
  4  5  2  0
  5  6  1  0
  6  7  2  0
  7  8  1  0
  8  9  2  0
  9 10  1  0
 10 11  1  0
 11 12  1  0
 12 13  2  0
 13 14  1  0
 14 15  2  0
 15 16  1  0
 15 17  1  0
 17 18  2  0
 10 19  1  0
 19 20  2  0
 19  2  1  0
  9  4  1  0
 18 12  1  0
  5 21  1  0
  6 22  1  0
  7 23  1  0
  8 24  1  0
 11 25  1  0
 11 26  1  0
 13 27  1  0
 14 28  1  0
 17 29  1  0
 18 30  1  0
M  CHG  1   3  -1
M  END
>  <UniqueID>  (13) 
12

>  <SMILES>  (13) 
O=c1[n-]c2ccccc2n(Cc2ccc(F)cc2)c1=O

>  <Energy>  (13) 
45.44798840119136

>  <Genealogy>  (13) 
O=c1[n-]c2ccccc2n(Cc2ccc(F)cc2)c1=O (protonated)
O=c1[n-]c2ccccc2n(Cc2ccc(F)cc2)c1=O (3D coordinates assigned)
O=c1[n-]c2ccccc2n(Cc2ccc(F)cc2)c1=O (optimized conformer: 45.44798840119136 kcal/mol)

>  <smiles>  (13) 
O=c1[nH]c2ccccc2n(Cc2ccc(F)cc2)c1=O

>  <score_type>  (13) 
oracle

>  <origin>  (13) 
adg

>  <m_score__min__energy>  (13) 
-8.9399999999999995

>  <m_primary>  (13) 
energy

$$$$
13:0
     RDKit          3D

 43 46  0  0  0  0  0  0  0  0999 V2000
   55.1200   29.3330   44.8460 N   0  0  0  0  0  0  0  0  0  0  0  0
   56.7590   29.7440   44.4830 S   0  0  0  0  0  0  0  0  0  0  0  0
   56.9910   31.1960   44.7940 O   0  0  0  0  0  0  0  0  0  0  0  0
   57.0230   29.5170   43.0210 O   0  0  0  0  0  0  0  0  0  0  0  0
   57.8420   28.7470   45.4470 C   0  0  0  0  0  0  0  0  0  0  0  0
   58.3720   27.5540   44.9070 C   0  0  0  0  0  0  0  0  0  0  0  0
   59.2290   26.7420   45.6710 C   0  0  0  0  0  0  0  0  0  0  0  0
   59.5410   27.1340   46.9720 C   0  0  0  0  0  0  0  0  0  0  0  0
   60.3520   26.4380   47.8080 N   0  0  0  0  0  0  0  0  0  0  0  0
   60.4510   27.0640   49.0080 C   0  0  0  0  0  0  0  0  0  0  0  0
   61.1790   26.6320   49.9950 N   0  0  0  0  0  0  0  0  0  0  0  0
   61.3590   27.2980   51.2540 C   0  0  0  0  0  0  0  0  0  0  0  0
   60.8010   26.8130   52.2750 O   0  0  0  0  0  0  0  0  0  0  0  0
   62.2170   28.4980   51.4020 C   0  0  0  0  0  0  0  0  0  0  0  0
   61.7370   29.7590   51.0200 C   0  0  0  0  0  0  0  0  0  0  0  0
   62.5390   30.8960   51.1620 C   0  0  0  0  0  0  0  0  0  0  0  0
   63.8300   30.7960   51.7020 C   0  0  0  0  0  0  0  0  0  0  0  0
   64.6280   31.9870   51.8350 N   0  0  0  0  0  0  0  0  0  0  0  0
   65.1760   32.9440   50.4950 S   0  0  0  0  0  0  0  0  0  0  0  0
   65.7520   34.2340   51.0070 O   0  0  0  0  0  0  0  0  0  0  0  0
   66.2430   32.1920   49.7500 O   0  0  0  0  0  0  0  0  0  0  0  0
   63.8410   33.2620   49.4030 C   0  0  0  0  0  0  0  0  0  0  0  0
   62.7300   34.0390   49.6910 C   0  0  0  0  0  0  0  0  0  0  0  0
   61.8400   34.1340   48.6150 C   0  0  0  0  0  0  0  0  0  0  0  0
   62.2510   33.4350   47.4870 C   0  0  0  0  0  0  0  0  0  0  0  0
   63.7260   32.6980   47.8260 S   0  0  0  0  0  0  0  0  0  0  0  0
   64.3070   29.5320   52.0980 C   0  0  0  0  0  0  0  0  0  0  0  0
   63.5030   28.3970   51.9580 C   0  0  0  0  0  0  0  0  0  0  0  0
   59.5610   28.5010   49.0730 S   0  0  0  0  0  0  0  0  0  0  0  0
   59.0120   28.3010   47.4980 C   0  0  0  0  0  0  0  0  0  0  0  0
   58.1620   29.1250   46.7650 C   0  0  0  0  0  0  0  0  0  0  0  0
   55.1450   28.6450   45.6310 H   0  0  0  0  0  0  0  0  0  0  0  0
   58.1121   27.2577   43.8800 H   0  0  0  0  0  0  0  0  0  0  0  0
   59.6454   25.8150   45.2500 H   0  0  0  0  0  0  0  0  0  0  0  0
   60.7225   29.8546   50.6057 H   0  0  0  0  0  0  0  0  0  0  0  0
   62.1541   31.8773   50.8475 H   0  0  0  0  0  0  0  0  0  0  0  0
   64.9540   32.2750   52.7850 H   0  0  0  0  0  0  0  0  0  0  0  0
   62.5653   34.5289   50.6620 H   0  0  0  0  0  0  0  0  0  0  0  0
   60.9029   34.7083   48.6584 H   0  0  0  0  0  0  0  0  0  0  0  0
   61.7052   33.3735   46.5340 H   0  0  0  0  0  0  0  0  0  0  0  0
   65.3183   29.4369   52.5201 H   0  0  0  0  0  0  0  0  0  0  0  0
   63.8804   27.4171   52.2858 H   0  0  0  0  0  0  0  0  0  0  0  0
   57.7516   30.0464   47.2038 H   0  0  0  0  0  0  0  0  0  0  0  0
  1  2  1  0
  2  3  2  0
  2  4  2  0
  2  5  1  0
  5  6  2  0
  6  7  1  0
  7  8  2  0
  8  9  1  0
  9 10  1  0
 10 11  2  3
 11 12  1  0
 12 13  2  0
 12 14  1  0
 14 15  2  0
 15 16  1  0
 16 17  2  0
 17 18  1  0
 18 19  1  0
 19 20  2  0
 19 21  2  0
 19 22  1  0
 22 23  2  0
 23 24  1  0
 24 25  2  0
 25 26  1  0
 17 27  1  0
 27 28  2  0
 10 29  1  0
 29 30  1  0
 30 31  2  0
 31  5  1  0
 30  8  1  0
 28 14  1  0
 26 22  1  0
  1 32  1  0
  6 33  1  0
  7 34  1  0
 15 35  1  0
 16 36  1  0
 18 37  1  0
 23 38  1  0
 24 39  1  0
 25 40  1  0
 27 41  1  0
 28 42  1  0
 31 43  1  0
M  CHG  2   1  -1   9  -1
M  END
>  <UniqueID>  (14) 
13

>  <SMILES>  (14) 
[NH-]S(=O)(=O)c1ccc2[n-]c(=NC(=O)c3ccc(NS(=O)(=O)c4cccs4)cc3)sc2c1

>  <Energy>  (14) 
117.72211605134427

>  <Genealogy>  (14) 
[NH-]S(=O)(=O)c1ccc2[n-]c(=NC(=O)c3ccc(NS(=O)(=O)c4cccs4)cc3)sc2c1 (protonated)
[NH-]S(=O)(=O)c1ccc2[n-]c(=NC(=O)c3ccc(NS(=O)(=O)c4cccs4)cc3)sc2c1 (3D coordinates assigned)
[NH-]S(=O)(=O)c1ccc2[n-]c(=NC(=O)c3ccc(NS(=O)(=O)c4cccs4)cc3)sc2c1 (optimized conformer: 117.72211605134427 kcal/mol)

>  <smiles>  (14) 
NS(=O)(=O)c1ccc2[nH]c(=NC(=O)c3ccc(NS(=O)(=O)c4cccs4)cc3)sc2c1

>  <score_type>  (14) 
oracle

>  <origin>  (14) 
adg

>  <m_score__min__energy>  (14) 
-13.18

>  <m_primary>  (14) 
energy

$$$$
14:0
     RDKit          3D

 44 45  0  0  0  0  0  0  0  0999 V2000
   58.9820   34.1420   45.4750 C   0  0  0  0  0  0  0  0  0  0  0  0
   59.2060   32.8600   46.2880 C   0  0  0  0  0  0  0  0  0  0  0  0
   58.2390   32.7880   47.4780 C   0  0  0  0  0  0  0  0  0  0  0  0
   60.6550   32.7520   46.7460 C   0  0  0  0  0  0  0  0  0  0  0  0
   61.4610   33.9090   46.7970 C   0  0  0  0  0  0  0  0  0  0  0  0
   62.7980   33.8330   47.1920 C   0  0  0  0  0  0  0  0  0  0  0  0
   63.3550   32.6040   47.5390 C   0  0  0  0  0  0  0  0  0  0  0  0
   62.5760   31.4480   47.4990 C   0  0  0  0  0  0  0  0  0  0  0  0
   61.2210   31.5080   47.1210 C   0  0  0  0  0  0  0  0  0  0  0  0
   60.4380   30.3060   47.0380 N   0  0  0  0  0  0  0  0  0  0  0  0
   60.1490   29.5830   45.8360 C   0  0  0  0  0  0  0  0  0  0  0  0
   61.0890   28.9980   45.2350 O   0  0  0  0  0  0  0  0  0  0  0  0
   58.8230   29.5770   45.2850 N   0  0  0  0  0  0  0  0  0  0  0  0
   58.3610   28.5650   44.3310 C   0  0  2  0  0  0  0  0  0  0  0  0
   57.1440   29.1040   43.5530 C   0  0  0  0  0  0  0  0  0  0  0  0
   56.1340   29.7230   44.4710 C   0  0  0  0  0  0  0  0  0  0  0  0
   55.1440   29.0540   44.8690 O   0  0  0  0  0  0  0  0  0  0  0  0
   56.2520   31.0580   44.8370 O   0  0  0  0  0  0  0  0  0  0  0  0
   58.0410   27.2780   45.0730 C   0  0  0  0  0  0  0  0  0  0  0  0
   58.0320   27.2360   46.4830 C   0  0  0  0  0  0  0  0  0  0  0  0
   57.7440   26.0420   47.1550 C   0  0  0  0  0  0  0  0  0  0  0  0
   57.4650   24.8790   46.4310 C   0  0  0  0  0  0  0  0  0  0  0  0
   57.4740   24.9080   45.0340 C   0  0  0  0  0  0  0  0  0  0  0  0
   57.7620   26.1000   44.3560 C   0  0  0  0  0  0  0  0  0  0  0  0
   58.8339   34.9896   46.1603 H   0  0  0  0  0  0  0  0  0  0  0  0
   59.8605   34.3323   44.8409 H   0  0  0  0  0  0  0  0  0  0  0  0
   58.0910   34.0231   44.8409 H   0  0  0  0  0  0  0  0  0  0  0  0
   58.9962   32.0006   45.6342 H   0  0  0  0  0  0  0  0  0  0  0  0
   58.8098   32.8305   48.4174 H   0  0  0  0  0  0  0  0  0  0  0  0
   57.5404   33.6366   47.4347 H   0  0  0  0  0  0  0  0  0  0  0  0
   57.6738   31.8453   47.4347 H   0  0  0  0  0  0  0  0  0  0  0  0
   61.0305   34.8832   46.5221 H   0  0  0  0  0  0  0  0  0  0  0  0
   63.4124   34.7447   47.2293 H   0  0  0  0  0  0  0  0  0  0  0  0
   64.4100   32.5455   47.8448 H   0  0  0  0  0  0  0  0  0  0  0  0
   63.0246   30.4796   47.7654 H   0  0  0  0  0  0  0  0  0  0  0  0
   58.1450   30.3020   45.6170 H   0  0  0  0  0  0  0  0  0  0  0  0
   59.1510   28.3420   43.5988 H   0  0  0  0  0  0  0  0  0  0  0  0
   57.4869   29.8635   42.8350 H   0  0  0  0  0  0  0  0  0  0  0  0
   56.6661   28.2605   43.0334 H   0  0  0  0  0  0  0  0  0  0  0  0
   58.2527   28.1473   47.0582 H   0  0  0  0  0  0  0  0  0  0  0  0
   57.7372   26.0189   48.2547 H   0  0  0  0  0  0  0  0  0  0  0  0
   57.2386   23.9419   46.9607 H   0  0  0  0  0  0  0  0  0  0  0  0
   57.2544   23.9926   44.4650 H   0  0  0  0  0  0  0  0  0  0  0  0
   57.7700   26.1149   43.2561 H   0  0  0  0  0  0  0  0  0  0  0  0
  1  2  1  0
  2  3  1  0
  2  4  1  0
  4  5  2  0
  5  6  1  0
  6  7  2  0
  7  8  1  0
  8  9  2  0
  9 10  1  0
 10 11  1  0
 11 12  2  0
 11 13  1  0
 13 14  1  0
 14 15  1  0
 15 16  1  0
 16 17  2  0
 16 18  1  0
 14 19  1  0
 19 20  2  0
 20 21  1  0
 21 22  2  0
 22 23  1  0
 23 24  2  0
  9  4  1  0
 24 19  1  0
  1 25  1  0
  1 26  1  0
  1 27  1  0
  2 28  1  0
  3 29  1  0
  3 30  1  0
  3 31  1  0
  5 32  1  0
  6 33  1  0
  7 34  1  0
  8 35  1  0
 13 36  1  0
 14 37  1  6
 15 38  1  0
 15 39  1  0
 20 40  1  0
 21 41  1  0
 22 42  1  0
 23 43  1  0
 24 44  1  0
M  CHG  2  10  -1  18  -1
M  END
>  <UniqueID>  (15) 
14

>  <SMILES>  (15) 
CC(C)c1ccccc1[N-]C(=O)N[C@H](CC(=O)[O-])c1ccccc1

>  <Energy>  (15) 
42.73588990791787

>  <Genealogy>  (15) 
CC(C)c1ccccc1[N-]C(=O)NC(CC(=O)[O-])c1ccccc1 (protonated)
CC(C)c1ccccc1[N-]C(=O)N[C@H](CC(=O)[O-])c1ccccc1 (chirality)
CC(C)c1ccccc1[N-]C(=O)N[C@H](CC(=O)[O-])c1ccccc1 (3D coordinates assigned)
CC(C)c1ccccc1[N-]C(=O)N[C@H](CC(=O)[O-])c1ccccc1 (optimized conformer: 42.73588990791787 kcal/mol)

>  <smiles>  (15) 
CC(C)c1ccccc1NC(=O)NC(CC(=O)O)c1ccccc1

>  <score_type>  (15) 
oracle

>  <origin>  (15) 
adg

>  <m_score__min__energy>  (15) 
-12.26

>  <m_primary>  (15) 
energy

$$$$
15:0
     RDKit          3D

 44 46  0  0  0  0  0  0  0  0999 V2000
   59.5360   34.9670   47.4980 C   0  0  0  0  0  0  0  0  0  0  0  0
   59.0360   33.9770   46.4780 C   0  0  0  0  0  0  0  0  0  0  0  0
   58.9740   34.3540   45.1270 C   0  0  0  0  0  0  0  0  0  0  0  0
   58.5120   33.4600   44.1610 C   0  0  0  0  0  0  0  0  0  0  0  0
   58.1040   32.1740   44.5200 C   0  0  0  0  0  0  0  0  0  0  0  0
   57.6530   31.2850   43.4890 N   0  0  0  0  0  0  0  0  0  0  0  0
   56.6720   29.8770   43.7440 S   0  0  0  0  0  0  0  0  0  0  0  0
   56.2370   29.3310   42.4130 O   0  0  0  0  0  0  0  0  0  0  0  0
   55.4540   30.2630   44.5350 O   0  0  0  0  0  0  0  0  0  0  0  0
   57.6080   28.6460   44.5860 C   0  0  0  0  0  0  0  0  0  0  0  0
   59.0050   28.7250   44.5960 C   0  0  0  0  0  0  0  0  0  0  0  0
   59.7570   27.7700   45.2830 C   0  0  0  0  0  0  0  0  0  0  0  0
   59.1180   26.7320   45.9660 C   0  0  0  0  0  0  0  0  0  0  0  0
   57.7140   26.6340   45.9650 C   0  0  0  0  0  0  0  0  0  0  0  0
   57.0340   25.5410   46.6980 C   0  0  0  0  0  0  0  0  0  0  0  0
   57.3990   25.2530   47.8700 O   0  0  0  0  0  0  0  0  0  0  0  0
   55.9060   24.8740   46.1040 N   0  0  0  0  0  0  0  0  0  0  0  0
   55.8930   23.8440   45.3020 C   0  0  0  0  0  0  0  0  0  0  0  0
   55.9250   24.0810   43.9210 C   0  0  0  0  0  0  0  0  0  0  0  0
   55.9260   23.0070   43.0280 C   0  0  0  0  0  0  0  0  0  0  0  0
   55.9090   21.7320   43.4970 N   0  0  0  0  0  0  0  0  0  0  0  0
   55.8950   21.4640   44.8280 C   0  0  0  0  0  0  0  0  0  0  0  0
   55.8920   22.5080   45.7570 C   0  0  0  0  0  0  0  0  0  0  0  0
   56.9650   27.6010   45.2660 C   0  0  0  0  0  0  0  0  0  0  0  0
   58.1490   31.7910   45.8720 C   0  0  0  0  0  0  0  0  0  0  0  0
   58.6040   32.6840   46.8580 C   0  0  0  0  0  0  0  0  0  0  0  0
   58.6590   32.2300   48.2930 C   0  0  0  0  0  0  0  0  0  0  0  0
   59.3412   34.5813   48.5096 H   0  0  0  0  0  0  0  0  0  0  0  0
   60.6176   35.1163   47.3645 H   0  0  0  0  0  0  0  0  0  0  0  0
   59.0142   35.9261   47.3645 H   0  0  0  0  0  0  0  0  0  0  0  0
   59.2926   35.3634   44.8276 H   0  0  0  0  0  0  0  0  0  0  0  0
   58.4688   33.7711   43.1068 H   0  0  0  0  0  0  0  0  0  0  0  0
   59.5121   29.5416   44.0612 H   0  0  0  0  0  0  0  0  0  0  0  0
   60.8551   27.8350   45.2865 H   0  0  0  0  0  0  0  0  0  0  0  0
   59.7168   25.9857   46.5086 H   0  0  0  0  0  0  0  0  0  0  0  0
   55.9493   25.1128   43.5404 H   0  0  0  0  0  0  0  0  0  0  0  0
   55.9406   23.1936   41.9440 H   0  0  0  0  0  0  0  0  0  0  0  0
   55.8860   20.4207   45.1765 H   0  0  0  0  0  0  0  0  0  0  0  0
   55.8889   22.2900   46.8352 H   0  0  0  0  0  0  0  0  0  0  0  0
   55.8670   27.5361   45.2533 H   0  0  0  0  0  0  0  0  0  0  0  0
   57.8244   30.7807   46.1618 H   0  0  0  0  0  0  0  0  0  0  0  0
   58.5536   33.1004   48.9573 H   0  0  0  0  0  0  0  0  0  0  0  0
   57.8402   31.5210   48.4849 H   0  0  0  0  0  0  0  0  0  0  0  0
   59.6234   31.7370   48.4849 H   0  0  0  0  0  0  0  0  0  0  0  0
  1  2  1  0
  2  3  2  0
  3  4  1  0
  4  5  2  0
  5  6  1  0
  6  7  1  0
  7  8  2  0
  7  9  2  0
  7 10  1  0
 10 11  2  0
 11 12  1  0
 12 13  2  0
 13 14  1  0
 14 15  1  0
 15 16  2  0
 15 17  1  0
 17 18  2  3
 18 19  1  0
 19 20  2  0
 20 21  1  0
 21 22  1  0
 22 23  2  0
 14 24  2  0
  5 25  1  0
 25 26  2  0
 26 27  1  0
 26  2  1  0
 24 10  1  0
 23 18  1  0
  1 28  1  0
  1 29  1  0
  1 30  1  0
  3 31  1  0
  4 32  1  0
 11 33  1  0
 12 34  1  0
 13 35  1  0
 19 36  1  0
 20 37  1  0
 22 38  1  0
 23 39  1  0
 24 40  1  0
 25 41  1  0
 27 42  1  0
 27 43  1  0
 27 44  1  0
M  CHG  2   6  -1  21  -1
M  END
>  <UniqueID>  (16) 
15

>  <SMILES>  (16) 
Cc1ccc([N-]S(=O)(=O)c2cccc(C(=O)N=c3cc[n-]cc3)c2)cc1C

>  <Energy>  (16) 
58.850352242239836

>  <Genealogy>  (16) 
Cc1ccc([N-]S(=O)(=O)c2cccc(C(=O)N=c3cc[n-]cc3)c2)cc1C (protonated)
Cc1ccc([N-]S(=O)(=O)c2cccc(C(=O)N=c3cc[n-]cc3)c2)cc1C (3D coordinates assigned)
Cc1ccc([N-]S(=O)(=O)c2cccc(C(=O)N=c3cc[n-]cc3)c2)cc1C (optimized conformer: 58.850352242239836 kcal/mol)

>  <smiles>  (16) 
Cc1ccc(NS(=O)(=O)c2cccc(C(=O)N=c3cc[nH]cc3)c2)cc1C

>  <score_type>  (16) 
oracle

>  <origin>  (16) 
adg

>  <m_score__min__energy>  (16) 
-12.140000000000001

>  <m_primary>  (16) 
energy

$$$$
16:0
     RDKit          3D

 53 56  0  0  0  0  0  0  0  0999 V2000
   54.8570   24.4200   45.7120 C   0  0  0  0  0  0  0  0  0  0  0  0
   55.9270   24.6650   46.6170 O   0  0  0  0  0  0  0  0  0  0  0  0
   57.2460   24.8570   46.1930 C   0  0  0  0  0  0  0  0  0  0  0  0
   58.1240   23.9880   46.4500 O   0  0  0  0  0  0  0  0  0  0  0  0
   57.6060   26.0550   45.3960 C   0  0  0  0  0  0  0  0  0  0  0  0
   57.7640   25.9050   44.0090 C   0  0  0  0  0  0  0  0  0  0  0  0
   58.0380   27.0020   43.1980 C   0  0  0  0  0  0  0  0  0  0  0  0
   58.1340   28.2750   43.7530 C   0  0  0  0  0  0  0  0  0  0  0  0
   57.9830   28.4670   45.1350 C   0  0  0  0  0  0  0  0  0  0  0  0
   58.0320   29.8530   45.6540 C   0  0  0  0  0  0  0  0  0  0  0  0
   57.3650   30.8460   45.0080 N   0  0  0  0  0  0  0  0  0  0  0  0
   57.4010   32.1270   45.4560 C   0  0  0  0  0  0  0  0  0  0  0  0
   56.7730   33.0180   44.8260 O   0  0  0  0  0  0  0  0  0  0  0  0
   58.1400   32.4460   46.6070 C   0  0  0  0  0  0  0  0  0  0  0  0
   58.7780   31.3980   47.2930 C   0  0  0  0  0  0  0  0  0  0  0  0
   58.7150   30.1370   46.7940 N   0  0  0  0  0  0  0  0  0  0  0  0
   59.6100   31.6400   48.5190 C   0  0  0  0  0  0  0  0  0  0  0  0
   59.5020   33.0730   49.0670 C   0  0  0  0  0  0  0  0  0  0  0  0
   59.3650   34.0930   48.0100 N   0  0  0  0  0  0  0  0  0  0  0  0
   60.6200   34.5300   47.3570 C   0  0  0  0  0  0  0  0  0  0  0  0
   61.8600   33.8630   47.8990 C   0  0  0  0  0  0  0  0  0  0  0  0
   62.5600   32.9170   47.1340 C   0  0  0  0  0  0  0  0  0  0  0  0
   63.7190   32.3380   47.6540 C   0  0  0  0  0  0  0  0  0  0  0  0
   64.1630   32.6920   48.9290 C   0  0  0  0  0  0  0  0  0  0  0  0
   63.4260   33.6180   49.6780 C   0  0  0  0  0  0  0  0  0  0  0  0
   63.9010   34.0490   51.0280 C   0  0  0  0  0  0  0  0  0  0  0  0
   62.3020   34.1710   49.1480 N   0  0  0  0  0  0  0  0  0  0  0  0
   58.2150   33.8660   47.1140 C   0  0  0  0  0  0  0  0  0  0  0  0
   57.7780   27.3420   45.9820 C   0  0  0  0  0  0  0  0  0  0  0  0
   57.8010   27.5020   47.4870 C   0  0  0  0  0  0  0  0  0  0  0  0
   53.9381   24.2096   46.2790 H   0  0  0  0  0  0  0  0  0  0  0  0
   54.7023   25.3060   45.0787 H   0  0  0  0  0  0  0  0  0  0  0  0
   55.1032   23.5550   45.0787 H   0  0  0  0  0  0  0  0  0  0  0  0
   57.6699   24.9065   43.5572 H   0  0  0  0  0  0  0  0  0  0  0  0
   58.1790   26.8630   42.1160 H   0  0  0  0  0  0  0  0  0  0  0  0
   58.3302   29.1394   43.1016 H   0  0  0  0  0  0  0  0  0  0  0  0
   59.2826   30.9425   49.3040 H   0  0  0  0  0  0  0  0  0  0  0  0
   60.6601   31.4846   48.2305 H   0  0  0  0  0  0  0  0  0  0  0  0
   58.6214   33.1303   49.7237 H   0  0  0  0  0  0  0  0  0  0  0  0
   60.4362   33.2867   49.6070 H   0  0  0  0  0  0  0  0  0  0  0  0
   60.5475   34.3042   46.2829 H   0  0  0  0  0  0  0  0  0  0  0  0
   60.7246   35.6064   47.5582 H   0  0  0  0  0  0  0  0  0  0  0  0
   62.1988   32.6345   46.1341 H   0  0  0  0  0  0  0  0  0  0  0  0
   64.2818   31.6034   47.0594 H   0  0  0  0  0  0  0  0  0  0  0  0
   65.0815   32.2487   49.3410 H   0  0  0  0  0  0  0  0  0  0  0  0
   63.3238   33.5253   51.8042 H   0  0  0  0  0  0  0  0  0  0  0  0
   64.9679   33.8043   51.1367 H   0  0  0  0  0  0  0  0  0  0  0  0
   63.7609   35.1346   51.1367 H   0  0  0  0  0  0  0  0  0  0  0  0
   57.2901   34.0918   47.6651 H   0  0  0  0  0  0  0  0  0  0  0  0
   58.3405   34.5233   46.2409 H   0  0  0  0  0  0  0  0  0  0  0  0
   57.6599   26.5201   47.9623 H   0  0  0  0  0  0  0  0  0  0  0  0
   58.7689   27.9233   47.7962 H   0  0  0  0  0  0  0  0  0  0  0  0
   56.9909   28.1789   47.7962 H   0  0  0  0  0  0  0  0  0  0  0  0
  1  2  1  0
  2  3  1  0
  3  4  2  0
  3  5  1  0
  5  6  2  0
  6  7  1  0
  7  8  2  0
  8  9  1  0
  9 10  1  0
 10 11  2  0
 11 12  1  0
 12 13  2  0
 12 14  1  0
 14 15  2  0
 15 16  1  0
 15 17  1  0
 17 18  1  0
 18 19  1  0
 19 20  1  0
 20 21  1  0
 21 22  2  0
 22 23  1  0
 23 24  2  0
 24 25  1  0
 25 26  1  0
 25 27  2  0
 19 28  1  0
  9 29  2  0
 29 30  1  0
 29  5  1  0
 16 10  1  0
 27 21  1  0
 28 14  1  0
  1 31  1  0
  1 32  1  0
  1 33  1  0
  6 34  1  0
  7 35  1  0
  8 36  1  0
 17 37  1  0
 17 38  1  0
 18 39  1  0
 18 40  1  0
 20 41  1  0
 20 42  1  0
 22 43  1  0
 23 44  1  0
 24 45  1  0
 26 46  1  0
 26 47  1  0
 26 48  1  0
 28 49  1  0
 28 50  1  0
 30 51  1  0
 30 52  1  0
 30 53  1  0
M  CHG  1  16  -1
M  END
>  <UniqueID>  (17) 
16

>  <SMILES>  (17) 
COC(=O)c1cccc(-c2nc(=O)c3c([n-]2)CCN(Cc2cccc(C)n2)C3)c1C

>  <Energy>  (17) 
73.07970047672589

>  <Genealogy>  (17) 
COC(=O)c1cccc(-c2nc(=O)c3c([n-]2)CCN(Cc2cccc(C)n2)C3)c1C (protonated)
COC(=O)c1cccc(-c2nc(=O)c3c([n-]2)CCN(Cc2cccc(C)n2)C3)c1C (3D coordinates assigned)
COC(=O)c1cccc(-c2nc(=O)c3c([n-]2)CCN(Cc2cccc(C)n2)C3)c1C (nonaromatic ring conformer: 73.07970047672589 kcal/mol)

>  <smiles>  (17) 
COC(=O)c1cccc(-c2nc(=O)c3c([nH]2)CCN(Cc2cccc(C)n2)C3)c1C

>  <score_type>  (17) 
oracle

>  <origin>  (17) 
adg

>  <m_score__min__energy>  (17) 
-10.039999999999999

>  <m_primary>  (17) 
energy

$$$$
17:0
     RDKit          3D

 39 41  0  0  0  0  0  0  0  0999 V2000
   58.0977   33.0131   47.3728 H   0  0  0  0  0  0  0  0  0  0  0  0
   58.1120   32.9310   46.2760 C   0  0  0  0  0  0  0  0  0  0  0  0
   57.4100   31.9000   45.6440 C   0  0  0  0  0  0  0  0  0  0  0  0
   56.8394   31.1766   46.2450 H   0  0  0  0  0  0  0  0  0  0  0  0
   57.4310   31.7850   44.2440 C   0  0  0  0  0  0  0  0  0  0  0  0
   56.6470   30.6920   43.5610 C   0  0  0  0  0  0  0  0  0  0  0  0
   57.2331   30.3151   42.7099 H   0  0  0  0  0  0  0  0  0  0  0  0
   55.6893   31.1206   43.2306 H   0  0  0  0  0  0  0  0  0  0  0  0
   56.3420   29.5390   44.4900 C   0  0  0  0  0  0  0  0  0  0  0  0
   55.1550   29.3430   44.8680 O   0  0  0  0  0  0  0  0  0  0  0  0
   57.3590   28.6410   44.9660 N   0  0  0  0  0  0  0  0  0  0  0  0
   58.4610   28.9370   45.5910 C   0  0  0  0  0  0  0  0  0  0  0  0
   59.6880   28.9620   45.0250 N   0  0  0  0  0  0  0  0  0  0  0  0
   60.6520   29.2740   45.8880 N   0  0  0  0  0  0  0  0  0  0  0  0
   60.1980   29.4860   47.1450 C   0  0  0  0  0  0  0  0  0  0  0  0
   61.0710   29.8960   48.2840 C   0  0  0  0  0  0  0  0  0  0  0  0
   61.9612   29.2503   48.3115 H   0  0  0  0  0  0  0  0  0  0  0  0
   60.5087   29.7963   49.2241 H   0  0  0  0  0  0  0  0  0  0  0  0
   61.4870   31.2870   48.1190 N   0  0  0  0  0  0  0  0  0  0  0  0
   62.4680   31.6590   47.3100 N   0  0  0  0  0  0  0  0  0  0  0  0
   62.6330   32.9880   47.4610 C   0  0  0  0  0  0  0  0  0  0  0  0
   63.6960   33.7770   46.7740 C   0  0  0  0  0  0  0  0  0  0  0  0
   64.3409   34.2557   47.5256 H   0  0  0  0  0  0  0  0  0  0  0  0
   64.3008   33.1074   46.1448 H   0  0  0  0  0  0  0  0  0  0  0  0
   63.2302   34.5498   46.1448 H   0  0  0  0  0  0  0  0  0  0  0  0
   61.7580   33.4720   48.4160 C   0  0  0  0  0  0  0  0  0  0  0  0
   61.6572   34.5052   48.7797 H   0  0  0  0  0  0  0  0  0  0  0  0
   61.0400   32.3600   48.8080 C   0  0  0  0  0  0  0  0  0  0  0  0
   59.9940   32.3320   49.8780 C   0  0  0  0  0  0  0  0  0  0  0  0
   60.4789   32.3450   50.8652 H   0  0  0  0  0  0  0  0  0  0  0  0
   59.3431   33.2130   49.7776 H   0  0  0  0  0  0  0  0  0  0  0  0
   59.3912   31.4174   49.7776 H   0  0  0  0  0  0  0  0  0  0  0  0
   58.5230   29.3020   47.2320 S   0  0  0  0  0  0  0  0  0  0  0  0
   58.1460   32.7260   43.4850 C   0  0  0  0  0  0  0  0  0  0  0  0
   58.1536   32.6534   42.3874 H   0  0  0  0  0  0  0  0  0  0  0  0
   58.8490   33.7560   44.1210 C   0  0  0  0  0  0  0  0  0  0  0  0
   59.4149   34.4854   43.5229 H   0  0  0  0  0  0  0  0  0  0  0  0
   58.8330   33.8590   45.5150 C   0  0  0  0  0  0  0  0  0  0  0  0
   59.7110   35.1510   46.3110 Cl  0  0  0  0  0  0  0  0  0  0  0  0
  1  2  1  0
  2  3  2  0
  3  4  1  0
  3  5  1  0
  5  6  1  0
  6  7  1  0
  6  8  1  0
  6  9  1  0
  9 10  2  0
  9 11  1  0
 11 12  2  0
 12 13  1  0
 13 14  1  0
 14 15  2  0
 15 16  1  0
 16 17  1  0
 16 18  1  0
 16 19  1  0
 19 20  1  0
 20 21  2  0
 21 22  1  0
 22 23  1  0
 22 24  1  0
 22 25  1  0
 21 26  1  0
 26 27  1  0
 26 28  2  0
 28 29  1  0
 29 30  1  0
 29 31  1  0
 29 32  1  0
 15 33  1  0
  5 34  2  0
 34 35  1  0
 34 36  1  0
 36 37  1  0
 36 38  2  0
 38 39  1  0
 38  2  1  0
 33 12  1  0
 28 19  1  0
M  CHG  1  13  -1
M  END
>  <UniqueID>  (18) 
17

>  <SMILES>  (18) 
Cc1cc(C)n(Cc2n[n-]/c(=N\C(=O)Cc3ccc(Cl)cc3)s2)n1

>  <Energy>  (18) 
104.00991376818895

>  <Genealogy>  (18) 
Cc1cc(C)n(Cc2n[n-]c(=NC(=O)Cc3ccc(Cl)cc3)s2)n1 (protonated)
Cc1cc(C)n(Cc2n[n-]/c(=N\C(=O)Cc3ccc(Cl)cc3)s2)n1 (cis-trans isomerization)
Cc1cc(C)n(Cc2n[n-]/c(=N\C(=O)Cc3ccc(Cl)cc3)s2)n1 (3D coordinates assigned)
Cc1cc(C)n(Cc2n[n-]/c(=N\C(=O)Cc3ccc(Cl)cc3)s2)n1 (optimized conformer: 104.00991376818895 kcal/mol)

>  <smiles>  (18) 
Cc1cc(C)n(Cc2n[nH]c(=NC(=O)Cc3ccc(Cl)cc3)s2)n1

>  <score_type>  (18) 
oracle

>  <origin>  (18) 
adg

>  <m_score__min__energy>  (18) 
-10.050000000000001

>  <m_primary>  (18) 
energy

$$$$
18:0
     RDKit          3D

 49 51  0  0  0  0  0  0  0  0999 V2000
   62.5270   34.5400   49.2040 C   0  0  0  0  0  0  0  0  0  0  0  0
   62.0750   33.1910   48.7260 C   0  0  0  0  0  0  0  0  0  0  0  0
   62.6320   32.6130   47.5770 C   0  0  0  0  0  0  0  0  0  0  0  0
   62.1900   31.3630   47.1320 C   0  0  0  0  0  0  0  0  0  0  0  0
   61.1840   30.6740   47.8270 C   0  0  0  0  0  0  0  0  0  0  0  0
   60.7520   29.3900   47.3500 N   0  0  0  0  0  0  0  0  0  0  0  0
   60.2750   29.0970   45.7070 S   0  0  0  0  0  0  0  0  0  0  0  0
   59.5100   30.2910   45.2050 O   0  0  0  0  0  0  0  0  0  0  0  0
   61.4980   28.9270   44.8520 O   0  0  0  0  0  0  0  0  0  0  0  0
   59.2860   27.6260   45.6110 C   0  0  0  0  0  0  0  0  0  0  0  0
   59.7300   26.4800   46.2920 C   0  0  0  0  0  0  0  0  0  0  0  0
   59.0260   25.2800   46.2060 C   0  0  0  0  0  0  0  0  0  0  0  0
   57.8670   25.2040   45.4370 C   0  0  0  0  0  0  0  0  0  0  0  0
   57.4050   26.3300   44.7570 C   0  0  0  0  0  0  0  0  0  0  0  0
   58.0940   27.5550   44.8370 C   0  0  0  0  0  0  0  0  0  0  0  0
   57.4960   28.7480   44.1200 C   0  0  0  0  0  0  0  0  0  0  0  0
   56.2910   29.3170   44.8740 C   0  0  0  0  0  0  0  0  0  0  0  0
   56.0820   30.7160   44.5150 N   0  0  0  0  0  0  0  0  0  0  0  0
   57.1110   31.6180   44.0920 C   0  0  0  0  0  0  0  0  0  0  0  0
   57.4690   31.6030   42.8830 O   0  0  0  0  0  0  0  0  0  0  0  0
   57.7390   32.5850   45.0130 C   0  0  0  0  0  0  0  0  0  0  0  0
   57.7700   32.3450   46.3960 C   0  0  0  0  0  0  0  0  0  0  0  0
   58.3880   33.2590   47.2560 C   0  0  0  0  0  0  0  0  0  0  0  0
   58.9860   34.4120   46.7420 C   0  0  0  0  0  0  0  0  0  0  0  0
   58.9770   34.6490   45.3640 C   0  0  0  0  0  0  0  0  0  0  0  0
   59.5690   35.7620   44.8640 F   0  0  0  0  0  0  0  0  0  0  0  0
   58.3610   33.7350   44.5010 C   0  0  0  0  0  0  0  0  0  0  0  0
   60.6100   31.2700   48.9630 C   0  0  0  0  0  0  0  0  0  0  0  0
   61.0540   32.5170   49.4110 C   0  0  0  0  0  0  0  0  0  0  0  0
   62.5325   34.5564   50.3039 H   0  0  0  0  0  0  0  0  0  0  0  0
   63.5415   34.7408   48.8292 H   0  0  0  0  0  0  0  0  0  0  0  0
   61.8383   35.3115   48.8292 H   0  0  0  0  0  0  0  0  0  0  0  0
   63.4198   33.1446   47.0231 H   0  0  0  0  0  0  0  0  0  0  0  0
   62.6343   30.9164   46.2303 H   0  0  0  0  0  0  0  0  0  0  0  0
   60.5790   28.6250   48.0390 H   0  0  0  0  0  0  0  0  0  0  0  0
   60.6448   26.5304   46.9008 H   0  0  0  0  0  0  0  0  0  0  0  0
   59.3861   24.3919   46.7461 H   0  0  0  0  0  0  0  0  0  0  0  0
   57.3158   24.2547   45.3662 H   0  0  0  0  0  0  0  0  0  0  0  0
   56.4902   26.2603   44.1501 H   0  0  0  0  0  0  0  0  0  0  0  0
   58.2630   29.5314   44.0309 H   0  0  0  0  0  0  0  0  0  0  0  0
   57.1542   28.4159   43.1286 H   0  0  0  0  0  0  0  0  0  0  0  0
   55.3932   28.7376   44.6129 H   0  0  0  0  0  0  0  0  0  0  0  0
   56.4820   29.2503   45.9552 H   0  0  0  0  0  0  0  0  0  0  0  0
   57.3066   31.4349   46.8048 H   0  0  0  0  0  0  0  0  0  0  0  0
   58.4031   33.0693   48.3394 H   0  0  0  0  0  0  0  0  0  0  0  0
   59.4639   35.1334   47.4212 H   0  0  0  0  0  0  0  0  0  0  0  0
   58.3643   33.9186   43.4164 H   0  0  0  0  0  0  0  0  0  0  0  0
   59.8050   30.7508   49.5037 H   0  0  0  0  0  0  0  0  0  0  0  0
   60.6008   32.9715   50.3043 H   0  0  0  0  0  0  0  0  0  0  0  0
  1  2  1  0
  2  3  2  0
  3  4  1  0
  4  5  2  0
  5  6  1  0
  6  7  1  0
  7  8  2  0
  7  9  2  0
  7 10  1  0
 10 11  2  0
 11 12  1  0
 12 13  2  0
 13 14  1  0
 14 15  2  0
 15 16  1  0
 16 17  1  0
 17 18  1  0
 18 19  1  0
 19 20  2  0
 19 21  1  0
 21 22  2  0
 22 23  1  0
 23 24  2  0
 24 25  1  0
 25 26  1  0
 25 27  2  0
  5 28  1  0
 28 29  2  0
 29  2  1  0
 15 10  1  0
 27 21  1  0
  1 30  1  0
  1 31  1  0
  1 32  1  0
  3 33  1  0
  4 34  1  0
  6 35  1  0
 11 36  1  0
 12 37  1  0
 13 38  1  0
 14 39  1  0
 16 40  1  0
 16 41  1  0
 17 42  1  0
 17 43  1  0
 22 44  1  0
 23 45  1  0
 24 46  1  0
 27 47  1  0
 28 48  1  0
 29 49  1  0
M  CHG  1  18  -1
M  END
>  <UniqueID>  (19) 
18

>  <SMILES>  (19) 
Cc1ccc(NS(=O)(=O)c2ccccc2CC[N-]C(=O)c2cccc(F)c2)cc1

>  <Energy>  (19) 
57.5920956105706

>  <Genealogy>  (19) 
Cc1ccc(NS(=O)(=O)c2ccccc2CC[N-]C(=O)c2cccc(F)c2)cc1 (protonated)
Cc1ccc(NS(=O)(=O)c2ccccc2CC[N-]C(=O)c2cccc(F)c2)cc1 (3D coordinates assigned)
Cc1ccc(NS(=O)(=O)c2ccccc2CC[N-]C(=O)c2cccc(F)c2)cc1 (optimized conformer: 57.5920956105706 kcal/mol)

>  <smiles>  (19) 
Cc1ccc(NS(=O)(=O)c2ccccc2CCNC(=O)c2cccc(F)c2)cc1

>  <score_type>  (19) 
oracle

>  <origin>  (19) 
adg

>  <m_score__min__energy>  (19) 
-11.970000000000001

>  <m_primary>  (19) 
energy

$$$$
19:0
     RDKit          3D

 51 53  0  0  0  0  0  0  0  0999 V2000
   57.3270   28.3300   43.4120 O   0  0  0  0  0  0  0  0  0  0  0  0
   56.8000   28.8700   44.4220 C   0  0  0  0  0  0  0  0  0  0  0  0
   55.8960   28.1270   45.2470 N   0  0  0  0  0  0  0  0  0  0  0  0
   56.2440   26.8690   45.9000 C   0  0  0  0  0  0  0  0  0  0  0  0
   57.6930   26.8780   46.3090 C   0  0  0  0  0  0  0  0  0  0  0  0
   58.1340   27.6970   47.3620 C   0  0  0  0  0  0  0  0  0  0  0  0
   59.4760   27.6690   47.7590 C   0  0  0  0  0  0  0  0  0  0  0  0
   60.3790   26.8200   47.1150 C   0  0  0  0  0  0  0  0  0  0  0  0
   59.9470   26.0010   46.0690 C   0  0  0  0  0  0  0  0  0  0  0  0
   58.6080   26.0290   45.6660 C   0  0  0  0  0  0  0  0  0  0  0  0
   57.1120   30.2670   44.7610 C   0  0  0  0  0  0  0  0  0  0  0  0
   56.2430   31.1580   44.5610 O   0  0  0  0  0  0  0  0  0  0  0  0
   58.3940   30.6180   45.3060 N   0  0  0  0  0  0  0  0  0  0  0  0
   58.7270   31.9770   45.7330 C   0  0  0  0  0  0  0  0  0  0  0  0
   59.6380   31.9590   46.9650 C   0  0  2  0  0  0  0  0  0  0  0  0
   59.7990   30.6180   47.4010 O   0  0  0  0  0  0  0  0  0  0  0  0
   60.5950   30.5930   48.5650 C   0  0  0  0  0  0  0  0  0  0  0  0
   59.8500   31.2250   49.7450 C   0  0  0  0  0  0  0  0  0  0  0  0
   58.6890   32.0960   49.2490 C   0  0  0  0  0  0  0  0  0  0  0  0
   59.0250   32.8230   48.0100 N   0  0  0  0  0  0  0  0  0  0  0  0
   59.9990   34.2420   48.3280 S   0  0  0  0  0  0  0  0  0  0  0  0
   59.8110   35.2640   47.2400 O   0  0  0  0  0  0  0  0  0  0  0  0
   59.5730   34.8560   49.6320 O   0  0  0  0  0  0  0  0  0  0  0  0
   61.7030   33.8040   48.4480 C   0  0  0  0  0  0  0  0  0  0  0  0
   62.4250   33.4920   47.2860 C   0  0  0  0  0  0  0  0  0  0  0  0
   63.7810   33.1570   47.3710 C   0  0  0  0  0  0  0  0  0  0  0  0
   64.4220   33.1390   48.6130 C   0  0  0  0  0  0  0  0  0  0  0  0
   63.7070   33.4560   49.7730 C   0  0  0  0  0  0  0  0  0  0  0  0
   62.3510   33.7880   49.6930 C   0  0  0  0  0  0  0  0  0  0  0  0
   55.6154   26.7373   46.7930 H   0  0  0  0  0  0  0  0  0  0  0  0
   56.0753   26.0408   45.1960 H   0  0  0  0  0  0  0  0  0  0  0  0
   57.4234   28.3614   47.8754 H   0  0  0  0  0  0  0  0  0  0  0  0
   59.8199   28.3164   48.5791 H   0  0  0  0  0  0  0  0  0  0  0  0
   61.4321   26.7962   47.4320 H   0  0  0  0  0  0  0  0  0  0  0  0
   60.6600   25.3340   45.5623 H   0  0  0  0  0  0  0  0  0  0  0  0
   58.2704   25.3833   44.8420 H   0  0  0  0  0  0  0  0  0  0  0  0
   59.1410   29.8910   45.3660 H   0  0  0  0  0  0  0  0  0  0  0  0
   59.2433   32.4956   44.9117 H   0  0  0  0  0  0  0  0  0  0  0  0
   57.7952   32.4999   45.9944 H   0  0  0  0  0  0  0  0  0  0  0  0
   60.6385   32.3539   46.7348 H   0  0  0  0  0  0  0  0  0  0  0  0
   60.8420   29.5497   48.8111 H   0  0  0  0  0  0  0  0  0  0  0  0
   61.5133   31.1689   48.3776 H   0  0  0  0  0  0  0  0  0  0  0  0
   59.4531   30.4275   50.3904 H   0  0  0  0  0  0  0  0  0  0  0  0
   60.5516   31.8579   50.3082 H   0  0  0  0  0  0  0  0  0  0  0  0
   57.8196   31.4503   49.0558 H   0  0  0  0  0  0  0  0  0  0  0  0
   58.4702   32.8412   50.0280 H   0  0  0  0  0  0  0  0  0  0  0  0
   61.9243   33.5108   46.3067 H   0  0  0  0  0  0  0  0  0  0  0  0
   64.3433   32.9075   46.4591 H   0  0  0  0  0  0  0  0  0  0  0  0
   65.4880   32.8757   48.6783 H   0  0  0  0  0  0  0  0  0  0  0  0
   64.2125   33.4441   50.7499 H   0  0  0  0  0  0  0  0  0  0  0  0
   61.7915   34.0369   50.6068 H   0  0  0  0  0  0  0  0  0  0  0  0
  1  2  2  0
  2  3  1  0
  3  4  1  0
  4  5  1  0
  5  6  2  0
  6  7  1  0
  7  8  2  0
  8  9  1  0
  9 10  2  0
  2 11  1  0
 11 12  2  0
 11 13  1  0
 13 14  1  0
 14 15  1  0
 15 16  1  0
 16 17  1  0
 17 18  1  0
 18 19  1  0
 19 20  1  0
 20 21  1  0
 21 22  2  0
 21 23  2  0
 21 24  1  0
 24 25  2  0
 25 26  1  0
 26 27  2  0
 27 28  1  0
 28 29  2  0
 10  5  1  0
 20 15  1  0
 29 24  1  0
  4 30  1  0
  4 31  1  0
  6 32  1  0
  7 33  1  0
  8 34  1  0
  9 35  1  0
 10 36  1  0
 13 37  1  0
 14 38  1  0
 14 39  1  0
 15 40  1  6
 17 41  1  0
 17 42  1  0
 18 43  1  0
 18 44  1  0
 19 45  1  0
 19 46  1  0
 25 47  1  0
 26 48  1  0
 27 49  1  0
 28 50  1  0
 29 51  1  0
M  CHG  1   3  -1
M  END
>  <UniqueID>  (20) 
19

>  <SMILES>  (20) 
O=C([N-]Cc1ccccc1)C(=O)NC[C@@H]1OCCCN1S(=O)(=O)c1ccccc1

>  <Energy>  (20) 
54.6323805099378

>  <Genealogy>  (20) 
O=C([N-]Cc1ccccc1)C(=O)NCC1OCCCN1S(=O)(=O)c1ccccc1 (protonated)
O=C([N-]Cc1ccccc1)C(=O)NC[C@@H]1OCCCN1S(=O)(=O)c1ccccc1 (chirality)
O=C([N-]Cc1ccccc1)C(=O)NC[C@@H]1OCCCN1S(=O)(=O)c1ccccc1 (3D coordinates assigned)
O=C([N-]Cc1ccccc1)C(=O)NC[C@@H]1OCCCN1S(=O)(=O)c1ccccc1 (nonaromatic ring conformer: 54.6323805099378 kcal/mol)

>  <smiles>  (20) 
O=C(NCc1ccccc1)C(=O)NCC1OCCCN1S(=O)(=O)c1ccccc1

>  <score_type>  (20) 
oracle

>  <origin>  (20) 
adg

>  <m_score__min__energy>  (20) 
-11.06

>  <m_primary>  (20) 
energy

$$$$
20:0
     RDKit          3D

 46 49  0  0  0  0  0  0  0  0999 V2000
   55.2660   28.7260   45.6110 H   0  0  0  0  0  0  0  0  0  0  0  0
   55.1500   29.3770   44.8020 N   0  0  0  0  0  0  0  0  0  0  0  0
   56.7260   29.6490   44.1440 S   0  0  0  0  0  0  0  0  0  0  0  0
   56.6290   30.6160   42.9980 O   0  0  0  0  0  0  0  0  0  0  0  0
   57.2740   28.3410   43.6470 O   0  0  0  0  0  0  0  0  0  0  0  0
   57.7860   30.3130   45.3820 C   0  0  0  0  0  0  0  0  0  0  0  0
   58.6130   29.4700   46.1320 C   0  0  0  0  0  0  0  0  0  0  0  0
   58.5965   28.3850   45.9518 H   0  0  0  0  0  0  0  0  0  0  0  0
   59.4600   30.0000   47.1090 C   0  0  0  0  0  0  0  0  0  0  0  0
   60.1052   29.3274   47.6932 H   0  0  0  0  0  0  0  0  0  0  0  0
   59.4960   31.3850   47.3530 C   0  0  0  0  0  0  0  0  0  0  0  0
   60.3770   31.9180   48.3630 N   0  0  0  0  0  0  0  0  0  0  0  0
   61.6630   31.6100   48.4450 N   0  0  0  0  0  0  0  0  0  0  0  0
   62.1850   32.2620   49.5030 C   0  0  0  0  0  0  0  0  0  0  0  0
   63.6070   32.1600   49.8900 C   0  0  0  0  0  0  0  0  0  0  0  0
   64.5330   33.0910   49.3890 C   0  0  0  0  0  0  0  0  0  0  0  0
   64.1968   33.8808   48.7011 H   0  0  0  0  0  0  0  0  0  0  0  0
   65.8790   33.0190   49.7600 C   0  0  0  0  0  0  0  0  0  0  0  0
   66.6006   33.7426   49.3530 H   0  0  0  0  0  0  0  0  0  0  0  0
   66.3090   32.0280   50.6480 C   0  0  0  0  0  0  0  0  0  0  0  0
   67.6480   31.9590   51.0160 O   0  0  0  0  0  0  0  0  0  0  0  0
   65.3910   31.1120   51.1690 C   0  0  0  0  0  0  0  0  0  0  0  0
   65.7283   30.3355   51.8714 H   0  0  0  0  0  0  0  0  0  0  0  0
   64.0450   31.1810   50.7990 C   0  0  0  0  0  0  0  0  0  0  0  0
   63.3243   30.4653   51.2214 H   0  0  0  0  0  0  0  0  0  0  0  0
   61.1830   32.9980   50.1220 C   0  0  0  0  0  0  0  0  0  0  0  0
   61.2510   33.7600   51.3790 C   0  0  0  0  0  0  0  0  0  0  0  0
   61.9885   34.5682   51.4927 H   0  0  0  0  0  0  0  0  0  0  0  0
   60.4410   33.4790   52.3540 N   0  0  0  0  0  0  0  0  0  0  0  0
   59.3430   32.5500   52.3080 C   0  0  0  0  0  0  0  0  0  0  0  0
   59.6270   31.1830   52.4280 C   0  0  0  0  0  0  0  0  0  0  0  0
   60.6678   30.8525   52.5604 H   0  0  0  0  0  0  0  0  0  0  0  0
   58.6000   30.2350   52.3810 C   0  0  0  0  0  0  0  0  0  0  0  0
   58.8338   29.1652   52.4849 H   0  0  0  0  0  0  0  0  0  0  0  0
   57.2760   30.6470   52.2020 C   0  0  0  0  0  0  0  0  0  0  0  0
   56.2570   29.7050   52.1550 O   0  0  0  0  0  0  0  0  0  0  0  0
   56.9810   32.0060   52.0660 C   0  0  0  0  0  0  0  0  0  0  0  0
   55.9395   32.3292   51.9215 H   0  0  0  0  0  0  0  0  0  0  0  0
   58.0060   32.9570   52.1130 C   0  0  0  0  0  0  0  0  0  0  0  0
   57.7690   34.0250   51.9976 H   0  0  0  0  0  0  0  0  0  0  0  0
   60.0500   32.7590   49.3680 C   0  0  0  0  0  0  0  0  0  0  0  0
   59.0517   33.1817   49.5545 H   0  0  0  0  0  0  0  0  0  0  0  0
   58.6700   32.2290   46.5830 C   0  0  0  0  0  0  0  0  0  0  0  0
   58.6908   33.3157   46.7524 H   0  0  0  0  0  0  0  0  0  0  0  0
   57.8240   31.6950   45.6050 C   0  0  0  0  0  0  0  0  0  0  0  0
   57.1859   32.3636   45.0086 H   0  0  0  0  0  0  0  0  0  0  0  0
  1  2  1  0
  2  3  1  0
  3  4  2  0
  3  5  2  0
  3  6  1  0
  6  7  2  0
  7  8  1  0
  7  9  1  0
  9 10  1  0
  9 11  2  0
 11 12  1  0
 12 13  1  0
 13 14  2  0
 14 15  1  0
 15 16  2  0
 16 17  1  0
 16 18  1  0
 18 19  1  0
 18 20  2  0
 20 21  1  0
 20 22  1  0
 22 23  1  0
 22 24  2  0
 24 25  1  0
 14 26  1  0
 26 27  1  0
 27 28  1  0
 27 29  2  0
 29 30  1  0
 30 31  2  0
 31 32  1  0
 31 33  1  0
 33 34  1  0
 33 35  2  0
 35 36  1  0
 35 37  1  0
 37 38  1  0
 37 39  2  0
 39 40  1  0
 26 41  2  0
 41 42  1  0
 11 43  1  0
 43 44  1  0
 43 45  2  0
 45 46  1  0
 45  6  1  0
 41 12  1  0
 24 15  1  0
 39 30  1  0
M  CHG  3   2  -1  21  -1  36  -1
M  END
>  <UniqueID>  (21) 
20

>  <SMILES>  (21) 
[NH-]S(=O)(=O)c1ccc(-n2cc(/C=N/c3ccc([O-])cc3)c(-c3ccc([O-])cc3)n2)cc1

>  <Energy>  (21) 
89.97499484555453

>  <Genealogy>  (21) 
[NH-]S(=O)(=O)c1ccc(-n2cc(C=Nc3ccc([O-])cc3)c(-c3ccc([O-])cc3)n2)cc1 (protonated)
[NH-]S(=O)(=O)c1ccc(-n2cc(/C=N/c3ccc([O-])cc3)c(-c3ccc([O-])cc3)n2)cc1 (cis-trans isomerization)
[NH-]S(=O)(=O)c1ccc(-n2cc(/C=N/c3ccc([O-])cc3)c(-c3ccc([O-])cc3)n2)cc1 (3D coordinates assigned)
[NH-]S(=O)(=O)c1ccc(-n2cc(/C=N/c3ccc([O-])cc3)c(-c3ccc([O-])cc3)n2)cc1 (optimized conformer: 89.97499484555453 kcal/mol)

>  <smiles>  (21) 
NS(=O)(=O)c1ccc(-n2cc(C=Nc3ccc(O)cc3)c(-c3ccc(O)cc3)n2)cc1

>  <score_type>  (21) 
oracle

>  <origin>  (21) 
adg

>  <m_score__min__energy>  (21) 
-12.4

>  <m_primary>  (21) 
energy

$$$$
21:0
     RDKit          3D

 35 37  0  0  0  0  0  0  0  0999 V2000
   56.1500   23.9350   47.5350 C   0  0  0  0  0  0  0  0  0  0  0  0
   57.4200   24.5520   47.3500 O   0  0  0  0  0  0  0  0  0  0  0  0
   57.6410   25.7190   46.5980 C   0  0  0  0  0  0  0  0  0  0  0  0
   57.8960   26.9530   47.2160 C   0  0  0  0  0  0  0  0  0  0  0  0
   58.1410   28.0920   46.4530 C   0  0  0  0  0  0  0  0  0  0  0  0
   58.1320   28.0350   45.0500 C   0  0  0  0  0  0  0  0  0  0  0  0
   58.4040   29.2160   44.2660 N   0  0  0  0  0  0  0  0  0  0  0  0
   57.2370   30.4620   43.9540 S   0  0  0  0  0  0  0  0  0  0  0  0
   55.9010   30.0430   44.5020 O   0  0  0  0  0  0  0  0  0  0  0  0
   57.1150   30.6650   42.4700 O   0  0  0  0  0  0  0  0  0  0  0  0
   57.7510   31.9630   44.6990 C   0  0  0  0  0  0  0  0  0  0  0  0
   58.2070   33.0740   44.0370 C   0  0  0  0  0  0  0  0  0  0  0  0
   58.5130   34.0190   44.9420 N   0  0  0  0  0  0  0  0  0  0  0  0
   58.2310   33.4420   46.1300 C   0  0  0  0  0  0  0  0  0  0  0  0
   57.7610   32.1800   46.0240 N   0  0  0  0  0  0  0  0  0  0  0  0
   57.8720   26.7990   44.4160 C   0  0  0  0  0  0  0  0  0  0  0  0
   57.7720   26.7150   42.6520 Cl  0  0  0  0  0  0  0  0  0  0  0  0
   57.6240   25.6410   45.1900 C   0  0  0  0  0  0  0  0  0  0  0  0
   57.3580   24.3400   44.5340 C   0  0  0  0  0  0  0  0  0  0  0  0
   56.1410   24.0920   43.8820 C   0  0  0  0  0  0  0  0  0  0  0  0
   55.9310   22.8860   43.2930 N   0  0  0  0  0  0  0  0  0  0  0  0
   56.8780   21.9120   43.3250 C   0  0  0  0  0  0  0  0  0  0  0  0
   56.6600   20.8020   42.7730 O   0  0  0  0  0  0  0  0  0  0  0  0
   58.0910   22.1540   43.9730 C   0  0  0  0  0  0  0  0  0  0  0  0
   58.3030   23.3600   44.5620 N   0  0  0  0  0  0  0  0  0  0  0  0
   55.9442   23.8350   48.6109 H   0  0  0  0  0  0  0  0  0  0  0  0
   55.3699   24.5545   47.0685 H   0  0  0  0  0  0  0  0  0  0  0  0
   56.1549   22.9388   47.0685 H   0  0  0  0  0  0  0  0  0  0  0  0
   57.9024   27.0212   48.3139 H   0  0  0  0  0  0  0  0  0  0  0  0
   58.3442   29.0489   46.9560 H   0  0  0  0  0  0  0  0  0  0  0  0
   59.3400   29.3460   43.8240 H   0  0  0  0  0  0  0  0  0  0  0  0
   58.3059   33.1749   42.9461 H   0  0  0  0  0  0  0  0  0  0  0  0
   58.3710   33.9523   47.0944 H   0  0  0  0  0  0  0  0  0  0  0  0
   55.3624   24.8683   43.8479 H   0  0  0  0  0  0  0  0  0  0  0  0
   58.8676   21.3757   44.0063 H   0  0  0  0  0  0  0  0  0  0  0  0
  1  2  1  0
  2  3  1  0
  3  4  2  0
  4  5  1  0
  5  6  2  0
  6  7  1  0
  7  8  1  0
  8  9  2  0
  8 10  2  0
  8 11  1  0
 11 12  2  0
 12 13  1  0
 13 14  1  0
 14 15  2  0
  6 16  1  0
 16 17  1  0
 16 18  2  0
 18 19  1  0
 19 20  2  0
 20 21  1  0
 21 22  1  0
 22 23  2  0
 22 24  1  0
 24 25  2  0
 18  3  1  0
 25 19  1  0
 15 11  1  0
  1 26  1  0
  1 27  1  0
  1 28  1  0
  4 29  1  0
  5 30  1  0
  7 31  1  0
 12 32  1  0
 14 33  1  0
 20 34  1  0
 24 35  1  0
M  CHG  2  13  -1  21  -1
M  END
>  <UniqueID>  (22) 
21

>  <SMILES>  (22) 
COc1ccc(NS(=O)(=O)c2c[n-]cn2)c(Cl)c1-c1c[n-]c(=O)cn1

>  <Energy>  (22) 
79.83616577732568

>  <Genealogy>  (22) 
COc1ccc(NS(=O)(=O)c2c[n-]cn2)c(Cl)c1-c1c[n-]c(=O)cn1 (protonated)
COc1ccc(NS(=O)(=O)c2c[n-]cn2)c(Cl)c1-c1c[n-]c(=O)cn1 (3D coordinates assigned)
COc1ccc(NS(=O)(=O)c2c[n-]cn2)c(Cl)c1-c1c[n-]c(=O)cn1 (optimized conformer: 79.83616577732568 kcal/mol)

>  <smiles>  (22) 
COc1ccc(NS(=O)(=O)c2c[nH]cn2)c(Cl)c1-c1c[nH]c(=O)cn1

>  <score_type>  (22) 
oracle

>  <origin>  (22) 
adg

>  <m_score__min__energy>  (22) 
-9.9299999999999997

>  <m_primary>  (22) 
energy

$$$$
22:0
     RDKit          3D

 64 67  0  0  0  0  0  0  0  0999 V2000
   63.2960   30.8410   50.8030 C   0  0  0  0  0  0  0  0  0  0  0  0
   62.4340   31.9340   50.4990 O   0  0  0  0  0  0  0  0  0  0  0  0
   62.3430   32.5500   49.2400 C   0  0  0  0  0  0  0  0  0  0  0  0
   63.3830   32.4740   48.2920 C   0  0  0  0  0  0  0  0  0  0  0  0
   63.2540   33.1100   47.0540 C   0  0  0  0  0  0  0  0  0  0  0  0
   62.0950   33.8220   46.7480 C   0  0  0  0  0  0  0  0  0  0  0  0
   61.0600   33.9070   47.6810 C   0  0  0  0  0  0  0  0  0  0  0  0
   61.1830   33.2780   48.9320 C   0  0  0  0  0  0  0  0  0  0  0  0
   60.1290   33.3550   49.8990 N   0  0  0  0  0  0  0  0  0  0  0  0
   58.7750   32.2720   49.9260 S   0  0  0  0  0  0  0  0  0  0  0  0
   57.8090   32.6970   48.8560 O   0  0  0  0  0  0  0  0  0  0  0  0
   58.0670   32.3230   51.2500 O   0  0  0  0  0  0  0  0  0  0  0  0
   59.3470   30.6370   49.6020 C   0  0  0  0  0  0  0  0  0  0  0  0
   59.8410   29.8530   50.6510 C   0  0  0  0  0  0  0  0  0  0  0  0
   60.3540   28.5790   50.3980 C   0  0  0  0  0  0  0  0  0  0  0  0
   60.3650   28.0670   49.0960 C   0  0  0  0  0  0  0  0  0  0  0  0
   60.8830   26.7890   48.8830 O   0  0  0  0  0  0  0  0  0  0  0  0
   59.8480   28.8360   48.0350 C   0  0  0  0  0  0  0  0  0  0  0  0
   59.8990   28.3250   46.6950 N   0  0  0  0  0  0  0  0  0  0  0  0
   59.7760   26.9440   46.3330 C   0  0  0  0  0  0  0  0  0  0  0  0
   60.8220   26.2840   46.0890 O   0  0  0  0  0  0  0  0  0  0  0  0
   58.4570   26.2770   46.2290 C   0  0  0  0  0  0  0  0  0  0  0  0
   58.3970   24.8770   46.3190 C   0  0  0  0  0  0  0  0  0  0  0  0
   57.1760   24.2110   46.2330 C   0  0  0  0  0  0  0  0  0  0  0  0
   55.9870   24.9340   46.0860 C   0  0  0  0  0  0  0  0  0  0  0  0
   54.6760   24.2150   45.9640 C   0  0  0  0  0  0  0  0  0  0  0  0
   56.0350   26.3300   45.9940 C   0  0  0  0  0  0  0  0  0  0  0  0
   57.2640   27.0140   46.0580 C   0  0  0  0  0  0  0  0  0  0  0  0
   57.3210   28.4460   45.9850 N   0  0  0  0  0  0  0  0  0  0  0  0
   56.6960   29.4210   44.6930 S   0  0  0  0  0  0  0  0  0  0  0  0
   57.0210   28.7620   43.3810 O   0  0  0  0  0  0  0  0  0  0  0  0
   55.2040   29.5270   44.8340 O   0  0  0  0  0  0  0  0  0  0  0  0
   57.3920   31.0400   44.7550 C   0  0  0  0  0  0  0  0  0  0  0  0
   57.7920   31.5780   45.9840 C   0  0  0  0  0  0  0  0  0  0  0  0
   58.3690   32.8500   46.0430 C   0  0  0  0  0  0  0  0  0  0  0  0
   58.5400   33.6040   44.8700 C   0  0  0  0  0  0  0  0  0  0  0  0
   59.2030   34.9490   44.9280 C   0  0  0  0  0  0  0  0  0  0  0  0
   58.1470   33.0590   43.6360 C   0  0  0  0  0  0  0  0  0  0  0  0
   57.5710   31.7850   43.5810 C   0  0  0  0  0  0  0  0  0  0  0  0
   59.3480   30.1250   48.2970 C   0  0  0  0  0  0  0  0  0  0  0  0
   63.3808   30.7335   51.8944 H   0  0  0  0  0  0  0  0  0  0  0  0
   62.8811   29.9167   50.3746 H   0  0  0  0  0  0  0  0  0  0  0  0
   64.2916   31.0290   50.3746 H   0  0  0  0  0  0  0  0  0  0  0  0
   64.2992   31.9124   48.5271 H   0  0  0  0  0  0  0  0  0  0  0  0
   64.0697   33.0486   46.3186 H   0  0  0  0  0  0  0  0  0  0  0  0
   61.9960   34.3171   45.7707 H   0  0  0  0  0  0  0  0  0  0  0  0
   60.1458   34.4677   47.4365 H   0  0  0  0  0  0  0  0  0  0  0  0
   59.8251   30.2423   51.6797 H   0  0  0  0  0  0  0  0  0  0  0  0
   60.7516   27.9748   51.2268 H   0  0  0  0  0  0  0  0  0  0  0  0
   61.1180   26.4470   47.9590 H   0  0  0  0  0  0  0  0  0  0  0  0
   59.3232   24.3002   46.4588 H   0  0  0  0  0  0  0  0  0  0  0  0
   57.1467   23.1124   46.2809 H   0  0  0  0  0  0  0  0  0  0  0  0
   54.2816   23.9987   46.9678 H   0  0  0  0  0  0  0  0  0  0  0  0
   53.9607   24.8470   45.4174 H   0  0  0  0  0  0  0  0  0  0  0  0
   54.8244   23.2721   45.4174 H   0  0  0  0  0  0  0  0  0  0  0  0
   55.1018   26.8991   45.8703 H   0  0  0  0  0  0  0  0  0  0  0  0
   57.6516   30.9972   46.9075 H   0  0  0  0  0  0  0  0  0  0  0  0
   58.6902   33.2619   47.0111 H   0  0  0  0  0  0  0  0  0  0  0  0
   59.3473   35.2417   45.9785 H   0  0  0  0  0  0  0  0  0  0  0  0
   60.1794   34.8985   44.4240 H   0  0  0  0  0  0  0  0  0  0  0  0
   58.5683   35.6927   44.4240 H   0  0  0  0  0  0  0  0  0  0  0  0
   58.2926   33.6355   42.7106 H   0  0  0  0  0  0  0  0  0  0  0  0
   57.2575   31.3666   42.6132 H   0  0  0  0  0  0  0  0  0  0  0  0
   58.9547   30.7359   47.4711 H   0  0  0  0  0  0  0  0  0  0  0  0
  1  2  1  0
  2  3  1  0
  3  4  2  0
  4  5  1  0
  5  6  2  0
  6  7  1  0
  7  8  2  0
  8  9  1  0
  9 10  1  0
 10 11  2  0
 10 12  2  0
 10 13  1  0
 13 14  2  0
 14 15  1  0
 15 16  2  0
 16 17  1  0
 16 18  1  0
 18 19  1  0
 19 20  1  0
 20 21  2  0
 20 22  1  0
 22 23  2  0
 23 24  1  0
 24 25  2  0
 25 26  1  0
 25 27  1  0
 27 28  2  0
 28 29  1  0
 29 30  1  0
 30 31  2  0
 30 32  2  0
 30 33  1  0
 33 34  2  0
 34 35  1  0
 35 36  2  0
 36 37  1  0
 36 38  1  0
 38 39  2  0
 18 40  2  0
  8  3  1  0
 40 13  1  0
 28 22  1  0
 39 33  1  0
  1 41  1  0
  1 42  1  0
  1 43  1  0
  4 44  1  0
  5 45  1  0
  6 46  1  0
  7 47  1  0
 14 48  1  0
 15 49  1  0
 17 50  1  0
 23 51  1  0
 24 52  1  0
 26 53  1  0
 26 54  1  0
 26 55  1  0
 27 56  1  0
 34 57  1  0
 35 58  1  0
 37 59  1  0
 37 60  1  0
 37 61  1  0
 38 62  1  0
 39 63  1  0
 40 64  1  0
M  CHG  3   9  -1  19  -1  29  -1
M  END
>  <UniqueID>  (23) 
22

>  <SMILES>  (23) 
COc1ccccc1[N-]S(=O)(=O)c1ccc(O)c([N-]C(=O)c2ccc(C)cc2[N-]S(=O)(=O)c2ccc(C)cc2)c1

>  <Energy>  (23) 
82.11707679815416

>  <Genealogy>  (23) 
COc1ccccc1[N-]S(=O)(=O)c1ccc(O)c([N-]C(=O)c2ccc(C)cc2[N-]S(=O)(=O)c2ccc(C)cc2)c1 (protonated)
COc1ccccc1[N-]S(=O)(=O)c1ccc(O)c([N-]C(=O)c2ccc(C)cc2[N-]S(=O)(=O)c2ccc(C)cc2)c1 (3D coordinates assigned)
COc1ccccc1[N-]S(=O)(=O)c1ccc(O)c([N-]C(=O)c2ccc(C)cc2[N-]S(=O)(=O)c2ccc(C)cc2)c1 (optimized conformer: 82.11707679815416 kcal/mol)

>  <smiles>  (23) 
COc1ccccc1NS(=O)(=O)c1ccc(O)c(NC(=O)c2ccc(C)cc2NS(=O)(=O)c2ccc(C)cc2)c1

>  <score_type>  (23) 
oracle

>  <origin>  (23) 
adg

>  <m_score__min__energy>  (23) 
-14

>  <m_primary>  (23) 
energy

$$$$
23:0
     RDKit          3D

 80 84  0  0  0  0  0  0  0  0999 V2000
   56.2540   28.2550   44.2560 H   0  0  0  0  0  0  0  0  0  0  0  0
   57.0110   27.9250   44.8450 O   0  0  0  0  0  0  0  0  0  0  0  0
   57.0830   26.5960   45.2600 C   0  0  0  0  0  0  0  0  0  0  0  0
   58.2670   25.8660   45.1050 C   0  0  0  0  0  0  0  0  0  0  0  0
   59.1491   26.3431   44.6530 H   0  0  0  0  0  0  0  0  0  0  0  0
   58.3340   24.5330   45.5220 C   0  0  0  0  0  0  0  0  0  0  0  0
   59.2660   23.9643   45.3878 H   0  0  0  0  0  0  0  0  0  0  0  0
   57.2150   23.9140   46.1130 C   0  0  0  0  0  0  0  0  0  0  0  0
   57.2280   22.4980   46.5570 C   0  0  0  0  0  0  0  0  0  0  0  0
   58.0866   21.8728   46.2709 H   0  0  0  0  0  0  0  0  0  0  0  0
   56.2530   21.9370   47.2870 C   0  0  0  0  0  0  0  0  0  0  0  0
   55.3995   21.4768   46.7676 H   0  0  0  0  0  0  0  0  0  0  0  0
   56.2840   21.9150   48.7590 C   0  0  0  0  0  0  0  0  0  0  0  0
   55.2230   22.0550   49.4290 O   0  0  0  0  0  0  0  0  0  0  0  0
   57.5080   21.7250   49.4030 O   0  0  0  0  0  0  0  0  0  0  0  0
   57.6080   21.3390   50.7690 C   0  0  0  0  0  0  0  0  0  0  0  0
   56.6524   21.5351   51.2773 H   0  0  0  0  0  0  0  0  0  0  0  0
   57.8410   20.2659   50.8329 H   0  0  0  0  0  0  0  0  0  0  0  0
   58.6990   22.1310   51.4290 C   0  0  0  0  0  0  0  0  0  0  0  0
   59.7810   21.4800   52.0400 C   0  0  0  0  0  0  0  0  0  0  0  0
   59.8472   20.3824   52.0101 H   0  0  0  0  0  0  0  0  0  0  0  0
   60.7760   22.2200   52.6870 C   0  0  0  0  0  0  0  0  0  0  0  0
   61.6265   21.7029   53.1552 H   0  0  0  0  0  0  0  0  0  0  0  0
   60.6930   23.6220   52.7410 C   0  0  0  0  0  0  0  0  0  0  0  0
   61.7430   24.4260   53.4570 C   0  0  0  0  0  0  0  0  0  0  0  0
   61.3092   24.8556   54.3720 H   0  0  0  0  0  0  0  0  0  0  0  0
   62.5855   23.7663   53.7119 H   0  0  0  0  0  0  0  0  0  0  0  0
   62.2170   25.4800   52.6220 O   0  0  0  0  0  0  0  0  0  0  0  0
   62.0780   26.8370   52.9390 C   0  0  0  0  0  0  0  0  0  0  0  0
   62.3620   27.2410   54.1000 O   0  0  0  0  0  0  0  0  0  0  0  0
   61.5950   27.7880   51.9060 C   0  0  0  0  0  0  0  0  0  0  0  0
   60.8820   27.2960   50.7970 C   0  0  0  0  0  0  0  0  0  0  0  0
   60.6991   26.2153   50.7042 H   0  0  0  0  0  0  0  0  0  0  0  0
   60.4040   28.1640   49.8130 C   0  0  0  0  0  0  0  0  0  0  0  0
   59.8555   27.7607   48.9490 H   0  0  0  0  0  0  0  0  0  0  0  0
   60.6180   29.5460   49.9180 C   0  0  0  0  0  0  0  0  0  0  0  0
   60.0870   30.4940   48.8600 C   0  0  0  0  0  0  0  0  0  0  0  0
   59.0362   30.7198   49.0940 H   0  0  0  0  0  0  0  0  0  0  0  0
   60.7279   31.3877   48.8833 H   0  0  0  0  0  0  0  0  0  0  0  0
   60.1520   29.9550   47.4780 N   0  0  0  0  0  0  0  0  0  0  0  0
   61.0570   30.7180   46.5860 C   0  0  0  0  0  0  0  0  0  0  0  0
   61.8045   30.0317   46.1615 H   0  0  0  0  0  0  0  0  0  0  0  0
   60.4540   31.1769   45.7886 H   0  0  0  0  0  0  0  0  0  0  0  0
   61.7670   31.8140   47.3370 C   0  0  0  0  0  0  0  0  0  0  0  0
   63.0180   31.5760   47.9310 C   0  0  0  0  0  0  0  0  0  0  0  0
   63.4879   30.5856   47.8402 H   0  0  0  0  0  0  0  0  0  0  0  0
   63.6680   32.5930   48.6370 C   0  0  0  0  0  0  0  0  0  0  0  0
   64.6533   32.4048   49.0885 H   0  0  0  0  0  0  0  0  0  0  0  0
   63.0680   33.8480   48.7700 C   0  0  0  0  0  0  0  0  0  0  0  0
   63.5828   34.6480   49.3223 H   0  0  0  0  0  0  0  0  0  0  0  0
   61.8130   34.0870   48.2010 C   0  0  0  0  0  0  0  0  0  0  0  0
   61.3385   35.0732   48.3115 H   0  0  0  0  0  0  0  0  0  0  0  0
   61.1610   33.0740   47.4920 C   0  0  0  0  0  0  0  0  0  0  0  0
   60.1700   33.2629   47.0535 H   0  0  0  0  0  0  0  0  0  0  0  0
   58.8140   29.7750   46.8780 C   0  0  0  0  0  0  0  0  0  0  0  0
   58.8454   28.9370   46.1661 H   0  0  0  0  0  0  0  0  0  0  0  0
   58.0890   29.5634   47.6777 H   0  0  0  0  0  0  0  0  0  0  0  0
   58.3930   31.0260   46.1540 C   0  0  0  0  0  0  0  0  0  0  0  0
   58.1650   32.2200   46.8580 C   0  0  0  0  0  0  0  0  0  0  0  0
   58.2820   32.2423   47.9515 H   0  0  0  0  0  0  0  0  0  0  0  0
   57.7900   33.3800   46.1740 C   0  0  0  0  0  0  0  0  0  0  0  0
   57.6127   34.3122   46.7305 H   0  0  0  0  0  0  0  0  0  0  0  0
   57.6400   33.3580   44.7860 C   0  0  0  0  0  0  0  0  0  0  0  0
   57.3434   34.2716   44.2499 H   0  0  0  0  0  0  0  0  0  0  0  0
   57.8670   32.1740   44.0780 C   0  0  0  0  0  0  0  0  0  0  0  0
   57.7501   32.1573   42.9844 H   0  0  0  0  0  0  0  0  0  0  0  0
   58.2420   31.0120   44.7570 C   0  0  0  0  0  0  0  0  0  0  0  0
   58.4197   30.0827   44.1959 H   0  0  0  0  0  0  0  0  0  0  0  0
   61.3500   30.0400   51.0070 C   0  0  0  0  0  0  0  0  0  0  0  0
   61.5499   31.1190   51.0826 H   0  0  0  0  0  0  0  0  0  0  0  0
   61.8290   29.1780   51.9980 C   0  0  0  0  0  0  0  0  0  0  0  0
   62.5330   29.7200   53.0680 O   0  0  0  0  0  0  0  0  0  0  0  0
   59.5980   24.2700   52.1490 C   0  0  0  0  0  0  0  0  0  0  0  0
   59.5201   25.3662   52.1961 H   0  0  0  0  0  0  0  0  0  0  0  0
   58.6060   23.5300   51.5000 C   0  0  0  0  0  0  0  0  0  0  0  0
   57.7487   24.0458   51.0429 H   0  0  0  0  0  0  0  0  0  0  0  0
   56.0270   24.6520   46.2520 C   0  0  0  0  0  0  0  0  0  0  0  0
   55.1389   24.1765   46.6939 H   0  0  0  0  0  0  0  0  0  0  0  0
   55.9630   25.9850   45.8340 C   0  0  0  0  0  0  0  0  0  0  0  0
   54.7810   26.7010   45.9910 O   0  0  0  0  0  0  0  0  0  0  0  0
  1  2  1  0
  2  3  1  0
  3  4  2  0
  4  5  1  0
  4  6  1  0
  6  7  1  0
  6  8  2  0
  8  9  1  0
  9 10  1  0
  9 11  2  0
 11 12  1  0
 11 13  1  0
 13 14  2  0
 13 15  1  0
 15 16  1  0
 16 17  1  0
 16 18  1  0
 16 19  1  0
 19 20  2  0
 20 21  1  0
 20 22  1  0
 22 23  1  0
 22 24  2  0
 24 25  1  0
 25 26  1  0
 25 27  1  0
 25 28  1  0
 28 29  1  0
 29 30  2  0
 29 31  1  0
 31 32  2  0
 32 33  1  0
 32 34  1  0
 34 35  1  0
 34 36  2  0
 36 37  1  0
 37 38  1  0
 37 39  1  0
 37 40  1  0
 40 41  1  0
 41 42  1  0
 41 43  1  0
 41 44  1  0
 44 45  2  0
 45 46  1  0
 45 47  1  0
 47 48  1  0
 47 49  2  0
 49 50  1  0
 49 51  1  0
 51 52  1  0
 51 53  2  0
 53 54  1  0
 40 55  1  0
 55 56  1  0
 55 57  1  0
 55 58  1  0
 58 59  2  0
 59 60  1  0
 59 61  1  0
 61 62  1  0
 61 63  2  0
 63 64  1  0
 63 65  1  0
 65 66  1  0
 65 67  2  0
 67 68  1  0
 36 69  1  0
 69 70  1  0
 69 71  2  0
 71 72  1  0
 24 73  1  0
 73 74  1  0
 73 75  2  0
 75 76  1  0
  8 77  1  0
 77 78  1  0
 77 79  2  0
 79 80  1  0
 79  3  1  0
 75 19  1  0
 71 31  1  0
 53 44  1  0
 67 58  1  0
M  CHG  2  72  -1  80  -1
M  END
>  <UniqueID>  (24) 
23

>  <SMILES>  (24) 
O=C(/C=C/c1ccc(O)c([O-])c1)OCc1ccc(COC(=O)c2ccc(CN(Cc3ccccc3)Cc3ccccc3)cc2[O-])cc1

>  <Energy>  (24) 
88.71512580607491

>  <Genealogy>  (24) 
O=C(C=Cc1ccc(O)c([O-])c1)OCc1ccc(COC(=O)c2ccc(CN(Cc3ccccc3)Cc3ccccc3)cc2[O-])cc1 (protonated)
O=C(/C=C/c1ccc(O)c([O-])c1)OCc1ccc(COC(=O)c2ccc(CN(Cc3ccccc3)Cc3ccccc3)cc2[O-])cc1 (cis-trans isomerization)
O=C(/C=C/c1ccc(O)c([O-])c1)OCc1ccc(COC(=O)c2ccc(CN(Cc3ccccc3)Cc3ccccc3)cc2[O-])cc1 (3D coordinates assigned)
O=C(/C=C/c1ccc(O)c([O-])c1)OCc1ccc(COC(=O)c2ccc(CN(Cc3ccccc3)Cc3ccccc3)cc2[O-])cc1 (optimized conformer: 88.71512580607491 kcal/mol)

>  <smiles>  (24) 
O=C(C=Cc1ccc(O)c(O)c1)OCc1ccc(COC(=O)c2ccc(CN(Cc3ccccc3)Cc3ccccc3)cc2O)cc1

>  <score_type>  (24) 
oracle

>  <origin>  (24) 
adg

>  <m_score__min__energy>  (24) 
-14.550000000000001

>  <m_primary>  (24) 
energy

$$$$
24:0
     RDKit          3D

 39 41  0  0  0  0  0  0  0  0999 V2000
   57.3790   32.6230   52.7220 C   0  0  0  0  0  0  0  0  0  0  0  0
   57.9580   31.9490   51.5530 N   0  0  0  0  0  0  0  0  0  0  0  0
   58.8960   32.5910   50.7970 C   0  0  0  0  0  0  0  0  0  0  0  0
   59.5000   31.9500   49.7080 C   0  0  0  0  0  0  0  0  0  0  0  0
   60.5520   32.6400   48.9200 C   0  0  0  0  0  0  0  0  0  0  0  0
   61.8880   32.5640   49.3530 C   0  0  0  0  0  0  0  0  0  0  0  0
   62.9130   33.1370   48.5950 C   0  0  0  0  0  0  0  0  0  0  0  0
   64.5770   33.0270   49.1440 Cl  0  0  0  0  0  0  0  0  0  0  0  0
   62.6170   33.7810   47.3920 C   0  0  0  0  0  0  0  0  0  0  0  0
   61.2960   33.8670   46.9510 C   0  0  0  0  0  0  0  0  0  0  0  0
   60.2530   33.3250   47.7140 C   0  0  0  0  0  0  0  0  0  0  0  0
   58.9430   33.4660   47.2310 O   0  0  0  0  0  0  0  0  0  0  0  0
   58.4470   32.8640   46.0650 C   0  0  0  0  0  0  0  0  0  0  0  0
   58.4740   33.5910   44.8700 C   0  0  0  0  0  0  0  0  0  0  0  0
   58.0230   33.0120   43.6810 C   0  0  0  0  0  0  0  0  0  0  0  0
   57.5300   31.7050   43.6810 C   0  0  0  0  0  0  0  0  0  0  0  0
   57.4710   30.9750   44.8750 C   0  0  0  0  0  0  0  0  0  0  0  0
   56.8640   29.3230   44.8570 S   0  0  0  0  0  0  0  0  0  0  0  0
   55.1420   29.3450   44.7250 N   0  0  0  0  0  0  0  0  0  0  0  0
   57.4400   28.5670   43.6920 O   0  0  0  0  0  0  0  0  0  0  0  0
   57.2630   28.6310   46.1300 O   0  0  0  0  0  0  0  0  0  0  0  0
   57.9200   31.5600   46.0680 C   0  0  0  0  0  0  0  0  0  0  0  0
   59.0970   30.6380   49.4130 C   0  0  0  0  0  0  0  0  0  0  0  0
   59.6110   30.0040   48.4530 O   0  0  0  0  0  0  0  0  0  0  0  0
   58.1640   30.0310   50.1870 N   0  0  0  0  0  0  0  0  0  0  0  0
   57.6000   30.6620   51.2470 C   0  0  0  0  0  0  0  0  0  0  0  0
   56.7490   30.0480   51.9450 O   0  0  0  0  0  0  0  0  0  0  0  0
   57.7724   32.1650   53.6415 H   0  0  0  0  0  0  0  0  0  0  0  0
   57.6467   33.6897   52.7001 H   0  0  0  0  0  0  0  0  0  0  0  0
   56.2841   32.5192   52.7001 H   0  0  0  0  0  0  0  0  0  0  0  0
   59.1808   33.6239   51.0460 H   0  0  0  0  0  0  0  0  0  0  0  0
   62.1280   32.0497   50.2953 H   0  0  0  0  0  0  0  0  0  0  0  0
   63.4264   34.2212   46.7911 H   0  0  0  0  0  0  0  0  0  0  0  0
   61.0713   34.3646   45.9961 H   0  0  0  0  0  0  0  0  0  0  0  0
   58.8523   34.6239   44.8664 H   0  0  0  0  0  0  0  0  0  0  0  0
   58.0562   33.5863   42.7434 H   0  0  0  0  0  0  0  0  0  0  0  0
   57.1873   31.2479   42.7410 H   0  0  0  0  0  0  0  0  0  0  0  0
   54.7620   29.3620   45.6980 H   0  0  0  0  0  0  0  0  0  0  0  0
   57.8597   30.9962   47.0106 H   0  0  0  0  0  0  0  0  0  0  0  0
  1  2  1  0
  2  3  1  0
  3  4  2  0
  4  5  1  0
  5  6  2  0
  6  7  1  0
  7  8  1  0
  7  9  2  0
  9 10  1  0
 10 11  2  0
 11 12  1  0
 12 13  1  0
 13 14  2  0
 14 15  1  0
 15 16  2  0
 16 17  1  0
 17 18  1  0
 18 19  1  0
 18 20  2  0
 18 21  2  0
 17 22  2  0
  4 23  1  0
 23 24  2  0
 23 25  1  0
 25 26  1  0
 26 27  2  0
 26  2  1  0
 11  5  1  0
 22 13  1  0
  1 28  1  0
  1 29  1  0
  1 30  1  0
  3 31  1  0
  6 32  1  0
  9 33  1  0
 10 34  1  0
 14 35  1  0
 15 36  1  0
 16 37  1  0
 19 38  1  0
 22 39  1  0
M  CHG  2  19  -1  25  -1
M  END
>  <UniqueID>  (25) 
24

>  <SMILES>  (25) 
Cn1cc(-c2cc(Cl)ccc2Oc2cccc(S([NH-])(=O)=O)c2)c(=O)[n-]c1=O

>  <Energy>  (25) 
55.67047008676679

>  <Genealogy>  (25) 
Cn1cc(-c2cc(Cl)ccc2Oc2cccc(S([NH-])(=O)=O)c2)c(=O)[n-]c1=O (protonated)
Cn1cc(-c2cc(Cl)ccc2Oc2cccc(S([NH-])(=O)=O)c2)c(=O)[n-]c1=O (3D coordinates assigned)
Cn1cc(-c2cc(Cl)ccc2Oc2cccc(S([NH-])(=O)=O)c2)c(=O)[n-]c1=O (optimized conformer: 55.67047008676679 kcal/mol)

>  <smiles>  (25) 
Cn1cc(-c2cc(Cl)ccc2Oc2cccc(S(N)(=O)=O)c2)c(=O)[nH]c1=O

>  <score_type>  (25) 
oracle

>  <origin>  (25) 
adg

>  <m_score__min__energy>  (25) 
-12.99

>  <m_primary>  (25) 
energy

$$$$
25:0
     RDKit          3D

 45 47  0  0  0  0  0  0  0  0999 V2000
   55.1900   26.3890   45.9800 N   0  0  0  0  0  0  0  0  0  0  0  0
   56.8750   26.7690   45.8870 S   0  0  0  0  0  0  0  0  0  0  0  0
   57.5790   25.7220   45.0720 O   0  0  0  0  0  0  0  0  0  0  0  0
   57.4430   26.7830   47.2780 O   0  0  0  0  0  0  0  0  0  0  0  0
   57.0950   28.3450   45.1340 C   0  0  0  0  0  0  0  0  0  0  0  0
   55.9870   29.1540   44.8510 C   0  0  0  0  0  0  0  0  0  0  0  0
   56.1640   30.4100   44.2620 C   0  0  0  0  0  0  0  0  0  0  0  0
   57.4520   30.8660   43.9440 C   0  0  0  0  0  0  0  0  0  0  0  0
   57.6460   32.2300   43.3480 C   0  0  0  0  0  0  0  0  0  0  0  0
   58.5930   32.9810   44.1590 N   0  0  0  0  0  0  0  0  0  0  0  0
   58.2490   33.5660   45.4190 C   0  0  0  0  0  0  0  0  0  0  0  0
   57.0570   33.9180   45.6390 O   0  0  0  0  0  0  0  0  0  0  0  0
   59.2850   33.7570   46.4630 C   0  0  0  0  0  0  0  0  0  0  0  0
   58.9300   34.2170   47.7390 C   0  0  0  0  0  0  0  0  0  0  0  0
   59.9010   34.3960   48.7220 C   0  0  0  0  0  0  0  0  0  0  0  0
   61.2520   34.1100   48.4590 C   0  0  0  0  0  0  0  0  0  0  0  0
   62.2280   34.3240   49.4430 O   0  0  0  0  0  0  0  0  0  0  0  0
   63.1160   33.3550   49.9360 C   0  0  0  0  0  0  0  0  0  0  0  0
   62.6680   32.2330   50.6580 C   0  0  0  0  0  0  0  0  0  0  0  0
   63.5830   31.2820   51.1180 C   0  0  0  0  0  0  0  0  0  0  0  0
   64.9470   31.4350   50.8530 C   0  0  0  0  0  0  0  0  0  0  0  0
   66.0950   30.2390   51.4300 Cl  0  0  0  0  0  0  0  0  0  0  0  0
   65.3950   32.5370   50.1180 C   0  0  0  0  0  0  0  0  0  0  0  0
   64.4810   33.4900   49.6570 C   0  0  0  0  0  0  0  0  0  0  0  0
   61.6300   33.6600   47.1720 C   0  0  0  0  0  0  0  0  0  0  0  0
   63.0070   33.3680   46.8460 N   0  0  0  0  0  0  0  0  0  0  0  0
   63.7540   34.2400   46.3560 O   0  0  0  0  0  0  0  0  0  0  0  0
   63.5340   32.1250   47.1090 O   0  0  0  0  0  0  0  0  0  0  0  0
   60.6370   33.4870   46.1890 C   0  0  0  0  0  0  0  0  0  0  0  0
   58.5630   30.0640   44.2490 C   0  0  0  0  0  0  0  0  0  0  0  0
   58.3840   28.8090   44.8380 C   0  0  0  0  0  0  0  0  0  0  0  0
   54.7620   27.0650   46.6530 H   0  0  0  0  0  0  0  0  0  0  0  0
   54.9740   28.8001   45.0929 H   0  0  0  0  0  0  0  0  0  0  0  0
   55.2901   31.0426   44.0473 H   0  0  0  0  0  0  0  0  0  0  0  0
   58.0366   32.1312   42.3245 H   0  0  0  0  0  0  0  0  0  0  0  0
   56.6826   32.7603   43.3219 H   0  0  0  0  0  0  0  0  0  0  0  0
   57.8766   34.4383   47.9658 H   0  0  0  0  0  0  0  0  0  0  0  0
   59.6070   34.7654   49.7155 H   0  0  0  0  0  0  0  0  0  0  0  0
   61.5946   32.1042   50.8608 H   0  0  0  0  0  0  0  0  0  0  0  0
   63.2292   30.4114   51.6897 H   0  0  0  0  0  0  0  0  0  0  0  0
   66.4672   32.6545   49.9022 H   0  0  0  0  0  0  0  0  0  0  0  0
   64.8369   34.3507   49.0717 H   0  0  0  0  0  0  0  0  0  0  0  0
   60.9246   33.1339   45.1877 H   0  0  0  0  0  0  0  0  0  0  0  0
   59.5776   30.4243   44.0238 H   0  0  0  0  0  0  0  0  0  0  0  0
   59.2583   28.1831   45.0701 H   0  0  0  0  0  0  0  0  0  0  0  0
  1  2  1  0
  2  3  2  0
  2  4  2  0
  2  5  1  0
  5  6  2  0
  6  7  1  0
  7  8  2  0
  8  9  1  0
  9 10  1  0
 10 11  1  0
 11 12  2  0
 11 13  1  0
 13 14  2  0
 14 15  1  0
 15 16  2  0
 16 17  1  0
 17 18  1  0
 18 19  2  0
 19 20  1  0
 20 21  2  0
 21 22  1  0
 21 23  1  0
 23 24  2  0
 16 25  1  0
 25 26  1  0
 26 27  2  0
 26 28  1  0
 25 29  2  0
  8 30  1  0
 30 31  2  0
 31  5  1  0
 29 13  1  0
 24 18  1  0
  1 32  1  0
  6 33  1  0
  7 34  1  0
  9 35  1  0
  9 36  1  0
 14 37  1  0
 15 38  1  0
 19 39  1  0
 20 40  1  0
 23 41  1  0
 24 42  1  0
 29 43  1  0
 30 44  1  0
 31 45  1  0
M  CHG  4   1  -1  10  -1  26   1  28  -1
M  END
>  <UniqueID>  (26) 
25

>  <SMILES>  (26) 
[NH-]S(=O)(=O)c1ccc(C[N-]C(=O)c2ccc(Oc3ccc(Cl)cc3)c([N+](=O)[O-])c2)cc1

>  <Energy>  (26) 
54.98616773857892

>  <Genealogy>  (26) 
[NH-]S(=O)(=O)c1ccc(C[N-]C(=O)c2ccc(Oc3ccc(Cl)cc3)c([N+](=O)[O-])c2)cc1 (protonated)
[NH-]S(=O)(=O)c1ccc(C[N-]C(=O)c2ccc(Oc3ccc(Cl)cc3)c([N+](=O)[O-])c2)cc1 (3D coordinates assigned)
[NH-]S(=O)(=O)c1ccc(C[N-]C(=O)c2ccc(Oc3ccc(Cl)cc3)c([N+](=O)[O-])c2)cc1 (optimized conformer: 54.98616773857892 kcal/mol)

>  <smiles>  (26) 
NS(=O)(=O)c1ccc(CNC(=O)c2ccc(Oc3ccc(Cl)cc3)c([N+](=O)[O-])c2)cc1

>  <score_type>  (26) 
oracle

>  <origin>  (26) 
adg

>  <m_score__min__energy>  (26) 
-12.99

>  <m_primary>  (26) 
energy

$$$$
26:0
     RDKit          3D

 18 18  0  0  0  0  0  0  0  0999 V2000
   57.4520   28.3670   43.6050 N   0  0  0  0  0  0  0  0  0  0  0  0
   56.5340   29.7170   44.1750 S   0  0  0  0  0  0  0  0  0  0  0  0
   55.1400   29.2580   44.4950 O   0  0  0  0  0  0  0  0  0  0  0  0
   56.4600   30.7820   43.1170 O   0  0  0  0  0  0  0  0  0  0  0  0
   57.2530   30.3570   45.6170 N   0  0  0  0  0  0  0  0  0  0  0  0
   57.9170   31.6240   45.7350 C   0  0  0  0  0  0  0  0  0  0  0  0
   57.2780   32.7630   45.2290 C   0  0  0  0  0  0  0  0  0  0  0  0
   57.8850   34.0190   45.3210 C   0  0  0  0  0  0  0  0  0  0  0  0
   59.1410   34.1460   45.9200 C   0  0  0  0  0  0  0  0  0  0  0  0
   59.9040   35.7210   46.0360 Cl  0  0  0  0  0  0  0  0  0  0  0  0
   59.7900   33.0150   46.4270 C   0  0  0  0  0  0  0  0  0  0  0  0
   59.1840   31.7580   46.3350 C   0  0  0  0  0  0  0  0  0  0  0  0
   58.1490   28.7260   42.9160 H   0  0  0  0  0  0  0  0  0  0  0  0
   56.7940   27.7520   43.0750 H   0  0  0  0  0  0  0  0  0  0  0  0
   56.2899   32.6685   44.7550 H   0  0  0  0  0  0  0  0  0  0  0  0
   57.3738   34.9074   44.9218 H   0  0  0  0  0  0  0  0  0  0  0  0
   60.7787   33.1147   46.8988 H   0  0  0  0  0  0  0  0  0  0  0  0
   59.6987   30.8709   46.7327 H   0  0  0  0  0  0  0  0  0  0  0  0
  1  2  1  0
  2  3  2  0
  2  4  2  0
  2  5  1  0
  5  6  1  0
  6  7  2  0
  7  8  1  0
  8  9  2  0
  9 10  1  0
  9 11  1  0
 11 12  2  0
 12  6  1  0
  1 13  1  0
  1 14  1  0
  7 15  1  0
  8 16  1  0
 11 17  1  0
 12 18  1  0
M  CHG  1   5  -1
M  END
>  <UniqueID>  (27) 
26

>  <SMILES>  (27) 
NS(=O)(=O)[N-]c1ccc(Cl)cc1

>  <Energy>  (27) 
16.7672081907975

>  <Genealogy>  (27) 
NS(=O)(=O)[N-]c1ccc(Cl)cc1 (protonated)
NS(=O)(=O)[N-]c1ccc(Cl)cc1 (3D coordinates assigned)
NS(=O)(=O)[N-]c1ccc(Cl)cc1 (optimized conformer: 16.7672081907975 kcal/mol)

>  <smiles>  (27) 
NS(=O)(=O)Nc1ccc(Cl)cc1

>  <score_type>  (27) 
oracle

>  <origin>  (27) 
adg

>  <m_score__min__energy>  (27) 
-7.5899999999999999

>  <m_primary>  (27) 
energy

$$$$
27:0
     RDKit          3D

 60 62  0  0  0  0  0  0  0  0999 V2000
   52.1150   23.4970   44.8810 C   0  0  0  0  0  0  0  0  0  0  0  0
   53.4220   22.9880   44.6300 O   0  0  0  0  0  0  0  0  0  0  0  0
   54.6020   23.7410   44.7400 C   0  0  0  0  0  0  0  0  0  0  0  0
   54.7030   24.8520   45.6010 C   0  0  0  0  0  0  0  0  0  0  0  0
   55.8950   25.5750   45.6860 C   0  0  0  0  0  0  0  0  0  0  0  0
   57.0080   25.1960   44.9240 C   0  0  0  0  0  0  0  0  0  0  0  0
   58.2830   25.9930   44.9960 C   0  0  0  0  0  0  0  0  0  0  0  0
   58.4110   26.9190   43.7830 C   0  0  0  0  0  0  0  0  0  0  0  0
   58.4660   28.3160   44.2120 N   0  0  0  0  0  0  0  0  0  0  0  0
   58.8310   28.6970   45.5470 C   0  0  0  0  0  0  0  0  0  0  0  0
   59.2910   27.8360   46.3460 O   0  0  0  0  0  0  0  0  0  0  0  0
   58.7130   30.1250   46.0040 C   0  0  2  0  0  0  0  0  0  0  0  0
   58.8980   31.0320   44.8640 N   0  0  0  0  0  0  0  0  0  0  0  0
   57.3760   31.5780   44.2170 S   0  0  0  0  0  0  0  0  0  0  0  0
   57.4160   31.6440   42.7140 O   0  0  0  0  0  0  0  0  0  0  0  0
   56.3000   30.6170   44.6320 O   0  0  0  0  0  0  0  0  0  0  0  0
   56.9910   33.1910   44.8800 C   0  0  0  0  0  0  0  0  0  0  0  0
   58.0660   33.6410   45.8290 C   0  0  0  0  0  0  0  0  0  0  0  0
   58.0200   33.2630   47.1810 C   0  0  0  0  0  0  0  0  0  0  0  0
   58.9860   33.7320   48.0770 C   0  0  0  0  0  0  0  0  0  0  0  0
   60.0020   34.5830   47.6300 C   0  0  0  0  0  0  0  0  0  0  0  0
   60.0520   34.9670   46.2880 C   0  0  0  0  0  0  0  0  0  0  0  0
   59.0840   34.5040   45.3890 C   0  0  0  0  0  0  0  0  0  0  0  0
   59.7360   30.4060   47.0820 C   0  0  0  0  0  0  0  0  0  0  0  0
   59.4510   30.1520   48.4360 C   0  0  0  0  0  0  0  0  0  0  0  0
   60.4070   30.4180   49.4200 C   0  0  0  0  0  0  0  0  0  0  0  0
   61.6490   30.9510   49.0660 C   0  0  0  0  0  0  0  0  0  0  0  0
   61.9350   31.2270   47.7280 C   0  0  0  0  0  0  0  0  0  0  0  0
   60.9810   30.9630   46.7400 C   0  0  0  0  0  0  0  0  0  0  0  0
   56.9080   24.0990   44.0550 C   0  0  0  0  0  0  0  0  0  0  0  0
   55.7080   23.3660   43.9610 C   0  0  0  0  0  0  0  0  0  0  0  0
   55.5750   22.2610   43.1030 O   0  0  0  0  0  0  0  0  0  0  0  0
   56.6530   21.4330   42.6770 C   0  0  0  0  0  0  0  0  0  0  0  0
   51.9489   23.5617   45.9665 H   0  0  0  0  0  0  0  0  0  0  0  0
   52.0195   24.4980   44.4352 H   0  0  0  0  0  0  0  0  0  0  0  0
   51.3676   22.8242   44.4352 H   0  0  0  0  0  0  0  0  0  0  0  0
   53.8375   25.1518   46.2101 H   0  0  0  0  0  0  0  0  0  0  0  0
   55.9603   26.4462   46.3544 H   0  0  0  0  0  0  0  0  0  0  0  0
   58.2789   26.5989   45.9141 H   0  0  0  0  0  0  0  0  0  0  0  0
   59.1352   25.2976   45.0019 H   0  0  0  0  0  0  0  0  0  0  0  0
   59.3315   26.6719   43.2339 H   0  0  0  0  0  0  0  0  0  0  0  0
   57.5344   26.7794   43.1333 H   0  0  0  0  0  0  0  0  0  0  0  0
   58.2370   29.0530   43.5100 H   0  0  0  0  0  0  0  0  0  0  0  0
   57.7095   30.2914   46.4226 H   0  0  0  0  0  0  0  0  0  0  0  0
   56.9126   33.9127   44.0535 H   0  0  0  0  0  0  0  0  0  0  0  0
   56.0372   33.1330   45.4249 H   0  0  0  0  0  0  0  0  0  0  0  0
   57.2211   32.5955   47.5364 H   0  0  0  0  0  0  0  0  0  0  0  0
   58.9467   33.4313   49.1344 H   0  0  0  0  0  0  0  0  0  0  0  0
   60.7619   34.9500   48.3356 H   0  0  0  0  0  0  0  0  0  0  0  0
   60.8531   35.6341   45.9371 H   0  0  0  0  0  0  0  0  0  0  0  0
   59.1203   34.8167   44.3350 H   0  0  0  0  0  0  0  0  0  0  0  0
   58.4710   29.7421   48.7215 H   0  0  0  0  0  0  0  0  0  0  0  0
   60.1811   30.2072   50.4757 H   0  0  0  0  0  0  0  0  0  0  0  0
   62.4018   31.1532   49.8421 H   0  0  0  0  0  0  0  0  0  0  0  0
   62.9108   31.6522   47.4506 H   0  0  0  0  0  0  0  0  0  0  0  0
   61.2062   31.1927   45.6881 H   0  0  0  0  0  0  0  0  0  0  0  0
   57.7738   23.8086   43.4417 H   0  0  0  0  0  0  0  0  0  0  0  0
   57.1764   21.0309   43.5570 H   0  0  0  0  0  0  0  0  0  0  0  0
   56.2604   20.6020   42.0725 H   0  0  0  0  0  0  0  0  0  0  0  0
   57.3546   22.0266   42.0725 H   0  0  0  0  0  0  0  0  0  0  0  0
  1  2  1  0
  2  3  1  0
  3  4  2  0
  4  5  1  0
  5  6  2  0
  6  7  1  0
  7  8  1  0
  8  9  1  0
  9 10  1  0
 10 11  2  0
 10 12  1  0
 12 13  1  0
 13 14  1  0
 14 15  2  0
 14 16  2  0
 14 17  1  0
 17 18  1  0
 18 19  2  0
 19 20  1  0
 20 21  2  0
 21 22  1  0
 22 23  2  0
 12 24  1  0
 24 25  2  0
 25 26  1  0
 26 27  2  0
 27 28  1  0
 28 29  2  0
  6 30  1  0
 30 31  2  0
 31 32  1  0
 32 33  1  0
 31  3  1  0
 23 18  1  0
 29 24  1  0
  1 34  1  0
  1 35  1  0
  1 36  1  0
  4 37  1  0
  5 38  1  0
  7 39  1  0
  7 40  1  0
  8 41  1  0
  8 42  1  0
  9 43  1  0
 12 44  1  1
 17 45  1  0
 17 46  1  0
 19 47  1  0
 20 48  1  0
 21 49  1  0
 22 50  1  0
 23 51  1  0
 25 52  1  0
 26 53  1  0
 27 54  1  0
 28 55  1  0
 29 56  1  0
 30 57  1  0
 33 58  1  0
 33 59  1  0
 33 60  1  0
M  CHG  1  13  -1
M  END
>  <UniqueID>  (28) 
27

>  <SMILES>  (28) 
COc1ccc(CCNC(=O)[C@H]([N-]S(=O)(=O)Cc2ccccc2)c2ccccc2)cc1OC

>  <Energy>  (28) 
47.511884705519265

>  <Genealogy>  (28) 
COc1ccc(CCNC(=O)C([N-]S(=O)(=O)Cc2ccccc2)c2ccccc2)cc1OC (protonated)
COc1ccc(CCNC(=O)[C@H]([N-]S(=O)(=O)Cc2ccccc2)c2ccccc2)cc1OC (chirality)
COc1ccc(CCNC(=O)[C@H]([N-]S(=O)(=O)Cc2ccccc2)c2ccccc2)cc1OC (3D coordinates assigned)
COc1ccc(CCNC(=O)[C@H]([N-]S(=O)(=O)Cc2ccccc2)c2ccccc2)cc1OC (optimized conformer: 47.511884705519265 kcal/mol)

>  <smiles>  (28) 
COc1ccc(CCNC(=O)C(NS(=O)(=O)Cc2ccccc2)c2ccccc2)cc1OC

>  <score_type>  (28) 
oracle

>  <origin>  (28) 
adg

>  <m_score__min__energy>  (28) 
-10.67

>  <m_primary>  (28) 
energy

$$$$
28:0
     RDKit          3D

 59 63  0  0  0  0  0  0  0  0999 V2000
   51.4360   23.4720   45.0910 C   0  0  0  0  0  0  0  0  0  0  0  0
   52.6510   22.7770   45.3610 O   0  0  0  0  0  0  0  0  0  0  0  0
   53.8220   23.3610   45.8720 C   0  0  0  0  0  0  0  0  0  0  0  0
   54.1880   24.6630   45.4970 C   0  0  0  0  0  0  0  0  0  0  0  0
   55.3430   25.2560   45.9920 C   0  0  0  0  0  0  0  0  0  0  0  0
   55.6430   26.4920   45.6060 O   0  0  0  0  0  0  0  0  0  0  0  0
   56.7200   27.1510   46.0230 C   0  0  0  0  0  0  0  0  0  0  0  0
   56.9440   28.5350   45.5300 C   0  0  0  0  0  0  0  0  0  0  0  0
   58.0000   29.3360   46.0090 C   0  0  0  0  0  0  0  0  0  0  0  0
   58.1640   30.6460   45.5500 C   0  0  0  0  0  0  0  0  0  0  0  0
   57.2830   31.1830   44.6040 C   0  0  0  0  0  0  0  0  0  0  0  0
   57.4600   32.5460   44.1890 N   0  0  0  0  0  0  0  0  0  0  0  0
   57.6100   33.6800   45.0540 C   0  0  0  0  0  0  0  0  0  0  0  0
   56.7360   34.5840   45.0210 O   0  0  0  0  0  0  0  0  0  0  0  0
   58.7250   33.7780   46.0250 C   0  0  0  0  0  0  0  0  0  0  0  0
   60.0120   34.0810   45.5600 C   0  0  0  0  0  0  0  0  0  0  0  0
   61.0810   34.1830   46.4440 C   0  0  0  0  0  0  0  0  0  0  0  0
   60.8880   33.9810   47.8130 C   0  0  0  0  0  0  0  0  0  0  0  0
   61.9780   34.0940   48.6920 C   0  0  0  0  0  0  0  0  0  0  0  0
   61.8010   33.8980   50.0610 C   0  0  0  0  0  0  0  0  0  0  0  0
   60.5410   33.5810   50.5640 C   0  0  0  0  0  0  0  0  0  0  0  0
   59.4450   33.4630   49.7040 C   0  0  0  0  0  0  0  0  0  0  0  0
   59.5950   33.6660   48.3140 C   0  0  0  0  0  0  0  0  0  0  0  0
   58.5060   33.5730   47.4050 C   0  0  0  0  0  0  0  0  0  0  0  0
   57.1970   33.3090   47.8280 O   0  0  0  0  0  0  0  0  0  0  0  0
   56.2080   30.4010   44.1460 C   0  0  0  0  0  0  0  0  0  0  0  0
   56.0460   29.0900   44.6000 C   0  0  0  0  0  0  0  0  0  0  0  0
   57.6100   26.5180   46.9050 C   0  0  0  0  0  0  0  0  0  0  0  0
   57.3370   25.2230   47.3430 C   0  0  0  0  0  0  0  0  0  0  0  0
   58.1460   24.6730   48.1390 O   0  0  0  0  0  0  0  0  0  0  0  0
   56.1740   24.5570   46.8900 C   0  0  0  0  0  0  0  0  0  0  0  0
   55.8220   23.2450   47.2990 C   0  0  0  0  0  0  0  0  0  0  0  0
   56.6710   22.5950   48.2200 O   0  0  0  0  0  0  0  0  0  0  0  0
   56.2990   21.9430   49.4290 C   0  0  0  0  0  0  0  0  0  0  0  0
   54.6450   22.6350   46.7740 C   0  0  0  0  0  0  0  0  0  0  0  0
   54.3470   21.3150   47.1640 O   0  0  0  0  0  0  0  0  0  0  0  0
   53.1960   20.8590   47.8680 C   0  0  0  0  0  0  0  0  0  0  0  0
   50.9530   23.7483   46.0399 H   0  0  0  0  0  0  0  0  0  0  0  0
   51.6547   24.3816   44.5124 H   0  0  0  0  0  0  0  0  0  0  0  0
   50.7628   22.8224   44.5124 H   0  0  0  0  0  0  0  0  0  0  0  0
   53.5492   25.2239   44.7989 H   0  0  0  0  0  0  0  0  0  0  0  0
   58.7015   28.9266   46.7508 H   0  0  0  0  0  0  0  0  0  0  0  0
   58.9917   31.2597   45.9351 H   0  0  0  0  0  0  0  0  0  0  0  0
   60.1785   34.2399   44.4843 H   0  0  0  0  0  0  0  0  0  0  0  0
   62.0844   34.4241   46.0631 H   0  0  0  0  0  0  0  0  0  0  0  0
   62.9757   34.3382   48.2984 H   0  0  0  0  0  0  0  0  0  0  0  0
   62.6573   33.9938   50.7448 H   0  0  0  0  0  0  0  0  0  0  0  0
   60.4077   33.4226   51.6443 H   0  0  0  0  0  0  0  0  0  0  0  0
   58.4561   33.2096   50.1137 H   0  0  0  0  0  0  0  0  0  0  0  0
   56.3710   33.7670   47.4720 H   0  0  0  0  0  0  0  0  0  0  0  0
   55.4911   30.8237   43.4267 H   0  0  0  0  0  0  0  0  0  0  0  0
   55.2070   28.4848   44.2262 H   0  0  0  0  0  0  0  0  0  0  0  0
   58.5157   27.0397   47.2478 H   0  0  0  0  0  0  0  0  0  0  0  0
   56.6398   22.5403   50.2876 H   0  0  0  0  0  0  0  0  0  0  0  0
   55.2047   21.8375   49.4670 H   0  0  0  0  0  0  0  0  0  0  0  0
   56.7649   20.9473   49.4670 H   0  0  0  0  0  0  0  0  0  0  0  0
   53.3763   20.9304   48.9508 H   0  0  0  0  0  0  0  0  0  0  0  0
   52.3306   21.4822   47.5985 H   0  0  0  0  0  0  0  0  0  0  0  0
   52.9922   19.8122   47.5985 H   0  0  0  0  0  0  0  0  0  0  0  0
  1  2  1  0
  2  3  1  0
  3  4  2  0
  4  5  1  0
  5  6  1  0
  6  7  1  0
  7  8  1  0
  8  9  2  0
  9 10  1  0
 10 11  2  0
 11 12  1  0
 12 13  1  0
 13 14  2  0
 13 15  1  0
 15 16  2  0
 16 17  1  0
 17 18  2  0
 18 19  1  0
 19 20  2  0
 20 21  1  0
 21 22  2  0
 22 23  1  0
 23 24  2  0
 24 25  1  0
 11 26  1  0
 26 27  2  0
  7 28  2  0
 28 29  1  0
 29 30  2  0
 29 31  1  0
 31 32  1  0
 32 33  1  0
 33 34  1  0
 32 35  2  0
 35 36  1  0
 36 37  1  0
 35  3  1  0
 31  5  2  0
 27  8  1  0
 24 15  1  0
 23 18  1  0
  1 38  1  0
  1 39  1  0
  1 40  1  0
  4 41  1  0
  9 42  1  0
 10 43  1  0
 16 44  1  0
 17 45  1  0
 19 46  1  0
 20 47  1  0
 21 48  1  0
 22 49  1  0
 25 50  1  0
 26 51  1  0
 27 52  1  0
 28 53  1  0
 34 54  1  0
 34 55  1  0
 34 56  1  0
 37 57  1  0
 37 58  1  0
 37 59  1  0
M  CHG  1  12  -1
M  END
>  <UniqueID>  (29) 
28

>  <SMILES>  (29) 
COc1cc2oc(-c3ccc([N-]C(=O)c4ccc5ccccc5c4O)cc3)cc(=O)c2c(OC)c1OC

>  <Energy>  (29) 
96.89288436241641

>  <Genealogy>  (29) 
COc1cc2oc(-c3ccc([N-]C(=O)c4ccc5ccccc5c4O)cc3)cc(=O)c2c(OC)c1OC (protonated)
COc1cc2oc(-c3ccc([N-]C(=O)c4ccc5ccccc5c4O)cc3)cc(=O)c2c(OC)c1OC (3D coordinates assigned)
COc1cc2oc(-c3ccc([N-]C(=O)c4ccc5ccccc5c4O)cc3)cc(=O)c2c(OC)c1OC (optimized conformer: 96.89288436241641 kcal/mol)

>  <smiles>  (29) 
COc1cc2oc(-c3ccc(NC(=O)c4ccc5ccccc5c4O)cc3)cc(=O)c2c(OC)c1OC

>  <score_type>  (29) 
oracle

>  <origin>  (29) 
adg

>  <m_score__min__energy>  (29) 
-9.7899999999999991

>  <m_primary>  (29) 
energy

$$$$
29:0
     RDKit          3D

 46 48  0  0  0  0  0  0  0  0999 V2000
   63.1510   31.5540   51.1830 C   0  0  0  0  0  0  0  0  0  0  0  0
   63.1260   32.0970   49.7820 C   0  0  0  0  0  0  0  0  0  0  0  0
   63.8510   33.2590   49.4670 C   0  0  0  0  0  0  0  0  0  0  0  0
   63.7960   33.8000   48.1810 C   0  0  0  0  0  0  0  0  0  0  0  0
   63.0120   33.1910   47.1980 C   0  0  0  0  0  0  0  0  0  0  0  0
   62.9640   33.7160   45.9490 F   0  0  0  0  0  0  0  0  0  0  0  0
   62.2770   32.0440   47.5020 C   0  0  0  0  0  0  0  0  0  0  0  0
   62.3130   31.5000   48.7970 C   0  0  0  0  0  0  0  0  0  0  0  0
   61.5430   30.3330   49.1130 N   0  0  0  0  0  0  0  0  0  0  0  0
   60.2730   30.3370   49.7800 C   0  0  0  0  0  0  0  0  0  0  0  0
   60.2400   30.1320   51.0220 O   0  0  0  0  0  0  0  0  0  0  0  0
   58.9920   30.6510   49.0570 C   0  0  0  0  0  0  0  0  0  0  0  0
   58.9030   29.8730   47.7830 C   0  0  0  0  0  0  0  0  0  0  0  0
   58.9150   30.4460   46.5610 N   0  0  0  0  0  0  0  0  0  0  0  0
   58.7600   29.5310   45.5660 C   0  0  0  0  0  0  0  0  0  0  0  0
   58.6840   29.9280   44.1220 C   0  0  0  0  0  0  0  0  0  0  0  0
   57.2880   30.9970   43.7800 S   0  0  0  0  0  0  0  0  0  0  0  0
   56.2310   30.8130   44.8330 O   0  0  0  0  0  0  0  0  0  0  0  0
   56.7130   30.6030   42.4490 O   0  0  0  0  0  0  0  0  0  0  0  0
   57.7650   32.7220   43.6930 C   0  0  0  0  0  0  0  0  0  0  0  0
   58.2920   33.2190   45.0120 C   0  0  0  0  0  0  0  0  0  0  0  0
   59.5410   33.8580   45.0840 C   0  0  0  0  0  0  0  0  0  0  0  0
   60.0470   34.2800   46.3180 C   0  0  0  0  0  0  0  0  0  0  0  0
   59.3110   34.0680   47.4870 C   0  0  0  0  0  0  0  0  0  0  0  0
   59.9600   34.5730   49.0360 Cl  0  0  0  0  0  0  0  0  0  0  0  0
   58.0610   33.4440   47.4220 C   0  0  0  0  0  0  0  0  0  0  0  0
   57.5510   33.0250   46.1890 C   0  0  0  0  0  0  0  0  0  0  0  0
   58.5850   28.2190   45.9990 C   0  0  0  0  0  0  0  0  0  0  0  0
   58.6550   28.2140   47.6790 S   0  0  0  0  0  0  0  0  0  0  0  0
   63.1126   32.3874   51.9000 H   0  0  0  0  0  0  0  0  0  0  0  0
   62.2821   30.8973   51.3373 H   0  0  0  0  0  0  0  0  0  0  0  0
   64.0765   30.9799   51.3373 H   0  0  0  0  0  0  0  0  0  0  0  0
   64.4658   33.7455   50.2386 H   0  0  0  0  0  0  0  0  0  0  0  0
   64.3707   34.7069   47.9415 H   0  0  0  0  0  0  0  0  0  0  0  0
   61.6663   31.5634   46.7235 H   0  0  0  0  0  0  0  0  0  0  0  0
   58.1397   30.3889   49.7011 H   0  0  0  0  0  0  0  0  0  0  0  0
   58.9728   31.7248   48.8191 H   0  0  0  0  0  0  0  0  0  0  0  0
   59.6093   30.4582   43.8523 H   0  0  0  0  0  0  0  0  0  0  0  0
   58.5572   29.0107   43.5283 H   0  0  0  0  0  0  0  0  0  0  0  0
   58.5483   32.8375   42.9294 H   0  0  0  0  0  0  0  0  0  0  0  0
   56.8736   33.3125   43.4345 H   0  0  0  0  0  0  0  0  0  0  0  0
   60.1235   34.0272   44.1663 H   0  0  0  0  0  0  0  0  0  0  0  0
   61.0258   34.7795   46.3683 H   0  0  0  0  0  0  0  0  0  0  0  0
   57.4787   33.2827   48.3412 H   0  0  0  0  0  0  0  0  0  0  0  0
   56.5644   32.5410   46.1409 H   0  0  0  0  0  0  0  0  0  0  0  0
   58.4286   27.3408   45.3554 H   0  0  0  0  0  0  0  0  0  0  0  0
  1  2  1  0
  2  3  2  0
  3  4  1  0
  4  5  2  0
  5  6  1  0
  5  7  1  0
  7  8  2  0
  8  9  1  0
  9 10  1  0
 10 11  2  0
 10 12  1  0
 12 13  1  0
 13 14  2  0
 14 15  1  0
 15 16  1  0
 16 17  1  0
 17 18  2  0
 17 19  2  0
 17 20  1  0
 20 21  1  0
 21 22  2  0
 22 23  1  0
 23 24  2  0
 24 25  1  0
 24 26  1  0
 26 27  2  0
 15 28  2  0
 28 29  1  0
  8  2  1  0
 29 13  1  0
 27 21  1  0
  1 30  1  0
  1 31  1  0
  1 32  1  0
  3 33  1  0
  4 34  1  0
  7 35  1  0
 12 36  1  0
 12 37  1  0
 16 38  1  0
 16 39  1  0
 20 40  1  0
 20 41  1  0
 22 42  1  0
 23 43  1  0
 26 44  1  0
 27 45  1  0
 28 46  1  0
M  CHG  1   9  -1
M  END
>  <UniqueID>  (30) 
29

>  <SMILES>  (30) 
Cc1ccc(F)cc1[N-]C(=O)Cc1nc(CS(=O)(=O)Cc2ccc(Cl)cc2)cs1

>  <Energy>  (30) 
64.60111764223846

>  <Genealogy>  (30) 
Cc1ccc(F)cc1[N-]C(=O)Cc1nc(CS(=O)(=O)Cc2ccc(Cl)cc2)cs1 (protonated)
Cc1ccc(F)cc1[N-]C(=O)Cc1nc(CS(=O)(=O)Cc2ccc(Cl)cc2)cs1 (3D coordinates assigned)
Cc1ccc(F)cc1[N-]C(=O)Cc1nc(CS(=O)(=O)Cc2ccc(Cl)cc2)cs1 (optimized conformer: 64.60111764223846 kcal/mol)

>  <smiles>  (30) 
Cc1ccc(F)cc1NC(=O)Cc1nc(CS(=O)(=O)Cc2ccc(Cl)cc2)cs1

>  <score_type>  (30) 
oracle

>  <origin>  (30) 
adg

>  <m_score__min__energy>  (30) 
-11.58

>  <m_primary>  (30) 
energy

$$$$
30:0
     RDKit          3D

 60 63  0  0  0  0  0  0  0  0999 V2000
   63.6550   33.6060   49.8860 C   0  0  0  0  0  0  0  0  0  0  0  0
   63.8550   32.5040   49.0070 O   0  0  0  0  0  0  0  0  0  0  0  0
   62.8340   31.6610   48.5430 C   0  0  0  0  0  0  0  0  0  0  0  0
   62.4530   31.6240   47.1890 C   0  0  0  0  0  0  0  0  0  0  0  0
   61.4290   30.7760   46.7660 C   0  0  0  0  0  0  0  0  0  0  0  0
   60.7550   29.9540   47.6820 C   0  0  0  0  0  0  0  0  0  0  0  0
   59.6680   29.0600   47.2090 C   0  0  0  0  0  0  0  0  0  0  0  0
   59.1790   28.0070   47.9940 C   0  0  0  0  0  0  0  0  0  0  0  0
   58.1560   27.2060   47.4990 C   0  0  0  0  0  0  0  0  0  0  0  0
   57.6290   27.4680   46.2350 C   0  0  0  0  0  0  0  0  0  0  0  0
   56.7060   26.7370   45.7860 O   0  0  0  0  0  0  0  0  0  0  0  0
   58.1190   28.5160   45.5020 N   0  0  0  0  0  0  0  0  0  0  0  0
   57.6070   28.8170   44.1600 C   0  0  0  0  0  0  0  0  0  0  0  0
   56.6070   29.9440   44.2030 C   0  0  0  0  0  0  0  0  0  0  0  0
   55.7920   30.0830   43.2530 O   0  0  0  0  0  0  0  0  0  0  0  0
   56.6720   30.9690   45.2040 N   0  0  0  0  0  0  0  0  0  0  0  0
   57.6260   32.0360   45.2620 C   0  0  0  0  0  0  0  0  0  0  0  0
   57.9130   32.7580   44.0980 C   0  0  0  0  0  0  0  0  0  0  0  0
   58.8190   33.8220   44.1340 C   0  0  0  0  0  0  0  0  0  0  0  0
   59.4280   34.1840   45.3390 C   0  0  0  0  0  0  0  0  0  0  0  0
   59.1170   33.4960   46.5200 C   0  0  0  0  0  0  0  0  0  0  0  0
   59.8800   33.9530   48.0470 S   0  0  0  0  0  0  0  0  0  0  0  0
   61.3400   34.2170   47.8030 O   0  0  0  0  0  0  0  0  0  0  0  0
   59.2550   35.2260   48.5450 O   0  0  0  0  0  0  0  0  0  0  0  0
   59.7240   32.7250   49.2810 N   0  0  0  0  0  0  0  0  0  0  0  0
   60.1920   33.1930   50.5830 C   0  0  0  0  0  0  0  0  0  0  0  0
   59.4700   32.3510   51.6230 C   0  0  0  0  0  0  0  0  0  0  0  0
   58.2450   31.7960   50.9100 C   0  0  0  0  0  0  0  0  0  0  0  0
   58.3350   32.3230   49.4840 C   0  0  0  0  0  0  0  0  0  0  0  0
   58.2110   32.4260   46.4780 C   0  0  0  0  0  0  0  0  0  0  0  0
   59.1080   29.2750   45.9860 N   0  0  0  0  0  0  0  0  0  0  0  0
   61.1470   29.9800   49.0330 C   0  0  0  0  0  0  0  0  0  0  0  0
   62.1810   30.8330   49.4680 C   0  0  0  0  0  0  0  0  0  0  0  0
   62.5910   30.8830   50.8100 O   0  0  0  0  0  0  0  0  0  0  0  0
   62.2720   29.9010   51.7910 C   0  0  0  0  0  0  0  0  0  0  0  0
   63.7178   33.2598   50.9282 H   0  0  0  0  0  0  0  0  0  0  0  0
   64.4300   34.3652   49.7045 H   0  0  0  0  0  0  0  0  0  0  0  0
   62.6626   34.0444   49.7045 H   0  0  0  0  0  0  0  0  0  0  0  0
   62.9658   32.2678   46.4593 H   0  0  0  0  0  0  0  0  0  0  0  0
   61.1470   30.7515   45.7030 H   0  0  0  0  0  0  0  0  0  0  0  0
   59.6004   27.8161   48.9920 H   0  0  0  0  0  0  0  0  0  0  0  0
   57.7653   26.3717   48.1001 H   0  0  0  0  0  0  0  0  0  0  0  0
   58.4469   29.1060   43.5111 H   0  0  0  0  0  0  0  0  0  0  0  0
   57.1068   27.9198   43.7666 H   0  0  0  0  0  0  0  0  0  0  0  0
   57.4236   32.4871   43.1508 H   0  0  0  0  0  0  0  0  0  0  0  0
   59.0531   34.3753   43.2125 H   0  0  0  0  0  0  0  0  0  0  0  0
   60.1531   35.0109   45.3605 H   0  0  0  0  0  0  0  0  0  0  0  0
   61.2799   33.0546   50.6691 H   0  0  0  0  0  0  0  0  0  0  0  0
   59.9845   34.2644   50.7213 H   0  0  0  0  0  0  0  0  0  0  0  0
   60.1164   31.5324   51.9724 H   0  0  0  0  0  0  0  0  0  0  0  0
   59.1961   32.9409   52.5102 H   0  0  0  0  0  0  0  0  0  0  0  0
   58.2615   30.6961   50.9158 H   0  0  0  0  0  0  0  0  0  0  0  0
   57.3105   32.1035   51.4020 H   0  0  0  0  0  0  0  0  0  0  0  0
   58.0586   31.5344   48.7686 H   0  0  0  0  0  0  0  0  0  0  0  0
   57.6479   33.1674   49.3264 H   0  0  0  0  0  0  0  0  0  0  0  0
   57.9569   31.8887   47.4036 H   0  0  0  0  0  0  0  0  0  0  0  0
   60.6403   29.3266   49.7585 H   0  0  0  0  0  0  0  0  0  0  0  0
   62.4106   30.3276   52.7954 H   0  0  0  0  0  0  0  0  0  0  0  0
   61.2253   29.5860   51.6676 H   0  0  0  0  0  0  0  0  0  0  0  0
   62.9337   29.0310   51.6676 H   0  0  0  0  0  0  0  0  0  0  0  0
  1  2  1  0
  2  3  1  0
  3  4  2  0
  4  5  1  0
  5  6  2  0
  6  7  1  0
  7  8  1  0
  8  9  2  0
  9 10  1  0
 10 11  2  0
 10 12  1  0
 12 13  1  0
 13 14  1  0
 14 15  2  0
 14 16  1  0
 16 17  1  0
 17 18  2  0
 18 19  1  0
 19 20  2  0
 20 21  1  0
 21 22  1  0
 22 23  2  0
 22 24  2  0
 22 25  1  0
 25 26  1  0
 26 27  1  0
 27 28  1  0
 28 29  1  0
 21 30  2  0
 12 31  1  0
  6 32  1  0
 32 33  2  0
 33 34  1  0
 34 35  1  0
 33  3  1  0
 31  7  2  0
 30 17  1  0
 29 25  1  0
  1 36  1  0
  1 37  1  0
  1 38  1  0
  4 39  1  0
  5 40  1  0
  8 41  1  0
  9 42  1  0
 13 43  1  0
 13 44  1  0
 18 45  1  0
 19 46  1  0
 20 47  1  0
 26 48  1  0
 26 49  1  0
 27 50  1  0
 27 51  1  0
 28 52  1  0
 28 53  1  0
 29 54  1  0
 29 55  1  0
 30 56  1  0
 32 57  1  0
 35 58  1  0
 35 59  1  0
 35 60  1  0
M  CHG  1  16  -1
M  END
>  <UniqueID>  (31) 
30

>  <SMILES>  (31) 
COc1ccc(-c2ccc(=O)n(CC(=O)[N-]c3cccc(S(=O)(=O)N4CCCC4)c3)n2)cc1OC

>  <Energy>  (31) 
73.60635281906265

>  <Genealogy>  (31) 
COc1ccc(-c2ccc(=O)n(CC(=O)[N-]c3cccc(S(=O)(=O)N4CCCC4)c3)n2)cc1OC (protonated)
COc1ccc(-c2ccc(=O)n(CC(=O)[N-]c3cccc(S(=O)(=O)N4CCCC4)c3)n2)cc1OC (3D coordinates assigned)
COc1ccc(-c2ccc(=O)n(CC(=O)[N-]c3cccc(S(=O)(=O)N4CCCC4)c3)n2)cc1OC (nonaromatic ring conformer: 73.60635281906265 kcal/mol)

>  <smiles>  (31) 
COc1ccc(-c2ccc(=O)n(CC(=O)Nc3cccc(S(=O)(=O)N4CCCC4)c3)n2)cc1OC

>  <score_type>  (31) 
oracle

>  <origin>  (31) 
adg

>  <m_score__min__energy>  (31) 
-11.77

>  <m_primary>  (31) 
energy

$$$$
31:0
     RDKit          3D

 44 46  0  0  0  0  0  0  0  0999 V2000
   60.3520   28.1700   45.6310 C   0  0  0  0  0  0  0  0  0  0  0  0
   59.7080   27.8560   46.9780 C   0  0  0  0  0  0  0  0  0  0  0  0
   58.4870   26.9850   46.7990 C   0  0  0  0  0  0  0  0  0  0  0  0
   58.5080   25.6660   47.2850 C   0  0  0  0  0  0  0  0  0  0  0  0
   57.4040   24.8320   47.1060 C   0  0  0  0  0  0  0  0  0  0  0  0
   56.2580   25.3130   46.4660 C   0  0  0  0  0  0  0  0  0  0  0  0
   56.2330   26.6100   45.9510 C   0  0  0  0  0  0  0  0  0  0  0  0
   57.3550   27.4510   46.0910 C   0  0  0  0  0  0  0  0  0  0  0  0
   57.3430   28.7940   45.5800 N   0  0  0  0  0  0  0  0  0  0  0  0
   56.4000   29.3490   44.6550 C   0  0  0  0  0  0  0  0  0  0  0  0
   55.1620   29.3100   44.8900 O   0  0  0  0  0  0  0  0  0  0  0  0
   56.8940   29.9600   43.3870 C   0  0  0  0  0  0  0  0  0  0  0  0
   58.0760   30.7640   43.6690 N   0  0  0  0  0  0  0  0  0  0  0  0
   58.1020   32.1950   43.6100 C   0  0  0  0  0  0  0  0  0  0  0  0
   57.8170   32.7680   42.5250 O   0  0  0  0  0  0  0  0  0  0  0  0
   58.4890   33.0100   44.7750 C   0  0  0  0  0  0  0  0  0  0  0  0
   59.0090   34.2960   44.5600 C   0  0  0  0  0  0  0  0  0  0  0  0
   59.4050   35.0860   45.6420 C   0  0  0  0  0  0  0  0  0  0  0  0
   59.2790   34.6030   46.9460 C   0  0  0  0  0  0  0  0  0  0  0  0
   58.7460   33.3310   47.1720 C   0  0  0  0  0  0  0  0  0  0  0  0
   58.3390   32.5310   46.0970 C   0  0  0  0  0  0  0  0  0  0  0  0
   57.7750   31.2830   46.3700 O   0  0  0  0  0  0  0  0  0  0  0  0
   55.1420   24.4780   46.3510 O   0  0  0  0  0  0  0  0  0  0  0  0
   55.0500   23.2610   47.0960 C   0  0  0  0  0  0  0  0  0  0  0  0
   56.4210   22.5750   47.1620 C   0  0  0  0  0  0  0  0  0  0  0  0
   57.4240   23.5110   47.5660 O   0  0  0  0  0  0  0  0  0  0  0  0
   61.3298   28.6467   45.7943 H   0  0  0  0  0  0  0  0  0  0  0  0
   60.4889   27.2375   45.0638 H   0  0  0  0  0  0  0  0  0  0  0  0
   59.7017   28.8521   45.0638 H   0  0  0  0  0  0  0  0  0  0  0  0
   60.4366   27.3296   47.6121 H   0  0  0  0  0  0  0  0  0  0  0  0
   59.4009   28.8006   47.4506 H   0  0  0  0  0  0  0  0  0  0  0  0
   59.3991   25.2898   47.8089 H   0  0  0  0  0  0  0  0  0  0  0  0
   55.3342   26.9771   45.4339 H   0  0  0  0  0  0  0  0  0  0  0  0
   57.1523   29.1649   42.6721 H   0  0  0  0  0  0  0  0  0  0  0  0
   56.1089   30.5977   42.9546 H   0  0  0  0  0  0  0  0  0  0  0  0
   59.1051   34.6834   43.5350 H   0  0  0  0  0  0  0  0  0  0  0  0
   59.8170   36.0907   45.4663 H   0  0  0  0  0  0  0  0  0  0  0  0
   59.5993   35.2238   47.7957 H   0  0  0  0  0  0  0  0  0  0  0  0
   58.6455   32.9557   48.2011 H   0  0  0  0  0  0  0  0  0  0  0  0
   57.8920   30.4840   45.7590 H   0  0  0  0  0  0  0  0  0  0  0  0
   54.7062   23.4849   48.1166 H   0  0  0  0  0  0  0  0  0  0  0  0
   54.3358   22.5886   46.5982 H   0  0  0  0  0  0  0  0  0  0  0  0
   56.3799   21.7505   47.8890 H   0  0  0  0  0  0  0  0  0  0  0  0
   56.6751   22.1853   46.1652 H   0  0  0  0  0  0  0  0  0  0  0  0
  1  2  1  0
  2  3  1  0
  3  4  2  0
  4  5  1  0
  5  6  2  0
  6  7  1  0
  7  8  2  0
  8  9  1  0
  9 10  1  0
 10 11  2  0
 10 12  1  0
 12 13  1  0
 13 14  1  0
 14 15  2  0
 14 16  1  0
 16 17  2  0
 17 18  1  0
 18 19  2  0
 19 20  1  0
 20 21  2  0
 21 22  1  0
  6 23  1  0
 23 24  1  0
 24 25  1  0
 25 26  1  0
  8  3  1  0
 21 16  1  0
 26  5  1  0
  1 27  1  0
  1 28  1  0
  1 29  1  0
  2 30  1  0
  2 31  1  0
  4 32  1  0
  7 33  1  0
 12 34  1  0
 12 35  1  0
 17 36  1  0
 18 37  1  0
 19 38  1  0
 20 39  1  0
 22 40  1  0
 24 41  1  0
 24 42  1  0
 25 43  1  0
 25 44  1  0
M  CHG  2   9  -1  13  -1
M  END
>  <UniqueID>  (32) 
31

>  <SMILES>  (32) 
CCc1cc2c(cc1[N-]C(=O)C[N-]C(=O)c1ccccc1O)OCCO2

>  <Energy>  (32) 
51.396393050656464

>  <Genealogy>  (32) 
CCc1cc2c(cc1[N-]C(=O)C[N-]C(=O)c1ccccc1O)OCCO2 (protonated)
CCc1cc2c(cc1[N-]C(=O)C[N-]C(=O)c1ccccc1O)OCCO2 (3D coordinates assigned)
CCc1cc2c(cc1[N-]C(=O)C[N-]C(=O)c1ccccc1O)OCCO2 (nonaromatic ring conformer: 51.396393050656464 kcal/mol)

>  <smiles>  (32) 
CCc1cc2c(cc1NC(=O)CNC(=O)c1ccccc1O)OCCO2

>  <score_type>  (32) 
oracle

>  <origin>  (32) 
adg

>  <m_score__min__energy>  (32) 
-11.199999999999999

>  <m_primary>  (32) 
energy

$$$$
32:0
     RDKit          3D

 30 31  0  0  0  0  0  0  0  0999 V2000
   59.6440   29.3260   44.5690 C   0  0  0  0  0  0  0  0  0  0  0  0
   58.2900   28.7550   44.8540 C   0  0  0  0  0  0  0  0  0  0  0  0
   58.0450   27.5710   45.5220 C   0  0  0  0  0  0  0  0  0  0  0  0
   56.6650   27.5170   45.6160 C   0  0  0  0  0  0  0  0  0  0  0  0
   55.8820   26.4520   46.2530 C   0  0  0  0  0  0  0  0  0  0  0  0
   56.4340   25.6440   47.0460 O   0  0  0  0  0  0  0  0  0  0  0  0
   54.5260   26.3310   45.9820 O   0  0  0  0  0  0  0  0  0  0  0  0
   56.1180   28.6100   45.0490 N   0  0  0  0  0  0  0  0  0  0  0  0
   57.1100   29.3560   44.5840 N   0  0  0  0  0  0  0  0  0  0  0  0
   56.9030   30.6610   43.9600 C   0  0  0  0  0  0  0  0  0  0  0  0
   57.6490   31.7250   44.7180 C   0  0  0  0  0  0  0  0  0  0  0  0
   58.1200   32.8640   44.0480 C   0  0  0  0  0  0  0  0  0  0  0  0
   58.7960   33.8670   44.7490 C   0  0  0  0  0  0  0  0  0  0  0  0
   58.9940   33.7580   46.1360 C   0  0  0  0  0  0  0  0  0  0  0  0
   59.7650   34.8160   46.8840 C   0  0  0  0  0  0  0  0  0  0  0  0
   59.6550   36.0180   46.2120 F   0  0  0  0  0  0  0  0  0  0  0  0
   61.1020   34.4720   46.9760 F   0  0  0  0  0  0  0  0  0  0  0  0
   59.2680   34.9690   48.1660 F   0  0  0  0  0  0  0  0  0  0  0  0
   58.5410   32.6040   46.8000 C   0  0  0  0  0  0  0  0  0  0  0  0
   57.8650   31.6010   46.0980 C   0  0  0  0  0  0  0  0  0  0  0  0
   60.1576   29.5426   45.5173 H   0  0  0  0  0  0  0  0  0  0  0  0
   60.2337   28.5999   43.9901 H   0  0  0  0  0  0  0  0  0  0  0  0
   59.5357   30.2551   43.9901 H   0  0  0  0  0  0  0  0  0  0  0  0
   58.7777   26.8396   45.8936 H   0  0  0  0  0  0  0  0  0  0  0  0
   57.2688   30.6298   42.9231 H   0  0  0  0  0  0  0  0  0  0  0  0
   55.8289   30.8981   43.9730 H   0  0  0  0  0  0  0  0  0  0  0  0
   57.9565   32.9685   42.9652 H   0  0  0  0  0  0  0  0  0  0  0  0
   59.1757   34.7481   44.2109 H   0  0  0  0  0  0  0  0  0  0  0  0
   58.7197   32.4895   47.8793 H   0  0  0  0  0  0  0  0  0  0  0  0
   57.5009   30.7103   46.6310 H   0  0  0  0  0  0  0  0  0  0  0  0
  1  2  1  0
  2  3  2  0
  3  4  1  0
  4  5  1  0
  5  6  2  0
  5  7  1  0
  4  8  2  0
  8  9  1  0
  9 10  1  0
 10 11  1  0
 11 12  2  0
 12 13  1  0
 13 14  2  0
 14 15  1  0
 15 16  1  0
 15 17  1  0
 15 18  1  0
 14 19  1  0
 19 20  2  0
  9  2  1  0
 20 11  1  0
  1 21  1  0
  1 22  1  0
  1 23  1  0
  3 24  1  0
 10 25  1  0
 10 26  1  0
 12 27  1  0
 13 28  1  0
 19 29  1  0
 20 30  1  0
M  CHG  1   7  -1
M  END
>  <UniqueID>  (33) 
32

>  <SMILES>  (33) 
Cc1cc(C(=O)[O-])nn1Cc1ccc(C(F)(F)F)cc1

>  <Energy>  (33) 
56.955832261066675

>  <Genealogy>  (33) 
Cc1cc(C(=O)[O-])nn1Cc1ccc(C(F)(F)F)cc1 (protonated)
Cc1cc(C(=O)[O-])nn1Cc1ccc(C(F)(F)F)cc1 (3D coordinates assigned)
Cc1cc(C(=O)[O-])nn1Cc1ccc(C(F)(F)F)cc1 (optimized conformer: 56.955832261066675 kcal/mol)

>  <smiles>  (33) 
Cc1cc(C(=O)O)nn1Cc1ccc(C(F)(F)F)cc1

>  <score_type>  (33) 
oracle

>  <origin>  (33) 
adg

>  <m_score__min__energy>  (33) 
-9.5500000000000007

>  <m_primary>  (33) 
energy

$$$$
33:0
     RDKit          3D

 28 29  0  0  0  0  0  0  0  0999 V2000
   55.6360   28.6570   52.7770 C   0  0  0  0  0  0  0  0  0  0  0  0
   56.5000   29.8690   52.5590 C   0  0  0  0  0  0  0  0  0  0  0  0
   57.8990   29.7340   52.5890 C   0  0  0  0  0  0  0  0  0  0  0  0
   58.7220   30.8450   52.3940 C   0  0  0  0  0  0  0  0  0  0  0  0
   58.1590   32.1030   52.1790 C   0  0  0  0  0  0  0  0  0  0  0  0
   56.7720   32.2550   52.1570 C   0  0  0  0  0  0  0  0  0  0  0  0
   55.9270   31.1440   52.3370 C   0  0  0  0  0  0  0  0  0  0  0  0
   54.4980   31.3170   52.3520 N   0  0  0  0  0  0  0  0  0  0  0  0
   53.6550   30.8540   53.4170 C   0  0  0  0  0  0  0  0  0  0  0  0
   54.1540   30.4550   54.5040 O   0  0  0  0  0  0  0  0  0  0  0  0
   52.1680   30.8360   53.2400 C   0  0  0  0  0  0  0  0  0  0  0  0
   51.8260   31.0180   51.7960 C   0  0  0  0  0  0  0  0  0  0  0  0
   52.1500   29.9050   50.5720 S   0  0  0  0  0  0  0  0  0  0  0  0
   51.3740   30.8370   49.4070 C   0  0  0  0  0  0  0  0  0  0  0  0
   51.2770   30.5180   48.1950 O   0  0  0  0  0  0  0  0  0  0  0  0
   50.8550   31.9760   49.9130 N   0  0  0  0  0  0  0  0  0  0  0  0
   51.1010   32.0730   51.2450 C   0  0  0  0  0  0  0  0  0  0  0  0
   50.6480   33.1520   51.9940 O   0  0  0  0  0  0  0  0  0  0  0  0
   55.5127   28.4840   53.8563 H   0  0  0  0  0  0  0  0  0  0  0  0
   54.6504   28.8217   52.3171 H   0  0  0  0  0  0  0  0  0  0  0  0
   56.1131   27.7790   52.3171 H   0  0  0  0  0  0  0  0  0  0  0  0
   58.3485   28.7460   52.7674 H   0  0  0  0  0  0  0  0  0  0  0  0
   59.8156   30.7281   52.4099 H   0  0  0  0  0  0  0  0  0  0  0  0
   58.8095   32.9768   52.0265 H   0  0  0  0  0  0  0  0  0  0  0  0
   56.3353   33.2519   51.9976 H   0  0  0  0  0  0  0  0  0  0  0  0
   54.0500   31.8370   51.5650 H   0  0  0  0  0  0  0  0  0  0  0  0
   51.7705   29.8721   53.5904 H   0  0  0  0  0  0  0  0  0  0  0  0
   51.7235   31.6555   53.8239 H   0  0  0  0  0  0  0  0  0  0  0  0
  1  2  1  0
  2  3  2  0
  3  4  1  0
  4  5  2  0
  5  6  1  0
  6  7  2  0
  7  8  1  0
  8  9  1  0
  9 10  2  0
  9 11  1  0
 11 12  1  0
 12 13  1  0
 13 14  1  0
 14 15  2  0
 14 16  1  0
 16 17  1  0
 17 18  1  0
  7  2  1  0
 17 12  2  0
  1 19  1  0
  1 20  1  0
  1 21  1  0
  3 22  1  0
  4 23  1  0
  5 24  1  0
  6 25  1  0
  8 26  1  0
 11 27  1  0
 11 28  1  0
M  CHG  2  16  -1  18  -1
M  END
>  <UniqueID>  (34) 
33

>  <SMILES>  (34) 
Cc1ccccc1NC(=O)Cc1sc(=O)[n-]c1[O-]

>  <Energy>  (34) 
60.59959926407261

>  <Genealogy>  (34) 
Cc1ccccc1NC(=O)Cc1sc(=O)[n-]c1[O-] (protonated)
Cc1ccccc1NC(=O)Cc1sc(=O)[n-]c1[O-] (3D coordinates assigned)
Cc1ccccc1NC(=O)Cc1sc(=O)[n-]c1[O-] (optimized conformer: 60.59959926407261 kcal/mol)

>  <smiles>  (34) 
Cc1ccccc1NC(=O)Cc1sc(=O)[nH]c1O

>  <score_type>  (34) 
oracle

>  <origin>  (34) 
adg

>  <m_score__min__energy>  (34) 
-13.140000000000001

>  <m_primary>  (34) 
energy

$$$$
34:0
     RDKit          3D

 56 58  0  0  0  0  0  0  0  0999 V2000
   61.1750   30.2850   48.5430 O   0  0  0  0  0  0  0  0  0  0  0  0
   60.2330   30.8380   47.9110 C   0  0  0  0  0  0  0  0  0  0  0  0
   60.4890   31.4870   46.5800 C   0  0  0  0  0  0  0  0  0  0  0  0
   59.7010   32.7210   46.4110 N   0  0  0  0  0  0  0  0  0  0  0  0
   60.3530   34.0070   46.7060 C   0  0  0  0  0  0  0  0  0  0  0  0
   61.6300   33.7910   47.4730 C   0  0  0  0  0  0  0  0  0  0  0  0
   62.8340   33.5390   46.7910 C   0  0  0  0  0  0  0  0  0  0  0  0
   64.0260   33.3750   47.5030 C   0  0  0  0  0  0  0  0  0  0  0  0
   64.0270   33.4600   48.8980 C   0  0  0  0  0  0  0  0  0  0  0  0
   62.8360   33.7200   49.5830 C   0  0  0  0  0  0  0  0  0  0  0  0
   61.6430   33.8930   48.8740 C   0  0  0  0  0  0  0  0  0  0  0  0
   58.2960   32.6870   46.0570 C   0  0  0  0  0  0  0  0  0  0  0  0
   57.4300   33.0840   46.8830 O   0  0  0  0  0  0  0  0  0  0  0  0
   57.8190   32.1800   44.7260 C   0  0  0  0  0  0  0  0  0  0  0  0
   56.4680   31.6440   44.8660 N   0  0  0  0  0  0  0  0  0  0  0  0
   56.4330   29.9740   44.3910 S   0  0  0  0  0  0  0  0  0  0  0  0
   56.4930   29.8610   42.8930 O   0  0  0  0  0  0  0  0  0  0  0  0
   55.1500   29.3510   44.8680 O   0  0  0  0  0  0  0  0  0  0  0  0
   57.7930   29.1310   45.1270 C   0  0  0  0  0  0  0  0  0  0  0  0
   59.0500   29.1640   44.5040 C   0  0  0  0  0  0  0  0  0  0  0  0
   60.1260   28.4620   45.0550 C   0  0  0  0  0  0  0  0  0  0  0  0
   59.9520   27.7270   46.2340 C   0  0  0  0  0  0  0  0  0  0  0  0
   60.9970   27.0460   46.7680 F   0  0  0  0  0  0  0  0  0  0  0  0
   58.7010   27.6920   46.8600 C   0  0  0  0  0  0  0  0  0  0  0  0
   57.6220   28.3900   46.3060 C   0  0  0  0  0  0  0  0  0  0  0  0
   58.9160   30.8810   48.4770 N   0  0  0  0  0  0  0  0  0  0  0  0
   58.6150   30.3580   49.8070 C   0  0  0  0  0  0  0  0  0  0  0  0
   58.4770   31.4810   50.7990 C   0  0  0  0  0  0  0  0  0  0  0  0
   59.2930   32.6210   50.7070 C   0  0  0  0  0  0  0  0  0  0  0  0
   59.1530   33.6650   51.6260 C   0  0  0  0  0  0  0  0  0  0  0  0
   58.1990   33.5770   52.6440 C   0  0  0  0  0  0  0  0  0  0  0  0
   57.3920   32.4420   52.7500 C   0  0  0  0  0  0  0  0  0  0  0  0
   57.5320   31.3930   51.8340 C   0  0  0  0  0  0  0  0  0  0  0  0
   61.5582   31.7344   46.5045 H   0  0  0  0  0  0  0  0  0  0  0  0
   60.1896   30.7801   45.7922 H   0  0  0  0  0  0  0  0  0  0  0  0
   60.5817   34.5213   45.7609 H   0  0  0  0  0  0  0  0  0  0  0  0
   59.6718   34.6176   47.3169 H   0  0  0  0  0  0  0  0  0  0  0  0
   62.8378   33.4707   45.6931 H   0  0  0  0  0  0  0  0  0  0  0  0
   64.9647   33.1787   46.9643 H   0  0  0  0  0  0  0  0  0  0  0  0
   64.9644   33.3224   49.4569 H   0  0  0  0  0  0  0  0  0  0  0  0
   62.8374   33.7885   50.6809 H   0  0  0  0  0  0  0  0  0  0  0  0
   60.7106   34.1099   49.4158 H   0  0  0  0  0  0  0  0  0  0  0  0
   57.8124   33.0061   43.9997 H   0  0  0  0  0  0  0  0  0  0  0  0
   58.4938   31.3866   44.3722 H   0  0  0  0  0  0  0  0  0  0  0  0
   59.1890   29.7438   43.5796 H   0  0  0  0  0  0  0  0  0  0  0  0
   61.1092   28.4870   44.5624 H   0  0  0  0  0  0  0  0  0  0  0  0
   58.5658   27.1160   47.7873 H   0  0  0  0  0  0  0  0  0  0  0  0
   56.6377   28.3576   46.7960 H   0  0  0  0  0  0  0  0  0  0  0  0
   58.1510   31.3540   47.9440 H   0  0  0  0  0  0  0  0  0  0  0  0
   57.6725   29.7921   49.7681 H   0  0  0  0  0  0  0  0  0  0  0  0
   59.4393   29.7029   50.1254 H   0  0  0  0  0  0  0  0  0  0  0  0
   60.0456   32.6924   49.9080 H   0  0  0  0  0  0  0  0  0  0  0  0
   59.7936   34.5558   51.5481 H   0  0  0  0  0  0  0  0  0  0  0  0
   58.0838   34.4023   53.3621 H   0  0  0  0  0  0  0  0  0  0  0  0
   56.6452   32.3724   53.5546 H   0  0  0  0  0  0  0  0  0  0  0  0
   56.9001   30.4972   51.9251 H   0  0  0  0  0  0  0  0  0  0  0  0
  1  2  2  0
  2  3  1  0
  3  4  1  0
  4  5  1  0
  5  6  1  0
  6  7  2  0
  7  8  1  0
  8  9  2  0
  9 10  1  0
 10 11  2  0
  4 12  1  0
 12 13  2  0
 12 14  1  0
 14 15  1  0
 15 16  1  0
 16 17  2  0
 16 18  2  0
 16 19  1  0
 19 20  2  0
 20 21  1  0
 21 22  2  0
 22 23  1  0
 22 24  1  0
 24 25  2  0
  2 26  1  0
 26 27  1  0
 27 28  1  0
 28 29  2  0
 29 30  1  0
 30 31  2  0
 31 32  1  0
 32 33  2  0
 11  6  1  0
 25 19  1  0
 33 28  1  0
  3 34  1  0
  3 35  1  0
  5 36  1  0
  5 37  1  0
  7 38  1  0
  8 39  1  0
  9 40  1  0
 10 41  1  0
 11 42  1  0
 14 43  1  0
 14 44  1  0
 20 45  1  0
 21 46  1  0
 24 47  1  0
 25 48  1  0
 26 49  1  0
 27 50  1  0
 27 51  1  0
 29 52  1  0
 30 53  1  0
 31 54  1  0
 32 55  1  0
 33 56  1  0
M  CHG  1  15  -1
M  END
>  <UniqueID>  (35) 
34

>  <SMILES>  (35) 
O=C(CN(Cc1ccccc1)C(=O)C[N-]S(=O)(=O)c1ccc(F)cc1)NCc1ccccc1

>  <Energy>  (35) 
45.031565449868616

>  <Genealogy>  (35) 
O=C(CN(Cc1ccccc1)C(=O)C[N-]S(=O)(=O)c1ccc(F)cc1)NCc1ccccc1 (protonated)
O=C(CN(Cc1ccccc1)C(=O)C[N-]S(=O)(=O)c1ccc(F)cc1)NCc1ccccc1 (3D coordinates assigned)
O=C(CN(Cc1ccccc1)C(=O)C[N-]S(=O)(=O)c1ccc(F)cc1)NCc1ccccc1 (optimized conformer: 45.031565449868616 kcal/mol)

>  <smiles>  (35) 
O=C(CN(Cc1ccccc1)C(=O)CNS(=O)(=O)c1ccc(F)cc1)NCc1ccccc1

>  <score_type>  (35) 
oracle

>  <origin>  (35) 
adg

>  <m_score__min__energy>  (35) 
-11.34

>  <m_primary>  (35) 
energy

$$$$
35:0
     RDKit          3D

 57 60  0  0  0  0  0  0  0  0999 V2000
   56.4760   29.6420   52.6810 C   0  0  0  0  0  0  0  0  0  0  0  0
   56.9960   30.4140   51.5600 N   0  0  0  0  0  0  0  0  0  0  0  0
   57.6320   31.6920   51.6790 C   0  0  0  0  0  0  0  0  0  0  0  0
   56.9300   32.6920   51.9870 O   0  0  0  0  0  0  0  0  0  0  0  0
   59.0720   31.8810   51.4160 C   0  0  0  0  0  0  0  0  0  0  0  0
   59.9110   32.4470   52.3820 C   0  0  0  0  0  0  0  0  0  0  0  0
   61.2270   32.6500   52.1120 N   0  0  0  0  0  0  0  0  0  0  0  0
   61.7780   32.3030   50.9190 C   0  0  0  0  0  0  0  0  0  0  0  0
   63.0950   32.5510   50.6950 N   0  0  0  0  0  0  0  0  0  0  0  0
   63.6910   32.2420   49.5160 C   0  0  0  0  0  0  0  0  0  0  0  0
   62.9570   31.6380   48.4960 C   0  0  0  0  0  0  0  0  0  0  0  0
   61.5980   31.3400   48.6860 C   0  0  0  0  0  0  0  0  0  0  0  0
   60.8820   30.6190   47.6090 C   0  0  0  0  0  0  0  0  0  0  0  0
   61.1410   30.8880   46.4030 O   0  0  0  0  0  0  0  0  0  0  0  0
   59.9710   29.5550   47.9260 N   0  0  0  0  0  0  0  0  0  0  0  0
   59.1300   28.9220   46.9510 C   0  0  0  0  0  0  0  0  0  0  0  0
   58.1160   29.6760   46.3430 C   0  0  0  0  0  0  0  0  0  0  0  0
   57.2950   29.1150   45.3510 C   0  0  0  0  0  0  0  0  0  0  0  0
   56.2350   29.9220   44.7020 C   0  0  0  0  0  0  0  0  0  0  0  0
   55.2970   29.3340   44.0990 O   0  0  0  0  0  0  0  0  0  0  0  0
   56.2100   31.3560   44.7780 N   0  0  0  0  0  0  0  0  0  0  0  0
   57.2560   32.1260   44.8590 C   0  0  0  0  0  0  0  0  0  0  0  0
   57.7030   32.7180   46.0160 C   0  0  0  0  0  0  0  0  0  0  0  0
   58.8120   33.4320   45.5950 C   0  0  0  0  0  0  0  0  0  0  0  0
   59.7230   34.2770   46.4620 C   0  0  0  0  0  0  0  0  0  0  0  0
   61.1760   33.7720   46.3520 C   0  0  0  0  0  0  0  0  0  0  0  0
   59.2690   34.1790   47.9310 C   0  0  0  0  0  0  0  0  0  0  0  0
   59.6620   35.7430   45.9950 C   0  0  0  0  0  0  0  0  0  0  0  0
   58.9570   33.2590   44.2970 O   0  0  0  0  0  0  0  0  0  0  0  0
   58.0340   32.4780   43.8170 N   0  0  0  0  0  0  0  0  0  0  0  0
   57.4780   27.7710   44.9940 C   0  0  0  0  0  0  0  0  0  0  0  0
   58.5000   27.0190   45.5770 C   0  0  0  0  0  0  0  0  0  0  0  0
   59.3400   27.5880   46.5390 C   0  0  0  0  0  0  0  0  0  0  0  0
   60.6950   26.6340   47.1320 Cl  0  0  0  0  0  0  0  0  0  0  0  0
   60.9830   31.7070   49.9110 C   0  0  0  0  0  0  0  0  0  0  0  0
   59.6080   31.5410   50.1670 C   0  0  0  0  0  0  0  0  0  0  0  0
   56.7909   30.1095   53.6256 H   0  0  0  0  0  0  0  0  0  0  0  0
   55.3773   29.6186   52.6318 H   0  0  0  0  0  0  0  0  0  0  0  0
   56.8672   28.6151   52.6318 H   0  0  0  0  0  0  0  0  0  0  0  0
   59.5035   32.7288   53.3641 H   0  0  0  0  0  0  0  0  0  0  0  0
   64.7567   32.4687   49.3644 H   0  0  0  0  0  0  0  0  0  0  0  0
   63.4437   31.3943   47.5401 H   0  0  0  0  0  0  0  0  0  0  0  0
   60.0560   29.1040   48.8650 H   0  0  0  0  0  0  0  0  0  0  0  0
   57.9614   30.7217   46.6473 H   0  0  0  0  0  0  0  0  0  0  0  0
   57.2822   32.6429   47.0295 H   0  0  0  0  0  0  0  0  0  0  0  0
   61.5913   33.6276   47.3603 H   0  0  0  0  0  0  0  0  0  0  0  0
   61.1917   32.8157   45.8086 H   0  0  0  0  0  0  0  0  0  0  0  0
   61.7814   34.5124   45.8086 H   0  0  0  0  0  0  0  0  0  0  0  0
   60.1275   34.3643   48.5932 H   0  0  0  0  0  0  0  0  0  0  0  0
   58.4882   34.9293   48.1243 H   0  0  0  0  0  0  0  0  0  0  0  0
   58.8672   33.1734   48.1243 H   0  0  0  0  0  0  0  0  0  0  0  0
   59.6344   36.4064   46.8720 H   0  0  0  0  0  0  0  0  0  0  0  0
   60.5514   35.9723   45.3897 H   0  0  0  0  0  0  0  0  0  0  0  0
   58.7566   35.8976   45.3897 H   0  0  0  0  0  0  0  0  0  0  0  0
   56.8129   27.3069   44.2508 H   0  0  0  0  0  0  0  0  0  0  0  0
   58.6453   25.9707   45.2770 H   0  0  0  0  0  0  0  0  0  0  0  0
   58.9504   31.1416   49.3808 H   0  0  0  0  0  0  0  0  0  0  0  0
  1  2  1  0
  2  3  1  0
  3  4  2  0
  3  5  1  0
  5  6  2  0
  6  7  1  0
  7  8  2  0
  8  9  1  0
  9 10  2  0
 10 11  1  0
 11 12  2  0
 12 13  1  0
 13 14  2  0
 13 15  1  0
 15 16  1  0
 16 17  2  0
 17 18  1  0
 18 19  1  0
 19 20  2  0
 19 21  1  0
 21 22  2  3
 22 23  1  0
 23 24  2  0
 24 25  1  0
 25 26  1  0
 25 27  1  0
 25 28  1  0
 24 29  1  0
 29 30  1  0
 18 31  2  0
 31 32  1  0
 32 33  2  0
 33 34  1  0
 12 35  1  0
 35 36  2  0
 36  5  1  0
 35  8  1  0
 33 16  1  0
 30 22  1  0
  1 37  1  0
  1 38  1  0
  1 39  1  0
  6 40  1  0
 10 41  1  0
 11 42  1  0
 15 43  1  0
 17 44  1  0
 23 45  1  0
 26 46  1  0
 26 47  1  0
 26 48  1  0
 27 49  1  0
 27 50  1  0
 27 51  1  0
 28 52  1  0
 28 53  1  0
 28 54  1  0
 31 55  1  0
 32 56  1  0
 36 57  1  0
M  CHG  2   2  -1  30  -1
M  END
>  <UniqueID>  (36) 
35

>  <SMILES>  (36) 
C[N-]C(=O)c1cnc2nccc(C(=O)Nc3cc(C(=O)N=c4cc(C(C)(C)C)o[n-]4)ccc3Cl)c2c1

>  <Energy>  (36) 
114.48515345704965

>  <Genealogy>  (36) 
C[N-]C(=O)c1cnc2nccc(C(=O)Nc3cc(C(=O)N=c4cc(C(C)(C)C)o[n-]4)ccc3Cl)c2c1 (protonated)
C[N-]C(=O)c1cnc2nccc(C(=O)Nc3cc(C(=O)N=c4cc(C(C)(C)C)o[n-]4)ccc3Cl)c2c1 (3D coordinates assigned)
C[N-]C(=O)c1cnc2nccc(C(=O)Nc3cc(C(=O)N=c4cc(C(C)(C)C)o[n-]4)ccc3Cl)c2c1 (optimized conformer: 114.48515345704965 kcal/mol)

>  <smiles>  (36) 
CNC(=O)c1cnc2nccc(C(=O)Nc3cc(C(=O)N=c4cc(C(C)(C)C)o[nH]4)ccc3Cl)c2c1

>  <score_type>  (36) 
oracle

>  <origin>  (36) 
adg

>  <m_score__min__energy>  (36) 
-15.75

>  <m_primary>  (36) 
energy

$$$$
36:0
     RDKit          3D

 33 34  0  0  0  0  0  0  0  0999 V2000
   55.5310   28.7670   45.8620 H   0  0  0  0  0  0  0  0  0  0  0  0
   55.4480   29.0190   44.8510 N   0  0  0  0  0  0  0  0  0  0  0  0
   56.6730   30.1950   44.5230 S   0  0  0  0  0  0  0  0  0  0  0  0
   57.2650   29.8930   43.1750 O   0  0  0  0  0  0  0  0  0  0  0  0
   56.0500   31.5610   44.4990 O   0  0  0  0  0  0  0  0  0  0  0  0
   57.9200   30.1450   45.7810 C   0  0  0  0  0  0  0  0  0  0  0  0
   58.2370   31.3320   46.4610 C   0  0  0  0  0  0  0  0  0  0  0  0
   57.6937   32.2582   46.2223 H   0  0  0  0  0  0  0  0  0  0  0  0
   59.2350   31.3480   47.4370 C   0  0  0  0  0  0  0  0  0  0  0  0
   59.4602   32.2795   47.9770 H   0  0  0  0  0  0  0  0  0  0  0  0
   59.9460   30.1860   47.7280 C   0  0  0  0  0  0  0  0  0  0  0  0
   60.7389   30.2045   48.4902 H   0  0  0  0  0  0  0  0  0  0  0  0
   59.6550   28.9980   47.0550 C   0  0  0  0  0  0  0  0  0  0  0  0
   60.3910   27.8890   47.3270 F   0  0  0  0  0  0  0  0  0  0  0  0
   58.6200   28.9550   46.1010 C   0  0  0  0  0  0  0  0  0  0  0  0
   58.3130   27.6810   45.4140 C   0  0  0  0  0  0  0  0  0  0  0  0
   58.5024   27.6252   44.3319 H   0  0  0  0  0  0  0  0  0  0  0  0
   57.8190   26.5870   46.0190 C   0  0  0  0  0  0  0  0  0  0  0  0
   58.4379   26.1228   46.8010 H   0  0  0  0  0  0  0  0  0  0  0  0
   56.5130   25.9520   45.7240 C   0  0  0  0  0  0  0  0  0  0  0  0
   55.4620   26.5910   46.0030 O   0  0  0  0  0  0  0  0  0  0  0  0
   56.3960   24.5680   45.2130 C   0  0  0  0  0  0  0  0  0  0  0  0
   57.4780   24.0080   44.5120 C   0  0  0  0  0  0  0  0  0  0  0  0
   58.3953   24.5969   44.3646 H   0  0  0  0  0  0  0  0  0  0  0  0
   57.3990   22.7110   44.0010 C   0  0  0  0  0  0  0  0  0  0  0  0
   58.2470   22.2880   43.4424 H   0  0  0  0  0  0  0  0  0  0  0  0
   56.2460   21.9510   44.1980 C   0  0  0  0  0  0  0  0  0  0  0  0
   56.1840   20.9302   43.7930 H   0  0  0  0  0  0  0  0  0  0  0  0
   55.1700   22.4870   44.9100 C   0  0  0  0  0  0  0  0  0  0  0  0
   54.2679   21.8793   45.0742 H   0  0  0  0  0  0  0  0  0  0  0  0
   55.2300   23.7900   45.4160 C   0  0  0  0  0  0  0  0  0  0  0  0
   54.1100   24.2880   46.0850 O   0  0  0  0  0  0  0  0  0  0  0  0
   54.0180   25.2550   46.3680 H   0  0  0  0  0  0  0  0  0  0  0  0
  1  2  1  0
  2  3  1  0
  3  4  2  0
  3  5  2  0
  3  6  1  0
  6  7  2  0
  7  8  1  0
  7  9  1  0
  9 10  1  0
  9 11  2  0
 11 12  1  0
 11 13  1  0
 13 14  1  0
 13 15  2  0
 15 16  1  0
 16 17  1  0
 16 18  2  0
 18 19  1  0
 18 20  1  0
 20 21  2  0
 20 22  1  0
 22 23  2  0
 23 24  1  0
 23 25  1  0
 25 26  1  0
 25 27  2  0
 27 28  1  0
 27 29  1  0
 29 30  1  0
 29 31  2  0
 31 32  1  0
 32 33  1  0
 15  6  1  0
 31 22  1  0
M  CHG  1   2  -1
M  END
>  <UniqueID>  (37) 
36

>  <SMILES>  (37) 
[NH-]S(=O)(=O)c1cccc(F)c1/C=C\C(=O)c1ccccc1O

>  <Energy>  (37) 
47.91734271757036

>  <Genealogy>  (37) 
[NH-]S(=O)(=O)c1cccc(F)c1C=CC(=O)c1ccccc1O (protonated)
[NH-]S(=O)(=O)c1cccc(F)c1/C=C\C(=O)c1ccccc1O (cis-trans isomerization)
[NH-]S(=O)(=O)c1cccc(F)c1/C=C\C(=O)c1ccccc1O (3D coordinates assigned)
[NH-]S(=O)(=O)c1cccc(F)c1/C=C\C(=O)c1ccccc1O (optimized conformer: 47.91734271757036 kcal/mol)

>  <smiles>  (37) 
NS(=O)(=O)c1cccc(F)c1C=CC(=O)c1ccccc1O

>  <score_type>  (37) 
oracle

>  <origin>  (37) 
adg

>  <m_score__min__energy>  (37) 
-10.9

>  <m_primary>  (37) 
energy

$$$$
37:0
     RDKit          3D

 49 52  0  0  0  0  0  0  0  0999 V2000
   58.1500   32.3350   42.1890 C   0  0  0  0  0  0  0  0  0  0  0  0
   57.2560   31.4970   43.0980 C   0  0  0  0  0  0  0  0  0  0  0  0
   57.9740   31.1420   44.4060 C   0  0  0  0  0  0  0  0  0  0  0  0
   57.5990   29.7570   44.8600 C   0  0  0  0  0  0  0  0  0  0  0  0
   56.0040   29.1940   44.8730 S   0  0  0  0  0  0  0  0  0  0  0  0
   56.3830   27.7070   45.5490 C   0  0  0  0  0  0  0  0  0  0  0  0
   55.5100   26.7160   45.8540 N   0  0  0  0  0  0  0  0  0  0  0  0
   55.9810   25.5760   46.4310 C   0  0  0  0  0  0  0  0  0  0  0  0
   55.1870   24.6390   46.7120 O   0  0  0  0  0  0  0  0  0  0  0  0
   57.3110   25.4470   46.7130 N   0  0  0  0  0  0  0  0  0  0  0  0
   58.2050   26.4340   46.4180 C   0  0  0  0  0  0  0  0  0  0  0  0
   59.4160   26.2800   46.7220 O   0  0  0  0  0  0  0  0  0  0  0  0
   57.7390   27.6080   45.7960 C   0  0  0  0  0  0  0  0  0  0  0  0
   58.4560   28.7670   45.3990 C   0  0  0  0  0  0  0  0  0  0  0  0
   59.9540   28.9420   45.5480 C   0  0  0  0  0  0  0  0  0  0  0  0
   60.3950   29.4420   46.9090 C   0  0  0  0  0  0  0  0  0  0  0  0
   60.0060   28.8130   48.1150 C   0  0  0  0  0  0  0  0  0  0  0  0
   60.4840   29.2900   49.3370 C   0  0  0  0  0  0  0  0  0  0  0  0
   61.3620   30.3860   49.3750 C   0  0  0  0  0  0  0  0  0  0  0  0
   61.7630   31.0180   48.1910 C   0  0  0  0  0  0  0  0  0  0  0  0
   62.6590   32.1370   48.2710 N   0  0  0  0  0  0  0  0  0  0  0  0
   62.2550   33.7550   47.8000 S   0  0  0  0  0  0  0  0  0  0  0  0
   62.3640   34.6590   48.9870 O   0  0  0  0  0  0  0  0  0  0  0  0
   63.2150   34.2150   46.7380 O   0  0  0  0  0  0  0  0  0  0  0  0
   60.5970   33.7880   47.2040 C   0  0  0  0  0  0  0  0  0  0  0  0
   60.3310   34.3020   45.9260 C   0  0  0  0  0  0  0  0  0  0  0  0
   59.0180   34.3570   45.4500 C   0  0  0  0  0  0  0  0  0  0  0  0
   57.9650   33.8960   46.2470 C   0  0  0  0  0  0  0  0  0  0  0  0
   58.2260   33.3810   47.5200 C   0  0  0  0  0  0  0  0  0  0  0  0
   59.5390   33.3280   48.0000 C   0  0  0  0  0  0  0  0  0  0  0  0
   61.2820   30.5370   46.9600 C   0  0  0  0  0  0  0  0  0  0  0  0
   58.8157   32.9590   42.8035 H   0  0  0  0  0  0  0  0  0  0  0  0
   58.7537   31.6698   41.5541 H   0  0  0  0  0  0  0  0  0  0  0  0
   57.5252   32.9804   41.5541 H   0  0  0  0  0  0  0  0  0  0  0  0
   56.3456   32.0683   43.3319 H   0  0  0  0  0  0  0  0  0  0  0  0
   57.0035   30.5633   42.5742 H   0  0  0  0  0  0  0  0  0  0  0  0
   59.0612   31.1871   44.2448 H   0  0  0  0  0  0  0  0  0  0  0  0
   57.6728   31.8619   45.1813 H   0  0  0  0  0  0  0  0  0  0  0  0
   60.4335   27.9686   45.3675 H   0  0  0  0  0  0  0  0  0  0  0  0
   60.2537   29.7101   44.8198 H   0  0  0  0  0  0  0  0  0  0  0  0
   59.3269   27.9480   48.0899 H   0  0  0  0  0  0  0  0  0  0  0  0
   60.1718   28.8056   50.2740 H   0  0  0  0  0  0  0  0  0  0  0  0
   61.7376   30.7508   50.3424 H   0  0  0  0  0  0  0  0  0  0  0  0
   61.1581   34.6627   45.2968 H   0  0  0  0  0  0  0  0  0  0  0  0
   58.8127   34.7629   44.4484 H   0  0  0  0  0  0  0  0  0  0  0  0
   56.9318   33.9387   45.8721 H   0  0  0  0  0  0  0  0  0  0  0  0
   57.3976   33.0168   48.1454 H   0  0  0  0  0  0  0  0  0  0  0  0
   59.7413   32.9249   49.0033 H   0  0  0  0  0  0  0  0  0  0  0  0
   61.6017   31.0210   46.0254 H   0  0  0  0  0  0  0  0  0  0  0  0
  1  2  1  0
  2  3  1  0
  3  4  1  0
  4  5  1  0
  5  6  1  0
  6  7  1  0
  7  8  1  0
  8  9  2  0
  8 10  1  0
 10 11  1  0
 11 12  2  0
 11 13  1  0
 13 14  1  0
 14 15  1  0
 15 16  1  0
 16 17  2  0
 17 18  1  0
 18 19  2  0
 19 20  1  0
 20 21  1  0
 21 22  1  0
 22 23  2  0
 22 24  2  0
 22 25  1  0
 25 26  2  0
 26 27  1  0
 27 28  2  0
 28 29  1  0
 29 30  2  0
 20 31  2  0
 14  4  2  0
 31 16  1  0
 13  6  2  0
 30 25  1  0
  1 32  1  0
  1 33  1  0
  1 34  1  0
  2 35  1  0
  2 36  1  0
  3 37  1  0
  3 38  1  0
 15 39  1  0
 15 40  1  0
 17 41  1  0
 18 42  1  0
 19 43  1  0
 26 44  1  0
 27 45  1  0
 28 46  1  0
 29 47  1  0
 30 48  1  0
 31 49  1  0
M  CHG  3   7  -1  10  -1  21  -1
M  END
>  <UniqueID>  (38) 
37

>  <SMILES>  (38) 
CCCc1sc2[n-]c(=O)[n-]c(=O)c2c1Cc1cccc([N-]S(=O)(=O)c2ccccc2)c1

>  <Energy>  (38) 
85.74596130398925

>  <Genealogy>  (38) 
CCCc1sc2[n-]c(=O)[n-]c(=O)c2c1Cc1cccc([N-]S(=O)(=O)c2ccccc2)c1 (protonated)
CCCc1sc2[n-]c(=O)[n-]c(=O)c2c1Cc1cccc([N-]S(=O)(=O)c2ccccc2)c1 (3D coordinates assigned)
CCCc1sc2[n-]c(=O)[n-]c(=O)c2c1Cc1cccc([N-]S(=O)(=O)c2ccccc2)c1 (optimized conformer: 85.74596130398925 kcal/mol)

>  <smiles>  (38) 
CCCc1sc2[nH]c(=O)[nH]c(=O)c2c1Cc1cccc(NS(=O)(=O)c2ccccc2)c1

>  <score_type>  (38) 
oracle

>  <origin>  (38) 
adg

>  <m_score__min__energy>  (38) 
-14.470000000000001

>  <m_primary>  (38) 
energy

$$$$
38:0
     RDKit          3D

 45 48  0  0  0  0  0  0  0  0999 V2000
   57.9080   31.9400   50.4930 C   0  0  0  0  0  0  0  0  0  0  0  0
   58.8640   31.0130   49.9920 O   0  0  0  0  0  0  0  0  0  0  0  0
   59.6840   31.3100   48.8990 C   0  0  0  0  0  0  0  0  0  0  0  0
   59.5340   30.6680   47.6400 C   0  0  0  0  0  0  0  0  0  0  0  0
   58.4970   29.7590   47.3910 O   0  0  0  0  0  0  0  0  0  0  0  0
   58.3540   29.0140   46.2090 C   0  0  0  0  0  0  0  0  0  0  0  0
   58.9320   27.7390   46.0680 C   0  0  0  0  0  0  0  0  0  0  0  0
   58.7780   27.0220   44.8800 C   0  0  0  0  0  0  0  0  0  0  0  0
   58.0390   27.5650   43.8290 C   0  0  0  0  0  0  0  0  0  0  0  0
   57.4480   28.8230   43.9630 C   0  0  0  0  0  0  0  0  0  0  0  0
   57.6010   29.5570   45.1570 C   0  0  0  0  0  0  0  0  0  0  0  0
   57.0300   30.8290   45.3360 O   0  0  0  0  0  0  0  0  0  0  0  0
   57.2710   31.9680   44.5080 C   0  0  0  0  0  0  0  0  0  0  0  0
   58.0180   33.0260   45.2750 C   0  0  0  0  0  0  0  0  0  0  0  0
   58.9220   33.8670   44.6060 C   0  0  0  0  0  0  0  0  0  0  0  0
   59.6050   34.8660   45.3050 C   0  0  0  0  0  0  0  0  0  0  0  0
   59.3990   35.0250   46.6780 C   0  0  0  0  0  0  0  0  0  0  0  0
   58.5110   34.1840   47.3540 C   0  0  0  0  0  0  0  0  0  0  0  0
   57.8230   33.1840   46.6570 C   0  0  0  0  0  0  0  0  0  0  0  0
   60.4530   30.9370   46.6000 C   0  0  0  0  0  0  0  0  0  0  0  0
   61.4780   31.8820   46.7680 C   0  0  0  0  0  0  0  0  0  0  0  0
   61.5680   32.5390   47.9930 C   0  0  0  0  0  0  0  0  0  0  0  0
   62.4660   33.4980   48.4240 C   0  0  0  0  0  0  0  0  0  0  0  0
   63.4080   33.9910   47.7500 O   0  0  0  0  0  0  0  0  0  0  0  0
   62.1480   33.8150   49.7320 C   0  0  0  0  0  0  0  0  0  0  0  0
   62.7510   34.6510   50.4570 O   0  0  0  0  0  0  0  0  0  0  0  0
   61.0580   33.0520   50.1090 C   0  0  0  0  0  0  0  0  0  0  0  0
   60.4970   33.0710   51.2370 O   0  0  0  0  0  0  0  0  0  0  0  0
   60.6970   32.2650   49.0280 C   0  0  0  0  0  0  0  0  0  0  0  0
   57.9238   31.9247   51.5928 H   0  0  0  0  0  0  0  0  0  0  0  0
   58.1558   32.9508   50.1368 H   0  0  0  0  0  0  0  0  0  0  0  0
   56.9053   31.6612   50.1368 H   0  0  0  0  0  0  0  0  0  0  0  0
   59.5083   27.3048   46.8982 H   0  0  0  0  0  0  0  0  0  0  0  0
   59.2393   26.0292   44.7729 H   0  0  0  0  0  0  0  0  0  0  0  0
   57.9215   27.0007   42.8921 H   0  0  0  0  0  0  0  0  0  0  0  0
   56.8605   29.2432   43.1334 H   0  0  0  0  0  0  0  0  0  0  0  0
   57.8684   31.6625   43.6364 H   0  0  0  0  0  0  0  0  0  0  0  0
   56.3058   32.3805   44.1790 H   0  0  0  0  0  0  0  0  0  0  0  0
   59.0933   33.7389   43.5270 H   0  0  0  0  0  0  0  0  0  0  0  0
   60.3052   35.5276   44.7740 H   0  0  0  0  0  0  0  0  0  0  0  0
   59.9361   35.8125   47.2269 H   0  0  0  0  0  0  0  0  0  0  0  0
   58.3525   34.3081   48.4354 H   0  0  0  0  0  0  0  0  0  0  0  0
   57.1282   32.5205   47.1927 H   0  0  0  0  0  0  0  0  0  0  0  0
   60.3638   30.3982   45.6452 H   0  0  0  0  0  0  0  0  0  0  0  0
   62.1887   32.0970   45.9564 H   0  0  0  0  0  0  0  0  0  0  0  0
  1  2  1  0
  2  3  1  0
  3  4  2  0
  4  5  1  0
  5  6  1  0
  6  7  2  0
  7  8  1  0
  8  9  2  0
  9 10  1  0
 10 11  2  0
 11 12  1  0
 12 13  1  0
 13 14  1  0
 14 15  2  0
 15 16  1  0
 16 17  2  0
 17 18  1  0
 18 19  2  0
  4 20  1  0
 20 21  2  0
 21 22  1  0
 22 23  1  0
 23 24  2  0
 23 25  1  0
 25 26  2  0
 25 27  1  0
 27 28  2  0
 27 29  1  0
 29  3  1  0
 11  6  1  0
 19 14  1  0
 29 22  2  0
  1 30  1  0
  1 31  1  0
  1 32  1  0
  7 33  1  0
  8 34  1  0
  9 35  1  0
 10 36  1  0
 13 37  1  0
 13 38  1  0
 15 39  1  0
 16 40  1  0
 17 41  1  0
 18 42  1  0
 19 43  1  0
 20 44  1  0
 21 45  1  0
M  END
>  <UniqueID>  (39) 
38

>  <SMILES>  (39) 
COc1c(Oc2ccccc2OCc2ccccc2)ccc2c(=O)c(=O)c(=O)c12

>  <Energy>  (39) 
96.01958943876436

>  <Genealogy>  (39) 
COc1c(Oc2ccccc2OCc2ccccc2)ccc2c(=O)c(=O)c(=O)c12 (3D coordinates assigned)
COc1c(Oc2ccccc2OCc2ccccc2)ccc2c(=O)c(=O)c(=O)c12 (optimized conformer: 96.01958943876436 kcal/mol)

>  <smiles>  (39) 
COc1c(Oc2ccccc2OCc2ccccc2)ccc2c(=O)c(=O)c(=O)c12

>  <score_type>  (39) 
oracle

>  <origin>  (39) 
adg

>  <m_score__min__energy>  (39) 
-9.2400000000000002

>  <m_primary>  (39) 
energy

$$$$
39:0
     RDKit          3D

 41 43  0  0  0  0  0  0  0  0999 V2000
   56.5010   22.5500   43.6730 C   0  0  0  0  0  0  0  0  0  0  0  0
   56.6680   23.9180   44.2630 C   0  0  0  0  0  0  0  0  0  0  0  0
   57.6060   24.8110   43.7230 C   0  0  0  0  0  0  0  0  0  0  0  0
   57.7370   26.0990   44.2500 C   0  0  0  0  0  0  0  0  0  0  0  0
   56.9320   26.5110   45.3230 C   0  0  0  0  0  0  0  0  0  0  0  0
   57.0550   27.8740   45.8780 C   0  0  0  0  0  0  0  0  0  0  0  0
   56.2910   28.7790   45.4500 O   0  0  0  0  0  0  0  0  0  0  0  0
   58.0080   28.2040   46.8960 N   0  0  0  0  0  0  0  0  0  0  0  0
   58.7690   29.7530   47.0880 S   0  0  0  0  0  0  0  0  0  0  0  0
   58.5280   30.2930   48.4720 O   0  0  0  0  0  0  0  0  0  0  0  0
   60.2470   29.5880   46.8750 O   0  0  0  0  0  0  0  0  0  0  0  0
   58.1160   30.8690   45.9030 N   0  0  2  0  0  0  0  0  0  0  0  0
   58.4810   30.3940   44.5520 C   0  0  0  0  0  0  0  0  0  0  0  0
   57.8180   31.2260   43.4280 C   0  0  0  0  0  0  0  0  0  0  0  0
   57.4210   32.6550   43.8430 C   0  0  0  0  0  0  0  0  0  0  0  0
   58.2240   33.1570   45.0110 C   0  0  0  0  0  0  0  0  0  0  0  0
   58.5640   34.5140   45.1070 C   0  0  0  0  0  0  0  0  0  0  0  0
   59.2390   34.9900   46.2300 C   0  0  0  0  0  0  0  0  0  0  0  0
   59.5580   34.1200   47.2710 C   0  0  0  0  0  0  0  0  0  0  0  0
   59.2090   32.7690   47.1950 C   0  0  0  0  0  0  0  0  0  0  0  0
   58.5450   32.2580   46.0520 C   0  0  0  0  0  0  0  0  0  0  0  0
   55.9680   25.6310   45.8350 C   0  0  0  0  0  0  0  0  0  0  0  0
   55.8360   24.3420   45.3090 C   0  0  0  0  0  0  0  0  0  0  0  0
   56.4107   21.8103   44.4821 H   0  0  0  0  0  0  0  0  0  0  0  0
   55.5934   22.5268   43.0520 H   0  0  0  0  0  0  0  0  0  0  0  0
   57.3764   22.3091   43.0520 H   0  0  0  0  0  0  0  0  0  0  0  0
   58.2408   24.4962   42.8816 H   0  0  0  0  0  0  0  0  0  0  0  0
   58.4749   26.7932   43.8214 H   0  0  0  0  0  0  0  0  0  0  0  0
   57.0740   30.8370   46.0010 H   0  0  0  0  0  0  0  0  0  0  0  0
   59.5734   30.4577   44.4396 H   0  0  0  0  0  0  0  0  0  0  0  0
   58.1223   29.3587   44.4552 H   0  0  0  0  0  0  0  0  0  0  0  0
   58.5256   31.2957   42.5887 H   0  0  0  0  0  0  0  0  0  0  0  0
   56.8858   30.7064   43.1615 H   0  0  0  0  0  0  0  0  0  0  0  0
   57.5818   33.3285   42.9883 H   0  0  0  0  0  0  0  0  0  0  0  0
   56.3640   32.6344   44.1469 H   0  0  0  0  0  0  0  0  0  0  0  0
   58.2973   35.2050   44.2937 H   0  0  0  0  0  0  0  0  0  0  0  0
   59.5197   36.0516   46.2945 H   0  0  0  0  0  0  0  0  0  0  0  0
   60.0875   34.4990   48.1576 H   0  0  0  0  0  0  0  0  0  0  0  0
   59.4520   32.0958   48.0303 H   0  0  0  0  0  0  0  0  0  0  0  0
   55.3115   25.9565   46.6554 H   0  0  0  0  0  0  0  0  0  0  0  0
   55.0770   23.6584   45.7172 H   0  0  0  0  0  0  0  0  0  0  0  0
  1  2  1  0
  2  3  2  0
  3  4  1  0
  4  5  2  0
  5  6  1  0
  6  7  2  0
  6  8  1  0
  8  9  1  0
  9 10  2  0
  9 11  2  0
  9 12  1  0
 12 13  1  0
 13 14  1  0
 14 15  1  0
 15 16  1  0
 16 17  2  0
 17 18  1  0
 18 19  2  0
 19 20  1  0
 20 21  2  0
  5 22  1  0
 22 23  2  0
 23  2  1  0
 21 12  1  0
 21 16  1  0
  1 24  1  0
  1 25  1  0
  1 26  1  0
  3 27  1  0
  4 28  1  0
 12 29  1  6
 13 30  1  0
 13 31  1  0
 14 32  1  0
 14 33  1  0
 15 34  1  0
 15 35  1  0
 17 36  1  0
 18 37  1  0
 19 38  1  0
 20 39  1  0
 22 40  1  0
 23 41  1  0
M  CHG  2   8  -1  12   1
M  END
>  <UniqueID>  (40) 
39

>  <SMILES>  (40) 
Cc1ccc(C(=O)[N-]S(=O)(=O)[N@@H+]2CCCc3ccccc32)cc1

>  <Energy>  (40) 
61.12867949463849

>  <Genealogy>  (40) 
Cc1ccc(C(=O)[N-]S(=O)(=O)[NH+]2CCCc3ccccc32)cc1 (protonated)
Cc1ccc(C(=O)[N-]S(=O)(=O)[N@@H+]2CCCc3ccccc32)cc1 (chirality)
Cc1ccc(C(=O)[N-]S(=O)(=O)[N@@H+]2CCCc3ccccc32)cc1 (3D coordinates assigned)
Cc1ccc(C(=O)[N-]S(=O)(=O)[N@@H+]2CCCc3ccccc32)cc1 (nonaromatic ring conformer: 61.12867949463849 kcal/mol)

>  <smiles>  (40) 
Cc1ccc(C(=O)NS(=O)(=O)N2CCCc3ccccc32)cc1

>  <score_type>  (40) 
oracle

>  <origin>  (40) 
adg

>  <m_score__min__energy>  (40) 
-8.6799999999999997

>  <m_primary>  (40) 
energy

$$$$
40:0
     RDKit          3D

 44 47  0  0  0  0  0  0  0  0999 V2000
   55.5400   26.9650   46.0320 O   0  0  0  0  0  0  0  0  0  0  0  0
   56.7080   27.4390   45.9780 C   0  0  0  0  0  0  0  0  0  0  0  0
   57.8250   26.5900   46.2690 N   0  0  0  0  0  0  0  0  0  0  0  0
   57.6980   25.2310   46.7830 C   0  0  0  0  0  0  0  0  0  0  0  0
   57.2090   24.3080   45.7010 C   0  0  0  0  0  0  0  0  0  0  0  0
   56.8970   22.9680   45.9880 C   0  0  0  0  0  0  0  0  0  0  0  0
   56.4670   22.1110   44.9700 C   0  0  0  0  0  0  0  0  0  0  0  0
   56.3480   22.5850   43.6590 C   0  0  0  0  0  0  0  0  0  0  0  0
   55.9200   21.7310   42.6480 O   0  0  0  0  0  0  0  0  0  0  0  0
   56.6600   23.9150   43.3650 C   0  0  0  0  0  0  0  0  0  0  0  0
   57.0920   24.7740   44.3800 C   0  0  0  0  0  0  0  0  0  0  0  0
   56.9110   28.8630   45.6040 C   0  0  0  0  0  0  0  0  0  0  0  0
   58.0910   29.5250   46.0290 C   0  0  0  0  0  0  0  0  0  0  0  0
   58.2680   30.8580   45.6710 C   0  0  0  0  0  0  0  0  0  0  0  0
   59.3070   31.6530   45.9620 N   0  0  0  0  0  0  0  0  0  0  0  0
   58.9560   32.8180   45.3590 C   0  0  0  0  0  0  0  0  0  0  0  0
   60.0020   34.2700   45.3810 S   0  0  0  0  0  0  0  0  0  0  0  0
   60.0820   34.3710   47.2040 C   0  0  0  0  0  0  0  0  0  0  0  0
   61.4310   33.9340   47.7120 C   0  0  0  0  0  0  0  0  0  0  0  0
   62.4400   33.5880   46.7980 C   0  0  0  0  0  0  0  0  0  0  0  0
   63.6870   33.1510   47.2540 C   0  0  0  0  0  0  0  0  0  0  0  0
   63.9370   33.0530   48.6260 C   0  0  0  0  0  0  0  0  0  0  0  0
   65.1460   32.6270   49.0650 F   0  0  0  0  0  0  0  0  0  0  0  0
   62.9380   33.3920   49.5430 C   0  0  0  0  0  0  0  0  0  0  0  0
   61.6890   33.8320   49.0940 C   0  0  0  0  0  0  0  0  0  0  0  0
   60.7340   34.1460   50.0050 F   0  0  0  0  0  0  0  0  0  0  0  0
   57.7600   32.7890   44.7150 N   0  0  0  0  0  0  0  0  0  0  0  0
   57.3510   31.5320   44.9310 C   0  0  0  0  0  0  0  0  0  0  0  0
   56.1800   30.9320   44.4850 C   0  0  0  0  0  0  0  0  0  0  0  0
   55.9560   29.5840   44.8210 C   0  0  0  0  0  0  0  0  0  0  0  0
   54.7910   28.9770   44.3660 O   0  0  0  0  0  0  0  0  0  0  0  0
   58.6793   24.8846   47.1396 H   0  0  0  0  0  0  0  0  0  0  0  0
   56.9738   25.2275   47.6110 H   0  0  0  0  0  0  0  0  0  0  0  0
   56.9914   22.5919   47.0174 H   0  0  0  0  0  0  0  0  0  0  0  0
   56.2222   21.0636   45.2001 H   0  0  0  0  0  0  0  0  0  0  0  0
   56.5656   24.2865   42.3339 H   0  0  0  0  0  0  0  0  0  0  0  0
   57.3414   25.8190   44.1438 H   0  0  0  0  0  0  0  0  0  0  0  0
   58.8483   28.9973   46.6274 H   0  0  0  0  0  0  0  0  0  0  0  0
   59.9005   35.4105   47.5146 H   0  0  0  0  0  0  0  0  0  0  0  0
   59.3165   33.7027   47.6251 H   0  0  0  0  0  0  0  0  0  0  0  0
   62.2478   33.6614   45.7174 H   0  0  0  0  0  0  0  0  0  0  0  0
   64.4729   32.8838   46.5322 H   0  0  0  0  0  0  0  0  0  0  0  0
   63.1352   33.3123   50.6222 H   0  0  0  0  0  0  0  0  0  0  0  0
   55.4487   31.4947   43.8862 H   0  0  0  0  0  0  0  0  0  0  0  0
  1  2  2  0
  2  3  1  0
  3  4  1  0
  4  5  1  0
  5  6  2  0
  6  7  1  0
  7  8  2  0
  8  9  1  0
  8 10  1  0
 10 11  2  0
  2 12  1  0
 12 13  2  0
 13 14  1  0
 14 15  1  0
 15 16  2  0
 16 17  1  0
 17 18  1  0
 18 19  1  0
 19 20  2  0
 20 21  1  0
 21 22  2  0
 22 23  1  0
 22 24  1  0
 24 25  2  0
 25 26  1  0
 16 27  1  0
 27 28  1  0
 28 29  1  0
 29 30  2  0
 30 31  1  0
 11  5  1  0
 30 12  1  0
 28 14  2  0
 25 19  1  0
  4 32  1  0
  4 33  1  0
  6 34  1  0
  7 35  1  0
 10 36  1  0
 11 37  1  0
 13 38  1  0
 18 39  1  0
 18 40  1  0
 20 41  1  0
 21 42  1  0
 24 43  1  0
 29 44  1  0
M  CHG  4   3  -1   9  -1  27  -1  31  -1
M  END
>  <UniqueID>  (41) 
40

>  <SMILES>  (41) 
O=C([N-]Cc1ccc([O-])cc1)c1cc2nc(SCc3ccc(F)cc3F)[n-]c2cc1[O-]

>  <Energy>  (41) 
79.63608012138984

>  <Genealogy>  (41) 
O=C([N-]Cc1ccc([O-])cc1)c1cc2nc(SCc3ccc(F)cc3F)[n-]c2cc1[O-] (protonated)
O=C([N-]Cc1ccc([O-])cc1)c1cc2nc(SCc3ccc(F)cc3F)[n-]c2cc1[O-] (3D coordinates assigned)
O=C([N-]Cc1ccc([O-])cc1)c1cc2nc(SCc3ccc(F)cc3F)[n-]c2cc1[O-] (optimized conformer: 79.63608012138984 kcal/mol)

>  <smiles>  (41) 
O=C(NCc1ccc(O)cc1)c1cc2nc(SCc3ccc(F)cc3F)[nH]c2cc1O

>  <score_type>  (41) 
oracle

>  <origin>  (41) 
adg

>  <m_score__min__energy>  (41) 
-16.170000000000002

>  <m_primary>  (41) 
energy

$$$$
41:0
     RDKit          3D

 39 41  0  0  0  0  0  0  0  0999 V2000
   57.3850   21.5220   46.3650 C   0  0  0  0  0  0  0  0  0  0  0  0
   56.8230   21.9930   45.0640 C   0  0  0  0  0  0  0  0  0  0  0  0
   56.8960   21.3270   43.9010 N   0  0  0  0  0  0  0  0  0  0  0  0
   56.2440   22.0320   43.0230 O   0  0  0  0  0  0  0  0  0  0  0  0
   55.7300   23.1230   43.5190 N   0  0  0  0  0  0  0  0  0  0  0  0
   56.0770   23.1240   44.8200 C   0  0  0  0  0  0  0  0  0  0  0  0
   55.6190   24.3650   45.9710 S   0  0  0  0  0  0  0  0  0  0  0  0
   54.4390   25.1350   45.4500 O   0  0  0  0  0  0  0  0  0  0  0  0
   55.2330   23.7180   47.2710 O   0  0  0  0  0  0  0  0  0  0  0  0
   56.9440   25.4460   46.2410 N   0  0  0  0  0  0  0  0  0  0  0  0
   56.9440   26.8060   45.8000 C   0  0  0  0  0  0  0  0  0  0  0  0
   55.8510   27.4090   45.6200 O   0  0  0  0  0  0  0  0  0  0  0  0
   58.2220   27.5350   45.6260 C   0  0  0  0  0  0  0  0  0  0  0  0
   59.4050   26.9340   46.0960 C   0  0  0  0  0  0  0  0  0  0  0  0
   60.6490   27.5180   45.8450 C   0  0  0  0  0  0  0  0  0  0  0  0
   60.7300   28.7050   45.1180 C   0  0  0  0  0  0  0  0  0  0  0  0
   59.5660   29.3270   44.6650 C   0  0  0  0  0  0  0  0  0  0  0  0
   58.3060   28.7730   44.9440 C   0  0  0  0  0  0  0  0  0  0  0  0
   56.8380   29.7030   44.4560 S   0  0  0  0  0  0  0  0  0  0  0  0
   57.5460   31.3070   44.8800 C   0  0  0  0  0  0  0  0  0  0  0  0
   57.8450   31.5630   46.2260 C   0  0  0  0  0  0  0  0  0  0  0  0
   58.3960   32.7890   46.6080 C   0  0  0  0  0  0  0  0  0  0  0  0
   58.6600   33.7670   45.6470 C   0  0  0  0  0  0  0  0  0  0  0  0
   58.3770   33.5180   44.3020 C   0  0  0  0  0  0  0  0  0  0  0  0
   57.8250   32.2910   43.9090 C   0  0  0  0  0  0  0  0  0  0  0  0
   57.5550   32.0730   42.5110 C   0  0  0  0  0  0  0  0  0  0  0  0
   57.3260   31.9070   41.3890 N   0  0  0  0  0  0  0  0  0  0  0  0
   56.8305   21.9867   47.1936 H   0  0  0  0  0  0  0  0  0  0  0  0
   57.2923   20.4278   46.4298 H   0  0  0  0  0  0  0  0  0  0  0  0
   58.4461   21.8046   46.4298 H   0  0  0  0  0  0  0  0  0  0  0  0
   57.3730   20.4170   43.7160 H   0  0  0  0  0  0  0  0  0  0  0  0
   59.3493   25.9952   46.6666 H   0  0  0  0  0  0  0  0  0  0  0  0
   61.5658   27.0408   46.2214 H   0  0  0  0  0  0  0  0  0  0  0  0
   61.7118   29.1513   44.9015 H   0  0  0  0  0  0  0  0  0  0  0  0
   59.6358   30.2588   44.0846 H   0  0  0  0  0  0  0  0  0  0  0  0
   57.6445   30.7936   46.9861 H   0  0  0  0  0  0  0  0  0  0  0  0
   58.6220   32.9838   47.6668 H   0  0  0  0  0  0  0  0  0  0  0  0
   59.0906   34.7331   45.9490 H   0  0  0  0  0  0  0  0  0  0  0  0
   58.5886   34.2893   43.5468 H   0  0  0  0  0  0  0  0  0  0  0  0
  1  2  1  0
  2  3  2  0
  3  4  1  0
  4  5  1  0
  5  6  2  0
  6  7  1  0
  7  8  2  0
  7  9  2  0
  7 10  1  0
 10 11  1  0
 11 12  2  0
 11 13  1  0
 13 14  2  0
 14 15  1  0
 15 16  2  0
 16 17  1  0
 17 18  2  0
 18 19  1  0
 19 20  1  0
 20 21  2  0
 21 22  1  0
 22 23  2  0
 23 24  1  0
 24 25  2  0
 25 26  1  0
 26 27  3  0
  6  2  1  0
 18 13  1  0
 25 20  1  0
  1 28  1  0
  1 29  1  0
  1 30  1  0
  3 31  1  0
 14 32  1  0
 15 33  1  0
 16 34  1  0
 17 35  1  0
 21 36  1  0
 22 37  1  0
 23 38  1  0
 24 39  1  0
M  CHG  2   3   1  10  -1
M  END
>  <UniqueID>  (42) 
41

>  <SMILES>  (42) 
Cc1[nH+]onc1S(=O)(=O)[N-]C(=O)c1ccccc1Sc1ccccc1C#N

>  <Energy>  (42) 
78.29592401618623

>  <Genealogy>  (42) 
Cc1[nH+]onc1S(=O)(=O)[N-]C(=O)c1ccccc1Sc1ccccc1C#N (protonated)
Cc1[nH+]onc1S(=O)(=O)[N-]C(=O)c1ccccc1Sc1ccccc1C#N (3D coordinates assigned)
Cc1[nH+]onc1S(=O)(=O)[N-]C(=O)c1ccccc1Sc1ccccc1C#N (optimized conformer: 78.29592401618623 kcal/mol)

>  <smiles>  (42) 
Cc1nonc1S(=O)(=O)NC(=O)c1ccccc1Sc1ccccc1C#N

>  <score_type>  (42) 
oracle

>  <origin>  (42) 
adg

>  <m_score__min__energy>  (42) 
-10.66

>  <m_primary>  (42) 
energy

$$$$
42:0
     RDKit          3D

 54 57  0  0  0  0  0  0  0  0999 V2000
   63.3480   32.5580   47.1480 C   0  0  0  0  0  0  0  0  0  0  0  0
   62.3670   31.6550   47.7340 N   0  0  0  0  0  0  0  0  0  0  0  0
   61.3170   31.1140   47.0920 C   0  0  0  0  0  0  0  0  0  0  0  0
   60.5910   30.3870   48.0110 C   0  0  0  0  0  0  0  0  0  0  0  0
   59.2950   29.6830   47.7810 C   0  0  0  0  0  0  0  0  0  0  0  0
   59.4970   28.5950   46.8340 N   0  0  0  0  0  0  0  0  0  0  0  0
   59.0900   28.6460   45.4630 C   0  0  0  0  0  0  0  0  0  0  0  0
   59.9320   28.3980   44.5610 O   0  0  0  0  0  0  0  0  0  0  0  0
   57.7100   28.9880   45.0850 C   0  0  0  0  0  0  0  0  0  0  0  0
   57.2500   30.1940   44.5890 C   0  0  0  0  0  0  0  0  0  0  0  0
   58.0550   31.4380   44.3560 C   0  0  0  0  0  0  0  0  0  0  0  0
   57.1310   32.9200   44.8880 S   0  0  0  0  0  0  0  0  0  0  0  0
   58.3430   33.4310   46.1120 C   0  0  0  0  0  0  0  0  0  0  0  0
   59.4470   34.2050   45.7280 C   0  0  0  0  0  0  0  0  0  0  0  0
   60.3890   34.6020   46.6830 C   0  0  0  0  0  0  0  0  0  0  0  0
   60.2330   34.2240   48.0230 C   0  0  0  0  0  0  0  0  0  0  0  0
   59.1280   33.4570   48.4090 C   0  0  0  0  0  0  0  0  0  0  0  0
   58.1790   33.0680   47.4580 C   0  0  0  0  0  0  0  0  0  0  0  0
   55.9070   30.1520   44.5020 N   0  0  0  0  0  0  0  0  0  0  0  0
   55.5300   28.9780   44.9220 O   0  0  0  0  0  0  0  0  0  0  0  0
   56.5590   28.2490   45.2900 C   0  0  0  0  0  0  0  0  0  0  0  0
   56.4460   26.8880   45.8310 C   0  0  0  0  0  0  0  0  0  0  0  0
   57.4870   26.1920   45.9750 O   0  0  0  0  0  0  0  0  0  0  0  0
   55.1690   26.3600   46.2010 N   0  0  0  0  0  0  0  0  0  0  0  0
   54.5910   25.1550   45.6180 C   0  0  0  0  0  0  0  0  0  0  0  0
   55.6880   24.1980   45.2320 C   0  0  0  0  0  0  0  0  0  0  0  0
   56.3660   23.4710   46.2250 C   0  0  0  0  0  0  0  0  0  0  0  0
   57.3550   22.5480   45.8710 C   0  0  0  0  0  0  0  0  0  0  0  0
   57.6660   22.3380   44.5240 C   0  0  0  0  0  0  0  0  0  0  0  0
   56.9880   23.0480   43.5300 C   0  0  0  0  0  0  0  0  0  0  0  0
   55.9990   23.9740   43.8790 C   0  0  0  0  0  0  0  0  0  0  0  0
   61.2470   30.5590   49.2140 C   0  0  0  0  0  0  0  0  0  0  0  0
   62.3290   31.3400   49.0190 N   0  0  0  0  0  0  0  0  0  0  0  0
   63.9020   33.0679   47.9499 H   0  0  0  0  0  0  0  0  0  0  0  0
   64.0497   31.9832   46.5257 H   0  0  0  0  0  0  0  0  0  0  0  0
   62.8332   33.3048   46.5257 H   0  0  0  0  0  0  0  0  0  0  0  0
   61.0796   31.2306   46.0243 H   0  0  0  0  0  0  0  0  0  0  0  0
   58.9241   29.2764   48.7334 H   0  0  0  0  0  0  0  0  0  0  0  0
   58.5587   30.3920   47.3745 H   0  0  0  0  0  0  0  0  0  0  0  0
   58.9922   31.3731   44.9282 H   0  0  0  0  0  0  0  0  0  0  0  0
   58.2673   31.5232   43.2801 H   0  0  0  0  0  0  0  0  0  0  0  0
   59.5725   34.5001   44.6758 H   0  0  0  0  0  0  0  0  0  0  0  0
   61.2534   35.2118   46.3814 H   0  0  0  0  0  0  0  0  0  0  0  0
   60.9788   34.5300   48.7714 H   0  0  0  0  0  0  0  0  0  0  0  0
   59.0057   33.1598   49.4610 H   0  0  0  0  0  0  0  0  0  0  0  0
   57.3035   32.4771   47.7651 H   0  0  0  0  0  0  0  0  0  0  0  0
   53.9294   24.6745   46.3538 H   0  0  0  0  0  0  0  0  0  0  0  0
   54.0137   25.4262   44.7218 H   0  0  0  0  0  0  0  0  0  0  0  0
   56.1178   23.6285   47.2850 H   0  0  0  0  0  0  0  0  0  0  0  0
   57.8885   21.9870   46.6524 H   0  0  0  0  0  0  0  0  0  0  0  0
   58.4454   21.6130   44.2467 H   0  0  0  0  0  0  0  0  0  0  0  0
   57.2322   22.8786   42.4709 H   0  0  0  0  0  0  0  0  0  0  0  0
   55.4637   24.5278   43.0937 H   0  0  0  0  0  0  0  0  0  0  0  0
   60.9366   30.1279   50.1772 H   0  0  0  0  0  0  0  0  0  0  0  0
  1  2  1  0
  2  3  1  0
  3  4  2  0
  4  5  1  0
  5  6  1  0
  6  7  1  0
  7  8  2  0
  7  9  1  0
  9 10  1  0
 10 11  1  0
 11 12  1  0
 12 13  1  0
 13 14  2  0
 14 15  1  0
 15 16  2  0
 16 17  1  0
 17 18  2  0
 10 19  2  0
 19 20  1  0
 20 21  1  0
 21 22  1  0
 22 23  2  0
 22 24  1  0
 24 25  1  0
 25 26  1  0
 26 27  2  0
 27 28  1  0
 28 29  2  0
 29 30  1  0
 30 31  2  0
  4 32  1  0
 32 33  2  0
 33  2  1  0
 21  9  2  0
 31 26  1  0
 18 13  1  0
  1 34  1  0
  1 35  1  0
  1 36  1  0
  3 37  1  0
  5 38  1  0
  5 39  1  0
 11 40  1  0
 11 41  1  0
 14 42  1  0
 15 43  1  0
 16 44  1  0
 17 45  1  0
 18 46  1  0
 25 47  1  0
 25 48  1  0
 27 49  1  0
 28 50  1  0
 29 51  1  0
 30 52  1  0
 31 53  1  0
 32 54  1  0
M  CHG  2   6  -1  24  -1
M  END
>  <UniqueID>  (43) 
42

>  <SMILES>  (43) 
Cn1cc(C[N-]C(=O)c2c(CSc3ccccc3)noc2C(=O)[N-]Cc2ccccc2)cn1

>  <Energy>  (43) 
113.14768988763848

>  <Genealogy>  (43) 
Cn1cc(C[N-]C(=O)c2c(CSc3ccccc3)noc2C(=O)[N-]Cc2ccccc2)cn1 (protonated)
Cn1cc(C[N-]C(=O)c2c(CSc3ccccc3)noc2C(=O)[N-]Cc2ccccc2)cn1 (3D coordinates assigned)
Cn1cc(C[N-]C(=O)c2c(CSc3ccccc3)noc2C(=O)[N-]Cc2ccccc2)cn1 (optimized conformer: 113.14768988763848 kcal/mol)

>  <smiles>  (43) 
Cn1cc(CNC(=O)c2c(CSc3ccccc3)noc2C(=O)NCc2ccccc2)cn1

>  <score_type>  (43) 
oracle

>  <origin>  (43) 
adg

>  <m_score__min__energy>  (43) 
-13

>  <m_primary>  (43) 
energy

$$$$
43:0
     RDKit          3D

 45 47  0  0  1  0  0  0  0  0999 V2000
   64.1410   32.6110   46.7260 N   0  0  0  0  0  0  0  0  0  0  0  0
   62.9470   32.7680   47.9850 S   0  0  0  0  0  0  0  0  0  0  0  0
   63.0800   34.1110   48.6370 O   0  0  0  0  0  0  0  0  0  0  0  0
   63.2990   31.6910   48.9930 O   0  0  0  0  0  0  0  0  0  0  0  0
   61.3300   32.4920   47.3670 C   0  0  0  0  0  0  0  0  0  0  0  0
   60.8020   31.1990   47.4030 C   0  0  0  0  0  0  0  0  0  0  0  0
   59.5290   30.9620   46.9210 C   0  0  0  0  0  0  0  0  0  0  0  0
   58.7990   32.0180   46.4090 C   0  0  0  0  0  0  0  0  0  0  0  0
   57.4700   31.8060   45.8970 N   0  0  0  0  0  0  0  0  0  0  0  0
   57.3470   31.0000   44.8740 C   0  0  0  0  0  0  0  0  0  0  0  0
   56.8420   31.5810   43.7180 C   0  0  0  0  0  0  0  0  0  0  0  0
   56.7040   30.7460   42.6280 C   0  0  0  0  0  0  0  0  0  0  0  0
   57.0590   29.4650   42.7640 N   0  0  0  0  0  0  0  0  0  0  0  0
   57.5400   28.8970   43.8540 C   0  0  0  0  0  0  0  0  0  0  0  0
   57.9410   27.4920   44.0290 C   0  0  0  0  0  0  0  0  0  0  0  0
   58.4340   27.0920   45.3480 C   0  0  0  0  0  0  0  0  0  0  0  0
   59.6950   27.5870   45.7100 C   0  0  0  0  0  0  0  0  0  0  0  0
   60.2860   27.3080   46.9170 C   0  0  0  0  0  0  0  0  0  0  0  0
   59.6320   26.5090   47.8310 C   0  0  0  0  0  0  0  0  0  0  0  0
   58.4060   26.0250   47.4850 C   0  0  0  0  0  0  0  0  0  0  0  0
   57.7930   26.3020   46.2560 C   0  0  0  0  0  0  0  0  0  0  0  0
   56.2390   25.5990   45.9600 S   0  0  0  0  0  0  0  0  0  0  0  0
   56.1330   24.6810   44.5240 N   0  0  0  0  0  0  0  0  0  0  0  0
   55.8760   24.6740   47.0960 O   0  0  0  0  0  0  0  0  0  0  0  0
   55.1470   26.6700   45.9990 O   0  0  0  0  0  0  0  0  0  0  0  0
   57.6880   29.7030   44.9510 N   0  0  0  0  0  0  0  0  0  0  0  0
   59.2830   33.3110   46.3550 C   0  0  0  0  0  0  0  0  0  0  0  0
   60.5740   33.5390   46.8460 C   0  0  0  0  0  0  0  0  0  0  0  0
   64.4360   31.5910   46.7330 H   0  0  0  0  0  0  0  0  0  0  0  0
   65.0000   33.1490   46.9830 H   0  0  0  0  0  0  0  0  0  0  0  0
   61.3985   30.3713   47.8142 H   0  0  0  0  0  0  0  0  0  0  0  0
   59.1029   29.9481   46.9444 H   0  0  0  0  0  0  0  0  0  0  0  0
   56.5678   32.6454   43.6738 H   0  0  0  0  0  0  0  0  0  0  0  0
   56.3122   31.1249   41.6725 H   0  0  0  0  0  0  0  0  0  0  0  0
   56.9380   28.8510   41.9130 H   0  0  0  0  0  0  0  0  0  0  0  0
   57.0645   26.8677   43.8010 H   0  0  0  0  0  0  0  0  0  0  0  0
   58.7999   27.3583   43.3550 H   0  0  0  0  0  0  0  0  0  0  0  0
   60.2340   28.2267   44.9957 H   0  0  0  0  0  0  0  0  0  0  0  0
   61.2778   27.7203   47.1544 H   0  0  0  0  0  0  0  0  0  0  0  0
   60.0840   26.2707   48.8051 H   0  0  0  0  0  0  0  0  0  0  0  0
   57.8724   25.3867   48.2046 H   0  0  0  0  0  0  0  0  0  0  0  0
   55.3460   23.9910   44.5140 H   0  0  0  0  0  0  0  0  0  0  0  0
   56.2180   25.2270   43.6500 H   0  0  0  0  0  0  0  0  0  0  0  0
   58.6767   34.1305   45.9417 H   0  0  0  0  0  0  0  0  0  0  0  0
   60.9952   34.5548   46.8200 H   0  0  0  0  0  0  0  0  0  0  0  0
  1  2  1  0
  2  3  2  0
  2  4  2  0
  2  5  1  0
  5  6  2  0
  6  7  1  0
  7  8  2  0
  8  9  1  0
  9 10  2  0
 10 11  1  0
 11 12  2  0
 12 13  1  0
 13 14  1  0
 14 15  1  0
 15 16  1  0
 16 17  2  0
 17 18  1  0
 18 19  2  0
 19 20  1  0
 20 21  2  0
 21 22  1  0
 22 23  1  0
 22 24  2  0
 22 25  2  0
 14 26  2  0
  8 27  1  0
 27 28  2  0
 28  5  1  0
 26 10  1  0
 21 16  1  0
  1 29  1  0
  1 30  1  0
  6 31  1  0
  7 32  1  0
 11 33  1  0
 12 34  1  0
 13 35  1  0
 15 36  1  0
 15 37  1  0
 17 38  1  0
 18 39  1  0
 19 40  1  0
 20 41  1  0
 23 42  1  0
 23 43  1  0
 27 44  1  0
 28 45  1  0
M  END
>  <smiles>  (44) 
NS(=O)(=O)c1ccc(N=c2cc[nH]c(Cc3ccccc3S(N)(=O)=O)n2)cc1

>  <score_type>  (44) 
oracle

>  <origin>  (44) 
adg

>  <m_score__min__energy>  (44) 
-10.18

>  <m_primary>  (44) 
energy

$$$$
44:0
     RDKit          3D

 42 44  0  0  0  0  0  0  0  0999 V2000
   61.6250   33.8840   51.2780 N   0  0  0  0  0  0  0  0  0  0  0  0
   61.9440   33.5430   49.6140 S   0  0  0  0  0  0  0  0  0  0  0  0
   62.6720   32.2340   49.4970 O   0  0  0  0  0  0  0  0  0  0  0  0
   62.8180   34.6290   49.0550 O   0  0  0  0  0  0  0  0  0  0  0  0
   60.4220   33.4620   48.7160 C   0  0  0  0  0  0  0  0  0  0  0  0
   60.3080   34.1310   47.4860 C   0  0  0  0  0  0  0  0  0  0  0  0
   59.1160   34.0790   46.7620 C   0  0  0  0  0  0  0  0  0  0  0  0
   58.0250   33.3650   47.2580 C   0  0  0  0  0  0  0  0  0  0  0  0
   58.1230   32.6990   48.4820 C   0  0  0  0  0  0  0  0  0  0  0  0
   59.3220   32.7390   49.2230 C   0  0  0  0  0  0  0  0  0  0  0  0
   59.4420   32.0650   50.4860 N   0  0  0  0  0  0  0  0  0  0  0  0
   58.8310   32.6470   52.0020 S   0  0  0  0  0  0  0  0  0  0  0  0
   58.4880   34.1060   51.8760 O   0  0  0  0  0  0  0  0  0  0  0  0
   59.8930   32.4900   53.0530 O   0  0  0  0  0  0  0  0  0  0  0  0
   57.4230   31.6990   52.4710 C   0  0  0  0  0  0  0  0  0  0  0  0
   57.0970   31.5740   53.8260 C   0  0  0  0  0  0  0  0  0  0  0  0
   55.9880   30.8180   54.2150 C   0  0  0  0  0  0  0  0  0  0  0  0
   55.1830   30.1910   53.2550 C   0  0  0  0  0  0  0  0  0  0  0  0
   54.0640   29.4110   53.7020 N   0  0  0  0  0  0  0  0  0  0  0  0
   52.6990   29.8390   53.7850 C   0  0  0  0  0  0  0  0  0  0  0  0
   51.7950   29.0490   54.1680 O   0  0  0  0  0  0  0  0  0  0  0  0
   52.3420   31.2330   53.3790 C   0  0  0  0  0  0  0  0  0  0  0  0
   51.9170   31.2550   51.9440 C   0  0  0  0  0  0  0  0  0  0  0  0
   52.2420   30.0440   50.8170 S   0  0  0  0  0  0  0  0  0  0  0  0
   51.3660   30.8210   49.6090 C   0  0  0  0  0  0  0  0  0  0  0  0
   51.2250   30.3790   48.4390 O   0  0  0  0  0  0  0  0  0  0  0  0
   50.8110   31.9780   50.0290 N   0  0  0  0  0  0  0  0  0  0  0  0
   51.1140   32.2170   51.3340 C   0  0  0  0  0  0  0  0  0  0  0  0
   50.6420   33.3430   51.9990 O   0  0  0  0  0  0  0  0  0  0  0  0
   55.5300   30.2930   51.8950 C   0  0  0  0  0  0  0  0  0  0  0  0
   56.6380   31.0530   51.5060 C   0  0  0  0  0  0  0  0  0  0  0  0
   60.6040   33.7240   51.4390 H   0  0  0  0  0  0  0  0  0  0  0  0
   61.1632   34.6991   47.0912 H   0  0  0  0  0  0  0  0  0  0  0  0
   59.0366   34.6024   45.7978 H   0  0  0  0  0  0  0  0  0  0  0  0
   57.0869   33.3264   46.6849 H   0  0  0  0  0  0  0  0  0  0  0  0
   57.2591   32.1397   48.8704 H   0  0  0  0  0  0  0  0  0  0  0  0
   57.7154   32.0722   54.5871 H   0  0  0  0  0  0  0  0  0  0  0  0
   55.7453   30.7144   55.2829 H   0  0  0  0  0  0  0  0  0  0  0  0
   51.5165   31.5959   54.0090 H   0  0  0  0  0  0  0  0  0  0  0  0
   53.2209   31.8823   53.5054 H   0  0  0  0  0  0  0  0  0  0  0  0
   54.9278   29.7733   51.1352 H   0  0  0  0  0  0  0  0  0  0  0  0
   56.8940   31.1439   50.4401 H   0  0  0  0  0  0  0  0  0  0  0  0
  1  2  1  0
  2  3  2  0
  2  4  2  0
  2  5  1  0
  5  6  2  0
  6  7  1  0
  7  8  2  0
  8  9  1  0
  9 10  2  0
 10 11  1  0
 11 12  1  0
 12 13  2  0
 12 14  2  0
 12 15  1  0
 15 16  2  0
 16 17  1  0
 17 18  2  0
 18 19  1  0
 19 20  1  0
 20 21  2  0
 20 22  1  0
 22 23  1  0
 23 24  1  0
 24 25  1  0
 25 26  2  0
 25 27  1  0
 27 28  1  0
 28 29  1  0
 18 30  1  0
 30 31  2  0
 10  5  1  0
 31 15  1  0
 28 23  2  0
  1 32  1  0
  6 33  1  0
  7 34  1  0
  8 35  1  0
  9 36  1  0
 16 37  1  0
 17 38  1  0
 22 39  1  0
 22 40  1  0
 30 41  1  0
 31 42  1  0
M  CHG  5   1  -1  11  -1  19  -1  27  -1  29  -1
M  END
>  <UniqueID>  (45) 
43

>  <SMILES>  (45) 
[NH-]S(=O)(=O)c1ccccc1[N-]S(=O)(=O)c1ccc([N-]C(=O)Cc2sc(=O)[n-]c2[O-])cc1

>  <Energy>  (45) 
80.41762605083841

>  <Genealogy>  (45) 
[NH-]S(=O)(=O)c1ccccc1[N-]S(=O)(=O)c1ccc([N-]C(=O)Cc2sc(=O)[n-]c2[O-])cc1 (protonated)
[NH-]S(=O)(=O)c1ccccc1[N-]S(=O)(=O)c1ccc([N-]C(=O)Cc2sc(=O)[n-]c2[O-])cc1 (3D coordinates assigned)
[NH-]S(=O)(=O)c1ccccc1[N-]S(=O)(=O)c1ccc([N-]C(=O)Cc2sc(=O)[n-]c2[O-])cc1 (optimized conformer: 80.41762605083841 kcal/mol)

>  <smiles>  (45) 
NS(=O)(=O)c1ccccc1NS(=O)(=O)c1ccc(NC(=O)Cc2sc(=O)[nH]c2O)cc1

>  <score_type>  (45) 
oracle

>  <origin>  (45) 
adg

>  <m_score__min__energy>  (45) 
-20.050000000000001

>  <m_primary>  (45) 
energy

$$$$
45:0
     RDKit          3D

 30 33  0  0  0  0  0  0  0  0999 V2000
   56.9760   30.6670   45.0430 O   0  0  0  0  0  0  0  0  0  0  0  0
   57.8440   30.0460   45.7160 C   0  0  0  0  0  0  0  0  0  0  0  0
   57.6060   28.5980   46.0330 C   0  0  0  0  0  0  0  0  0  0  0  0
   56.3680   28.0430   45.6300 C   0  0  0  0  0  0  0  0  0  0  0  0
   55.9980   26.7470   45.9910 C   0  0  0  0  0  0  0  0  0  0  0  0
   54.7730   26.2340   45.5840 O   0  0  0  0  0  0  0  0  0  0  0  0
   56.8500   25.9720   46.7710 C   0  0  0  0  0  0  0  0  0  0  0  0
   58.0830   26.4830   47.1690 C   0  0  0  0  0  0  0  0  0  0  0  0
   58.4920   27.7680   46.7870 C   0  0  0  0  0  0  0  0  0  0  0  0
   59.7810   28.1390   47.1850 O   0  0  0  0  0  0  0  0  0  0  0  0
   60.6680   28.9170   46.4010 C   0  0  0  0  0  0  0  0  0  0  0  0
   60.2620   30.3410   46.4810 C   0  0  0  0  0  0  0  0  0  0  0  0
   59.0040   30.8320   46.1760 C   0  0  0  0  0  0  0  0  0  0  0  0
   58.9970   32.1860   46.2600 N   0  0  0  0  0  0  0  0  0  0  0  0
   60.2410   32.5430   46.6250 C   0  0  0  0  0  0  0  0  0  0  0  0
   60.7220   33.8350   46.8270 C   0  0  0  0  0  0  0  0  0  0  0  0
   62.0740   33.9850   47.1840 C   0  0  0  0  0  0  0  0  0  0  0  0
   62.9080   32.8530   47.3250 C   0  0  0  0  0  0  0  0  0  0  0  0
   64.2430   33.0170   47.6730 O   0  0  0  0  0  0  0  0  0  0  0  0
   62.3940   31.5600   47.1110 C   0  0  0  0  0  0  0  0  0  0  0  0
   61.0460   31.4430   46.7640 C   0  0  0  0  0  0  0  0  0  0  0  0
   55.6819   28.6471   45.0182 H   0  0  0  0  0  0  0  0  0  0  0  0
   56.5505   24.9575   47.0729 H   0  0  0  0  0  0  0  0  0  0  0  0
   58.7471   25.8676   47.7937 H   0  0  0  0  0  0  0  0  0  0  0  0
   61.6934   28.8040   46.7829 H   0  0  0  0  0  0  0  0  0  0  0  0
   60.6327   28.5791   45.3548 H   0  0  0  0  0  0  0  0  0  0  0  0
   58.1940   32.8260   46.0680 H   0  0  0  0  0  0  0  0  0  0  0  0
   60.0652   34.7097   46.7109 H   0  0  0  0  0  0  0  0  0  0  0  0
   62.4853   34.9908   47.3547 H   0  0  0  0  0  0  0  0  0  0  0  0
   63.0332   30.6707   47.2137 H   0  0  0  0  0  0  0  0  0  0  0  0
  1  2  2  0
  2  3  1  0
  3  4  2  0
  4  5  1  0
  5  6  1  0
  5  7  2  0
  7  8  1  0
  8  9  2  0
  9 10  1  0
 10 11  1  0
 11 12  1  0
 12 13  2  0
 13 14  1  0
 14 15  1  0
 15 16  2  0
 16 17  1  0
 17 18  2  0
 18 19  1  0
 18 20  1  0
 20 21  2  0
 13  2  1  0
 21 15  1  0
  9  3  1  0
 21 12  1  0
  4 22  1  0
  7 23  1  0
  8 24  1  0
 11 25  1  0
 11 26  1  0
 14 27  1  0
 16 28  1  0
 17 29  1  0
 20 30  1  0
M  CHG  2   6  -1  19  -1
M  END
>  <UniqueID>  (46) 
44

>  <SMILES>  (46) 
O=C1c2cc([O-])ccc2OCc2c1[nH]c1ccc([O-])cc21

>  <Energy>  (46) 
81.03340074908556

>  <Genealogy>  (46) 
O=C1c2cc([O-])ccc2OCc2c1[nH]c1ccc([O-])cc21 (protonated)
O=C1c2cc([O-])ccc2OCc2c1[nH]c1ccc([O-])cc21 (3D coordinates assigned)
O=C1c2cc([O-])ccc2OCc2c1[nH]c1ccc([O-])cc21 (nonaromatic ring conformer: 81.03340074908556 kcal/mol)

>  <smiles>  (46) 
O=C1c2cc(O)ccc2OCc2c1[nH]c1ccc(O)cc21

>  <score_type>  (46) 
oracle

>  <origin>  (46) 
adg

>  <m_score__min__energy>  (46) 
-10.18

>  <m_primary>  (46) 
energy

$$$$
46:0
     RDKit          3D

 34 36  0  0  0  0  0  0  0  0999 V2000
   58.9720   31.5130   45.6190 C   0  0  0  0  0  0  0  0  0  0  0  0
   58.9080   30.1420   46.1220 N   0  0  0  0  0  0  0  0  0  0  0  0
   59.8430   29.5010   46.8680 C   0  0  0  0  0  0  0  0  0  0  0  0
   61.0400   30.0850   47.2730 O   0  0  0  0  0  0  0  0  0  0  0  0
   59.4540   28.1990   47.1720 C   0  0  0  0  0  0  0  0  0  0  0  0
   58.2230   28.0720   46.5700 C   0  0  0  0  0  0  0  0  0  0  0  0
   57.3920   27.0020   46.5500 N   0  0  0  0  0  0  0  0  0  0  0  0
   56.2020   27.1060   45.8800 C   0  0  0  0  0  0  0  0  0  0  0  0
   55.3660   26.1100   45.8290 N   0  0  0  0  0  0  0  0  0  0  0  0
   55.6110   24.7550   46.2370 C   0  0  0  0  0  0  0  0  0  0  0  0
   55.5710   24.4250   47.4540 O   0  0  0  0  0  0  0  0  0  0  0  0
   55.9560   23.7900   45.2370 N   0  0  0  0  0  0  0  0  0  0  0  0
   57.2610   23.2410   44.9890 C   0  0  0  0  0  0  0  0  0  0  0  0
   58.3820   23.7100   45.7010 C   0  0  0  0  0  0  0  0  0  0  0  0
   59.6510   23.1860   45.4500 C   0  0  0  0  0  0  0  0  0  0  0  0
   59.8180   22.1840   44.4970 C   0  0  0  0  0  0  0  0  0  0  0  0
   58.7140   21.6890   43.8020 C   0  0  0  0  0  0  0  0  0  0  0  0
   57.4230   22.1950   44.0460 C   0  0  0  0  0  0  0  0  0  0  0  0
   56.3000   21.6500   43.3200 N   0  0  0  0  0  0  0  0  0  0  0  0
   55.6560   22.3670   42.5250 O   0  0  0  0  0  0  0  0  0  0  0  0
   55.9640   20.3200   43.4210 O   0  0  0  0  0  0  0  0  0  0  0  0
   55.8750   28.2790   45.2480 N   0  0  0  0  0  0  0  0  0  0  0  0
   56.7070   29.3610   45.2640 C   0  0  0  0  0  0  0  0  0  0  0  0
   56.3780   30.4230   44.6750 O   0  0  0  0  0  0  0  0  0  0  0  0
   57.9160   29.2450   45.9480 C   0  0  0  0  0  0  0  0  0  0  0  0
   59.0047   32.2134   46.4666 H   0  0  0  0  0  0  0  0  0  0  0  0
   59.8769   31.6368   45.0059 H   0  0  0  0  0  0  0  0  0  0  0  0
   58.0826   31.7205   45.0059 H   0  0  0  0  0  0  0  0  0  0  0  0
   61.4940   29.7990   48.1330 H   0  0  0  0  0  0  0  0  0  0  0  0
   60.0031   27.4467   47.7573 H   0  0  0  0  0  0  0  0  0  0  0  0
   58.2564   24.4954   46.4608 H   0  0  0  0  0  0  0  0  0  0  0  0
   60.5211   23.5651   46.0060 H   0  0  0  0  0  0  0  0  0  0  0  0
   60.8214   21.7825   44.2921 H   0  0  0  0  0  0  0  0  0  0  0  0
   58.8539   20.8941   43.0547 H   0  0  0  0  0  0  0  0  0  0  0  0
  1  2  1  0
  2  3  1  0
  3  4  1  0
  3  5  2  0
  5  6  1  0
  6  7  1  0
  7  8  1  0
  8  9  2  3
  9 10  1  0
 10 11  2  0
 10 12  1  0
 12 13  1  0
 13 14  2  0
 14 15  1  0
 15 16  2  0
 16 17  1  0
 17 18  2  0
 18 19  1  0
 19 20  2  0
 19 21  1  0
  8 22  1  0
 22 23  1  0
 23 24  2  0
 23 25  1  0
 25  2  1  0
 25  6  2  0
 18 13  1  0
  1 26  1  0
  1 27  1  0
  1 28  1  0
  4 29  1  0
  5 30  1  0
 14 31  1  0
 15 32  1  0
 16 33  1  0
 17 34  1  0
M  CHG  5   7  -1  12  -1  19   1  21  -1  22  -1
M  END
>  <UniqueID>  (47) 
45

>  <SMILES>  (47) 
Cn1c(O)cc2[n-]c(=NC(=O)[N-]c3ccccc3[N+](=O)[O-])[n-]c(=O)c21

>  <Energy>  (47) 
84.37669467314726

>  <Genealogy>  (47) 
Cn1c(O)cc2[n-]c(=NC(=O)[N-]c3ccccc3[N+](=O)[O-])[n-]c(=O)c21 (protonated)
Cn1c(O)cc2[n-]c(=NC(=O)[N-]c3ccccc3[N+](=O)[O-])[n-]c(=O)c21 (3D coordinates assigned)
Cn1c(O)cc2[n-]c(=NC(=O)[N-]c3ccccc3[N+](=O)[O-])[n-]c(=O)c21 (optimized conformer: 84.37669467314726 kcal/mol)

>  <smiles>  (47) 
Cn1c(O)cc2[nH]c(=NC(=O)Nc3ccccc3[N+](=O)[O-])[nH]c(=O)c21

>  <score_type>  (47) 
oracle

>  <origin>  (47) 
adg

>  <m_score__min__energy>  (47) 
-12

>  <m_primary>  (47) 
energy

$$$$
47:0
     RDKit          3D

 44 46  0  0  0  0  0  0  0  0999 V2000
   58.5270   27.4130   43.3920 C   0  0  0  0  0  0  0  0  0  0  0  0
   58.9320   27.9330   44.7470 C   0  0  0  0  0  0  0  0  0  0  0  0
   60.2780   28.2650   44.9780 C   0  0  0  0  0  0  0  0  0  0  0  0
   60.6910   28.7340   46.2260 C   0  0  0  0  0  0  0  0  0  0  0  0
   59.7680   28.8730   47.2600 C   0  0  0  0  0  0  0  0  0  0  0  0
   58.4270   28.5500   47.0500 C   0  0  0  0  0  0  0  0  0  0  0  0
   57.9880   28.0920   45.7950 C   0  0  0  0  0  0  0  0  0  0  0  0
   56.5320   27.7300   45.6240 C   0  0  0  0  0  0  0  0  0  0  0  0
   55.8460   28.7720   44.8590 N   0  0  0  0  0  0  0  0  0  0  0  0
   56.4890   29.9760   44.4130 C   0  0  0  0  0  0  0  0  0  0  0  0
   56.5500   30.2730   43.0470 C   0  0  0  0  0  0  0  0  0  0  0  0
   57.1800   31.4460   42.6270 C   0  0  0  0  0  0  0  0  0  0  0  0
   57.2320   31.7300   41.4010 O   0  0  0  0  0  0  0  0  0  0  0  0
   57.7490   32.3080   43.5690 C   0  0  0  0  0  0  0  0  0  0  0  0
   57.6860   31.9800   44.9360 C   0  0  0  0  0  0  0  0  0  0  0  0
   58.2760   32.8530   45.9820 C   0  0  0  0  0  0  0  0  0  0  0  0
   58.7610   34.1280   45.6340 C   0  0  0  0  0  0  0  0  0  0  0  0
   59.3150   34.9650   46.6040 C   0  0  0  0  0  0  0  0  0  0  0  0
   59.3830   34.5490   47.9350 C   0  0  0  0  0  0  0  0  0  0  0  0
   58.8860   33.2940   48.3050 C   0  0  0  0  0  0  0  0  0  0  0  0
   58.9700   32.7680   49.9840 S   0  0  0  0  0  0  0  0  0  0  0  0
   57.4120   32.2180   50.4920 N   0  0  0  0  0  0  0  0  0  0  0  0
   59.9680   31.6530   50.1200 O   0  0  0  0  0  0  0  0  0  0  0  0
   59.4060   33.9150   50.8530 O   0  0  0  0  0  0  0  0  0  0  0  0
   58.3380   32.4480   47.3300 C   0  0  0  0  0  0  0  0  0  0  0  0
   57.0520   30.8330   45.3090 N   0  0  0  0  0  0  0  0  0  0  0  0
   57.8554   26.5507   43.5159 H   0  0  0  0  0  0  0  0  0  0  0  0
   58.0064   28.2062   42.8354 H   0  0  0  0  0  0  0  0  0  0  0  0
   59.4236   27.1025   42.8354 H   0  0  0  0  0  0  0  0  0  0  0  0
   61.0132   28.1541   44.1673 H   0  0  0  0  0  0  0  0  0  0  0  0
   61.7466   28.9942   46.3933 H   0  0  0  0  0  0  0  0  0  0  0  0
   60.0970   29.2382   48.2441 H   0  0  0  0  0  0  0  0  0  0  0  0
   57.7061   28.6546   47.8742 H   0  0  0  0  0  0  0  0  0  0  0  0
   56.4548   26.7729   45.0873 H   0  0  0  0  0  0  0  0  0  0  0  0
   56.0626   27.6398   46.6147 H   0  0  0  0  0  0  0  0  0  0  0  0
   54.8240   28.6480   44.6790 H   0  0  0  0  0  0  0  0  0  0  0  0
   56.1053   29.5880   42.3101 H   0  0  0  0  0  0  0  0  0  0  0  0
   58.2424   33.2359   43.2441 H   0  0  0  0  0  0  0  0  0  0  0  0
   58.7029   34.4674   44.5893 H   0  0  0  0  0  0  0  0  0  0  0  0
   59.6992   35.9555   46.3188 H   0  0  0  0  0  0  0  0  0  0  0  0
   59.8280   35.2088   48.6943 H   0  0  0  0  0  0  0  0  0  0  0  0
   57.1060   32.8450   51.2700 H   0  0  0  0  0  0  0  0  0  0  0  0
   56.7560   32.3810   49.6960 H   0  0  0  0  0  0  0  0  0  0  0  0
   57.9531   31.4593   47.6203 H   0  0  0  0  0  0  0  0  0  0  0  0
  1  2  1  0
  2  3  2  0
  3  4  1  0
  4  5  2  0
  5  6  1  0
  6  7  2  0
  7  8  1  0
  8  9  1  0
  9 10  1  0
 10 11  2  0
 11 12  1  0
 12 13  2  0
 12 14  1  0
 14 15  2  0
 15 16  1  0
 16 17  2  0
 17 18  1  0
 18 19  2  0
 19 20  1  0
 20 21  1  0
 21 22  1  0
 21 23  2  0
 21 24  2  0
 20 25  2  0
 15 26  1  0
  7  2  1  0
 26 10  1  0
 25 16  1  0
  1 27  1  0
  1 28  1  0
  1 29  1  0
  3 30  1  0
  4 31  1  0
  5 32  1  0
  6 33  1  0
  8 34  1  0
  8 35  1  0
  9 36  1  0
 11 37  1  0
 14 38  1  0
 17 39  1  0
 18 40  1  0
 19 41  1  0
 22 42  1  0
 22 43  1  0
 25 44  1  0
M  CHG  1  26  -1
M  END
>  <UniqueID>  (48) 
46

>  <SMILES>  (48) 
Cc1ccccc1CNc1cc(=O)cc(-c2cccc(S(N)(=O)=O)c2)[n-]1

>  <Energy>  (48) 
48.91824337404804

>  <Genealogy>  (48) 
Cc1ccccc1CNc1cc(=O)cc(-c2cccc(S(N)(=O)=O)c2)[n-]1 (protonated)
Cc1ccccc1CNc1cc(=O)cc(-c2cccc(S(N)(=O)=O)c2)[n-]1 (3D coordinates assigned)
Cc1ccccc1CNc1cc(=O)cc(-c2cccc(S(N)(=O)=O)c2)[n-]1 (optimized conformer: 48.91824337404804 kcal/mol)

>  <smiles>  (48) 
Cc1ccccc1CNc1cc(=O)cc(-c2cccc(S(N)(=O)=O)c2)[nH]1

>  <score_type>  (48) 
oracle

>  <origin>  (48) 
adg

>  <m_score__min__energy>  (48) 
-11.039999999999999

>  <m_primary>  (48) 
energy

$$$$
48:0
     RDKit          3D

 52 55  0  0  0  0  0  0  0  0999 V2000
   55.5430   28.9750   42.4560 H   0  0  0  0  0  0  0  0  0  0  0  0
   55.4070   29.6720   43.2260 N   0  0  0  0  0  0  0  0  0  0  0  0
   56.4050   30.1330   43.9030 C   0  0  0  0  0  0  0  0  0  0  0  0
   56.3120   31.3550   44.4960 N   0  0  0  0  0  0  0  0  0  0  0  0
   57.3270   31.8690   45.2430 C   0  0  0  0  0  0  0  0  0  0  0  0
   57.2284   32.8637   45.7023 H   0  0  0  0  0  0  0  0  0  0  0  0
   58.5010   31.1200   45.4230 C   0  0  0  0  0  0  0  0  0  0  0  0
   59.6270   31.5630   46.2940 C   0  0  0  0  0  0  0  0  0  0  0  0
   60.7400   30.7390   46.5600 C   0  0  0  0  0  0  0  0  0  0  0  0
   60.7650   29.7120   46.1668 H   0  0  0  0  0  0  0  0  0  0  0  0
   61.8140   31.2180   47.3210 C   0  0  0  0  0  0  0  0  0  0  0  0
   62.6747   30.5638   47.5240 H   0  0  0  0  0  0  0  0  0  0  0  0
   61.7990   32.5220   47.8240 C   0  0  0  0  0  0  0  0  0  0  0  0
   63.1840   33.1370   48.7270 S   0  0  0  0  0  0  0  0  0  0  0  0
   62.8640   34.4870   49.3100 O   0  0  0  0  0  0  0  0  0  0  0  0
   63.5140   32.1960   49.8500 O   0  0  0  0  0  0  0  0  0  0  0  0
   64.5450   33.2800   47.6710 N   0  0  0  0  0  0  0  0  0  0  0  0
   65.4020   33.1050   48.2430 H   0  0  0  0  0  0  0  0  0  0  0  0
   64.4790   32.4960   46.9840 H   0  0  0  0  0  0  0  0  0  0  0  0
   60.7000   33.3490   47.5660 C   0  0  0  0  0  0  0  0  0  0  0  0
   60.6832   34.3766   47.9582 H   0  0  0  0  0  0  0  0  0  0  0  0
   59.6240   32.8740   46.8120 C   0  0  0  0  0  0  0  0  0  0  0  0
   58.7633   33.5316   46.6201 H   0  0  0  0  0  0  0  0  0  0  0  0
   58.5940   29.9160   44.8010 N   0  0  0  0  0  0  0  0  0  0  0  0
   57.5950   29.3850   44.0520 C   0  0  0  0  0  0  0  0  0  0  0  0
   57.8020   28.0460   43.4390 C   0  0  0  0  0  0  0  0  0  0  0  0
   57.3940   27.8160   42.2710 O   0  0  0  0  0  0  0  0  0  0  0  0
   58.5390   27.0210   44.1210 N   0  0  0  0  0  0  0  0  0  0  0  0
   57.9650   25.8880   44.7910 C   0  0  0  0  0  0  0  0  0  0  0  0
   57.2430   24.9190   44.0720 C   0  0  0  0  0  0  0  0  0  0  0  0
   57.1809   24.9837   42.9757 H   0  0  0  0  0  0  0  0  0  0  0  0
   56.6040   23.8740   44.7450 C   0  0  0  0  0  0  0  0  0  0  0  0
   56.0270   23.1278   44.1791 H   0  0  0  0  0  0  0  0  0  0  0  0
   56.6970   23.7760   46.1340 C   0  0  0  0  0  0  0  0  0  0  0  0
   56.1817   22.9609   46.6631 H   0  0  0  0  0  0  0  0  0  0  0  0
   57.4430   24.7110   46.8520 C   0  0  0  0  0  0  0  0  0  0  0  0
   57.5256   24.6216   47.9452 H   0  0  0  0  0  0  0  0  0  0  0  0
   58.0880   25.7640   46.1880 C   0  0  0  0  0  0  0  0  0  0  0  0
   58.8110   26.7430   46.9500 N   0  0  0  0  0  0  0  0  0  0  0  0
   58.0930   27.9340   47.4120 C   0  0  0  0  0  0  0  0  0  0  0  0
   57.7119   28.4864   46.5404 H   0  0  0  0  0  0  0  0  0  0  0  0
   57.2605   27.6165   48.0571 H   0  0  0  0  0  0  0  0  0  0  0  0
   59.0150   28.8420   48.2150 C   0  0  0  0  0  0  0  0  0  0  0  0
   59.6942   29.3754   47.5337 H   0  0  0  0  0  0  0  0  0  0  0  0
   58.4202   29.5779   48.7760 H   0  0  0  0  0  0  0  0  0  0  0  0
   59.7640   28.0510   49.1070 O   0  0  0  0  0  0  0  0  0  0  0  0
   60.7770   27.3700   48.3940 C   0  0  0  0  0  0  0  0  0  0  0  0
   61.4935   28.1128   48.0133 H   0  0  0  0  0  0  0  0  0  0  0  0
   61.2420   26.6600   49.0938 H   0  0  0  0  0  0  0  0  0  0  0  0
   60.2450   26.5440   47.1960 C   0  0  0  0  0  0  0  0  0  0  0  0
   60.7994   26.8399   46.2932 H   0  0  0  0  0  0  0  0  0  0  0  0
   60.3914   25.4814   47.4397 H   0  0  0  0  0  0  0  0  0  0  0  0
  1  2  1  0
  2  3  2  0
  3  4  1  0
  4  5  1  0
  5  6  1  0
  5  7  2  0
  7  8  1  0
  8  9  2  0
  9 10  1  0
  9 11  1  0
 11 12  1  0
 11 13  2  0
 13 14  1  0
 14 15  2  0
 14 16  2  0
 14 17  1  0
 17 18  1  0
 17 19  1  0
 13 20  1  0
 20 21  1  0
 20 22  2  0
 22 23  1  0
  7 24  1  0
 24 25  2  0
 25 26  1  0
 26 27  2  0
 26 28  1  0
 28 29  1  0
 29 30  2  0
 30 31  1  0
 30 32  1  0
 32 33  1  0
 32 34  2  0
 34 35  1  0
 34 36  1  0
 36 37  1  0
 36 38  2  0
 38 39  1  0
 39 40  1  0
 40 41  1  0
 40 42  1  0
 40 43  1  0
 43 44  1  0
 43 45  1  0
 43 46  1  0
 46 47  1  0
 47 48  1  0
 47 49  1  0
 47 50  1  0
 50 51  1  0
 50 52  1  0
 25  3  1  0
 38 29  1  0
 50 39  1  0
 22  8  1  0
M  CHG  2   4  -1  28  -1
M  END
>  <UniqueID>  (49) 
47

>  <SMILES>  (49) 
[H]/N=c1\[n-]cc(-c2ccc(S(N)(=O)=O)cc2)nc1C(=O)[N-]c1ccccc1N1CCOCC1

>  <Energy>  (49) 
76.2000265735162

>  <Genealogy>  (49) 
N=c1[n-]cc(-c2ccc(S(N)(=O)=O)cc2)nc1C(=O)[N-]c1ccccc1N1CCOCC1 (protonated)
[H]/N=c1\[n-]cc(-c2ccc(S(N)(=O)=O)cc2)nc1C(=O)[N-]c1ccccc1N1CCOCC1 (cis-trans isomerization)
[H]/N=c1\[n-]cc(-c2ccc(S(N)(=O)=O)cc2)nc1C(=O)[N-]c1ccccc1N1CCOCC1 (3D coordinates assigned)
[H]/N=c1\[n-]cc(-c2ccc(S(N)(=O)=O)cc2)nc1C(=O)[N-]c1ccccc1N1CCOCC1 (nonaromatic ring conformer: 76.2000265735162 kcal/mol)

>  <smiles>  (49) 
N=c1[nH]cc(-c2ccc(S(N)(=O)=O)cc2)nc1C(=O)Nc1ccccc1N1CCOCC1

>  <score_type>  (49) 
oracle

>  <origin>  (49) 
adg

>  <m_score__min__energy>  (49) 
-11.800000000000001

>  <m_primary>  (49) 
energy

$$$$
49:0
     RDKit          3D

 35 36  0  0  0  0  0  0  0  0999 V2000
   55.3850   29.2190   44.8330 N   0  0  0  0  0  0  0  0  0  0  0  0
   56.6020   29.9620   44.7960 C   0  0  0  0  0  0  0  0  0  0  0  0
   56.5620   31.1880   44.5060 O   0  0  0  0  0  0  0  0  0  0  0  0
   57.8980   29.2880   45.0660 C   0  0  0  0  0  0  0  0  0  0  0  0
   59.0890   29.9180   44.6570 C   0  0  0  0  0  0  0  0  0  0  0  0
   60.3320   29.3470   44.9370 C   0  0  0  0  0  0  0  0  0  0  0  0
   60.4060   28.1380   45.6240 C   0  0  0  0  0  0  0  0  0  0  0  0
   59.2380   27.4900   46.0280 C   0  0  0  0  0  0  0  0  0  0  0  0
   57.9770   28.0520   45.7570 C   0  0  0  0  0  0  0  0  0  0  0  0
   56.7880   27.3220   46.1080 N   0  0  0  0  0  0  0  0  0  0  0  0
   56.5350   25.9650   45.7010 C   0  0  0  0  0  0  0  0  0  0  0  0
   57.6170   25.1480   45.3480 C   0  0  0  0  0  0  0  0  0  0  0  0
   57.4080   23.8240   44.9640 C   0  0  0  0  0  0  0  0  0  0  0  0
   56.1140   23.3070   44.9040 C   0  0  0  0  0  0  0  0  0  0  0  0
   55.0080   24.1180   45.2080 C   0  0  0  0  0  0  0  0  0  0  0  0
   53.6430   23.5490   45.1140 C   0  0  0  0  0  0  0  0  0  0  0  0
   52.8640   23.9640   44.2130 O   0  0  0  0  0  0  0  0  0  0  0  0
   53.1750   22.5830   46.0680 N   0  0  0  0  0  0  0  0  0  0  0  0
   52.4210   21.5450   45.6310 O   0  0  0  0  0  0  0  0  0  0  0  0
   53.5930   22.5980   47.4420 C   0  0  0  0  0  0  0  0  0  0  0  0
   52.9270   21.8040   48.4270 N   0  0  0  0  0  0  0  0  0  0  0  0
   54.5880   23.2920   47.7820 O   0  0  0  0  0  0  0  0  0  0  0  0
   55.2210   25.4520   45.6160 C   0  0  0  0  0  0  0  0  0  0  0  0
   54.1390   26.2650   45.9380 O   0  0  0  0  0  0  0  0  0  0  0  0
   55.1550   28.6040   45.6450 H   0  0  0  0  0  0  0  0  0  0  0  0
   59.0396   30.8713   44.1104 H   0  0  0  0  0  0  0  0  0  0  0  0
   61.2540   29.8528   44.6145 H   0  0  0  0  0  0  0  0  0  0  0  0
   61.3866   27.6931   45.8486 H   0  0  0  0  0  0  0  0  0  0  0  0
   59.3038   26.5312   46.5631 H   0  0  0  0  0  0  0  0  0  0  0  0
   56.0050   27.8540   46.5500 H   0  0  0  0  0  0  0  0  0  0  0  0
   58.6390   25.5541   45.3740 H   0  0  0  0  0  0  0  0  0  0  0  0
   58.2661   23.1854   44.7076 H   0  0  0  0  0  0  0  0  0  0  0  0
   55.9584   22.2567   44.6166 H   0  0  0  0  0  0  0  0  0  0  0  0
   52.1980   21.1060   48.1600 H   0  0  0  0  0  0  0  0  0  0  0  0
   53.2200   21.8580   49.4280 H   0  0  0  0  0  0  0  0  0  0  0  0
  1  2  1  0
  2  3  2  0
  2  4  1  0
  4  5  2  0
  5  6  1  0
  6  7  2  0
  7  8  1  0
  8  9  2  0
  9 10  1  0
 10 11  1  0
 11 12  2  0
 12 13  1  0
 13 14  2  0
 14 15  1  0
 15 16  1  0
 16 17  2  0
 16 18  1  0
 18 19  1  0
 18 20  1  0
 20 21  1  0
 20 22  2  0
 15 23  2  0
 23 24  1  0
  9  4  1  0
 23 11  1  0
  1 25  1  0
  5 26  1  0
  6 27  1  0
  7 28  1  0
  8 29  1  0
 10 30  1  0
 12 31  1  0
 13 32  1  0
 14 33  1  0
 21 34  1  0
 21 35  1  0
M  CHG  3   1  -1  19  -1  24  -1
M  END
>  <UniqueID>  (50) 
48

>  <SMILES>  (50) 
[NH-]C(=O)c1ccccc1Nc1cccc(C(=O)N([O-])C(N)=O)c1[O-]

>  <Energy>  (50) 
52.64209255491182

>  <Genealogy>  (50) 
[NH-]C(=O)c1ccccc1Nc1cccc(C(=O)N([O-])C(N)=O)c1[O-] (protonated)
[NH-]C(=O)c1ccccc1Nc1cccc(C(=O)N([O-])C(N)=O)c1[O-] (3D coordinates assigned)
[NH-]C(=O)c1ccccc1Nc1cccc(C(=O)N([O-])C(N)=O)c1[O-] (optimized conformer: 52.64209255491182 kcal/mol)

>  <smiles>  (50) 
NC(=O)c1ccccc1Nc1cccc(C(=O)N(O)C(N)=O)c1O

>  <score_type>  (50) 
oracle

>  <origin>  (50) 
adg

>  <m_score__min__energy>  (50) 
-15.84

>  <m_primary>  (50) 
energy

$$$$
50:0
     RDKit          3D

 34 36  0  0  0  0  0  0  0  0999 V2000
   61.2510   30.7307   49.8586 H   0  0  0  0  0  0  0  0  0  0  0  0
   60.8030   30.3970   48.9110 C   0  0  0  0  0  0  0  0  0  0  0  0
   60.7400   29.0740   48.6130 N   0  0  0  0  0  0  0  0  0  0  0  0
   60.1920   28.6340   47.4470 C   0  0  0  0  0  0  0  0  0  0  0  0
   60.1010   27.1900   47.1820 C   0  0  0  0  0  0  0  0  0  0  0  0
   60.4850   26.3680   48.0590 O   0  0  0  0  0  0  0  0  0  0  0  0
   59.5720   26.7320   45.9680 O   0  0  0  0  0  0  0  0  0  0  0  0
   58.3220   26.1080   45.8510 C   0  0  0  0  0  0  0  0  0  0  0  0
   58.2930   24.7340   45.5760 C   0  0  0  0  0  0  0  0  0  0  0  0
   59.2339   24.1920   45.4000 H   0  0  0  0  0  0  0  0  0  0  0  0
   57.0780   24.0490   45.5240 C   0  0  0  0  0  0  0  0  0  0  0  0
   57.0645   22.9696   45.3125 H   0  0  0  0  0  0  0  0  0  0  0  0
   55.8800   24.7320   45.7400 C   0  0  0  0  0  0  0  0  0  0  0  0
   54.9253   24.1860   45.7212 H   0  0  0  0  0  0  0  0  0  0  0  0
   55.8920   26.1080   45.9800 C   0  0  0  0  0  0  0  0  0  0  0  0
   54.9453   26.6403   46.1545 H   0  0  0  0  0  0  0  0  0  0  0  0
   57.1020   26.8150   46.0000 C   0  0  0  0  0  0  0  0  0  0  0  0
   57.0560   28.2380   46.1730 N   0  0  0  0  0  0  0  0  0  0  0  0
   56.5730   29.1620   45.1940 C   0  0  0  0  0  0  0  0  0  0  0  0
   55.3490   29.1760   44.8900 O   0  0  0  0  0  0  0  0  0  0  0  0
   57.5020   30.0690   44.5820 N   0  0  0  0  0  0  0  0  0  0  0  0
   57.5350   31.3640   44.7050 C   0  0  0  0  0  0  0  0  0  0  0  0
   57.3920   31.9700   45.9020 N   0  0  0  0  0  0  0  0  0  0  0  0
   57.4950   33.3220   45.8010 C   0  0  0  0  0  0  0  0  0  0  0  0
   57.4036   33.9867   46.6727 H   0  0  0  0  0  0  0  0  0  0  0  0
   57.7240   33.8040   44.5180 C   0  0  0  0  0  0  0  0  0  0  0  0
   57.8371   34.8610   44.2351 H   0  0  0  0  0  0  0  0  0  0  0  0
   57.7980   32.4870   43.4730 S   0  0  0  0  0  0  0  0  0  0  0  0
   59.6840   29.5750   46.5370 C   0  0  0  0  0  0  0  0  0  0  0  0
   59.2377   29.2432   45.5879 H   0  0  0  0  0  0  0  0  0  0  0  0
   59.7480   30.9000   46.8380 N   0  0  0  0  0  0  0  0  0  0  0  0
   59.3650   31.5990   46.1620 H   0  0  0  0  0  0  0  0  0  0  0  0
   60.2950   31.3310   48.0060 C   0  0  0  0  0  0  0  0  0  0  0  0
   60.3369   32.4059   48.2358 H   0  0  0  0  0  0  0  0  0  0  0  0
  1  2  1  0
  2  3  2  0
  3  4  1  0
  4  5  1  0
  5  6  2  0
  5  7  1  0
  7  8  1  0
  8  9  2  0
  9 10  1  0
  9 11  1  0
 11 12  1  0
 11 13  2  0
 13 14  1  0
 13 15  1  0
 15 16  1  0
 15 17  2  0
 17 18  1  0
 18 19  1  0
 19 20  2  0
 19 21  1  0
 21 22  2  0
 22 23  1  0
 23 24  1  0
 24 25  1  0
 24 26  2  0
 26 27  1  0
 26 28  1  0
  4 29  2  0
 29 30  1  0
 29 31  1  0
 31 32  1  0
 31 33  2  0
 33 34  1  0
 33  2  1  0
 17  8  1  0
 28 22  1  0
M  CHG  3  18  -1  23  -1  31   1
M  END
>  <UniqueID>  (51) 
49

>  <SMILES>  (51) 
O=C(/N=c1/[n-]ccs1)[N-]c1ccccc1OC(=O)c1c[nH+]ccn1

>  <Energy>  (51) 
80.03602503195492

>  <Genealogy>  (51) 
O=C(N=c1[n-]ccs1)[N-]c1ccccc1OC(=O)c1c[nH+]ccn1 (protonated)
O=C(/N=c1/[n-]ccs1)[N-]c1ccccc1OC(=O)c1c[nH+]ccn1 (cis-trans isomerization)
O=C(/N=c1/[n-]ccs1)[N-]c1ccccc1OC(=O)c1c[nH+]ccn1 (3D coordinates assigned)
O=C(/N=c1/[n-]ccs1)[N-]c1ccccc1OC(=O)c1c[nH+]ccn1 (optimized conformer: 80.03602503195492 kcal/mol)

>  <smiles>  (51) 
O=C(N=c1[nH]ccs1)Nc1ccccc1OC(=O)c1cnccn1

>  <score_type>  (51) 
oracle

>  <origin>  (51) 
adg

>  <m_score__min__energy>  (51) 
-8.9199999999999999

>  <m_primary>  (51) 
energy

$$$$
51:0
     RDKit          3D

 62 66  0  0  0  0  0  0  0  0999 V2000
   62.0700   29.1390   50.9530 N   0  0  0  0  0  0  0  0  0  0  0  0
   61.9120   30.6070   50.0460 S   0  0  0  0  0  0  0  0  0  0  0  0
   61.5510   30.2910   48.6220 O   0  0  0  0  0  0  0  0  0  0  0  0
   60.7940   31.4090   50.6530 O   0  0  0  0  0  0  0  0  0  0  0  0
   63.4170   31.5490   50.0890 C   0  0  0  0  0  0  0  0  0  0  0  0
   64.4850   31.0770   50.8740 C   0  0  0  0  0  0  0  0  0  0  0  0
   65.7050   31.7560   50.8990 C   0  0  0  0  0  0  0  0  0  0  0  0
   65.8770   32.9120   50.1400 C   0  0  0  0  0  0  0  0  0  0  0  0
   64.8270   33.4020   49.3620 C   0  0  0  0  0  0  0  0  0  0  0  0
   63.5880   32.7400   49.3380 C   0  0  0  0  0  0  0  0  0  0  0  0
   62.4970   33.3310   48.5400 C   0  0  0  0  0  0  0  0  0  0  0  0
   62.5530   33.2980   47.1400 C   0  0  0  0  0  0  0  0  0  0  0  0
   61.5150   33.8490   46.3800 C   0  0  0  0  0  0  0  0  0  0  0  0
   60.4100   34.4360   47.0170 C   0  0  0  0  0  0  0  0  0  0  0  0
   59.2780   35.0120   46.2090 C   0  0  0  0  0  0  0  0  0  0  0  0
   58.2070   34.0730   46.1070 O   0  0  0  0  0  0  0  0  0  0  0  0
   58.3370   32.7390   45.6870 C   0  0  0  0  0  0  0  0  0  0  0  0
   58.0420   32.3260   44.3750 C   0  0  0  0  0  0  0  0  0  0  0  0
   58.1770   30.9850   44.0120 C   0  0  0  0  0  0  0  0  0  0  0  0
   58.5890   30.0290   44.9520 C   0  0  0  0  0  0  0  0  0  0  0  0
   58.9140   30.4390   46.2660 C   0  0  0  0  0  0  0  0  0  0  0  0
   58.7760   31.7910   46.6200 C   0  0  0  0  0  0  0  0  0  0  0  0
   59.3000   29.4400   47.3300 C   0  0  0  0  0  0  0  0  0  0  0  0
   59.8300   28.1430   46.7220 C   0  0  0  0  0  0  0  0  0  0  0  0
   58.9170   27.6960   45.6660 N   0  0  0  0  0  0  0  0  0  0  0  0
   58.3170   26.3820   45.6960 C   0  0  0  0  0  0  0  0  0  0  0  0
   59.1180   25.2360   45.8350 C   0  0  0  0  0  0  0  0  0  0  0  0
   58.5350   23.9690   45.8840 C   0  0  0  0  0  0  0  0  0  0  0  0
   57.1480   23.8290   45.8100 C   0  0  0  0  0  0  0  0  0  0  0  0
   56.3260   24.9610   45.6780 C   0  0  0  0  0  0  0  0  0  0  0  0
   54.8570   24.8210   45.5990 C   0  0  0  0  0  0  0  0  0  0  0  0
   54.3280   23.6830   45.4800 O   0  0  0  0  0  0  0  0  0  0  0  0
   54.0370   25.9420   45.6630 O   0  0  0  0  0  0  0  0  0  0  0  0
   56.9220   26.2350   45.6130 C   0  0  0  0  0  0  0  0  0  0  0  0
   58.7160   28.5880   44.5170 C   0  0  0  0  0  0  0  0  0  0  0  0
   60.3780   34.5050   48.4190 C   0  0  0  0  0  0  0  0  0  0  0  0
   61.4170   33.9610   49.1760 C   0  0  0  0  0  0  0  0  0  0  0  0
   61.1610   28.6290   50.8910 H   0  0  0  0  0  0  0  0  0  0  0  0
   62.2110   29.4000   51.9520 H   0  0  0  0  0  0  0  0  0  0  0  0
   64.3577   30.1639   51.4741 H   0  0  0  0  0  0  0  0  0  0  0  0
   66.5314   31.3778   51.5187 H   0  0  0  0  0  0  0  0  0  0  0  0
   66.8423   33.4393   50.1541 H   0  0  0  0  0  0  0  0  0  0  0  0
   64.9706   34.3134   48.7631 H   0  0  0  0  0  0  0  0  0  0  0  0
   63.4159   32.8374   46.6367 H   0  0  0  0  0  0  0  0  0  0  0  0
   61.5650   33.8221   45.2815 H   0  0  0  0  0  0  0  0  0  0  0  0
   58.9122   35.9263   46.6991 H   0  0  0  0  0  0  0  0  0  0  0  0
   59.6448   35.2439   45.1982 H   0  0  0  0  0  0  0  0  0  0  0  0
   57.7035   33.0631   43.6319 H   0  0  0  0  0  0  0  0  0  0  0  0
   57.9583   30.6752   42.9794 H   0  0  0  0  0  0  0  0  0  0  0  0
   59.0162   32.1101   47.6449 H   0  0  0  0  0  0  0  0  0  0  0  0
   60.0816   29.8809   47.9661 H   0  0  0  0  0  0  0  0  0  0  0  0
   58.4015   29.2009   47.9178 H   0  0  0  0  0  0  0  0  0  0  0  0
   60.8285   28.3182   46.2950 H   0  0  0  0  0  0  0  0  0  0  0  0
   59.8983   27.3706   47.5022 H   0  0  0  0  0  0  0  0  0  0  0  0
   60.2110   25.3381   45.9056 H   0  0  0  0  0  0  0  0  0  0  0  0
   59.1711   23.0768   45.9813 H   0  0  0  0  0  0  0  0  0  0  0  0
   56.6961   22.8271   45.8553 H   0  0  0  0  0  0  0  0  0  0  0  0
   56.2878   27.1261   45.4958 H   0  0  0  0  0  0  0  0  0  0  0  0
   59.5753   28.4942   43.8367 H   0  0  0  0  0  0  0  0  0  0  0  0
   57.7836   28.2960   44.0117 H   0  0  0  0  0  0  0  0  0  0  0  0
   59.5296   34.9904   48.9236 H   0  0  0  0  0  0  0  0  0  0  0  0
   61.3888   34.0265   50.2737 H   0  0  0  0  0  0  0  0  0  0  0  0
  1  2  1  0
  2  3  2  0
  2  4  2  0
  2  5  1  0
  5  6  2  0
  6  7  1  0
  7  8  2  0
  8  9  1  0
  9 10  2  0
 10 11  1  0
 11 12  2  0
 12 13  1  0
 13 14  2  0
 14 15  1  0
 15 16  1  0
 16 17  1  0
 17 18  2  0
 18 19  1  0
 19 20  2  0
 20 21  1  0
 21 22  2  0
 21 23  1  0
 23 24  1  0
 24 25  1  0
 25 26  1  0
 26 27  2  0
 27 28  1  0
 28 29  2  0
 29 30  1  0
 30 31  1  0
 31 32  2  0
 31 33  1  0
 30 34  2  0
 25 35  1  0
 14 36  1  0
 36 37  2  0
 10  5  1  0
 37 11  1  0
 22 17  1  0
 34 26  1  0
 35 20  1  0
  1 38  1  0
  1 39  1  0
  6 40  1  0
  7 41  1  0
  8 42  1  0
  9 43  1  0
 12 44  1  0
 13 45  1  0
 15 46  1  0
 15 47  1  0
 18 48  1  0
 19 49  1  0
 22 50  1  0
 23 51  1  0
 23 52  1  0
 24 53  1  0
 24 54  1  0
 27 55  1  0
 28 56  1  0
 29 57  1  0
 34 58  1  0
 35 59  1  0
 35 60  1  0
 36 61  1  0
 37 62  1  0
M  CHG  1  33  -1
M  END
>  <UniqueID>  (52) 
50

>  <SMILES>  (52) 
NS(=O)(=O)c1ccccc1-c1ccc(COc2ccc3c(c2)CCN(c2cccc(C(=O)[O-])c2)C3)cc1

>  <Energy>  (52) 
81.61461570075535

>  <Genealogy>  (52) 
NS(=O)(=O)c1ccccc1-c1ccc(COc2ccc3c(c2)CCN(c2cccc(C(=O)[O-])c2)C3)cc1 (protonated)
NS(=O)(=O)c1ccccc1-c1ccc(COc2ccc3c(c2)CCN(c2cccc(C(=O)[O-])c2)C3)cc1 (3D coordinates assigned)
NS(=O)(=O)c1ccccc1-c1ccc(COc2ccc3c(c2)CCN(c2cccc(C(=O)[O-])c2)C3)cc1 (nonaromatic ring conformer: 81.61461570075535 kcal/mol)

>  <smiles>  (52) 
NS(=O)(=O)c1ccccc1-c1ccc(COc2ccc3c(c2)CCN(c2cccc(C(=O)O)c2)C3)cc1

>  <score_type>  (52) 
oracle

>  <origin>  (52) 
adg

>  <m_score__min__energy>  (52) 
-14.49

>  <m_primary>  (52) 
energy

$$$$
52:0
     RDKit          3D

 52 53  0  0  0  0  0  0  0  0999 V2000
   55.2950   28.6340   45.6210 H   0  0  0  0  0  0  0  0  0  0  0  0
   55.1360   29.3330   44.8650 N   0  0  0  0  0  0  0  0  0  0  0  0
   56.6710   29.6110   44.1190 S   0  0  0  0  0  0  0  0  0  0  0  0
   56.6130   30.8870   43.3270 O   0  0  0  0  0  0  0  0  0  0  0  0
   56.9910   28.4780   43.1850 O   0  0  0  0  0  0  0  0  0  0  0  0
   57.9160   29.7150   45.3610 C   0  0  0  0  0  0  0  0  0  0  0  0
   58.0800   28.6840   46.2960 C   0  0  0  0  0  0  0  0  0  0  0  0
   57.4246   27.8014   46.2590 H   0  0  0  0  0  0  0  0  0  0  0  0
   59.0720   28.7730   47.2740 C   0  0  0  0  0  0  0  0  0  0  0  0
   59.1803   27.9691   48.0169 H   0  0  0  0  0  0  0  0  0  0  0  0
   59.9350   29.8850   47.3160 C   0  0  0  0  0  0  0  0  0  0  0  0
   60.9530   30.0050   48.3270 N   0  0  0  0  0  0  0  0  0  0  0  0
   61.7960   29.3920   48.2530 H   0  0  0  0  0  0  0  0  0  0  0  0
   60.8790   30.9140   49.4410 C   0  0  0  0  0  0  0  0  0  0  0  0
   59.7690   31.3650   49.8180 O   0  0  0  0  0  0  0  0  0  0  0  0
   62.1340   31.3060   50.1940 C   0  0  0  0  0  0  0  0  0  0  0  0
   62.8608   30.4862   50.0952 H   0  0  0  0  0  0  0  0  0  0  0  0
   61.8227   31.4925   51.2324 H   0  0  0  0  0  0  0  0  0  0  0  0
   62.7930   32.5730   49.7200 N   0  0  1  0  0  0  0  0  0  0  0  0
   63.0780   32.4470   48.2650 C   0  0  0  0  0  0  0  0  0  0  0  0
   64.0757   32.0059   48.1237 H   0  0  0  0  0  0  0  0  0  0  0  0
   62.3213   31.7995   47.7979 H   0  0  0  0  0  0  0  0  0  0  0  0
   63.0477   33.4424   47.7979 H   0  0  0  0  0  0  0  0  0  0  0  0
   61.7850   33.6630   49.9640 C   0  0  0  0  0  0  0  0  0  0  0  0
   61.0316   33.2755   50.6656 H   0  0  0  0  0  0  0  0  0  0  0  0
   62.3573   34.5189   50.3512 H   0  0  0  0  0  0  0  0  0  0  0  0
   61.0570   34.1750   48.7340 C   0  0  0  0  0  0  0  0  0  0  0  0
   61.6695   34.5412   47.8969 H   0  0  0  0  0  0  0  0  0  0  0  0
   59.7240   34.2150   48.5900 C   0  0  0  0  0  0  0  0  0  0  0  0
   59.1191   34.2662   49.5073 H   0  0  0  0  0  0  0  0  0  0  0  0
   59.0010   34.1960   47.3030 C   0  0  0  0  0  0  0  0  0  0  0  0
   57.7710   33.5280   47.2190 C   0  0  0  0  0  0  0  0  0  0  0  0
   57.3415   33.0547   48.1143 H   0  0  0  0  0  0  0  0  0  0  0  0
   57.0890   33.4620   46.0000 C   0  0  0  0  0  0  0  0  0  0  0  0
   56.1187   32.9471   45.9408 H   0  0  0  0  0  0  0  0  0  0  0  0
   57.6380   34.0490   44.8570 C   0  0  0  0  0  0  0  0  0  0  0  0
   57.0971   34.0013   43.9004 H   0  0  0  0  0  0  0  0  0  0  0  0
   58.8730   34.6960   44.9290 C   0  0  0  0  0  0  0  0  0  0  0  0
   59.3068   35.1541   44.0279 H   0  0  0  0  0  0  0  0  0  0  0  0
   59.5580   34.7620   46.1440 C   0  0  0  0  0  0  0  0  0  0  0  0
   60.5379   35.2593   46.1939 H   0  0  0  0  0  0  0  0  0  0  0  0
   64.0450   32.7850   50.5280 C   0  0  0  0  0  0  0  0  0  0  0  0
   63.8155   32.5247   51.5718 H   0  0  0  0  0  0  0  0  0  0  0  0
   64.3181   33.8380   50.3650 H   0  0  0  0  0  0  0  0  0  0  0  0
   65.2880   31.9760   50.1080 C   0  0  0  0  0  0  0  0  0  0  0  0
   65.8205   31.6294   51.0059 H   0  0  0  0  0  0  0  0  0  0  0  0
   64.9753   31.1079   49.5092 H   0  0  0  0  0  0  0  0  0  0  0  0
   65.9552   32.6134   49.5092 H   0  0  0  0  0  0  0  0  0  0  0  0
   59.7530   30.9250   46.3880 C   0  0  0  0  0  0  0  0  0  0  0  0
   60.5470   32.0240   46.4220 F   0  0  0  0  0  0  0  0  0  0  0  0
   58.7550   30.8360   45.4140 C   0  0  0  0  0  0  0  0  0  0  0  0
   58.6274   31.6500   44.6852 H   0  0  0  0  0  0  0  0  0  0  0  0
  1  2  1  0
  2  3  1  0
  3  4  2  0
  3  5  2  0
  3  6  1  0
  6  7  2  0
  7  8  1  0
  7  9  1  0
  9 10  1  0
  9 11  2  0
 11 12  1  0
 12 13  1  0
 12 14  1  0
 14 15  2  0
 14 16  1  0
 16 17  1  0
 16 18  1  0
 19 16  1  1
 19 20  1  0
 20 21  1  0
 20 22  1  0
 20 23  1  0
 19 24  1  0
 24 25  1  0
 24 26  1  0
 24 27  1  0
 27 28  1  0
 27 29  2  0
 29 30  1  0
 29 31  1  0
 31 32  2  0
 32 33  1  0
 32 34  1  0
 34 35  1  0
 34 36  2  0
 36 37  1  0
 36 38  1  0
 38 39  1  0
 38 40  2  0
 40 41  1  0
 19 42  1  0
 42 43  1  0
 42 44  1  0
 42 45  1  0
 45 46  1  0
 45 47  1  0
 45 48  1  0
 11 49  1  0
 49 50  1  0
 49 51  2  0
 51 52  1  0
 51  6  1  0
 40 31  1  0
M  CHG  2   2  -1  19   1
M  END
>  <UniqueID>  (53) 
51

>  <SMILES>  (53) 
CC[N@+](C)(C/C=C\c1ccccc1)CC(=O)Nc1ccc(S([NH-])(=O)=O)cc1F

>  <Energy>  (53) 
79.83338163037547

>  <Genealogy>  (53) 
CC[N+](C)(CC=Cc1ccccc1)CC(=O)Nc1ccc(S([NH-])(=O)=O)cc1F (protonated)
CC[N@+](C)(CC=Cc1ccccc1)CC(=O)Nc1ccc(S([NH-])(=O)=O)cc1F (chirality)
CC[N@+](C)(C/C=C\c1ccccc1)CC(=O)Nc1ccc(S([NH-])(=O)=O)cc1F (cis-trans isomerization)
CC[N@+](C)(C/C=C\c1ccccc1)CC(=O)Nc1ccc(S([NH-])(=O)=O)cc1F (3D coordinates assigned)
CC[N@+](C)(C/C=C\c1ccccc1)CC(=O)Nc1ccc(S([NH-])(=O)=O)cc1F (optimized conformer: 79.83338163037547 kcal/mol)

>  <smiles>  (53) 
CC[N+](C)(CC=Cc1ccccc1)CC(=O)Nc1ccc(S(N)(=O)=O)cc1F

>  <score_type>  (53) 
oracle

>  <origin>  (53) 
adg

>  <m_score__min__energy>  (53) 
-10.109999999999999

>  <m_primary>  (53) 
energy

$$$$
53:0
     RDKit          3D

 57 60  0  0  0  0  0  0  0  0999 V2000
   64.7790   34.5810   51.8000 C   0  0  0  0  0  0  0  0  0  0  0  0
   63.6950   34.3430   50.8320 N   0  0  0  0  0  0  0  0  0  0  0  0
   62.5170   33.7700   51.5050 C   0  0  0  0  0  0  0  0  0  0  0  0
   61.3260   33.8310   50.5450 C   0  0  0  0  0  0  0  0  0  0  0  0
   61.7270   33.4550   49.1810 N   0  0  0  0  0  0  0  0  0  0  0  0
   60.7410   33.4760   48.1250 C   0  0  0  0  0  0  0  0  0  0  0  0
   59.3730   33.3300   48.4190 C   0  0  0  0  0  0  0  0  0  0  0  0
   58.4230   33.3020   47.3900 C   0  0  0  0  0  0  0  0  0  0  0  0
   58.8250   33.4250   46.0530 C   0  0  0  0  0  0  0  0  0  0  0  0
   57.6450   33.3080   44.7490 S   0  0  0  0  0  0  0  0  0  0  0  0
   58.3210   33.4540   43.4120 O   0  0  0  0  0  0  0  0  0  0  0  0
   56.6340   34.4150   44.8840 O   0  0  0  0  0  0  0  0  0  0  0  0
   56.8090   31.7930   44.8740 N   0  0  0  0  0  0  0  0  0  0  0  0
   57.4190   30.5350   45.1850 C   0  0  0  0  0  0  0  0  0  0  0  0
   57.2780   29.4800   44.2770 C   0  0  0  0  0  0  0  0  0  0  0  0
   57.8560   28.2400   44.5420 C   0  0  0  0  0  0  0  0  0  0  0  0
   58.6120   28.0370   45.7090 C   0  0  0  0  0  0  0  0  0  0  0  0
   58.7520   29.0920   46.6550 C   0  0  0  0  0  0  0  0  0  0  0  0
   58.1690   30.3430   46.3590 C   0  0  0  0  0  0  0  0  0  0  0  0
   59.6250   28.9400   47.9070 C   0  0  1  0  0  0  0  0  0  0  0  0
   60.9420   29.7200   47.6970 C   0  0  0  0  0  0  0  0  0  0  0  0
   58.9260   29.5130   49.0820 C   0  0  0  0  0  0  0  0  0  0  0  0
   58.3780   29.9610   50.0040 N   0  0  0  0  0  0  0  0  0  0  0  0
   59.9190   27.4510   48.2220 C   0  0  0  0  0  0  0  0  0  0  0  0
   60.3280   26.6720   46.9690 C   0  0  0  0  0  0  0  0  0  0  0  0
   59.1800   26.6600   45.9590 C   0  0  0  0  0  0  0  0  0  0  0  0
   60.1840   33.5950   45.7570 C   0  0  0  0  0  0  0  0  0  0  0  0
   61.1350   33.6190   46.7840 C   0  0  0  0  0  0  0  0  0  0  0  0
   63.0180   32.7830   48.9570 C   0  0  0  0  0  0  0  0  0  0  0  0
   64.1680   33.4720   49.7300 C   0  0  0  0  0  0  0  0  0  0  0  0
   64.3831   34.4941   52.8226 H   0  0  0  0  0  0  0  0  0  0  0  0
   65.5744   33.8361   51.6502 H   0  0  0  0  0  0  0  0  0  0  0  0
   65.1892   35.5906   51.6502 H   0  0  0  0  0  0  0  0  0  0  0  0
   62.7191   32.7238   51.7783 H   0  0  0  0  0  0  0  0  0  0  0  0
   62.2923   34.3406   52.4182 H   0  0  0  0  0  0  0  0  0  0  0  0
   60.5467   33.1378   50.8945 H   0  0  0  0  0  0  0  0  0  0  0  0
   60.9447   34.8626   50.5257 H   0  0  0  0  0  0  0  0  0  0  0  0
   59.0468   33.2371   49.4654 H   0  0  0  0  0  0  0  0  0  0  0  0
   57.3567   33.1829   47.6324 H   0  0  0  0  0  0  0  0  0  0  0  0
   56.7076   29.6302   43.3485 H   0  0  0  0  0  0  0  0  0  0  0  0
   57.7191   27.4121   43.8308 H   0  0  0  0  0  0  0  0  0  0  0  0
   58.3035   31.1815   47.0582 H   0  0  0  0  0  0  0  0  0  0  0  0
   61.3758   29.9769   48.6746 H   0  0  0  0  0  0  0  0  0  0  0  0
   61.6516   29.0964   47.1334 H   0  0  0  0  0  0  0  0  0  0  0  0
   60.7362   30.6420   47.1334 H   0  0  0  0  0  0  0  0  0  0  0  0
   60.7362   27.3976   48.9564 H   0  0  0  0  0  0  0  0  0  0  0  0
   58.9984   26.9985   48.6192 H   0  0  0  0  0  0  0  0  0  0  0  0
   61.2077   27.1507   46.5141 H   0  0  0  0  0  0  0  0  0  0  0  0
   60.5693   25.6367   47.2518 H   0  0  0  0  0  0  0  0  0  0  0  0
   59.5527   26.2544   45.0068 H   0  0  0  0  0  0  0  0  0  0  0  0
   58.3747   26.0383   46.3773 H   0  0  0  0  0  0  0  0  0  0  0  0
   60.5055   33.7103   44.7114 H   0  0  0  0  0  0  0  0  0  0  0  0
   62.1993   33.7509   46.5391 H   0  0  0  0  0  0  0  0  0  0  0  0
   62.9387   31.7388   49.2936 H   0  0  0  0  0  0  0  0  0  0  0  0
   63.2487   32.8365   47.8828 H   0  0  0  0  0  0  0  0  0  0  0  0
   64.8184   32.6934   50.1551 H   0  0  0  0  0  0  0  0  0  0  0  0
   64.7026   34.1138   49.0143 H   0  0  0  0  0  0  0  0  0  0  0  0
  1  2  1  0
  2  3  1  0
  3  4  1  0
  4  5  1  0
  5  6  1  0
  6  7  2  0
  7  8  1  0
  8  9  2  0
  9 10  1  0
 10 11  2  0
 10 12  2  0
 10 13  1  0
 13 14  1  0
 14 15  2  0
 15 16  1  0
 16 17  2  0
 17 18  1  0
 18 19  2  0
 18 20  1  0
 20 21  1  0
 20 22  1  1
 22 23  3  0
 20 24  1  0
 24 25  1  0
 25 26  1  0
  9 27  1  0
 27 28  2  0
  5 29  1  0
 29 30  1  0
 30  2  1  0
 28  6  1  0
 19 14  1  0
 26 17  1  0
  1 31  1  0
  1 32  1  0
  1 33  1  0
  3 34  1  0
  3 35  1  0
  4 36  1  0
  4 37  1  0
  7 38  1  0
  8 39  1  0
 15 40  1  0
 16 41  1  0
 19 42  1  0
 21 43  1  0
 21 44  1  0
 21 45  1  0
 24 46  1  0
 24 47  1  0
 25 48  1  0
 25 49  1  0
 26 50  1  0
 26 51  1  0
 27 52  1  0
 28 53  1  0
 29 54  1  0
 29 55  1  0
 30 56  1  0
 30 57  1  0
M  CHG  1  13  -1
M  END
>  <UniqueID>  (54) 
52

>  <SMILES>  (54) 
CN1CCN(c2ccc(S(=O)(=O)[N-]c3ccc4c(c3)[C@@](C)(C#N)CCC4)cc2)CC1

>  <Energy>  (54) 
74.61643381508962

>  <Genealogy>  (54) 
CN1CCN(c2ccc(S(=O)(=O)[N-]c3ccc4c(c3)C(C)(C#N)CCC4)cc2)CC1 (protonated)
CN1CCN(c2ccc(S(=O)(=O)[N-]c3ccc4c(c3)[C@@](C)(C#N)CCC4)cc2)CC1 (chirality)
CN1CCN(c2ccc(S(=O)(=O)[N-]c3ccc4c(c3)[C@@](C)(C#N)CCC4)cc2)CC1 (3D coordinates assigned)
CN1CCN(c2ccc(S(=O)(=O)[N-]c3ccc4c(c3)[C@@](C)(C#N)CCC4)cc2)CC1 (nonaromatic ring conformer: 74.61643381508962 kcal/mol)

>  <smiles>  (54) 
CN1CCN(c2ccc(S(=O)(=O)Nc3ccc4c(c3)C(C)(C#N)CCC4)cc2)CC1

>  <score_type>  (54) 
oracle

>  <origin>  (54) 
adg

>  <m_score__min__energy>  (54) 
-10.529999999999999

>  <m_primary>  (54) 
energy

$$$$
54:0
     RDKit          3D

 27 28  0  0  0  0  0  0  0  0999 V2000
   57.9580   32.2990   49.7910 N   0  0  0  0  0  0  0  0  0  0  0  0
   58.7720   32.9170   48.7860 C   0  0  0  0  0  0  0  0  0  0  0  0
   58.2590   33.0760   47.4890 C   0  0  0  0  0  0  0  0  0  0  0  0
   59.0270   33.6840   46.4800 C   0  0  0  0  0  0  0  0  0  0  0  0
   58.4950   33.8400   45.1040 C   0  0  0  0  0  0  0  0  0  0  0  0
   58.5890   34.9640   44.5390 O   0  0  0  0  0  0  0  0  0  0  0  0
   57.8560   32.7210   44.3690 C   0  0  0  0  0  0  0  0  0  0  0  0
   58.0030   32.6230   42.9740 C   0  0  0  0  0  0  0  0  0  0  0  0
   57.3920   31.5820   42.2700 C   0  0  0  0  0  0  0  0  0  0  0  0
   56.6200   30.6360   42.9470 C   0  0  0  0  0  0  0  0  0  0  0  0
   56.4490   30.7290   44.3300 C   0  0  0  0  0  0  0  0  0  0  0  0
   55.6680   29.7840   44.9920 O   0  0  0  0  0  0  0  0  0  0  0  0
   57.0620   31.7730   45.0400 C   0  0  0  0  0  0  0  0  0  0  0  0
   60.3320   34.1060   46.7780 C   0  0  0  0  0  0  0  0  0  0  0  0
   60.8490   33.9510   48.0660 C   0  0  0  0  0  0  0  0  0  0  0  0
   60.0770   33.3630   49.0740 C   0  0  0  0  0  0  0  0  0  0  0  0
   60.7830   33.1960   50.6770 Cl  0  0  0  0  0  0  0  0  0  0  0  0
   56.9930   32.6480   49.9800 H   0  0  0  0  0  0  0  0  0  0  0  0
   58.2990   31.4930   50.3590 H   0  0  0  0  0  0  0  0  0  0  0  0
   57.2437   32.7206   47.2591 H   0  0  0  0  0  0  0  0  0  0  0  0
   58.6026   33.3703   42.4336 H   0  0  0  0  0  0  0  0  0  0  0  0
   57.5196   31.5077   41.1800 H   0  0  0  0  0  0  0  0  0  0  0  0
   56.1451   29.8152   42.3896 H   0  0  0  0  0  0  0  0  0  0  0  0
   55.6460   29.7300   46.0030 H   0  0  0  0  0  0  0  0  0  0  0  0
   56.9207   31.8505   46.1281 H   0  0  0  0  0  0  0  0  0  0  0  0
   60.9517   34.5619   45.9918 H   0  0  0  0  0  0  0  0  0  0  0  0
   61.8701   34.2935   48.2896 H   0  0  0  0  0  0  0  0  0  0  0  0
  1  2  1  0
  2  3  2  0
  3  4  1  0
  4  5  1  0
  5  6  2  0
  5  7  1  0
  7  8  2  0
  8  9  1  0
  9 10  2  0
 10 11  1  0
 11 12  1  0
 11 13  2  0
  4 14  2  0
 14 15  1  0
 15 16  2  0
 16 17  1  0
 16  2  1  0
 13  7  1  0
  1 18  1  0
  1 19  1  0
  3 20  1  0
  8 21  1  0
  9 22  1  0
 10 23  1  0
 12 24  1  0
 13 25  1  0
 14 26  1  0
 15 27  1  0
M  END
>  <UniqueID>  (55) 
53

>  <SMILES>  (55) 
Nc1cc(C(=O)c2cccc(O)c2)ccc1Cl

>  <Energy>  (55) 
34.04223963814441

>  <Genealogy>  (55) 
Nc1cc(C(=O)c2cccc(O)c2)ccc1Cl (3D coordinates assigned)
Nc1cc(C(=O)c2cccc(O)c2)ccc1Cl (optimized conformer: 34.04223963814441 kcal/mol)

>  <smiles>  (55) 
Nc1cc(C(=O)c2cccc(O)c2)ccc1Cl

>  <score_type>  (55) 
oracle

>  <origin>  (55) 
adg

>  <m_score__min__energy>  (55) 
-7.2999999999999998

>  <m_primary>  (55) 
energy

$$$$
55:0
     RDKit          3D

 53 55  0  0  0  0  0  0  0  0999 V2000
   52.6280   23.9170   44.8120 C   0  0  0  0  0  0  0  0  0  0  0  0
   53.9790   23.4730   44.7850 O   0  0  0  0  0  0  0  0  0  0  0  0
   55.0500   24.2720   45.2000 C   0  0  0  0  0  0  0  0  0  0  0  0
   54.8180   25.4220   45.6670 O   0  0  0  0  0  0  0  0  0  0  0  0
   56.4530   23.7760   45.0790 C   0  0  0  0  0  0  0  0  0  0  0  0
   56.7360   22.5890   44.3590 C   0  0  0  0  0  0  0  0  0  0  0  0
   55.7120   21.8610   43.7520 O   0  0  0  0  0  0  0  0  0  0  0  0
   58.0520   22.1250   44.2550 C   0  0  0  0  0  0  0  0  0  0  0  0
   59.0940   22.8140   44.8680 C   0  0  0  0  0  0  0  0  0  0  0  0
   58.8370   23.9800   45.5820 C   0  0  0  0  0  0  0  0  0  0  0  0
   57.5220   24.4790   45.6950 C   0  0  0  0  0  0  0  0  0  0  0  0
   57.2530   25.6710   46.3910 O   0  0  0  0  0  0  0  0  0  0  0  0
   58.1290   26.7930   46.5100 C   0  0  0  0  0  0  0  0  0  0  0  0
   58.0030   27.7060   45.2840 C   0  0  0  0  0  0  0  0  0  0  0  0
   56.6410   28.4140   45.2280 C   0  0  0  0  0  0  0  0  0  0  0  0
   56.6070   29.5050   44.1880 C   0  0  0  0  0  0  0  0  0  0  0  0
   56.6930   29.1970   42.9690 O   0  0  0  0  0  0  0  0  0  0  0  0
   56.4360   30.8820   44.5420 N   0  0  0  0  0  0  0  0  0  0  0  0
   57.4000   31.7190   45.1980 C   0  0  0  0  0  0  0  0  0  0  0  0
   57.2070   33.1050   45.1950 C   0  0  0  0  0  0  0  0  0  0  0  0
   58.1430   33.9500   45.7990 C   0  0  0  0  0  0  0  0  0  0  0  0
   59.2860   33.4210   46.4100 C   0  0  0  0  0  0  0  0  0  0  0  0
   60.2040   34.3030   47.0000 O   0  0  0  0  0  0  0  0  0  0  0  0
   61.4620   33.9480   47.5070 C   0  0  0  0  0  0  0  0  0  0  0  0
   62.5260   33.5630   46.6670 C   0  0  0  0  0  0  0  0  0  0  0  0
   63.7550   33.1880   47.2160 C   0  0  0  0  0  0  0  0  0  0  0  0
   63.9300   33.1780   48.6030 C   0  0  0  0  0  0  0  0  0  0  0  0
   62.8750   33.5440   49.4430 C   0  0  0  0  0  0  0  0  0  0  0  0
   61.6450   33.9240   48.8970 C   0  0  0  0  0  0  0  0  0  0  0  0
   59.5070   32.0330   46.3700 C   0  0  0  0  0  0  0  0  0  0  0  0
   58.5720   31.1880   45.7650 C   0  0  0  0  0  0  0  0  0  0  0  0
   52.2984   24.0253   45.8559 H   0  0  0  0  0  0  0  0  0  0  0  0
   52.5508   24.8878   44.3005 H   0  0  0  0  0  0  0  0  0  0  0  0
   51.9900   23.1813   44.3005 H   0  0  0  0  0  0  0  0  0  0  0  0
   54.7720   21.8430   44.1310 H   0  0  0  0  0  0  0  0  0  0  0  0
   58.2644   21.2088   43.6845 H   0  0  0  0  0  0  0  0  0  0  0  0
   60.1238   22.4357   44.7878 H   0  0  0  0  0  0  0  0  0  0  0  0
   59.6670   24.5182   46.0631 H   0  0  0  0  0  0  0  0  0  0  0  0
   57.8669   27.3625   47.4138 H   0  0  0  0  0  0  0  0  0  0  0  0
   59.1650   26.4296   46.5777 H   0  0  0  0  0  0  0  0  0  0  0  0
   58.7966   28.4666   45.3252 H   0  0  0  0  0  0  0  0  0  0  0  0
   58.0964   27.0798   44.3845 H   0  0  0  0  0  0  0  0  0  0  0  0
   55.8657   27.6716   44.9877 H   0  0  0  0  0  0  0  0  0  0  0  0
   56.4617   28.8779   46.2091 H   0  0  0  0  0  0  0  0  0  0  0  0
   56.3141   33.5320   44.7149 H   0  0  0  0  0  0  0  0  0  0  0  0
   57.9801   35.0379   45.7940 H   0  0  0  0  0  0  0  0  0  0  0  0
   62.3886   33.5577   45.5756 H   0  0  0  0  0  0  0  0  0  0  0  0
   64.5863   32.9001   46.5557 H   0  0  0  0  0  0  0  0  0  0  0  0
   64.8982   32.8820   49.0331 H   0  0  0  0  0  0  0  0  0  0  0  0
   63.0121   33.5332   50.5344 H   0  0  0  0  0  0  0  0  0  0  0  0
   60.8156   34.2059   49.5623 H   0  0  0  0  0  0  0  0  0  0  0  0
   60.4192   31.6104   46.8165 H   0  0  0  0  0  0  0  0  0  0  0  0
   58.7538   30.1036   45.7324 H   0  0  0  0  0  0  0  0  0  0  0  0
  1  2  1  0
  2  3  1  0
  3  4  2  0
  3  5  1  0
  5  6  2  0
  6  7  1  0
  6  8  1  0
  8  9  2  0
  9 10  1  0
 10 11  2  0
 11 12  1  0
 12 13  1  0
 13 14  1  0
 14 15  1  0
 15 16  1  0
 16 17  2  0
 16 18  1  0
 18 19  1  0
 19 20  2  0
 20 21  1  0
 21 22  2  0
 22 23  1  0
 23 24  1  0
 24 25  2  0
 25 26  1  0
 26 27  2  0
 27 28  1  0
 28 29  2  0
 22 30  1  0
 30 31  2  0
 11  5  1  0
 31 19  1  0
 29 24  1  0
  1 32  1  0
  1 33  1  0
  1 34  1  0
  7 35  1  0
  8 36  1  0
  9 37  1  0
 10 38  1  0
 13 39  1  0
 13 40  1  0
 14 41  1  0
 14 42  1  0
 15 43  1  0
 15 44  1  0
 20 45  1  0
 21 46  1  0
 25 47  1  0
 26 48  1  0
 27 49  1  0
 28 50  1  0
 29 51  1  0
 30 52  1  0
 31 53  1  0
M  CHG  1  18  -1
M  END
>  <UniqueID>  (56) 
54

>  <SMILES>  (56) 
COC(=O)c1c(O)cccc1OCCCC(=O)[N-]c1ccc(Oc2ccccc2)cc1

>  <Energy>  (56) 
64.97702488840281

>  <Genealogy>  (56) 
COC(=O)c1c(O)cccc1OCCCC(=O)[N-]c1ccc(Oc2ccccc2)cc1 (protonated)
COC(=O)c1c(O)cccc1OCCCC(=O)[N-]c1ccc(Oc2ccccc2)cc1 (3D coordinates assigned)
COC(=O)c1c(O)cccc1OCCCC(=O)[N-]c1ccc(Oc2ccccc2)cc1 (optimized conformer: 64.97702488840281 kcal/mol)

>  <smiles>  (56) 
COC(=O)c1c(O)cccc1OCCCC(=O)Nc1ccc(Oc2ccccc2)cc1

>  <score_type>  (56) 
oracle

>  <origin>  (56) 
adg

>  <m_score__min__energy>  (56) 
-11.18

>  <m_primary>  (56) 
energy

$$$$
56:0
     RDKit          3D

 38 40  0  0  0  0  0  0  0  0999 V2000
   58.8800   27.0730   44.8990 O   0  0  0  0  0  0  0  0  0  0  0  0
   57.6300   27.0180   45.0630 C   0  0  0  0  0  0  0  0  0  0  0  0
   56.8480   28.2220   45.0000 N   0  0  0  0  0  0  0  0  0  0  0  0
   57.3880   29.5390   45.2100 C   0  0  0  0  0  0  0  0  0  0  0  0
   57.2490   30.5510   44.2450 C   0  0  0  0  0  0  0  0  0  0  0  0
   57.8020   31.8160   44.4630 C   0  0  0  0  0  0  0  0  0  0  0  0
   58.5010   32.0930   45.6460 C   0  0  0  0  0  0  0  0  0  0  0  0
   59.0840   33.3940   45.8350 N   0  0  0  0  0  0  0  0  0  0  0  0
   60.1380   33.6840   46.7700 C   0  0  0  0  0  0  0  0  0  0  0  0
   59.8130   34.0110   48.0960 C   0  0  0  0  0  0  0  0  0  0  0  0
   60.8230   34.2700   49.0280 C   0  0  0  0  0  0  0  0  0  0  0  0
   62.1650   34.1890   48.6470 C   0  0  0  0  0  0  0  0  0  0  0  0
   62.4990   33.8400   47.3360 C   0  0  0  0  0  0  0  0  0  0  0  0
   61.4920   33.5810   46.4000 C   0  0  0  0  0  0  0  0  0  0  0  0
   58.6780   31.0680   46.5910 C   0  0  0  0  0  0  0  0  0  0  0  0
   58.1250   29.8040   46.3740 C   0  0  0  0  0  0  0  0  0  0  0  0
   56.9790   25.6990   45.2430 C   0  0  0  0  0  0  0  0  0  0  0  0
   57.7160   24.5250   45.0000 C   0  0  0  0  0  0  0  0  0  0  0  0
   57.1220   23.2680   45.1540 C   0  0  0  0  0  0  0  0  0  0  0  0
   55.7890   23.1690   45.5590 C   0  0  0  0  0  0  0  0  0  0  0  0
   55.0510   24.3250   45.8200 C   0  0  0  0  0  0  0  0  0  0  0  0
   55.6380   25.5880   45.6730 C   0  0  0  0  0  0  0  0  0  0  0  0
   54.8870   26.7150   45.9830 O   0  0  0  0  0  0  0  0  0  0  0  0
   55.8580   28.1430   44.6760 H   0  0  0  0  0  0  0  0  0  0  0  0
   56.7019   30.3465   43.3129 H   0  0  0  0  0  0  0  0  0  0  0  0
   57.6878   32.6003   43.7002 H   0  0  0  0  0  0  0  0  0  0  0  0
   58.7180   34.1820   45.2530 H   0  0  0  0  0  0  0  0  0  0  0  0
   58.7582   34.0638   48.4036 H   0  0  0  0  0  0  0  0  0  0  0  0
   60.5607   34.5378   50.0622 H   0  0  0  0  0  0  0  0  0  0  0  0
   62.9584   34.4000   49.3792 H   0  0  0  0  0  0  0  0  0  0  0  0
   63.5558   33.7687   47.0392 H   0  0  0  0  0  0  0  0  0  0  0  0
   61.7593   33.2960   45.3717 H   0  0  0  0  0  0  0  0  0  0  0  0
   59.2554   31.2624   47.5069 H   0  0  0  0  0  0  0  0  0  0  0  0
   58.2684   29.0100   47.1216 H   0  0  0  0  0  0  0  0  0  0  0  0
   58.7679   24.5964   44.6864 H   0  0  0  0  0  0  0  0  0  0  0  0
   57.7053   22.3566   44.9560 H   0  0  0  0  0  0  0  0  0  0  0  0
   55.3206   22.1802   45.6723 H   0  0  0  0  0  0  0  0  0  0  0  0
   54.0026   24.2434   46.1429 H   0  0  0  0  0  0  0  0  0  0  0  0
  1  2  2  0
  2  3  1  0
  3  4  1  0
  4  5  2  0
  5  6  1  0
  6  7  2  0
  7  8  1  0
  8  9  1  0
  9 10  2  0
 10 11  1  0
 11 12  2  0
 12 13  1  0
 13 14  2  0
  7 15  1  0
 15 16  2  0
  2 17  1  0
 17 18  2  0
 18 19  1  0
 19 20  2  0
 20 21  1  0
 21 22  2  0
 22 23  1  0
 16  4  1  0
 22 17  1  0
 14  9  1  0
  3 24  1  0
  5 25  1  0
  6 26  1  0
  8 27  1  0
 10 28  1  0
 11 29  1  0
 12 30  1  0
 13 31  1  0
 14 32  1  0
 15 33  1  0
 16 34  1  0
 18 35  1  0
 19 36  1  0
 20 37  1  0
 21 38  1  0
M  CHG  1  23  -1
M  END
>  <UniqueID>  (57) 
55

>  <SMILES>  (57) 
O=C(Nc1ccc(Nc2ccccc2)cc1)c1ccccc1[O-]

>  <Energy>  (57) 
53.78866060203525

>  <Genealogy>  (57) 
O=C(Nc1ccc(Nc2ccccc2)cc1)c1ccccc1[O-] (protonated)
O=C(Nc1ccc(Nc2ccccc2)cc1)c1ccccc1[O-] (3D coordinates assigned)
O=C(Nc1ccc(Nc2ccccc2)cc1)c1ccccc1[O-] (optimized conformer: 53.78866060203525 kcal/mol)

>  <smiles>  (57) 
O=C(Nc1ccc(Nc2ccccc2)cc1)c1ccccc1O

>  <score_type>  (57) 
oracle

>  <origin>  (57) 
adg

>  <m_score__min__energy>  (57) 
-11.369999999999999

>  <m_primary>  (57) 
energy

$$$$
57:0
     RDKit          3D

 50 52  0  0  0  0  0  0  0  0999 V2000
   55.1480   29.7410   43.7380 C   0  0  0  0  0  0  0  0  0  0  0  0
   56.3780   29.3250   42.9380 C   0  0  0  0  0  0  0  0  0  0  0  0
   57.5980   29.4780   43.7450 N   0  0  0  0  0  0  0  0  0  0  0  0
   58.5880   28.3930   43.7840 C   0  0  0  0  0  0  0  0  0  0  0  0
   58.8100   27.9320   45.2060 C   0  0  0  0  0  0  0  0  0  0  0  0
   60.0890   28.0800   45.7740 C   0  0  0  0  0  0  0  0  0  0  0  0
   60.3280   27.7090   47.0980 C   0  0  0  0  0  0  0  0  0  0  0  0
   59.2940   27.1900   47.8760 C   0  0  0  0  0  0  0  0  0  0  0  0
   58.0180   27.0380   47.3300 C   0  0  0  0  0  0  0  0  0  0  0  0
   57.7630   27.4030   46.0020 C   0  0  0  0  0  0  0  0  0  0  0  0
   56.4670   27.2170   45.5160 O   0  0  0  0  0  0  0  0  0  0  0  0
   57.8450   30.7060   44.4540 C   0  0  0  0  0  0  0  0  0  0  0  0
   57.9240   31.9250   43.7630 C   0  0  0  0  0  0  0  0  0  0  0  0
   58.1660   33.1140   44.4560 C   0  0  0  0  0  0  0  0  0  0  0  0
   58.3400   33.1000   45.8520 C   0  0  0  0  0  0  0  0  0  0  0  0
   58.5680   34.2700   46.5900 O   0  0  0  0  0  0  0  0  0  0  0  0
   59.8080   34.9050   46.7380 C   0  0  0  0  0  0  0  0  0  0  0  0
   59.9480   36.1060   46.3780 O   0  0  0  0  0  0  0  0  0  0  0  0
   60.9820   34.1480   47.2350 C   0  0  0  0  0  0  0  0  0  0  0  0
   62.0640   33.9170   46.3660 C   0  0  0  0  0  0  0  0  0  0  0  0
   63.1820   33.2040   46.7990 C   0  0  0  0  0  0  0  0  0  0  0  0
   63.2220   32.7270   48.1060 C   0  0  0  0  0  0  0  0  0  0  0  0
   62.1830   32.9630   48.9470 N   0  0  0  0  0  0  0  0  0  0  0  0
   61.0750   33.6530   48.5600 C   0  0  0  0  0  0  0  0  0  0  0  0
   59.8020   33.9350   49.7990 S   0  0  0  0  0  0  0  0  0  0  0  0
   59.2120   32.2140   49.7620 C   0  0  0  0  0  0  0  0  0  0  0  0
   58.2390   31.8860   46.5400 C   0  0  0  0  0  0  0  0  0  0  0  0
   57.9990   30.6960   45.8490 C   0  0  0  0  0  0  0  0  0  0  0  0
   55.3676   29.6667   44.8133 H   0  0  0  0  0  0  0  0  0  0  0  0
   54.8824   30.7790   43.4889 H   0  0  0  0  0  0  0  0  0  0  0  0
   54.3069   29.0774   43.4889 H   0  0  0  0  0  0  0  0  0  0  0  0
   56.2739   28.2722   42.6366 H   0  0  0  0  0  0  0  0  0  0  0  0
   56.4576   29.9696   42.0502 H   0  0  0  0  0  0  0  0  0  0  0  0
   58.2231   27.5478   43.1820 H   0  0  0  0  0  0  0  0  0  0  0  0
   59.5401   28.7644   43.3770 H   0  0  0  0  0  0  0  0  0  0  0  0
   60.9091   28.4925   45.1680 H   0  0  0  0  0  0  0  0  0  0  0  0
   61.3335   27.8262   47.5283 H   0  0  0  0  0  0  0  0  0  0  0  0
   59.4835   26.9002   48.9201 H   0  0  0  0  0  0  0  0  0  0  0  0
   57.2058   26.6280   47.9482 H   0  0  0  0  0  0  0  0  0  0  0  0
   56.2600   26.8930   44.5820 H   0  0  0  0  0  0  0  0  0  0  0  0
   57.7948   31.9445   42.6708 H   0  0  0  0  0  0  0  0  0  0  0  0
   58.2207   34.0658   43.9073 H   0  0  0  0  0  0  0  0  0  0  0  0
   62.0281   34.3020   45.3362 H   0  0  0  0  0  0  0  0  0  0  0  0
   64.0234   33.0206   46.1146 H   0  0  0  0  0  0  0  0  0  0  0  0
   64.0958   32.1587   48.4574 H   0  0  0  0  0  0  0  0  0  0  0  0
   59.0863   31.8473   50.7914 H   0  0  0  0  0  0  0  0  0  0  0  0
   58.2469   32.1685   49.2361 H   0  0  0  0  0  0  0  0  0  0  0  0
   59.9461   31.5859   49.2361 H   0  0  0  0  0  0  0  0  0  0  0  0
   58.3495   31.8685   47.6343 H   0  0  0  0  0  0  0  0  0  0  0  0
   57.9304   29.7468   46.4006 H   0  0  0  0  0  0  0  0  0  0  0  0
  1  2  1  0
  2  3  1  0
  3  4  1  0
  4  5  1  0
  5  6  2  0
  6  7  1  0
  7  8  2  0
  8  9  1  0
  9 10  2  0
 10 11  1  0
  3 12  1  0
 12 13  2  0
 13 14  1  0
 14 15  2  0
 15 16  1  0
 16 17  1  0
 17 18  2  0
 17 19  1  0
 19 20  2  0
 20 21  1  0
 21 22  2  0
 22 23  1  0
 23 24  2  0
 24 25  1  0
 25 26  1  0
 15 27  1  0
 27 28  2  0
 10  5  1  0
 28 12  1  0
 24 19  1  0
  1 29  1  0
  1 30  1  0
  1 31  1  0
  2 32  1  0
  2 33  1  0
  4 34  1  0
  4 35  1  0
  6 36  1  0
  7 37  1  0
  8 38  1  0
  9 39  1  0
 11 40  1  0
 13 41  1  0
 14 42  1  0
 20 43  1  0
 21 44  1  0
 22 45  1  0
 26 46  1  0
 26 47  1  0
 26 48  1  0
 27 49  1  0
 28 50  1  0
M  END
>  <UniqueID>  (58) 
56

>  <SMILES>  (58) 
CCN(Cc1ccccc1O)c1ccc(OC(=O)c2cccnc2SC)cc1

>  <Energy>  (58) 
58.28843938701756

>  <Genealogy>  (58) 
CCN(Cc1ccccc1O)c1ccc(OC(=O)c2cccnc2SC)cc1 (3D coordinates assigned)
CCN(Cc1ccccc1O)c1ccc(OC(=O)c2cccnc2SC)cc1 (optimized conformer: 58.28843938701756 kcal/mol)

>  <smiles>  (58) 
CCN(Cc1ccccc1O)c1ccc(OC(=O)c2cccnc2SC)cc1

>  <score_type>  (58) 
oracle

>  <origin>  (58) 
adg

>  <m_score__min__energy>  (58) 
-8.9000000000000004

>  <m_primary>  (58) 
energy

$$$$
58:0
     RDKit          3D

 42 44  0  0  0  0  0  0  0  0999 V2000
   58.8920   35.3330   47.4960 O   0  0  0  0  0  0  0  0  0  0  0  0
   59.0860   34.3530   46.7290 C   0  0  0  0  0  0  0  0  0  0  0  0
   57.9050   33.5520   46.2520 C   0  0  0  0  0  0  0  0  0  0  0  0
   57.9050   33.4120   44.4290 S   0  0  0  0  0  0  0  0  0  0  0  0
   57.4650   31.6760   44.4050 C   0  0  0  0  0  0  0  0  0  0  0  0
   56.2890   31.1940   44.8480 N   0  0  0  0  0  0  0  0  0  0  0  0
   56.3340   29.8840   44.6600 N   0  0  0  0  0  0  0  0  0  0  0  0
   57.5380   29.6240   44.1140 C   0  0  0  0  0  0  0  0  0  0  0  0
   58.0190   28.2510   43.7450 C   0  0  0  0  0  0  0  0  0  0  0  0
   57.3930   27.2070   44.5660 N   0  0  0  0  0  0  0  0  0  0  0  0
   58.2940   26.8790   46.0230 S   0  0  0  0  0  0  0  0  0  0  0  0
   59.3440   25.8250   45.7980 O   0  0  0  0  0  0  0  0  0  0  0  0
   57.3450   26.3790   47.0750 O   0  0  0  0  0  0  0  0  0  0  0  0
   59.0700   28.3600   46.5850 C   0  0  0  0  0  0  0  0  0  0  0  0
   60.2340   28.8210   45.9580 C   0  0  0  0  0  0  0  0  0  0  0  0
   60.8520   29.9980   46.3910 C   0  0  0  0  0  0  0  0  0  0  0  0
   60.3080   30.7200   47.4570 C   0  0  0  0  0  0  0  0  0  0  0  0
   59.1450   30.2670   48.0870 C   0  0  0  0  0  0  0  0  0  0  0  0
   58.5240   29.0920   47.6510 C   0  0  0  0  0  0  0  0  0  0  0  0
   58.2370   30.7210   43.9500 O   0  0  0  0  0  0  0  0  0  0  0  0
   60.4320   34.0520   46.3350 N   0  0  0  0  0  0  0  0  0  0  0  0
   61.5610   33.7750   47.1780 C   0  0  0  0  0  0  0  0  0  0  0  0
   62.8380   33.5040   46.6520 C   0  0  0  0  0  0  0  0  0  0  0  0
   63.9060   33.2230   47.5110 C   0  0  0  0  0  0  0  0  0  0  0  0
   63.7050   33.1870   48.8940 C   0  0  0  0  0  0  0  0  0  0  0  0
   65.1670   32.8220   50.0650 Br  0  0  0  0  0  0  0  0  0  0  0  0
   62.4290   33.4150   49.4180 C   0  0  0  0  0  0  0  0  0  0  0  0
   61.3610   33.6950   48.5620 C   0  0  0  0  0  0  0  0  0  0  0  0
   57.9525   32.5443   46.6906 H   0  0  0  0  0  0  0  0  0  0  0  0
   56.9833   34.0643   46.5651 H   0  0  0  0  0  0  0  0  0  0  0  0
   57.7783   28.0630   42.6882 H   0  0  0  0  0  0  0  0  0  0  0  0
   59.1044   28.2140   43.9200 H   0  0  0  0  0  0  0  0  0  0  0  0
   56.4240   27.5020   44.8300 H   0  0  0  0  0  0  0  0  0  0  0  0
   60.6648   28.2538   45.1198 H   0  0  0  0  0  0  0  0  0  0  0  0
   61.7655   30.3555   45.8932 H   0  0  0  0  0  0  0  0  0  0  0  0
   60.7949   31.6447   47.8003 H   0  0  0  0  0  0  0  0  0  0  0  0
   58.7179   30.8353   48.9265 H   0  0  0  0  0  0  0  0  0  0  0  0
   57.6058   28.7408   48.1445 H   0  0  0  0  0  0  0  0  0  0  0  0
   62.9967   33.5131   45.5635 H   0  0  0  0  0  0  0  0  0  0  0  0
   64.9066   33.0299   47.0970 H   0  0  0  0  0  0  0  0  0  0  0  0
   62.2659   33.3739   50.5051 H   0  0  0  0  0  0  0  0  0  0  0  0
   60.3552   33.8539   48.9781 H   0  0  0  0  0  0  0  0  0  0  0  0
  1  2  2  0
  2  3  1  0
  3  4  1  0
  4  5  1  0
  5  6  2  0
  6  7  1  0
  7  8  2  0
  8  9  1  0
  9 10  1  0
 10 11  1  0
 11 12  2  0
 11 13  2  0
 11 14  1  0
 14 15  2  0
 15 16  1  0
 16 17  2  0
 17 18  1  0
 18 19  2  0
  8 20  1  0
  2 21  1  0
 21 22  1  0
 22 23  2  0
 23 24  1  0
 24 25  2  0
 25 26  1  0
 25 27  1  0
 27 28  2  0
 20  5  1  0
 28 22  1  0
 19 14  1  0
  3 29  1  0
  3 30  1  0
  9 31  1  0
  9 32  1  0
 10 33  1  0
 15 34  1  0
 16 35  1  0
 17 36  1  0
 18 37  1  0
 19 38  1  0
 23 39  1  0
 24 40  1  0
 27 41  1  0
 28 42  1  0
M  CHG  1  21  -1
M  END
>  <UniqueID>  (59) 
57

>  <SMILES>  (59) 
O=C(CSc1nnc(CNS(=O)(=O)c2ccccc2)o1)[N-]c1ccc(Br)cc1

>  <Energy>  (59) 
72.42560667959783

>  <Genealogy>  (59) 
O=C(CSc1nnc(CNS(=O)(=O)c2ccccc2)o1)[N-]c1ccc(Br)cc1 (protonated)
O=C(CSc1nnc(CNS(=O)(=O)c2ccccc2)o1)[N-]c1ccc(Br)cc1 (3D coordinates assigned)
O=C(CSc1nnc(CNS(=O)(=O)c2ccccc2)o1)[N-]c1ccc(Br)cc1 (optimized conformer: 72.42560667959783 kcal/mol)

>  <smiles>  (59) 
O=C(CSc1nnc(CNS(=O)(=O)c2ccccc2)o1)Nc1ccc(Br)cc1

>  <score_type>  (59) 
oracle

>  <origin>  (59) 
adg

>  <m_score__min__energy>  (59) 
-11.380000000000001

>  <m_primary>  (59) 
energy

$$$$
59:0
     RDKit          3D

 19 20  0  0  0  0  0  0  0  0999 V2000
   55.0640   29.3350   44.5020 N   0  0  0  0  0  0  0  0  0  0  0  0
   56.7860   29.3690   44.6470 S   0  0  0  0  0  0  0  0  0  0  0  0
   57.4000   29.6440   43.3030 O   0  0  0  0  0  0  0  0  0  0  0  0
   57.1890   30.4640   45.5950 O   0  0  0  0  0  0  0  0  0  0  0  0
   57.3510   27.8160   45.2530 C   0  0  0  0  0  0  0  0  0  0  0  0
   58.7370   27.5380   45.2990 C   0  0  0  0  0  0  0  0  0  0  0  0
   59.2020   26.2970   45.7700 C   0  0  0  0  0  0  0  0  0  0  0  0
   58.2670   25.3510   46.1830 C   0  0  0  0  0  0  0  0  0  0  0  0
   56.9130   25.6230   46.1300 C   0  0  0  0  0  0  0  0  0  0  0  0
   56.4230   26.8420   45.6690 C   0  0  0  0  0  0  0  0  0  0  0  0
   56.2180   24.4500   46.6170 C   0  0  0  0  0  0  0  0  0  0  0  0
   54.9750   24.2890   46.7290 O   0  0  0  0  0  0  0  0  0  0  0  0
   57.2650   23.4970   46.9490 C   0  0  0  0  0  0  0  0  0  0  0  0
   57.0780   22.3410   47.4080 O   0  0  0  0  0  0  0  0  0  0  0  0
   58.5600   24.0430   46.6830 N   0  0  0  0  0  0  0  0  0  0  0  0
   54.6760   29.3410   45.4720 H   0  0  0  0  0  0  0  0  0  0  0  0
   59.4573   28.2987   44.9636 H   0  0  0  0  0  0  0  0  0  0  0  0
   60.2793   26.0786   45.8112 H   0  0  0  0  0  0  0  0  0  0  0  0
   55.3414   27.0387   45.6308 H   0  0  0  0  0  0  0  0  0  0  0  0
  1  2  1  0
  2  3  2  0
  2  4  2  0
  2  5  1  0
  5  6  2  0
  6  7  1  0
  7  8  2  0
  8  9  1  0
  9 10  2  0
  9 11  1  0
 11 12  2  0
 11 13  1  0
 13 14  2  0
 13 15  1  0
 10  5  1  0
 15  8  1  0
  1 16  1  0
  6 17  1  0
  7 18  1  0
 10 19  1  0
M  CHG  2   1  -1  15  -1
M  END
>  <UniqueID>  (60) 
58

>  <SMILES>  (60) 
[NH-]S(=O)(=O)c1ccc2c(c1)C(=O)C(=O)[N-]2

>  <Energy>  (60) 
49.95762069715486

>  <Genealogy>  (60) 
[NH-]S(=O)(=O)c1ccc2c(c1)C(=O)C(=O)[N-]2 (protonated)
[NH-]S(=O)(=O)c1ccc2c(c1)C(=O)C(=O)[N-]2 (3D coordinates assigned)
[NH-]S(=O)(=O)c1ccc2c(c1)C(=O)C(=O)[N-]2 (nonaromatic ring conformer: 49.95762069715486 kcal/mol)

>  <smiles>  (60) 
NS(=O)(=O)c1ccc2c(c1)C(=O)C(=O)N2

>  <score_type>  (60) 
oracle

>  <origin>  (60) 
adg

>  <m_score__min__energy>  (60) 
-9.9900000000000002

>  <m_primary>  (60) 
energy

$$$$
60:0
     RDKit          3D

 41 43  0  0  1  0  0  0  0  0999 V2000
   65.5940   32.6780   50.1220 C   0  0  0  0  0  0  0  0  0  0  0  0
   64.9730   33.0820   48.9460 O   0  0  0  0  0  0  0  0  0  0  0  0
   63.6190   33.3270   48.8060 C   0  0  0  0  0  0  0  0  0  0  0  0
   62.8490   33.9380   49.7790 C   0  0  0  0  0  0  0  0  0  0  0  0
   58.9660   29.8400   45.5130 C   0  0  0  0  0  0  0  0  0  0  0  0
   57.7740   30.2140   44.9430 C   0  0  0  0  0  0  0  0  0  0  0  0
   57.1060   31.4350   45.2400 N   0  0  0  0  0  0  0  0  0  0  0  0
   57.7580   32.4970   45.5590 C   0  0  0  0  0  0  0  0  0  0  0  0
   59.1120   34.7770   46.1140 C   0  0  0  0  0  0  0  0  0  0  0  0
   58.5680   34.6080   44.8560 C   0  0  0  0  0  0  0  0  0  0  0  0
   57.9050   33.4520   44.6410 N   0  0  0  0  0  0  0  0  0  0  0  0
   58.9650   33.7930   47.0700 C   0  0  0  0  0  0  0  0  0  0  0  0
   59.4950   34.0050   48.2300 N   0  0  0  0  0  0  0  0  0  0  0  0
   60.8900   33.7540   48.3760 C   0  0  0  0  0  0  0  0  0  0  0  0
   61.6490   33.1430   47.3980 C   0  0  0  0  0  0  0  0  0  0  0  0
   59.5630   28.6360   45.1790 C   0  0  0  0  0  0  0  0  0  0  0  0
   58.9790   27.7630   44.2550 C   0  0  0  0  0  0  0  0  0  0  0  0
   57.7850   28.1550   43.6940 C   0  0  0  0  0  0  0  0  0  0  0  0
   57.1830   29.3520   44.0210 C   0  0  0  0  0  0  0  0  0  0  0  0
   55.8910   29.7230   43.3810 C   0  0  0  0  0  0  0  0  0  0  0  0
   58.2860   32.6620   46.7740 N   0  0  0  0  0  0  0  0  0  0  0  0
   61.5040   34.1420   49.5510 C   0  0  0  0  0  0  0  0  0  0  0  0
   62.9940   32.9450   47.6390 C   0  0  0  0  0  0  0  0  0  0  0  0
   65.0223   33.0499   50.9850 H   0  0  0  0  0  0  0  0  0  0  0  0
   65.6358   31.5793   50.1558 H   0  0  0  0  0  0  0  0  0  0  0  0
   66.6154   33.0850   50.1558 H   0  0  0  0  0  0  0  0  0  0  0  0
   63.3055   34.2587   50.7270 H   0  0  0  0  0  0  0  0  0  0  0  0
   59.4520   30.5041   46.2429 H   0  0  0  0  0  0  0  0  0  0  0  0
   59.6636   35.6979   46.3544 H   0  0  0  0  0  0  0  0  0  0  0  0
   58.6694   35.3732   44.0723 H   0  0  0  0  0  0  0  0  0  0  0  0
   57.4980   33.3490   43.6680 H   0  0  0  0  0  0  0  0  0  0  0  0
   61.1933   32.8217   46.4498 H   0  0  0  0  0  0  0  0  0  0  0  0
   60.5176   28.3599   45.6507 H   0  0  0  0  0  0  0  0  0  0  0  0
   59.4527   26.8065   43.9889 H   0  0  0  0  0  0  0  0  0  0  0  0
   57.2963   27.4940   42.9631 H   0  0  0  0  0  0  0  0  0  0  0  0
   55.1443   29.9374   44.1598 H   0  0  0  0  0  0  0  0  0  0  0  0
   56.0349   30.6161   42.7552 H   0  0  0  0  0  0  0  0  0  0  0  0
   55.5392   28.8896   42.7552 H   0  0  0  0  0  0  0  0  0  0  0  0
   58.1710   31.9150   47.4950 H   0  0  0  0  0  0  0  0  0  0  0  0
   60.9004   34.6298   50.3306 H   0  0  0  0  0  0  0  0  0  0  0  0
   63.5975   32.4573   46.8593 H   0  0  0  0  0  0  0  0  0  0  0  0
  1  2  1  0
  2  3  1  0
  3  4  2  0
  4  5  1  0
  5  6  2  0
  6  7  1  0
  7  8  2  0
  8  9  1  0
  9 10  2  0
 10 11  1  0
 11 12  1  0
 12 13  2  0
 13 14  1  0
 14 15  2  0
 15 16  1  0
 16 17  2  0
 17 18  1  0
 18 19  2  0
 19 20  1  0
 12 21  1  0
  6 22  1  0
 22 23  2  0
 23  3  1  0
 21  8  1  0
 19 14  1  0
  1 24  1  0
  1 25  1  0
  1 26  1  0
  4 27  1  0
  5 28  1  0
  9 29  1  0
 10 30  1  0
 11 31  1  0
 15 32  1  0
 16 33  1  0
 17 34  1  0
 18 35  1  0
 20 36  1  0
 20 37  1  0
 20 38  1  0
 21 39  1  0
 22 40  1  0
 23 41  1  0
M  END
>  <smiles>  (61) 
COc1ccc(N=c2cc[nH]c(=Nc3ccccc3C)[nH]2)cc1

>  <score_type>  (61) 
oracle

>  <origin>  (61) 
adg

>  <m_score__min__energy>  (61) 
-8.5199999999999996

>  <m_primary>  (61) 
energy

$$$$
61:0
     RDKit          3D

 47 49  0  0  0  0  0  0  0  0999 V2000
   55.8710   30.1080   44.5050 O   0  0  0  0  0  0  0  0  0  0  0  0
   57.0900   30.3650   44.7100 C   0  0  0  0  0  0  0  0  0  0  0  0
   57.7720   29.8410   45.9330 C   0  0  0  0  0  0  0  0  0  0  0  0
   57.7250   28.3080   45.9720 C   0  0  0  0  0  0  0  0  0  0  0  0
   58.3170   27.8130   47.2190 N   0  0  0  0  0  0  0  0  0  0  0  0
   59.8900   28.5150   47.4790 S   0  0  0  0  0  0  0  0  0  0  0  0
   60.5270   28.8000   46.1460 O   0  0  0  0  0  0  0  0  0  0  0  0
   60.7650   27.5340   48.2080 O   0  0  0  0  0  0  0  0  0  0  0  0
   59.7520   30.0120   48.4310 C   0  0  0  0  0  0  0  0  0  0  0  0
   58.7400   30.0900   49.3950 C   0  0  0  0  0  0  0  0  0  0  0  0
   58.5890   31.2160   50.2150 C   0  0  0  0  0  0  0  0  0  0  0  0
   57.5530   31.1730   51.2730 C   0  0  0  0  0  0  0  0  0  0  0  0
   56.9570   30.1010   51.5530 O   0  0  0  0  0  0  0  0  0  0  0  0
   57.1770   32.3400   51.9300 O   0  0  0  0  0  0  0  0  0  0  0  0
   59.4460   32.3270   50.0280 C   0  0  0  0  0  0  0  0  0  0  0  0
   59.2630   33.5190   50.7340 O   0  0  0  0  0  0  0  0  0  0  0  0
   60.4920   32.2570   49.0850 C   0  0  0  0  0  0  0  0  0  0  0  0
   61.3760   33.3430   48.9220 C   0  0  0  0  0  0  0  0  0  0  0  0
   62.4190   33.2770   48.0000 C   0  0  0  0  0  0  0  0  0  0  0  0
   62.6020   32.1310   47.2310 C   0  0  0  0  0  0  0  0  0  0  0  0
   61.7340   31.0460   47.3710 C   0  0  0  0  0  0  0  0  0  0  0  0
   60.6580   31.0920   48.2840 C   0  0  0  0  0  0  0  0  0  0  0  0
   57.8400   31.1380   43.7660 N   0  0  0  0  0  0  0  0  0  0  0  0
   57.6910   32.5800   43.6030 C   0  0  0  0  0  0  0  0  0  0  0  0
   58.2130   33.2900   44.8240 C   0  0  0  0  0  0  0  0  0  0  0  0
   57.6050   33.0790   46.0740 C   0  0  0  0  0  0  0  0  0  0  0  0
   58.0550   33.7740   47.2040 C   0  0  0  0  0  0  0  0  0  0  0  0
   59.1050   34.6940   47.0910 C   0  0  0  0  0  0  0  0  0  0  0  0
   59.7090   34.9130   45.8490 C   0  0  0  0  0  0  0  0  0  0  0  0
   59.2660   34.2150   44.7180 C   0  0  0  0  0  0  0  0  0  0  0  0
   58.8219   30.1691   45.9283 H   0  0  0  0  0  0  0  0  0  0  0  0
   57.2514   30.2311   46.8200 H   0  0  0  0  0  0  0  0  0  0  0  0
   56.6784   27.9752   45.9099 H   0  0  0  0  0  0  0  0  0  0  0  0
   58.2976   27.9104   45.1211 H   0  0  0  0  0  0  0  0  0  0  0  0
   58.0452   29.2452   49.5118 H   0  0  0  0  0  0  0  0  0  0  0  0
   58.5500   33.6500   51.4370 H   0  0  0  0  0  0  0  0  0  0  0  0
   61.2413   34.2509   49.5282 H   0  0  0  0  0  0  0  0  0  0  0  0
   63.0995   34.1328   47.8795 H   0  0  0  0  0  0  0  0  0  0  0  0
   63.4324   32.0800   46.5113 H   0  0  0  0  0  0  0  0  0  0  0  0
   61.8907   30.1435   46.7619 H   0  0  0  0  0  0  0  0  0  0  0  0
   58.2587   32.9079   42.7197 H   0  0  0  0  0  0  0  0  0  0  0  0
   56.6260   32.8216   43.4710 H   0  0  0  0  0  0  0  0  0  0  0  0
   56.7728   32.3655   46.1650 H   0  0  0  0  0  0  0  0  0  0  0  0
   57.5829   33.5969   48.1816 H   0  0  0  0  0  0  0  0  0  0  0  0
   59.4539   35.2434   47.9778 H   0  0  0  0  0  0  0  0  0  0  0  0
   60.5340   35.6351   45.7598 H   0  0  0  0  0  0  0  0  0  0  0  0
   59.7441   34.3915   43.7432 H   0  0  0  0  0  0  0  0  0  0  0  0
  1  2  2  0
  2  3  1  0
  3  4  1  0
  4  5  1  0
  5  6  1  0
  6  7  2  0
  6  8  2  0
  6  9  1  0
  9 10  2  0
 10 11  1  0
 11 12  1  0
 12 13  2  0
 12 14  1  0
 11 15  2  0
 15 16  1  0
 15 17  1  0
 17 18  2  0
 18 19  1  0
 19 20  2  0
 20 21  1  0
 21 22  2  0
  2 23  1  0
 23 24  1  0
 24 25  1  0
 25 26  2  0
 26 27  1  0
 27 28  2  0
 28 29  1  0
 29 30  2  0
 22  9  1  0
 30 25  1  0
 22 17  1  0
  3 31  1  0
  3 32  1  0
  4 33  1  0
  4 34  1  0
 10 35  1  0
 16 36  1  0
 18 37  1  0
 19 38  1  0
 20 39  1  0
 21 40  1  0
 24 41  1  0
 24 42  1  0
 26 43  1  0
 27 44  1  0
 28 45  1  0
 29 46  1  0
 30 47  1  0
M  CHG  3   5  -1  14  -1  23  -1
M  END
>  <UniqueID>  (62) 
59

>  <SMILES>  (62) 
O=C(CC[N-]S(=O)(=O)c1cc(C(=O)[O-])c(O)c2ccccc12)[N-]Cc1ccccc1

>  <Energy>  (62) 
53.782036590027985

>  <Genealogy>  (62) 
O=C(CC[N-]S(=O)(=O)c1cc(C(=O)[O-])c(O)c2ccccc12)[N-]Cc1ccccc1 (protonated)
O=C(CC[N-]S(=O)(=O)c1cc(C(=O)[O-])c(O)c2ccccc12)[N-]Cc1ccccc1 (3D coordinates assigned)
O=C(CC[N-]S(=O)(=O)c1cc(C(=O)[O-])c(O)c2ccccc12)[N-]Cc1ccccc1 (optimized conformer: 53.782036590027985 kcal/mol)

>  <smiles>  (62) 
O=C(CCNS(=O)(=O)c1cc(C(=O)O)c(O)c2ccccc12)NCc1ccccc1

>  <score_type>  (62) 
oracle

>  <origin>  (62) 
adg

>  <m_score__min__energy>  (62) 
-12.69

>  <m_primary>  (62) 
energy

$$$$
62:0
     RDKit          3D

 49 52  0  0  0  0  0  0  0  0999 V2000
   62.6520   32.9020   47.5280 C   0  0  0  0  0  0  0  0  0  0  0  0
   61.4560   32.0660   47.4580 N   0  0  0  0  0  0  0  0  0  0  0  0
   60.5310   32.0720   46.4700 C   0  0  0  0  0  0  0  0  0  0  0  0
   59.5290   31.1450   46.7460 C   0  0  0  0  0  0  0  0  0  0  0  0
   58.3300   30.8810   45.9290 C   0  0  0  0  0  0  0  0  0  0  0  0
   57.8470   29.6840   45.5810 C   0  0  0  0  0  0  0  0  0  0  0  0
   58.4660   28.3620   45.8340 C   0  0  0  0  0  0  0  0  0  0  0  0
   59.8610   28.2180   45.8010 C   0  0  0  0  0  0  0  0  0  0  0  0
   60.4480   26.9700   46.0320 C   0  0  0  0  0  0  0  0  0  0  0  0
   59.6460   25.8550   46.2920 C   0  0  0  0  0  0  0  0  0  0  0  0
   58.2510   25.9830   46.3270 C   0  0  0  0  0  0  0  0  0  0  0  0
   57.3850   24.8000   46.6510 C   0  0  0  0  0  0  0  0  0  0  0  0
   58.1610   23.2850   45.9900 S   0  0  0  0  0  0  0  0  0  0  0  0
   57.0450   23.1070   44.5490 C   0  0  0  0  0  0  0  0  0  0  0  0
   57.3800   21.8470   43.7400 C   0  0  0  0  0  0  0  0  0  0  0  0
   57.7040   20.7100   44.6050 N   0  0  0  0  0  0  0  0  0  0  0  0
   57.6660   27.2420   46.1240 C   0  0  0  0  0  0  0  0  0  0  0  0
   56.5970   29.9190   44.8540 C   0  0  0  0  0  0  0  0  0  0  0  0
   55.8740   29.0200   44.3480 O   0  0  0  0  0  0  0  0  0  0  0  0
   56.2920   31.3050   44.7510 N   0  0  0  0  0  0  0  0  0  0  0  0
   57.3890   31.8900   45.4420 C   0  0  0  0  0  0  0  0  0  0  0  0
   57.4900   33.1280   45.6430 O   0  0  0  0  0  0  0  0  0  0  0  0
   59.8760   30.5590   47.9510 C   0  0  0  0  0  0  0  0  0  0  0  0
   59.2210   29.6120   48.7380 C   0  0  0  0  0  0  0  0  0  0  0  0
   59.8170   29.2400   49.9550 C   0  0  0  0  0  0  0  0  0  0  0  0
   61.0370   29.8230   50.3630 C   0  0  0  0  0  0  0  0  0  0  0  0
   61.6690   30.7900   49.5590 C   0  0  0  0  0  0  0  0  0  0  0  0
   61.0540   31.1410   48.3540 C   0  0  0  0  0  0  0  0  0  0  0  0
   62.9114   33.0834   48.5815 H   0  0  0  0  0  0  0  0  0  0  0  0
   63.4871   32.3899   47.0276 H   0  0  0  0  0  0  0  0  0  0  0  0
   62.4580   33.8622   47.0276 H   0  0  0  0  0  0  0  0  0  0  0  0
   60.5656   32.7155   45.5786 H   0  0  0  0  0  0  0  0  0  0  0  0
   60.4964   29.0913   45.5923 H   0  0  0  0  0  0  0  0  0  0  0  0
   61.5428   26.8655   46.0091 H   0  0  0  0  0  0  0  0  0  0  0  0
   60.1113   24.8742   46.4696 H   0  0  0  0  0  0  0  0  0  0  0  0
   57.2770   24.7115   47.7421 H   0  0  0  0  0  0  0  0  0  0  0  0
   56.3925   24.9343   46.1961 H   0  0  0  0  0  0  0  0  0  0  0  0
   56.0066   23.0389   44.9056 H   0  0  0  0  0  0  0  0  0  0  0  0
   57.1747   23.9839   43.8976 H   0  0  0  0  0  0  0  0  0  0  0  0
   56.5124   21.5836   43.1172 H   0  0  0  0  0  0  0  0  0  0  0  0
   58.2625   22.0653   43.1207 H   0  0  0  0  0  0  0  0  0  0  0  0
   58.7280   20.6910   44.8130 H   0  0  0  0  0  0  0  0  0  0  0  0
   57.1780   20.8090   45.5050 H   0  0  0  0  0  0  0  0  0  0  0  0
   57.4140   19.8150   44.1490 H   0  0  0  0  0  0  0  0  0  0  0  0
   56.5738   27.3540   46.1921 H   0  0  0  0  0  0  0  0  0  0  0  0
   58.2668   29.1697   48.4158 H   0  0  0  0  0  0  0  0  0  0  0  0
   59.3298   28.4893   50.5946 H   0  0  0  0  0  0  0  0  0  0  0  0
   61.4962   29.5193   51.3153 H   0  0  0  0  0  0  0  0  0  0  0  0
   62.6166   31.2546   49.8691 H   0  0  0  0  0  0  0  0  0  0  0  0
  1  2  1  0
  2  3  1  0
  3  4  2  0
  4  5  1  0
  5  6  2  0
  6  7  1  0
  7  8  2  0
  8  9  1  0
  9 10  2  0
 10 11  1  0
 11 12  1  0
 12 13  1  0
 13 14  1  0
 14 15  1  0
 15 16  1  0
 11 17  2  0
  6 18  1  0
 18 19  2  0
 18 20  1  0
 20 21  1  0
 21 22  2  0
  4 23  1  0
 23 24  2  0
 24 25  1  0
 25 26  2  0
 26 27  1  0
 27 28  2  0
 28  2  1  0
 21  5  1  0
 28 23  1  0
 17  7  1  0
  1 29  1  0
  1 30  1  0
  1 31  1  0
  3 32  1  0
  8 33  1  0
  9 34  1  0
 10 35  1  0
 12 36  1  0
 12 37  1  0
 14 38  1  0
 14 39  1  0
 15 40  1  0
 15 41  1  0
 16 42  1  0
 16 43  1  0
 16 44  1  0
 17 45  1  0
 24 46  1  0
 25 47  1  0
 26 48  1  0
 27 49  1  0
M  CHG  2  16   1  20  -1
M  END
>  <UniqueID>  (63) 
60

>  <SMILES>  (63) 
Cn1cc(C2=C(c3cccc(CSCC[NH3+])c3)C(=O)[N-]C2=O)c2ccccc21

>  <Energy>  (63) 
112.24407256539061

>  <Genealogy>  (63) 
Cn1cc(C2=C(c3cccc(CSCC[NH3+])c3)C(=O)[N-]C2=O)c2ccccc21 (protonated)
Cn1cc(C2=C(c3cccc(CSCC[NH3+])c3)C(=O)[N-]C2=O)c2ccccc21 (3D coordinates assigned)
Cn1cc(C2=C(c3cccc(CSCC[NH3+])c3)C(=O)[N-]C2=O)c2ccccc21 (nonaromatic ring conformer: 112.24407256539061 kcal/mol)

>  <smiles>  (63) 
Cn1cc(C2=C(c3cccc(CSCCN)c3)C(=O)NC2=O)c2ccccc21

>  <score_type>  (63) 
oracle

>  <origin>  (63) 
adg

>  <m_score__min__energy>  (63) 
-8.6300000000000008

>  <m_primary>  (63) 
energy

$$$$
63:0
     RDKit          3D

 42 44  0  0  0  0  0  0  0  0999 V2000
   58.5745   26.7701   45.7409 H   0  0  0  0  0  0  0  0  0  0  0  0
   57.9340   25.8980   45.5430 C   0  0  0  0  0  0  0  0  0  0  0  0
   58.4960   24.6930   45.2620 N   0  0  0  0  0  0  0  0  0  0  0  0
   57.7570   23.5780   45.0010 C   0  0  0  0  0  0  0  0  0  0  0  0
   58.4280   22.3280   44.7170 N   0  0  0  0  0  0  0  0  0  0  0  0
   59.8850   22.1980   44.8440 C   0  0  0  0  0  0  0  0  0  0  0  0
   60.1595   22.1735   45.9089 H   0  0  0  0  0  0  0  0  0  0  0  0
   60.2137   21.2670   44.3591 H   0  0  0  0  0  0  0  0  0  0  0  0
   60.3733   23.0561   44.3591 H   0  0  0  0  0  0  0  0  0  0  0  0
   57.6300   21.1720   44.2890 C   0  0  0  0  0  0  0  0  0  0  0  0
   57.2590   20.6346   45.1742 H   0  0  0  0  0  0  0  0  0  0  0  0
   56.7775   21.5180   43.6861 H   0  0  0  0  0  0  0  0  0  0  0  0
   58.2557   20.4975   43.6861 H   0  0  0  0  0  0  0  0  0  0  0  0
   56.3520   23.6840   45.0080 C   0  0  0  0  0  0  0  0  0  0  0  0
   55.7304   22.8022   44.7936 H   0  0  0  0  0  0  0  0  0  0  0  0
   55.7530   24.9120   45.2880 C   0  0  0  0  0  0  0  0  0  0  0  0
   54.6566   25.0002   45.2781 H   0  0  0  0  0  0  0  0  0  0  0  0
   56.5370   26.0310   45.5810 C   0  0  0  0  0  0  0  0  0  0  0  0
   55.8880   27.2840   45.8450 N   0  0  0  0  0  0  0  0  0  0  0  0
   56.1860   28.5450   45.2380 C   0  0  0  0  0  0  0  0  0  0  0  0
   55.2660   29.2600   44.7590 O   0  0  0  0  0  0  0  0  0  0  0  0
   57.5500   28.9800   45.1830 N   0  0  0  0  0  0  0  0  0  0  0  0
   58.0290   30.3210   45.3580 C   0  0  0  0  0  0  0  0  0  0  0  0
   57.8010   31.2530   44.3390 C   0  0  0  0  0  0  0  0  0  0  0  0
   57.2773   30.9420   43.4230 H   0  0  0  0  0  0  0  0  0  0  0  0
   58.2330   32.5760   44.4750 C   0  0  0  0  0  0  0  0  0  0  0  0
   58.0654   33.2925   43.6573 H   0  0  0  0  0  0  0  0  0  0  0  0
   58.8800   32.9960   45.6500 C   0  0  0  0  0  0  0  0  0  0  0  0
   59.3480   34.3950   45.8010 C   0  0  0  0  0  0  0  0  0  0  0  0
   58.9310   35.2760   45.0030 O   0  0  0  0  0  0  0  0  0  0  0  0
   60.2110   34.7950   46.8750 N   0  0  0  0  0  0  0  0  0  0  0  0
   61.3020   34.1870   47.2370 C   0  0  0  0  0  0  0  0  0  0  0  0
   62.2640   33.8520   46.3540 N   0  0  0  0  0  0  0  0  0  0  0  0
   63.2910   33.1930   46.9550 C   0  0  0  0  0  0  0  0  0  0  0  0
   64.1740   32.8454   46.3987 H   0  0  0  0  0  0  0  0  0  0  0  0
   63.1450   32.9900   48.3230 C   0  0  0  0  0  0  0  0  0  0  0  0
   63.8643   32.4798   48.9805 H   0  0  0  0  0  0  0  0  0  0  0  0
   61.6780   33.6600   48.7970 S   0  0  0  0  0  0  0  0  0  0  0  0
   59.0980   32.0620   46.6780 C   0  0  0  0  0  0  0  0  0  0  0  0
   59.6127   32.3739   47.5988 H   0  0  0  0  0  0  0  0  0  0  0  0
   58.6660   30.7410   46.5390 C   0  0  0  0  0  0  0  0  0  0  0  0
   58.8251   30.0248   47.3586 H   0  0  0  0  0  0  0  0  0  0  0  0
  1  2  1  0
  2  3  2  0
  3  4  1  0
  4  5  1  0
  5  6  1  0
  6  7  1  0
  6  8  1  0
  6  9  1  0
  5 10  1  0
 10 11  1  0
 10 12  1  0
 10 13  1  0
  4 14  2  0
 14 15  1  0
 14 16  1  0
 16 17  1  0
 16 18  2  0
 18 19  1  0
 19 20  1  0
 20 21  2  0
 20 22  1  0
 22 23  1  0
 23 24  2  0
 24 25  1  0
 24 26  1  0
 26 27  1  0
 26 28  2  0
 28 29  1  0
 29 30  2  0
 29 31  1  0
 31 32  2  0
 32 33  1  0
 33 34  1  0
 34 35  1  0
 34 36  2  0
 36 37  1  0
 36 38  1  0
 28 39  1  0
 39 40  1  0
 39 41  2  0
 41 42  1  0
 18  2  1  0
 41 23  1  0
 38 32  1  0
M  CHG  3  19  -1  22  -1  33  -1
M  END
>  <UniqueID>  (64) 
61

>  <SMILES>  (64) 
CN(C)c1ccc([N-]C(=O)[N-]c2ccc(C(=O)/N=c3/[n-]ccs3)cc2)cn1

>  <Energy>  (64) 
89.91788688886011

>  <Genealogy>  (64) 
CN(C)c1ccc([N-]C(=O)[N-]c2ccc(C(=O)N=c3[n-]ccs3)cc2)cn1 (protonated)
CN(C)c1ccc([N-]C(=O)[N-]c2ccc(C(=O)/N=c3/[n-]ccs3)cc2)cn1 (cis-trans isomerization)
CN(C)c1ccc([N-]C(=O)[N-]c2ccc(C(=O)/N=c3/[n-]ccs3)cc2)cn1 (3D coordinates assigned)
CN(C)c1ccc([N-]C(=O)[N-]c2ccc(C(=O)/N=c3/[n-]ccs3)cc2)cn1 (optimized conformer: 89.91788688886011 kcal/mol)

>  <smiles>  (64) 
CN(C)c1ccc(NC(=O)Nc2ccc(C(=O)N=c3[nH]ccs3)cc2)cn1

>  <score_type>  (64) 
oracle

>  <origin>  (64) 
adg

>  <m_score__min__energy>  (64) 
-11.52

>  <m_primary>  (64) 
energy

$$$$
64:0
     RDKit          3D

 37 38  0  0  0  0  0  0  0  0999 V2000
   55.8520   29.6320   53.4230 N   0  0  0  0  0  0  0  0  0  0  0  0
   55.1860   30.1960   52.4550 C   0  0  0  0  0  0  0  0  0  0  0  0
   53.8090   29.8490   52.2320 N   0  0  0  0  0  0  0  0  0  0  0  0
   52.8040   30.6650   52.0670 C   0  0  0  0  0  0  0  0  0  0  0  0
   52.4720   31.0620   50.7650 C   0  0  0  0  0  0  0  0  0  0  0  0
   51.3950   31.9250   50.5540 C   0  0  0  0  0  0  0  0  0  0  0  0
   50.6620   32.3700   51.6070 N   0  0  0  0  0  0  0  0  0  0  0  0
   50.9440   31.9910   52.8820 C   0  0  0  0  0  0  0  0  0  0  0  0
   52.0130   31.1300   53.1390 C   0  0  0  0  0  0  0  0  0  0  0  0
   55.7620   31.2430   51.6540 N   0  0  0  0  0  0  0  0  0  0  0  0
   57.1040   31.7970   51.8380 C   0  0  0  0  0  0  0  0  0  0  0  0
   57.9970   31.4500   50.6370 C   0  0  0  0  0  0  0  0  0  0  0  0
   59.1120   32.4820   50.4240 C   0  0  0  0  0  0  0  0  0  0  0  0
   59.0670   33.0790   49.0400 C   0  0  0  0  0  0  0  0  0  0  0  0
   58.1570   32.5970   48.0850 C   0  0  0  0  0  0  0  0  0  0  0  0
   58.1390   33.1350   46.7940 C   0  0  0  0  0  0  0  0  0  0  0  0
   59.0310   34.1540   46.4480 C   0  0  0  0  0  0  0  0  0  0  0  0
   59.9420   34.6360   47.3910 C   0  0  0  0  0  0  0  0  0  0  0  0
   59.9630   34.1010   48.6820 C   0  0  0  0  0  0  0  0  0  0  0  0
   55.8370   30.0370   54.3850 H   0  0  0  0  0  0  0  0  0  0  0  0
   56.4350   28.7800   53.2830 H   0  0  0  0  0  0  0  0  0  0  0  0
   53.0589   30.6943   49.9104 H   0  0  0  0  0  0  0  0  0  0  0  0
   51.1397   32.2450   49.5330 H   0  0  0  0  0  0  0  0  0  0  0  0
   50.3281   32.3638   53.7137 H   0  0  0  0  0  0  0  0  0  0  0  0
   52.2367   30.8166   54.1694 H   0  0  0  0  0  0  0  0  0  0  0  0
   55.1920   31.6130   50.8610 H   0  0  0  0  0  0  0  0  0  0  0  0
   57.0345   32.8906   51.9337 H   0  0  0  0  0  0  0  0  0  0  0  0
   57.5464   31.3648   52.7477 H   0  0  0  0  0  0  0  0  0  0  0  0
   58.4549   30.4648   50.8094 H   0  0  0  0  0  0  0  0  0  0  0  0
   57.3647   31.4467   49.7369 H   0  0  0  0  0  0  0  0  0  0  0  0
   58.9966   33.2883   51.1633 H   0  0  0  0  0  0  0  0  0  0  0  0
   60.0783   31.9703   50.5439 H   0  0  0  0  0  0  0  0  0  0  0  0
   57.4556   31.7932   48.3534 H   0  0  0  0  0  0  0  0  0  0  0  0
   57.4224   32.7559   46.0505 H   0  0  0  0  0  0  0  0  0  0  0  0
   59.0156   34.5766   45.4326 H   0  0  0  0  0  0  0  0  0  0  0  0
   60.6437   35.4376   47.1171 H   0  0  0  0  0  0  0  0  0  0  0  0
   60.6837   34.4813   49.4209 H   0  0  0  0  0  0  0  0  0  0  0  0
  1  2  2  0
  2  3  1  0
  3  4  2  3
  4  5  1  0
  5  6  2  0
  6  7  1  0
  7  8  1  0
  8  9  2  0
  2 10  1  0
 10 11  1  0
 11 12  1  0
 12 13  1  0
 13 14  1  0
 14 15  2  0
 15 16  1  0
 16 17  2  0
 17 18  1  0
 18 19  2  0
  9  4  1  0
 19 14  1  0
  1 20  1  0
  1 21  1  0
  5 22  1  0
  6 23  1  0
  8 24  1  0
  9 25  1  0
 10 26  1  0
 11 27  1  0
 11 28  1  0
 12 29  1  0
 12 30  1  0
 13 31  1  0
 13 32  1  0
 15 33  1  0
 16 34  1  0
 17 35  1  0
 18 36  1  0
 19 37  1  0
M  CHG  2   1   1   7  -1
M  END
>  <UniqueID>  (65) 
62

>  <SMILES>  (65) 
[NH2+]=C(N=c1cc[n-]cc1)NCCCc1ccccc1

>  <Energy>  (65) 
41.20838360565478

>  <Genealogy>  (65) 
[NH2+]=C(N=c1cc[n-]cc1)NCCCc1ccccc1 (protonated)
[NH2+]=C(N=c1cc[n-]cc1)NCCCc1ccccc1 (3D coordinates assigned)
[NH2+]=C(N=c1cc[n-]cc1)NCCCc1ccccc1 (optimized conformer: 41.20838360565478 kcal/mol)

>  <smiles>  (65) 
N=C(N=c1cc[nH]cc1)NCCCc1ccccc1

>  <score_type>  (65) 
oracle

>  <origin>  (65) 
adg

>  <m_score__min__energy>  (65) 
-7.6900000000000004

>  <m_primary>  (65) 
energy

$$$$
65:0
     RDKit          3D

 47 49  0  0  0  0  0  0  0  0999 V2000
   56.1140   29.3800   42.8340 N   0  0  0  0  0  0  0  0  0  0  0  0
   56.8600   30.5350   43.2340 C   0  0  0  0  0  0  0  0  0  0  0  0
   57.2700   31.4600   42.2600 C   0  0  0  0  0  0  0  0  0  0  0  0
   57.9370   32.6300   42.6300 C   0  0  0  0  0  0  0  0  0  0  0  0
   58.1980   32.8910   43.9760 C   0  0  0  0  0  0  0  0  0  0  0  0
   57.8010   31.9770   44.9530 C   0  0  0  0  0  0  0  0  0  0  0  0
   57.1520   30.7880   44.5940 C   0  0  0  0  0  0  0  0  0  0  0  0
   56.7990   29.8630   45.6290 N   0  0  0  0  0  0  0  0  0  0  0  0
   56.9690   28.4470   45.5210 C   0  0  0  0  0  0  0  0  0  0  0  0
   55.9620   27.6910   45.5630 O   0  0  0  0  0  0  0  0  0  0  0  0
   58.2920   27.8420   45.2750 C   0  0  0  0  0  0  0  0  0  0  0  0
   59.1350   27.3510   46.1940 C   0  0  0  0  0  0  0  0  0  0  0  0
   59.1330   27.7380   47.9540 S   0  0  0  0  0  0  0  0  0  0  0  0
   59.5870   29.4600   47.7120 C   0  0  0  0  0  0  0  0  0  0  0  0
   58.8280   30.4890   48.2840 C   0  0  0  0  0  0  0  0  0  0  0  0
   59.2460   31.8180   48.1590 C   0  0  0  0  0  0  0  0  0  0  0  0
   60.4170   32.1290   47.4490 C   0  0  0  0  0  0  0  0  0  0  0  0
   60.9130   33.5230   47.4050 C   0  0  0  0  0  0  0  0  0  0  0  0
   60.8780   34.1570   46.3170 O   0  0  0  0  0  0  0  0  0  0  0  0
   61.4280   34.1830   48.5720 N   0  0  0  0  0  0  0  0  0  0  0  0
   62.6160   33.8090   49.2860 C   0  0  0  0  0  0  0  0  0  0  0  0
   62.6250   33.9520   50.6800 C   0  0  0  0  0  0  0  0  0  0  0  0
   63.7830   33.6870   51.4140 C   0  0  0  0  0  0  0  0  0  0  0  0
   64.9410   33.2610   50.7630 C   0  0  0  0  0  0  0  0  0  0  0  0
   64.9370   33.0810   49.3780 C   0  0  0  0  0  0  0  0  0  0  0  0
   63.7760   33.3300   48.6280 C   0  0  0  0  0  0  0  0  0  0  0  0
   63.7790   33.0430   47.2250 N   0  0  0  0  0  0  0  0  0  0  0  0
   61.1170   31.0980   46.8000 C   0  0  0  0  0  0  0  0  0  0  0  0
   60.7040   29.7740   46.9350 C   0  0  0  0  0  0  0  0  0  0  0  0
   55.9370   28.6030   43.5110 H   0  0  0  0  0  0  0  0  0  0  0  0
   55.7820   29.2520   41.8530 H   0  0  0  0  0  0  0  0  0  0  0  0
   57.0643   31.2615   41.1978 H   0  0  0  0  0  0  0  0  0  0  0  0
   58.2571   33.3468   41.8595 H   0  0  0  0  0  0  0  0  0  0  0  0
   58.7164   33.8167   44.2666 H   0  0  0  0  0  0  0  0  0  0  0  0
   57.9991   32.1916   46.0135 H   0  0  0  0  0  0  0  0  0  0  0  0
   58.6212   27.7883   44.2268 H   0  0  0  0  0  0  0  0  0  0  0  0
   59.9007   26.6448   45.8404 H   0  0  0  0  0  0  0  0  0  0  0  0
   57.9037   30.2521   48.8312 H   0  0  0  0  0  0  0  0  0  0  0  0
   58.6546   32.6234   48.6191 H   0  0  0  0  0  0  0  0  0  0  0  0
   61.7118   34.2759   51.2007 H   0  0  0  0  0  0  0  0  0  0  0  0
   63.7821   33.8143   52.5066 H   0  0  0  0  0  0  0  0  0  0  0  0
   65.8570   33.0669   51.3404 H   0  0  0  0  0  0  0  0  0  0  0  0
   65.8515   32.7411   48.8700 H   0  0  0  0  0  0  0  0  0  0  0  0
   62.9860   33.3500   46.6200 H   0  0  0  0  0  0  0  0  0  0  0  0
   64.6050   32.6130   46.7540 H   0  0  0  0  0  0  0  0  0  0  0  0
   61.9953   31.3371   46.1824 H   0  0  0  0  0  0  0  0  0  0  0  0
   61.2604   28.9725   46.4272 H   0  0  0  0  0  0  0  0  0  0  0  0
  1  2  1  0
  2  3  2  0
  3  4  1  0
  4  5  2  0
  5  6  1  0
  6  7  2  0
  7  8  1  0
  8  9  1  0
  9 10  2  0
  9 11  1  0
 11 12  2  3
 12 13  1  0
 13 14  1  0
 14 15  2  0
 15 16  1  0
 16 17  2  0
 17 18  1  0
 18 19  2  0
 18 20  1  0
 20 21  1  0
 21 22  2  0
 22 23  1  0
 23 24  2  0
 24 25  1  0
 25 26  2  0
 26 27  1  0
 17 28  1  0
 28 29  2  0
  7  2  1  0
 29 14  1  0
 26 21  1  0
  1 30  1  0
  1 31  1  0
  3 32  1  0
  4 33  1  0
  5 34  1  0
  6 35  1  0
 11 36  1  0
 12 37  1  0
 15 38  1  0
 16 39  1  0
 22 40  1  0
 23 41  1  0
 24 42  1  0
 25 43  1  0
 27 44  1  0
 27 45  1  0
 28 46  1  0
 29 47  1  0
M  CHG  2   8  -1  20  -1
M  END
>  <UniqueID>  (66) 
63

>  <SMILES>  (66) 
Nc1ccccc1[N-]C(=O)C=CSc1ccc(C(=O)[N-]c2ccccc2N)cc1

>  <Energy>  (66) 
62.85183876078128

>  <Genealogy>  (66) 
Nc1ccccc1[N-]C(=O)C=CSc1ccc(C(=O)[N-]c2ccccc2N)cc1 (protonated)
Nc1ccccc1[N-]C(=O)C=CSc1ccc(C(=O)[N-]c2ccccc2N)cc1 (3D coordinates assigned)
Nc1ccccc1[N-]C(=O)C=CSc1ccc(C(=O)[N-]c2ccccc2N)cc1 (optimized conformer: 62.85183876078128 kcal/mol)

>  <smiles>  (66) 
Nc1ccccc1NC(=O)C=CSc1ccc(C(=O)Nc2ccccc2N)cc1

>  <score_type>  (66) 
oracle

>  <origin>  (66) 
adg

>  <m_score__min__energy>  (66) 
-11.390000000000001

>  <m_primary>  (66) 
energy

$$$$
66:0
     RDKit          3D

 45 47  0  0  0  0  0  0  0  0999 V2000
   53.2270   22.6330   47.0870 C   0  0  0  0  0  0  0  0  0  0  0  0
   53.1660   22.9090   45.6150 C   0  0  0  0  0  0  0  0  0  0  0  0
   52.0760   22.7320   45.0090 O   0  0  0  0  0  0  0  0  0  0  0  0
   54.3150   23.3310   44.8690 N   0  0  0  0  0  0  0  0  0  0  0  0
   55.5010   23.9420   45.3960 C   0  0  0  0  0  0  0  0  0  0  0  0
   56.7070   23.2360   45.3430 C   0  0  0  0  0  0  0  0  0  0  0  0
   57.8840   23.8090   45.8330 C   0  0  0  0  0  0  0  0  0  0  0  0
   57.8720   25.0990   46.3780 C   0  0  0  0  0  0  0  0  0  0  0  0
   59.1050   25.6560   46.8580 N   0  0  0  0  0  0  0  0  0  0  0  0
   59.8120   26.7740   46.3000 C   0  0  0  0  0  0  0  0  0  0  0  0
   61.0440   26.6790   46.0470 O   0  0  0  0  0  0  0  0  0  0  0  0
   59.0860   28.0230   45.9720 C   0  0  0  0  0  0  0  0  0  0  0  0
   58.9150   29.0300   46.9390 C   0  0  0  0  0  0  0  0  0  0  0  0
   58.2280   30.2060   46.6220 C   0  0  0  0  0  0  0  0  0  0  0  0
   57.6950   30.3980   45.3440 C   0  0  0  0  0  0  0  0  0  0  0  0
   56.9870   31.6150   45.0690 N   0  0  0  0  0  0  0  0  0  0  0  0
   57.7200   33.1750   44.8810 S   0  0  0  0  0  0  0  0  0  0  0  0
   58.4770   33.2130   43.5840 O   0  0  0  0  0  0  0  0  0  0  0  0
   56.6460   34.2260   44.8460 O   0  0  0  0  0  0  0  0  0  0  0  0
   58.8460   33.4630   46.2030 C   0  0  0  0  0  0  0  0  0  0  0  0
   60.1730   33.8430   45.9470 C   0  0  0  0  0  0  0  0  0  0  0  0
   61.0470   34.0930   47.0080 C   0  0  0  0  0  0  0  0  0  0  0  0
   60.6030   33.9610   48.3280 C   0  0  0  0  0  0  0  0  0  0  0  0
   59.2840   33.5810   48.5860 C   0  0  0  0  0  0  0  0  0  0  0  0
   58.4060   33.3320   47.5270 C   0  0  0  0  0  0  0  0  0  0  0  0
   57.8720   29.4000   44.3700 C   0  0  0  0  0  0  0  0  0  0  0  0
   58.5590   28.2230   44.6840 C   0  0  0  0  0  0  0  0  0  0  0  0
   56.6730   25.8320   46.3770 C   0  0  0  0  0  0  0  0  0  0  0  0
   55.4950   25.2570   45.8880 C   0  0  0  0  0  0  0  0  0  0  0  0
   53.0221   23.5600   47.6427 H   0  0  0  0  0  0  0  0  0  0  0  0
   52.4748   21.8744   47.3493 H   0  0  0  0  0  0  0  0  0  0  0  0
   54.2288   22.2621   47.3493 H   0  0  0  0  0  0  0  0  0  0  0  0
   56.7295   22.2237   44.9131 H   0  0  0  0  0  0  0  0  0  0  0  0
   58.8261   23.2428   45.7902 H   0  0  0  0  0  0  0  0  0  0  0  0
   59.3241   28.8916   47.9507 H   0  0  0  0  0  0  0  0  0  0  0  0
   58.1058   30.9879   47.3860 H   0  0  0  0  0  0  0  0  0  0  0  0
   60.5251   33.9440   44.9098 H   0  0  0  0  0  0  0  0  0  0  0  0
   62.0854   34.3940   46.8052 H   0  0  0  0  0  0  0  0  0  0  0  0
   61.2925   34.1564   49.1625 H   0  0  0  0  0  0  0  0  0  0  0  0
   58.9355   33.4775   49.6242 H   0  0  0  0  0  0  0  0  0  0  0  0
   57.3678   33.0327   47.7334 H   0  0  0  0  0  0  0  0  0  0  0  0
   57.4686   29.5453   43.3570 H   0  0  0  0  0  0  0  0  0  0  0  0
   58.6883   27.4463   43.9159 H   0  0  0  0  0  0  0  0  0  0  0  0
   56.6606   26.8622   46.7623 H   0  0  0  0  0  0  0  0  0  0  0  0
   54.5606   25.8374   45.8890 H   0  0  0  0  0  0  0  0  0  0  0  0
  1  2  1  0
  2  3  2  0
  2  4  1  0
  4  5  1  0
  5  6  2  0
  6  7  1  0
  7  8  2  0
  8  9  1  0
  9 10  1  0
 10 11  2  0
 10 12  1  0
 12 13  2  0
 13 14  1  0
 14 15  2  0
 15 16  1  0
 16 17  1  0
 17 18  2  0
 17 19  2  0
 17 20  1  0
 20 21  2  0
 21 22  1  0
 22 23  2  0
 23 24  1  0
 24 25  2  0
 15 26  1  0
 26 27  2  0
  8 28  1  0
 28 29  2  0
 29  5  1  0
 27 12  1  0
 25 20  1  0
  1 30  1  0
  1 31  1  0
  1 32  1  0
  6 33  1  0
  7 34  1  0
 13 35  1  0
 14 36  1  0
 21 37  1  0
 22 38  1  0
 23 39  1  0
 24 40  1  0
 25 41  1  0
 26 42  1  0
 27 43  1  0
 28 44  1  0
 29 45  1  0
M  CHG  3   4  -1   9  -1  16  -1
M  END
>  <UniqueID>  (67) 
64

>  <SMILES>  (67) 
CC(=O)[N-]c1ccc([N-]C(=O)c2ccc([N-]S(=O)(=O)c3ccccc3)cc2)cc1

>  <Energy>  (67) 
58.54815583712557

>  <Genealogy>  (67) 
CC(=O)[N-]c1ccc([N-]C(=O)c2ccc([N-]S(=O)(=O)c3ccccc3)cc2)cc1 (protonated)
CC(=O)[N-]c1ccc([N-]C(=O)c2ccc([N-]S(=O)(=O)c3ccccc3)cc2)cc1 (3D coordinates assigned)
CC(=O)[N-]c1ccc([N-]C(=O)c2ccc([N-]S(=O)(=O)c3ccccc3)cc2)cc1 (optimized conformer: 58.54815583712557 kcal/mol)

>  <smiles>  (67) 
CC(=O)Nc1ccc(NC(=O)c2ccc(NS(=O)(=O)c3ccccc3)cc2)cc1

>  <score_type>  (67) 
oracle

>  <origin>  (67) 
adg

>  <m_score__min__energy>  (67) 
-12.15

>  <m_primary>  (67) 
energy

$$$$
67:0
     RDKit          3D

 36 38  0  0  0  0  0  0  0  0999 V2000
   58.2960   32.2290   49.1390 O   0  0  0  0  0  0  0  0  0  0  0  0
   59.0850   31.9940   48.1810 C   0  0  0  0  0  0  0  0  0  0  0  0
   60.4730   31.7000   48.4280 N   0  0  0  0  0  0  0  0  0  0  0  0
   61.4950   32.2900   47.8820 C   0  0  0  0  0  0  0  0  0  0  0  0
   62.7120   31.7210   47.7250 N   0  0  0  0  0  0  0  0  0  0  0  0
   63.5790   32.5660   47.0970 C   0  0  0  0  0  0  0  0  0  0  0  0
   63.0520   33.8070   46.7450 C   0  0  0  0  0  0  0  0  0  0  0  0
   61.4400   33.8450   47.2430 S   0  0  0  0  0  0  0  0  0  0  0  0
   58.5770   32.0280   46.7880 C   0  0  0  0  0  0  0  0  0  0  0  0
   58.4980   33.2450   46.0840 C   0  0  0  0  0  0  0  0  0  0  0  0
   58.0090   33.2740   44.7740 C   0  0  0  0  0  0  0  0  0  0  0  0
   57.5870   32.0970   44.1540 C   0  0  0  0  0  0  0  0  0  0  0  0
   57.6590   30.8760   44.8410 C   0  0  0  0  0  0  0  0  0  0  0  0
   57.0850   29.3860   44.0940 S   0  0  0  0  0  0  0  0  0  0  0  0
   58.2800   28.5750   43.6710 O   0  0  0  0  0  0  0  0  0  0  0  0
   56.2420   29.6850   42.8840 O   0  0  0  0  0  0  0  0  0  0  0  0
   56.1480   28.4770   45.2420 N   0  0  0  0  0  0  0  0  0  0  0  0
   56.6240   27.2410   45.8000 C   0  0  0  0  0  0  0  0  0  0  0  0
   58.0070   27.0530   45.9710 C   0  0  0  0  0  0  0  0  0  0  0  0
   58.5000   25.8750   46.5470 C   0  0  0  0  0  0  0  0  0  0  0  0
   57.6140   24.8710   46.9520 C   0  0  0  0  0  0  0  0  0  0  0  0
   56.2370   25.0400   46.7690 C   0  0  0  0  0  0  0  0  0  0  0  0
   55.7380   26.2140   46.1880 C   0  0  0  0  0  0  0  0  0  0  0  0
   54.3670   26.3380   45.9830 O   0  0  0  0  0  0  0  0  0  0  0  0
   58.1560   30.8440   46.1520 C   0  0  0  0  0  0  0  0  0  0  0  0
   64.6214   32.2873   46.8833 H   0  0  0  0  0  0  0  0  0  0  0  0
   63.5910   34.6179   46.2333 H   0  0  0  0  0  0  0  0  0  0  0  0
   58.8228   34.1783   46.5672 H   0  0  0  0  0  0  0  0  0  0  0  0
   57.9568   34.2286   44.2300 H   0  0  0  0  0  0  0  0  0  0  0  0
   57.1976   32.1268   43.1257 H   0  0  0  0  0  0  0  0  0  0  0  0
   55.1170   28.6580   45.2520 H   0  0  0  0  0  0  0  0  0  0  0  0
   58.7078   27.8376   45.6497 H   0  0  0  0  0  0  0  0  0  0  0  0
   59.5834   25.7395   46.6808 H   0  0  0  0  0  0  0  0  0  0  0  0
   57.9993   23.9499   47.4137 H   0  0  0  0  0  0  0  0  0  0  0  0
   55.5422   24.2471   47.0829 H   0  0  0  0  0  0  0  0  0  0  0  0
   58.2176   29.8856   46.6884 H   0  0  0  0  0  0  0  0  0  0  0  0
  1  2  2  0
  2  3  1  0
  3  4  2  3
  4  5  1  0
  5  6  1  0
  6  7  2  0
  7  8  1  0
  2  9  1  0
  9 10  2  0
 10 11  1  0
 11 12  2  0
 12 13  1  0
 13 14  1  0
 14 15  2  0
 14 16  2  0
 14 17  1  0
 17 18  1  0
 18 19  2  0
 19 20  1  0
 20 21  2  0
 21 22  1  0
 22 23  2  0
 23 24  1  0
 13 25  2  0
  8  4  1  0
 25  9  1  0
 23 18  1  0
  6 26  1  0
  7 27  1  0
 10 28  1  0
 11 29  1  0
 12 30  1  0
 17 31  1  0
 19 32  1  0
 20 33  1  0
 21 34  1  0
 22 35  1  0
 25 36  1  0
M  CHG  2   5  -1  24  -1
M  END
>  <UniqueID>  (68) 
65

>  <SMILES>  (68) 
O=C(N=c1[n-]ccs1)c1cccc(S(=O)(=O)Nc2ccccc2[O-])c1

>  <Energy>  (68) 
76.88740376262515

>  <Genealogy>  (68) 
O=C(N=c1[n-]ccs1)c1cccc(S(=O)(=O)Nc2ccccc2[O-])c1 (protonated)
O=C(N=c1[n-]ccs1)c1cccc(S(=O)(=O)Nc2ccccc2[O-])c1 (3D coordinates assigned)
O=C(N=c1[n-]ccs1)c1cccc(S(=O)(=O)Nc2ccccc2[O-])c1 (optimized conformer: 76.88740376262515 kcal/mol)

>  <smiles>  (68) 
O=C(N=c1[nH]ccs1)c1cccc(S(=O)(=O)Nc2ccccc2O)c1

>  <score_type>  (68) 
oracle

>  <origin>  (68) 
adg

>  <m_score__min__energy>  (68) 
-13.380000000000001

>  <m_primary>  (68) 
energy

$$$$
68:0
     RDKit          3D

 62 65  0  0  0  0  0  0  0  0999 V2000
   56.0590   30.4380   44.4870 O   0  0  0  0  0  0  0  0  0  0  0  0
   57.2990   30.6280   44.5610 C   0  0  0  0  0  0  0  0  0  0  0  0
   58.1810   29.6010   44.1510 N   0  0  0  0  0  0  0  0  0  0  0  0
   57.7700   28.3170   43.6390 C   0  0  0  0  0  0  0  0  0  0  0  0
   57.7550   27.2360   44.6530 C   0  0  0  0  0  0  0  0  0  0  0  0
   57.6820   27.4660   46.0030 C   0  0  0  0  0  0  0  0  0  0  0  0
   57.6720   26.4370   46.9100 C   0  0  0  0  0  0  0  0  0  0  0  0
   57.7390   25.1520   46.4280 C   0  0  0  0  0  0  0  0  0  0  0  0
   57.8150   24.8330   45.0860 C   0  0  0  0  0  0  0  0  0  0  0  0
   57.8800   23.6320   44.5300 O   0  0  0  0  0  0  0  0  0  0  0  0
   58.4720   22.4390   44.4680 C   0  0  0  0  0  0  0  0  0  0  0  0
   57.6920   21.2290   44.0430 C   0  0  0  0  0  0  0  0  0  0  0  0
   56.9450   21.3240   42.7580 C   0  0  0  0  0  0  0  0  0  0  0  0
   55.9220   22.2630   42.8860 O   0  0  0  0  0  0  0  0  0  0  0  0
   57.8190   25.9390   44.2180 C   0  0  0  0  0  0  0  0  0  0  0  0
   57.7900   31.9210   45.0750 C   0  0  0  0  0  0  0  0  0  0  0  0
   57.8480   33.0490   44.3080 C   0  0  0  0  0  0  0  0  0  0  0  0
   58.3260   34.2690   44.8000 C   0  0  0  0  0  0  0  0  0  0  0  0
   58.7440   34.2930   46.1130 C   0  0  0  0  0  0  0  0  0  0  0  0
   58.7030   33.1680   46.9300 C   0  0  0  0  0  0  0  0  0  0  0  0
   59.1800   33.3470   48.3200 C   0  0  0  0  0  0  0  0  0  0  0  0
   58.8790   32.2040   49.1850 C   0  0  0  0  0  0  0  0  0  0  0  0
   57.8660   32.3550   50.0890 N   0  0  0  0  0  0  0  0  0  0  0  0
   57.5190   31.4260   50.9540 N   0  0  0  0  0  0  0  0  0  0  0  0
   58.1460   30.2170   51.0270 C   0  0  0  0  0  0  0  0  0  0  0  0
   57.8180   29.3400   51.8460 O   0  0  0  0  0  0  0  0  0  0  0  0
   59.1750   30.0360   50.1240 C   0  0  0  0  0  0  0  0  0  0  0  0
   59.5390   31.0090   49.2150 C   0  0  0  0  0  0  0  0  0  0  0  0
   60.6140   30.7190   48.2750 C   0  0  0  0  0  0  0  0  0  0  0  0
   60.3680   29.3450   47.6680 C   0  0  0  0  0  0  0  0  0  0  0  0
   59.9320   28.3120   48.6520 C   0  0  0  0  0  0  0  0  0  0  0  0
   59.9570   28.7710   50.0950 C   0  0  0  0  0  0  0  0  0  0  0  0
   58.2250   32.0100   46.3880 C   0  0  0  0  0  0  0  0  0  0  0  0
   59.2320   29.7520   44.2110 H   0  0  0  0  0  0  0  0  0  0  0  0
   56.7549   28.4184   43.2275 H   0  0  0  0  0  0  0  0  0  0  0  0
   58.5106   28.0276   42.8788 H   0  0  0  0  0  0  0  0  0  0  0  0
   57.6301   28.5024   46.3679 H   0  0  0  0  0  0  0  0  0  0  0  0
   57.6122   26.6345   47.9905 H   0  0  0  0  0  0  0  0  0  0  0  0
   57.7317   24.3267   47.1553 H   0  0  0  0  0  0  0  0  0  0  0  0
   59.3108   22.5383   43.7633 H   0  0  0  0  0  0  0  0  0  0  0  0
   58.7131   22.2245   45.5196 H   0  0  0  0  0  0  0  0  0  0  0  0
   58.4001   20.3919   43.9543 H   0  0  0  0  0  0  0  0  0  0  0  0
   56.9185   21.1017   44.8147 H   0  0  0  0  0  0  0  0  0  0  0  0
   57.6311   21.6355   41.9567 H   0  0  0  0  0  0  0  0  0  0  0  0
   56.5145   20.3427   42.5095 H   0  0  0  0  0  0  0  0  0  0  0  0
   56.2670   23.1220   43.1890 H   0  0  0  0  0  0  0  0  0  0  0  0
   57.8764   25.7533   43.1353 H   0  0  0  0  0  0  0  0  0  0  0  0
   57.5061   32.9970   43.2638 H   0  0  0  0  0  0  0  0  0  0  0  0
   58.3662   35.1680   44.1673 H   0  0  0  0  0  0  0  0  0  0  0  0
   59.1242   35.2370   46.5305 H   0  0  0  0  0  0  0  0  0  0  0  0
   60.2702   33.4924   48.2995 H   0  0  0  0  0  0  0  0  0  0  0  0
   58.6545   34.2192   48.7362 H   0  0  0  0  0  0  0  0  0  0  0  0
   56.7390   31.5520   51.6430 H   0  0  0  0  0  0  0  0  0  0  0  0
   60.6265   31.4790   47.4798 H   0  0  0  0  0  0  0  0  0  0  0  0
   61.5831   30.7330   48.7952 H   0  0  0  0  0  0  0  0  0  0  0  0
   59.5864   29.4418   46.9001 H   0  0  0  0  0  0  0  0  0  0  0  0
   61.3294   29.0041   47.2563 H   0  0  0  0  0  0  0  0  0  0  0  0
   58.9027   28.0136   48.4039 H   0  0  0  0  0  0  0  0  0  0  0  0
   60.6501   27.4824   48.5745 H   0  0  0  0  0  0  0  0  0  0  0  0
   59.4917   28.0165   50.7464 H   0  0  0  0  0  0  0  0  0  0  0  0
   60.9848   28.9185   50.4583 H   0  0  0  0  0  0  0  0  0  0  0  0
   58.1833   31.1102   47.0194 H   0  0  0  0  0  0  0  0  0  0  0  0
  1  2  2  0
  2  3  1  0
  3  4  1  0
  4  5  1  0
  5  6  2  0
  6  7  1  0
  7  8  2  0
  8  9  1  0
  9 10  1  0
 10 11  1  0
 11 12  1  0
 12 13  1  0
 13 14  1  0
  9 15  2  0
  2 16  1  0
 16 17  2  0
 17 18  1  0
 18 19  2  0
 19 20  1  0
 20 21  1  0
 21 22  1  0
 22 23  2  0
 23 24  1  0
 24 25  1  0
 25 26  2  0
 25 27  1  0
 27 28  2  0
 28 29  1  0
 29 30  1  0
 30 31  1  0
 31 32  1  0
 20 33  2  0
 15  5  1  0
 33 16  1  0
 28 22  1  0
 32 27  1  0
  3 34  1  0
  4 35  1  0
  4 36  1  0
  6 37  1  0
  7 38  1  0
  8 39  1  0
 11 40  1  0
 11 41  1  0
 12 42  1  0
 12 43  1  0
 13 44  1  0
 13 45  1  0
 14 46  1  0
 15 47  1  0
 17 48  1  0
 18 49  1  0
 19 50  1  0
 21 51  1  0
 21 52  1  0
 24 53  1  0
 29 54  1  0
 29 55  1  0
 30 56  1  0
 30 57  1  0
 31 58  1  0
 31 59  1  0
 32 60  1  0
 32 61  1  0
 33 62  1  0
M  END
>  <smiles>  (69) 
O=C(NCc1cccc(OCCCO)c1)c1cccc(Cc2n[nH]c(=O)c3c2CCCC3)c1

>  <score_type>  (69) 
oracle

>  <origin>  (69) 
adg

>  <m_score__min__energy>  (69) 
-10.619999999999999

>  <m_primary>  (69) 
energy

$$$$
69:0
     RDKit          3D

 43 46  0  0  0  0  0  0  0  0999 V2000
   62.5250   34.4340   49.1930 O   0  0  0  0  0  0  0  0  0  0  0  0
   62.5690   33.1970   48.9540 C   0  0  0  0  0  0  0  0  0  0  0  0
   63.7400   32.4350   49.2950 N   0  0  0  0  0  0  0  0  0  0  0  0
   64.7770   32.9070   50.1720 C   0  0  0  0  0  0  0  0  0  0  0  0
   64.4810   33.4420   51.4400 C   0  0  0  0  0  0  0  0  0  0  0  0
   65.5110   33.8710   52.2830 C   0  0  0  0  0  0  0  0  0  0  0  0
   66.8420   33.7610   51.8760 C   0  0  0  0  0  0  0  0  0  0  0  0
   67.1470   33.2110   50.6290 C   0  0  0  0  0  0  0  0  0  0  0  0
   66.1210   32.7790   49.7830 C   0  0  0  0  0  0  0  0  0  0  0  0
   61.4260   32.5520   48.2860 C   0  0  0  0  0  0  0  0  0  0  0  0
   60.9400   31.3670   48.7430 N   0  0  0  0  0  0  0  0  0  0  0  0
   59.8830   30.7550   48.1490 C   0  0  0  0  0  0  0  0  0  0  0  0
   59.4680   29.6570   48.6080 O   0  0  0  0  0  0  0  0  0  0  0  0
   59.2700   31.3520   47.0350 C   0  0  0  0  0  0  0  0  0  0  0  0
   58.1730   30.7700   46.3740 C   0  0  0  0  0  0  0  0  0  0  0  0
   57.5810   31.4210   45.2770 C   0  0  0  0  0  0  0  0  0  0  0  0
   56.4630   30.8540   44.5780 N   0  0  0  0  0  0  0  0  0  0  0  0
   56.0470   29.4810   44.6160 C   0  0  0  0  0  0  0  0  0  0  0  0
   54.8330   29.2160   44.4120 O   0  0  0  0  0  0  0  0  0  0  0  0
   56.9870   28.3850   44.9540 C   0  0  0  0  0  0  0  0  0  0  0  0
   58.3480   28.4960   44.6140 C   0  0  0  0  0  0  0  0  0  0  0  0
   59.2430   27.4690   44.9270 C   0  0  0  0  0  0  0  0  0  0  0  0
   58.7940   26.3250   45.5890 C   0  0  0  0  0  0  0  0  0  0  0  0
   57.4480   26.2070   45.9420 C   0  0  0  0  0  0  0  0  0  0  0  0
   56.5430   27.2280   45.6300 C   0  0  0  0  0  0  0  0  0  0  0  0
   55.2060   27.0760   45.9780 O   0  0  0  0  0  0  0  0  0  0  0  0
   58.1210   32.6290   44.8190 C   0  0  0  0  0  0  0  0  0  0  0  0
   59.2130   33.2110   45.4680 C   0  0  0  0  0  0  0  0  0  0  0  0
   59.7870   32.5810   46.5770 C   0  0  0  0  0  0  0  0  0  0  0  0
   60.8460   33.1480   47.2100 N   0  0  0  0  0  0  0  0  0  0  0  0
   63.8940   31.5220   48.8090 H   0  0  0  0  0  0  0  0  0  0  0  0
   63.4346   33.5230   51.7693 H   0  0  0  0  0  0  0  0  0  0  0  0
   65.2720   34.2961   53.2690 H   0  0  0  0  0  0  0  0  0  0  0  0
   67.6500   34.1074   52.5372 H   0  0  0  0  0  0  0  0  0  0  0  0
   68.1961   33.1175   50.3119 H   0  0  0  0  0  0  0  0  0  0  0  0
   66.3676   32.3361   48.8068 H   0  0  0  0  0  0  0  0  0  0  0  0
   57.7770   29.8025   46.7163 H   0  0  0  0  0  0  0  0  0  0  0  0
   58.7102   29.3975   44.0982 H   0  0  0  0  0  0  0  0  0  0  0  0
   60.3037   27.5625   44.6510 H   0  0  0  0  0  0  0  0  0  0  0  0
   59.4998   25.5172   45.8324 H   0  0  0  0  0  0  0  0  0  0  0  0
   57.0972   25.3069   46.4680 H   0  0  0  0  0  0  0  0  0  0  0  0
   57.6817   33.1242   43.9405 H   0  0  0  0  0  0  0  0  0  0  0  0
   59.6218   34.1660   45.1062 H   0  0  0  0  0  0  0  0  0  0  0  0
  1  2  2  0
  2  3  1  0
  3  4  1  0
  4  5  2  0
  5  6  1  0
  6  7  2  0
  7  8  1  0
  8  9  2  0
  2 10  1  0
 10 11  2  0
 11 12  1  0
 12 13  2  0
 12 14  1  0
 14 15  2  0
 15 16  1  0
 16 17  1  0
 17 18  1  0
 18 19  2  0
 18 20  1  0
 20 21  2  0
 21 22  1  0
 22 23  2  0
 23 24  1  0
 24 25  2  0
 25 26  1  0
 16 27  2  0
 27 28  1  0
 28 29  2  0
 29 30  1  0
  9  4  1  0
 30 10  1  0
 29 14  1  0
 25 20  1  0
  3 31  1  0
  5 32  1  0
  6 33  1  0
  7 34  1  0
  8 35  1  0
  9 36  1  0
 15 37  1  0
 21 38  1  0
 22 39  1  0
 23 40  1  0
 24 41  1  0
 27 42  1  0
 28 43  1  0
M  CHG  3  17  -1  26  -1  30  -1
M  END
>  <UniqueID>  (70) 
66

>  <SMILES>  (70) 
O=C(Nc1ccccc1)c1nc(=O)c2cc([N-]C(=O)c3ccccc3[O-])ccc2[n-]1

>  <Energy>  (70) 
63.605026076588445

>  <Genealogy>  (70) 
O=C(Nc1ccccc1)c1nc(=O)c2cc([N-]C(=O)c3ccccc3[O-])ccc2[n-]1 (protonated)
O=C(Nc1ccccc1)c1nc(=O)c2cc([N-]C(=O)c3ccccc3[O-])ccc2[n-]1 (3D coordinates assigned)
O=C(Nc1ccccc1)c1nc(=O)c2cc([N-]C(=O)c3ccccc3[O-])ccc2[n-]1 (optimized conformer: 63.605026076588445 kcal/mol)

>  <smiles>  (70) 
O=C(Nc1ccccc1)c1nc(=O)c2cc(NC(=O)c3ccccc3O)ccc2[nH]1

>  <score_type>  (70) 
oracle

>  <origin>  (70) 
adg

>  <m_score__min__energy>  (70) 
-15.109999999999999

>  <m_primary>  (70) 
energy

$$$$
70:0
     RDKit          3D

 50 52  0  0  0  0  0  0  0  0999 V2000
   59.6580   35.1960   45.7590 C   0  0  0  0  0  0  0  0  0  0  0  0
   58.7020   34.6210   46.8020 C   0  0  0  0  0  0  0  0  0  0  0  0
   58.2290   33.2370   46.4040 C   0  0  0  0  0  0  0  0  0  0  0  0
   58.6090   32.0610   47.1040 C   0  0  0  0  0  0  0  0  0  0  0  0
   59.4850   32.0740   48.3340 C   0  0  0  0  0  0  0  0  0  0  0  0
   60.9260   32.3520   47.9860 C   0  0  0  0  0  0  0  0  0  0  0  0
   61.4800   33.6240   48.2090 C   0  0  0  0  0  0  0  0  0  0  0  0
   62.8160   33.8780   47.8860 C   0  0  0  0  0  0  0  0  0  0  0  0
   63.6120   32.8620   47.3500 C   0  0  0  0  0  0  0  0  0  0  0  0
   63.0760   31.5890   47.1410 C   0  0  0  0  0  0  0  0  0  0  0  0
   61.7400   31.3320   47.4630 C   0  0  0  0  0  0  0  0  0  0  0  0
   58.1900   30.8510   46.6470 N   0  0  0  0  0  0  0  0  0  0  0  0
   57.4180   30.7340   45.5410 C   0  0  0  0  0  0  0  0  0  0  0  0
   56.9240   29.1140   44.9630 S   0  0  0  0  0  0  0  0  0  0  0  0
   58.5810   28.6710   44.3360 C   0  0  0  0  0  0  0  0  0  0  0  0
   59.5460   28.4900   45.4640 C   0  0  0  0  0  0  0  0  0  0  0  0
   60.7350   28.8920   45.3450 O   0  0  0  0  0  0  0  0  0  0  0  0
   59.1190   27.8370   46.6620 N   0  0  0  0  0  0  0  0  0  0  0  0
   59.2480   26.4000   46.8630 C   0  0  0  0  0  0  0  0  0  0  0  0
   58.0250   25.7130   46.3300 C   0  0  0  0  0  0  0  0  0  0  0  0
   58.1140   24.4070   45.8200 C   0  0  0  0  0  0  0  0  0  0  0  0
   56.9680   23.7540   45.3550 C   0  0  0  0  0  0  0  0  0  0  0  0
   55.7220   24.3930   45.4060 C   0  0  0  0  0  0  0  0  0  0  0  0
   54.5760   23.7480   44.9440 O   0  0  0  0  0  0  0  0  0  0  0  0
   55.6270   25.6900   45.9300 C   0  0  0  0  0  0  0  0  0  0  0  0
   54.3950   26.3290   45.9920 O   0  0  0  0  0  0  0  0  0  0  0  0
   56.7730   26.3440   46.3950 C   0  0  0  0  0  0  0  0  0  0  0  0
   57.0330   31.8410   44.8610 N   0  0  0  0  0  0  0  0  0  0  0  0
   57.4160   33.0790   45.2620 C   0  0  0  0  0  0  0  0  0  0  0  0
   57.0390   34.0810   44.5970 O   0  0  0  0  0  0  0  0  0  0  0  0
   60.4945   35.6991   46.2662 H   0  0  0  0  0  0  0  0  0  0  0  0
   60.0470   34.3819   45.1298 H   0  0  0  0  0  0  0  0  0  0  0  0
   59.1211   35.9212   45.1298 H   0  0  0  0  0  0  0  0  0  0  0  0
   59.2212   34.5588   47.7697 H   0  0  0  0  0  0  0  0  0  0  0  0
   57.8259   35.2821   46.8753 H   0  0  0  0  0  0  0  0  0  0  0  0
   59.1261   32.8557   49.0197 H   0  0  0  0  0  0  0  0  0  0  0  0
   59.4301   31.0820   48.8062 H   0  0  0  0  0  0  0  0  0  0  0  0
   60.8594   34.4236   48.6398 H   0  0  0  0  0  0  0  0  0  0  0  0
   63.2413   34.8785   48.0538 H   0  0  0  0  0  0  0  0  0  0  0  0
   64.6620   33.0650   47.0923 H   0  0  0  0  0  0  0  0  0  0  0  0
   63.7049   30.7891   46.7232 H   0  0  0  0  0  0  0  0  0  0  0  0
   61.3234   30.3261   47.3063 H   0  0  0  0  0  0  0  0  0  0  0  0
   58.5118   27.7323   43.7667 H   0  0  0  0  0  0  0  0  0  0  0  0
   58.9425   29.4851   43.6906 H   0  0  0  0  0  0  0  0  0  0  0  0
   60.1374   26.0328   46.3300 H   0  0  0  0  0  0  0  0  0  0  0  0
   59.3523   26.1860   47.9369 H   0  0  0  0  0  0  0  0  0  0  0  0
   59.0878   23.8966   45.7863 H   0  0  0  0  0  0  0  0  0  0  0  0
   57.0451   22.7351   44.9478 H   0  0  0  0  0  0  0  0  0  0  0  0
   53.6760   24.2130   44.9320 H   0  0  0  0  0  0  0  0  0  0  0  0
   56.6924   27.3580   46.8137 H   0  0  0  0  0  0  0  0  0  0  0  0
  1  2  1  0
  2  3  1  0
  3  4  2  0
  4  5  1  0
  5  6  1  0
  6  7  2  0
  7  8  1  0
  8  9  2  0
  9 10  1  0
 10 11  2  0
  4 12  1  0
 12 13  1  0
 13 14  1  0
 14 15  1  0
 15 16  1  0
 16 17  2  0
 16 18  1  0
 18 19  1  0
 19 20  1  0
 20 21  2  0
 21 22  1  0
 22 23  2  0
 23 24  1  0
 23 25  1  0
 25 26  1  0
 25 27  2  0
 13 28  2  0
 28 29  1  0
 29 30  2  0
 29  3  1  0
 11  6  1  0
 27 20  1  0
  1 31  1  0
  1 32  1  0
  1 33  1  0
  2 34  1  0
  2 35  1  0
  5 36  1  0
  5 37  1  0
  7 38  1  0
  8 39  1  0
  9 40  1  0
 10 41  1  0
 11 42  1  0
 15 43  1  0
 15 44  1  0
 19 45  1  0
 19 46  1  0
 21 47  1  0
 22 48  1  0
 24 49  1  0
 27 50  1  0
M  CHG  3  12  -1  18  -1  26  -1
M  END
>  <UniqueID>  (71) 
67

>  <SMILES>  (71) 
CCc1c(Cc2ccccc2)[n-]c(SCC(=O)[N-]Cc2ccc(O)c([O-])c2)nc1=O

>  <Energy>  (71) 
43.07804101388589

>  <Genealogy>  (71) 
CCc1c(Cc2ccccc2)[n-]c(SCC(=O)[N-]Cc2ccc(O)c([O-])c2)nc1=O (protonated)
CCc1c(Cc2ccccc2)[n-]c(SCC(=O)[N-]Cc2ccc(O)c([O-])c2)nc1=O (3D coordinates assigned)
CCc1c(Cc2ccccc2)[n-]c(SCC(=O)[N-]Cc2ccc(O)c([O-])c2)nc1=O (optimized conformer: 43.07804101388589 kcal/mol)

>  <smiles>  (71) 
CCc1c(Cc2ccccc2)[nH]c(SCC(=O)NCc2ccc(O)c(O)c2)nc1=O

>  <score_type>  (71) 
oracle

>  <origin>  (71) 
adg

>  <m_score__min__energy>  (71) 
-15.470000000000001

>  <m_primary>  (71) 
energy

$$$$
71:0
     RDKit          3D

 58 62  0  0  0  0  0  0  0  0999 V2000
   60.7640   27.3460   49.7450 C   0  0  0  0  0  0  0  0  0  0  0  0
   60.2170   28.3860   48.8010 C   0  0  0  0  0  0  0  0  0  0  0  0
   59.7740   29.6070   49.3360 C   0  0  0  0  0  0  0  0  0  0  0  0
   59.2710   30.6200   48.5050 C   0  0  0  0  0  0  0  0  0  0  0  0
   58.7610   31.8890   49.0660 C   0  0  0  0  0  0  0  0  0  0  0  0
   58.0570   31.8730   50.1120 O   0  0  0  0  0  0  0  0  0  0  0  0
   59.1840   33.1500   48.5210 N   0  0  0  0  0  0  0  0  0  0  0  0
   60.2750   33.8310   49.2110 C   0  0  0  0  0  0  0  0  0  0  0  0
   61.5410   33.2710   48.6780 C   0  0  0  0  0  0  0  0  0  0  0  0
   62.3740   32.3770   49.3200 C   0  0  0  0  0  0  0  0  0  0  0  0
   63.2510   31.9140   48.3580 C   0  0  0  0  0  0  0  0  0  0  0  0
   62.8990   32.5260   47.1680 C   0  0  0  0  0  0  0  0  0  0  0  0
   61.8410   33.3350   47.3720 N   0  0  0  0  0  0  0  0  0  0  0  0
   61.2010   34.2170   46.3980 C   0  0  0  0  0  0  0  0  0  0  0  0
   59.7270   33.9130   46.1640 C   0  0  0  0  0  0  0  0  0  0  0  0
   59.2390   34.1700   44.8660 C   0  0  0  0  0  0  0  0  0  0  0  0
   57.8880   34.0150   44.5560 C   0  0  0  0  0  0  0  0  0  0  0  0
   56.9860   33.6270   45.5400 C   0  0  0  0  0  0  0  0  0  0  0  0
   57.4320   33.3820   46.8360 C   0  0  0  0  0  0  0  0  0  0  0  0
   58.7920   33.5160   47.1780 C   0  0  0  0  0  0  0  0  0  0  0  0
   59.2130   30.4030   47.1220 C   0  0  0  0  0  0  0  0  0  0  0  0
   59.6110   29.1790   46.5830 C   0  0  0  0  0  0  0  0  0  0  0  0
   60.0970   28.1500   47.4090 C   0  0  0  0  0  0  0  0  0  0  0  0
   60.5060   26.8380   46.7720 C   0  0  0  0  0  0  0  0  0  0  0  0
   59.4210   26.2780   45.9680 N   0  0  0  0  0  0  0  0  0  0  0  0
   58.2840   25.6190   46.5530 C   0  0  0  0  0  0  0  0  0  0  0  0
   58.1750   25.5670   47.8090 O   0  0  0  0  0  0  0  0  0  0  0  0
   57.2550   24.9680   45.7060 C   0  0  0  0  0  0  0  0  0  0  0  0
   57.6350   24.3060   44.5210 C   0  0  0  0  0  0  0  0  0  0  0  0
   56.6740   23.7070   43.7020 C   0  0  0  0  0  0  0  0  0  0  0  0
   55.3240   23.7510   44.0570 C   0  0  0  0  0  0  0  0  0  0  0  0
   54.9340   24.3890   45.2370 C   0  0  0  0  0  0  0  0  0  0  0  0
   55.8910   24.9910   46.0600 C   0  0  0  0  0  0  0  0  0  0  0  0
   60.5947   27.6679   50.7831 H   0  0  0  0  0  0  0  0  0  0  0  0
   60.2533   26.3875   49.5704 H   0  0  0  0  0  0  0  0  0  0  0  0
   61.8431   27.2237   49.5704 H   0  0  0  0  0  0  0  0  0  0  0  0
   59.8221   29.7716   50.4225 H   0  0  0  0  0  0  0  0  0  0  0  0
   60.2286   34.9126   49.0161 H   0  0  0  0  0  0  0  0  0  0  0  0
   60.2063   33.6810   50.2986 H   0  0  0  0  0  0  0  0  0  0  0  0
   62.3454   32.0912   50.3818 H   0  0  0  0  0  0  0  0  0  0  0  0
   64.0713   31.1968   48.5091 H   0  0  0  0  0  0  0  0  0  0  0  0
   63.4054   32.3752   46.2032 H   0  0  0  0  0  0  0  0  0  0  0  0
   61.2879   35.2524   46.7590 H   0  0  0  0  0  0  0  0  0  0  0  0
   61.7154   34.0593   45.4386 H   0  0  0  0  0  0  0  0  0  0  0  0
   59.9376   34.4992   44.0827 H   0  0  0  0  0  0  0  0  0  0  0  0
   57.5355   34.2002   43.5306 H   0  0  0  0  0  0  0  0  0  0  0  0
   55.9197   33.5135   45.2947 H   0  0  0  0  0  0  0  0  0  0  0  0
   56.7089   33.0781   47.6072 H   0  0  0  0  0  0  0  0  0  0  0  0
   58.8518   31.2018   46.4576 H   0  0  0  0  0  0  0  0  0  0  0  0
   59.5436   29.0168   45.4971 H   0  0  0  0  0  0  0  0  0  0  0  0
   61.3792   27.0102   46.1256 H   0  0  0  0  0  0  0  0  0  0  0  0
   60.7498   26.1240   47.5725 H   0  0  0  0  0  0  0  0  0  0  0  0
   59.5280   26.3150   44.9310 H   0  0  0  0  0  0  0  0  0  0  0  0
   58.6971   24.2605   44.2384 H   0  0  0  0  0  0  0  0  0  0  0  0
   56.9816   23.1997   42.7757 H   0  0  0  0  0  0  0  0  0  0  0  0
   54.5686   23.2838   43.4081 H   0  0  0  0  0  0  0  0  0  0  0  0
   53.8713   24.4179   45.5195 H   0  0  0  0  0  0  0  0  0  0  0  0
   55.5768   25.4862   46.9906 H   0  0  0  0  0  0  0  0  0  0  0  0
  1  2  1  0
  2  3  2  0
  3  4  1  0
  4  5  1  0
  5  6  2  0
  5  7  1  0
  7  8  1  0
  8  9  1  0
  9 10  2  0
 10 11  1  0
 11 12  2  0
 12 13  1  0
 13 14  1  0
 14 15  1  0
 15 16  2  0
 16 17  1  0
 17 18  2  0
 18 19  1  0
 19 20  2  0
  4 21  2  0
 21 22  1  0
 22 23  2  0
 23 24  1  0
 24 25  1  0
 25 26  1  0
 26 27  2  0
 26 28  1  0
 28 29  2  0
 29 30  1  0
 30 31  2  0
 31 32  1  0
 32 33  2  0
 23  2  1  0
 33 28  1  0
 20  7  1  0
 13  9  1  0
 20 15  1  0
  1 34  1  0
  1 35  1  0
  1 36  1  0
  3 37  1  0
  8 38  1  0
  8 39  1  0
 10 40  1  0
 11 41  1  0
 12 42  1  0
 14 43  1  0
 14 44  1  0
 16 45  1  0
 17 46  1  0
 18 47  1  0
 19 48  1  0
 21 49  1  0
 22 50  1  0
 24 51  1  0
 24 52  1  0
 25 53  1  0
 29 54  1  0
 30 55  1  0
 31 56  1  0
 32 57  1  0
 33 58  1  0
M  END
>  <UniqueID>  (72) 
68

>  <SMILES>  (72) 
Cc1cc(C(=O)N2Cc3cccn3Cc3ccccc32)ccc1CNC(=O)c1ccccc1

>  <Energy>  (72) 
111.11947138235406

>  <Genealogy>  (72) 
Cc1cc(C(=O)N2Cc3cccn3Cc3ccccc32)ccc1CNC(=O)c1ccccc1 (3D coordinates assigned)
Cc1cc(C(=O)N2Cc3cccn3Cc3ccccc32)ccc1CNC(=O)c1ccccc1 (nonaromatic ring conformer: 111.11947138235406 kcal/mol)

>  <smiles>  (72) 
Cc1cc(C(=O)N2Cc3cccn3Cc3ccccc32)ccc1CNC(=O)c1ccccc1

>  <score_type>  (72) 
oracle

>  <origin>  (72) 
adg

>  <m_score__min__energy>  (72) 
-9.2699999999999996

>  <m_primary>  (72) 
energy

$$$$
72:0
     RDKit          3D

 37 39  0  0  0  0  0  0  0  0999 V2000
   64.7120   31.8660   46.4200 H   0  0  0  0  0  0  0  0  0  0  0  0
   63.7690   31.6660   46.8220 N   0  0  0  0  0  0  0  0  0  0  0  0
   63.1130   32.5360   47.5230 C   0  0  0  0  0  0  0  0  0  0  0  0
   63.6660   33.0300   48.6620 N   0  0  0  0  0  0  0  0  0  0  0  0
   63.0240   33.9480   49.4320 C   0  0  0  0  0  0  0  0  0  0  0  0
   63.5030   34.3297   50.3457 H   0  0  0  0  0  0  0  0  0  0  0  0
   61.7580   34.4070   49.0650 C   0  0  0  0  0  0  0  0  0  0  0  0
   61.2407   35.1572   49.6811 H   0  0  0  0  0  0  0  0  0  0  0  0
   61.1490   33.9040   47.9030 C   0  0  0  0  0  0  0  0  0  0  0  0
   59.8870   34.3410   47.4740 O   0  0  0  0  0  0  0  0  0  0  0  0
   58.9630   33.5740   46.7500 C   0  0  0  0  0  0  0  0  0  0  0  0
   58.2870   34.1700   45.6800 C   0  0  0  0  0  0  0  0  0  0  0  0
   58.4817   35.2234   45.4301 H   0  0  0  0  0  0  0  0  0  0  0  0
   57.3660   33.4370   44.9260 C   0  0  0  0  0  0  0  0  0  0  0  0
   56.8404   33.9159   44.0867 H   0  0  0  0  0  0  0  0  0  0  0  0
   57.1090   32.0910   45.2360 C   0  0  0  0  0  0  0  0  0  0  0  0
   56.1890   31.2940   44.4740 N   0  0  0  0  0  0  0  0  0  0  0  0
   56.3090   29.8970   44.1800 C   0  0  0  0  0  0  0  0  0  0  0  0
   56.6610   29.5090   43.0340 O   0  0  0  0  0  0  0  0  0  0  0  0
   56.0240   28.9470   45.2110 N   0  0  0  0  0  0  0  0  0  0  0  0
   56.8780   27.8660   45.6120 C   0  0  0  0  0  0  0  0  0  0  0  0
   56.2930   26.6540   46.0080 C   0  0  0  0  0  0  0  0  0  0  0  0
   54.9430   26.5260   46.0360 F   0  0  0  0  0  0  0  0  0  0  0  0
   57.0960   25.5750   46.3940 C   0  0  0  0  0  0  0  0  0  0  0  0
   56.6305   24.6329   46.7193 H   0  0  0  0  0  0  0  0  0  0  0  0
   58.4870   25.6920   46.3670 C   0  0  0  0  0  0  0  0  0  0  0  0
   59.1164   24.8455   46.6788 H   0  0  0  0  0  0  0  0  0  0  0  0
   59.0790   26.8840   45.9440 C   0  0  0  0  0  0  0  0  0  0  0  0
   60.1752   26.9707   45.9140 H   0  0  0  0  0  0  0  0  0  0  0  0
   58.2830   27.9690   45.5580 C   0  0  0  0  0  0  0  0  0  0  0  0
   58.8860   29.0850   45.0790 F   0  0  0  0  0  0  0  0  0  0  0  0
   57.8180   31.4820   46.2790 C   0  0  0  0  0  0  0  0  0  0  0  0
   57.6504   30.4187   46.5055 H   0  0  0  0  0  0  0  0  0  0  0  0
   58.7370   32.2160   47.0340 C   0  0  0  0  0  0  0  0  0  0  0  0
   59.2856   31.7291   47.8537 H   0  0  0  0  0  0  0  0  0  0  0  0
   61.8410   32.9740   47.1200 C   0  0  0  0  0  0  0  0  0  0  0  0
   61.3912   32.5878   46.1935 H   0  0  0  0  0  0  0  0  0  0  0  0
  1  2  1  0
  2  3  2  0
  3  4  1  0
  4  5  1  0
  5  6  1  0
  5  7  2  0
  7  8  1  0
  7  9  1  0
  9 10  1  0
 10 11  1  0
 11 12  2  0
 12 13  1  0
 12 14  1  0
 14 15  1  0
 14 16  2  0
 16 17  1  0
 17 18  1  0
 18 19  2  0
 18 20  1  0
 20 21  1  0
 21 22  2  0
 22 23  1  0
 22 24  1  0
 24 25  1  0
 24 26  2  0
 26 27  1  0
 26 28  1  0
 28 29  1  0
 28 30  2  0
 30 31  1  0
 16 32  1  0
 32 33  1  0
 32 34  2  0
 34 35  1  0
  9 36  2  0
 36 37  1  0
 36  3  1  0
 34 11  1  0
 30 21  1  0
M  CHG  3   4  -1  17  -1  20  -1
M  END
>  <UniqueID>  (73) 
69

>  <SMILES>  (73) 
[H]/N=c1\cc(Oc2ccc([N-]C(=O)[N-]c3c(F)cccc3F)cc2)cc[n-]1

>  <Energy>  (73) 
56.33183323806643

>  <Genealogy>  (73) 
N=c1cc(Oc2ccc([N-]C(=O)[N-]c3c(F)cccc3F)cc2)cc[n-]1 (protonated)
[H]/N=c1\cc(Oc2ccc([N-]C(=O)[N-]c3c(F)cccc3F)cc2)cc[n-]1 (cis-trans isomerization)
[H]/N=c1\cc(Oc2ccc([N-]C(=O)[N-]c3c(F)cccc3F)cc2)cc[n-]1 (3D coordinates assigned)
[H]/N=c1\cc(Oc2ccc([N-]C(=O)[N-]c3c(F)cccc3F)cc2)cc[n-]1 (optimized conformer: 56.33183323806643 kcal/mol)

>  <smiles>  (73) 
N=c1cc(Oc2ccc(NC(=O)Nc3c(F)cccc3F)cc2)cc[nH]1

>  <score_type>  (73) 
oracle

>  <origin>  (73) 
adg

>  <m_score__min__energy>  (73) 
-11.65

>  <m_primary>  (73) 
energy

$$$$
73:0
     RDKit          3D

 72 76  0  0  0  0  0  0  0  0999 V2000
   54.9940   24.4690   45.2250 C   0  0  0  0  0  0  0  0  0  0  0  0
   55.1710   25.6610   45.9840 O   0  0  0  0  0  0  0  0  0  0  0  0
   56.4020   26.3170   46.1590 C   0  0  0  0  0  0  0  0  0  0  0  0
   57.4020   25.6710   46.8880 C   0  0  0  0  0  0  0  0  0  0  0  0
   58.6360   26.2880   47.1080 C   0  0  0  0  0  0  0  0  0  0  0  0
   58.9000   27.5620   46.5760 C   0  0  0  0  0  0  0  0  0  0  0  0
   60.1310   28.2140   46.7790 O   0  0  0  0  0  0  0  0  0  0  0  0
   60.3710   29.1800   47.7940 C   0  0  0  0  0  0  0  0  0  0  0  0
   57.9150   28.2110   45.8130 C   0  0  0  0  0  0  0  0  0  0  0  0
   58.2260   29.5070   45.2700 N   0  0  0  0  0  0  0  0  0  0  0  0
   57.3690   30.6480   45.1240 C   0  0  0  0  0  0  0  0  0  0  0  0
   56.2840   30.5740   44.4850 O   0  0  0  0  0  0  0  0  0  0  0  0
   57.8340   31.9860   45.6390 C   0  0  2  0  0  0  0  0  0  0  0  0
   57.5980   33.1160   44.6000 C   0  0  0  0  0  0  0  0  0  0  0  0
   58.8660   33.9050   44.2640 C   0  0  0  0  0  0  0  0  0  0  0  0
   59.6000   34.3340   45.5390 C   0  0  0  0  0  0  0  0  0  0  0  0
   59.8500   33.1930   46.4400 N   0  0  0  0  0  0  0  0  0  0  0  0
   60.7800   33.3170   47.5440 C   0  0  0  0  0  0  0  0  0  0  0  0
   60.8140   34.4860   48.3580 C   0  0  0  0  0  0  0  0  0  0  0  0
   61.7310   34.5810   49.4210 C   0  0  0  0  0  0  0  0  0  0  0  0
   62.5730   33.4990   49.6380 C   0  0  0  0  0  0  0  0  0  0  0  0
   63.5190   33.3460   50.5740 N   0  0  0  0  0  0  0  0  0  0  0  0
   64.0010   32.1020   50.3020 C   0  0  0  0  0  0  0  0  0  0  0  0
   65.0840   31.4850   51.0830 C   0  0  0  0  0  0  0  0  0  0  0  0
   64.8360   31.0460   52.2400 O   0  0  0  0  0  0  0  0  0  0  0  0
   66.4110   31.3830   50.5430 N   0  0  0  0  0  0  0  0  0  0  0  0
   67.4990   30.7880   51.3190 C   0  0  0  0  0  0  0  0  0  0  0  0
   67.1090   29.4280   51.9260 C   0  0  0  0  0  0  0  0  0  0  0  0
   66.8320   28.4210   50.8780 N   0  0  0  0  0  0  0  0  0  0  0  0
   66.3390   27.1490   51.4510 C   0  0  0  0  0  0  0  0  0  0  0  0
   66.5320   25.9890   50.4600 C   0  0  0  0  0  0  0  0  0  0  0  0
   67.8880   25.7570   50.0960 O   0  0  0  0  0  0  0  0  0  0  0  0
   68.7220   26.8950   50.2550 C   0  0  0  0  0  0  0  0  0  0  0  0
   67.9950   28.2230   49.9780 C   0  0  0  0  0  0  0  0  0  0  0  0
   63.4060   31.4800   49.2460 N   0  0  0  0  0  0  0  0  0  0  0  0
   62.5120   32.3970   48.8540 C   0  0  0  0  0  0  0  0  0  0  0  0
   61.6440   32.2880   47.8200 N   0  0  0  0  0  0  0  0  0  0  0  0
   59.3010   31.8730   46.0990 C   0  0  0  0  0  0  0  0  0  0  0  0
   56.6580   27.5960   45.6310 C   0  0  0  0  0  0  0  0  0  0  0  0
   54.8672   23.6154   45.9071 H   0  0  0  0  0  0  0  0  0  0  0  0
   54.1006   24.5674   44.5908 H   0  0  0  0  0  0  0  0  0  0  0  0
   55.8774   24.3035   44.5908 H   0  0  0  0  0  0  0  0  0  0  0  0
   57.2164   24.6655   47.2935 H   0  0  0  0  0  0  0  0  0  0  0  0
   59.4061   25.7734   47.7015 H   0  0  0  0  0  0  0  0  0  0  0  0
   60.2544   28.7105   48.7819 H   0  0  0  0  0  0  0  0  0  0  0  0
   61.3938   29.5719   47.6927 H   0  0  0  0  0  0  0  0  0  0  0  0
   59.6505   30.0050   47.6927 H   0  0  0  0  0  0  0  0  0  0  0  0
   57.2311   32.2726   46.5133 H   0  0  0  0  0  0  0  0  0  0  0  0
   57.2126   32.6640   43.6742 H   0  0  0  0  0  0  0  0  0  0  0  0
   56.8829   33.8234   45.0452 H   0  0  0  0  0  0  0  0  0  0  0  0
   59.5336   33.2728   43.6601 H   0  0  0  0  0  0  0  0  0  0  0  0
   58.5792   34.8075   43.7043 H   0  0  0  0  0  0  0  0  0  0  0  0
   60.5639   34.7846   45.2599 H   0  0  0  0  0  0  0  0  0  0  0  0
   58.9641   35.0563   46.0719 H   0  0  0  0  0  0  0  0  0  0  0  0
   60.1216   35.3163   48.1549 H   0  0  0  0  0  0  0  0  0  0  0  0
   61.7788   35.4782   50.0556 H   0  0  0  0  0  0  0  0  0  0  0  0
   66.5820   31.7100   49.5670 H   0  0  0  0  0  0  0  0  0  0  0  0
   68.3670   30.6446   50.6587 H   0  0  0  0  0  0  0  0  0  0  0  0
   67.7332   31.4715   52.1484 H   0  0  0  0  0  0  0  0  0  0  0  0
   67.9357   29.0686   52.5563 H   0  0  0  0  0  0  0  0  0  0  0  0
   66.1931   29.5669   52.5192 H   0  0  0  0  0  0  0  0  0  0  0  0
   66.8956   26.9303   52.3742 H   0  0  0  0  0  0  0  0  0  0  0  0
   65.2651   27.2531   51.6652 H   0  0  0  0  0  0  0  0  0  0  0  0
   66.1358   25.0717   50.9200 H   0  0  0  0  0  0  0  0  0  0  0  0
   65.9986   26.2660   49.5387 H   0  0  0  0  0  0  0  0  0  0  0  0
   69.0979   26.9112   51.2886 H   0  0  0  0  0  0  0  0  0  0  0  0
   69.5362   26.8087   49.5205 H   0  0  0  0  0  0  0  0  0  0  0  0
   68.7027   29.0522   50.1253 H   0  0  0  0  0  0  0  0  0  0  0  0
   67.6220   28.1956   48.9435 H   0  0  0  0  0  0  0  0  0  0  0  0
   59.8995   31.4334   45.2875 H   0  0  0  0  0  0  0  0  0  0  0  0
   59.3389   31.2359   46.9949 H   0  0  0  0  0  0  0  0  0  0  0  0
   55.8706   28.1216   45.0709 H   0  0  0  0  0  0  0  0  0  0  0  0
  1  2  1  0
  2  3  1  0
  3  4  2  0
  4  5  1  0
  5  6  2  0
  6  7  1  0
  7  8  1  0
  6  9  1  0
  9 10  1  0
 10 11  1  0
 11 12  2  0
 11 13  1  0
 13 14  1  0
 14 15  1  0
 15 16  1  0
 16 17  1  0
 17 18  1  0
 18 19  2  0
 19 20  1  0
 20 21  2  0
 21 22  1  0
 22 23  1  0
 23 24  1  0
 24 25  2  0
 24 26  1  0
 26 27  1  0
 27 28  1  0
 28 29  1  0
 29 30  1  0
 30 31  1  0
 31 32  1  0
 32 33  1  0
 33 34  1  0
 23 35  2  0
 35 36  1  0
 36 37  2  0
 17 38  1  0
  9 39  2  0
 39  3  1  0
 38 13  1  0
 37 18  1  0
 36 21  1  0
 34 29  1  0
  1 40  1  0
  1 41  1  0
  1 42  1  0
  4 43  1  0
  5 44  1  0
  8 45  1  0
  8 46  1  0
  8 47  1  0
 13 48  1  1
 14 49  1  0
 14 50  1  0
 15 51  1  0
 15 52  1  0
 16 53  1  0
 16 54  1  0
 19 55  1  0
 20 56  1  0
 26 57  1  0
 27 58  1  0
 27 59  1  0
 28 60  1  0
 28 61  1  0
 30 62  1  0
 30 63  1  0
 31 64  1  0
 31 65  1  0
 33 66  1  0
 33 67  1  0
 34 68  1  0
 34 69  1  0
 38 70  1  0
 38 71  1  0
 39 72  1  0
M  CHG  2  10  -1  22  -1
M  END
>  <UniqueID>  (74) 
70

>  <SMILES>  (74) 
COc1ccc(OC)c([N-]C(=O)[C@@H]2CCCN(c3ccc4[n-]c(C(=O)NCCN5CCOCC5)nc4n3)C2)c1

>  <Energy>  (74) 
131.46185511996225

>  <Genealogy>  (74) 
COc1ccc(OC)c([N-]C(=O)C2CCCN(c3ccc4[n-]c(C(=O)NCCN5CCOCC5)nc4n3)C2)c1 (protonated)
COc1ccc(OC)c([N-]C(=O)[C@@H]2CCCN(c3ccc4[n-]c(C(=O)NCCN5CCOCC5)nc4n3)C2)c1 (chirality)
COc1ccc(OC)c([N-]C(=O)[C@@H]2CCCN(c3ccc4[n-]c(C(=O)NCCN5CCOCC5)nc4n3)C2)c1 (3D coordinates assigned)
COc1ccc(OC)c([N-]C(=O)[C@@H]2CCCN(c3ccc4[n-]c(C(=O)NCCN5CCOCC5)nc4n3)C2)c1 (nonaromatic ring conformer: 131.46185511996225 kcal/mol)

>  <smiles>  (74) 
COc1ccc(OC)c(NC(=O)C2CCCN(c3ccc4[nH]c(C(=O)NCCN5CCOCC5)nc4n3)C2)c1

>  <score_type>  (74) 
oracle

>  <origin>  (74) 
adg

>  <m_score__min__energy>  (74) 
-11.57

>  <m_primary>  (74) 
energy

$$$$
74:0
     RDKit          3D

 34 35  0  0  0  0  0  0  0  0999 V2000
   53.2200   23.8360   45.2620 C   0  0  0  0  0  0  0  0  0  0  0  0
   54.7090   24.0470   45.2480 C   0  0  0  0  0  0  0  0  0  0  0  0
   55.5640   22.9940   44.8950 C   0  0  0  0  0  0  0  0  0  0  0  0
   56.9440   23.1860   44.8810 C   0  0  0  0  0  0  0  0  0  0  0  0
   57.4860   24.4270   45.2180 C   0  0  0  0  0  0  0  0  0  0  0  0
   56.6520   25.5020   45.5770 C   0  0  0  0  0  0  0  0  0  0  0  0
   57.2600   26.8140   45.9310 C   0  0  0  0  0  0  0  0  0  0  0  0
   57.4200   27.1410   47.1380 O   0  0  0  0  0  0  0  0  0  0  0  0
   57.6700   27.7180   44.8970 N   0  0  0  0  0  0  0  0  0  0  0  0
   57.8600   29.1510   45.0970 C   0  0  0  0  0  0  0  0  0  0  0  0
   56.5720   29.9040   44.8890 C   0  0  0  0  0  0  0  0  0  0  0  0
   55.4850   29.2670   44.8470 O   0  0  0  0  0  0  0  0  0  0  0  0
   56.5610   31.2980   44.5580 N   0  0  0  0  0  0  0  0  0  0  0  0
   57.3990   32.3130   45.1280 C   0  0  0  0  0  0  0  0  0  0  0  0
   57.7610   33.4160   44.3450 C   0  0  0  0  0  0  0  0  0  0  0  0
   58.5440   34.4410   44.8880 C   0  0  0  0  0  0  0  0  0  0  0  0
   58.9510   34.3780   46.2240 C   0  0  0  0  0  0  0  0  0  0  0  0
   59.7070   35.3710   46.7500 F   0  0  0  0  0  0  0  0  0  0  0  0
   58.5660   33.2940   47.0200 C   0  0  0  0  0  0  0  0  0  0  0  0
   57.7830   32.2700   46.4790 C   0  0  0  0  0  0  0  0  0  0  0  0
   55.2500   25.3020   45.5900 C   0  0  0  0  0  0  0  0  0  0  0  0
   54.3880   26.3390   45.9390 O   0  0  0  0  0  0  0  0  0  0  0  0
   52.8665   23.7859   46.3025 H   0  0  0  0  0  0  0  0  0  0  0  0
   52.7262   24.6731   44.7469 H   0  0  0  0  0  0  0  0  0  0  0  0
   52.9782   22.8946   44.7469 H   0  0  0  0  0  0  0  0  0  0  0  0
   55.1442   22.0129   44.6282 H   0  0  0  0  0  0  0  0  0  0  0  0
   57.6094   22.3554   44.6030 H   0  0  0  0  0  0  0  0  0  0  0  0
   58.5770   24.5664   45.2028 H   0  0  0  0  0  0  0  0  0  0  0  0
   58.2168   29.3262   46.1227 H   0  0  0  0  0  0  0  0  0  0  0  0
   58.5970   29.5110   44.3640 H   0  0  0  0  0  0  0  0  0  0  0  0
   57.4284   33.4771   43.2983 H   0  0  0  0  0  0  0  0  0  0  0  0
   58.8394   35.2968   44.2632 H   0  0  0  0  0  0  0  0  0  0  0  0
   58.8799   33.2473   48.0732 H   0  0  0  0  0  0  0  0  0  0  0  0
   57.4666   31.4283   47.1126 H   0  0  0  0  0  0  0  0  0  0  0  0
  1  2  1  0
  2  3  2  0
  3  4  1  0
  4  5  2  0
  5  6  1  0
  6  7  1  0
  7  8  2  0
  7  9  1  0
  9 10  1  0
 10 11  1  0
 11 12  2  0
 11 13  1  0
 13 14  1  0
 14 15  2  0
 15 16  1  0
 16 17  2  0
 17 18  1  0
 17 19  1  0
 19 20  2  0
  6 21  2  0
 21 22  1  0
 21  2  1  0
 20 14  1  0
  1 23  1  0
  1 24  1  0
  1 25  1  0
  3 26  1  0
  4 27  1  0
  5 28  1  0
 10 29  1  0
 10 30  1  0
 15 31  1  0
 16 32  1  0
 19 33  1  0
 20 34  1  0
M  CHG  3   9  -1  13  -1  22  -1
M  END
>  <UniqueID>  (75) 
71

>  <SMILES>  (75) 
Cc1cccc(C(=O)[N-]CC(=O)[N-]c2ccc(F)cc2)c1[O-]

>  <Energy>  (75) 
41.01004201220274

>  <Genealogy>  (75) 
Cc1cccc(C(=O)[N-]CC(=O)[N-]c2ccc(F)cc2)c1[O-] (protonated)
Cc1cccc(C(=O)[N-]CC(=O)[N-]c2ccc(F)cc2)c1[O-] (3D coordinates assigned)
Cc1cccc(C(=O)[N-]CC(=O)[N-]c2ccc(F)cc2)c1[O-] (optimized conformer: 41.01004201220274 kcal/mol)

>  <smiles>  (75) 
Cc1cccc(C(=O)NCC(=O)Nc2ccc(F)cc2)c1O

>  <score_type>  (75) 
oracle

>  <origin>  (75) 
adg

>  <m_score__min__energy>  (75) 
-14.69

>  <m_primary>  (75) 
energy

$$$$
75:0
     RDKit          3D

 56 59  0  0  0  0  0  0  0  0999 V2000
   57.5180   28.2790   43.7090 C   0  0  0  0  0  0  0  0  0  0  0  0
   56.7820   29.4220   44.3390 C   0  0  0  0  0  0  0  0  0  0  0  0
   55.6630   29.1920   44.8720 O   0  0  0  0  0  0  0  0  0  0  0  0
   57.3340   30.8050   44.3490 C   0  0  0  0  0  0  0  0  0  0  0  0
   57.5980   31.4650   43.1350 C   0  0  0  0  0  0  0  0  0  0  0  0
   58.1310   32.7550   43.1290 C   0  0  0  0  0  0  0  0  0  0  0  0
   58.4010   33.4090   44.3310 C   0  0  0  0  0  0  0  0  0  0  0  0
   58.1190   32.7800   45.5550 C   0  0  0  0  0  0  0  0  0  0  0  0
   58.4120   33.4150   46.8070 N   0  0  0  0  0  0  0  0  0  0  0  0
   58.9830   32.7820   47.9600 C   0  0  0  0  0  0  0  0  0  0  0  0
   58.2290   32.5060   48.9270 O   0  0  0  0  0  0  0  0  0  0  0  0
   60.4350   32.4920   48.0390 C   0  0  0  0  0  0  0  0  0  0  0  0
   61.3310   33.3520   48.5630 N   0  0  0  0  0  0  0  0  0  0  0  0
   62.5360   32.8290   48.4010 N   0  0  0  0  0  0  0  0  0  0  0  0
   63.7700   33.5080   48.7720 C   0  0  0  0  0  0  0  0  0  0  0  0
   62.4480   31.6530   47.7570 C   0  0  0  0  0  0  0  0  0  0  0  0
   61.1140   31.3870   47.5320 C   0  0  0  0  0  0  0  0  0  0  0  0
   60.5820   30.1870   46.8710 C   0  0  0  0  0  0  0  0  0  0  0  0
   60.7240   30.0650   45.6250 O   0  0  0  0  0  0  0  0  0  0  0  0
   59.9390   29.1580   47.6420 N   0  0  0  0  0  0  0  0  0  0  0  0
   59.3440   27.9780   47.0790 C   0  0  0  0  0  0  0  0  0  0  0  0
   57.9510   27.8360   47.1000 C   0  0  0  0  0  0  0  0  0  0  0  0
   57.3450   26.6910   46.5780 C   0  0  0  0  0  0  0  0  0  0  0  0
   58.1230   25.6500   46.0340 C   0  0  0  0  0  0  0  0  0  0  0  0
   57.4960   24.4650   45.4900 N   0  0  0  0  0  0  0  0  0  0  0  0
   57.2490   23.2500   46.2530 C   0  0  0  0  0  0  0  0  0  0  0  0
   56.4200   22.3500   45.3490 C   0  0  0  0  0  0  0  0  0  0  0  0
   56.6010   22.9000   43.9390 C   0  0  0  0  0  0  0  0  0  0  0  0
   57.0310   24.3500   44.1140 C   0  0  0  0  0  0  0  0  0  0  0  0
   59.5240   25.7870   46.0410 C   0  0  0  0  0  0  0  0  0  0  0  0
   60.1290   26.9330   46.5650 C   0  0  0  0  0  0  0  0  0  0  0  0
   57.6090   31.4760   45.5580 C   0  0  0  0  0  0  0  0  0  0  0  0
   57.9342   27.6327   44.4958 H   0  0  0  0  0  0  0  0  0  0  0  0
   56.8249   27.6964   43.0843 H   0  0  0  0  0  0  0  0  0  0  0  0
   58.3352   28.6688   43.0843 H   0  0  0  0  0  0  0  0  0  0  0  0
   57.3824   30.9599   42.1819 H   0  0  0  0  0  0  0  0  0  0  0  0
   58.3389   33.2576   42.1729 H   0  0  0  0  0  0  0  0  0  0  0  0
   58.8357   34.4194   44.3205 H   0  0  0  0  0  0  0  0  0  0  0  0
   63.8492   33.5516   49.8683 H   0  0  0  0  0  0  0  0  0  0  0  0
   64.6294   32.9557   48.3640 H   0  0  0  0  0  0  0  0  0  0  0  0
   63.7634   34.5295   48.3640 H   0  0  0  0  0  0  0  0  0  0  0  0
   63.2929   31.0139   47.4609 H   0  0  0  0  0  0  0  0  0  0  0  0
   59.8230   29.3150   48.6690 H   0  0  0  0  0  0  0  0  0  0  0  0
   57.3284   28.6335   47.5316 H   0  0  0  0  0  0  0  0  0  0  0  0
   56.2488   26.6011   46.5918 H   0  0  0  0  0  0  0  0  0  0  0  0
   58.1997   22.7609   46.5117 H   0  0  0  0  0  0  0  0  0  0  0  0
   56.7264   23.4654   47.1967 H   0  0  0  0  0  0  0  0  0  0  0  0
   56.7816   21.3126   45.4051 H   0  0  0  0  0  0  0  0  0  0  0  0
   55.3613   22.3400   45.6475 H   0  0  0  0  0  0  0  0  0  0  0  0
   57.3756   22.3324   43.4025 H   0  0  0  0  0  0  0  0  0  0  0  0
   55.6755   22.8194   43.3500 H   0  0  0  0  0  0  0  0  0  0  0  0
   57.8431   24.5955   43.4138 H   0  0  0  0  0  0  0  0  0  0  0  0
   56.2033   25.0445   43.9079 H   0  0  0  0  0  0  0  0  0  0  0  0
   60.1505   24.9822   45.6290 H   0  0  0  0  0  0  0  0  0  0  0  0
   61.2258   27.0168   46.5748 H   0  0  0  0  0  0  0  0  0  0  0  0
   57.4205   30.9687   46.5157 H   0  0  0  0  0  0  0  0  0  0  0  0
  1  2  1  0
  2  3  2  0
  2  4  1  0
  4  5  2  0
  5  6  1  0
  6  7  2  0
  7  8  1  0
  8  9  1  0
  9 10  1  0
 10 11  2  0
 10 12  1  0
 12 13  2  0
 13 14  1  0
 14 15  1  0
 14 16  1  0
 16 17  2  0
 17 18  1  0
 18 19  2  0
 18 20  1  0
 20 21  1  0
 21 22  2  0
 22 23  1  0
 23 24  2  0
 24 25  1  0
 25 26  1  0
 26 27  1  0
 27 28  1  0
 28 29  1  0
 24 30  1  0
 30 31  2  0
  8 32  2  0
 32  4  1  0
 17 12  1  0
 31 21  1  0
 29 25  1  0
  1 33  1  0
  1 34  1  0
  1 35  1  0
  5 36  1  0
  6 37  1  0
  7 38  1  0
 15 39  1  0
 15 40  1  0
 15 41  1  0
 16 42  1  0
 20 43  1  0
 22 44  1  0
 23 45  1  0
 26 46  1  0
 26 47  1  0
 27 48  1  0
 27 49  1  0
 28 50  1  0
 28 51  1  0
 29 52  1  0
 29 53  1  0
 30 54  1  0
 31 55  1  0
 32 56  1  0
M  CHG  1   9  -1
M  END
>  <UniqueID>  (76) 
72

>  <SMILES>  (76) 
CC(=O)c1cccc([N-]C(=O)c2nn(C)cc2C(=O)Nc2ccc(N3CCCC3)cc2)c1

>  <Energy>  (76) 
104.54085927453676

>  <Genealogy>  (76) 
CC(=O)c1cccc([N-]C(=O)c2nn(C)cc2C(=O)Nc2ccc(N3CCCC3)cc2)c1 (protonated)
CC(=O)c1cccc([N-]C(=O)c2nn(C)cc2C(=O)Nc2ccc(N3CCCC3)cc2)c1 (3D coordinates assigned)
CC(=O)c1cccc([N-]C(=O)c2nn(C)cc2C(=O)Nc2ccc(N3CCCC3)cc2)c1 (nonaromatic ring conformer: 104.54085927453676 kcal/mol)

>  <smiles>  (76) 
CC(=O)c1cccc(NC(=O)c2nn(C)cc2C(=O)Nc2ccc(N3CCCC3)cc2)c1

>  <score_type>  (76) 
oracle

>  <origin>  (76) 
adg

>  <m_score__min__energy>  (76) 
-10.41

>  <m_primary>  (76) 
energy

$$$$
76:0
     RDKit          3D

 45 48  0  0  0  0  0  0  0  0999 V2000
   58.7180   29.9170   48.2470 O   0  0  0  0  0  0  0  0  0  0  0  0
   59.8850   29.6750   47.8480 C   0  0  0  0  0  0  0  0  0  0  0  0
   60.1310   29.5280   46.3680 C   0  0  0  0  0  0  0  0  0  0  0  0
   58.8860   29.1630   45.6110 C   0  0  0  0  0  0  0  0  0  0  0  0
   58.1380   27.9980   45.7750 C   0  0  0  0  0  0  0  0  0  0  0  0
   57.0810   27.9890   44.9290 N   0  0  0  0  0  0  0  0  0  0  0  0
   57.1600   29.1350   44.2250 C   0  0  0  0  0  0  0  0  0  0  0  0
   56.2870   29.5730   43.2270 C   0  0  0  0  0  0  0  0  0  0  0  0
   56.5570   30.8120   42.6120 C   0  0  0  0  0  0  0  0  0  0  0  0
   57.6800   31.5760   43.0060 C   0  0  0  0  0  0  0  0  0  0  0  0
   58.5430   31.1090   44.0170 C   0  0  0  0  0  0  0  0  0  0  0  0
   58.2490   29.8780   44.6100 C   0  0  0  0  0  0  0  0  0  0  0  0
   60.9400   29.6130   48.8170 N   0  0  0  0  0  0  0  0  0  0  0  0
   61.4460   30.7440   49.5820 C   0  0  0  0  0  0  0  0  0  0  0  0
   62.0740   31.7320   48.6490 C   0  0  0  0  0  0  0  0  0  0  0  0
   63.3540   31.6670   48.1450 C   0  0  0  0  0  0  0  0  0  0  0  0
   63.6010   32.7670   47.4030 N   0  0  0  0  0  0  0  0  0  0  0  0
   62.4610   33.4890   47.4800 C   0  0  0  0  0  0  0  0  0  0  0  0
   61.5220   32.8880   48.2350 N   0  0  0  0  0  0  0  0  0  0  0  0
   59.9490   33.5200   48.6150 S   0  0  0  0  0  0  0  0  0  0  0  0
   59.2030   32.5540   49.4990 O   0  0  0  0  0  0  0  0  0  0  0  0
   60.1140   34.8240   49.3500 O   0  0  0  0  0  0  0  0  0  0  0  0
   59.0380   33.7500   47.1220 C   0  0  0  0  0  0  0  0  0  0  0  0
   59.5870   34.5140   46.0820 C   0  0  0  0  0  0  0  0  0  0  0  0
   58.8540   34.7450   44.9140 C   0  0  0  0  0  0  0  0  0  0  0  0
   57.5710   34.2110   44.7770 C   0  0  0  0  0  0  0  0  0  0  0  0
   57.0190   33.4430   45.8060 C   0  0  0  0  0  0  0  0  0  0  0  0
   57.7490   33.2120   46.9780 C   0  0  0  0  0  0  0  0  0  0  0  0
   60.5141   30.4824   45.9776 H   0  0  0  0  0  0  0  0  0  0  0  0
   60.8571   28.7135   46.2293 H   0  0  0  0  0  0  0  0  0  0  0  0
   58.3737   27.1976   46.4918 H   0  0  0  0  0  0  0  0  0  0  0  0
   56.3510   27.2440   44.8430 H   0  0  0  0  0  0  0  0  0  0  0  0
   55.4161   28.9701   42.9303 H   0  0  0  0  0  0  0  0  0  0  0  0
   55.8906   31.1869   41.8212 H   0  0  0  0  0  0  0  0  0  0  0  0
   57.8811   32.5419   42.5196 H   0  0  0  0  0  0  0  0  0  0  0  0
   59.4202   31.6945   44.3296 H   0  0  0  0  0  0  0  0  0  0  0  0
   60.6157   31.2240   50.1208 H   0  0  0  0  0  0  0  0  0  0  0  0
   62.1962   30.3928   50.3058 H   0  0  0  0  0  0  0  0  0  0  0  0
   64.0648   30.8459   48.3200 H   0  0  0  0  0  0  0  0  0  0  0  0
   62.3165   34.4589   46.9817 H   0  0  0  0  0  0  0  0  0  0  0  0
   60.5987   34.9333   46.1856 H   0  0  0  0  0  0  0  0  0  0  0  0
   59.2882   35.3477   44.1026 H   0  0  0  0  0  0  0  0  0  0  0  0
   56.9944   34.3949   43.8585 H   0  0  0  0  0  0  0  0  0  0  0  0
   56.0099   33.0196   45.6949 H   0  0  0  0  0  0  0  0  0  0  0  0
   57.3122   32.6082   47.7871 H   0  0  0  0  0  0  0  0  0  0  0  0
  1  2  2  0
  2  3  1  0
  3  4  1  0
  4  5  2  0
  5  6  1  0
  6  7  1  0
  7  8  2  0
  8  9  1  0
  9 10  2  0
 10 11  1  0
 11 12  2  0
  2 13  1  0
 13 14  1  0
 14 15  1  0
 15 16  2  0
 16 17  1  0
 17 18  2  0
 18 19  1  0
 19 20  1  0
 20 21  2  0
 20 22  2  0
 20 23  1  0
 23 24  2  0
 24 25  1  0
 25 26  2  0
 26 27  1  0
 27 28  2  0
 12  4  1  0
 19 15  1  0
 28 23  1  0
 12  7  1  0
  3 29  1  0
  3 30  1  0
  5 31  1  0
  6 32  1  0
  8 33  1  0
  9 34  1  0
 10 35  1  0
 11 36  1  0
 14 37  1  0
 14 38  1  0
 16 39  1  0
 18 40  1  0
 24 41  1  0
 25 42  1  0
 26 43  1  0
 27 44  1  0
 28 45  1  0
M  CHG  1  13  -1
M  END
>  <UniqueID>  (77) 
73

>  <SMILES>  (77) 
O=C(Cc1c[nH]c2ccccc12)[N-]Cc1cncn1S(=O)(=O)c1ccccc1

>  <Energy>  (77) 
106.7588180955404

>  <Genealogy>  (77) 
O=C(Cc1c[nH]c2ccccc12)[N-]Cc1cncn1S(=O)(=O)c1ccccc1 (protonated)
O=C(Cc1c[nH]c2ccccc12)[N-]Cc1cncn1S(=O)(=O)c1ccccc1 (3D coordinates assigned)
O=C(Cc1c[nH]c2ccccc12)[N-]Cc1cncn1S(=O)(=O)c1ccccc1 (optimized conformer: 106.7588180955404 kcal/mol)

>  <smiles>  (77) 
O=C(Cc1c[nH]c2ccccc12)NCc1cncn1S(=O)(=O)c1ccccc1

>  <score_type>  (77) 
oracle

>  <origin>  (77) 
adg

>  <m_score__min__energy>  (77) 
-10.94

>  <m_primary>  (77) 
energy

$$$$
77:0
     RDKit          3D

 42 44  0  0  0  0  0  0  0  0999 V2000
   55.4310   26.5540   45.9930 O   0  0  0  0  0  0  0  0  0  0  0  0
   56.2890   27.4150   45.6600 C   0  0  0  0  0  0  0  0  0  0  0  0
   55.8870   28.5740   44.9150 N   0  0  0  0  0  0  0  0  0  0  0  0
   56.6340   29.7890   44.7580 C   0  0  0  0  0  0  0  0  0  0  0  0
   56.6240   30.5240   43.5610 C   0  0  0  0  0  0  0  0  0  0  0  0
   57.3810   31.6930   43.4440 C   0  0  0  0  0  0  0  0  0  0  0  0
   58.1670   32.1450   44.5150 C   0  0  0  0  0  0  0  0  0  0  0  0
   58.9270   33.3570   44.3660 N   0  0  0  0  0  0  0  0  0  0  0  0
   59.0500   34.5730   45.5970 S   0  0  0  0  0  0  0  0  0  0  0  0
   57.7710   34.6150   46.3840 O   0  0  0  0  0  0  0  0  0  0  0  0
   59.2670   35.9140   44.9520 O   0  0  0  0  0  0  0  0  0  0  0  0
   60.3710   34.1770   46.6910 C   0  0  0  0  0  0  0  0  0  0  0  0
   60.1500   34.1820   48.0720 C   0  0  0  0  0  0  0  0  0  0  0  0
   61.1830   33.8490   48.9530 C   0  0  0  0  0  0  0  0  0  0  0  0
   62.4540   33.5070   48.4630 C   0  0  0  0  0  0  0  0  0  0  0  0
   63.5170   33.1630   49.3720 N   0  0  0  0  0  0  0  0  0  0  0  0
   63.8760   33.9590   50.2640 O   0  0  0  0  0  0  0  0  0  0  0  0
   64.1510   31.9460   49.2760 O   0  0  0  0  0  0  0  0  0  0  0  0
   62.6710   33.5050   47.0730 C   0  0  0  0  0  0  0  0  0  0  0  0
   61.6370   33.8400   46.1930 C   0  0  0  0  0  0  0  0  0  0  0  0
   58.2040   31.3860   45.6990 C   0  0  0  0  0  0  0  0  0  0  0  0
   57.4470   30.2160   45.8140 C   0  0  0  0  0  0  0  0  0  0  0  0
   57.7040   27.2620   46.0830 C   0  0  0  0  0  0  0  0  0  0  0  0
   58.0120   26.9950   47.4320 C   0  0  0  0  0  0  0  0  0  0  0  0
   59.3400   26.8530   47.8440 C   0  0  0  0  0  0  0  0  0  0  0  0
   60.3780   26.9750   46.9200 C   0  0  0  0  0  0  0  0  0  0  0  0
   60.0900   27.2360   45.5790 C   0  0  0  0  0  0  0  0  0  0  0  0
   58.7640   27.3820   45.1560 C   0  0  0  0  0  0  0  0  0  0  0  0
   58.5280   27.6490   43.8470 F   0  0  0  0  0  0  0  0  0  0  0  0
   56.0172   30.1777   42.7113 H   0  0  0  0  0  0  0  0  0  0  0  0
   57.3605   32.2639   42.5040 H   0  0  0  0  0  0  0  0  0  0  0  0
   59.3380   33.5860   43.4320 H   0  0  0  0  0  0  0  0  0  0  0  0
   59.1587   34.4492   48.4668 H   0  0  0  0  0  0  0  0  0  0  0  0
   60.9991   33.8549   50.0375 H   0  0  0  0  0  0  0  0  0  0  0  0
   63.6613   33.2380   46.6754 H   0  0  0  0  0  0  0  0  0  0  0  0
   61.8177   33.8390   45.1079 H   0  0  0  0  0  0  0  0  0  0  0  0
   58.8325   31.7151   46.5397 H   0  0  0  0  0  0  0  0  0  0  0  0
   57.4909   29.6266   46.7417 H   0  0  0  0  0  0  0  0  0  0  0  0
   57.1998   26.8975   48.1674 H   0  0  0  0  0  0  0  0  0  0  0  0
   59.5673   26.6445   48.8999 H   0  0  0  0  0  0  0  0  0  0  0  0
   61.4224   26.8657   47.2476 H   0  0  0  0  0  0  0  0  0  0  0  0
   60.9097   27.3274   44.8511 H   0  0  0  0  0  0  0  0  0  0  0  0
  1  2  2  0
  2  3  1  0
  3  4  1  0
  4  5  2  0
  5  6  1  0
  6  7  2  0
  7  8  1  0
  8  9  1  0
  9 10  2  0
  9 11  2  0
  9 12  1  0
 12 13  2  0
 13 14  1  0
 14 15  2  0
 15 16  1  0
 16 17  2  0
 16 18  1  0
 15 19  1  0
 19 20  2  0
  7 21  1  0
 21 22  2  0
  2 23  1  0
 23 24  2  0
 24 25  1  0
 25 26  2  0
 26 27  1  0
 27 28  2  0
 28 29  1  0
 22  4  1  0
 28 23  1  0
 20 12  1  0
  5 30  1  0
  6 31  1  0
  8 32  1  0
 13 33  1  0
 14 34  1  0
 19 35  1  0
 20 36  1  0
 21 37  1  0
 22 38  1  0
 24 39  1  0
 25 40  1  0
 26 41  1  0
 27 42  1  0
M  CHG  3   3  -1  16   1  18  -1
M  END
>  <UniqueID>  (78) 
74

>  <SMILES>  (78) 
O=C([N-]c1ccc(NS(=O)(=O)c2ccc([N+](=O)[O-])cc2)cc1)c1ccccc1F

>  <Energy>  (78) 
54.436001685454784

>  <Genealogy>  (78) 
O=C([N-]c1ccc(NS(=O)(=O)c2ccc([N+](=O)[O-])cc2)cc1)c1ccccc1F (protonated)
O=C([N-]c1ccc(NS(=O)(=O)c2ccc([N+](=O)[O-])cc2)cc1)c1ccccc1F (3D coordinates assigned)
O=C([N-]c1ccc(NS(=O)(=O)c2ccc([N+](=O)[O-])cc2)cc1)c1ccccc1F (optimized conformer: 54.436001685454784 kcal/mol)

>  <smiles>  (78) 
O=C(Nc1ccc(NS(=O)(=O)c2ccc([N+](=O)[O-])cc2)cc1)c1ccccc1F

>  <score_type>  (78) 
oracle

>  <origin>  (78) 
adg

>  <m_score__min__energy>  (78) 
-11.02

>  <m_primary>  (78) 
energy

$$$$
78:0
     RDKit          3D

 32 34  0  0  0  0  0  0  0  0999 V2000
   58.6624   35.2537   47.3249 H   0  0  0  0  0  0  0  0  0  0  0  0
   58.5330   34.3200   46.7580 C   0  0  0  0  0  0  0  0  0  0  0  0
   57.4800   34.1970   45.8510 C   0  0  0  0  0  0  0  0  0  0  0  0
   56.7844   35.0354   45.6989 H   0  0  0  0  0  0  0  0  0  0  0  0
   57.3090   33.0090   45.1360 C   0  0  0  0  0  0  0  0  0  0  0  0
   56.4813   32.9181   44.4172 H   0  0  0  0  0  0  0  0  0  0  0  0
   58.1870   31.9300   45.3290 C   0  0  0  0  0  0  0  0  0  0  0  0
   58.0050   30.6680   44.5290 C   0  0  0  0  0  0  0  0  0  0  0  0
   57.4647   30.8969   43.5986 H   0  0  0  0  0  0  0  0  0  0  0  0
   58.9886   30.2416   44.2825 H   0  0  0  0  0  0  0  0  0  0  0  0
   57.2370   29.7070   45.3160 N   0  0  0  0  0  0  0  0  0  0  0  0
   57.6770   28.6130   45.8770 C   0  0  0  0  0  0  0  0  0  0  0  0
   56.9100   27.4400   46.0100 C   0  0  0  0  0  0  0  0  0  0  0  0
   55.6480   27.1970   45.6170 N   0  0  0  0  0  0  0  0  0  0  0  0
   55.4620   25.9140   46.0110 C   0  0  0  0  0  0  0  0  0  0  0  0
   54.3800   25.2990   45.8220 O   0  0  0  0  0  0  0  0  0  0  0  0
   56.5250   25.3390   46.6240 N   0  0  0  0  0  0  0  0  0  0  0  0
   57.4270   26.3320   46.6080 C   0  0  0  0  0  0  0  0  0  0  0  0
   58.7210   26.3040   47.1100 C   0  0  0  0  0  0  0  0  0  0  0  0
   59.1309   25.4039   47.5915 H   0  0  0  0  0  0  0  0  0  0  0  0
   59.4830   27.4750   46.9760 C   0  0  0  0  0  0  0  0  0  0  0  0
   60.5142   27.5006   47.3581 H   0  0  0  0  0  0  0  0  0  0  0  0
   58.9540   28.5880   46.3730 N   0  0  0  0  0  0  0  0  0  0  0  0
   59.5540   29.4400   46.2920 H   0  0  0  0  0  0  0  0  0  0  0  0
   59.2640   32.0580   46.2320 C   0  0  0  0  0  0  0  0  0  0  0  0
   60.1500   30.9790   46.3900 O   0  0  0  0  0  0  0  0  0  0  0  0
   61.3730   31.0380   47.1160 C   0  0  0  0  0  0  0  0  0  0  0  0
   61.1597   31.0277   48.1951 H   0  0  0  0  0  0  0  0  0  0  0  0
   61.9955   30.1688   46.8570 H   0  0  0  0  0  0  0  0  0  0  0  0
   61.9089   31.9630   46.8570 H   0  0  0  0  0  0  0  0  0  0  0  0
   59.4230   33.2610   46.9480 C   0  0  0  0  0  0  0  0  0  0  0  0
   60.2537   33.3666   47.6613 H   0  0  0  0  0  0  0  0  0  0  0  0
  1  2  1  0
  2  3  2  0
  3  4  1  0
  3  5  1  0
  5  6  1  0
  5  7  2  0
  7  8  1  0
  8  9  1  0
  8 10  1  0
  8 11  1  0
 11 12  2  0
 12 13  1  0
 13 14  1  0
 14 15  1  0
 15 16  2  0
 15 17  1  0
 17 18  1  0
 18 19  1  0
 19 20  1  0
 19 21  2  0
 21 22  1  0
 21 23  1  0
 23 24  1  0
  7 25  1  0
 25 26  1  0
 26 27  1  0
 27 28  1  0
 27 29  1  0
 27 30  1  0
 25 31  2  0
 31 32  1  0
 31  2  1  0
 23 12  1  0
 18 13  2  0
M  CHG  2  14  -1  17  -1
M  END
>  <UniqueID>  (79) 
75

>  <SMILES>  (79) 
COc1ccccc1C/N=c1/[nH]ccc2[n-]c(=O)[n-]c12

>  <Energy>  (79) 
72.74768875765979

>  <Genealogy>  (79) 
COc1ccccc1CN=c1[nH]ccc2[n-]c(=O)[n-]c12 (protonated)
COc1ccccc1C/N=c1/[nH]ccc2[n-]c(=O)[n-]c12 (cis-trans isomerization)
COc1ccccc1C/N=c1/[nH]ccc2[n-]c(=O)[n-]c12 (3D coordinates assigned)
COc1ccccc1C/N=c1/[nH]ccc2[n-]c(=O)[n-]c12 (optimized conformer: 72.74768875765979 kcal/mol)

>  <smiles>  (79) 
COc1ccccc1CN=c1[nH]ccc2[nH]c(=O)[nH]c12

>  <score_type>  (79) 
oracle

>  <origin>  (79) 
adg

>  <m_score__min__energy>  (79) 
-10.279999999999999

>  <m_primary>  (79) 
energy

$$$$
79:0
     RDKit          3D

 41 42  0  0  0  0  0  0  0  0999 V2000
   56.3080   31.7040   44.5170 N   0  0  0  0  0  0  0  0  0  0  0  0
   56.8030   30.0470   44.5430 S   0  0  0  0  0  0  0  0  0  0  0  0
   55.7520   29.2260   45.2350 O   0  0  0  0  0  0  0  0  0  0  0  0
   56.9620   29.5700   43.1270 O   0  0  0  0  0  0  0  0  0  0  0  0
   58.3380   29.8740   45.4020 C   0  0  0  0  0  0  0  0  0  0  0  0
   59.1710   28.7800   45.1230 C   0  0  0  0  0  0  0  0  0  0  0  0
   60.3730   28.6120   45.8120 C   0  0  0  0  0  0  0  0  0  0  0  0
   60.7490   29.5290   46.7940 C   0  0  0  0  0  0  0  0  0  0  0  0
   59.9380   30.6320   47.0690 C   0  0  0  0  0  0  0  0  0  0  0  0
   58.7380   30.8300   46.3610 C   0  0  0  0  0  0  0  0  0  0  0  0
   57.9170   31.9890   46.5770 N   0  0  0  0  0  0  0  0  0  0  0  0
   58.1150   33.5390   45.8260 S   0  0  0  0  0  0  0  0  0  0  0  0
   58.9550   33.4080   44.5870 O   0  0  0  0  0  0  0  0  0  0  0  0
   56.7620   34.0570   45.4300 O   0  0  0  0  0  0  0  0  0  0  0  0
   58.8740   34.6800   46.9710 C   0  0  0  0  0  0  0  0  0  0  0  0
   60.2340   34.1740   47.3840 C   0  0  0  0  0  0  0  0  0  0  0  0
   61.1740   33.8620   46.3860 C   0  0  0  0  0  0  0  0  0  0  0  0
   62.4580   33.4370   46.7280 C   0  0  0  0  0  0  0  0  0  0  0  0
   62.8220   33.3260   48.0680 C   0  0  0  0  0  0  0  0  0  0  0  0
   61.9030   33.6350   49.0730 C   0  0  0  0  0  0  0  0  0  0  0  0
   60.6010   34.0590   48.7450 C   0  0  0  0  0  0  0  0  0  0  0  0
   59.6420   34.3700   49.7680 N   0  0  0  0  0  0  0  0  0  0  0  0
   59.3080   33.3810   51.1540 S   0  0  0  0  0  0  0  0  0  0  0  0
   58.4510   34.1410   52.1270 O   0  0  0  0  0  0  0  0  0  0  0  0
   60.5990   32.9820   51.8120 O   0  0  0  0  0  0  0  0  0  0  0  0
   58.4530   31.9080   50.6370 C   0  0  0  0  0  0  0  0  0  0  0  0
   58.1240   32.0090   49.3020 F   0  0  0  0  0  0  0  0  0  0  0  0
   57.2970   31.7580   51.3810 F   0  0  0  0  0  0  0  0  0  0  0  0
   59.2680   30.8090   50.8280 F   0  0  0  0  0  0  0  0  0  0  0  0
   56.0710   31.9680   45.4990 H   0  0  0  0  0  0  0  0  0  0  0  0
   57.1450   32.2690   44.2490 H   0  0  0  0  0  0  0  0  0  0  0  0
   58.8746   28.0496   44.3558 H   0  0  0  0  0  0  0  0  0  0  0  0
   61.0243   27.7562   45.5807 H   0  0  0  0  0  0  0  0  0  0  0  0
   61.6855   29.3829   47.3523 H   0  0  0  0  0  0  0  0  0  0  0  0
   60.2393   31.3514   47.8447 H   0  0  0  0  0  0  0  0  0  0  0  0
   58.9828   35.6620   46.4874 H   0  0  0  0  0  0  0  0  0  0  0  0
   58.2376   34.7703   47.8637 H   0  0  0  0  0  0  0  0  0  0  0  0
   60.8945   33.9538   45.3261 H   0  0  0  0  0  0  0  0  0  0  0  0
   63.1834   33.1894   45.9390 H   0  0  0  0  0  0  0  0  0  0  0  0
   63.8361   32.9940   48.3352 H   0  0  0  0  0  0  0  0  0  0  0  0
   62.1985   33.5465   50.1289 H   0  0  0  0  0  0  0  0  0  0  0  0
  1  2  1  0
  2  3  2  0
  2  4  2  0
  2  5  1  0
  5  6  2  0
  6  7  1  0
  7  8  2  0
  8  9  1  0
  9 10  2  0
 10 11  1  0
 11 12  1  0
 12 13  2  0
 12 14  2  0
 12 15  1  0
 15 16  1  0
 16 17  2  0
 17 18  1  0
 18 19  2  0
 19 20  1  0
 20 21  2  0
 21 22  1  0
 22 23  1  0
 23 24  2  0
 23 25  2  0
 23 26  1  0
 26 27  1  0
 26 28  1  0
 26 29  1  0
 10  5  1  0
 21 16  1  0
  1 30  1  0
  1 31  1  0
  6 32  1  0
  7 33  1  0
  8 34  1  0
  9 35  1  0
 15 36  1  0
 15 37  1  0
 17 38  1  0
 18 39  1  0
 19 40  1  0
 20 41  1  0
M  CHG  2  11  -1  22  -1
M  END
>  <UniqueID>  (80) 
76

>  <SMILES>  (80) 
NS(=O)(=O)c1ccccc1[N-]S(=O)(=O)Cc1ccccc1[N-]S(=O)(=O)C(F)(F)F

>  <Energy>  (80) 
36.270235948791054

>  <Genealogy>  (80) 
NS(=O)(=O)c1ccccc1[N-]S(=O)(=O)Cc1ccccc1[N-]S(=O)(=O)C(F)(F)F (protonated)
NS(=O)(=O)c1ccccc1[N-]S(=O)(=O)Cc1ccccc1[N-]S(=O)(=O)C(F)(F)F (3D coordinates assigned)
NS(=O)(=O)c1ccccc1[N-]S(=O)(=O)Cc1ccccc1[N-]S(=O)(=O)C(F)(F)F (optimized conformer: 36.270235948791054 kcal/mol)

>  <smiles>  (80) 
NS(=O)(=O)c1ccccc1NS(=O)(=O)Cc1ccccc1NS(=O)(=O)C(F)(F)F

>  <score_type>  (80) 
oracle

>  <origin>  (80) 
adg

>  <m_score__min__energy>  (80) 
-10.890000000000001

>  <m_primary>  (80) 
energy

$$$$
80:0
     RDKit          3D

 46 48  0  0  0  0  0  0  0  0999 V2000
   59.4440   34.5350   45.9010 C   0  0  0  0  0  0  0  0  0  0  0  0
   58.6850   33.3330   45.4200 C   0  0  0  0  0  0  0  0  0  0  0  0
   58.5070   32.2190   46.2570 C   0  0  0  0  0  0  0  0  0  0  0  0
   57.8210   31.0930   45.7940 C   0  0  0  0  0  0  0  0  0  0  0  0
   57.3180   31.0620   44.4860 C   0  0  0  0  0  0  0  0  0  0  0  0
   56.4460   29.6540   43.8900 S   0  0  0  0  0  0  0  0  0  0  0  0
   55.2600   30.0660   43.0620 O   0  0  0  0  0  0  0  0  0  0  0  0
   57.3680   28.8400   43.0280 O   0  0  0  0  0  0  0  0  0  0  0  0
   55.9140   28.6830   45.2240 N   0  0  0  0  0  0  0  0  0  0  0  0
   56.6710   27.6350   45.8450 C   0  0  0  0  0  0  0  0  0  0  0  0
   58.0500   27.7580   46.0850 C   0  0  0  0  0  0  0  0  0  0  0  0
   58.7510   26.7280   46.7160 C   0  0  0  0  0  0  0  0  0  0  0  0
   58.0840   25.5730   47.1240 C   0  0  0  0  0  0  0  0  0  0  0  0
   56.7050   25.4340   46.9000 C   0  0  0  0  0  0  0  0  0  0  0  0
   55.9860   24.2010   47.3910 C   0  0  0  0  0  0  0  0  0  0  0  0
   56.8490   23.0100   47.3240 N   0  0  0  0  0  0  0  0  0  0  0  0
   56.1870   21.8590   46.6840 C   0  0  0  0  0  0  0  0  0  0  0  0
   56.2640   21.9680   45.1830 C   0  0  0  0  0  0  0  0  0  0  0  0
   55.5900   23.0000   44.5120 C   0  0  0  0  0  0  0  0  0  0  0  0
   55.6120   23.0460   43.1150 C   0  0  0  0  0  0  0  0  0  0  0  0
   56.2940   22.1040   42.4130 N   0  0  0  0  0  0  0  0  0  0  0  0
   56.9710   21.1040   43.0350 C   0  0  0  0  0  0  0  0  0  0  0  0
   56.9760   21.0200   44.4310 C   0  0  0  0  0  0  0  0  0  0  0  0
   56.0060   26.4640   46.2390 C   0  0  0  0  0  0  0  0  0  0  0  0
   54.6430   26.3350   45.9900 O   0  0  0  0  0  0  0  0  0  0  0  0
   57.5110   32.1640   43.6450 C   0  0  0  0  0  0  0  0  0  0  0  0
   58.1920   33.2950   44.1100 C   0  0  0  0  0  0  0  0  0  0  0  0
   59.4520   34.5476   47.0009 H   0  0  0  0  0  0  0  0  0  0  0  0
   60.4776   34.4897   45.5273 H   0  0  0  0  0  0  0  0  0  0  0  0
   58.9588   35.4487   45.5273 H   0  0  0  0  0  0  0  0  0  0  0  0
   58.9091   32.2330   47.2808 H   0  0  0  0  0  0  0  0  0  0  0  0
   57.6753   30.2283   46.4581 H   0  0  0  0  0  0  0  0  0  0  0  0
   58.5802   28.6703   45.7743 H   0  0  0  0  0  0  0  0  0  0  0  0
   59.8323   26.8279   46.8917 H   0  0  0  0  0  0  0  0  0  0  0  0
   58.6412   24.7669   47.6238 H   0  0  0  0  0  0  0  0  0  0  0  0
   55.6763   24.3597   48.4345 H   0  0  0  0  0  0  0  0  0  0  0  0
   55.1124   24.0308   46.7446 H   0  0  0  0  0  0  0  0  0  0  0  0
   57.0680   22.7360   48.3120 H   0  0  0  0  0  0  0  0  0  0  0  0
   56.6845   20.9319   47.0048 H   0  0  0  0  0  0  0  0  0  0  0  0
   55.1288   21.8475   46.9842 H   0  0  0  0  0  0  0  0  0  0  0  0
   55.0474   23.7684   45.0822 H   0  0  0  0  0  0  0  0  0  0  0  0
   55.0762   23.8462   42.5834 H   0  0  0  0  0  0  0  0  0  0  0  0
   57.5170   20.3580   42.4388 H   0  0  0  0  0  0  0  0  0  0  0  0
   57.5335   20.2174   44.9359 H   0  0  0  0  0  0  0  0  0  0  0  0
   57.1261   32.1412   42.6148 H   0  0  0  0  0  0  0  0  0  0  0  0
   58.3405   34.1575   43.4436 H   0  0  0  0  0  0  0  0  0  0  0  0
  1  2  1  0
  2  3  2  0
  3  4  1  0
  4  5  2  0
  5  6  1  0
  6  7  2  0
  6  8  2  0
  6  9  1  0
  9 10  1  0
 10 11  2  0
 11 12  1  0
 12 13  2  0
 13 14  1  0
 14 15  1  0
 15 16  1  0
 16 17  1  0
 17 18  1  0
 18 19  2  0
 19 20  1  0
 20 21  2  0
 21 22  1  0
 22 23  2  0
 14 24  2  0
 24 25  1  0
  5 26  1  0
 26 27  2  0
 27  2  1  0
 24 10  1  0
 23 18  1  0
  1 28  1  0
  1 29  1  0
  1 30  1  0
  3 31  1  0
  4 32  1  0
 11 33  1  0
 12 34  1  0
 13 35  1  0
 15 36  1  0
 15 37  1  0
 16 38  1  0
 17 39  1  0
 17 40  1  0
 19 41  1  0
 20 42  1  0
 22 43  1  0
 23 44  1  0
 26 45  1  0
 27 46  1  0
M  CHG  2   9  -1  25  -1
M  END
>  <UniqueID>  (81) 
77

>  <SMILES>  (81) 
Cc1ccc(S(=O)(=O)[N-]c2cccc(CNCc3ccncc3)c2[O-])cc1

>  <Energy>  (81) 
49.76182414253401

>  <Genealogy>  (81) 
Cc1ccc(S(=O)(=O)[N-]c2cccc(CNCc3ccncc3)c2[O-])cc1 (protonated)
Cc1ccc(S(=O)(=O)[N-]c2cccc(CNCc3ccncc3)c2[O-])cc1 (3D coordinates assigned)
Cc1ccc(S(=O)(=O)[N-]c2cccc(CNCc3ccncc3)c2[O-])cc1 (optimized conformer: 49.76182414253401 kcal/mol)

>  <smiles>  (81) 
Cc1ccc(S(=O)(=O)Nc2cccc(CNCc3ccncc3)c2O)cc1

>  <score_type>  (81) 
oracle

>  <origin>  (81) 
adg

>  <m_score__min__energy>  (81) 
-14.4

>  <m_primary>  (81) 
energy

$$$$
81:0
     RDKit          3D

 43 45  0  0  0  0  0  0  0  0999 V2000
   57.4090   23.7900   45.6930 C   0  0  0  0  0  0  0  0  0  0  0  0
   56.8200   25.1580   45.7440 C   0  0  0  0  0  0  0  0  0  0  0  0
   57.4760   26.3350   45.4570 C   0  0  0  0  0  0  0  0  0  0  0  0
   56.4950   27.2920   45.6600 C   0  0  0  0  0  0  0  0  0  0  0  0
   56.6050   28.5780   45.5030 N   0  0  0  0  0  0  0  0  0  0  0  0
   56.1290   29.3540   44.3910 C   0  0  0  0  0  0  0  0  0  0  0  0
   55.1930   30.1740   44.5780 O   0  0  0  0  0  0  0  0  0  0  0  0
   56.8410   29.3530   43.0650 C   0  0  0  0  0  0  0  0  0  0  0  0
   57.0150   31.0440   42.3910 S   0  0  0  0  0  0  0  0  0  0  0  0
   57.7070   31.7430   43.8900 C   0  0  0  0  0  0  0  0  0  0  0  0
   58.4980   30.9840   44.6920 N   0  0  0  0  0  0  0  0  0  0  0  0
   58.9840   31.4650   45.8670 C   0  0  0  0  0  0  0  0  0  0  0  0
   59.7530   30.5750   46.7600 C   0  0  0  0  0  0  0  0  0  0  0  0
   60.9320   30.8830   47.0860 O   0  0  0  0  0  0  0  0  0  0  0  0
   59.1600   29.3650   47.2610 N   0  0  0  0  0  0  0  0  0  0  0  0
   59.6480   28.6600   48.4180 C   0  0  0  0  0  0  0  0  0  0  0  0
   60.2110   27.3790   48.2730 C   0  0  0  0  0  0  0  0  0  0  0  0
   60.7740   26.7220   49.3650 C   0  0  0  0  0  0  0  0  0  0  0  0
   60.8020   27.3380   50.6120 C   0  0  0  0  0  0  0  0  0  0  0  0
   60.2590   28.6140   50.7850 C   0  0  0  0  0  0  0  0  0  0  0  0
   60.3800   29.3470   52.3820 Cl  0  0  0  0  0  0  0  0  0  0  0  0
   59.6530   29.2810   49.6930 C   0  0  0  0  0  0  0  0  0  0  0  0
   59.0620   30.6600   49.8700 C   0  0  0  0  0  0  0  0  0  0  0  0
   58.6820   32.7810   46.2450 C   0  0  0  0  0  0  0  0  0  0  0  0
   57.8660   33.5450   45.4080 C   0  0  0  0  0  0  0  0  0  0  0  0
   57.5650   34.7250   45.7240 O   0  0  0  0  0  0  0  0  0  0  0  0
   57.3880   33.0110   44.2550 N   0  0  0  0  0  0  0  0  0  0  0  0
   55.3410   26.7030   46.0210 N   0  0  0  0  0  0  0  0  0  0  0  0
   55.5740   25.4230   46.0680 O   0  0  0  0  0  0  0  0  0  0  0  0
   57.5680   23.4208   46.7169 H   0  0  0  0  0  0  0  0  0  0  0  0
   56.7220   23.1145   45.1622 H   0  0  0  0  0  0  0  0  0  0  0  0
   58.3718   23.8249   45.1622 H   0  0  0  0  0  0  0  0  0  0  0  0
   58.5206   26.4793   45.1440 H   0  0  0  0  0  0  0  0  0  0  0  0
   57.8422   28.9173   43.1981 H   0  0  0  0  0  0  0  0  0  0  0  0
   56.2449   28.7602   42.3556 H   0  0  0  0  0  0  0  0  0  0  0  0
   58.2990   29.0030   46.7930 H   0  0  0  0  0  0  0  0  0  0  0  0
   60.2067   26.8910   47.2872 H   0  0  0  0  0  0  0  0  0  0  0  0
   61.1972   25.7143   49.2409 H   0  0  0  0  0  0  0  0  0  0  0  0
   61.2549   26.8168   51.4683 H   0  0  0  0  0  0  0  0  0  0  0  0
   58.9664   30.8830   50.9429 H   0  0  0  0  0  0  0  0  0  0  0  0
   59.7202   31.4043   49.3980 H   0  0  0  0  0  0  0  0  0  0  0  0
   58.0691   30.6967   49.3980 H   0  0  0  0  0  0  0  0  0  0  0  0
   59.0791   33.2024   47.1803 H   0  0  0  0  0  0  0  0  0  0  0  0
  1  2  1  0
  2  3  2  0
  3  4  1  0
  4  5  2  3
  5  6  1  0
  6  7  2  0
  6  8  1  0
  8  9  1  0
  9 10  1  0
 10 11  2  0
 11 12  1  0
 12 13  1  0
 13 14  2  0
 13 15  1  0
 15 16  1  0
 16 17  2  0
 17 18  1  0
 18 19  2  0
 19 20  1  0
 20 21  1  0
 20 22  2  0
 22 23  1  0
 12 24  2  0
 24 25  1  0
 25 26  2  0
 25 27  1  0
  4 28  1  0
 28 29  1  0
 29  2  1  0
 27 10  1  0
 22 16  1  0
  1 30  1  0
  1 31  1  0
  1 32  1  0
  3 33  1  0
  8 34  1  0
  8 35  1  0
 15 36  1  0
 17 37  1  0
 18 38  1  0
 19 39  1  0
 23 40  1  0
 23 41  1  0
 23 42  1  0
 24 43  1  0
M  CHG  2  27  -1  28  -1
M  END
>  <UniqueID>  (82) 
78

>  <SMILES>  (82) 
Cc1cc(=NC(=O)CSc2nc(C(=O)Nc3cccc(Cl)c3C)cc(=O)[n-]2)[n-]o1

>  <Energy>  (82) 
82.63417870824304

>  <Genealogy>  (82) 
Cc1cc(=NC(=O)CSc2nc(C(=O)Nc3cccc(Cl)c3C)cc(=O)[n-]2)[n-]o1 (protonated)
Cc1cc(=NC(=O)CSc2nc(C(=O)Nc3cccc(Cl)c3C)cc(=O)[n-]2)[n-]o1 (3D coordinates assigned)
Cc1cc(=NC(=O)CSc2nc(C(=O)Nc3cccc(Cl)c3C)cc(=O)[n-]2)[n-]o1 (optimized conformer: 82.63417870824304 kcal/mol)

>  <smiles>  (82) 
Cc1cc(=NC(=O)CSc2nc(C(=O)Nc3cccc(Cl)c3C)cc(=O)[nH]2)[nH]o1

>  <score_type>  (82) 
oracle

>  <origin>  (82) 
adg

>  <m_score__min__energy>  (82) 
-11.859999999999999

>  <m_primary>  (82) 
energy

$$$$
82:0
     RDKit          3D

 37 39  0  0  0  0  0  0  0  0999 V2000
   57.8740   27.8860   45.1540 O   0  0  0  0  0  0  0  0  0  0  0  0
   56.6510   28.1160   45.3480 C   0  0  0  0  0  0  0  0  0  0  0  0
   56.1600   29.4490   45.1660 N   0  0  0  0  0  0  0  0  0  0  0  0
   56.7110   30.4390   44.2860 C   0  0  0  0  0  0  0  0  0  0  0  0
   56.5090   30.2990   42.9090 C   0  0  0  0  0  0  0  0  0  0  0  0
   57.0170   31.2490   42.0230 C   0  0  0  0  0  0  0  0  0  0  0  0
   57.7120   32.3470   42.5280 C   0  0  0  0  0  0  0  0  0  0  0  0
   57.8730   32.4930   43.8690 N   0  0  0  0  0  0  0  0  0  0  0  0
   57.3780   31.5870   44.7610 C   0  0  0  0  0  0  0  0  0  0  0  0
   57.5410   31.7890   46.1390 O   0  0  0  0  0  0  0  0  0  0  0  0
   58.4640   32.6700   46.7200 C   0  0  0  0  0  0  0  0  0  0  0  0
   58.3480   34.0400   46.4500 C   0  0  0  0  0  0  0  0  0  0  0  0
   59.2580   34.9480   47.0000 C   0  0  0  0  0  0  0  0  0  0  0  0
   60.2970   34.4910   47.8150 C   0  0  0  0  0  0  0  0  0  0  0  0
   60.4310   33.1240   48.0770 C   0  0  0  0  0  0  0  0  0  0  0  0
   59.5220   32.2140   47.5290 C   0  0  0  0  0  0  0  0  0  0  0  0
   55.7900   27.0760   45.8370 N   0  0  0  0  0  0  0  0  0  0  0  0
   56.1140   25.6770   45.7680 C   0  0  0  0  0  0  0  0  0  0  0  0
   57.4550   25.2790   45.8920 C   0  0  0  0  0  0  0  0  0  0  0  0
   57.7980   23.9240   45.8520 C   0  0  0  0  0  0  0  0  0  0  0  0
   56.8040   22.9540   45.7050 C   0  0  0  0  0  0  0  0  0  0  0  0
   55.4640   23.3370   45.6070 C   0  0  0  0  0  0  0  0  0  0  0  0
   55.1140   24.6920   45.6440 C   0  0  0  0  0  0  0  0  0  0  0  0
   53.8010   25.0290   45.6180 F   0  0  0  0  0  0  0  0  0  0  0  0
   55.9470   29.4358   42.5231 H   0  0  0  0  0  0  0  0  0  0  0  0
   56.8710   31.1333   40.9389 H   0  0  0  0  0  0  0  0  0  0  0  0
   58.1305   33.0961   41.8397 H   0  0  0  0  0  0  0  0  0  0  0  0
   57.5367   34.4031   45.8019 H   0  0  0  0  0  0  0  0  0  0  0  0
   59.1559   36.0231   46.7909 H   0  0  0  0  0  0  0  0  0  0  0  0
   61.0097   35.2068   48.2506 H   0  0  0  0  0  0  0  0  0  0  0  0
   61.2521   32.7644   48.7146 H   0  0  0  0  0  0  0  0  0  0  0  0
   59.6339   31.1384   47.7306 H   0  0  0  0  0  0  0  0  0  0  0  0
   54.9390   27.3580   46.3720 H   0  0  0  0  0  0  0  0  0  0  0  0
   58.2406   26.0380   46.0214 H   0  0  0  0  0  0  0  0  0  0  0  0
   58.8522   23.6216   45.9364 H   0  0  0  0  0  0  0  0  0  0  0  0
   57.0760   21.8889   45.6664 H   0  0  0  0  0  0  0  0  0  0  0  0
   54.6814   22.5714   45.5004 H   0  0  0  0  0  0  0  0  0  0  0  0
  1  2  2  0
  2  3  1  0
  3  4  1  0
  4  5  2  0
  5  6  1  0
  6  7  2  0
  7  8  1  0
  8  9  2  0
  9 10  1  0
 10 11  1  0
 11 12  2  0
 12 13  1  0
 13 14  2  0
 14 15  1  0
 15 16  2  0
  2 17  1  0
 17 18  1  0
 18 19  2  0
 19 20  1  0
 20 21  2  0
 21 22  1  0
 22 23  2  0
 23 24  1  0
  9  4  1  0
 16 11  1  0
 23 18  1  0
  5 25  1  0
  6 26  1  0
  7 27  1  0
 12 28  1  0
 13 29  1  0
 14 30  1  0
 15 31  1  0
 16 32  1  0
 17 33  1  0
 19 34  1  0
 20 35  1  0
 21 36  1  0
 22 37  1  0
M  CHG  1   3  -1
M  END
>  <UniqueID>  (83) 
79

>  <SMILES>  (83) 
O=C([N-]c1cccnc1Oc1ccccc1)Nc1ccccc1F

>  <Energy>  (83) 
53.515423294893495

>  <Genealogy>  (83) 
O=C([N-]c1cccnc1Oc1ccccc1)Nc1ccccc1F (protonated)
O=C([N-]c1cccnc1Oc1ccccc1)Nc1ccccc1F (3D coordinates assigned)
O=C([N-]c1cccnc1Oc1ccccc1)Nc1ccccc1F (optimized conformer: 53.515423294893495 kcal/mol)

>  <smiles>  (83) 
O=C(Nc1ccccc1F)Nc1cccnc1Oc1ccccc1

>  <score_type>  (83) 
oracle

>  <origin>  (83) 
adg

>  <m_score__min__energy>  (83) 
-9.6400000000000006

>  <m_primary>  (83) 
energy

$$$$
83:0
     RDKit          3D

 28 29  0  0  0  0  0  0  0  0999 V2000
   60.4225   35.2093   49.5669 H   0  0  0  0  0  0  0  0  0  0  0  0
   60.6890   34.4480   48.8190 C   0  0  0  0  0  0  0  0  0  0  0  0
   59.7710   34.1230   47.8970 C   0  0  0  0  0  0  0  0  0  0  0  0
   59.7090   34.7430   46.2150 S   0  0  0  0  0  0  0  0  0  0  0  0
   58.3910   33.5460   45.9130 C   0  0  0  0  0  0  0  0  0  0  0  0
   57.5800   33.4220   44.3210 S   0  0  0  0  0  0  0  0  0  0  0  0
   58.1800   31.7310   43.9570 C   0  0  0  0  0  0  0  0  0  0  0  0
   58.4145   31.2268   44.9061 H   0  0  0  0  0  0  0  0  0  0  0  0
   59.0715   31.8200   43.3188 H   0  0  0  0  0  0  0  0  0  0  0  0
   57.1430   30.8980   43.2000 C   0  0  0  0  0  0  0  0  0  0  0  0
   57.6649   30.1628   42.5699 H   0  0  0  0  0  0  0  0  0  0  0  0
   56.5351   31.5771   42.5842 H   0  0  0  0  0  0  0  0  0  0  0  0
   56.2500   30.1870   44.1250 C   0  0  0  0  0  0  0  0  0  0  0  0
   55.5460   29.6280   44.8540 N   0  0  0  0  0  0  0  0  0  0  0  0
   58.0180   32.8130   46.9100 N   0  0  0  0  0  0  0  0  0  0  0  0
   58.7700   33.0850   48.0780 C   0  0  0  0  0  0  0  0  0  0  0  0
   58.5760   32.4690   49.1600 O   0  0  0  0  0  0  0  0  0  0  0  0
   62.0370   33.8460   48.8920 C   0  0  0  0  0  0  0  0  0  0  0  0
   62.6600   33.7080   50.1390 C   0  0  0  0  0  0  0  0  0  0  0  0
   62.1345   34.0220   51.0529 H   0  0  0  0  0  0  0  0  0  0  0  0
   63.9460   33.1730   50.2240 C   0  0  0  0  0  0  0  0  0  0  0  0
   64.4329   33.0489   51.2025 H   0  0  0  0  0  0  0  0  0  0  0  0
   64.6080   32.7970   49.0540 C   0  0  0  0  0  0  0  0  0  0  0  0
   65.6185   32.3661   49.1099 H   0  0  0  0  0  0  0  0  0  0  0  0
   64.0070   32.9620   47.8450 N   0  0  0  0  0  0  0  0  0  0  0  0
   64.5230   32.6930   46.9780 H   0  0  0  0  0  0  0  0  0  0  0  0
   62.7530   33.4810   47.7390 C   0  0  0  0  0  0  0  0  0  0  0  0
   62.2981   33.6153   46.7465 H   0  0  0  0  0  0  0  0  0  0  0  0
  1  2  1  0
  2  3  2  0
  3  4  1  0
  4  5  1  0
  5  6  1  0
  6  7  1  0
  7  8  1  0
  7  9  1  0
  7 10  1  0
 10 11  1  0
 10 12  1  0
 10 13  1  0
 13 14  3  0
  5 15  2  0
 15 16  1  0
 16 17  2  0
  2 18  1  0
 18 19  2  0
 19 20  1  0
 19 21  1  0
 21 22  1  0
 21 23  2  0
 23 24  1  0
 23 25  1  0
 25 26  1  0
 25 27  2  0
 27 28  1  0
 16  3  1  0
 27 18  1  0
M  CHG  1  25   1
M  END
>  <UniqueID>  (84) 
80

>  <SMILES>  (84) 
N#CCCSC1=NC(=O)/C(=C/c2ccc[nH+]c2)S1

>  <Energy>  (84) 
46.677024807501965

>  <Genealogy>  (84) 
N#CCCSC1=NC(=O)C(=Cc2ccc[nH+]c2)S1 (protonated)
N#CCCSC1=NC(=O)/C(=C/c2ccc[nH+]c2)S1 (cis-trans isomerization)
N#CCCSC1=NC(=O)/C(=C/c2ccc[nH+]c2)S1 (3D coordinates assigned)
N#CCCSC1=NC(=O)/C(=C/c2ccc[nH+]c2)S1 (nonaromatic ring conformer: 46.677024807501965 kcal/mol)

>  <smiles>  (84) 
N#CCCSC1=NC(=O)C(=Cc2cccnc2)S1

>  <score_type>  (84) 
oracle

>  <origin>  (84) 
adg

>  <m_score__min__energy>  (84) 
-6.0199999999999996

>  <m_primary>  (84) 
energy

$$$$
84:0
     RDKit          3D

 59 63  0  0  0  0  0  0  0  0999 V2000
   60.1530   21.7780   45.3030 O   0  0  0  0  0  0  0  0  0  0  0  0
   59.4070   22.7930   45.3220 C   0  0  0  0  0  0  0  0  0  0  0  0
   57.9320   22.6480   45.0950 C   0  0  0  0  0  0  0  0  0  0  0  0
   57.3710   23.8770   44.3690 C   0  0  0  0  0  0  0  0  0  0  0  0
   57.8420   25.1700   44.9930 C   0  0  0  0  0  0  0  0  0  0  0  0
   57.0480   26.3210   44.9180 C   0  0  0  0  0  0  0  0  0  0  0  0
   57.5140   27.5430   45.4290 C   0  0  0  0  0  0  0  0  0  0  0  0
   56.7050   28.6850   45.3970 O   0  0  0  0  0  0  0  0  0  0  0  0
   57.1100   29.9210   44.8700 C   0  0  0  0  0  0  0  0  0  0  0  0
   56.9760   30.1460   43.4980 C   0  0  0  0  0  0  0  0  0  0  0  0
   57.3780   31.3610   42.9390 C   0  0  0  0  0  0  0  0  0  0  0  0
   57.2400   31.5720   41.6070 F   0  0  0  0  0  0  0  0  0  0  0  0
   57.9310   32.3590   43.7480 C   0  0  0  0  0  0  0  0  0  0  0  0
   58.0930   32.1450   45.1270 C   0  0  0  0  0  0  0  0  0  0  0  0
   58.6800   33.1660   45.9620 N   0  0  0  0  0  0  0  0  0  0  0  0
   59.2540   34.3610   45.3300 C   0  0  0  0  0  0  0  0  0  0  0  0
   59.7140   35.3670   46.3800 C   0  0  0  0  0  0  0  0  0  0  0  0
   60.4810   34.6580   47.4030 N   0  0  0  0  0  0  0  0  0  0  0  0
   59.6260   33.7700   48.2090 C   0  0  0  0  0  0  0  0  0  0  0  0
   58.4590   33.1330   47.4170 C   0  0  0  0  0  0  0  0  0  0  0  0
   57.6830   30.9200   45.6800 C   0  0  0  0  0  0  0  0  0  0  0  0
   58.7980   27.6240   45.9810 C   0  0  0  0  0  0  0  0  0  0  0  0
   59.2490   28.8690   46.5190 N   0  0  0  0  0  0  0  0  0  0  0  0
   59.7180   29.0450   48.1750 S   0  0  0  0  0  0  0  0  0  0  0  0
   58.5320   29.4100   49.0200 O   0  0  0  0  0  0  0  0  0  0  0  0
   60.2780   27.7420   48.6720 O   0  0  0  0  0  0  0  0  0  0  0  0
   60.9630   30.2850   48.2740 C   0  0  0  0  0  0  0  0  0  0  0  0
   61.4230   30.7290   49.5220 C   0  0  0  0  0  0  0  0  0  0  0  0
   62.3660   31.7610   49.5990 C   0  0  0  0  0  0  0  0  0  0  0  0
   62.8500   32.3520   48.4300 C   0  0  0  0  0  0  0  0  0  0  0  0
   62.3930   31.9140   47.1820 C   0  0  0  0  0  0  0  0  0  0  0  0
   61.4470   30.8870   47.1040 C   0  0  0  0  0  0  0  0  0  0  0  0
   59.6030   26.4760   46.0430 C   0  0  0  0  0  0  0  0  0  0  0  0
   59.1310   25.2500   45.5550 C   0  0  0  0  0  0  0  0  0  0  0  0
   59.9560   24.0790   45.6270 N   0  0  0  0  0  0  0  0  0  0  0  0
   57.7472   21.7522   44.4839 H   0  0  0  0  0  0  0  0  0  0  0  0
   57.4319   22.5550   46.0703 H   0  0  0  0  0  0  0  0  0  0  0  0
   57.6992   23.8495   43.3195 H   0  0  0  0  0  0  0  0  0  0  0  0
   56.2741   23.8440   44.4452 H   0  0  0  0  0  0  0  0  0  0  0  0
   56.0515   26.2674   44.4552 H   0  0  0  0  0  0  0  0  0  0  0  0
   56.5514   29.3617   42.8541 H   0  0  0  0  0  0  0  0  0  0  0  0
   58.2405   33.3159   43.3024 H   0  0  0  0  0  0  0  0  0  0  0  0
   60.1160   34.0637   44.7147 H   0  0  0  0  0  0  0  0  0  0  0  0
   58.4805   34.8337   44.7069 H   0  0  0  0  0  0  0  0  0  0  0  0
   60.3466   36.1327   45.9072 H   0  0  0  0  0  0  0  0  0  0  0  0
   58.8419   35.8571   46.8374 H   0  0  0  0  0  0  0  0  0  0  0  0
   60.9100   35.3700   48.0410 H   0  0  0  0  0  0  0  0  0  0  0  0
   60.2517   32.9610   48.6140 H   0  0  0  0  0  0  0  0  0  0  0  0
   59.1750   34.3908   48.9972 H   0  0  0  0  0  0  0  0  0  0  0  0
   58.3487   32.0852   47.7332 H   0  0  0  0  0  0  0  0  0  0  0  0
   57.5521   33.7179   47.6304 H   0  0  0  0  0  0  0  0  0  0  0  0
   57.8111   30.7396   46.7575 H   0  0  0  0  0  0  0  0  0  0  0  0
   61.0417   30.2650   50.4436 H   0  0  0  0  0  0  0  0  0  0  0  0
   62.7254   32.1061   50.5797 H   0  0  0  0  0  0  0  0  0  0  0  0
   63.5912   33.1626   48.4903 H   0  0  0  0  0  0  0  0  0  0  0  0
   62.7781   32.3777   46.2619 H   0  0  0  0  0  0  0  0  0  0  0  0
   61.0818   30.5507   46.1224 H   0  0  0  0  0  0  0  0  0  0  0  0
   60.6115   26.5390   46.4777 H   0  0  0  0  0  0  0  0  0  0  0  0
   60.9560   24.1560   45.9180 H   0  0  0  0  0  0  0  0  0  0  0  0
  1  2  2  0
  2  3  1  0
  3  4  1  0
  4  5  1  0
  5  6  2  0
  6  7  1  0
  7  8  1  0
  8  9  1  0
  9 10  2  0
 10 11  1  0
 11 12  1  0
 11 13  2  0
 13 14  1  0
 14 15  1  0
 15 16  1  0
 16 17  1  0
 17 18  1  0
 18 19  1  0
 19 20  1  0
 14 21  2  0
  7 22  2  0
 22 23  1  0
 23 24  1  0
 24 25  2  0
 24 26  2  0
 24 27  1  0
 27 28  2  0
 28 29  1  0
 29 30  2  0
 30 31  1  0
 31 32  2  0
 22 33  1  0
 33 34  2  0
 34 35  1  0
 35  2  1  0
 34  5  1  0
 21  9  1  0
 32 27  1  0
 20 15  1  0
  3 36  1  0
  3 37  1  0
  4 38  1  0
  4 39  1  0
  6 40  1  0
 10 41  1  0
 13 42  1  0
 16 43  1  0
 16 44  1  0
 17 45  1  0
 17 46  1  0
 18 47  1  0
 19 48  1  0
 19 49  1  0
 20 50  1  0
 20 51  1  0
 21 52  1  0
 28 53  1  0
 29 54  1  0
 30 55  1  0
 31 56  1  0
 32 57  1  0
 33 58  1  0
 35 59  1  0
M  CHG  1  23  -1
M  END
>  <UniqueID>  (85) 
81

>  <SMILES>  (85) 
O=C1CCc2cc(Oc3cc(F)cc(N4CCNCC4)c3)c([N-]S(=O)(=O)c3ccccc3)cc2N1

>  <Energy>  (85) 
81.1711830963333

>  <Genealogy>  (85) 
O=C1CCc2cc(Oc3cc(F)cc(N4CCNCC4)c3)c([N-]S(=O)(=O)c3ccccc3)cc2N1 (protonated)
O=C1CCc2cc(Oc3cc(F)cc(N4CCNCC4)c3)c([N-]S(=O)(=O)c3ccccc3)cc2N1 (3D coordinates assigned)
O=C1CCc2cc(Oc3cc(F)cc(N4CCNCC4)c3)c([N-]S(=O)(=O)c3ccccc3)cc2N1 (nonaromatic ring conformer: 81.1711830963333 kcal/mol)

>  <smiles>  (85) 
O=C1CCc2cc(Oc3cc(F)cc(N4CCNCC4)c3)c(NS(=O)(=O)c3ccccc3)cc2N1

>  <score_type>  (85) 
oracle

>  <origin>  (85) 
adg

>  <m_score__min__energy>  (85) 
-11.119999999999999

>  <m_primary>  (85) 
energy

$$$$
85:0
     RDKit          3D

102108  0  0  0  0  0  0  0  0999 V2000
   63.4870   32.5540   53.1850 C   0  0  0  0  0  0  0  0  0  0  0  0
   64.1930   33.0010   52.0270 O   0  0  0  0  0  0  0  0  0  0  0  0
   63.6930   33.0040   50.7110 C   0  0  0  0  0  0  0  0  0  0  0  0
   62.3490   33.3380   50.4520 C   0  0  0  0  0  0  0  0  0  0  0  0
   61.8700   33.4310   49.1330 C   0  0  0  0  0  0  0  0  0  0  0  0
   60.5530   33.8650   48.8520 C   0  0  0  0  0  0  0  0  0  0  0  0
   59.7070   34.2310   49.9150 O   0  0  0  0  0  0  0  0  0  0  0  0
   59.1140   33.3680   50.8450 C   0  0  0  0  0  0  0  0  0  0  0  0
   58.3010   32.3320   50.3660 C   0  0  0  0  0  0  0  0  0  0  0  0
   57.7200   31.4260   51.2520 C   0  0  0  0  0  0  0  0  0  0  0  0
   57.9250   31.5570   52.6280 C   0  0  0  0  0  0  0  0  0  0  0  0
   57.3780   30.5570   53.4880 N   0  0  0  0  0  0  0  0  0  0  0  0
   57.1300   29.1920   53.1180 C   0  0  0  0  0  0  0  0  0  0  0  0
   56.2650   28.9680   52.2350 O   0  0  0  0  0  0  0  0  0  0  0  0
   57.7570   28.0700   53.8770 C   0  0  0  0  0  0  0  0  0  0  0  0
   56.9710   26.9410   54.1940 C   0  0  0  0  0  0  0  0  0  0  0  0
   57.5170   25.8400   54.8640 C   0  0  0  0  0  0  0  0  0  0  0  0
   58.8630   25.8430   55.2270 C   0  0  0  0  0  0  0  0  0  0  0  0
   59.6630   26.9540   54.9390 C   0  0  0  0  0  0  0  0  0  0  0  0
   59.1320   28.0700   54.2720 C   0  0  0  0  0  0  0  0  0  0  0  0
   60.2080   29.5020   54.0410 S   0  0  0  0  0  0  0  0  0  0  0  0
   60.5800   29.2460   52.2940 C   0  0  0  0  0  0  0  0  0  0  0  0
   60.3880   28.0120   51.6520 C   0  0  0  0  0  0  0  0  0  0  0  0
   60.5090   27.9070   50.2640 C   0  0  0  0  0  0  0  0  0  0  0  0
   60.7510   29.0510   49.4830 C   0  0  0  0  0  0  0  0  0  0  0  0
   60.7440   29.0080   48.0400 N   0  0  0  0  0  0  0  0  0  0  0  0
   59.5900   28.6730   47.2400 C   0  0  0  0  0  0  0  0  0  0  0  0
   58.4720   28.4150   47.7790 O   0  0  0  0  0  0  0  0  0  0  0  0
   59.6710   28.7450   45.7400 C   0  0  0  0  0  0  0  0  0  0  0  0
   58.4520   29.4180   45.1580 C   0  0  0  0  0  0  0  0  0  0  0  0
   58.4600   30.8130   44.9610 C   0  0  0  0  0  0  0  0  0  0  0  0
   57.3130   31.4660   44.4960 C   0  0  0  0  0  0  0  0  0  0  0  0
   56.1560   30.7380   44.2150 C   0  0  0  0  0  0  0  0  0  0  0  0
   56.1310   29.3550   44.4150 C   0  0  0  0  0  0  0  0  0  0  0  0
   57.2790   28.6830   44.8750 C   0  0  0  0  0  0  0  0  0  0  0  0
   57.2700   27.2610   45.1050 N   0  0  0  0  0  0  0  0  0  0  0  0
   56.4350   26.5610   46.0400 C   0  0  0  0  0  0  0  0  0  0  0  0
   57.0580   25.5920   46.9870 C   0  0  0  0  0  0  0  0  0  0  0  0
   55.1830   26.6660   45.9950 O   0  0  0  0  0  0  0  0  0  0  0  0
   61.0220   30.2700   50.1310 C   0  0  0  0  0  0  0  0  0  0  0  0
   60.9450   30.3670   51.5250 C   0  0  0  0  0  0  0  0  0  0  0  0
   58.7110   32.6200   53.1200 C   0  0  0  0  0  0  0  0  0  0  0  0
   59.2830   33.5340   52.2330 C   0  0  0  0  0  0  0  0  0  0  0  0
   60.0030   34.5800   52.7140 F   0  0  0  0  0  0  0  0  0  0  0  0
   60.1510   33.9670   47.5050 C   0  0  0  0  0  0  0  0  0  0  0  0
   61.0460   33.6400   46.4870 C   0  0  0  0  0  0  0  0  0  0  0  0
   62.3090   33.2360   46.7850 N   0  0  0  0  0  0  0  0  0  0  0  0
   62.7380   33.1280   48.0630 C   0  0  0  0  0  0  0  0  0  0  0  0
   64.0660   32.7810   48.3190 C   0  0  0  0  0  0  0  0  0  0  0  0
   64.5610   32.7190   49.6250 C   0  0  0  0  0  0  0  0  0  0  0  0
   65.9390   32.4920   49.7650 O   0  0  0  0  0  0  0  0  0  0  0  0
   66.6370   32.1410   50.9630 C   0  0  0  0  0  0  0  0  0  0  0  0
   66.3400   30.6710   51.3060 C   0  0  0  0  0  0  0  0  0  0  0  0
   67.3950   29.6900   50.7470 C   0  0  0  0  0  0  0  0  0  0  0  0
   67.5210   28.4540   51.5610 N   0  0  0  0  0  0  0  0  0  0  0  0
   66.4510   27.4650   51.2810 C   0  0  0  0  0  0  0  0  0  0  0  0
   66.8560   26.4330   50.2030 C   0  0  0  0  0  0  0  0  0  0  0  0
   67.8720   26.9450   49.3690 O   0  0  0  0  0  0  0  0  0  0  0  0
   69.0690   27.1050   50.1090 C   0  0  0  0  0  0  0  0  0  0  0  0
   68.8550   27.8250   51.4640 C   0  0  0  0  0  0  0  0  0  0  0  0
   64.0163   32.8891   54.0892 H   0  0  0  0  0  0  0  0  0  0  0  0
   62.4700   32.9731   53.1789 H   0  0  0  0  0  0  0  0  0  0  0  0
   63.4309   31.4554   53.1789 H   0  0  0  0  0  0  0  0  0  0  0  0
   61.6654   33.5285   51.2925 H   0  0  0  0  0  0  0  0  0  0  0  0
   58.1204   32.2332   49.2854 H   0  0  0  0  0  0  0  0  0  0  0  0
   57.0978   30.6049   50.8664 H   0  0  0  0  0  0  0  0  0  0  0  0
   55.9087   26.9262   53.9089 H   0  0  0  0  0  0  0  0  0  0  0  0
   56.8843   24.9728   55.1040 H   0  0  0  0  0  0  0  0  0  0  0  0
   59.2961   24.9716   55.7400 H   0  0  0  0  0  0  0  0  0  0  0  0
   60.7214   26.9534   55.2388 H   0  0  0  0  0  0  0  0  0  0  0  0
   60.1402   27.1205   52.2468 H   0  0  0  0  0  0  0  0  0  0  0  0
   60.4144   26.9240   49.7795 H   0  0  0  0  0  0  0  0  0  0  0  0
   61.5670   29.4180   47.5360 H   0  0  0  0  0  0  0  0  0  0  0  0
   60.5664   29.3175   45.4563 H   0  0  0  0  0  0  0  0  0  0  0  0
   59.7241   27.7197   45.3450 H   0  0  0  0  0  0  0  0  0  0  0  0
   59.3714   31.3911   45.1735 H   0  0  0  0  0  0  0  0  0  0  0  0
   57.3234   32.5564   44.3515 H   0  0  0  0  0  0  0  0  0  0  0  0
   55.2617   31.2538   43.8353 H   0  0  0  0  0  0  0  0  0  0  0  0
   55.2099   28.7891   44.2120 H   0  0  0  0  0  0  0  0  0  0  0  0
   56.8550   25.9077   48.0210 H   0  0  0  0  0  0  0  0  0  0  0  0
   56.6338   24.5910   46.8193 H   0  0  0  0  0  0  0  0  0  0  0  0
   58.1447   25.5625   46.8193 H   0  0  0  0  0  0  0  0  0  0  0  0
   61.2967   31.1542   49.5371 H   0  0  0  0  0  0  0  0  0  0  0  0
   61.1705   31.3224   52.0213 H   0  0  0  0  0  0  0  0  0  0  0  0
   58.8733   32.7288   54.2025 H   0  0  0  0  0  0  0  0  0  0  0  0
   59.1335   34.3038   47.2574 H   0  0  0  0  0  0  0  0  0  0  0  0
   60.7279   33.7094   45.4363 H   0  0  0  0  0  0  0  0  0  0  0  0
   64.7356   32.5520   47.4769 H   0  0  0  0  0  0  0  0  0  0  0  0
   67.7185   32.2726   50.8113 H   0  0  0  0  0  0  0  0  0  0  0  0
   66.3057   32.7884   51.7883 H   0  0  0  0  0  0  0  0  0  0  0  0
   66.3108   30.5665   52.4006 H   0  0  0  0  0  0  0  0  0  0  0  0
   65.3768   30.4150   50.8405 H   0  0  0  0  0  0  0  0  0  0  0  0
   67.1058   29.4088   49.7236 H   0  0  0  0  0  0  0  0  0  0  0  0
   68.3682   30.2022   50.7702 H   0  0  0  0  0  0  0  0  0  0  0  0
   66.2169   26.9275   52.2117 H   0  0  0  0  0  0  0  0  0  0  0  0
   65.5803   28.0183   50.8992 H   0  0  0  0  0  0  0  0  0  0  0  0
   67.2221   25.5212   50.6975 H   0  0  0  0  0  0  0  0  0  0  0  0
   65.9747   26.2086   49.5842 H   0  0  0  0  0  0  0  0  0  0  0  0
   69.4950   26.1099   50.3049 H   0  0  0  0  0  0  0  0  0  0  0  0
   69.7445   27.7316   49.5081 H   0  0  0  0  0  0  0  0  0  0  0  0
   68.9592   27.0897   52.2755 H   0  0  0  0  0  0  0  0  0  0  0  0
   69.6091   28.6218   51.5442 H   0  0  0  0  0  0  0  0  0  0  0  0
  1  2  1  0
  2  3  1  0
  3  4  2  0
  4  5  1  0
  5  6  2  0
  6  7  1  0
  7  8  1  0
  8  9  2  0
  9 10  1  0
 10 11  2  0
 11 12  1  0
 12 13  1  0
 13 14  2  0
 13 15  1  0
 15 16  2  0
 16 17  1  0
 17 18  2  0
 18 19  1  0
 19 20  2  0
 20 21  1  0
 21 22  1  0
 22 23  2  0
 23 24  1  0
 24 25  2  0
 25 26  1  0
 26 27  1  0
 27 28  2  0
 27 29  1  0
 29 30  1  0
 30 31  2  0
 31 32  1  0
 32 33  2  0
 33 34  1  0
 34 35  2  0
 35 36  1  0
 36 37  1  0
 37 38  1  0
 37 39  2  0
 25 40  1  0
 40 41  2  0
 11 42  1  0
 42 43  2  0
 43 44  1  0
  6 45  1  0
 45 46  2  0
 46 47  1  0
 47 48  2  0
 48 49  1  0
 49 50  2  0
 50 51  1  0
 51 52  1  0
 52 53  1  0
 53 54  1  0
 54 55  1  0
 55 56  1  0
 56 57  1  0
 57 58  1  0
 58 59  1  0
 59 60  1  0
 50  3  1  0
 60 55  1  0
 48  5  1  0
 43  8  1  0
 20 15  1  0
 41 22  1  0
 35 30  1  0
  1 61  1  0
  1 62  1  0
  1 63  1  0
  4 64  1  0
  9 65  1  0
 10 66  1  0
 16 67  1  0
 17 68  1  0
 18 69  1  0
 19 70  1  0
 23 71  1  0
 24 72  1  0
 26 73  1  0
 29 74  1  0
 29 75  1  0
 31 76  1  0
 32 77  1  0
 33 78  1  0
 34 79  1  0
 38 80  1  0
 38 81  1  0
 38 82  1  0
 40 83  1  0
 41 84  1  0
 42 85  1  0
 45 86  1  0
 46 87  1  0
 49 88  1  0
 52 89  1  0
 52 90  1  0
 53 91  1  0
 53 92  1  0
 54 93  1  0
 54 94  1  0
 56 95  1  0
 56 96  1  0
 57 97  1  0
 57 98  1  0
 59 99  1  0
 59100  1  0
 60101  1  0
 60102  1  0
M  CHG  2  12  -1  36  -1
M  END
>  <UniqueID>  (86) 
82

>  <SMILES>  (86) 
COc1cc2c(Oc3ccc([N-]C(=O)c4ccccc4Sc4ccc(NC(=O)Cc5ccccc5[N-]C(C)=O)cc4)cc3F)ccnc2cc1OCCCN1CCOCC1

>  <Energy>  (86) 
163.1677113546553

>  <Genealogy>  (86) 
COc1cc2c(Oc3ccc([N-]C(=O)c4ccccc4Sc4ccc(NC(=O)Cc5ccccc5[N-]C(C)=O)cc4)cc3F)ccnc2cc1OCCCN1CCOCC1 (protonated)
COc1cc2c(Oc3ccc([N-]C(=O)c4ccccc4Sc4ccc(NC(=O)Cc5ccccc5[N-]C(C)=O)cc4)cc3F)ccnc2cc1OCCCN1CCOCC1 (3D coordinates assigned)
COc1cc2c(Oc3ccc([N-]C(=O)c4ccccc4Sc4ccc(NC(=O)Cc5ccccc5[N-]C(C)=O)cc4)cc3F)ccnc2cc1OCCCN1CCOCC1 (nonaromatic ring conformer: 163.1677113546553 kcal/mol)

>  <smiles>  (86) 
COc1cc2c(Oc3ccc(NC(=O)c4ccccc4Sc4ccc(NC(=O)Cc5ccccc5NC(C)=O)cc4)cc3F)ccnc2cc1OCCCN1CCOCC1

>  <score_type>  (86) 
oracle

>  <origin>  (86) 
adg

>  <m_score__min__energy>  (86) 
-12.779999999999999

>  <m_primary>  (86) 
energy

$$$$
86:0
     RDKit          3D

 44 46  0  0  0  0  0  0  0  0999 V2000
   56.7090   29.3890   43.3250 C   0  0  0  0  0  0  0  0  0  0  0  0
   57.9250   29.2800   44.2080 C   0  0  0  0  0  0  0  0  0  0  0  0
   58.7100   28.1150   44.1490 C   0  0  0  0  0  0  0  0  0  0  0  0
   59.8410   27.9800   44.9560 C   0  0  0  0  0  0  0  0  0  0  0  0
   60.2050   29.0050   45.8280 C   0  0  0  0  0  0  0  0  0  0  0  0
   59.4400   30.1700   45.8970 C   0  0  0  0  0  0  0  0  0  0  0  0
   58.3010   30.3270   45.0880 C   0  0  0  0  0  0  0  0  0  0  0  0
   57.5530   31.6000   45.1520 C   0  0  0  0  0  0  0  0  0  0  0  0
   56.3320   31.6190   44.8410 O   0  0  0  0  0  0  0  0  0  0  0  0
   58.2200   32.8700   45.4980 C   0  0  0  0  0  0  0  0  0  0  0  0
   58.6630   33.7910   44.5680 C   0  0  0  0  0  0  0  0  0  0  0  0
   59.2020   34.8410   45.2820 C   0  0  0  0  0  0  0  0  0  0  0  0
   59.0520   34.5310   46.6180 C   0  0  0  0  0  0  0  0  0  0  0  0
   58.4490   33.3320   46.7510 N   0  0  0  0  0  0  0  0  0  0  0  0
   58.0570   32.7310   48.0290 C   0  0  0  0  0  0  0  0  0  0  0  0
   59.2050   32.7440   48.9870 C   0  0  0  0  0  0  0  0  0  0  0  0
   59.6860   33.8420   49.3800 O   0  0  0  0  0  0  0  0  0  0  0  0
   59.7700   31.5070   49.4300 N   0  0  0  0  0  0  0  0  0  0  0  0
   60.9210   30.8730   48.7970 C   0  0  0  0  0  0  0  0  0  0  0  0
   61.9030   31.9120   48.3230 C   0  0  0  0  0  0  0  0  0  0  0  0
   61.6980   32.5800   47.1040 C   0  0  0  0  0  0  0  0  0  0  0  0
   62.6320   33.5170   46.6500 C   0  0  0  0  0  0  0  0  0  0  0  0
   63.7710   33.7970   47.4100 C   0  0  0  0  0  0  0  0  0  0  0  0
   63.9840   33.1340   48.6200 C   0  0  0  0  0  0  0  0  0  0  0  0
   63.0580   32.1890   49.0740 C   0  0  0  0  0  0  0  0  0  0  0  0
   55.8077   29.4698   43.9505 H   0  0  0  0  0  0  0  0  0  0  0  0
   56.7959   30.2830   42.6899 H   0  0  0  0  0  0  0  0  0  0  0  0
   56.6356   28.4938   42.6899 H   0  0  0  0  0  0  0  0  0  0  0  0
   58.4306   27.3033   43.4612 H   0  0  0  0  0  0  0  0  0  0  0  0
   60.4463   27.0630   44.9038 H   0  0  0  0  0  0  0  0  0  0  0  0
   61.0967   28.8952   46.4627 H   0  0  0  0  0  0  0  0  0  0  0  0
   59.7308   30.9727   46.5906 H   0  0  0  0  0  0  0  0  0  0  0  0
   58.5985   33.7040   43.4733 H   0  0  0  0  0  0  0  0  0  0  0  0
   59.6623   35.7496   44.8666 H   0  0  0  0  0  0  0  0  0  0  0  0
   59.3769   35.1689   47.4531 H   0  0  0  0  0  0  0  0  0  0  0  0
   57.2214   33.3039   48.4574 H   0  0  0  0  0  0  0  0  0  0  0  0
   57.7514   31.6890   47.8536 H   0  0  0  0  0  0  0  0  0  0  0  0
   61.4159   30.2128   49.5245 H   0  0  0  0  0  0  0  0  0  0  0  0
   60.5739   30.2910   47.9305 H   0  0  0  0  0  0  0  0  0  0  0  0
   60.8006   32.3655   46.5051 H   0  0  0  0  0  0  0  0  0  0  0  0
   62.4698   34.0345   45.6930 H   0  0  0  0  0  0  0  0  0  0  0  0
   64.5000   34.5401   47.0546 H   0  0  0  0  0  0  0  0  0  0  0  0
   64.8811   33.3550   49.2170 H   0  0  0  0  0  0  0  0  0  0  0  0
   63.2346   31.6607   50.0225 H   0  0  0  0  0  0  0  0  0  0  0  0
  1  2  1  0
  2  3  2  0
  3  4  1  0
  4  5  2  0
  5  6  1  0
  6  7  2  0
  7  8  1  0
  8  9  2  0
  8 10  1  0
 10 11  2  0
 11 12  1  0
 12 13  2  0
 13 14  1  0
 14 15  1  0
 15 16  1  0
 16 17  2  0
 16 18  1  0
 18 19  1  0
 19 20  1  0
 20 21  2  0
 21 22  1  0
 22 23  2  0
 23 24  1  0
 24 25  2  0
  7  2  1  0
 14 10  1  0
 25 20  1  0
  1 26  1  0
  1 27  1  0
  1 28  1  0
  3 29  1  0
  4 30  1  0
  5 31  1  0
  6 32  1  0
 11 33  1  0
 12 34  1  0
 13 35  1  0
 15 36  1  0
 15 37  1  0
 19 38  1  0
 19 39  1  0
 21 40  1  0
 22 41  1  0
 23 42  1  0
 24 43  1  0
 25 44  1  0
M  CHG  1  18  -1
M  END
>  <UniqueID>  (87) 
83

>  <SMILES>  (87) 
Cc1ccccc1C(=O)c1cccn1CC(=O)[N-]Cc1ccccc1

>  <Energy>  (87) 
73.14797256817667

>  <Genealogy>  (87) 
Cc1ccccc1C(=O)c1cccn1CC(=O)[N-]Cc1ccccc1 (protonated)
Cc1ccccc1C(=O)c1cccn1CC(=O)[N-]Cc1ccccc1 (3D coordinates assigned)
Cc1ccccc1C(=O)c1cccn1CC(=O)[N-]Cc1ccccc1 (optimized conformer: 73.14797256817667 kcal/mol)

>  <smiles>  (87) 
Cc1ccccc1C(=O)c1cccn1CC(=O)NCc1ccccc1

>  <score_type>  (87) 
oracle

>  <origin>  (87) 
adg

>  <m_score__min__energy>  (87) 
-10.880000000000001

>  <m_primary>  (87) 
energy

$$$$
87:0
     RDKit          3D

 36 37  0  0  0  0  0  0  0  0999 V2000
   55.7120   29.7390   43.7060 C   0  0  0  0  0  0  0  0  0  0  0  0
   56.9510   29.4370   44.4450 N   0  0  0  0  0  0  0  0  0  0  0  0
   58.0810   30.1840   44.2140 C   0  0  0  0  0  0  0  0  0  0  0  0
   58.0770   31.2420   43.2340 N   0  0  0  0  0  0  0  0  0  0  0  0
   57.9190   32.6590   43.5750 C   0  0  0  0  0  0  0  0  0  0  0  0
   57.1780   32.8430   44.9090 C   0  0  0  0  0  0  0  0  0  0  0  0
   58.1040   33.2360   46.0320 C   0  0  0  0  0  0  0  0  0  0  0  0
   58.9810   34.3240   45.8840 C   0  0  0  0  0  0  0  0  0  0  0  0
   59.9060   34.6270   46.8890 C   0  0  0  0  0  0  0  0  0  0  0  0
   59.9540   33.8540   48.0530 C   0  0  0  0  0  0  0  0  0  0  0  0
   61.1330   34.2170   49.2980 Cl  0  0  0  0  0  0  0  0  0  0  0  0
   59.0660   32.7870   48.2190 C   0  0  0  0  0  0  0  0  0  0  0  0
   58.1430   32.4790   47.2150 C   0  0  0  0  0  0  0  0  0  0  0  0
   59.2490   29.9050   44.9260 C   0  0  0  0  0  0  0  0  0  0  0  0
   59.2630   28.8520   45.8300 C   0  0  0  0  0  0  0  0  0  0  0  0
   60.3250   28.6070   46.4640 O   0  0  0  0  0  0  0  0  0  0  0  0
   58.1390   28.0970   46.0250 N   0  0  0  0  0  0  0  0  0  0  0  0
   58.1560   26.9920   46.9980 C   0  0  0  0  0  0  0  0  0  0  0  0
   56.9760   28.4190   45.3700 C   0  0  0  0  0  0  0  0  0  0  0  0
   55.9200   27.7710   45.6200 O   0  0  0  0  0  0  0  0  0  0  0  0
   54.8986   29.9373   44.4195 H   0  0  0  0  0  0  0  0  0  0  0  0
   55.8691   30.6252   43.0735 H   0  0  0  0  0  0  0  0  0  0  0  0
   55.4437   28.8800   43.0735 H   0  0  0  0  0  0  0  0  0  0  0  0
   58.2480   31.0020   42.2320 H   0  0  0  0  0  0  0  0  0  0  0  0
   58.9146   33.1200   43.6536 H   0  0  0  0  0  0  0  0  0  0  0  0
   57.3244   33.1382   42.7833 H   0  0  0  0  0  0  0  0  0  0  0  0
   56.4188   33.6294   44.7857 H   0  0  0  0  0  0  0  0  0  0  0  0
   56.7203   31.8785   45.1740 H   0  0  0  0  0  0  0  0  0  0  0  0
   58.9400   34.9403   44.9738 H   0  0  0  0  0  0  0  0  0  0  0  0
   60.5962   35.4742   46.7632 H   0  0  0  0  0  0  0  0  0  0  0  0
   59.0936   32.1885   49.1415 H   0  0  0  0  0  0  0  0  0  0  0  0
   57.4444   31.6404   47.3519 H   0  0  0  0  0  0  0  0  0  0  0  0
   60.1512   30.5150   44.7717 H   0  0  0  0  0  0  0  0  0  0  0  0
   58.1497   27.4021   48.0187 H   0  0  0  0  0  0  0  0  0  0  0  0
   57.2675   26.3604   46.8511 H   0  0  0  0  0  0  0  0  0  0  0  0
   59.0635   26.3880   46.8511 H   0  0  0  0  0  0  0  0  0  0  0  0
  1  2  1  0
  2  3  1  0
  3  4  1  0
  4  5  1  0
  5  6  1  0
  6  7  1  0
  7  8  2  0
  8  9  1  0
  9 10  2  0
 10 11  1  0
 10 12  1  0
 12 13  2  0
  3 14  2  0
 14 15  1  0
 15 16  2  0
 15 17  1  0
 17 18  1  0
 17 19  1  0
 19 20  2  0
 19  2  1  0
 13  7  1  0
  1 21  1  0
  1 22  1  0
  1 23  1  0
  4 24  1  0
  5 25  1  0
  5 26  1  0
  6 27  1  0
  6 28  1  0
  8 29  1  0
  9 30  1  0
 12 31  1  0
 13 32  1  0
 14 33  1  0
 18 34  1  0
 18 35  1  0
 18 36  1  0
M  END
>  <UniqueID>  (88) 
84

>  <SMILES>  (88) 
Cn1c(NCCc2ccc(Cl)cc2)cc(=O)n(C)c1=O

>  <Energy>  (88) 
40.28552982964224

>  <Genealogy>  (88) 
Cn1c(NCCc2ccc(Cl)cc2)cc(=O)n(C)c1=O (3D coordinates assigned)
Cn1c(NCCc2ccc(Cl)cc2)cc(=O)n(C)c1=O (optimized conformer: 40.28552982964224 kcal/mol)

>  <smiles>  (88) 
Cn1c(NCCc2ccc(Cl)cc2)cc(=O)n(C)c1=O

>  <score_type>  (88) 
oracle

>  <origin>  (88) 
adg

>  <m_score__min__energy>  (88) 
-6.8399999999999999

>  <m_primary>  (88) 
energy

$$$$
88:0
     RDKit          3D

 31 32  0  0  0  0  0  0  0  0999 V2000
   56.8670   20.8670   45.7370 C   0  0  0  0  0  0  0  0  0  0  0  0
   57.0040   21.0920   44.2320 C   0  0  0  0  0  0  0  0  0  0  0  0
   56.4280   22.4110   43.7750 C   0  0  0  0  0  0  0  0  0  0  0  0
   55.7730   22.4630   42.6970 O   0  0  0  0  0  0  0  0  0  0  0  0
   56.5910   23.6500   44.5850 C   0  0  0  0  0  0  0  0  0  0  0  0
   57.8510   24.0470   45.0730 C   0  0  0  0  0  0  0  0  0  0  0  0
   57.9850   25.2150   45.8290 C   0  0  0  0  0  0  0  0  0  0  0  0
   56.8730   26.0150   46.1050 C   0  0  0  0  0  0  0  0  0  0  0  0
   57.0590   27.1800   46.8630 O   0  0  0  0  0  0  0  0  0  0  0  0
   57.7360   28.3200   46.4130 C   0  0  0  0  0  0  0  0  0  0  0  0
   58.6900   28.8030   47.0830 O   0  0  0  0  0  0  0  0  0  0  0  0
   57.2890   28.9790   45.1740 C   0  0  0  0  0  0  0  0  0  0  0  0
   57.4300   28.3620   43.9200 C   0  0  0  0  0  0  0  0  0  0  0  0
   57.0010   29.0100   42.8050 N   0  0  0  0  0  0  0  0  0  0  0  0
   56.4370   30.2440   42.8790 C   0  0  0  0  0  0  0  0  0  0  0  0
   56.2950   30.8590   44.1230 C   0  0  0  0  0  0  0  0  0  0  0  0
   56.7230   30.2140   45.2400 N   0  0  0  0  0  0  0  0  0  0  0  0
   55.6030   25.6100   45.6530 C   0  0  0  0  0  0  0  0  0  0  0  0
   54.4650   26.3370   45.9830 O   0  0  0  0  0  0  0  0  0  0  0  0
   55.4700   24.4440   44.8920 C   0  0  0  0  0  0  0  0  0  0  0  0
   57.3654   21.6855   46.2770 H   0  0  0  0  0  0  0  0  0  0  0  0
   55.8014   20.8438   46.0088 H   0  0  0  0  0  0  0  0  0  0  0  0
   57.3356   19.9096   46.0088 H   0  0  0  0  0  0  0  0  0  0  0  0
   58.0721   21.0670   43.9702 H   0  0  0  0  0  0  0  0  0  0  0  0
   56.4375   20.2948   43.7284 H   0  0  0  0  0  0  0  0  0  0  0  0
   58.7375   23.4325   44.8573 H   0  0  0  0  0  0  0  0  0  0  0  0
   58.9747   25.5071   46.2101 H   0  0  0  0  0  0  0  0  0  0  0  0
   57.8837   27.3630   43.8411 H   0  0  0  0  0  0  0  0  0  0  0  0
   56.0954   30.7535   41.9660 H   0  0  0  0  0  0  0  0  0  0  0  0
   55.8404   31.8577   44.1992 H   0  0  0  0  0  0  0  0  0  0  0  0
   54.4762   24.1435   44.5286 H   0  0  0  0  0  0  0  0  0  0  0  0
  1  2  1  0
  2  3  1  0
  3  4  2  0
  3  5  1  0
  5  6  2  0
  6  7  1  0
  7  8  2  0
  8  9  1  0
  9 10  1  0
 10 11  2  0
 10 12  1  0
 12 13  2  0
 13 14  1  0
 14 15  2  0
 15 16  1  0
 16 17  2  0
  8 18  1  0
 18 19  1  0
 18 20  2  0
 20  5  1  0
 17 12  1  0
  1 21  1  0
  1 22  1  0
  1 23  1  0
  2 24  1  0
  2 25  1  0
  6 26  1  0
  7 27  1  0
 13 28  1  0
 15 29  1  0
 16 30  1  0
 20 31  1  0
M  CHG  1  19  -1
M  END
>  <UniqueID>  (89) 
85

>  <SMILES>  (89) 
CCC(=O)c1ccc(OC(=O)c2cnccn2)c([O-])c1

>  <Energy>  (89) 
39.51412432735937

>  <Genealogy>  (89) 
CCC(=O)c1ccc(OC(=O)c2cnccn2)c([O-])c1 (protonated)
CCC(=O)c1ccc(OC(=O)c2cnccn2)c([O-])c1 (3D coordinates assigned)
CCC(=O)c1ccc(OC(=O)c2cnccn2)c([O-])c1 (optimized conformer: 39.51412432735937 kcal/mol)

>  <smiles>  (89) 
CCC(=O)c1ccc(OC(=O)c2cnccn2)c(O)c1

>  <score_type>  (89) 
oracle

>  <origin>  (89) 
adg

>  <m_score__min__energy>  (89) 
-10.9

>  <m_primary>  (89) 
energy

$$$$
89:0
     RDKit          3D

 11 11  0  0  0  0  0  0  0  0999 V2000
   50.3960   32.1880   53.8780 O   0  0  0  0  0  0  0  0  0  0  0  0
   50.9720   31.8010   52.8280 C   0  0  0  0  0  0  0  0  0  0  0  0
   51.9390   30.7950   52.8870 C   0  0  0  0  0  0  0  0  0  0  0  0
   52.5560   30.3940   51.6960 C   0  0  0  0  0  0  0  0  0  0  0  0
   53.5270   29.3960   51.6990 O   0  0  0  0  0  0  0  0  0  0  0  0
   52.2050   30.9850   50.5240 N   0  0  0  0  0  0  0  0  0  0  0  0
   51.2620   31.9620   50.4870 C   0  0  0  0  0  0  0  0  0  0  0  0
   50.9510   32.4960   49.3910 O   0  0  0  0  0  0  0  0  0  0  0  0
   50.6520   32.3640   51.6340 N   0  0  0  0  0  0  0  0  0  0  0  0
   52.2093   30.3290   53.8461 H   0  0  0  0  0  0  0  0  0  0  0  0
   53.2770   28.4150   51.6500 H   0  0  0  0  0  0  0  0  0  0  0  0
  1  2  2  0
  2  3  1  0
  3  4  2  0
  4  5  1  0
  4  6  1  0
  6  7  1  0
  7  8  2  0
  7  9  1  0
  9  2  1  0
  3 10  1  0
  5 11  1  0
M  CHG  2   6  -1   9  -1
M  END
>  <UniqueID>  (90) 
86

>  <SMILES>  (90) 
O=c1cc(O)[n-]c(=O)[n-]1

>  <Energy>  (90) 
10.61503651912558

>  <Genealogy>  (90) 
O=c1cc(O)[n-]c(=O)[n-]1 (protonated)
O=c1cc(O)[n-]c(=O)[n-]1 (3D coordinates assigned)
O=c1cc(O)[n-]c(=O)[n-]1 (optimized conformer: 10.61503651912558 kcal/mol)

>  <smiles>  (90) 
O=c1cc(O)[nH]c(=O)[nH]1

>  <score_type>  (90) 
oracle

>  <origin>  (90) 
adg

>  <m_score__min__energy>  (90) 
-9.6600000000000001

>  <m_primary>  (90) 
energy

$$$$
90:0
     RDKit          3D

 61 65  0  0  0  0  0  0  0  0999 V2000
   58.0890   32.2900   41.6830 C   0  0  0  0  0  0  0  0  0  0  0  0
   57.5040   32.9550   42.7980 O   0  0  0  0  0  0  0  0  0  0  0  0
   58.0920   33.0430   44.0690 C   0  0  0  0  0  0  0  0  0  0  0  0
   59.1660   33.9110   44.3390 C   0  0  0  0  0  0  0  0  0  0  0  0
   59.7220   33.9730   45.6200 C   0  0  0  0  0  0  0  0  0  0  0  0
   59.2180   33.1690   46.6580 C   0  0  0  0  0  0  0  0  0  0  0  0
   59.7820   33.2270   47.9890 N   0  0  0  0  0  0  0  0  0  0  0  0
   60.8670   34.1660   48.2970 C   0  0  0  0  0  0  0  0  0  0  0  0
   59.3970   32.2540   48.9780 C   0  0  0  0  0  0  0  0  0  0  0  0
   58.2160   32.4460   49.7440 C   0  0  0  0  0  0  0  0  0  0  0  0
   57.8390   31.5170   50.7290 C   0  0  0  0  0  0  0  0  0  0  0  0
   58.6660   30.4130   50.9230 C   0  0  0  0  0  0  0  0  0  0  0  0
   58.6090   29.3380   51.7820 C   0  0  0  0  0  0  0  0  0  0  0  0
   57.5940   29.1140   52.8330 C   0  0  0  0  0  0  0  0  0  0  0  0
   56.6440   29.9910   53.1910 C   0  0  0  0  0  0  0  0  0  0  0  0
   55.2320   29.9390   52.7630 C   0  0  0  0  0  0  0  0  0  0  0  0
   54.7830   30.8190   51.7670 C   0  0  0  0  0  0  0  0  0  0  0  0
   53.4600   30.7590   51.3180 C   0  0  0  0  0  0  0  0  0  0  0  0
   52.5840   29.8070   51.8440 C   0  0  0  0  0  0  0  0  0  0  0  0
   53.0310   28.9080   52.8170 C   0  0  0  0  0  0  0  0  0  0  0  0
   54.3530   28.9640   53.2670 C   0  0  0  0  0  0  0  0  0  0  0  0
   59.7000   28.5640   51.5650 N   0  0  0  0  0  0  0  0  0  0  0  0
   60.4290   29.0990   50.5890 N   0  0  0  0  0  0  0  0  0  0  0  0
   59.8040   30.2220   50.1960 C   0  0  0  0  0  0  0  0  0  0  0  0
   60.2070   31.1190   49.2110 C   0  0  0  0  0  0  0  0  0  0  0  0
   58.1420   32.3060   46.3840 C   0  0  0  0  0  0  0  0  0  0  0  0
   57.5850   32.2430   45.1030 C   0  0  0  0  0  0  0  0  0  0  0  0
   56.4730   31.3810   44.8640 N   0  0  0  0  0  0  0  0  0  0  0  0
   56.7240   29.7160   44.4750 S   0  0  0  0  0  0  0  0  0  0  0  0
   56.8910   29.5620   42.9880 O   0  0  0  0  0  0  0  0  0  0  0  0
   55.5250   28.9200   44.9080 O   0  0  0  0  0  0  0  0  0  0  0  0
   58.1580   29.1260   45.3100 C   0  0  0  0  0  0  0  0  0  0  0  0
   59.3960   29.0850   44.6510 C   0  0  0  0  0  0  0  0  0  0  0  0
   60.5200   28.5670   45.3010 C   0  0  0  0  0  0  0  0  0  0  0  0
   60.4120   28.0820   46.6080 C   0  0  0  0  0  0  0  0  0  0  0  0
   59.1790   28.1150   47.2660 C   0  0  0  0  0  0  0  0  0  0  0  0
   58.0540   28.6340   46.6190 C   0  0  0  0  0  0  0  0  0  0  0  0
   58.7760   31.5090   42.0410 H   0  0  0  0  0  0  0  0  0  0  0  0
   57.2971   31.8304   41.0734 H   0  0  0  0  0  0  0  0  0  0  0  0
   58.6458   33.0169   41.0734 H   0  0  0  0  0  0  0  0  0  0  0  0
   59.5709   34.5451   43.5365 H   0  0  0  0  0  0  0  0  0  0  0  0
   60.5609   34.6565   45.8179 H   0  0  0  0  0  0  0  0  0  0  0  0
   60.9735   34.2582   49.3879 H   0  0  0  0  0  0  0  0  0  0  0  0
   61.8081   33.7927   47.8670 H   0  0  0  0  0  0  0  0  0  0  0  0
   60.6326   35.1510   47.8670 H   0  0  0  0  0  0  0  0  0  0  0  0
   57.5894   33.3320   49.5641 H   0  0  0  0  0  0  0  0  0  0  0  0
   56.9248   31.6565   51.3246 H   0  0  0  0  0  0  0  0  0  0  0  0
   57.6197   28.1511   53.3641 H   0  0  0  0  0  0  0  0  0  0  0  0
   56.9409   30.8148   53.8567 H   0  0  0  0  0  0  0  0  0  0  0  0
   55.4743   31.5591   51.3376 H   0  0  0  0  0  0  0  0  0  0  0  0
   53.1087   31.4629   50.5492 H   0  0  0  0  0  0  0  0  0  0  0  0
   51.5424   29.7645   51.4928 H   0  0  0  0  0  0  0  0  0  0  0  0
   52.3417   28.1561   53.2287 H   0  0  0  0  0  0  0  0  0  0  0  0
   54.7072   28.2427   54.0182 H   0  0  0  0  0  0  0  0  0  0  0  0
   61.1269   30.9501   48.6320 H   0  0  0  0  0  0  0  0  0  0  0  0
   57.7340   31.6736   47.1862 H   0  0  0  0  0  0  0  0  0  0  0  0
   59.4823   29.4612   43.6209 H   0  0  0  0  0  0  0  0  0  0  0  0
   61.4904   28.5409   44.7837 H   0  0  0  0  0  0  0  0  0  0  0  0
   61.2971   27.6745   47.1184 H   0  0  0  0  0  0  0  0  0  0  0  0
   59.0941   27.7322   48.2937 H   0  0  0  0  0  0  0  0  0  0  0  0
   57.0844   28.6566   47.1380 H   0  0  0  0  0  0  0  0  0  0  0  0
  1  2  1  0
  2  3  1  0
  3  4  2  0
  4  5  1  0
  5  6  2  0
  6  7  1  0
  7  8  1  0
  7  9  1  0
  9 10  1  0
 10 11  2  0
 11 12  1  0
 12 13  2  0
 13 14  1  0
 14 15  2  3
 15 16  1  0
 16 17  2  0
 17 18  1  0
 18 19  2  0
 19 20  1  0
 20 21  2  0
 13 22  1  0
 22 23  1  0
 23 24  2  0
 24 25  1  0
  6 26  1  0
 26 27  2  0
 27 28  1  0
 28 29  1  0
 29 30  2  0
 29 31  2  0
 29 32  1  0
 32 33  2  0
 33 34  1  0
 34 35  2  0
 35 36  1  0
 36 37  2  0
 27  3  1  0
 37 32  1  0
 25  9  2  0
 24 12  1  0
 21 16  1  0
  1 38  1  0
  1 39  1  0
  1 40  1  0
  4 41  1  0
  5 42  1  0
  8 43  1  0
  8 44  1  0
  8 45  1  0
 10 46  1  0
 11 47  1  0
 14 48  1  0
 15 49  1  0
 17 50  1  0
 18 51  1  0
 19 52  1  0
 20 53  1  0
 21 54  1  0
 25 55  1  0
 26 56  1  0
 33 57  1  0
 34 58  1  0
 35 59  1  0
 36 60  1  0
 37 61  1  0
M  CHG  2  22  -1  28  -1
M  END
>  <UniqueID>  (91) 
87

>  <SMILES>  (91) 
COc1ccc(N(C)c2ccc3c(C=Cc4ccccc4)[n-]nc3c2)cc1[N-]S(=O)(=O)c1ccccc1

>  <Energy>  (91) 
128.9414388557043

>  <Genealogy>  (91) 
COc1ccc(N(C)c2ccc3c(C=Cc4ccccc4)[n-]nc3c2)cc1[N-]S(=O)(=O)c1ccccc1 (protonated)
COc1ccc(N(C)c2ccc3c(C=Cc4ccccc4)[n-]nc3c2)cc1[N-]S(=O)(=O)c1ccccc1 (3D coordinates assigned)
COc1ccc(N(C)c2ccc3c(C=Cc4ccccc4)[n-]nc3c2)cc1[N-]S(=O)(=O)c1ccccc1 (optimized conformer: 128.9414388557043 kcal/mol)

>  <smiles>  (91) 
COc1ccc(N(C)c2ccc3c(C=Cc4ccccc4)[nH]nc3c2)cc1NS(=O)(=O)c1ccccc1

>  <score_type>  (91) 
oracle

>  <origin>  (91) 
adg

>  <m_score__min__energy>  (91) 
-14.18

>  <m_primary>  (91) 
energy

$$$$
91:0
     RDKit          3D

 43 47  0  0  0  0  0  0  0  0999 V2000
   58.4983   27.3465   48.6510 H   0  0  0  0  0  0  0  0  0  0  0  0
   58.9900   28.0380   47.9510 C   0  0  0  0  0  0  0  0  0  0  0  0
   60.0990   28.6710   48.1730 N   0  0  0  0  0  0  0  0  0  0  0  0
   60.3860   29.4450   47.0420 N   0  0  0  0  0  0  0  0  0  0  0  0
   60.8680   30.7080   47.0220 C   0  0  0  0  0  0  0  0  0  0  0  0
   61.8850   31.1850   47.6930 N   0  0  0  0  0  0  0  0  0  0  0  0
   62.9950   32.1220   47.4380 C   0  0  0  0  0  0  0  0  0  0  0  0
   63.7153   31.3130   47.2463 H   0  0  0  0  0  0  0  0  0  0  0  0
   63.0680   33.4120   48.2320 C   0  0  0  0  0  0  0  0  0  0  0  0
   62.3441   33.6052   49.0374 H   0  0  0  0  0  0  0  0  0  0  0  0
   63.8476   33.9288   48.8109 H   0  0  0  0  0  0  0  0  0  0  0  0
   62.6110   33.4260   46.7690 C   0  0  0  0  0  0  0  0  0  0  0  0
   61.5585   33.6297   46.5226 H   0  0  0  0  0  0  0  0  0  0  0  0
   62.9257   33.9577   45.8589 H   0  0  0  0  0  0  0  0  0  0  0  0
   60.1920   31.4730   46.1400 N   0  0  0  0  0  0  0  0  0  0  0  0
   59.2770   30.6150   45.6390 C   0  0  0  0  0  0  0  0  0  0  0  0
   58.3320   31.0310   44.8430 N   0  0  0  0  0  0  0  0  0  0  0  0
   57.4520   32.1780   45.0030 C   0  0  0  0  0  0  0  0  0  0  0  0
   57.0628   32.4844   44.0208 H   0  0  0  0  0  0  0  0  0  0  0  0
   56.6090   31.9119   45.6577 H   0  0  0  0  0  0  0  0  0  0  0  0
   58.2300   33.3080   45.6110 C   0  0  0  0  0  0  0  0  0  0  0  0
   58.9190   34.2170   44.7910 C   0  0  0  0  0  0  0  0  0  0  0  0
   58.9109   34.0840   43.6991 H   0  0  0  0  0  0  0  0  0  0  0  0
   59.6150   35.2900   45.3560 C   0  0  0  0  0  0  0  0  0  0  0  0
   60.1594   35.9934   44.7088 H   0  0  0  0  0  0  0  0  0  0  0  0
   59.6200   35.4700   46.7420 C   0  0  0  0  0  0  0  0  0  0  0  0
   60.1721   36.3116   47.1857 H   0  0  0  0  0  0  0  0  0  0  0  0
   58.9230   34.5800   47.5640 C   0  0  0  0  0  0  0  0  0  0  0  0
   58.9235   34.7247   48.6544 H   0  0  0  0  0  0  0  0  0  0  0  0
   58.2250   33.5060   47.0030 C   0  0  0  0  0  0  0  0  0  0  0  0
   57.6700   32.8136   47.6530 H   0  0  0  0  0  0  0  0  0  0  0  0
   59.4340   29.3590   46.1390 N   0  0  0  0  0  0  0  0  0  0  0  0
   58.4950   28.3930   46.6130 C   0  0  0  0  0  0  0  0  0  0  0  0
   57.7810   27.5710   45.8330 C   0  0  0  0  0  0  0  0  0  0  0  0
   57.6034   27.8707   44.7896 H   0  0  0  0  0  0  0  0  0  0  0  0
   57.2200   26.2890   46.2920 C   0  0  0  0  0  0  0  0  0  0  0  0
   57.9830   25.2250   46.6190 N   0  0  0  0  0  0  0  0  0  0  0  0
   57.0780   24.2600   46.9020 C   0  0  0  0  0  0  0  0  0  0  0  0
   57.4070   23.1000   47.2610 O   0  0  0  0  0  0  0  0  0  0  0  0
   55.7980   24.6490   46.7550 N   0  0  0  0  0  0  0  0  0  0  0  0
   54.9330   24.0810   46.8920 H   0  0  0  0  0  0  0  0  0  0  0  0
   55.8890   25.9250   46.3550 C   0  0  0  0  0  0  0  0  0  0  0  0
   54.7960   26.7110   46.0110 O   0  0  0  0  0  0  0  0  0  0  0  0
  1  2  1  0
  2  3  2  0
  3  4  1  0
  4  5  1  0
  5  6  2  0
  6  7  1  0
  7  8  1  0
  7  9  1  0
  9 10  1  0
  9 11  1  0
  9 12  1  0
 12 13  1  0
 12 14  1  0
  5 15  1  0
 15 16  1  0
 16 17  2  3
 17 18  1  0
 18 19  1  0
 18 20  1  0
 18 21  1  0
 21 22  2  0
 22 23  1  0
 22 24  1  0
 24 25  1  0
 24 26  2  0
 26 27  1  0
 26 28  1  0
 28 29  1  0
 28 30  2  0
 30 31  1  0
 16 32  1  0
 32 33  1  0
 33 34  2  0
 34 35  1  0
 34 36  1  0
 36 37  1  0
 37 38  1  0
 38 39  2  0
 38 40  1  0
 40 41  1  0
 40 42  1  0
 42 43  1  0
 33  2  1  0
 42 36  2  0
 32  4  1  0
 12  7  1  0
 30 21  1  0
M  CHG  3  15  -1  37  -1  43  -1
M  END
>  <UniqueID>  (92) 
88

>  <SMILES>  (92) 
O=c1[n-]c(/C=C2\C=Nn3/c(=N\C4CC4)[n-]c(=NCc4ccccc4)n32)c([O-])[nH]1

>  <Energy>  (92) 
468.0536903676076

>  <Genealogy>  (92) 
O=c1[n-]c(C=C2C=Nn3c(=NC4CC4)[n-]c(=NCc4ccccc4)n32)c([O-])[nH]1 (protonated)
O=c1[n-]c(/C=C2\C=Nn3/c(=N\C4CC4)[n-]c(=NCc4ccccc4)n32)c([O-])[nH]1 (cis-trans isomerization)
O=c1[n-]c(/C=C2\C=Nn3/c(=N\C4CC4)[n-]c(=NCc4ccccc4)n32)c([O-])[nH]1 (3D coordinates assigned)
O=c1[n-]c(/C=C2\C=Nn3/c(=N\C4CC4)[n-]c(=NCc4ccccc4)n32)c([O-])[nH]1 (nonaromatic ring conformer: 468.0536903676076 kcal/mol)

>  <smiles>  (92) 
O=c1[nH]c(O)c(C=C2C=Nn3c(=NC4CC4)[nH]c(=NCc4ccccc4)n32)[nH]1

>  <score_type>  (92) 
oracle

>  <origin>  (92) 
adg

>  <m_score__min__energy>  (92) 
-14.74

>  <m_primary>  (92) 
energy

$$$$
92:0
     RDKit          3D

 45 48  0  0  0  0  0  0  0  0999 V2000
   57.1010   34.1680   45.2100 C   0  0  0  0  0  0  0  0  0  0  0  0
   57.8330   32.9680   45.6150 N   0  0  0  0  0  0  0  0  0  0  0  0
   58.7730   32.8450   46.5930 C   0  0  0  0  0  0  0  0  0  0  0  0
   59.2660   33.9750   47.4500 C   0  0  0  0  0  0  0  0  0  0  0  0
   60.7610   33.9030   47.5980 C   0  0  0  0  0  0  0  0  0  0  0  0
   61.3450   33.9240   48.8770 C   0  0  0  0  0  0  0  0  0  0  0  0
   62.7340   33.8810   49.0180 C   0  0  0  0  0  0  0  0  0  0  0  0
   63.5520   33.8230   47.8860 C   0  0  0  0  0  0  0  0  0  0  0  0
   62.9800   33.8090   46.6100 C   0  0  0  0  0  0  0  0  0  0  0  0
   61.5910   33.8490   46.4650 C   0  0  0  0  0  0  0  0  0  0  0  0
   59.1610   31.5610   46.8060 N   0  0  0  0  0  0  0  0  0  0  0  0
   58.4240   30.8670   45.9210 C   0  0  0  0  0  0  0  0  0  0  0  0
   58.4040   29.4870   45.7370 C   0  0  0  0  0  0  0  0  0  0  0  0
   57.5020   28.9580   44.7820 C   0  0  0  0  0  0  0  0  0  0  0  0
   57.3950   27.5490   44.5410 N   0  0  0  0  0  0  0  0  0  0  0  0
   56.8900   26.3750   45.7130 S   0  0  0  0  0  0  0  0  0  0  0  0
   55.4250   26.5610   45.9940 O   0  0  0  0  0  0  0  0  0  0  0  0
   57.6640   26.5830   46.9840 O   0  0  0  0  0  0  0  0  0  0  0  0
   57.2060   24.7480   45.1170 C   0  0  0  0  0  0  0  0  0  0  0  0
   58.2940   24.0160   45.6150 C   0  0  0  0  0  0  0  0  0  0  0  0
   58.5550   22.7290   45.1330 C   0  0  0  0  0  0  0  0  0  0  0  0
   57.7270   22.1660   44.1560 C   0  0  0  0  0  0  0  0  0  0  0  0
   56.6370   22.8900   43.6620 C   0  0  0  0  0  0  0  0  0  0  0  0
   56.3750   24.1770   44.1420 C   0  0  0  0  0  0  0  0  0  0  0  0
   56.6650   29.8330   44.0510 C   0  0  0  0  0  0  0  0  0  0  0  0
   56.7110   31.2220   44.2640 C   0  0  0  0  0  0  0  0  0  0  0  0
   57.6150   31.7050   45.2110 C   0  0  0  0  0  0  0  0  0  0  0  0
   56.7680   34.7139   46.1050 H   0  0  0  0  0  0  0  0  0  0  0  0
   57.7590   34.8139   44.6102 H   0  0  0  0  0  0  0  0  0  0  0  0
   56.2255   33.8785   44.6102 H   0  0  0  0  0  0  0  0  0  0  0  0
   58.9933   34.9320   46.9811 H   0  0  0  0  0  0  0  0  0  0  0  0
   58.8035   33.8980   48.4451 H   0  0  0  0  0  0  0  0  0  0  0  0
   60.7052   33.9745   49.7704 H   0  0  0  0  0  0  0  0  0  0  0  0
   63.1848   33.8928   50.0213 H   0  0  0  0  0  0  0  0  0  0  0  0
   64.6456   33.7884   47.9989 H   0  0  0  0  0  0  0  0  0  0  0  0
   63.6244   33.7664   45.7195 H   0  0  0  0  0  0  0  0  0  0  0  0
   61.1449   33.8382   45.4596 H   0  0  0  0  0  0  0  0  0  0  0  0
   59.0682   28.8281   46.3155 H   0  0  0  0  0  0  0  0  0  0  0  0
   58.9436   24.4551   46.3865 H   0  0  0  0  0  0  0  0  0  0  0  0
   59.4117   22.1594   45.5224 H   0  0  0  0  0  0  0  0  0  0  0  0
   57.9331   21.1543   43.7764 H   0  0  0  0  0  0  0  0  0  0  0  0
   55.9851   22.4465   42.8950 H   0  0  0  0  0  0  0  0  0  0  0  0
   55.5152   24.7429   43.7540 H   0  0  0  0  0  0  0  0  0  0  0  0
   55.9686   29.4212   43.3057 H   0  0  0  0  0  0  0  0  0  0  0  0
   56.0563   31.9051   43.7029 H   0  0  0  0  0  0  0  0  0  0  0  0
  1  2  1  0
  2  3  1  0
  3  4  1  0
  4  5  1  0
  5  6  2  0
  6  7  1  0
  7  8  2  0
  8  9  1  0
  9 10  2  0
  3 11  2  0
 11 12  1  0
 12 13  2  0
 13 14  1  0
 14 15  1  0
 15 16  1  0
 16 17  2  0
 16 18  2  0
 16 19  1  0
 19 20  2  0
 20 21  1  0
 21 22  2  0
 22 23  1  0
 23 24  2  0
 14 25  2  0
 25 26  1  0
 26 27  2  0
 27  2  1  0
 10  5  1  0
 27 12  1  0
 24 19  1  0
  1 28  1  0
  1 29  1  0
  1 30  1  0
  4 31  1  0
  4 32  1  0
  6 33  1  0
  7 34  1  0
  8 35  1  0
  9 36  1  0
 10 37  1  0
 13 38  1  0
 20 39  1  0
 21 40  1  0
 22 41  1  0
 23 42  1  0
 24 43  1  0
 25 44  1  0
 26 45  1  0
M  CHG  1  15  -1
M  END
>  <UniqueID>  (93) 
89

>  <SMILES>  (93) 
Cn1c(Cc2ccccc2)nc2cc([N-]S(=O)(=O)c3ccccc3)ccc21

>  <Energy>  (93) 
87.58515251893387

>  <Genealogy>  (93) 
Cn1c(Cc2ccccc2)nc2cc([N-]S(=O)(=O)c3ccccc3)ccc21 (protonated)
Cn1c(Cc2ccccc2)nc2cc([N-]S(=O)(=O)c3ccccc3)ccc21 (3D coordinates assigned)
Cn1c(Cc2ccccc2)nc2cc([N-]S(=O)(=O)c3ccccc3)ccc21 (optimized conformer: 87.58515251893387 kcal/mol)

>  <smiles>  (93) 
Cn1c(Cc2ccccc2)nc2cc(NS(=O)(=O)c3ccccc3)ccc21

>  <score_type>  (93) 
oracle

>  <origin>  (93) 
adg

>  <m_score__min__energy>  (93) 
-10.880000000000001

>  <m_primary>  (93) 
energy

$$$$
93:0
     RDKit          3D

 27 28  0  0  0  0  0  0  0  0999 V2000
   58.4314   29.7365   47.0591 H   0  0  0  0  0  0  0  0  0  0  0  0
   58.2010   30.3730   46.1920 C   0  0  0  0  0  0  0  0  0  0  0  0
   57.5910   29.8610   45.1660 N   0  0  0  0  0  0  0  0  0  0  0  0
   56.6830   28.7500   45.2230 C   0  0  0  0  0  0  0  0  0  0  0  0
   55.4840   28.9390   44.8840 O   0  0  0  0  0  0  0  0  0  0  0  0
   57.1120   27.3910   45.6300 C   0  0  0  0  0  0  0  0  0  0  0  0
   58.4760   27.0470   45.6130 C   0  0  0  0  0  0  0  0  0  0  0  0
   59.2245   27.7963   45.3158 H   0  0  0  0  0  0  0  0  0  0  0  0
   58.8870   25.7600   45.9710 C   0  0  0  0  0  0  0  0  0  0  0  0
   59.9564   25.5026   45.9614 H   0  0  0  0  0  0  0  0  0  0  0  0
   57.9420   24.8000   46.3410 C   0  0  0  0  0  0  0  0  0  0  0  0
   58.3540   23.5220   46.6960 O   0  0  0  0  0  0  0  0  0  0  0  0
   56.5830   25.1250   46.3490 C   0  0  0  0  0  0  0  0  0  0  0  0
   55.8398   24.3663   46.6354 H   0  0  0  0  0  0  0  0  0  0  0  0
   56.1640   26.4120   45.9940 C   0  0  0  0  0  0  0  0  0  0  0  0
   54.8060   26.7130   46.0190 O   0  0  0  0  0  0  0  0  0  0  0  0
   58.5900   31.7990   46.2110 C   0  0  0  0  0  0  0  0  0  0  0  0
   59.7580   32.2330   46.8660 C   0  0  0  0  0  0  0  0  0  0  0  0
   60.4026   31.5030   47.3775 H   0  0  0  0  0  0  0  0  0  0  0  0
   60.1020   33.5880   46.8690 C   0  0  0  0  0  0  0  0  0  0  0  0
   61.0164   33.9210   47.3819 H   0  0  0  0  0  0  0  0  0  0  0  0
   59.2870   34.5200   46.2220 C   0  0  0  0  0  0  0  0  0  0  0  0
   59.6220   35.8340   46.2250 F   0  0  0  0  0  0  0  0  0  0  0  0
   58.1250   34.0980   45.5690 C   0  0  0  0  0  0  0  0  0  0  0  0
   57.4839   34.8320   45.0588 H   0  0  0  0  0  0  0  0  0  0  0  0
   57.7770   32.7430   45.5640 C   0  0  0  0  0  0  0  0  0  0  0  0
   56.8612   32.4154   45.0502 H   0  0  0  0  0  0  0  0  0  0  0  0
  1  2  1  0
  2  3  2  0
  3  4  1  0
  4  5  2  0
  4  6  1  0
  6  7  2  0
  7  8  1  0
  7  9  1  0
  9 10  1  0
  9 11  2  0
 11 12  1  0
 11 13  1  0
 13 14  1  0
 13 15  2  0
 15 16  1  0
  2 17  1  0
 17 18  2  0
 18 19  1  0
 18 20  1  0
 20 21  1  0
 20 22  2  0
 22 23  1  0
 22 24  1  0
 24 25  1  0
 24 26  2  0
 26 27  1  0
 15  6  1  0
 26 17  1  0
M  CHG  2  12  -1  16  -1
M  END
>  <UniqueID>  (94) 
90

>  <SMILES>  (94) 
O=C(/N=C/c1ccc(F)cc1)c1ccc([O-])cc1[O-]

>  <Energy>  (94) 
34.48785077363124

>  <Genealogy>  (94) 
O=C(N=Cc1ccc(F)cc1)c1ccc([O-])cc1[O-] (protonated)
O=C(/N=C/c1ccc(F)cc1)c1ccc([O-])cc1[O-] (cis-trans isomerization)
O=C(/N=C/c1ccc(F)cc1)c1ccc([O-])cc1[O-] (3D coordinates assigned)
O=C(/N=C/c1ccc(F)cc1)c1ccc([O-])cc1[O-] (optimized conformer: 34.48785077363124 kcal/mol)

>  <smiles>  (94) 
O=C(N=Cc1ccc(F)cc1)c1ccc(O)cc1O

>  <score_type>  (94) 
oracle

>  <origin>  (94) 
adg

>  <m_score__min__energy>  (94) 
-12.66

>  <m_primary>  (94) 
energy

$$$$
