0:0
     RDKit          3D

 68 72  0  0  0  0  0  0  0  0999 V2000
   58.0320   24.3990   47.6860 H   0  0  0  0  0  0  0  0  0  0  0  0
   57.3010   23.6600   47.7650 N   0  0  0  0  0  0  0  0  0  0  0  0
   56.1400   23.6960   47.1850 C   0  0  0  0  0  0  0  0  0  0  0  0
   55.3230   22.6180   47.3210 N   0  0  0  0  0  0  0  0  0  0  0  0
   54.1210   22.5260   46.6970 C   0  0  0  0  0  0  0  0  0  0  0  0
   53.4939   21.6346   46.8459 H   0  0  0  0  0  0  0  0  0  0  0  0
   53.6750   23.5610   45.8640 C   0  0  0  0  0  0  0  0  0  0  0  0
   52.3750   23.4620   45.1550 C   0  0  0  0  0  0  0  0  0  0  0  0
   51.3070   22.7490   45.7220 C   0  0  0  0  0  0  0  0  0  0  0  0
   51.4358   22.2549   46.6963 H   0  0  0  0  0  0  0  0  0  0  0  0
   50.0820   22.6630   45.0570 C   0  0  0  0  0  0  0  0  0  0  0  0
   49.2521   22.0989   45.5077 H   0  0  0  0  0  0  0  0  0  0  0  0
   49.9070   23.2900   43.8230 C   0  0  0  0  0  0  0  0  0  0  0  0
   48.9401   23.2129   43.3041 H   0  0  0  0  0  0  0  0  0  0  0  0
   50.9570   24.0200   43.2370 C   0  0  0  0  0  0  0  0  0  0  0  0
   50.7550   24.6850   41.9270 C   0  0  0  0  0  0  0  0  0  0  0  0
   50.0900   25.7560   41.8660 O   0  0  0  0  0  0  0  0  0  0  0  0
   51.3150   24.1520   40.7220 N   0  0  0  0  0  0  0  0  0  0  0  0
   52.0280   23.3930   40.7390 H   0  0  0  0  0  0  0  0  0  0  0  0
   51.0980   24.5990   39.8050 H   0  0  0  0  0  0  0  0  0  0  0  0
   52.1940   24.0890   43.9070 C   0  0  0  0  0  0  0  0  0  0  0  0
   53.0293   24.6396   43.4497 H   0  0  0  0  0  0  0  0  0  0  0  0
   54.4910   24.6920   45.7120 C   0  0  0  0  0  0  0  0  0  0  0  0
   54.1618   25.5145   45.0600 H   0  0  0  0  0  0  0  0  0  0  0  0
   55.7230   24.7890   46.3810 C   0  0  0  0  0  0  0  0  0  0  0  0
   56.5220   26.0230   46.2100 C   0  0  0  0  0  0  0  0  0  0  0  0
   57.8010   26.0920   46.6880 N   0  0  0  0  0  0  0  0  0  0  0  0
   58.5570   27.2180   46.5590 C   0  0  0  0  0  0  0  0  0  0  0  0
   59.7310   27.2310   47.0170 O   0  0  0  0  0  0  0  0  0  0  0  0
   58.0030   28.3370   45.9190 C   0  0  0  0  0  0  0  0  0  0  0  0
   58.5920   29.5900   45.6280 C   0  0  0  0  0  0  0  0  0  0  0  0
   60.0240   29.9580   45.9430 C   0  0  0  0  0  0  0  0  0  0  0  0
   60.6930   29.2409   45.4448 H   0  0  0  0  0  0  0  0  0  0  0  0
   60.1994   30.9821   45.5818 H   0  0  0  0  0  0  0  0  0  0  0  0
   60.2950   29.9330   47.4000 N   0  0  0  0  0  0  0  0  0  0  0  0
   59.0560   30.2490   48.1320 C   0  0  0  0  0  0  0  0  0  0  0  0
   59.2469   30.2003   49.2142 H   0  0  0  0  0  0  0  0  0  0  0  0
   58.7200   31.2616   47.8641 H   0  0  0  0  0  0  0  0  0  0  0  0
   58.2761   29.5210   47.8641 H   0  0  0  0  0  0  0  0  0  0  0  0
   61.3740   30.8690   47.7940 C   0  0  0  0  0  0  0  0  0  0  0  0
   61.7051   30.6301   48.8154 H   0  0  0  0  0  0  0  0  0  0  0  0
   62.2116   30.7629   47.0888 H   0  0  0  0  0  0  0  0  0  0  0  0
   60.8800   32.2930   47.7530 C   0  0  0  0  0  0  0  0  0  0  0  0
   60.3560   32.9040   48.9040 C   0  0  0  0  0  0  0  0  0  0  0  0
   60.3387   32.3540   49.8565 H   0  0  0  0  0  0  0  0  0  0  0  0
   59.8560   34.2090   48.8440 C   0  0  0  0  0  0  0  0  0  0  0  0
   59.4341   34.6777   49.7453 H   0  0  0  0  0  0  0  0  0  0  0  0
   59.8920   34.9180   47.6400 C   0  0  0  0  0  0  0  0  0  0  0  0
   59.4913   35.9413   47.5922 H   0  0  0  0  0  0  0  0  0  0  0  0
   60.4370   34.3270   46.4970 C   0  0  0  0  0  0  0  0  0  0  0  0
   60.4726   34.8888   45.5519 H   0  0  0  0  0  0  0  0  0  0  0  0
   60.9370   33.0230   46.5530 C   0  0  0  0  0  0  0  0  0  0  0  0
   61.3769   32.5660   45.6543 H   0  0  0  0  0  0  0  0  0  0  0  0
   57.6740   30.4680   45.0210 C   0  0  0  0  0  0  0  0  0  0  0  0
   57.9370   31.8480   44.5740 C   0  0  0  0  0  0  0  0  0  0  0  0
   58.3990   32.0310   43.4150 O   0  0  0  0  0  0  0  0  0  0  0  0
   57.6750   32.9810   45.4270 N   0  0  0  0  0  0  0  0  0  0  0  0
   57.4320   32.7980   46.8640 C   0  0  0  0  0  0  0  0  0  0  0  0
   58.1818   33.3627   47.4375 H   0  0  0  0  0  0  0  0  0  0  0  0
   56.4258   33.1646   47.1153 H   0  0  0  0  0  0  0  0  0  0  0  0
   57.5064   31.7297   47.1153 H   0  0  0  0  0  0  0  0  0  0  0  0
   57.7380   34.3320   44.8600 C   0  0  0  0  0  0  0  0  0  0  0  0
   57.7724   35.0703   45.6747 H   0  0  0  0  0  0  0  0  0  0  0  0
   58.6416   34.4277   44.2400 H   0  0  0  0  0  0  0  0  0  0  0  0
   56.8472   34.5114   44.2400 H   0  0  0  0  0  0  0  0  0  0  0  0
   56.1910   29.6810   44.7980 S   0  0  0  0  0  0  0  0  0  0  0  0
   56.6930   28.2450   45.4910 C   0  0  0  0  0  0  0  0  0  0  0  0
   55.9570   27.1180   45.6270 N   0  0  0  0  0  0  0  0  0  0  0  0
  1  2  1  0
  2  3  2  0
  3  4  1  0
  4  5  1  0
  5  6  1  0
  5  7  2  0
  7  8  1  0
  8  9  2  0
  9 10  1  0
  9 11  1  0
 11 12  1  0
 11 13  2  0
 13 14  1  0
 13 15  1  0
 15 16  1  0
 16 17  2  0
 16 18  1  0
 18 19  1  0
 18 20  1  0
 15 21  2  0
 21 22  1  0
  7 23  1  0
 23 24  1  0
 23 25  2  0
 25 26  1  0
 26 27  2  0
 27 28  1  0
 28 29  2  0
 28 30  1  0
 30 31  1  0
 31 32  1  0
 32 33  1  0
 32 34  1  0
 32 35  1  0
 35 36  1  0
 36 37  1  0
 36 38  1  0
 36 39  1  0
 35 40  1  0
 40 41  1  0
 40 42  1  0
 40 43  1  0
 43 44  2  0
 44 45  1  0
 44 46  1  0
 46 47  1  0
 46 48  2  0
 48 49  1  0
 48 50  1  0
 50 51  1  0
 50 52  2  0
 52 53  1  0
 31 54  2  0
 54 55  1  0
 55 56  2  0
 55 57  1  0
 57 58  1  0
 58 59  1  0
 58 60  1  0
 58 61  1  0
 57 62  1  0
 62 63  1  0
 62 64  1  0
 62 65  1  0
 54 66  1  0
 66 67  1  0
 67 68  1  0
 25  3  1  0
 68 26  1  0
 21  8  1  0
 67 30  2  0
 52 43  1  0
M  CHG  2   4  -1  68  -1
M  END
>  <UniqueID>  (1) 
1

>  <SMILES>  (1) 
[H]/N=c1/[n-]cc(-c2cccc(C(N)=O)c2)cc1-c1nc(=O)c2c(CN(C)Cc3ccccc3)c(C(=O)N(C)C)sc2[n-]1

>  <Energy>  (1) 
124.67245479159473

>  <Genealogy>  (1) 
CN(Cc1ccccc1)Cc1c(C(=O)N(C)C)sc2[n-]c(-c3cc(-c4cccc(C(N)=O)c4)c[n-]c3=N)nc(=O)c12 (protonated)
[H]/N=c1/[n-]cc(-c2cccc(C(N)=O)c2)cc1-c1nc(=O)c2c(CN(C)Cc3ccccc3)c(C(=O)N(C)C)sc2[n-]1 (cis-trans isomerization)
[H]/N=c1/[n-]cc(-c2cccc(C(N)=O)c2)cc1-c1nc(=O)c2c(CN(C)Cc3ccccc3)c(C(=O)N(C)C)sc2[n-]1 (3D coordinates assigned)
[H]/N=c1/[n-]cc(-c2cccc(C(N)=O)c2)cc1-c1nc(=O)c2c(CN(C)Cc3ccccc3)c(C(=O)N(C)C)sc2[n-]1 (optimized conformer: 124.67245479159473 kcal/mol)

>  <smiles>  (1) 
CN(Cc1ccccc1)Cc1c(C(=O)N(C)C)sc2[nH]c(-c3cc(-c4cccc(C(N)=O)c4)c[nH]c3=N)nc(=O)c12

>  <score_type>  (1) 
oracle

>  <origin>  (1) 
adg

>  <m_score__min__energy>  (1) 
-12.529999999999999

>  <m_primary>  (1) 
energy

$$$$
1:0
     RDKit          3D

 46 48  0  0  0  0  0  0  0  0999 V2000
   56.6200   30.0380   43.9630 C   0  0  0  0  0  0  0  0  0  0  0  0
   56.9870   30.6090   45.2120 O   0  0  0  0  0  0  0  0  0  0  0  0
   57.7660   31.7690   45.3600 C   0  0  0  0  0  0  0  0  0  0  0  0
   57.8380   32.7540   44.3540 C   0  0  0  0  0  0  0  0  0  0  0  0
   58.6310   33.8880   44.5330 C   0  0  0  0  0  0  0  0  0  0  0  0
   59.3550   34.0570   45.7140 C   0  0  0  0  0  0  0  0  0  0  0  0
   59.2900   33.0910   46.7190 C   0  0  0  0  0  0  0  0  0  0  0  0
   58.4950   31.9410   46.5500 C   0  0  0  0  0  0  0  0  0  0  0  0
   58.4100   30.9270   47.5620 N   0  0  0  0  0  0  0  0  0  0  0  0
   59.3490   29.4690   47.6080 S   0  0  0  0  0  0  0  0  0  0  0  0
   60.7850   29.8090   47.3250 O   0  0  0  0  0  0  0  0  0  0  0  0
   59.2210   28.8420   48.9680 O   0  0  0  0  0  0  0  0  0  0  0  0
   58.7610   28.3270   46.3860 C   0  0  0  0  0  0  0  0  0  0  0  0
   57.6310   27.5430   46.6770 C   0  0  0  0  0  0  0  0  0  0  0  0
   57.1270   26.6210   45.7430 C   0  0  0  0  0  0  0  0  0  0  0  0
   55.9330   25.8010   46.0620 C   0  0  0  0  0  0  0  0  0  0  0  0
   54.7840   26.3190   45.9960 O   0  0  0  0  0  0  0  0  0  0  0  0
   56.0940   24.4250   46.4460 N   0  0  0  0  0  0  0  0  0  0  0  0
   56.6880   23.4820   45.7710 C   0  0  0  0  0  0  0  0  0  0  0  0
   57.7180   22.7680   46.3100 N   0  0  0  0  0  0  0  0  0  0  0  0
   58.3500   21.7810   45.6220 C   0  0  0  0  0  0  0  0  0  0  0  0
   57.9530   21.4690   44.3220 C   0  0  0  0  0  0  0  0  0  0  0  0
   56.9030   22.1820   43.7410 C   0  0  0  0  0  0  0  0  0  0  0  0
   56.2620   23.1960   44.4640 C   0  0  0  0  0  0  0  0  0  0  0  0
   55.2120   23.9150   43.8940 O   0  0  0  0  0  0  0  0  0  0  0  0
   57.7710   26.4900   44.5040 C   0  0  0  0  0  0  0  0  0  0  0  0
   58.8970   27.2580   44.2050 C   0  0  0  0  0  0  0  0  0  0  0  0
   59.4100   28.1740   45.1360 C   0  0  0  0  0  0  0  0  0  0  0  0
   60.6240   28.9860   44.7700 C   0  0  0  0  0  0  0  0  0  0  0  0
   56.0327   29.1242   44.1360 H   0  0  0  0  0  0  0  0  0  0  0  0
   56.0161   30.7596   43.3932 H   0  0  0  0  0  0  0  0  0  0  0  0
   57.5272   29.7884   43.3932 H   0  0  0  0  0  0  0  0  0  0  0  0
   57.2659   32.6279   43.4230 H   0  0  0  0  0  0  0  0  0  0  0  0
   58.6856   34.6502   43.7418 H   0  0  0  0  0  0  0  0  0  0  0  0
   59.9778   34.9530   45.8529 H   0  0  0  0  0  0  0  0  0  0  0  0
   59.8627   33.2286   47.6480 H   0  0  0  0  0  0  0  0  0  0  0  0
   57.1329   27.6528   47.6516 H   0  0  0  0  0  0  0  0  0  0  0  0
   59.1763   21.2271   46.0914 H   0  0  0  0  0  0  0  0  0  0  0  0
   58.4612   20.6707   43.7613 H   0  0  0  0  0  0  0  0  0  0  0  0
   56.5792   21.9477   42.7162 H   0  0  0  0  0  0  0  0  0  0  0  0
   54.8250   24.7350   44.3450 H   0  0  0  0  0  0  0  0  0  0  0  0
   57.3852   25.7758   43.7617 H   0  0  0  0  0  0  0  0  0  0  0  0
   59.3885   27.1440   43.2275 H   0  0  0  0  0  0  0  0  0  0  0  0
   61.1292   29.3239   45.6869 H   0  0  0  0  0  0  0  0  0  0  0  0
   61.3142   28.3671   44.1779 H   0  0  0  0  0  0  0  0  0  0  0  0
   60.3155   29.8602   44.1779 H   0  0  0  0  0  0  0  0  0  0  0  0
  1  2  1  0
  2  3  1  0
  3  4  2  0
  4  5  1  0
  5  6  2  0
  6  7  1  0
  7  8  2  0
  8  9  1  0
  9 10  1  0
 10 11  2  0
 10 12  2  0
 10 13  1  0
 13 14  2  0
 14 15  1  0
 15 16  1  0
 16 17  2  0
 16 18  1  0
 18 19  2  3
 19 20  1  0
 20 21  1  0
 21 22  2  0
 22 23  1  0
 23 24  2  0
 24 25  1  0
 15 26  2  0
 26 27  1  0
 27 28  2  0
 28 29  1  0
  8  3  1  0
 28 13  1  0
 24 19  1  0
  1 30  1  0
  1 31  1  0
  1 32  1  0
  4 33  1  0
  5 34  1  0
  6 35  1  0
  7 36  1  0
 14 37  1  0
 21 38  1  0
 22 39  1  0
 23 40  1  0
 25 41  1  0
 26 42  1  0
 27 43  1  0
 29 44  1  0
 29 45  1  0
 29 46  1  0
M  CHG  2   9  -1  20  -1
M  END
>  <UniqueID>  (2) 
2

>  <SMILES>  (2) 
COc1ccccc1[N-]S(=O)(=O)c1cc(C(=O)N=c2[n-]cccc2O)ccc1C

>  <Energy>  (2) 
58.119182202144614

>  <Genealogy>  (2) 
COc1ccccc1[N-]S(=O)(=O)c1cc(C(=O)N=c2[n-]cccc2O)ccc1C (protonated)
COc1ccccc1[N-]S(=O)(=O)c1cc(C(=O)N=c2[n-]cccc2O)ccc1C (3D coordinates assigned)
COc1ccccc1[N-]S(=O)(=O)c1cc(C(=O)N=c2[n-]cccc2O)ccc1C (optimized conformer: 58.119182202144614 kcal/mol)

>  <smiles>  (2) 
COc1ccccc1NS(=O)(=O)c1cc(C(=O)N=c2[nH]cccc2O)ccc1C

>  <score_type>  (2) 
oracle

>  <origin>  (2) 
adg

>  <m_score__min__energy>  (2) 
-11.640000000000001

>  <m_primary>  (2) 
energy

$$$$
2:0
     RDKit          3D

 48 50  0  0  0  0  0  0  0  0999 V2000
   58.3510   34.6610   44.9080 C   0  0  0  0  0  0  0  0  0  0  0  0
   59.3050   33.7300   45.5940 C   0  0  0  0  0  0  0  0  0  0  0  0
   60.4830   34.1150   45.8300 O   0  0  0  0  0  0  0  0  0  0  0  0
   58.8970   32.3570   45.9620 C   0  0  0  0  0  0  0  0  0  0  0  0
   59.0290   31.8730   47.2880 C   0  0  0  0  0  0  0  0  0  0  0  0
   59.4800   32.7500   48.4410 C   0  0  0  0  0  0  0  0  0  0  0  0
   60.9800   32.9180   48.4100 C   0  0  0  0  0  0  0  0  0  0  0  0
   61.5920   34.0030   49.0680 C   0  0  0  0  0  0  0  0  0  0  0  0
   62.9790   34.1830   48.9950 C   0  0  0  0  0  0  0  0  0  0  0  0
   63.7640   33.2860   48.2630 C   0  0  0  0  0  0  0  0  0  0  0  0
   63.1640   32.2080   47.6040 C   0  0  0  0  0  0  0  0  0  0  0  0
   61.7760   32.0230   47.6740 C   0  0  0  0  0  0  0  0  0  0  0  0
   58.6520   30.5540   47.5770 C   0  0  0  0  0  0  0  0  0  0  0  0
   58.1300   29.7120   46.5850 C   0  0  0  0  0  0  0  0  0  0  0  0
   57.7220   28.4010   46.8900 O   0  0  0  0  0  0  0  0  0  0  0  0
   58.4450   27.2330   46.5940 C   0  0  0  0  0  0  0  0  0  0  0  0
   59.8480   27.2660   46.5060 C   0  0  0  0  0  0  0  0  0  0  0  0
   60.5690   26.1050   46.2170 C   0  0  0  0  0  0  0  0  0  0  0  0
   59.8980   24.8990   46.0180 C   0  0  0  0  0  0  0  0  0  0  0  0
   58.5040   24.8560   46.0820 C   0  0  0  0  0  0  0  0  0  0  0  0
   57.7590   26.0200   46.3530 C   0  0  0  0  0  0  0  0  0  0  0  0
   56.2780   25.9370   46.3950 C   0  0  0  0  0  0  0  0  0  0  0  0
   55.6980   24.9180   46.8520 O   0  0  0  0  0  0  0  0  0  0  0  0
   55.5050   27.0080   45.9600 O   0  0  0  0  0  0  0  0  0  0  0  0
   57.9610   30.2000   45.2750 C   0  0  0  0  0  0  0  0  0  0  0  0
   57.4270   29.2910   44.1930 C   0  0  0  0  0  0  0  0  0  0  0  0
   55.9670   29.5450   43.9860 C   0  0  0  0  0  0  0  0  0  0  0  0
   55.1480   29.3550   44.9290 O   0  0  0  0  0  0  0  0  0  0  0  0
   55.5170   30.0550   42.7680 O   0  0  0  0  0  0  0  0  0  0  0  0
   58.3730   31.5130   44.9640 C   0  0  0  0  0  0  0  0  0  0  0  0
   58.2790   31.9750   43.6500 O   0  0  0  0  0  0  0  0  0  0  0  0
   57.7780   35.2202   45.6624 H   0  0  0  0  0  0  0  0  0  0  0  0
   58.9148   35.3658   44.2791 H   0  0  0  0  0  0  0  0  0  0  0  0
   57.6602   34.0802   44.2791 H   0  0  0  0  0  0  0  0  0  0  0  0
   59.0017   33.7369   48.3560 H   0  0  0  0  0  0  0  0  0  0  0  0
   59.1908   32.2740   49.3896 H   0  0  0  0  0  0  0  0  0  0  0  0
   60.9775   34.7122   49.6419 H   0  0  0  0  0  0  0  0  0  0  0  0
   63.4514   35.0303   49.5136 H   0  0  0  0  0  0  0  0  0  0  0  0
   64.8532   33.4284   48.2056 H   0  0  0  0  0  0  0  0  0  0  0  0
   63.7829   31.5033   47.0292 H   0  0  0  0  0  0  0  0  0  0  0  0
   61.3086   31.1753   47.1516 H   0  0  0  0  0  0  0  0  0  0  0  0
   58.7680   30.1723   48.6021 H   0  0  0  0  0  0  0  0  0  0  0  0
   60.3823   28.2141   46.6661 H   0  0  0  0  0  0  0  0  0  0  0  0
   61.6661   26.1421   46.1464 H   0  0  0  0  0  0  0  0  0  0  0  0
   60.4673   23.9809   45.8105 H   0  0  0  0  0  0  0  0  0  0  0  0
   57.9815   23.9019   45.9189 H   0  0  0  0  0  0  0  0  0  0  0  0
   57.9672   29.4851   43.2546 H   0  0  0  0  0  0  0  0  0  0  0  0
   57.5719   28.2438   44.4970 H   0  0  0  0  0  0  0  0  0  0  0  0
  1  2  1  0
  2  3  2  0
  2  4  1  0
  4  5  2  0
  5  6  1  0
  6  7  1  0
  7  8  2  0
  8  9  1  0
  9 10  2  0
 10 11  1  0
 11 12  2  0
  5 13  1  0
 13 14  2  0
 14 15  1  0
 15 16  1  0
 16 17  2  0
 17 18  1  0
 18 19  2  0
 19 20  1  0
 20 21  2  0
 21 22  1  0
 22 23  2  0
 22 24  1  0
 14 25  1  0
 25 26  1  0
 26 27  1  0
 27 28  2  0
 27 29  1  0
 25 30  2  0
 30 31  1  0
 30  4  1  0
 12  7  1  0
 21 16  1  0
  1 32  1  0
  1 33  1  0
  1 34  1  0
  6 35  1  0
  6 36  1  0
  8 37  1  0
  9 38  1  0
 10 39  1  0
 11 40  1  0
 12 41  1  0
 13 42  1  0
 17 43  1  0
 18 44  1  0
 19 45  1  0
 20 46  1  0
 26 47  1  0
 26 48  1  0
M  CHG  3  24  -1  29  -1  31  -1
M  END
>  <UniqueID>  (3) 
3

>  <SMILES>  (3) 
CC(=O)c1c(Cc2ccccc2)cc(Oc2ccccc2C(=O)[O-])c(CC(=O)[O-])c1[O-]

>  <Energy>  (3) 
64.91992885747038

>  <Genealogy>  (3) 
CC(=O)c1c(Cc2ccccc2)cc(Oc2ccccc2C(=O)[O-])c(CC(=O)[O-])c1[O-] (protonated)
CC(=O)c1c(Cc2ccccc2)cc(Oc2ccccc2C(=O)[O-])c(CC(=O)[O-])c1[O-] (3D coordinates assigned)
CC(=O)c1c(Cc2ccccc2)cc(Oc2ccccc2C(=O)[O-])c(CC(=O)[O-])c1[O-] (optimized conformer: 64.91992885747038 kcal/mol)

>  <smiles>  (3) 
CC(=O)c1c(Cc2ccccc2)cc(Oc2ccccc2C(=O)O)c(CC(=O)O)c1O

>  <score_type>  (3) 
oracle

>  <origin>  (3) 
adg

>  <m_score__min__energy>  (3) 
-14.710000000000001

>  <m_primary>  (3) 
energy

$$$$
3:0
     RDKit          3D

 48 50  0  0  0  0  0  0  0  0999 V2000
   60.1450   32.9590   50.0900 C   0  0  0  0  0  0  0  0  0  0  0  0
   61.2100   32.7250   49.0510 C   0  0  0  0  0  0  0  0  0  0  0  0
   61.9040   33.8260   48.5200 C   0  0  0  0  0  0  0  0  0  0  0  0
   62.9000   33.6420   47.5590 C   0  0  0  0  0  0  0  0  0  0  0  0
   63.2170   32.3580   47.1180 C   0  0  0  0  0  0  0  0  0  0  0  0
   62.5420   31.2520   47.6360 C   0  0  0  0  0  0  0  0  0  0  0  0
   61.5390   31.4170   48.6100 C   0  0  0  0  0  0  0  0  0  0  0  0
   60.8180   30.1950   49.1290 C   0  0  0  0  0  0  0  0  0  0  0  0
   59.9170   29.6640   48.1130 N   0  0  0  0  0  0  0  0  0  0  0  0
   59.8920   28.2890   47.7150 C   0  0  0  0  0  0  0  0  0  0  0  0
   59.9340   27.3720   48.5770 O   0  0  0  0  0  0  0  0  0  0  0  0
   59.7590   27.9430   46.2670 C   0  0  0  0  0  0  0  0  0  0  0  0
   58.5850   28.6010   45.7010 N   0  0  0  0  0  0  0  0  0  0  0  0
   57.3370   28.0930   45.6170 C   0  0  0  0  0  0  0  0  0  0  0  0
   56.5160   29.0810   45.1140 C   0  0  0  0  0  0  0  0  0  0  0  0
   55.1470   28.9650   44.8980 O   0  0  0  0  0  0  0  0  0  0  0  0
   57.2340   30.1970   44.8820 N   0  0  0  0  0  0  0  0  0  0  0  0
   56.7340   31.5060   44.4570 C   0  0  0  0  0  0  0  0  0  0  0  0
   57.8850   32.4240   44.0220 C   0  0  0  0  0  0  0  0  0  0  0  0
   58.3170   33.3400   45.1390 C   0  0  0  0  0  0  0  0  0  0  0  0
   59.1340   34.4500   44.8680 C   0  0  0  0  0  0  0  0  0  0  0  0
   59.5760   35.2700   45.9110 C   0  0  0  0  0  0  0  0  0  0  0  0
   59.2090   34.9850   47.2300 C   0  0  0  0  0  0  0  0  0  0  0  0
   58.4010   33.8790   47.5070 C   0  0  0  0  0  0  0  0  0  0  0  0
   57.9590   33.0550   46.4690 C   0  0  0  0  0  0  0  0  0  0  0  0
   58.4870   29.8750   45.2650 C   0  0  0  0  0  0  0  0  0  0  0  0
   59.4560   30.6820   45.2420 O   0  0  0  0  0  0  0  0  0  0  0  0
   60.5845   32.8624   51.0938 H   0  0  0  0  0  0  0  0  0  0  0  0
   59.7291   33.9700   49.9675 H   0  0  0  0  0  0  0  0  0  0  0  0
   59.3436   32.2155   49.9675 H   0  0  0  0  0  0  0  0  0  0  0  0
   61.6602   34.8417   48.8647 H   0  0  0  0  0  0  0  0  0  0  0  0
   63.4353   34.5113   47.1493 H   0  0  0  0  0  0  0  0  0  0  0  0
   64.0012   32.2164   46.3598 H   0  0  0  0  0  0  0  0  0  0  0  0
   62.7958   30.2425   47.2802 H   0  0  0  0  0  0  0  0  0  0  0  0
   61.5567   29.4249   49.3959 H   0  0  0  0  0  0  0  0  0  0  0  0
   60.2291   30.4783   50.0138 H   0  0  0  0  0  0  0  0  0  0  0  0
   60.6584   28.2769   45.7288 H   0  0  0  0  0  0  0  0  0  0  0  0
   59.6457   26.8536   46.1655 H   0  0  0  0  0  0  0  0  0  0  0  0
   57.0301   27.0750   45.8988 H   0  0  0  0  0  0  0  0  0  0  0  0
   56.0443   31.3695   43.6110 H   0  0  0  0  0  0  0  0  0  0  0  0
   56.2163   31.9745   45.3070 H   0  0  0  0  0  0  0  0  0  0  0  0
   58.7409   31.8036   43.7179 H   0  0  0  0  0  0  0  0  0  0  0  0
   57.5325   33.0446   43.1850 H   0  0  0  0  0  0  0  0  0  0  0  0
   59.4271   34.6750   43.8319 H   0  0  0  0  0  0  0  0  0  0  0  0
   60.2130   36.1401   45.6937 H   0  0  0  0  0  0  0  0  0  0  0  0
   59.5563   35.6314   48.0495 H   0  0  0  0  0  0  0  0  0  0  0  0
   58.1123   33.6567   48.5449 H   0  0  0  0  0  0  0  0  0  0  0  0
   57.3294   32.1811   46.6924 H   0  0  0  0  0  0  0  0  0  0  0  0
  1  2  1  0
  2  3  2  0
  3  4  1  0
  4  5  2  0
  5  6  1  0
  6  7  2  0
  7  8  1  0
  8  9  1  0
  9 10  1  0
 10 11  2  0
 10 12  1  0
 12 13  1  0
 13 14  1  0
 14 15  2  0
 15 16  1  0
 15 17  1  0
 17 18  1  0
 18 19  1  0
 19 20  1  0
 20 21  2  0
 21 22  1  0
 22 23  2  0
 23 24  1  0
 24 25  2  0
 17 26  1  0
 26 27  2  0
  7  2  1  0
 26 13  1  0
 25 20  1  0
  1 28  1  0
  1 29  1  0
  1 30  1  0
  3 31  1  0
  4 32  1  0
  5 33  1  0
  6 34  1  0
  8 35  1  0
  8 36  1  0
 12 37  1  0
 12 38  1  0
 14 39  1  0
 18 40  1  0
 18 41  1  0
 19 42  1  0
 19 43  1  0
 21 44  1  0
 22 45  1  0
 23 46  1  0
 24 47  1  0
 25 48  1  0
M  CHG  2   9  -1  16  -1
M  END
>  <UniqueID>  (4) 
4

>  <SMILES>  (4) 
Cc1ccccc1C[N-]C(=O)Cn1cc([O-])n(CCc2ccccc2)c1=O

>  <Energy>  (4) 
74.13524180866446

>  <Genealogy>  (4) 
Cc1ccccc1C[N-]C(=O)Cn1cc([O-])n(CCc2ccccc2)c1=O (protonated)
Cc1ccccc1C[N-]C(=O)Cn1cc([O-])n(CCc2ccccc2)c1=O (3D coordinates assigned)
Cc1ccccc1C[N-]C(=O)Cn1cc([O-])n(CCc2ccccc2)c1=O (optimized conformer: 74.13524180866446 kcal/mol)

>  <smiles>  (4) 
Cc1ccccc1CNC(=O)Cn1cc(O)n(CCc2ccccc2)c1=O

>  <score_type>  (4) 
oracle

>  <origin>  (4) 
adg

>  <m_score__min__energy>  (4) 
-12.31

>  <m_primary>  (4) 
energy

$$$$
4:0
     RDKit          3D

 44 47  0  0  0  0  0  0  0  0999 V2000
   56.6310   30.3560   43.6290 C   0  0  0  0  0  0  0  0  0  0  0  0
   56.5010   31.0880   44.8430 O   0  0  0  0  0  0  0  0  0  0  0  0
   57.4250   32.0400   45.3040 C   0  0  0  0  0  0  0  0  0  0  0  0
   57.3930   33.3770   44.8630 C   0  0  0  0  0  0  0  0  0  0  0  0
   58.3320   34.2950   45.3310 C   0  0  0  0  0  0  0  0  0  0  0  0
   59.3040   33.9010   46.2480 C   0  0  0  0  0  0  0  0  0  0  0  0
   59.3420   32.5790   46.7270 C   0  0  0  0  0  0  0  0  0  0  0  0
   60.4200   32.1480   47.7060 C   0  0  2  0  0  0  0  0  0  0  0  0
   60.0750   32.5210   49.0770 N   0  0  0  0  0  0  0  0  0  0  0  0
   59.2070   31.7660   49.9500 C   0  0  0  0  0  0  0  0  0  0  0  0
   58.2230   32.4110   50.7240 C   0  0  0  0  0  0  0  0  0  0  0  0
   57.3930   31.6760   51.5760 C   0  0  0  0  0  0  0  0  0  0  0  0
   57.5400   30.2900   51.6740 C   0  0  0  0  0  0  0  0  0  0  0  0
   56.5000   29.3700   52.7440 Cl  0  0  0  0  0  0  0  0  0  0  0  0
   58.5230   29.6400   50.9230 C   0  0  0  0  0  0  0  0  0  0  0  0
   59.3540   30.3720   50.0700 C   0  0  0  0  0  0  0  0  0  0  0  0
   60.9530   33.5580   49.4650 C   0  0  0  0  0  0  0  0  0  0  0  0
   60.8360   34.2170   50.5320 O   0  0  0  0  0  0  0  0  0  0  0  0
   61.9480   33.8450   48.4130 C   0  0  1  0  0  0  0  0  0  0  0  0
   63.3900   33.6660   48.8930 C   0  0  0  0  0  0  0  0  0  0  0  0
   64.0200   32.7550   47.8650 C   0  0  0  0  0  0  0  0  0  0  0  0
   62.8500   31.9610   47.3220 C   0  0  0  0  0  0  0  0  0  0  0  0
   61.6830   32.8540   47.3550 N   0  0  0  0  0  0  0  0  0  0  0  0
   58.4080   31.6410   46.2300 C   0  0  0  0  0  0  0  0  0  0  0  0
   58.4670   30.3130   46.6620 O   0  0  0  0  0  0  0  0  0  0  0  0
   56.8191   29.2967   43.8579 H   0  0  0  0  0  0  0  0  0  0  0  0
   55.7029   30.4458   43.0455 H   0  0  0  0  0  0  0  0  0  0  0  0
   57.4715   30.7599   43.0455 H   0  0  0  0  0  0  0  0  0  0  0  0
   56.6234   33.6986   44.1458 H   0  0  0  0  0  0  0  0  0  0  0  0
   58.3053   35.3353   44.9746 H   0  0  0  0  0  0  0  0  0  0  0  0
   60.0483   34.6302   46.6006 H   0  0  0  0  0  0  0  0  0  0  0  0
   60.5252   31.0548   47.6442 H   0  0  0  0  0  0  0  0  0  0  0  0
   58.1063   33.5028   50.6577 H   0  0  0  0  0  0  0  0  0  0  0  0
   56.6230   32.1898   52.1702 H   0  0  0  0  0  0  0  0  0  0  0  0
   58.6432   28.5495   51.0033 H   0  0  0  0  0  0  0  0  0  0  0  0
   60.1297   29.8535   49.4874 H   0  0  0  0  0  0  0  0  0  0  0  0
   61.8540   34.8908   48.0852 H   0  0  0  0  0  0  0  0  0  0  0  0
   63.9117   34.6339   48.9267 H   0  0  0  0  0  0  0  0  0  0  0  0
   63.4440   33.2501   49.9099 H   0  0  0  0  0  0  0  0  0  0  0  0
   64.5019   33.3387   47.0668 H   0  0  0  0  0  0  0  0  0  0  0  0
   64.8084   32.1156   48.2888 H   0  0  0  0  0  0  0  0  0  0  0  0
   63.0546   31.6423   46.2892 H   0  0  0  0  0  0  0  0  0  0  0  0
   62.6732   31.0559   47.9217 H   0  0  0  0  0  0  0  0  0  0  0  0
   57.8340   29.6010   46.3180 H   0  0  0  0  0  0  0  0  0  0  0  0
  1  2  1  0
  2  3  1  0
  3  4  2  0
  4  5  1  0
  5  6  2  0
  6  7  1  0
  7  8  1  0
  8  9  1  0
  9 10  1  0
 10 11  2  0
 11 12  1  0
 12 13  2  0
 13 14  1  0
 13 15  1  0
 15 16  2  0
  9 17  1  0
 17 18  2  0
 17 19  1  0
 19 20  1  0
 20 21  1  0
 21 22  1  0
 22 23  1  0
  7 24  2  0
 24 25  1  0
 24  3  1  0
 23  8  1  0
 16 10  1  0
 23 19  1  0
  1 26  1  0
  1 27  1  0
  1 28  1  0
  4 29  1  0
  5 30  1  0
  6 31  1  0
  8 32  1  1
 11 33  1  0
 12 34  1  0
 15 35  1  0
 16 36  1  0
 19 37  1  6
 20 38  1  0
 20 39  1  0
 21 40  1  0
 21 41  1  0
 22 42  1  0
 22 43  1  0
 25 44  1  0
M  END
>  <UniqueID>  (5) 
5

>  <SMILES>  (5) 
COc1cccc([C@@H]2N(c3ccc(Cl)cc3)C(=O)[C@H]3CCCN32)c1O

>  <Energy>  (5) 
63.87713947164286

>  <Genealogy>  (5) 
COc1cccc([C@@H]2N(c3ccc(Cl)cc3)C(=O)[C@H]3CCCN32)c1O (chirality)
COc1cccc([C@@H]2N(c3ccc(Cl)cc3)C(=O)[C@H]3CCCN32)c1O (3D coordinates assigned)
COc1cccc([C@@H]2N(c3ccc(Cl)cc3)C(=O)[C@H]3CCCN32)c1O (nonaromatic ring conformer: 63.87713947164286 kcal/mol)

>  <smiles>  (5) 
COc1cccc(C2N(c3ccc(Cl)cc3)C(=O)C3CCCN32)c1O

>  <score_type>  (5) 
oracle

>  <origin>  (5) 
adg

>  <m_score__min__energy>  (5) 
-7.5599999999999996

>  <m_primary>  (5) 
energy

$$$$
5:0
     RDKit          3D

 52 54  0  0  0  0  0  0  0  0999 V2000
   63.0280   33.5060   48.2150 C   0  0  0  0  0  0  0  0  0  0  0  0
   62.5550   34.2340   49.2290 C   0  0  0  0  0  0  0  0  0  0  0  0
   61.0910   34.5560   49.3680 C   0  0  0  0  0  0  0  0  0  0  0  0
   60.2640   33.6940   48.4970 N   0  0  0  0  0  0  0  0  0  0  0  0
   59.6250   32.5890   49.0120 C   0  0  0  0  0  0  0  0  0  0  0  0
   59.8430   32.0590   50.7240 S   0  0  0  0  0  0  0  0  0  0  0  0
   61.5400   31.4290   50.4760 C   0  0  0  0  0  0  0  0  0  0  0  0
   61.5100   30.1120   49.7700 C   0  0  0  0  0  0  0  0  0  0  0  0
   61.4940   29.0440   50.4410 O   0  0  0  0  0  0  0  0  0  0  0  0
   61.4900   30.0800   48.3380 N   0  0  0  0  0  0  0  0  0  0  0  0
   60.5200   29.3950   47.5320 C   0  0  0  0  0  0  0  0  0  0  0  0
   60.6350   29.4600   46.1380 C   0  0  0  0  0  0  0  0  0  0  0  0
   59.6990   28.8210   45.3180 C   0  0  0  0  0  0  0  0  0  0  0  0
   58.6480   28.0920   45.8870 C   0  0  0  0  0  0  0  0  0  0  0  0
   57.4340   27.3280   44.8680 S   0  0  0  0  0  0  0  0  0  0  0  0
   57.4090   28.1130   43.3320 N   0  0  0  0  0  0  0  0  0  0  0  0
   56.0860   27.4450   45.5210 O   0  0  0  0  0  0  0  0  0  0  0  0
   57.7580   25.8740   44.6780 O   0  0  0  0  0  0  0  0  0  0  0  0
   58.5500   27.9940   47.2820 C   0  0  0  0  0  0  0  0  0  0  0  0
   59.4850   28.6330   48.1020 C   0  0  0  0  0  0  0  0  0  0  0  0
   58.8040   31.8440   48.2290 N   0  0  0  0  0  0  0  0  0  0  0  0
   58.6190   32.1270   46.9190 C   0  0  0  0  0  0  0  0  0  0  0  0
   57.7700   31.3270   46.1460 C   0  0  0  0  0  0  0  0  0  0  0  0
   57.5850   31.5960   44.7800 C   0  0  0  0  0  0  0  0  0  0  0  0
   56.6770   30.7540   43.9700 C   0  0  0  0  0  0  0  0  0  0  0  0
   55.6850   30.1900   44.5090 O   0  0  0  0  0  0  0  0  0  0  0  0
   56.9210   30.5820   42.6050 O   0  0  0  0  0  0  0  0  0  0  0  0
   57.0370   31.6750   41.7020 C   0  0  0  0  0  0  0  0  0  0  0  0
   58.2700   32.6810   44.1990 C   0  0  0  0  0  0  0  0  0  0  0  0
   59.1130   33.4860   44.9710 C   0  0  0  0  0  0  0  0  0  0  0  0
   59.2910   33.2150   46.3400 C   0  0  0  0  0  0  0  0  0  0  0  0
   60.1200   33.9990   47.1620 C   0  0  0  0  0  0  0  0  0  0  0  0
   60.7320   34.9880   46.6630 O   0  0  0  0  0  0  0  0  0  0  0  0
   64.1047   33.2914   48.1473 H   0  0  0  0  0  0  0  0  0  0  0  0
   62.3410   33.1207   47.4471 H   0  0  0  0  0  0  0  0  0  0  0  0
   63.2574   34.6106   49.9872 H   0  0  0  0  0  0  0  0  0  0  0  0
   60.7886   34.4026   50.4144 H   0  0  0  0  0  0  0  0  0  0  0  0
   60.9366   35.6025   49.0665 H   0  0  0  0  0  0  0  0  0  0  0  0
   62.1097   32.1508   49.8723 H   0  0  0  0  0  0  0  0  0  0  0  0
   62.0178   31.2962   51.4578 H   0  0  0  0  0  0  0  0  0  0  0  0
   61.4676   30.0177   45.6843 H   0  0  0  0  0  0  0  0  0  0  0  0
   59.7890   28.8915   44.2240 H   0  0  0  0  0  0  0  0  0  0  0  0
   56.4660   28.5510   43.2270 H   0  0  0  0  0  0  0  0  0  0  0  0
   58.1020   28.8950   43.3780 H   0  0  0  0  0  0  0  0  0  0  0  0
   57.7335   27.4115   47.7337 H   0  0  0  0  0  0  0  0  0  0  0  0
   59.4107   28.5393   49.1955 H   0  0  0  0  0  0  0  0  0  0  0  0
   57.2435   30.4810   46.6118 H   0  0  0  0  0  0  0  0  0  0  0  0
   57.1364   32.6114   42.2706 H   0  0  0  0  0  0  0  0  0  0  0  0
   57.9253   31.5346   41.0686 H   0  0  0  0  0  0  0  0  0  0  0  0
   56.1390   31.7242   41.0686 H   0  0  0  0  0  0  0  0  0  0  0  0
   58.1405   32.8969   43.1282 H   0  0  0  0  0  0  0  0  0  0  0  0
   59.6385   34.3335   44.5068 H   0  0  0  0  0  0  0  0  0  0  0  0
  1  2  2  0
  2  3  1  0
  3  4  1  0
  4  5  1  0
  5  6  1  0
  6  7  1  0
  7  8  1  0
  8  9  2  0
  8 10  1  0
 10 11  1  0
 11 12  2  0
 12 13  1  0
 13 14  2  0
 14 15  1  0
 15 16  1  0
 15 17  2  0
 15 18  2  0
 14 19  1  0
 19 20  2  0
  5 21  2  0
 21 22  1  0
 22 23  2  0
 23 24  1  0
 24 25  1  0
 25 26  2  0
 25 27  1  0
 27 28  1  0
 24 29  2  0
 29 30  1  0
 30 31  2  0
 31 32  1  0
 32 33  2  0
 32  4  1  0
 20 11  1  0
 31 22  1  0
  1 34  1  0
  1 35  1  0
  2 36  1  0
  3 37  1  0
  3 38  1  0
  7 39  1  0
  7 40  1  0
 12 41  1  0
 13 42  1  0
 16 43  1  0
 16 44  1  0
 19 45  1  0
 20 46  1  0
 23 47  1  0
 28 48  1  0
 28 49  1  0
 28 50  1  0
 29 51  1  0
 30 52  1  0
M  CHG  1  10  -1
M  END
>  <UniqueID>  (6) 
6

>  <SMILES>  (6) 
C=CCn1c(SCC(=O)[N-]c2ccc(S(N)(=O)=O)cc2)nc2cc(C(=O)OC)ccc2c1=O

>  <Energy>  (6) 
54.46209374958542

>  <Genealogy>  (6) 
C=CCn1c(SCC(=O)[N-]c2ccc(S(N)(=O)=O)cc2)nc2cc(C(=O)OC)ccc2c1=O (protonated)
C=CCn1c(SCC(=O)[N-]c2ccc(S(N)(=O)=O)cc2)nc2cc(C(=O)OC)ccc2c1=O (3D coordinates assigned)
C=CCn1c(SCC(=O)[N-]c2ccc(S(N)(=O)=O)cc2)nc2cc(C(=O)OC)ccc2c1=O (optimized conformer: 54.46209374958542 kcal/mol)

>  <smiles>  (6) 
C=CCn1c(SCC(=O)Nc2ccc(S(N)(=O)=O)cc2)nc2cc(C(=O)OC)ccc2c1=O

>  <score_type>  (6) 
oracle

>  <origin>  (6) 
adg

>  <m_score__min__energy>  (6) 
-10.869999999999999

>  <m_primary>  (6) 
energy

$$$$
6:0
     RDKit          3D

 48 51  0  0  0  0  0  0  0  0999 V2000
   60.4050   28.4921   46.3516 H   0  0  0  0  0  0  0  0  0  0  0  0
   59.4090   28.9450   46.4650 C   0  0  0  0  0  0  0  0  0  0  0  0
   58.3360   28.1360   46.3140 C   0  0  0  0  0  0  0  0  0  0  0  0
   58.2590   26.7540   46.8690 C   0  0  0  0  0  0  0  0  0  0  0  0
   59.2600   26.2000   47.3950 O   0  0  0  0  0  0  0  0  0  0  0  0
   57.0450   26.0100   46.7630 N   0  0  0  0  0  0  0  0  0  0  0  0
   55.9140   26.5270   46.0630 C   0  0  0  0  0  0  0  0  0  0  0  0
   54.8570   25.8480   45.9970 O   0  0  0  0  0  0  0  0  0  0  0  0
   55.9880   27.8040   45.4300 N   0  0  0  0  0  0  0  0  0  0  0  0
   55.1630   28.1600   44.8930 H   0  0  0  0  0  0  0  0  0  0  0  0
   57.1670   28.6100   45.5270 C   0  0  0  0  0  0  0  0  0  0  0  0
   57.1920   29.7290   44.9460 O   0  0  0  0  0  0  0  0  0  0  0  0
   59.3490   30.3880   46.7700 C   0  0  0  0  0  0  0  0  0  0  0  0
   59.6160   30.8760   48.0710 C   0  0  0  0  0  0  0  0  0  0  0  0
   59.8210   29.9880   49.1890 N   0  0  0  0  0  0  0  0  0  0  0  0
   61.1880   29.6040   49.5820 C   0  0  0  0  0  0  0  0  0  0  0  0
   61.1529   28.6015   50.0335 H   0  0  0  0  0  0  0  0  0  0  0  0
   61.8071   29.6278   48.6731 H   0  0  0  0  0  0  0  0  0  0  0  0
   61.8230   30.5690   50.5890 C   0  0  0  0  0  0  0  0  0  0  0  0
   62.8149   30.1892   50.8753 H   0  0  0  0  0  0  0  0  0  0  0  0
   61.9113   31.5593   50.1183 H   0  0  0  0  0  0  0  0  0  0  0  0
   60.9830   30.6960   51.8040 N   0  0  0  0  0  0  0  0  0  0  0  0
   60.1580   31.9140   51.7280 C   0  0  0  0  0  0  0  0  0  0  0  0
   59.9226   32.2615   52.7448 H   0  0  0  0  0  0  0  0  0  0  0  0
   60.7113   32.6987   51.1912 H   0  0  0  0  0  0  0  0  0  0  0  0
   59.2240   31.6913   51.1912 H   0  0  0  0  0  0  0  0  0  0  0  0
   60.1120   29.5120   51.9830 C   0  0  0  0  0  0  0  0  0  0  0  0
   60.5799   28.6475   51.4894 H   0  0  0  0  0  0  0  0  0  0  0  0
   59.9935   29.3337   53.0620 H   0  0  0  0  0  0  0  0  0  0  0  0
   58.7200   29.7350   51.3800 C   0  0  0  0  0  0  0  0  0  0  0  0
   58.0055   29.0802   51.9004 H   0  0  0  0  0  0  0  0  0  0  0  0
   58.4771   30.8001   51.5084 H   0  0  0  0  0  0  0  0  0  0  0  0
   58.6520   29.4330   49.8800 C   0  0  0  0  0  0  0  0  0  0  0  0
   58.6275   28.3434   49.7312 H   0  0  0  0  0  0  0  0  0  0  0  0
   57.7430   29.8937   49.4659 H   0  0  0  0  0  0  0  0  0  0  0  0
   59.6810   32.2200   48.2780 N   0  0  0  0  0  0  0  0  0  0  0  0
   59.4880   33.1230   47.2820 C   0  0  0  0  0  0  0  0  0  0  0  0
   59.5570   34.4950   47.5540 C   0  0  0  0  0  0  0  0  0  0  0  0
   59.7660   34.8436   48.5762 H   0  0  0  0  0  0  0  0  0  0  0  0
   59.3600   35.4220   46.5250 C   0  0  0  0  0  0  0  0  0  0  0  0
   59.4136   36.4995   46.7395 H   0  0  0  0  0  0  0  0  0  0  0  0
   59.0950   34.9820   45.2240 C   0  0  0  0  0  0  0  0  0  0  0  0
   58.9411   35.7148   44.4182 H   0  0  0  0  0  0  0  0  0  0  0  0
   59.0250   33.6130   44.9440 C   0  0  0  0  0  0  0  0  0  0  0  0
   58.8188   33.2705   43.9192 H   0  0  0  0  0  0  0  0  0  0  0  0
   59.2180   32.6780   45.9710 C   0  0  0  0  0  0  0  0  0  0  0  0
   59.1640   31.3030   45.7230 C   0  0  0  0  0  0  0  0  0  0  0  0
   58.9757   30.9373   44.7028 H   0  0  0  0  0  0  0  0  0  0  0  0
  1  2  1  0
  2  3  2  0
  3  4  1  0
  4  5  2  0
  4  6  1  0
  6  7  1  0
  7  8  2  0
  7  9  1  0
  9 10  1  0
  9 11  1  0
 11 12  2  0
  2 13  1  0
 13 14  1  0
 14 15  1  0
 15 16  1  0
 16 17  1  0
 16 18  1  0
 16 19  1  0
 19 20  1  0
 19 21  1  0
 19 22  1  0
 22 23  1  0
 23 24  1  0
 23 25  1  0
 23 26  1  0
 22 27  1  0
 27 28  1  0
 27 29  1  0
 27 30  1  0
 30 31  1  0
 30 32  1  0
 30 33  1  0
 33 34  1  0
 33 35  1  0
 14 36  2  0
 36 37  1  0
 37 38  2  0
 38 39  1  0
 38 40  1  0
 40 41  1  0
 40 42  2  0
 42 43  1  0
 42 44  1  0
 44 45  1  0
 44 46  2  0
 46 47  1  0
 47 48  1  0
 11  3  1  0
 47 13  2  0
 33 15  1  0
 46 37  1  0
M  CHG  1   6  -1
M  END
>  <UniqueID>  (7) 
7

>  <SMILES>  (7) 
CN1CCCN(c2nc3ccccc3cc2/C=C2\C(=O)[N-]C(=O)NC2=O)CC1

>  <Energy>  (7) 
69.45093375367057

>  <Genealogy>  (7) 
CN1CCCN(c2nc3ccccc3cc2C=C2C(=O)[N-]C(=O)NC2=O)CC1 (protonated)
CN1CCCN(c2nc3ccccc3cc2/C=C2\C(=O)[N-]C(=O)NC2=O)CC1 (cis-trans isomerization)
CN1CCCN(c2nc3ccccc3cc2/C=C2\C(=O)[N-]C(=O)NC2=O)CC1 (3D coordinates assigned)
CN1CCCN(c2nc3ccccc3cc2/C=C2\C(=O)[N-]C(=O)NC2=O)CC1 (nonaromatic ring conformer: 69.45093375367057 kcal/mol)

>  <smiles>  (7) 
CN1CCCN(c2nc3ccccc3cc2C=C2C(=O)NC(=O)NC2=O)CC1

>  <score_type>  (7) 
oracle

>  <origin>  (7) 
adg

>  <m_score__min__energy>  (7) 
-8.0899999999999999

>  <m_primary>  (7) 
energy

$$$$
7:0
     RDKit          3D

 20 21  0  0  0  0  0  0  0  0999 V2000
   56.9730   26.7390   42.6350 H   0  0  0  0  0  0  0  0  0  0  0  0
   57.7700   27.2860   43.0330 N   0  0  0  0  0  0  0  0  0  0  0  0
   57.6230   28.5210   43.3860 C   0  0  0  0  0  0  0  0  0  0  0  0
   58.6130   29.3350   44.4680 S   0  0  0  0  0  0  0  0  0  0  0  0
   57.7440   30.7830   44.3380 C   0  0  0  0  0  0  0  0  0  0  0  0
   58.0580   32.0440   45.0620 C   0  0  0  0  0  0  0  0  0  0  0  0
   58.2210   32.0380   46.4620 C   0  0  0  0  0  0  0  0  0  0  0  0
   58.1152   31.0950   47.0184 H   0  0  0  0  0  0  0  0  0  0  0  0
   58.5160   33.2190   47.1510 C   0  0  0  0  0  0  0  0  0  0  0  0
   58.6402   33.2006   48.2438 H   0  0  0  0  0  0  0  0  0  0  0  0
   58.6530   34.4200   46.4550 C   0  0  0  0  0  0  0  0  0  0  0  0
   58.9390   35.5640   47.1260 F   0  0  0  0  0  0  0  0  0  0  0  0
   58.4950   34.4440   45.0680 C   0  0  0  0  0  0  0  0  0  0  0  0
   58.6037   35.3915   44.5198 H   0  0  0  0  0  0  0  0  0  0  0  0
   58.1990   33.2670   44.3740 C   0  0  0  0  0  0  0  0  0  0  0  0
   58.0750   33.2951   43.2814 H   0  0  0  0  0  0  0  0  0  0  0  0
   56.6930   30.5670   43.4360 C   0  0  0  0  0  0  0  0  0  0  0  0
   55.9699   31.3518   43.1694 H   0  0  0  0  0  0  0  0  0  0  0  0
   56.6370   29.3110   42.9160 N   0  0  0  0  0  0  0  0  0  0  0  0
   55.9130   29.0000   42.2310 H   0  0  0  0  0  0  0  0  0  0  0  0
  1  2  1  0
  2  3  2  0
  3  4  1  0
  4  5  1  0
  5  6  1  0
  6  7  2  0
  7  8  1  0
  7  9  1  0
  9 10  1  0
  9 11  2  0
 11 12  1  0
 11 13  1  0
 13 14  1  0
 13 15  2  0
 15 16  1  0
  5 17  2  0
 17 18  1  0
 17 19  1  0
 19 20  1  0
 19  3  1  0
 15  6  1  0
M  END
>  <UniqueID>  (8) 
8

>  <SMILES>  (8) 
[H]/N=c1/[nH]cc(-c2ccc(F)cc2)s1

>  <Energy>  (8) 
53.08974296132338

>  <Genealogy>  (8) 
[H]/N=c1/[nH]cc(-c2ccc(F)cc2)s1 (cis-trans isomerization)
[H]/N=c1/[nH]cc(-c2ccc(F)cc2)s1 (3D coordinates assigned)
[H]/N=c1/[nH]cc(-c2ccc(F)cc2)s1 (optimized conformer: 53.08974296132338 kcal/mol)

>  <smiles>  (8) 
N=c1[nH]cc(-c2ccc(F)cc2)s1

>  <score_type>  (8) 
oracle

>  <origin>  (8) 
adg

>  <m_score__min__energy>  (8) 
-5.3399999999999999

>  <m_primary>  (8) 
energy

$$$$
8:0
     RDKit          3D

 44 48  0  0  1  0  0  0  0  0999 V2000
   58.8980   34.7570   46.1100 C   0  0  0  0  0  0  0  0  0  0  0  0
   59.4440   34.4970   44.8710 C   0  0  0  0  0  0  0  0  0  0  0  0
   58.8900   33.4640   44.1550 C   0  0  0  0  0  0  0  0  0  0  0  0
   57.8370   32.7380   44.6730 C   0  0  0  0  0  0  0  0  0  0  0  0
   57.2110   31.6010   43.8570 C   0  0  0  0  0  0  0  0  0  0  0  0
   56.9460   30.6600   44.8680 N   0  0  0  0  0  0  0  0  0  0  0  0
   57.5300   29.5870   45.0860 C   0  0  0  0  0  0  0  0  0  0  0  0
   57.0560   28.4680   44.4970 N   0  0  0  0  0  0  0  0  0  0  0  0
   57.5910   27.2490   44.6610 C   0  0  0  0  0  0  0  0  0  0  0  0
   58.6600   27.1370   45.4580 N   0  0  0  0  0  0  0  0  0  0  0  0
   59.1540   28.2290   46.0550 C   0  0  0  0  0  0  0  0  0  0  0  0
   60.2620   28.0420   46.8660 C   0  0  0  0  0  0  0  0  0  0  0  0
   60.7600   29.1540   47.4700 C   0  0  0  0  0  0  0  0  0  0  0  0
   60.2530   30.4050   47.3310 C   0  0  0  0  0  0  0  0  0  0  0  0
   60.8770   31.5180   48.0360 C   0  0  0  0  0  0  0  0  0  0  0  0
   60.1460   32.5670   48.5530 C   0  0  0  0  0  0  0  0  0  0  0  0
   60.7510   33.6290   49.2290 C   0  0  0  0  0  0  0  0  0  0  0  0
   62.1180   33.6350   49.3880 C   0  0  0  0  0  0  0  0  0  0  0  0
   62.8860   32.5890   48.8780 C   0  0  0  0  0  0  0  0  0  0  0  0
   62.2640   31.5520   48.2140 C   0  0  0  0  0  0  0  0  0  0  0  0
   64.2150   32.8870   49.2000 O   0  0  0  0  0  0  0  0  0  0  0  0
   64.2250   33.8190   50.2900 C   0  0  0  0  0  0  0  0  0  0  0  0
   63.0220   34.5260   50.0000 O   0  0  0  0  0  0  0  0  0  0  0  0
   59.1170   30.6130   46.5030 C   0  0  0  0  0  0  0  0  0  0  0  0
   58.6230   29.5010   45.9040 C   0  0  0  0  0  0  0  0  0  0  0  0
   57.3160   33.0360   45.9330 C   0  0  0  0  0  0  0  0  0  0  0  0
   57.8590   34.0670   46.6640 C   0  0  0  0  0  0  0  0  0  0  0  0
   59.3318   35.5813   46.6951 H   0  0  0  0  0  0  0  0  0  0  0  0
   60.2828   35.0883   44.4750 H   0  0  0  0  0  0  0  0  0  0  0  0
   59.2888   33.2135   43.1609 H   0  0  0  0  0  0  0  0  0  0  0  0
   56.2877   31.9251   43.3546 H   0  0  0  0  0  0  0  0  0  0  0  0
   57.8466   31.2243   43.0420 H   0  0  0  0  0  0  0  0  0  0  0  0
   56.2240   28.5320   43.8740 H   0  0  0  0  0  0  0  0  0  0  0  0
   57.1646   26.3695   44.1564 H   0  0  0  0  0  0  0  0  0  0  0  0
   60.7134   27.0497   47.0130 H   0  0  0  0  0  0  0  0  0  0  0  0
   61.6391   29.0302   48.1195 H   0  0  0  0  0  0  0  0  0  0  0  0
   59.0530   32.5673   48.4292 H   0  0  0  0  0  0  0  0  0  0  0  0
   60.1412   34.4520   49.6301 H   0  0  0  0  0  0  0  0  0  0  0  0
   62.8752   30.7297   47.8137 H   0  0  0  0  0  0  0  0  0  0  0  0
   64.1790   33.3118   51.2650 H   0  0  0  0  0  0  0  0  0  0  0  0
   65.1287   34.4413   50.3681 H   0  0  0  0  0  0  0  0  0  0  0  0
   58.6692   31.6072   46.3579 H   0  0  0  0  0  0  0  0  0  0  0  0
   56.4775   32.4508   46.3385 H   0  0  0  0  0  0  0  0  0  0  0  0
   57.4696   34.3261   47.6596 H   0  0  0  0  0  0  0  0  0  0  0  0
  1  2  2  0
  2  3  1  0
  3  4  2  0
  4  5  1  0
  5  6  1  0
  6  7  2  0
  7  8  1  0
  8  9  1  0
  9 10  2  0
 10 11  1  0
 11 12  2  0
 12 13  1  0
 13 14  2  0
 14 15  1  0
 15 16  2  0
 16 17  1  0
 17 18  2  0
 18 19  1  0
 19 20  2  0
 19 21  1  0
 21 22  1  0
 22 23  1  0
 14 24  1  0
 24 25  2  0
  4 26  1  0
 26 27  2  0
 27  1  1  0
 25  7  1  0
 25 11  1  0
 20 15  1  0
 23 18  1  0
  1 28  1  0
  2 29  1  0
  3 30  1  0
  5 31  1  0
  5 32  1  0
  8 33  1  0
  9 34  1  0
 12 35  1  0
 13 36  1  0
 16 37  1  0
 17 38  1  0
 20 39  1  0
 22 40  1  0
 22 41  1  0
 24 42  1  0
 26 43  1  0
 27 44  1  0
M  END
>  <smiles>  (9) 
c1ccc(CN=c2[nH]cnc3ccc(-c4ccc5c(c4)OCO5)cc23)cc1

>  <score_type>  (9) 
oracle

>  <origin>  (9) 
adg

>  <m_score__min__energy>  (9) 
-8.5399999999999991

>  <m_primary>  (9) 
energy

$$$$
9:0
     RDKit          3D

 34 36  0  0  0  0  0  0  0  0999 V2000
   58.7420   24.6450   46.4200 O   0  0  0  0  0  0  0  0  0  0  0  0
   58.3670   25.7730   46.8420 C   0  0  0  0  0  0  0  0  0  0  0  0
   59.3810   26.7840   47.2750 C   0  0  0  0  0  0  0  0  0  0  0  0
   58.5810   28.2660   47.9890 S   0  0  0  0  0  0  0  0  0  0  0  0
   58.1550   29.0020   46.4090 C   0  0  0  0  0  0  0  0  0  0  0  0
   58.7700   30.1160   45.9300 N   0  0  0  0  0  0  0  0  0  0  0  0
   58.0920   30.3590   44.7940 C   0  0  0  0  0  0  0  0  0  0  0  0
   58.2700   31.4160   43.9070 C   0  0  0  0  0  0  0  0  0  0  0  0
   57.4030   31.4930   42.7990 C   0  0  0  0  0  0  0  0  0  0  0  0
   56.3900   30.5240   42.6150 C   0  0  0  0  0  0  0  0  0  0  0  0
   56.2360   29.4690   43.5350 C   0  0  0  0  0  0  0  0  0  0  0  0
   57.1170   29.4230   44.6130 C   0  0  0  0  0  0  0  0  0  0  0  0
   57.1460   28.5500   45.6260 N   0  0  0  0  0  0  0  0  0  0  0  0
   56.9760   26.0840   46.9790 N   0  0  0  0  0  0  0  0  0  0  0  0
   55.9270   25.6630   46.1020 C   0  0  0  0  0  0  0  0  0  0  0  0
   54.8650   26.3390   46.0190 O   0  0  0  0  0  0  0  0  0  0  0  0
   56.1150   24.4770   45.2320 C   0  0  0  0  0  0  0  0  0  0  0  0
   55.5270   23.2590   45.6210 C   0  0  0  0  0  0  0  0  0  0  0  0
   55.6230   22.1270   44.8090 C   0  0  0  0  0  0  0  0  0  0  0  0
   56.3150   22.1910   43.6010 C   0  0  0  0  0  0  0  0  0  0  0  0
   56.9200   23.3840   43.2060 C   0  0  0  0  0  0  0  0  0  0  0  0
   56.8300   24.5290   44.0080 C   0  0  0  0  0  0  0  0  0  0  0  0
   57.7690   26.0880   43.3940 Br  0  0  0  0  0  0  0  0  0  0  0  0
   60.0372   26.3311   48.0328 H   0  0  0  0  0  0  0  0  0  0  0  0
   59.9603   27.0938   46.3927 H   0  0  0  0  0  0  0  0  0  0  0  0
   59.0598   32.1652   44.0652 H   0  0  0  0  0  0  0  0  0  0  0  0
   57.5149   32.3117   42.0730 H   0  0  0  0  0  0  0  0  0  0  0  0
   55.7176   30.5947   41.7473 H   0  0  0  0  0  0  0  0  0  0  0  0
   55.4500   28.7102   43.4072 H   0  0  0  0  0  0  0  0  0  0  0  0
   56.5130   27.7370   45.7970 H   0  0  0  0  0  0  0  0  0  0  0  0
   54.9852   23.1980   46.5763 H   0  0  0  0  0  0  0  0  0  0  0  0
   55.1520   21.1839   45.1231 H   0  0  0  0  0  0  0  0  0  0  0  0
   56.3841   21.3005   42.9590 H   0  0  0  0  0  0  0  0  0  0  0  0
   57.4729   23.4262   42.2560 H   0  0  0  0  0  0  0  0  0  0  0  0
  1  2  2  0
  2  3  1  0
  3  4  1  0
  4  5  1  0
  5  6  2  0
  6  7  1  0
  7  8  2  0
  8  9  1  0
  9 10  2  0
 10 11  1  0
 11 12  2  0
 12 13  1  0
  2 14  1  0
 14 15  1  0
 15 16  2  0
 15 17  1  0
 17 18  2  0
 18 19  1  0
 19 20  2  0
 20 21  1  0
 21 22  2  0
 22 23  1  0
 13  5  1  0
 22 17  1  0
 12  7  1  0
  3 24  1  0
  3 25  1  0
  8 26  1  0
  9 27  1  0
 10 28  1  0
 11 29  1  0
 13 30  1  0
 18 31  1  0
 19 32  1  0
 20 33  1  0
 21 34  1  0
M  CHG  1  14  -1
M  END
>  <UniqueID>  (10) 
9

>  <SMILES>  (10) 
O=C(CSc1nc2ccccc2[nH]1)[N-]C(=O)c1ccccc1Br

>  <Energy>  (10) 
68.87519435153084

>  <Genealogy>  (10) 
O=C(CSc1nc2ccccc2[nH]1)[N-]C(=O)c1ccccc1Br (protonated)
O=C(CSc1nc2ccccc2[nH]1)[N-]C(=O)c1ccccc1Br (3D coordinates assigned)
O=C(CSc1nc2ccccc2[nH]1)[N-]C(=O)c1ccccc1Br (optimized conformer: 68.87519435153084 kcal/mol)

>  <smiles>  (10) 
O=C(CSc1nc2ccccc2[nH]1)NC(=O)c1ccccc1Br

>  <score_type>  (10) 
oracle

>  <origin>  (10) 
adg

>  <m_score__min__energy>  (10) 
-11.08

>  <m_primary>  (10) 
energy

$$$$
10:0
     RDKit          3D

 44 46  0  0  0  0  0  0  0  0999 V2000
   54.8740   26.3550   46.0030 O   0  0  0  0  0  0  0  0  0  0  0  0
   55.9200   27.0260   45.8040 C   0  0  0  0  0  0  0  0  0  0  0  0
   55.8280   28.2960   45.2470 O   0  0  0  0  0  0  0  0  0  0  0  0
   57.2620   26.4420   46.1190 C   0  0  0  0  0  0  0  0  0  0  0  0
   58.3960   27.2760   45.5090 C   0  0  0  0  0  0  0  0  0  0  0  0
   58.7990   28.3690   46.4110 N   0  0  0  0  0  0  0  0  0  0  0  0
   58.7270   29.6570   45.9620 C   0  0  0  0  0  0  0  0  0  0  0  0
   59.0620   30.7340   46.7940 C   0  0  0  0  0  0  0  0  0  0  0  0
   58.9550   32.1200   46.2760 C   0  0  0  0  0  0  0  0  0  0  0  0
   60.0170   33.0300   46.4340 C   0  0  0  0  0  0  0  0  0  0  0  0
   59.9060   34.3360   45.9490 C   0  0  0  0  0  0  0  0  0  0  0  0
   58.7360   34.7490   45.3050 C   0  0  0  0  0  0  0  0  0  0  0  0
   57.6740   33.8550   45.1500 C   0  0  0  0  0  0  0  0  0  0  0  0
   57.7790   32.5470   45.6330 C   0  0  0  0  0  0  0  0  0  0  0  0
   59.4900   30.4680   48.1050 C   0  0  0  0  0  0  0  0  0  0  0  0
   59.7940   31.4210   48.8750 O   0  0  0  0  0  0  0  0  0  0  0  0
   59.5780   29.1390   48.5590 C   0  0  0  0  0  0  0  0  0  0  0  0
   60.0520   28.8310   49.9320 C   0  0  0  0  0  0  0  0  0  0  0  0
   61.0820   28.1230   50.0840 O   0  0  0  0  0  0  0  0  0  0  0  0
   59.3410   29.2700   51.0990 N   0  0  0  0  0  0  0  0  0  0  0  0
   59.0350   30.6280   51.4460 C   0  0  0  0  0  0  0  0  0  0  0  0
   60.0250   31.5190   51.8990 C   0  0  0  0  0  0  0  0  0  0  0  0
   59.6880   32.8350   52.2330 C   0  0  0  0  0  0  0  0  0  0  0  0
   58.3620   33.2690   52.1340 C   0  0  0  0  0  0  0  0  0  0  0  0
   58.0410   34.5830   52.4660 O   0  0  0  0  0  0  0  0  0  0  0  0
   57.3690   32.3770   51.7060 C   0  0  0  0  0  0  0  0  0  0  0  0
   57.7050   31.0610   51.3730 C   0  0  0  0  0  0  0  0  0  0  0  0
   59.2100   28.0960   47.6890 C   0  0  0  0  0  0  0  0  0  0  0  0
   59.2840   26.7760   48.1300 O   0  0  0  0  0  0  0  0  0  0  0  0
   57.3901   26.4093   47.2110 H   0  0  0  0  0  0  0  0  0  0  0  0
   57.3077   25.4307   45.6886 H   0  0  0  0  0  0  0  0  0  0  0  0
   59.2627   26.6237   45.3263 H   0  0  0  0  0  0  0  0  0  0  0  0
   58.0364   27.7165   44.5674 H   0  0  0  0  0  0  0  0  0  0  0  0
   58.4005   29.8523   44.9299 H   0  0  0  0  0  0  0  0  0  0  0  0
   60.9393   32.7116   46.9419 H   0  0  0  0  0  0  0  0  0  0  0  0
   60.7413   35.0407   46.0743 H   0  0  0  0  0  0  0  0  0  0  0  0
   58.6518   35.7763   44.9209 H   0  0  0  0  0  0  0  0  0  0  0  0
   56.7520   34.1810   44.6463 H   0  0  0  0  0  0  0  0  0  0  0  0
   56.9381   31.8487   45.5096 H   0  0  0  0  0  0  0  0  0  0  0  0
   61.0674   31.1798   51.9909 H   0  0  0  0  0  0  0  0  0  0  0  0
   60.4684   33.5308   52.5746 H   0  0  0  0  0  0  0  0  0  0  0  0
   58.3990   35.3660   51.9310 H   0  0  0  0  0  0  0  0  0  0  0  0
   56.3241   32.7126   51.6320 H   0  0  0  0  0  0  0  0  0  0  0  0
   56.9195   30.3612   51.0516 H   0  0  0  0  0  0  0  0  0  0  0  0
  1  2  2  0
  2  3  1  0
  2  4  1  0
  4  5  1  0
  5  6  1  0
  6  7  1  0
  7  8  2  0
  8  9  1  0
  9 10  2  0
 10 11  1  0
 11 12  2  0
 12 13  1  0
 13 14  2  0
  8 15  1  0
 15 16  2  0
 15 17  1  0
 17 18  1  0
 18 19  2  0
 18 20  1  0
 20 21  1  0
 21 22  2  0
 22 23  1  0
 23 24  2  0
 24 25  1  0
 24 26  1  0
 26 27  2  0
 17 28  2  0
 28 29  1  0
 28  6  1  0
 14  9  1  0
 27 21  1  0
  4 30  1  0
  4 31  1  0
  5 32  1  0
  5 33  1  0
  7 34  1  0
 10 35  1  0
 11 36  1  0
 12 37  1  0
 13 38  1  0
 14 39  1  0
 22 40  1  0
 23 41  1  0
 25 42  1  0
 26 43  1  0
 27 44  1  0
M  CHG  3   3  -1  20  -1  29  -1
M  END
>  <UniqueID>  (11) 
10

>  <SMILES>  (11) 
O=C([O-])CCn1cc(-c2ccccc2)c(=O)c(C(=O)[N-]c2ccc(O)cc2)c1[O-]

>  <Energy>  (11) 
61.332159782087054

>  <Genealogy>  (11) 
O=C([O-])CCn1cc(-c2ccccc2)c(=O)c(C(=O)[N-]c2ccc(O)cc2)c1[O-] (protonated)
O=C([O-])CCn1cc(-c2ccccc2)c(=O)c(C(=O)[N-]c2ccc(O)cc2)c1[O-] (3D coordinates assigned)
O=C([O-])CCn1cc(-c2ccccc2)c(=O)c(C(=O)[N-]c2ccc(O)cc2)c1[O-] (optimized conformer: 61.332159782087054 kcal/mol)

>  <smiles>  (11) 
O=C(O)CCn1cc(-c2ccccc2)c(=O)c(C(=O)Nc2ccc(O)cc2)c1O

>  <score_type>  (11) 
oracle

>  <origin>  (11) 
adg

>  <m_score__min__energy>  (11) 
-13.49

>  <m_primary>  (11) 
energy

$$$$
11:0
     RDKit          3D

 57 59  0  0  0  0  0  0  0  0999 V2000
   56.2540   25.2800   46.3460 C   0  0  0  0  0  0  0  0  0  0  0  0
   56.8690   26.2820   45.4890 N   0  0  0  0  0  0  0  0  0  0  0  0
   58.2520   26.6360   45.6150 C   0  0  0  0  0  0  0  0  0  0  0  0
   58.9850   26.0490   46.4550 O   0  0  0  0  0  0  0  0  0  0  0  0
   58.8430   27.6840   44.7260 C   0  0  0  0  0  0  0  0  0  0  0  0
   57.9890   28.9080   44.7410 C   0  0  0  0  0  0  0  0  0  0  0  0
   56.6420   28.8760   44.8180 N   0  0  0  0  0  0  0  0  0  0  0  0
   56.0890   30.0860   44.8730 N   0  0  0  0  0  0  0  0  0  0  0  0
   56.9970   31.0860   44.8630 C   0  0  0  0  0  0  0  0  0  0  0  0
   56.6530   32.3400   44.8810 N   0  0  0  0  0  0  0  0  0  0  0  0
   57.4630   33.4120   45.3810 C   0  0  0  0  0  0  0  0  0  0  0  0
   57.3360   34.5550   44.8640 O   0  0  0  0  0  0  0  0  0  0  0  0
   58.3890   33.2270   46.5260 C   0  0  0  0  0  0  0  0  0  0  0  0
   59.7500   33.5540   46.3960 C   0  0  0  0  0  0  0  0  0  0  0  0
   60.6310   33.3760   47.4730 C   0  0  0  0  0  0  0  0  0  0  0  0
   62.0910   33.7150   47.3140 C   0  0  0  0  0  0  0  0  0  0  0  0
   62.9350   32.7320   48.0250 N   0  0  0  0  0  0  0  0  0  0  0  0
   63.3310   31.6340   47.1260 C   0  0  0  0  0  0  0  0  0  0  0  0
   64.1390   33.3930   48.5500 C   0  0  0  0  0  0  0  0  0  0  0  0
   60.1420   32.9010   48.6980 C   0  0  0  0  0  0  0  0  0  0  0  0
   58.7790   32.6060   48.8520 C   0  0  0  0  0  0  0  0  0  0  0  0
   58.2540   32.1320   50.0990 N   0  0  0  0  0  0  0  0  0  0  0  0
   58.1250   30.7530   50.4750 C   0  0  0  0  0  0  0  0  0  0  0  0
   57.2600   30.4400   51.3350 O   0  0  0  0  0  0  0  0  0  0  0  0
   59.0110   29.7060   49.9150 C   0  0  0  0  0  0  0  0  0  0  0  0
   59.0480   29.4790   48.5290 C   0  0  0  0  0  0  0  0  0  0  0  0
   59.8980   28.5070   47.9940 C   0  0  0  0  0  0  0  0  0  0  0  0
   60.7060   27.7400   48.8360 C   0  0  0  0  0  0  0  0  0  0  0  0
   60.6620   27.9330   50.2230 C   0  0  0  0  0  0  0  0  0  0  0  0
   61.5520   27.1180   51.1150 C   0  0  0  0  0  0  0  0  0  0  0  0
   59.8210   28.9220   50.7580 C   0  0  0  0  0  0  0  0  0  0  0  0
   57.9130   32.7520   47.7630 C   0  0  0  0  0  0  0  0  0  0  0  0
   58.5750   30.4880   44.7660 S   0  0  0  0  0  0  0  0  0  0  0  0
   56.4186   25.5481   47.4001 H   0  0  0  0  0  0  0  0  0  0  0  0
   55.1738   25.2370   46.1430 H   0  0  0  0  0  0  0  0  0  0  0  0
   56.7047   24.2973   46.1430 H   0  0  0  0  0  0  0  0  0  0  0  0
   56.2820   26.7530   44.7650 H   0  0  0  0  0  0  0  0  0  0  0  0
   59.8513   27.9391   45.0842 H   0  0  0  0  0  0  0  0  0  0  0  0
   58.8989   27.2957   43.6983 H   0  0  0  0  0  0  0  0  0  0  0  0
   60.1270   33.9525   45.4425 H   0  0  0  0  0  0  0  0  0  0  0  0
   62.3494   33.7067   46.2448 H   0  0  0  0  0  0  0  0  0  0  0  0
   62.2716   34.7120   47.7421 H   0  0  0  0  0  0  0  0  0  0  0  0
   63.6443   30.7654   47.7239 H   0  0  0  0  0  0  0  0  0  0  0  0
   62.4773   31.3537   46.4914 H   0  0  0  0  0  0  0  0  0  0  0  0
   64.1671   31.9631   46.4914 H   0  0  0  0  0  0  0  0  0  0  0  0
   64.1146   33.3796   49.6496 H   0  0  0  0  0  0  0  0  0  0  0  0
   65.0338   32.8596   48.1965 H   0  0  0  0  0  0  0  0  0  0  0  0
   64.1693   34.4342   48.1965 H   0  0  0  0  0  0  0  0  0  0  0  0
   60.8311   32.7587   49.5435 H   0  0  0  0  0  0  0  0  0  0  0  0
   58.4041   30.0698   47.8609 H   0  0  0  0  0  0  0  0  0  0  0  0
   59.9306   28.3457   46.9064 H   0  0  0  0  0  0  0  0  0  0  0  0
   61.3791   26.9820   48.4090 H   0  0  0  0  0  0  0  0  0  0  0  0
   61.3148   27.3352   52.1669 H   0  0  0  0  0  0  0  0  0  0  0  0
   61.3902   26.0483   50.9160 H   0  0  0  0  0  0  0  0  0  0  0  0
   62.6033   27.3731   50.9160 H   0  0  0  0  0  0  0  0  0  0  0  0
   59.7949   29.0856   51.8455 H   0  0  0  0  0  0  0  0  0  0  0  0
   56.8497   32.4931   47.8743 H   0  0  0  0  0  0  0  0  0  0  0  0
  1  2  1  0
  2  3  1  0
  3  4  2  0
  3  5  1  0
  5  6  1  0
  6  7  2  0
  7  8  1  0
  8  9  1  0
  9 10  2  3
 10 11  1  0
 11 12  2  0
 11 13  1  0
 13 14  2  0
 14 15  1  0
 15 16  1  0
 16 17  1  0
 17 18  1  0
 17 19  1  0
 15 20  2  0
 20 21  1  0
 21 22  1  0
 22 23  1  0
 23 24  2  0
 23 25  1  0
 25 26  2  0
 26 27  1  0
 27 28  2  0
 28 29  1  0
 29 30  1  0
 29 31  2  0
 21 32  2  0
  9 33  1  0
 33  6  1  0
 32 13  1  0
 31 25  1  0
  1 34  1  0
  1 35  1  0
  1 36  1  0
  2 37  1  0
  5 38  1  0
  5 39  1  0
 14 40  1  0
 16 41  1  0
 16 42  1  0
 18 43  1  0
 18 44  1  0
 18 45  1  0
 19 46  1  0
 19 47  1  0
 19 48  1  0
 20 49  1  0
 26 50  1  0
 27 51  1  0
 28 52  1  0
 30 53  1  0
 30 54  1  0
 30 55  1  0
 31 56  1  0
 32 57  1  0
M  CHG  2   8  -1  22  -1
M  END
>  <UniqueID>  (12) 
11

>  <SMILES>  (12) 
CNC(=O)Cc1n[n-]c(=NC(=O)c2cc(CN(C)C)cc([N-]C(=O)c3cccc(C)c3)c2)s1

>  <Energy>  (12) 
98.2596487371071

>  <Genealogy>  (12) 
CNC(=O)Cc1n[n-]c(=NC(=O)c2cc(CN(C)C)cc([N-]C(=O)c3cccc(C)c3)c2)s1 (protonated)
CNC(=O)Cc1n[n-]c(=NC(=O)c2cc(CN(C)C)cc([N-]C(=O)c3cccc(C)c3)c2)s1 (3D coordinates assigned)
CNC(=O)Cc1n[n-]c(=NC(=O)c2cc(CN(C)C)cc([N-]C(=O)c3cccc(C)c3)c2)s1 (optimized conformer: 98.2596487371071 kcal/mol)

>  <smiles>  (12) 
CNC(=O)Cc1n[nH]c(=NC(=O)c2cc(CN(C)C)cc(NC(=O)c3cccc(C)c3)c2)s1

>  <score_type>  (12) 
oracle

>  <origin>  (12) 
adg

>  <m_score__min__energy>  (12) 
-12.140000000000001

>  <m_primary>  (12) 
energy

$$$$
12:0
     RDKit          3D

 49 52  0  0  0  0  0  0  0  0999 V2000
   59.2610   27.8530   48.4760 C   0  0  0  0  0  0  0  0  0  0  0  0
   59.7950   28.2490   47.1380 C   0  0  0  0  0  0  0  0  0  0  0  0
   60.7700   27.6230   46.6460 O   0  0  0  0  0  0  0  0  0  0  0  0
   59.2300   29.4110   46.4120 C   0  0  0  0  0  0  0  0  0  0  0  0
   58.2420   29.1980   45.4220 C   0  0  0  0  0  0  0  0  0  0  0  0
   57.7780   27.7930   45.0760 C   0  0  0  0  0  0  0  0  0  0  0  0
   56.6620   27.4010   45.9280 N   0  0  0  0  0  0  0  0  0  0  0  0
   55.9390   26.1720   45.7840 C   0  0  0  0  0  0  0  0  0  0  0  0
   54.6970   26.1530   46.0050 O   0  0  0  0  0  0  0  0  0  0  0  0
   56.6380   24.9260   45.3770 C   0  0  0  0  0  0  0  0  0  0  0  0
   56.1380   24.1650   44.3000 C   0  0  0  0  0  0  0  0  0  0  0  0
   56.7820   22.9930   43.8960 C   0  0  0  0  0  0  0  0  0  0  0  0
   57.9330   22.5630   44.5570 C   0  0  0  0  0  0  0  0  0  0  0  0
   58.4420   23.3040   45.6250 C   0  0  0  0  0  0  0  0  0  0  0  0
   57.8040   24.4790   46.0380 C   0  0  0  0  0  0  0  0  0  0  0  0
   58.3380   25.1690   47.0780 F   0  0  0  0  0  0  0  0  0  0  0  0
   57.7180   30.3050   44.7340 C   0  0  0  0  0  0  0  0  0  0  0  0
   56.8390   30.1360   43.8430 O   0  0  0  0  0  0  0  0  0  0  0  0
   58.1720   31.5990   45.0310 C   0  0  0  0  0  0  0  0  0  0  0  0
   57.6570   32.7200   44.3490 C   0  0  0  0  0  0  0  0  0  0  0  0
   58.1100   34.0030   44.6470 C   0  0  0  0  0  0  0  0  0  0  0  0
   59.0820   34.1900   45.6270 C   0  0  0  0  0  0  0  0  0  0  0  0
   59.6500   35.8090   45.9980 Cl  0  0  0  0  0  0  0  0  0  0  0  0
   59.6070   33.0930   46.3130 C   0  0  0  0  0  0  0  0  0  0  0  0
   59.1630   31.7770   46.0290 C   0  0  0  0  0  0  0  0  0  0  0  0
   59.6710   30.6830   46.6970 N   0  0  0  0  0  0  0  0  0  0  0  0
   60.6770   30.8570   47.7160 C   0  0  0  0  0  0  0  0  0  0  0  0
   61.9830   31.2280   47.3610 C   0  0  0  0  0  0  0  0  0  0  0  0
   62.9580   31.3900   48.3490 C   0  0  0  0  0  0  0  0  0  0  0  0
   62.6330   31.1840   49.6940 C   0  0  0  0  0  0  0  0  0  0  0  0
   61.3330   30.8140   50.0520 C   0  0  0  0  0  0  0  0  0  0  0  0
   60.3550   30.6520   49.0650 C   0  0  0  0  0  0  0  0  0  0  0  0
   59.8760   28.3090   49.2658 H   0  0  0  0  0  0  0  0  0  0  0  0
   58.2220   28.2006   48.5736 H   0  0  0  0  0  0  0  0  0  0  0  0
   59.2919   26.7578   48.5736 H   0  0  0  0  0  0  0  0  0  0  0  0
   57.4575   27.7661   44.0241 H   0  0  0  0  0  0  0  0  0  0  0  0
   58.6114   27.0930   45.2358 H   0  0  0  0  0  0  0  0  0  0  0  0
   55.2317   24.4977   43.7728 H   0  0  0  0  0  0  0  0  0  0  0  0
   56.3809   22.4081   43.0552 H   0  0  0  0  0  0  0  0  0  0  0  0
   58.4392   21.6404   44.2367 H   0  0  0  0  0  0  0  0  0  0  0  0
   59.3494   22.9625   46.1446 H   0  0  0  0  0  0  0  0  0  0  0  0
   56.8895   32.5801   43.5735 H   0  0  0  0  0  0  0  0  0  0  0  0
   57.6997   34.8695   44.1078 H   0  0  0  0  0  0  0  0  0  0  0  0
   60.3753   33.2520   47.0840 H   0  0  0  0  0  0  0  0  0  0  0  0
   62.2396   31.3915   46.3039 H   0  0  0  0  0  0  0  0  0  0  0  0
   63.9816   31.6797   48.0689 H   0  0  0  0  0  0  0  0  0  0  0  0
   63.4010   31.3132   50.4708 H   0  0  0  0  0  0  0  0  0  0  0  0
   61.0793   30.6503   51.1098 H   0  0  0  0  0  0  0  0  0  0  0  0
   59.3319   30.3634   49.3477 H   0  0  0  0  0  0  0  0  0  0  0  0
  1  2  1  0
  2  3  2  0
  2  4  1  0
  4  5  2  0
  5  6  1  0
  6  7  1  0
  7  8  1  0
  8  9  2  0
  8 10  1  0
 10 11  2  0
 11 12  1  0
 12 13  2  0
 13 14  1  0
 14 15  2  0
 15 16  1  0
  5 17  1  0
 17 18  2  0
 17 19  1  0
 19 20  2  0
 20 21  1  0
 21 22  2  0
 22 23  1  0
 22 24  1  0
 24 25  2  0
 25 26  1  0
 26 27  1  0
 27 28  2  0
 28 29  1  0
 29 30  2  0
 30 31  1  0
 31 32  2  0
 26  4  1  0
 32 27  1  0
 15 10  1  0
 25 19  1  0
  1 33  1  0
  1 34  1  0
  1 35  1  0
  6 36  1  0
  6 37  1  0
 11 38  1  0
 12 39  1  0
 13 40  1  0
 14 41  1  0
 20 42  1  0
 21 43  1  0
 24 44  1  0
 28 45  1  0
 29 46  1  0
 30 47  1  0
 31 48  1  0
 32 49  1  0
M  CHG  1   7  -1
M  END
>  <UniqueID>  (13) 
12

>  <SMILES>  (13) 
CC(=O)c1c(C[N-]C(=O)c2ccccc2F)c(=O)c2ccc(Cl)cc2n1-c1ccccc1

>  <Energy>  (13) 
78.81175939927861

>  <Genealogy>  (13) 
CC(=O)c1c(C[N-]C(=O)c2ccccc2F)c(=O)c2ccc(Cl)cc2n1-c1ccccc1 (protonated)
CC(=O)c1c(C[N-]C(=O)c2ccccc2F)c(=O)c2ccc(Cl)cc2n1-c1ccccc1 (3D coordinates assigned)
CC(=O)c1c(C[N-]C(=O)c2ccccc2F)c(=O)c2ccc(Cl)cc2n1-c1ccccc1 (optimized conformer: 78.81175939927861 kcal/mol)

>  <smiles>  (13) 
CC(=O)c1c(CNC(=O)c2ccccc2F)c(=O)c2ccc(Cl)cc2n1-c1ccccc1

>  <score_type>  (13) 
oracle

>  <origin>  (13) 
adg

>  <m_score__min__energy>  (13) 
-11.609999999999999

>  <m_primary>  (13) 
energy

$$$$
13:0
     RDKit          3D

 38 39  0  0  0  0  0  0  0  0999 V2000
   58.0880   34.5940   46.2440 H   0  0  0  0  0  0  0  0  0  0  0  0
   58.0140   34.1500   45.3010 N   0  0  0  0  0  0  0  0  0  0  0  0
   57.9400   32.8640   45.1460 C   0  0  0  0  0  0  0  0  0  0  0  0
   58.4290   32.0260   46.1440 C   0  0  0  0  0  0  0  0  0  0  0  0
   58.8819   32.4571   47.0490 H   0  0  0  0  0  0  0  0  0  0  0  0
   58.3460   30.6350   45.9990 C   0  0  0  0  0  0  0  0  0  0  0  0
   58.9080   29.7630   47.0940 C   0  0  0  0  0  0  0  0  0  0  0  0
   58.6368   30.1839   48.0734 H   0  0  0  0  0  0  0  0  0  0  0  0
   58.4936   28.7481   47.0035 H   0  0  0  0  0  0  0  0  0  0  0  0
   60.0035   29.7212   47.0035 H   0  0  0  0  0  0  0  0  0  0  0  0
   57.7610   30.0910   44.8260 C   0  0  0  0  0  0  0  0  0  0  0  0
   57.5650   28.5930   44.6690 C   0  0  0  0  0  0  0  0  0  0  0  0
   57.2183   28.3812   43.6468 H   0  0  0  0  0  0  0  0  0  0  0  0
   58.5252   28.0927   44.8629 H   0  0  0  0  0  0  0  0  0  0  0  0
   56.5780   28.0890   45.6220 N   0  0  0  0  0  0  0  0  0  0  0  0
   56.2820   26.6960   45.7620 C   0  0  0  0  0  0  0  0  0  0  0  0
   55.0900   26.3430   45.9700 O   0  0  0  0  0  0  0  0  0  0  0  0
   57.3490   25.6770   45.6580 C   0  0  0  0  0  0  0  0  0  0  0  0
   58.6420   25.9500   46.1190 C   0  0  0  0  0  0  0  0  0  0  0  0
   58.8848   26.9460   46.5177 H   0  0  0  0  0  0  0  0  0  0  0  0
   59.6210   24.9610   46.0730 C   0  0  0  0  0  0  0  0  0  0  0  0
   60.6380   25.1727   46.4347 H   0  0  0  0  0  0  0  0  0  0  0  0
   59.3050   23.6980   45.5650 C   0  0  0  0  0  0  0  0  0  0  0  0
   60.1970   22.8070   45.5400 O   0  0  0  0  0  0  0  0  0  0  0  0
   58.0410   23.4350   45.1030 N   0  0  0  0  0  0  0  0  0  0  0  0
   57.7140   22.1060   44.5730 C   0  0  0  0  0  0  0  0  0  0  0  0
   57.5428   21.4103   45.4077 H   0  0  0  0  0  0  0  0  0  0  0  0
   56.8049   22.1704   43.9570 H   0  0  0  0  0  0  0  0  0  0  0  0
   58.5492   21.7412   43.9570 H   0  0  0  0  0  0  0  0  0  0  0  0
   57.0800   24.4090   45.1210 C   0  0  0  0  0  0  0  0  0  0  0  0
   56.0829   24.1949   44.7088 H   0  0  0  0  0  0  0  0  0  0  0  0
   57.2840   30.9850   43.8300 C   0  0  0  0  0  0  0  0  0  0  0  0
   56.6600   30.4790   42.5550 C   0  0  0  0  0  0  0  0  0  0  0  0
   55.8267   29.8032   42.7977 H   0  0  0  0  0  0  0  0  0  0  0  0
   56.2832   31.3298   41.9683 H   0  0  0  0  0  0  0  0  0  0  0  0
   57.4146   29.9346   41.9683 H   0  0  0  0  0  0  0  0  0  0  0  0
   57.3920   32.3340   44.0180 N   0  0  0  0  0  0  0  0  0  0  0  0
   57.0360   32.9810   43.2790 H   0  0  0  0  0  0  0  0  0  0  0  0
  1  2  1  0
  2  3  2  0
  3  4  1  0
  4  5  1  0
  4  6  2  0
  6  7  1  0
  7  8  1  0
  7  9  1  0
  7 10  1  0
  6 11  1  0
 11 12  1  0
 12 13  1  0
 12 14  1  0
 12 15  1  0
 15 16  1  0
 16 17  2  0
 16 18  1  0
 18 19  1  0
 19 20  1  0
 19 21  2  0
 21 22  1  0
 21 23  1  0
 23 24  2  0
 23 25  1  0
 25 26  1  0
 26 27  1  0
 26 28  1  0
 26 29  1  0
 25 30  1  0
 30 31  1  0
 11 32  2  0
 32 33  1  0
 33 34  1  0
 33 35  1  0
 33 36  1  0
 32 37  1  0
 37 38  1  0
 37  3  1  0
 30 18  2  0
M  CHG  1  15  -1
M  END
>  <UniqueID>  (14) 
13

>  <SMILES>  (14) 
[H]/N=c1/cc(C)c(C[N-]C(=O)c2ccc(=O)n(C)c2)c(C)[nH]1

>  <Energy>  (14) 
47.08628642240818

>  <Genealogy>  (14) 
Cc1cc(=N)[nH]c(C)c1C[N-]C(=O)c1ccc(=O)n(C)c1 (protonated)
[H]/N=c1/cc(C)c(C[N-]C(=O)c2ccc(=O)n(C)c2)c(C)[nH]1 (cis-trans isomerization)
[H]/N=c1/cc(C)c(C[N-]C(=O)c2ccc(=O)n(C)c2)c(C)[nH]1 (3D coordinates assigned)
[H]/N=c1/cc(C)c(C[N-]C(=O)c2ccc(=O)n(C)c2)c(C)[nH]1 (optimized conformer: 47.08628642240818 kcal/mol)

>  <smiles>  (14) 
Cc1cc(=N)[nH]c(C)c1CNC(=O)c1ccc(=O)n(C)c1

>  <score_type>  (14) 
oracle

>  <origin>  (14) 
adg

>  <m_score__min__energy>  (14) 
-8.4800000000000004

>  <m_primary>  (14) 
energy

$$$$
14:0
     RDKit          3D

 49 52  0  0  0  0  0  0  0  0999 V2000
   58.2110   27.0000   46.3930 O   0  0  0  0  0  0  0  0  0  0  0  0
   57.8100   26.6980   45.2370 C   0  0  0  0  0  0  0  0  0  0  0  0
   57.4810   27.7250   44.2850 N   0  0  0  0  0  0  0  0  0  0  0  0
   57.6450   29.1330   44.5260 C   0  0  0  0  0  0  0  0  0  0  0  0
   56.8180   30.0450   43.8510 C   0  0  0  0  0  0  0  0  0  0  0  0
   56.9520   31.4190   44.0680 C   0  0  0  0  0  0  0  0  0  0  0  0
   57.9230   31.9010   44.9540 C   0  0  0  0  0  0  0  0  0  0  0  0
   58.0460   33.6300   45.2670 S   0  0  0  0  0  0  0  0  0  0  0  0
   59.1710   34.2360   44.4740 O   0  0  0  0  0  0  0  0  0  0  0  0
   56.7540   34.2890   44.8710 O   0  0  0  0  0  0  0  0  0  0  0  0
   58.3320   33.9050   46.9550 N   0  0  0  0  0  0  0  0  0  0  0  0
   59.6170   33.8430   47.5900 C   0  0  0  0  0  0  0  0  0  0  0  0
   60.7980   33.6040   46.8660 C   0  0  0  0  0  0  0  0  0  0  0  0
   62.0270   33.5210   47.5290 C   0  0  0  0  0  0  0  0  0  0  0  0
   62.1000   33.6770   48.9250 C   0  0  0  0  0  0  0  0  0  0  0  0
   63.4030   33.5690   49.6310 C   0  0  0  0  0  0  0  0  0  0  0  0
   64.4520   32.8040   49.0840 C   0  0  0  0  0  0  0  0  0  0  0  0
   65.6780   32.7050   49.7490 C   0  0  0  0  0  0  0  0  0  0  0  0
   65.8720   33.3670   50.9640 C   0  0  0  0  0  0  0  0  0  0  0  0
   64.8390   34.1280   51.5180 C   0  0  0  0  0  0  0  0  0  0  0  0
   63.6120   34.2300   50.8570 C   0  0  0  0  0  0  0  0  0  0  0  0
   60.9160   33.9310   49.6400 C   0  0  0  0  0  0  0  0  0  0  0  0
   59.6890   34.0160   48.9760 C   0  0  0  0  0  0  0  0  0  0  0  0
   58.7800   30.9990   45.5990 C   0  0  0  0  0  0  0  0  0  0  0  0
   58.6480   29.6240   45.3820 C   0  0  0  0  0  0  0  0  0  0  0  0
   57.6280   25.2820   44.8840 C   0  0  0  0  0  0  0  0  0  0  0  0
   58.3560   24.2180   45.3920 C   0  0  0  0  0  0  0  0  0  0  0  0
   57.8350   23.0860   44.8000 C   0  0  0  0  0  0  0  0  0  0  0  0
   56.8290   23.5380   43.9710 C   0  0  0  0  0  0  0  0  0  0  0  0
   55.9970   22.7150   43.1520 N   0  0  0  0  0  0  0  0  0  0  0  0
   54.9710   23.1920   42.6250 O   0  0  0  0  0  0  0  0  0  0  0  0
   56.2960   21.3840   42.9720 O   0  0  0  0  0  0  0  0  0  0  0  0
   56.7250   24.8450   44.0360 O   0  0  0  0  0  0  0  0  0  0  0  0
   56.9910   27.4380   43.4070 H   0  0  0  0  0  0  0  0  0  0  0  0
   56.0589   29.6752   43.1460 H   0  0  0  0  0  0  0  0  0  0  0  0
   56.2924   32.1241   43.5410 H   0  0  0  0  0  0  0  0  0  0  0  0
   60.7556   33.4817   45.7736 H   0  0  0  0  0  0  0  0  0  0  0  0
   62.9450   33.3320   46.9532 H   0  0  0  0  0  0  0  0  0  0  0  0
   64.3056   32.2811   48.1274 H   0  0  0  0  0  0  0  0  0  0  0  0
   66.4912   32.1049   49.3148 H   0  0  0  0  0  0  0  0  0  0  0  0
   66.8379   33.2892   51.4846 H   0  0  0  0  0  0  0  0  0  0  0  0
   64.9919   34.6473   52.4756 H   0  0  0  0  0  0  0  0  0  0  0  0
   62.8031   34.8312   51.2976 H   0  0  0  0  0  0  0  0  0  0  0  0
   60.9558   34.0639   50.7312 H   0  0  0  0  0  0  0  0  0  0  0  0
   58.7722   34.2207   49.5484 H   0  0  0  0  0  0  0  0  0  0  0  0
   59.5594   31.3741   46.2785 H   0  0  0  0  0  0  0  0  0  0  0  0
   59.3316   28.9227   45.8829 H   0  0  0  0  0  0  0  0  0  0  0  0
   59.1805   24.2661   46.1185 H   0  0  0  0  0  0  0  0  0  0  0  0
   58.1538   22.0448   44.9558 H   0  0  0  0  0  0  0  0  0  0  0  0
  1  2  2  0
  2  3  1  0
  3  4  1  0
  4  5  2  0
  5  6  1  0
  6  7  2  0
  7  8  1  0
  8  9  2  0
  8 10  2  0
  8 11  1  0
 11 12  1  0
 12 13  2  0
 13 14  1  0
 14 15  2  0
 15 16  1  0
 16 17  2  0
 17 18  1  0
 18 19  2  0
 19 20  1  0
 20 21  2  0
 15 22  1  0
 22 23  2  0
  7 24  1  0
 24 25  2  0
  2 26  1  0
 26 27  2  0
 27 28  1  0
 28 29  2  0
 29 30  1  0
 30 31  2  0
 30 32  1  0
 29 33  1  0
 25  4  1  0
 33 26  1  0
 23 12  1  0
 21 16  1  0
  3 34  1  0
  5 35  1  0
  6 36  1  0
 13 37  1  0
 14 38  1  0
 17 39  1  0
 18 40  1  0
 19 41  1  0
 20 42  1  0
 21 43  1  0
 22 44  1  0
 23 45  1  0
 24 46  1  0
 25 47  1  0
 27 48  1  0
 28 49  1  0
M  CHG  3  11  -1  30   1  32  -1
M  END
>  <UniqueID>  (15) 
14

>  <SMILES>  (15) 
O=C(Nc1ccc(S(=O)(=O)[N-]c2ccc(-c3ccccc3)cc2)cc1)c1ccc([N+](=O)[O-])o1

>  <Energy>  (15) 
90.71049088510229

>  <Genealogy>  (15) 
O=C(Nc1ccc(S(=O)(=O)[N-]c2ccc(-c3ccccc3)cc2)cc1)c1ccc([N+](=O)[O-])o1 (protonated)
O=C(Nc1ccc(S(=O)(=O)[N-]c2ccc(-c3ccccc3)cc2)cc1)c1ccc([N+](=O)[O-])o1 (3D coordinates assigned)
O=C(Nc1ccc(S(=O)(=O)[N-]c2ccc(-c3ccccc3)cc2)cc1)c1ccc([N+](=O)[O-])o1 (optimized conformer: 90.71049088510229 kcal/mol)

>  <smiles>  (15) 
O=C(Nc1ccc(S(=O)(=O)Nc2ccc(-c3ccccc3)cc2)cc1)c1ccc([N+](=O)[O-])o1

>  <score_type>  (15) 
oracle

>  <origin>  (15) 
adg

>  <m_score__min__energy>  (15) 
-11.199999999999999

>  <m_primary>  (15) 
energy

$$$$
15:0
     RDKit          3D

 12 12  0  0  0  0  0  0  0  0999 V2000
   59.2330   34.8510   44.8750 N   0  0  0  0  0  0  0  0  0  0  0  0
   58.6550   33.8910   44.5860 C   0  0  0  0  0  0  0  0  0  0  0  0
   57.9370   32.6970   44.2260 C   0  0  0  0  0  0  0  0  0  0  0  0
   57.7720   32.3480   42.8810 C   0  0  0  0  0  0  0  0  0  0  0  0
   57.0720   31.1860   42.5460 C   0  0  0  0  0  0  0  0  0  0  0  0
   56.5460   30.3870   43.5660 C   0  0  0  0  0  0  0  0  0  0  0  0
   56.7170   30.7430   44.8670 N   0  0  0  0  0  0  0  0  0  0  0  0
   57.3940   31.8700   45.2170 C   0  0  0  0  0  0  0  0  0  0  0  0
   58.1921   32.9864   42.0898 H   0  0  0  0  0  0  0  0  0  0  0  0
   56.9362   30.9029   41.4918 H   0  0  0  0  0  0  0  0  0  0  0  0
   55.9933   29.4695   43.3155 H   0  0  0  0  0  0  0  0  0  0  0  0
   57.5148   32.1316   46.2786 H   0  0  0  0  0  0  0  0  0  0  0  0
  1  2  3  0
  2  3  1  0
  3  4  2  0
  4  5  1  0
  5  6  2  0
  6  7  1  0
  7  8  2  0
  8  3  1  0
  4  9  1  0
  5 10  1  0
  6 11  1  0
  8 12  1  0
M  END
>  <UniqueID>  (16) 
15

>  <SMILES>  (16) 
N#Cc1cccnc1

>  <Energy>  (16) 
10.717819311715967

>  <Genealogy>  (16) 
N#Cc1cccnc1 (3D coordinates assigned)
N#Cc1cccnc1 (optimized conformer: 10.717819311715967 kcal/mol)

>  <smiles>  (16) 
N#Cc1cccnc1

>  <score_type>  (16) 
oracle

>  <origin>  (16) 
adg

>  <m_score__min__energy>  (16) 
-3.9100000000000001

>  <m_primary>  (16) 
energy

$$$$
16:0
     RDKit          3D

 74 77  0  0  0  0  0  0  0  0999 V2000
   62.6030   31.2240   51.1990 C   0  0  0  0  0  0  0  0  0  0  0  0
   61.8040   31.5610   49.9130 C   0  0  1  0  0  0  0  0  0  0  0  0
   60.3110   31.7040   50.3040 C   0  0  0  0  0  0  0  0  0  0  0  0
   60.0540   33.0130   50.9350 N   0  0  0  0  0  0  0  0  0  0  0  0
   58.6750   33.1410   51.4650 C   0  0  0  0  0  0  0  0  0  0  0  0
   58.5730   32.3790   52.8000 C   0  0  2  0  0  0  0  0  0  0  0  0
   59.8090   31.8030   53.1490 O   0  0  0  0  0  0  0  0  0  0  0  0
   57.4800   31.3260   52.7720 C   0  0  0  0  0  0  0  0  0  0  0  0
   57.6160   30.1210   53.4870 C   0  0  0  0  0  0  0  0  0  0  0  0
   56.5900   29.1700   53.4680 C   0  0  0  0  0  0  0  0  0  0  0  0
   55.4250   29.4090   52.7340 C   0  0  0  0  0  0  0  0  0  0  0  0
   55.2810   30.6000   52.0180 C   0  0  0  0  0  0  0  0  0  0  0  0
   56.3010   31.5560   52.0370 C   0  0  0  0  0  0  0  0  0  0  0  0
   60.4470   34.1420   50.0610 C   0  0  2  0  0  0  0  0  0  0  0  0
   59.6670   34.1480   48.7110 C   0  0  0  0  0  0  0  0  0  0  0  0
   60.5730   33.9900   47.4630 C   0  0  2  0  0  0  0  0  0  0  0  0
   59.8320   33.9000   46.1790 N   0  0  0  0  0  0  0  0  0  0  0  0
   58.3760   34.1100   46.2440 C   0  0  0  0  0  0  0  0  0  0  0  0
   57.8160   34.1030   44.8600 C   0  0  0  0  0  0  0  0  0  0  0  0
   56.7060   34.6570   44.6310 O   0  0  0  0  0  0  0  0  0  0  0  0
   58.5320   33.4830   43.8290 O   0  0  0  0  0  0  0  0  0  0  0  0
   57.9960   32.4330   43.0290 C   0  0  0  0  0  0  0  0  0  0  0  0
   57.7120   31.2180   43.8710 C   0  0  0  0  0  0  0  0  0  0  0  0
   58.5880   30.8470   44.9050 C   0  0  0  0  0  0  0  0  0  0  0  0
   58.3170   29.7190   45.6870 C   0  0  0  0  0  0  0  0  0  0  0  0
   57.1710   28.9580   45.4450 C   0  0  0  0  0  0  0  0  0  0  0  0
   56.2940   29.3210   44.4200 C   0  0  0  0  0  0  0  0  0  0  0  0
   56.5600   30.4500   43.6360 C   0  0  0  0  0  0  0  0  0  0  0  0
   61.7670   32.9400   47.5630 C   0  0  0  0  0  0  0  0  0  0  0  0
   61.3700   31.5550   46.9810 C   0  0  0  0  0  0  0  0  0  0  0  0
   62.8400   33.4760   46.5570 C   0  0  0  0  0  0  0  0  0  0  0  0
   62.3570   32.8190   49.0840 C   0  0  2  0  0  0  0  0  0  0  0  0
   63.9180   32.7520   49.0800 C   0  0  0  0  0  0  0  0  0  0  0  0
   61.9690   34.0970   49.8670 C   0  0  0  0  0  0  0  0  0  0  0  0
   61.9996   31.4785   52.0828 H   0  0  0  0  0  0  0  0  0  0  0  0
   62.8390   30.1497   51.2131 H   0  0  0  0  0  0  0  0  0  0  0  0
   63.5371   31.8048   51.2131 H   0  0  0  0  0  0  0  0  0  0  0  0
   61.9343   30.7318   49.2021 H   0  0  0  0  0  0  0  0  0  0  0  0
   59.6917   31.6126   49.3995 H   0  0  0  0  0  0  0  0  0  0  0  0
   60.0593   30.9116   51.0243 H   0  0  0  0  0  0  0  0  0  0  0  0
   58.4409   34.2032   51.6288 H   0  0  0  0  0  0  0  0  0  0  0  0
   57.9607   32.7188   50.7428 H   0  0  0  0  0  0  0  0  0  0  0  0
   58.3016   33.1151   53.5710 H   0  0  0  0  0  0  0  0  0  0  0  0
   60.5320   32.3370   52.7220 H   0  0  0  0  0  0  0  0  0  0  0  0
   58.5327   29.9263   54.0630 H   0  0  0  0  0  0  0  0  0  0  0  0
   56.7005   28.2321   54.0320 H   0  0  0  0  0  0  0  0  0  0  0  0
   54.6207   28.6587   52.7200 H   0  0  0  0  0  0  0  0  0  0  0  0
   54.3644   30.7857   51.4389 H   0  0  0  0  0  0  0  0  0  0  0  0
   56.1818   32.4937   51.4743 H   0  0  0  0  0  0  0  0  0  0  0  0
   60.1748   35.0913   50.5454 H   0  0  0  0  0  0  0  0  0  0  0  0
   58.9462   33.3172   48.7235 H   0  0  0  0  0  0  0  0  0  0  0  0
   59.1775   35.1296   48.6287 H   0  0  0  0  0  0  0  0  0  0  0  0
   61.0960   34.9577   47.4579 H   0  0  0  0  0  0  0  0  0  0  0  0
   60.2290   34.6010   45.5070 H   0  0  0  0  0  0  0  0  0  0  0  0
   57.9139   33.3032   46.8318 H   0  0  0  0  0  0  0  0  0  0  0  0
   58.1634   35.0769   46.7235 H   0  0  0  0  0  0  0  0  0  0  0  0
   57.0610   32.7757   42.5618 H   0  0  0  0  0  0  0  0  0  0  0  0
   58.7315   32.1650   42.2562 H   0  0  0  0  0  0  0  0  0  0  0  0
   59.4900   31.4455   45.1003 H   0  0  0  0  0  0  0  0  0  0  0  0
   59.0074   29.4310   46.4935 H   0  0  0  0  0  0  0  0  0  0  0  0
   56.9589   28.0723   46.0619 H   0  0  0  0  0  0  0  0  0  0  0  0
   55.3934   28.7191   44.2287 H   0  0  0  0  0  0  0  0  0  0  0  0
   55.8644   30.7364   42.8334 H   0  0  0  0  0  0  0  0  0  0  0  0
   61.1693   30.8548   47.8053 H   0  0  0  0  0  0  0  0  0  0  0  0
   60.4665   31.6624   46.3629 H   0  0  0  0  0  0  0  0  0  0  0  0
   62.1932   31.1674   46.3629 H   0  0  0  0  0  0  0  0  0  0  0  0
   63.6875   33.8994   47.1160 H   0  0  0  0  0  0  0  0  0  0  0  0
   63.1946   32.6492   45.9241 H   0  0  0  0  0  0  0  0  0  0  0  0
   62.3919   34.2561   45.9241 H   0  0  0  0  0  0  0  0  0  0  0  0
   64.2870   32.7362   50.1162 H   0  0  0  0  0  0  0  0  0  0  0  0
   64.2445   31.8390   48.5605 H   0  0  0  0  0  0  0  0  0  0  0  0
   64.3215   33.6337   48.5605 H   0  0  0  0  0  0  0  0  0  0  0  0
   62.4629   34.0879   50.8498 H   0  0  0  0  0  0  0  0  0  0  0  0
   62.2907   34.9834   49.3005 H   0  0  0  0  0  0  0  0  0  0  0  0
  1  2  1  0
  2  3  1  0
  3  4  1  0
  4  5  1  0
  5  6  1  0
  6  7  1  0
  6  8  1  0
  8  9  2  0
  9 10  1  0
 10 11  2  0
 11 12  1  0
 12 13  2  0
  4 14  1  0
 14 15  1  0
 15 16  1  0
 16 17  1  0
 17 18  1  0
 18 19  1  0
 19 20  2  0
 19 21  1  0
 21 22  1  0
 22 23  1  0
 23 24  2  0
 24 25  1  0
 25 26  2  0
 26 27  1  0
 27 28  2  0
 16 29  1  0
 29 30  1  0
 29 31  1  0
 29 32  1  0
 32 33  1  6
 32 34  1  0
 32  2  1  0
 13  8  1  0
 34 14  1  0
 28 23  1  0
  1 35  1  0
  1 36  1  0
  1 37  1  0
  2 38  1  6
  3 39  1  0
  3 40  1  0
  5 41  1  0
  5 42  1  0
  6 43  1  1
  7 44  1  0
  9 45  1  0
 10 46  1  0
 11 47  1  0
 12 48  1  0
 13 49  1  0
 14 50  1  1
 15 51  1  0
 15 52  1  0
 16 53  1  6
 17 54  1  0
 18 55  1  0
 18 56  1  0
 22 57  1  0
 22 58  1  0
 24 59  1  0
 25 60  1  0
 26 61  1  0
 27 62  1  0
 28 63  1  0
 30 64  1  0
 30 65  1  0
 30 66  1  0
 31 67  1  0
 31 68  1  0
 31 69  1  0
 33 70  1  0
 33 71  1  0
 33 72  1  0
 34 73  1  0
 34 74  1  0
M  END
>  <UniqueID>  (17) 
16

>  <SMILES>  (17) 
C[C@H]1CN(C[C@H](O)c2ccccc2)C2CC(NCC(=O)OCc3ccccc3)C(C)(C)C1(C)C2

>  <Energy>  (17) 
117.99955931823872

>  <Genealogy>  (17) 
C[C@H]1CN(C[C@H](O)c2ccccc2)C2CC(NCC(=O)OCc3ccccc3)C(C)(C)C1(C)C2 (chirality)
C[C@H]1CN(C[C@H](O)c2ccccc2)C2CC(NCC(=O)OCc3ccccc3)C(C)(C)C1(C)C2 (3D coordinates assigned)
C[C@H]1CN(C[C@H](O)c2ccccc2)C2CC(NCC(=O)OCc3ccccc3)C(C)(C)C1(C)C2 (nonaromatic ring conformer: 117.99955931823872 kcal/mol)

>  <smiles>  (17) 
CC1CN(CC(O)c2ccccc2)C2CC(NCC(=O)OCc3ccccc3)C(C)(C)C1(C)C2

>  <score_type>  (17) 
oracle

>  <origin>  (17) 
adg

>  <m_score__min__energy>  (17) 
-10.49

>  <m_primary>  (17) 
energy

$$$$
17:0
     RDKit          3D

 35 36  0  0  0  0  0  0  0  0999 V2000
   57.7770   27.6180   43.4140 O   0  0  0  0  0  0  0  0  0  0  0  0
   57.1850   28.6030   43.9320 C   0  0  0  0  0  0  0  0  0  0  0  0
   56.7160   29.7260   43.0590 C   0  0  0  0  0  0  0  0  0  0  0  0
   57.3240   31.0520   43.5190 C   0  0  0  0  0  0  0  0  0  0  0  0
   56.8770   31.3740   44.8700 N   0  0  0  0  0  0  0  0  0  0  0  0
   57.7680   31.5800   45.9740 C   0  0  0  0  0  0  0  0  0  0  0  0
   57.9800   30.6420   46.7900 O   0  0  0  0  0  0  0  0  0  0  0  0
   58.4320   32.8920   46.1620 C   0  0  0  0  0  0  0  0  0  0  0  0
   58.8590   33.3030   47.4390 C   0  0  0  0  0  0  0  0  0  0  0  0
   59.4820   34.5420   47.6120 C   0  0  0  0  0  0  0  0  0  0  0  0
   59.6880   35.3830   46.5150 C   0  0  0  0  0  0  0  0  0  0  0  0
   59.2700   34.9860   45.2440 C   0  0  0  0  0  0  0  0  0  0  0  0
   58.6450   33.7480   45.0650 C   0  0  0  0  0  0  0  0  0  0  0  0
   56.9250   28.6350   45.3430 N   0  0  0  0  0  0  0  0  0  0  0  0
   57.2980   27.5380   46.2330 C   0  0  0  0  0  0  0  0  0  0  0  0
   56.4700   26.3300   45.9300 C   0  0  0  0  0  0  0  0  0  0  0  0
   56.9510   25.0950   45.5410 C   0  0  0  0  0  0  0  0  0  0  0  0
   55.8360   24.3090   45.3490 C   0  0  0  0  0  0  0  0  0  0  0  0
   54.7480   25.1120   45.6280 C   0  0  0  0  0  0  0  0  0  0  0  0
   55.1580   26.3110   45.9700 O   0  0  0  0  0  0  0  0  0  0  0  0
   57.0208   29.5289   42.0206 H   0  0  0  0  0  0  0  0  0  0  0  0
   55.6202   29.7949   43.1259 H   0  0  0  0  0  0  0  0  0  0  0  0
   58.4209   30.9705   43.5098 H   0  0  0  0  0  0  0  0  0  0  0  0
   56.9989   31.8502   42.8355 H   0  0  0  0  0  0  0  0  0  0  0  0
   58.7013   32.6448   48.3061 H   0  0  0  0  0  0  0  0  0  0  0  0
   59.8109   34.8559   48.6137 H   0  0  0  0  0  0  0  0  0  0  0  0
   60.1794   36.3574   46.6533 H   0  0  0  0  0  0  0  0  0  0  0  0
   59.4326   35.6485   44.3811 H   0  0  0  0  0  0  0  0  0  0  0  0
   58.3177   33.4411   44.0607 H   0  0  0  0  0  0  0  0  0  0  0  0
   56.4500   29.4690   45.7530 H   0  0  0  0  0  0  0  0  0  0  0  0
   58.3613   27.2966   46.0880 H   0  0  0  0  0  0  0  0  0  0  0  0
   57.1238   27.8432   47.2753 H   0  0  0  0  0  0  0  0  0  0  0  0
   58.0031   24.8009   45.4117 H   0  0  0  0  0  0  0  0  0  0  0  0
   55.8164   23.2545   45.0365 H   0  0  0  0  0  0  0  0  0  0  0  0
   53.6962   24.7947   45.5721 H   0  0  0  0  0  0  0  0  0  0  0  0
  1  2  2  0
  2  3  1  0
  3  4  1  0
  4  5  1  0
  5  6  1  0
  6  7  2  0
  6  8  1  0
  8  9  2  0
  9 10  1  0
 10 11  2  0
 11 12  1  0
 12 13  2  0
  2 14  1  0
 14 15  1  0
 15 16  1  0
 16 17  2  0
 17 18  1  0
 18 19  2  0
 19 20  1  0
 13  8  1  0
 20 16  1  0
  3 21  1  0
  3 22  1  0
  4 23  1  0
  4 24  1  0
  9 25  1  0
 10 26  1  0
 11 27  1  0
 12 28  1  0
 13 29  1  0
 14 30  1  0
 15 31  1  0
 15 32  1  0
 17 33  1  0
 18 34  1  0
 19 35  1  0
M  CHG  1   5  -1
M  END
>  <UniqueID>  (18) 
17

>  <SMILES>  (18) 
O=C(CC[N-]C(=O)c1ccccc1)NCc1ccco1

>  <Energy>  (18) 
53.09783052841892

>  <Genealogy>  (18) 
O=C(CC[N-]C(=O)c1ccccc1)NCc1ccco1 (protonated)
O=C(CC[N-]C(=O)c1ccccc1)NCc1ccco1 (3D coordinates assigned)
O=C(CC[N-]C(=O)c1ccccc1)NCc1ccco1 (optimized conformer: 53.09783052841892 kcal/mol)

>  <smiles>  (18) 
O=C(CCNC(=O)c1ccccc1)NCc1ccco1

>  <score_type>  (18) 
oracle

>  <origin>  (18) 
adg

>  <m_score__min__energy>  (18) 
-9.7400000000000002

>  <m_primary>  (18) 
energy

$$$$
18:0
     RDKit          3D

 39 41  0  0  1  0  0  0  0  0999 V2000
   63.7500   32.7050   47.1230 C   0  0  0  0  0  0  0  0  0  0  0  0
   62.7050   33.7200   46.8400 C   0  0  0  0  0  0  0  0  0  0  0  0
   61.4890   33.6220   47.5660 N   0  0  0  0  0  0  0  0  0  0  0  0
   60.3450   33.3870   47.0210 C   0  0  0  0  0  0  0  0  0  0  0  0
   60.1170   32.2220   46.3700 N   0  0  0  0  0  0  0  0  0  0  0  0
   58.9000   32.0710   45.8360 C   0  0  0  0  0  0  0  0  0  0  0  0
   57.9110   33.0490   45.9370 C   0  0  0  0  0  0  0  0  0  0  0  0
   58.1840   34.2170   46.6060 C   0  0  0  0  0  0  0  0  0  0  0  0
   59.4120   34.3510   47.1350 N   0  0  0  0  0  0  0  0  0  0  0  0
   56.7950   32.6580   45.3260 N   0  0  0  0  0  0  0  0  0  0  0  0
   57.0510   31.4370   44.8300 C   0  0  0  0  0  0  0  0  0  0  0  0
   56.1940   30.7650   44.1810 O   0  0  0  0  0  0  0  0  0  0  0  0
   58.3300   31.0710   45.1370 N   0  0  0  0  0  0  0  0  0  0  0  0
   58.8840   29.8120   44.7350 C   0  0  0  0  0  0  0  0  0  0  0  0
   58.4060   28.6560   45.5370 C   0  0  0  0  0  0  0  0  0  0  0  0
   59.2570   28.0750   46.4550 C   0  0  0  0  0  0  0  0  0  0  0  0
   58.8510   26.9980   47.2200 C   0  0  0  0  0  0  0  0  0  0  0  0
   57.5640   26.4700   47.0810 C   0  0  0  0  0  0  0  0  0  0  0  0
   56.7080   27.0410   46.1680 C   0  0  0  0  0  0  0  0  0  0  0  0
   55.4240   26.5870   45.9650 O   0  0  0  0  0  0  0  0  0  0  0  0
   55.1550   25.2420   45.6210 C   0  0  0  0  0  0  0  0  0  0  0  0
   57.1400   28.1210   45.4130 C   0  0  0  0  0  0  0  0  0  0  0  0
   63.8663   32.5920   48.2110 H   0  0  0  0  0  0  0  0  0  0  0  0
   63.4534   31.7411   46.6839 H   0  0  0  0  0  0  0  0  0  0  0  0
   64.7049   33.0296   46.6839 H   0  0  0  0  0  0  0  0  0  0  0  0
   63.1382   34.7085   47.0527 H   0  0  0  0  0  0  0  0  0  0  0  0
   62.4222   33.5494   45.7908 H   0  0  0  0  0  0  0  0  0  0  0  0
   57.4284   35.0103   46.7047 H   0  0  0  0  0  0  0  0  0  0  0  0
   59.6170   35.2390   47.6430 H   0  0  0  0  0  0  0  0  0  0  0  0
   55.8950   33.1840   45.2410 H   0  0  0  0  0  0  0  0  0  0  0  0
   58.6162   29.6368   43.6826 H   0  0  0  0  0  0  0  0  0  0  0  0
   59.9708   29.8790   44.8909 H   0  0  0  0  0  0  0  0  0  0  0  0
   60.2740   28.4752   46.5797 H   0  0  0  0  0  0  0  0  0  0  0  0
   59.5473   26.5519   47.9453 H   0  0  0  0  0  0  0  0  0  0  0  0
   57.2416   25.6132   47.6909 H   0  0  0  0  0  0  0  0  0  0  0  0
   55.0358   24.6459   46.5377 H   0  0  0  0  0  0  0  0  0  0  0  0
   54.2293   25.1931   45.0288 H   0  0  0  0  0  0  0  0  0  0  0  0
   55.9907   24.8408   45.0288 H   0  0  0  0  0  0  0  0  0  0  0  0
   56.4461   28.5690   44.6865 H   0  0  0  0  0  0  0  0  0  0  0  0
  1  2  1  0
  2  3  1  0
  3  4  2  0
  4  5  1  0
  5  6  2  0
  6  7  1  0
  7  8  2  0
  8  9  1  0
  7 10  1  0
 10 11  1  0
 11 12  2  0
 11 13  1  0
 13 14  1  0
 14 15  1  0
 15 16  2  0
 16 17  1  0
 17 18  2  0
 18 19  1  0
 19 20  1  0
 20 21  1  0
 19 22  2  0
  9  4  1  0
 22 15  1  0
 13  6  1  0
  1 23  1  0
  1 24  1  0
  1 25  1  0
  2 26  1  0
  2 27  1  0
  8 28  1  0
  9 29  1  0
 10 30  1  0
 14 31  1  0
 14 32  1  0
 16 33  1  0
 17 34  1  0
 18 35  1  0
 21 36  1  0
 21 37  1  0
 21 38  1  0
 22 39  1  0
M  END
>  <smiles>  (19) 
CCN=c1nc2c(c[nH]1)[nH]c(=O)n2Cc1cccc(OC)c1

>  <score_type>  (19) 
oracle

>  <origin>  (19) 
adg

>  <m_score__min__energy>  (19) 
-6.8099999999999996

>  <m_primary>  (19) 
energy

$$$$
19:0
     RDKit          3D

 66 70  0  0  0  0  0  0  0  0999 V2000
   61.8442   19.8100   50.4609 H   0  0  0  0  0  0  0  0  0  0  0  0
   60.9490   20.3340   50.8270 C   0  0  0  0  0  0  0  0  0  0  0  0
   59.7780   20.2330   50.1490 N   0  0  0  0  0  0  0  0  0  0  0  0
   58.6330   20.8570   50.5390 C   0  0  0  0  0  0  0  0  0  0  0  0
   57.5730   20.6440   49.8050 N   0  0  0  0  0  0  0  0  0  0  0  0
   56.8080   21.5590   49.0150 C   0  0  0  0  0  0  0  0  0  0  0  0
   57.3920   22.2040   47.9700 N   0  0  0  0  0  0  0  0  0  0  0  0
   56.7140   23.1280   47.2400 C   0  0  0  0  0  0  0  0  0  0  0  0
   57.3190   23.7330   46.2600 N   0  0  0  0  0  0  0  0  0  0  0  0
   57.6970   25.1200   46.2090 C   0  0  0  0  0  0  0  0  0  0  0  0
   59.0300   25.5360   46.3740 C   0  0  0  0  0  0  0  0  0  0  0  0
   59.8186   24.7895   46.5496 H   0  0  0  0  0  0  0  0  0  0  0  0
   59.3580   26.8940   46.3160 C   0  0  0  0  0  0  0  0  0  0  0  0
   60.4057   27.2082   46.4323 H   0  0  0  0  0  0  0  0  0  0  0  0
   58.3580   27.8610   46.1100 C   0  0  0  0  0  0  0  0  0  0  0  0
   58.6980   29.3010   46.0290 C   0  0  0  0  0  0  0  0  0  0  0  0
   59.9030   29.6630   46.1190 O   0  0  0  0  0  0  0  0  0  0  0  0
   57.6690   30.2930   45.8800 N   0  0  0  0  0  0  0  0  0  0  0  0
   56.6840   30.0520   46.1230 H   0  0  0  0  0  0  0  0  0  0  0  0
   57.9720   31.6690   45.6190 C   0  0  0  0  0  0  0  0  0  0  0  0
   58.4270   32.4720   46.6740 C   0  0  0  0  0  0  0  0  0  0  0  0
   58.5408   32.0374   47.6781 H   0  0  0  0  0  0  0  0  0  0  0  0
   58.7390   33.8240   46.4640 C   0  0  0  0  0  0  0  0  0  0  0  0
   59.2940   34.6680   47.5950 C   0  0  0  0  0  0  0  0  0  0  0  0
   59.0269   35.7173   47.4010 H   0  0  0  0  0  0  0  0  0  0  0  0
   58.8535   34.2701   48.5211 H   0  0  0  0  0  0  0  0  0  0  0  0
   60.7610   34.5920   47.7680 N   0  0  0  0  0  0  0  0  0  0  0  0
   61.2230   34.0630   49.0500 C   0  0  0  0  0  0  0  0  0  0  0  0
   61.1323   34.8278   49.8354 H   0  0  0  0  0  0  0  0  0  0  0  0
   60.6247   33.1976   49.3711 H   0  0  0  0  0  0  0  0  0  0  0  0
   62.6830   33.6890   48.8400 C   0  0  0  0  0  0  0  0  0  0  0  0
   63.3423   34.4722   49.2424 H   0  0  0  0  0  0  0  0  0  0  0  0
   62.9436   32.7540   49.3576 H   0  0  0  0  0  0  0  0  0  0  0  0
   62.8590   33.5680   47.3280 C   0  0  0  0  0  0  0  0  0  0  0  0
   63.5888   34.3064   46.9646 H   0  0  0  0  0  0  0  0  0  0  0  0
   63.2375   32.5770   47.0369 H   0  0  0  0  0  0  0  0  0  0  0  0
   61.4830   33.8450   46.7410 C   0  0  0  0  0  0  0  0  0  0  0  0
   61.5709   34.4428   45.8218 H   0  0  0  0  0  0  0  0  0  0  0  0
   60.9608   32.9152   46.4712 H   0  0  0  0  0  0  0  0  0  0  0  0
   58.6050   34.3640   45.1770 C   0  0  0  0  0  0  0  0  0  0  0  0
   58.8743   35.4148   44.9948 H   0  0  0  0  0  0  0  0  0  0  0  0
   58.1320   33.5770   44.1250 C   0  0  0  0  0  0  0  0  0  0  0  0
   58.0273   34.0145   43.1212 H   0  0  0  0  0  0  0  0  0  0  0  0
   57.7890   32.2330   44.3370 C   0  0  0  0  0  0  0  0  0  0  0  0
   57.2690   31.4180   43.1850 C   0  0  0  0  0  0  0  0  0  0  0  0
   56.7149   30.5496   43.5708 H   0  0  0  0  0  0  0  0  0  0  0  0
   56.5987   32.0372   42.5708 H   0  0  0  0  0  0  0  0  0  0  0  0
   58.1130   31.0711   42.5708 H   0  0  0  0  0  0  0  0  0  0  0  0
   57.0190   27.4430   46.0050 C   0  0  0  0  0  0  0  0  0  0  0  0
   56.2216   28.1903   45.8795 H   0  0  0  0  0  0  0  0  0  0  0  0
   56.6950   26.0850   46.0590 C   0  0  0  0  0  0  0  0  0  0  0  0
   55.6433   25.7718   45.9829 H   0  0  0  0  0  0  0  0  0  0  0  0
   55.4330   23.4410   47.5810 N   0  0  0  0  0  0  0  0  0  0  0  0
   54.8160   22.8370   48.6290 C   0  0  0  0  0  0  0  0  0  0  0  0
   53.7779   23.0984   48.8820 H   0  0  0  0  0  0  0  0  0  0  0  0
   55.5000   21.8850   49.3840 C   0  0  0  0  0  0  0  0  0  0  0  0
   54.7100   21.1120   50.7480 Cl  0  0  0  0  0  0  0  0  0  0  0  0
   58.6740   21.7060   51.6910 C   0  0  0  0  0  0  0  0  0  0  0  0
   57.5360   22.5850   52.1470 C   0  0  0  0  0  0  0  0  0  0  0  0
   57.5075   22.6070   53.2464 H   0  0  0  0  0  0  0  0  0  0  0  0
   57.6844   23.6053   51.7635 H   0  0  0  0  0  0  0  0  0  0  0  0
   56.5863   22.1837   51.7635 H   0  0  0  0  0  0  0  0  0  0  0  0
   59.8820   21.7850   52.4110 C   0  0  0  0  0  0  0  0  0  0  0  0
   59.9299   22.3968   53.3239 H   0  0  0  0  0  0  0  0  0  0  0  0
   61.0160   21.1000   51.9840 C   0  0  0  0  0  0  0  0  0  0  0  0
   61.9536   21.1644   52.5556 H   0  0  0  0  0  0  0  0  0  0  0  0
  1  2  1  0
  2  3  1  0
  3  4  1  0
  4  5  2  3
  5  6  1  0
  6  7  2  0
  7  8  1  0
  8  9  2  0
  9 10  1  0
 10 11  2  0
 11 12  1  0
 11 13  1  0
 13 14  1  0
 13 15  2  0
 15 16  1  0
 16 17  2  0
 16 18  1  0
 18 19  1  0
 18 20  1  0
 20 21  2  0
 21 22  1  0
 21 23  1  0
 23 24  1  0
 24 25  1  0
 24 26  1  0
 24 27  1  0
 27 28  1  0
 28 29  1  0
 28 30  1  0
 28 31  1  0
 31 32  1  0
 31 33  1  0
 31 34  1  0
 34 35  1  0
 34 36  1  0
 34 37  1  0
 37 38  1  0
 37 39  1  0
 23 40  2  0
 40 41  1  0
 40 42  1  0
 42 43  1  0
 42 44  2  0
 44 45  1  0
 45 46  1  0
 45 47  1  0
 45 48  1  0
 15 49  1  0
 49 50  1  0
 49 51  2  0
 51 52  1  0
  8 53  1  0
 53 54  1  0
 54 55  1  0
 54 56  2  0
 56 57  1  0
  4 58  1  0
 58 59  1  0
 59 60  1  0
 59 61  1  0
 59 62  1  0
 58 63  2  0
 63 64  1  0
 63 65  1  0
 65 66  1  0
 65  2  2  0
 56  6  1  0
 51 10  1  0
 44 20  1  0
 37 27  1  0
M  CHG  2   3  -1  53  -1
M  END
>  <UniqueID>  (20) 
18

>  <SMILES>  (20) 
Cc1ccc(CN2CCCC2)cc1NC(=O)c1ccc(/N=c2/nc(N=c3[n-]cccc3C)c(Cl)c[n-]2)cc1

>  <Energy>  (20) 
110.82244038696103

>  <Genealogy>  (20) 
Cc1ccc(CN2CCCC2)cc1NC(=O)c1ccc(N=c2nc(N=c3[n-]cccc3C)c(Cl)c[n-]2)cc1 (protonated)
Cc1ccc(CN2CCCC2)cc1NC(=O)c1ccc(/N=c2/nc(N=c3[n-]cccc3C)c(Cl)c[n-]2)cc1 (cis-trans isomerization)
Cc1ccc(CN2CCCC2)cc1NC(=O)c1ccc(/N=c2/nc(N=c3[n-]cccc3C)c(Cl)c[n-]2)cc1 (3D coordinates assigned)
Cc1ccc(CN2CCCC2)cc1NC(=O)c1ccc(/N=c2/nc(N=c3[n-]cccc3C)c(Cl)c[n-]2)cc1 (nonaromatic ring conformer: 110.82244038696103 kcal/mol)

>  <smiles>  (20) 
Cc1ccc(CN2CCCC2)cc1NC(=O)c1ccc(N=c2nc(N=c3[nH]cccc3C)c(Cl)c[nH]2)cc1

>  <score_type>  (20) 
oracle

>  <origin>  (20) 
adg

>  <m_score__min__energy>  (20) 
-13.140000000000001

>  <m_primary>  (20) 
energy

$$$$
20:0
     RDKit          3D

 50 51  0  0  0  0  0  0  0  0999 V2000
   56.2760   29.7010   42.8040 C   0  0  0  0  0  0  0  0  0  0  0  0
   56.9070   30.1470   44.0940 C   0  0  0  0  0  0  0  0  0  0  0  0
   57.2330   31.5000   44.2810 C   0  0  0  0  0  0  0  0  0  0  0  0
   57.8660   31.9230   45.4570 C   0  0  0  0  0  0  0  0  0  0  0  0
   58.3560   33.6050   45.6220 S   0  0  0  0  0  0  0  0  0  0  0  0
   59.7880   33.7390   45.1900 O   0  0  0  0  0  0  0  0  0  0  0  0
   57.5100   34.4870   44.7440 O   0  0  0  0  0  0  0  0  0  0  0  0
   58.2110   34.1150   47.2790 N   0  0  0  0  0  0  0  0  0  0  0  0
   59.3340   34.9690   47.6810 C   0  0  0  0  0  0  0  0  0  0  0  0
   60.2810   34.2330   48.6410 C   0  0  0  0  0  0  0  0  0  0  0  0
   61.4720   33.7110   47.9360 N   0  0  0  0  0  0  0  0  0  0  0  0
   62.7080   33.9610   48.7000 C   0  0  0  0  0  0  0  0  0  0  0  0
   63.9300   33.4160   47.9300 C   0  0  0  0  0  0  0  0  0  0  0  0
   63.5550   32.6690   46.7850 O   0  0  0  0  0  0  0  0  0  0  0  0
   62.6420   31.6570   47.1570 C   0  0  0  0  0  0  0  0  0  0  0  0
   61.3260   32.2650   47.6800 C   0  0  0  0  0  0  0  0  0  0  0  0
   58.1620   30.9920   46.4590 C   0  0  0  0  0  0  0  0  0  0  0  0
   57.8510   29.6440   46.2760 C   0  0  0  0  0  0  0  0  0  0  0  0
   57.2590   29.2060   45.0830 C   0  0  0  0  0  0  0  0  0  0  0  0
   56.9710   27.8180   44.8860 N   0  0  0  0  0  0  0  0  0  0  0  0
   56.5130   26.9200   45.9060 C   0  0  0  0  0  0  0  0  0  0  0  0
   55.2800   26.6820   45.9900 O   0  0  0  0  0  0  0  0  0  0  0  0
   57.4630   26.1790   46.8280 C   0  0  0  0  0  0  0  0  0  0  0  0
   58.9270   26.3790   46.4210 C   0  0  0  0  0  0  0  0  0  0  0  0
   57.1230   24.6890   46.9520 C   0  0  0  0  0  0  0  0  0  0  0  0
   55.3956   29.0787   43.0224 H   0  0  0  0  0  0  0  0  0  0  0  0
   55.9670   30.5824   42.2230 H   0  0  0  0  0  0  0  0  0  0  0  0
   57.0038   29.1156   42.2230 H   0  0  0  0  0  0  0  0  0  0  0  0
   56.9895   32.2333   43.4981 H   0  0  0  0  0  0  0  0  0  0  0  0
   59.8954   35.2683   46.7836 H   0  0  0  0  0  0  0  0  0  0  0  0
   58.9304   35.8507   48.2004 H   0  0  0  0  0  0  0  0  0  0  0  0
   60.6079   34.9314   49.4255 H   0  0  0  0  0  0  0  0  0  0  0  0
   59.7372   33.3813   49.0756 H   0  0  0  0  0  0  0  0  0  0  0  0
   62.8281   35.0437   48.8527 H   0  0  0  0  0  0  0  0  0  0  0  0
   62.6389   33.4501   49.6717 H   0  0  0  0  0  0  0  0  0  0  0  0
   64.5537   34.2639   47.6105 H   0  0  0  0  0  0  0  0  0  0  0  0
   64.4806   32.7440   48.6047 H   0  0  0  0  0  0  0  0  0  0  0  0
   62.4246   31.0288   46.2806 H   0  0  0  0  0  0  0  0  0  0  0  0
   63.0935   31.0557   47.9599 H   0  0  0  0  0  0  0  0  0  0  0  0
   60.5364   32.1112   46.9298 H   0  0  0  0  0  0  0  0  0  0  0  0
   61.0639   31.7681   48.6257 H   0  0  0  0  0  0  0  0  0  0  0  0
   58.6406   31.3233   47.3924 H   0  0  0  0  0  0  0  0  0  0  0  0
   58.0720   28.9196   47.0738 H   0  0  0  0  0  0  0  0  0  0  0  0
   57.3280   26.6231   47.8253 H   0  0  0  0  0  0  0  0  0  0  0  0
   59.5501   26.4641   47.3235 H   0  0  0  0  0  0  0  0  0  0  0  0
   59.2624   25.5183   45.8237 H   0  0  0  0  0  0  0  0  0  0  0  0
   59.0192   27.2981   45.8237 H   0  0  0  0  0  0  0  0  0  0  0  0
   57.0604   24.4145   48.0153 H   0  0  0  0  0  0  0  0  0  0  0  0
   56.1567   24.4916   46.4648 H   0  0  0  0  0  0  0  0  0  0  0  0
   57.9080   24.0920   46.4648 H   0  0  0  0  0  0  0  0  0  0  0  0
  1  2  1  0
  2  3  2  0
  3  4  1  0
  4  5  1  0
  5  6  2  0
  5  7  2  0
  5  8  1  0
  8  9  1  0
  9 10  1  0
 10 11  1  0
 11 12  1  0
 12 13  1  0
 13 14  1  0
 14 15  1  0
 15 16  1  0
  4 17  2  0
 17 18  1  0
 18 19  2  0
 19 20  1  0
 20 21  1  0
 21 22  2  0
 21 23  1  0
 23 24  1  0
 23 25  1  0
 19  2  1  0
 16 11  1  0
  1 26  1  0
  1 27  1  0
  1 28  1  0
  3 29  1  0
  9 30  1  0
  9 31  1  0
 10 32  1  0
 10 33  1  0
 12 34  1  0
 12 35  1  0
 13 36  1  0
 13 37  1  0
 15 38  1  0
 15 39  1  0
 16 40  1  0
 16 41  1  0
 17 42  1  0
 18 43  1  0
 23 44  1  0
 24 45  1  0
 24 46  1  0
 24 47  1  0
 25 48  1  0
 25 49  1  0
 25 50  1  0
M  CHG  2   8  -1  20  -1
M  END
>  <UniqueID>  (21) 
19

>  <SMILES>  (21) 
Cc1cc(S(=O)(=O)[N-]CCN2CCOCC2)ccc1[N-]C(=O)C(C)C

>  <Energy>  (21) 
57.02352092765538

>  <Genealogy>  (21) 
Cc1cc(S(=O)(=O)[N-]CCN2CCOCC2)ccc1[N-]C(=O)C(C)C (protonated)
Cc1cc(S(=O)(=O)[N-]CCN2CCOCC2)ccc1[N-]C(=O)C(C)C (3D coordinates assigned)
Cc1cc(S(=O)(=O)[N-]CCN2CCOCC2)ccc1[N-]C(=O)C(C)C (nonaromatic ring conformer: 57.02352092765538 kcal/mol)

>  <smiles>  (21) 
Cc1cc(S(=O)(=O)NCCN2CCOCC2)ccc1NC(=O)C(C)C

>  <score_type>  (21) 
oracle

>  <origin>  (21) 
adg

>  <m_score__min__energy>  (21) 
-10.92

>  <m_primary>  (21) 
energy

$$$$
21:0
     RDKit          3D

 43 45  0  0  0  0  0  0  0  0999 V2000
   54.3670   26.7140   46.7650 H   0  0  0  0  0  0  0  0  0  0  0  0
   55.2130   26.2400   46.3730 N   0  0  0  0  0  0  0  0  0  0  0  0
   56.2550   26.9130   46.0060 C   0  0  0  0  0  0  0  0  0  0  0  0
   57.4940   26.5220   46.4080 N   0  0  0  0  0  0  0  0  0  0  0  0
   58.6020   27.2090   46.0310 C   0  0  0  0  0  0  0  0  0  0  0  0
   59.7380   26.8260   46.4120 O   0  0  0  0  0  0  0  0  0  0  0  0
   58.4780   28.3390   45.2210 C   0  0  0  0  0  0  0  0  0  0  0  0
   59.3675   28.9025   44.9029 H   0  0  0  0  0  0  0  0  0  0  0  0
   57.1970   28.7400   44.8220 C   0  0  0  0  0  0  0  0  0  0  0  0
   57.0240   29.9280   43.9150 C   0  0  0  0  0  0  0  0  0  0  0  0
   57.5950   29.7652   42.9890 H   0  0  0  0  0  0  0  0  0  0  0  0
   55.9564   30.0492   43.6794 H   0  0  0  0  0  0  0  0  0  0  0  0
   57.5230   31.1730   44.5950 C   0  0  0  0  0  0  0  0  0  0  0  0
   57.7760   31.1730   45.9760 C   0  0  0  0  0  0  0  0  0  0  0  0
   57.5813   30.2664   46.5678 H   0  0  0  0  0  0  0  0  0  0  0  0
   58.2740   32.3190   46.6030 C   0  0  0  0  0  0  0  0  0  0  0  0
   58.4653   32.3110   47.6862 H   0  0  0  0  0  0  0  0  0  0  0  0
   58.5320   33.4840   45.8540 C   0  0  0  0  0  0  0  0  0  0  0  0
   59.0270   34.6630   46.4330 O   0  0  0  0  0  0  0  0  0  0  0  0
   59.3940   34.8190   47.8040 C   0  0  0  0  0  0  0  0  0  0  0  0
   59.4034   35.8900   48.0549 H   0  0  0  0  0  0  0  0  0  0  0  0
   58.6614   34.2852   48.4272 H   0  0  0  0  0  0  0  0  0  0  0  0
   60.7590   34.2400   48.0630 C   0  0  0  0  0  0  0  0  0  0  0  0
   61.5630   33.8000   47.0000 C   0  0  0  0  0  0  0  0  0  0  0  0
   61.1915   33.8712   45.9671 H   0  0  0  0  0  0  0  0  0  0  0  0
   62.8330   33.2720   47.2470 C   0  0  0  0  0  0  0  0  0  0  0  0
   63.4518   32.9242   46.4067 H   0  0  0  0  0  0  0  0  0  0  0  0
   63.3240   33.1820   48.5530 C   0  0  0  0  0  0  0  0  0  0  0  0
   64.6040   32.6430   48.7490 O   0  0  0  0  0  0  0  0  0  0  0  0
   65.1510   32.3110   50.0210 C   0  0  0  0  0  0  0  0  0  0  0  0
   64.4999   32.7062   50.8146 H   0  0  0  0  0  0  0  0  0  0  0  0
   65.2219   31.2174   50.1155 H   0  0  0  0  0  0  0  0  0  0  0  0
   66.1539   32.7529   50.1155 H   0  0  0  0  0  0  0  0  0  0  0  0
   62.5250   33.6360   49.6200 C   0  0  0  0  0  0  0  0  0  0  0  0
   62.9019   33.5748   50.6516 H   0  0  0  0  0  0  0  0  0  0  0  0
   61.2550   34.1640   49.3730 C   0  0  0  0  0  0  0  0  0  0  0  0
   60.6400   34.5225   50.2116 H   0  0  0  0  0  0  0  0  0  0  0  0
   58.2950   33.4730   44.4750 C   0  0  0  0  0  0  0  0  0  0  0  0
   58.5019   34.3745   43.8796 H   0  0  0  0  0  0  0  0  0  0  0  0
   57.7980   32.3280   43.8470 C   0  0  0  0  0  0  0  0  0  0  0  0
   57.6215   32.3320   42.7613 H   0  0  0  0  0  0  0  0  0  0  0  0
   56.1120   28.0130   45.2140 N   0  0  0  0  0  0  0  0  0  0  0  0
   55.1560   28.3010   44.9020 H   0  0  0  0  0  0  0  0  0  0  0  0
  1  2  1  0
  2  3  2  0
  3  4  1  0
  4  5  1  0
  5  6  2  0
  5  7  1  0
  7  8  1  0
  7  9  2  0
  9 10  1  0
 10 11  1  0
 10 12  1  0
 10 13  1  0
 13 14  2  0
 14 15  1  0
 14 16  1  0
 16 17  1  0
 16 18  2  0
 18 19  1  0
 19 20  1  0
 20 21  1  0
 20 22  1  0
 20 23  1  0
 23 24  2  0
 24 25  1  0
 24 26  1  0
 26 27  1  0
 26 28  2  0
 28 29  1  0
 29 30  1  0
 30 31  1  0
 30 32  1  0
 30 33  1  0
 28 34  1  0
 34 35  1  0
 34 36  2  0
 36 37  1  0
 18 38  1  0
 38 39  1  0
 38 40  2  0
 40 41  1  0
  9 42  1  0
 42 43  1  0
 42  3  1  0
 40 13  1  0
 36 23  1  0
M  CHG  1   4  -1
M  END
>  <UniqueID>  (22) 
20

>  <SMILES>  (22) 
[H]/N=c1\[n-]c(=O)cc(Cc2ccc(OCc3ccc(OC)cc3)cc2)[nH]1

>  <Energy>  (22) 
43.46294340871586

>  <Genealogy>  (22) 
COc1ccc(COc2ccc(Cc3cc(=O)[n-]c(=N)[nH]3)cc2)cc1 (protonated)
[H]/N=c1\[n-]c(=O)cc(Cc2ccc(OCc3ccc(OC)cc3)cc2)[nH]1 (cis-trans isomerization)
[H]/N=c1\[n-]c(=O)cc(Cc2ccc(OCc3ccc(OC)cc3)cc2)[nH]1 (3D coordinates assigned)
[H]/N=c1\[n-]c(=O)cc(Cc2ccc(OCc3ccc(OC)cc3)cc2)[nH]1 (optimized conformer: 43.46294340871586 kcal/mol)

>  <smiles>  (22) 
COc1ccc(COc2ccc(Cc3cc(=O)[nH]c(=N)[nH]3)cc2)cc1

>  <score_type>  (22) 
oracle

>  <origin>  (22) 
adg

>  <m_score__min__energy>  (22) 
-10.41

>  <m_primary>  (22) 
energy

$$$$
22:0
     RDKit          3D

 21 21  0  0  0  0  0  0  0  0999 V2000
   54.2250   24.3900   46.0530 O   0  0  0  0  0  0  0  0  0  0  0  0
   55.3090   25.0110   45.9030 C   0  0  0  0  0  0  0  0  0  0  0  0
   56.5600   24.2400   45.5910 C   0  0  0  0  0  0  0  0  0  0  0  0
   56.9670   24.3880   43.8610 Cl  0  0  0  0  0  0  0  0  0  0  0  0
   55.3050   26.4410   46.0030 N   0  0  0  0  0  0  0  0  0  0  0  0
   56.4550   27.3010   45.9880 C   0  0  0  0  0  0  0  0  0  0  0  0
   57.6650   26.9150   46.5920 C   0  0  0  0  0  0  0  0  0  0  0  0
   58.7670   27.7810   46.5870 C   0  0  0  0  0  0  0  0  0  0  0  0
   60.2780   27.2870   47.3400 S   0  0  0  0  0  0  0  0  0  0  0  0
   61.0460   28.5010   47.7810 O   0  0  0  0  0  0  0  0  0  0  0  0
   61.0970   26.5030   46.3550 O   0  0  0  0  0  0  0  0  0  0  0  0
   59.9620   26.3330   48.6870 O   0  0  0  0  0  0  0  0  0  0  0  0
   58.6500   29.0500   46.0070 C   0  0  0  0  0  0  0  0  0  0  0  0
   57.4400   29.4490   45.4330 C   0  0  0  0  0  0  0  0  0  0  0  0
   56.3430   28.5820   45.4290 C   0  0  0  0  0  0  0  0  0  0  0  0
   55.1440   28.9970   44.8610 O   0  0  0  0  0  0  0  0  0  0  0  0
   57.3901   24.6369   46.1938 H   0  0  0  0  0  0  0  0  0  0  0  0
   56.3936   23.1790   45.8287 H   0  0  0  0  0  0  0  0  0  0  0  0
   57.7470   25.9281   47.0709 H   0  0  0  0  0  0  0  0  0  0  0  0
   59.5117   29.7338   46.0032 H   0  0  0  0  0  0  0  0  0  0  0  0
   57.3502   30.4486   44.9827 H   0  0  0  0  0  0  0  0  0  0  0  0
  1  2  2  0
  2  3  1  0
  3  4  1  0
  2  5  1  0
  5  6  1  0
  6  7  2  0
  7  8  1  0
  8  9  1  0
  9 10  2  0
  9 11  2  0
  9 12  1  0
  8 13  2  0
 13 14  1  0
 14 15  2  0
 15 16  1  0
 15  6  1  0
  3 17  1  0
  3 18  1  0
  7 19  1  0
 13 20  1  0
 14 21  1  0
M  CHG  3   5  -1  12  -1  16  -1
M  END
>  <UniqueID>  (23) 
21

>  <SMILES>  (23) 
O=C(CCl)[N-]c1cc(S(=O)(=O)[O-])ccc1[O-]

>  <Energy>  (23) 
24.214418783991253

>  <Genealogy>  (23) 
O=C(CCl)[N-]c1cc(S(=O)(=O)[O-])ccc1[O-] (protonated)
O=C(CCl)[N-]c1cc(S(=O)(=O)[O-])ccc1[O-] (3D coordinates assigned)
O=C(CCl)[N-]c1cc(S(=O)(=O)[O-])ccc1[O-] (optimized conformer: 24.214418783991253 kcal/mol)

>  <smiles>  (23) 
O=C(CCl)Nc1cc(S(=O)(=O)O)ccc1O

>  <score_type>  (23) 
oracle

>  <origin>  (23) 
adg

>  <m_score__min__energy>  (23) 
-13.08

>  <m_primary>  (23) 
energy

$$$$
23:0
     RDKit          3D

 51 54  0  0  0  0  0  0  0  0999 V2000
   58.4150   28.5420   44.3840 C   0  0  0  0  0  0  0  0  0  0  0  0
   58.1010   30.0030   44.5520 C   0  0  0  0  0  0  0  0  0  0  0  0
   57.7680   30.7620   43.4190 C   0  0  0  0  0  0  0  0  0  0  0  0
   57.4260   32.1100   43.5420 C   0  0  0  0  0  0  0  0  0  0  0  0
   57.4040   32.7230   44.8030 C   0  0  0  0  0  0  0  0  0  0  0  0
   57.0290   34.1760   44.9420 C   0  0  0  0  0  0  0  0  0  0  0  0
   58.1690   34.9620   45.2930 O   0  0  0  0  0  0  0  0  0  0  0  0
   59.2190   34.5430   46.1270 C   0  0  0  0  0  0  0  0  0  0  0  0
   60.4710   34.1430   45.6280 C   0  0  0  0  0  0  0  0  0  0  0  0
   61.4870   33.7420   46.5010 C   0  0  0  0  0  0  0  0  0  0  0  0
   61.2720   33.7280   47.8930 C   0  0  0  0  0  0  0  0  0  0  0  0
   62.2660   33.3320   48.8250 C   0  0  0  0  0  0  0  0  0  0  0  0
   63.6500   32.8910   48.3880 C   0  0  0  0  0  0  0  0  0  0  0  0
   63.5770   31.6460   47.7900 F   0  0  0  0  0  0  0  0  0  0  0  0
   64.5250   32.8020   49.4580 F   0  0  0  0  0  0  0  0  0  0  0  0
   64.1680   33.8050   47.4880 F   0  0  0  0  0  0  0  0  0  0  0  0
   61.9390   33.3550   50.1930 C   0  0  0  0  0  0  0  0  0  0  0  0
   60.6640   33.7610   50.5930 C   0  0  0  0  0  0  0  0  0  0  0  0
   60.3680   33.7830   51.8160 O   0  0  0  0  0  0  0  0  0  0  0  0
   59.7600   34.1250   49.6940 O   0  0  0  0  0  0  0  0  0  0  0  0
   60.0050   34.1250   48.3890 C   0  0  0  0  0  0  0  0  0  0  0  0
   58.9970   34.5260   47.5060 C   0  0  0  0  0  0  0  0  0  0  0  0
   57.7700   31.9810   45.9340 C   0  0  0  0  0  0  0  0  0  0  0  0
   58.1410   30.6320   45.8190 C   0  0  0  0  0  0  0  0  0  0  0  0
   58.5140   29.9160   47.0060 N   0  0  0  0  0  0  0  0  0  0  0  0
   59.8140   30.0500   47.6050 C   0  0  0  0  0  0  0  0  0  0  0  0
   60.5640   31.0030   47.2560 O   0  0  0  0  0  0  0  0  0  0  0  0
   60.2720   29.1010   48.6470 C   0  0  0  0  0  0  0  0  0  0  0  0
   60.2710   27.7120   48.4130 C   0  0  0  0  0  0  0  0  0  0  0  0
   60.7130   26.8280   49.4030 C   0  0  0  0  0  0  0  0  0  0  0  0
   61.1650   27.3160   50.6290 C   0  0  0  0  0  0  0  0  0  0  0  0
   61.1800   28.6920   50.8700 C   0  0  0  0  0  0  0  0  0  0  0  0
   60.7400   29.5820   49.8850 C   0  0  0  0  0  0  0  0  0  0  0  0
   58.5159   28.0725   45.3736 H   0  0  0  0  0  0  0  0  0  0  0  0
   57.6013   28.0537   43.8277 H   0  0  0  0  0  0  0  0  0  0  0  0
   59.3575   28.4311   43.8277 H   0  0  0  0  0  0  0  0  0  0  0  0
   57.7766   30.2904   42.4253 H   0  0  0  0  0  0  0  0  0  0  0  0
   57.1725   32.6942   42.6451 H   0  0  0  0  0  0  0  0  0  0  0  0
   56.6226   34.5368   43.9856 H   0  0  0  0  0  0  0  0  0  0  0  0
   56.2758   34.2715   45.7380 H   0  0  0  0  0  0  0  0  0  0  0  0
   60.6526   34.1455   44.5431 H   0  0  0  0  0  0  0  0  0  0  0  0
   62.4629   33.4347   46.0971 H   0  0  0  0  0  0  0  0  0  0  0  0
   62.6842   33.0546   50.9443 H   0  0  0  0  0  0  0  0  0  0  0  0
   58.0175   34.8317   47.9024 H   0  0  0  0  0  0  0  0  0  0  0  0
   57.7666   32.4613   46.9236 H   0  0  0  0  0  0  0  0  0  0  0  0
   57.7530   29.4710   47.5640 H   0  0  0  0  0  0  0  0  0  0  0  0
   59.9208   27.3203   47.4466 H   0  0  0  0  0  0  0  0  0  0  0  0
   60.7041   25.7444   49.2140 H   0  0  0  0  0  0  0  0  0  0  0  0
   61.5096   26.6176   51.4059 H   0  0  0  0  0  0  0  0  0  0  0  0
   61.5386   29.0762   51.8364 H   0  0  0  0  0  0  0  0  0  0  0  0
   60.7596   30.6647   50.0785 H   0  0  0  0  0  0  0  0  0  0  0  0
  1  2  1  0
  2  3  2  0
  3  4  1  0
  4  5  2  0
  5  6  1  0
  6  7  1  0
  7  8  1  0
  8  9  2  0
  9 10  1  0
 10 11  2  0
 11 12  1  0
 12 13  1  0
 13 14  1  0
 13 15  1  0
 13 16  1  0
 12 17  2  0
 17 18  1  0
 18 19  2  0
 18 20  1  0
 20 21  1  0
 21 22  2  0
  5 23  1  0
 23 24  2  0
 24 25  1  0
 25 26  1  0
 26 27  2  0
 26 28  1  0
 28 29  2  0
 29 30  1  0
 30 31  2  0
 31 32  1  0
 32 33  2  0
 24  2  1  0
 33 28  1  0
 22  8  1  0
 21 11  1  0
  1 34  1  0
  1 35  1  0
  1 36  1  0
  3 37  1  0
  4 38  1  0
  6 39  1  0
  6 40  1  0
  9 41  1  0
 10 42  1  0
 17 43  1  0
 22 44  1  0
 23 45  1  0
 25 46  1  0
 29 47  1  0
 30 48  1  0
 31 49  1  0
 32 50  1  0
 33 51  1  0
M  END
>  <UniqueID>  (24) 
22

>  <SMILES>  (24) 
Cc1ccc(COc2ccc3c(C(F)(F)F)cc(=O)oc3c2)cc1NC(=O)c1ccccc1

>  <Energy>  (24) 
70.72237040492219

>  <Genealogy>  (24) 
Cc1ccc(COc2ccc3c(C(F)(F)F)cc(=O)oc3c2)cc1NC(=O)c1ccccc1 (3D coordinates assigned)
Cc1ccc(COc2ccc3c(C(F)(F)F)cc(=O)oc3c2)cc1NC(=O)c1ccccc1 (optimized conformer: 70.72237040492219 kcal/mol)

>  <smiles>  (24) 
Cc1ccc(COc2ccc3c(C(F)(F)F)cc(=O)oc3c2)cc1NC(=O)c1ccccc1

>  <score_type>  (24) 
oracle

>  <origin>  (24) 
adg

>  <m_score__min__energy>  (24) 
-9.2699999999999996

>  <m_primary>  (24) 
energy

$$$$
24:0
     RDKit          3D

 45 47  0  0  0  0  0  0  0  0999 V2000
   57.0624   21.8865   44.9548 H   0  0  0  0  0  0  0  0  0  0  0  0
   56.5110   22.8150   45.1640 C   0  0  0  0  0  0  0  0  0  0  0  0
   56.9770   23.6860   46.0970 N   0  0  0  0  0  0  0  0  0  0  0  0
   56.3310   24.8530   46.3850 C   0  0  0  0  0  0  0  0  0  0  0  0
   56.7900   25.6690   47.2910 N   0  0  0  0  0  0  0  0  0  0  0  0
   58.1030   26.2490   47.3180 C   0  0  0  0  0  0  0  0  0  0  0  0
   58.8680   25.9580   48.2750 O   0  0  0  0  0  0  0  0  0  0  0  0
   58.5560   27.2300   46.3010 C   0  0  0  0  0  0  0  0  0  0  0  0
   59.9230   27.3550   46.0000 C   0  0  0  0  0  0  0  0  0  0  0  0
   60.6545   26.7034   46.5003 H   0  0  0  0  0  0  0  0  0  0  0  0
   60.3590   28.3020   45.0690 C   0  0  0  0  0  0  0  0  0  0  0  0
   61.4294   28.3832   44.8290 H   0  0  0  0  0  0  0  0  0  0  0  0
   59.4390   29.1450   44.4430 C   0  0  0  0  0  0  0  0  0  0  0  0
   59.7853   29.8852   43.7066 H   0  0  0  0  0  0  0  0  0  0  0  0
   58.0750   29.0500   44.7510 C   0  0  0  0  0  0  0  0  0  0  0  0
   56.9110   30.1520   44.0210 S   0  0  0  0  0  0  0  0  0  0  0  0
   55.6720   30.1700   44.8710 O   0  0  0  0  0  0  0  0  0  0  0  0
   56.5440   29.6820   42.6400 O   0  0  0  0  0  0  0  0  0  0  0  0
   57.5640   31.7660   43.9390 N   0  0  0  0  0  0  0  0  0  0  0  0
   57.0610   32.6080   45.0280 C   0  0  0  0  0  0  0  0  0  0  0  0
   56.4922   31.9837   45.7328 H   0  0  0  0  0  0  0  0  0  0  0  0
   56.4156   33.3888   44.5993 H   0  0  0  0  0  0  0  0  0  0  0  0
   58.1990   33.2730   45.7640 C   0  0  0  0  0  0  0  0  0  0  0  0
   58.6750   34.5120   45.3030 C   0  0  0  0  0  0  0  0  0  0  0  0
   58.2432   34.9592   44.3955 H   0  0  0  0  0  0  0  0  0  0  0  0
   59.6920   35.1800   45.9880 C   0  0  0  0  0  0  0  0  0  0  0  0
   60.0541   36.1524   45.6228 H   0  0  0  0  0  0  0  0  0  0  0  0
   60.2490   34.6150   47.1350 C   0  0  0  0  0  0  0  0  0  0  0  0
   61.0493   35.1433   47.6738 H   0  0  0  0  0  0  0  0  0  0  0  0
   59.7930   33.3800   47.6010 C   0  0  0  0  0  0  0  0  0  0  0  0
   60.2396   32.9390   48.5044 H   0  0  0  0  0  0  0  0  0  0  0  0
   58.7650   32.6940   46.9230 C   0  0  0  0  0  0  0  0  0  0  0  0
   58.2800   31.4570   47.3780 O   0  0  0  0  0  0  0  0  0  0  0  0
   59.0960   30.3980   47.8660 C   0  0  0  0  0  0  0  0  0  0  0  0
   59.0892   30.4069   48.9659 H   0  0  0  0  0  0  0  0  0  0  0  0
   58.7033   29.4361   47.5046 H   0  0  0  0  0  0  0  0  0  0  0  0
   60.1262   30.5325   47.5046 H   0  0  0  0  0  0  0  0  0  0  0  0
   57.6370   28.0870   45.6680 C   0  0  0  0  0  0  0  0  0  0  0  0
   56.5644   27.9996   45.8957 H   0  0  0  0  0  0  0  0  0  0  0  0
   55.1370   25.1630   45.7150 C   0  0  0  0  0  0  0  0  0  0  0  0
   54.4480   26.3370   45.9950 O   0  0  0  0  0  0  0  0  0  0  0  0
   54.6420   24.2780   44.7510 C   0  0  0  0  0  0  0  0  0  0  0  0
   53.7103   24.5116   44.2149 H   0  0  0  0  0  0  0  0  0  0  0  0
   55.3330   23.0980   44.4710 C   0  0  0  0  0  0  0  0  0  0  0  0
   54.9531   22.3983   43.7120 H   0  0  0  0  0  0  0  0  0  0  0  0
  1  2  1  0
  2  3  1  0
  3  4  1  0
  4  5  2  0
  5  6  1  0
  6  7  2  0
  6  8  1  0
  8  9  2  0
  9 10  1  0
  9 11  1  0
 11 12  1  0
 11 13  2  0
 13 14  1  0
 13 15  1  0
 15 16  1  0
 16 17  2  0
 16 18  2  0
 16 19  1  0
 19 20  1  0
 20 21  1  0
 20 22  1  0
 20 23  1  0
 23 24  2  0
 24 25  1  0
 24 26  1  0
 26 27  1  0
 26 28  2  0
 28 29  1  0
 28 30  1  0
 30 31  1  0
 30 32  2  0
 32 33  1  0
 33 34  1  0
 34 35  1  0
 34 36  1  0
 34 37  1  0
 15 38  2  0
 38 39  1  0
  4 40  1  0
 40 41  1  0
 40 42  2  0
 42 43  1  0
 42 44  1  0
 44 45  1  0
 44  2  2  0
 38  8  1  0
 32 23  1  0
M  CHG  3   3  -1  19  -1  41  -1
M  END
>  <UniqueID>  (25) 
23

>  <SMILES>  (25) 
COc1ccccc1C[N-]S(=O)(=O)c1cccc(C(=O)/N=c2\[n-]cccc2[O-])c1

>  <Energy>  (25) 
50.51544596183341

>  <Genealogy>  (25) 
COc1ccccc1C[N-]S(=O)(=O)c1cccc(C(=O)N=c2[n-]cccc2[O-])c1 (protonated)
COc1ccccc1C[N-]S(=O)(=O)c1cccc(C(=O)/N=c2\[n-]cccc2[O-])c1 (cis-trans isomerization)
COc1ccccc1C[N-]S(=O)(=O)c1cccc(C(=O)/N=c2\[n-]cccc2[O-])c1 (3D coordinates assigned)
COc1ccccc1C[N-]S(=O)(=O)c1cccc(C(=O)/N=c2\[n-]cccc2[O-])c1 (optimized conformer: 50.51544596183341 kcal/mol)

>  <smiles>  (25) 
COc1ccccc1CNS(=O)(=O)c1cccc(C(=O)N=c2[nH]cccc2O)c1

>  <score_type>  (25) 
oracle

>  <origin>  (25) 
adg

>  <m_score__min__energy>  (25) 
-15.99

>  <m_primary>  (25) 
energy

$$$$
25:0
     RDKit          3D

 37 38  0  0  0  0  0  0  0  0999 V2000
   63.3600   31.9590   48.1310 C   0  0  0  0  0  0  0  0  0  0  0  0
   62.1530   32.4750   47.4150 C   0  0  0  0  0  0  0  0  0  0  0  0
   61.0890   31.6210   47.1020 C   0  0  0  0  0  0  0  0  0  0  0  0
   60.0050   32.1160   46.4500 N   0  0  0  0  0  0  0  0  0  0  0  0
   59.9250   33.4260   46.0930 C   0  0  0  0  0  0  0  0  0  0  0  0
   58.7270   33.9130   45.3890 C   0  0  0  0  0  0  0  0  0  0  0  0
   58.7120   35.0700   44.8840 O   0  0  0  0  0  0  0  0  0  0  0  0
   57.6080   33.0780   45.2820 O   0  0  0  0  0  0  0  0  0  0  0  0
   57.4570   32.0940   44.2620 C   0  0  0  0  0  0  0  0  0  0  0  0
   57.4360   30.7200   44.8620 C   0  0  0  0  0  0  0  0  0  0  0  0
   56.3450   30.0890   44.9090 O   0  0  0  0  0  0  0  0  0  0  0  0
   58.6550   30.1080   45.3120 N   0  0  0  0  0  0  0  0  0  0  0  0
   58.7160   28.8620   46.0250 C   0  0  0  0  0  0  0  0  0  0  0  0
   59.8100   28.5410   46.8490 C   0  0  0  0  0  0  0  0  0  0  0  0
   59.8570   27.3100   47.5100 C   0  0  0  0  0  0  0  0  0  0  0  0
   58.8220   26.3860   47.3480 C   0  0  0  0  0  0  0  0  0  0  0  0
   57.7330   26.6870   46.5180 C   0  0  0  0  0  0  0  0  0  0  0  0
   56.4400   25.5140   46.2890 S   0  0  0  0  0  0  0  0  0  0  0  0
   54.9540   26.3450   45.9980 N   0  0  0  0  0  0  0  0  0  0  0  0
   56.3080   24.6570   47.5160 O   0  0  0  0  0  0  0  0  0  0  0  0
   56.7550   24.6290   45.1150 O   0  0  0  0  0  0  0  0  0  0  0  0
   57.6920   27.9190   45.8490 C   0  0  0  0  0  0  0  0  0  0  0  0
   60.9920   34.2810   46.4080 C   0  0  0  0  0  0  0  0  0  0  0  0
   62.0780   33.7850   47.0600 N   0  0  0  0  0  0  0  0  0  0  0  0
   63.1993   32.0277   49.2170 H   0  0  0  0  0  0  0  0  0  0  0  0
   63.5312   30.9090   47.8514 H   0  0  0  0  0  0  0  0  0  0  0  0
   64.2374   32.5607   47.8514 H   0  0  0  0  0  0  0  0  0  0  0  0
   61.1303   30.5580   47.3817 H   0  0  0  0  0  0  0  0  0  0  0  0
   56.5131   32.2699   43.7253 H   0  0  0  0  0  0  0  0  0  0  0  0
   58.3059   32.1672   43.5663 H   0  0  0  0  0  0  0  0  0  0  0  0
   59.5580   30.5480   45.0220 H   0  0  0  0  0  0  0  0  0  0  0  0
   60.6318   29.2615   46.9737 H   0  0  0  0  0  0  0  0  0  0  0  0
   60.7113   27.0684   48.1594 H   0  0  0  0  0  0  0  0  0  0  0  0
   58.8615   25.4201   47.8728 H   0  0  0  0  0  0  0  0  0  0  0  0
   55.1630   27.3670   46.0410 H   0  0  0  0  0  0  0  0  0  0  0  0
   56.8493   28.1481   45.1801 H   0  0  0  0  0  0  0  0  0  0  0  0
   60.9506   35.3444   46.1298 H   0  0  0  0  0  0  0  0  0  0  0  0
  1  2  1  0
  2  3  2  0
  3  4  1  0
  4  5  2  0
  5  6  1  0
  6  7  2  0
  6  8  1  0
  8  9  1  0
  9 10  1  0
 10 11  2  0
 10 12  1  0
 12 13  1  0
 13 14  2  0
 14 15  1  0
 15 16  2  0
 16 17  1  0
 17 18  1  0
 18 19  1  0
 18 20  2  0
 18 21  2  0
 17 22  2  0
  5 23  1  0
 23 24  2  0
 24  2  1  0
 22 13  1  0
  1 25  1  0
  1 26  1  0
  1 27  1  0
  3 28  1  0
  9 29  1  0
  9 30  1  0
 12 31  1  0
 14 32  1  0
 15 33  1  0
 16 34  1  0
 19 35  1  0
 22 36  1  0
 23 37  1  0
M  CHG  1  19  -1
M  END
>  <UniqueID>  (26) 
24

>  <SMILES>  (26) 
Cc1cnc(C(=O)OCC(=O)Nc2cccc(S([NH-])(=O)=O)c2)cn1

>  <Energy>  (26) 
38.234054898291795

>  <Genealogy>  (26) 
Cc1cnc(C(=O)OCC(=O)Nc2cccc(S([NH-])(=O)=O)c2)cn1 (protonated)
Cc1cnc(C(=O)OCC(=O)Nc2cccc(S([NH-])(=O)=O)c2)cn1 (3D coordinates assigned)
Cc1cnc(C(=O)OCC(=O)Nc2cccc(S([NH-])(=O)=O)c2)cn1 (optimized conformer: 38.234054898291795 kcal/mol)

>  <smiles>  (26) 
Cc1cnc(C(=O)OCC(=O)Nc2cccc(S(N)(=O)=O)c2)cn1

>  <score_type>  (26) 
oracle

>  <origin>  (26) 
adg

>  <m_score__min__energy>  (26) 
-10.69

>  <m_primary>  (26) 
energy

$$$$
26:0
     RDKit          3D

 46 49  0  0  0  0  0  0  0  0999 V2000
   54.3770   25.9570   45.6800 O   0  0  0  0  0  0  0  0  0  0  0  0
   55.5280   25.7870   46.1630 C   0  0  0  0  0  0  0  0  0  0  0  0
   55.8920   24.4760   46.6140 N   0  0  0  0  0  0  0  0  0  0  0  0
   55.0010   23.3660   46.7800 C   0  0  0  0  0  0  0  0  0  0  0  0
   53.9180   23.1750   45.9040 C   0  0  0  0  0  0  0  0  0  0  0  0
   53.0720   22.0730   46.0570 C   0  0  0  0  0  0  0  0  0  0  0  0
   53.3150   21.1410   47.0670 C   0  0  0  0  0  0  0  0  0  0  0  0
   54.4110   21.3000   47.9180 C   0  0  0  0  0  0  0  0  0  0  0  0
   55.2620   22.4020   47.7700 C   0  0  0  0  0  0  0  0  0  0  0  0
   56.7680   22.5710   48.9410 Br  0  0  0  0  0  0  0  0  0  0  0  0
   56.5480   26.9120   46.1110 C   0  0  2  0  0  0  0  0  0  0  0  0
   56.1230   28.0270   45.2470 N   0  0  0  0  0  0  0  0  0  0  0  0
   56.9580   29.1840   45.0460 C   0  0  0  0  0  0  0  0  0  0  0  0
   56.4080   30.3590   44.5090 C   0  0  0  0  0  0  0  0  0  0  0  0
   57.2070   31.4890   44.3160 C   0  0  0  0  0  0  0  0  0  0  0  0
   58.5620   31.4550   44.6540 C   0  0  0  0  0  0  0  0  0  0  0  0
   59.1250   30.2880   45.1790 C   0  0  0  0  0  0  0  0  0  0  0  0
   58.3280   29.1530   45.3710 C   0  0  0  0  0  0  0  0  0  0  0  0
   59.0350   27.6660   45.9810 S   0  0  0  0  0  0  0  0  0  0  0  0
   59.2910   27.7960   47.4570 O   0  0  0  0  0  0  0  0  0  0  0  0
   60.3270   27.3730   45.2720 O   0  0  0  0  0  0  0  0  0  0  0  0
   57.8720   26.3940   45.7010 N   0  0  0  0  0  0  0  0  0  0  0  0
   57.9070   25.9740   44.2810 C   0  0  0  0  0  0  0  0  0  0  0  0
   57.6580   24.4940   44.1750 C   0  0  0  0  0  0  0  0  0  0  0  0
   56.6580   23.9910   43.3240 C   0  0  0  0  0  0  0  0  0  0  0  0
   56.4370   22.6120   43.2380 C   0  0  0  0  0  0  0  0  0  0  0  0
   57.2050   21.7300   44.0030 C   0  0  0  0  0  0  0  0  0  0  0  0
   58.1920   22.2240   44.8590 C   0  0  0  0  0  0  0  0  0  0  0  0
   58.4170   23.6010   44.9480 C   0  0  0  0  0  0  0  0  0  0  0  0
   53.7356   23.8966   45.0940 H   0  0  0  0  0  0  0  0  0  0  0  0
   52.2144   21.9402   45.3811 H   0  0  0  0  0  0  0  0  0  0  0  0
   52.6423   20.2799   47.1930 H   0  0  0  0  0  0  0  0  0  0  0  0
   54.6061   20.5579   48.7062 H   0  0  0  0  0  0  0  0  0  0  0  0
   56.6278   27.3215   47.1288 H   0  0  0  0  0  0  0  0  0  0  0  0
   55.1470   28.0550   44.8750 H   0  0  0  0  0  0  0  0  0  0  0  0
   55.3422   30.3901   44.2387 H   0  0  0  0  0  0  0  0  0  0  0  0
   56.7683   32.4067   43.8973 H   0  0  0  0  0  0  0  0  0  0  0  0
   59.1871   32.3481   44.5068 H   0  0  0  0  0  0  0  0  0  0  0  0
   60.1930   30.2615   45.4410 H   0  0  0  0  0  0  0  0  0  0  0  0
   57.1293   26.5150   43.7220 H   0  0  0  0  0  0  0  0  0  0  0  0
   58.8973   26.2042   43.8610 H   0  0  0  0  0  0  0  0  0  0  0  0
   56.0482   24.6830   42.7246 H   0  0  0  0  0  0  0  0  0  0  0  0
   55.6575   22.2215   42.5672 H   0  0  0  0  0  0  0  0  0  0  0  0
   57.0321   20.6461   43.9310 H   0  0  0  0  0  0  0  0  0  0  0  0
   58.7929   21.5289   45.4638 H   0  0  0  0  0  0  0  0  0  0  0  0
   59.1921   23.9864   45.6267 H   0  0  0  0  0  0  0  0  0  0  0  0
  1  2  2  0
  2  3  1  0
  3  4  1  0
  4  5  2  0
  5  6  1  0
  6  7  2  0
  7  8  1  0
  8  9  2  0
  9 10  1  0
  2 11  1  0
 11 12  1  0
 12 13  1  0
 13 14  2  0
 14 15  1  0
 15 16  2  0
 16 17  1  0
 17 18  2  0
 18 19  1  0
 19 20  2  0
 19 21  2  0
 19 22  1  0
 22 23  1  0
 23 24  1  0
 24 25  2  0
 25 26  1  0
 26 27  2  0
 27 28  1  0
 28 29  2  0
  9  4  1  0
 22 11  1  0
 29 24  1  0
 18 13  1  0
  5 30  1  0
  6 31  1  0
  7 32  1  0
  8 33  1  0
 11 34  1  1
 12 35  1  0
 14 36  1  0
 15 37  1  0
 16 38  1  0
 17 39  1  0
 23 40  1  0
 23 41  1  0
 25 42  1  0
 26 43  1  0
 27 44  1  0
 28 45  1  0
 29 46  1  0
M  CHG  1   3  -1
M  END
>  <UniqueID>  (27) 
25

>  <SMILES>  (27) 
O=C([N-]c1ccccc1Br)[C@@H]1Nc2ccccc2S(=O)(=O)N1Cc1ccccc1

>  <Energy>  (27) 
61.115385647951015

>  <Genealogy>  (27) 
O=C([N-]c1ccccc1Br)C1Nc2ccccc2S(=O)(=O)N1Cc1ccccc1 (protonated)
O=C([N-]c1ccccc1Br)[C@@H]1Nc2ccccc2S(=O)(=O)N1Cc1ccccc1 (chirality)
O=C([N-]c1ccccc1Br)[C@@H]1Nc2ccccc2S(=O)(=O)N1Cc1ccccc1 (3D coordinates assigned)
O=C([N-]c1ccccc1Br)[C@@H]1Nc2ccccc2S(=O)(=O)N1Cc1ccccc1 (nonaromatic ring conformer: 61.115385647951015 kcal/mol)

>  <smiles>  (27) 
O=C(Nc1ccccc1Br)C1Nc2ccccc2S(=O)(=O)N1Cc1ccccc1

>  <score_type>  (27) 
oracle

>  <origin>  (27) 
adg

>  <m_score__min__energy>  (27) 
-9.9800000000000004

>  <m_primary>  (27) 
energy

$$$$
27:0
     RDKit          3D

 67 70  0  0  0  0  0  0  0  0999 V2000
   55.2460   29.7130   44.1060 C   0  0  0  0  0  0  0  0  0  0  0  0
   56.2170   29.7730   45.1920 N   0  0  0  0  0  0  0  0  0  0  0  0
   57.4070   30.9950   44.8610 S   0  0  0  0  0  0  0  0  0  0  0  0
   58.2110   30.5860   43.6590 O   0  0  0  0  0  0  0  0  0  0  0  0
   56.7070   32.2840   44.5320 O   0  0  0  0  0  0  0  0  0  0  0  0
   58.4650   31.2420   46.2610 C   0  0  0  0  0  0  0  0  0  0  0  0
   58.4240   32.3060   47.1460 C   0  0  0  0  0  0  0  0  0  0  0  0
   57.4480   33.4350   47.1560 C   0  0  0  0  0  0  0  0  0  0  0  0
   59.4350   32.2010   48.0280 N   0  0  0  0  0  0  0  0  0  0  0  0
   60.0740   31.0690   47.6690 C   0  0  0  0  0  0  0  0  0  0  0  0
   61.5430   30.4910   48.5300 S   0  0  0  0  0  0  0  0  0  0  0  0
   60.8920   28.8170   48.8560 C   0  0  0  0  0  0  0  0  0  0  0  0
   60.7070   28.6060   50.3250 C   0  0  0  0  0  0  0  0  0  0  0  0
   60.5360   27.4410   50.7760 O   0  0  0  0  0  0  0  0  0  0  0  0
   60.7800   29.7280   51.2090 N   0  0  0  0  0  0  0  0  0  0  0  0
   59.8100   30.7760   51.3090 C   0  0  0  0  0  0  0  0  0  0  0  0
   58.4640   30.4580   51.0830 C   0  0  0  0  0  0  0  0  0  0  0  0
   57.4690   31.4240   51.2420 C   0  0  0  0  0  0  0  0  0  0  0  0
   57.8080   32.7140   51.6510 C   0  0  0  0  0  0  0  0  0  0  0  0
   59.1450   33.0410   51.8990 C   0  0  0  0  0  0  0  0  0  0  0  0
   60.1600   32.0730   51.7410 C   0  0  0  0  0  0  0  0  0  0  0  0
   61.5080   32.3510   52.0310 O   0  0  0  0  0  0  0  0  0  0  0  0
   62.2160   33.5270   51.6370 C   0  0  0  0  0  0  0  0  0  0  0  0
   62.5070   33.4980   50.1600 C   0  0  0  0  0  0  0  0  0  0  0  0
   61.5760   34.0280   49.2490 C   0  0  0  0  0  0  0  0  0  0  0  0
   61.8440   34.0130   47.8770 C   0  0  0  0  0  0  0  0  0  0  0  0
   63.0450   33.4710   47.4040 C   0  0  0  0  0  0  0  0  0  0  0  0
   63.3050   33.4600   46.0720 F   0  0  0  0  0  0  0  0  0  0  0  0
   63.9810   32.9520   48.3030 C   0  0  0  0  0  0  0  0  0  0  0  0
   63.7170   32.9650   49.6780 C   0  0  0  0  0  0  0  0  0  0  0  0
   59.5160   30.4620   46.5940 N   0  0  0  0  0  0  0  0  0  0  0  0
   59.9790   29.2400   45.9210 C   0  0  0  0  0  0  0  0  0  0  0  0
   58.9690   28.1320   46.0550 C   0  0  0  0  0  0  0  0  0  0  0  0
   58.6250   27.6280   47.3200 C   0  0  0  0  0  0  0  0  0  0  0  0
   57.6850   26.6000   47.4400 C   0  0  0  0  0  0  0  0  0  0  0  0
   57.0890   26.0450   46.3020 C   0  0  0  0  0  0  0  0  0  0  0  0
   56.1450   25.0200   46.4800 O   0  0  0  0  0  0  0  0  0  0  0  0
   54.9890   24.8140   45.6730 C   0  0  0  0  0  0  0  0  0  0  0  0
   55.3890   24.4930   44.3910 F   0  0  0  0  0  0  0  0  0  0  0  0
   54.2300   25.9700   45.6270 F   0  0  0  0  0  0  0  0  0  0  0  0
   54.2330   23.7710   46.1770 F   0  0  0  0  0  0  0  0  0  0  0  0
   57.4540   26.5290   45.0300 C   0  0  0  0  0  0  0  0  0  0  0  0
   58.3840   27.5670   44.9110 C   0  0  0  0  0  0  0  0  0  0  0  0
   54.2308   29.6503   44.5249 H   0  0  0  0  0  0  0  0  0  0  0  0
   55.3319   30.6182   43.4869 H   0  0  0  0  0  0  0  0  0  0  0  0
   55.4427   28.8253   43.4869 H   0  0  0  0  0  0  0  0  0  0  0  0
   57.2128   33.7071   48.1955 H   0  0  0  0  0  0  0  0  0  0  0  0
   57.8854   34.3024   46.6399 H   0  0  0  0  0  0  0  0  0  0  0  0
   56.5265   33.1276   46.6399 H   0  0  0  0  0  0  0  0  0  0  0  0
   59.9233   28.6997   48.3482 H   0  0  0  0  0  0  0  0  0  0  0  0
   61.6101   28.0750   48.4768 H   0  0  0  0  0  0  0  0  0  0  0  0
   58.1890   29.4377   50.7775 H   0  0  0  0  0  0  0  0  0  0  0  0
   56.4175   31.1681   51.0448 H   0  0  0  0  0  0  0  0  0  0  0  0
   57.0233   33.4743   51.7785 H   0  0  0  0  0  0  0  0  0  0  0  0
   59.4075   34.0600   52.2195 H   0  0  0  0  0  0  0  0  0  0  0  0
   61.6048   34.4119   51.8681 H   0  0  0  0  0  0  0  0  0  0  0  0
   63.1682   33.5695   52.1862 H   0  0  0  0  0  0  0  0  0  0  0  0
   60.6323   34.4564   49.6177 H   0  0  0  0  0  0  0  0  0  0  0  0
   61.1111   34.4271   47.1690 H   0  0  0  0  0  0  0  0  0  0  0  0
   64.9268   32.5325   47.9296 H   0  0  0  0  0  0  0  0  0  0  0  0
   64.4568   32.5578   50.3829 H   0  0  0  0  0  0  0  0  0  0  0  0
   60.1367   29.4553   44.8539 H   0  0  0  0  0  0  0  0  0  0  0  0
   60.9183   28.9157   46.3928 H   0  0  0  0  0  0  0  0  0  0  0  0
   59.0979   28.0445   48.2216 H   0  0  0  0  0  0  0  0  0  0  0  0
   57.4117   26.2244   48.4371 H   0  0  0  0  0  0  0  0  0  0  0  0
   57.0058   26.0888   44.1270 H   0  0  0  0  0  0  0  0  0  0  0  0
   58.6587   27.9430   43.9144 H   0  0  0  0  0  0  0  0  0  0  0  0
  1  2  1  0
  2  3  1  0
  3  4  2  0
  3  5  2  0
  3  6  1  0
  6  7  2  0
  7  8  1  0
  7  9  1  0
  9 10  2  0
 10 11  1  0
 11 12  1  0
 12 13  1  0
 13 14  2  0
 13 15  1  0
 15 16  1  0
 16 17  2  0
 17 18  1  0
 18 19  2  0
 19 20  1  0
 20 21  2  0
 21 22  1  0
 22 23  1  0
 23 24  1  0
 24 25  2  0
 25 26  1  0
 26 27  2  0
 27 28  1  0
 27 29  1  0
 29 30  2  0
 10 31  1  0
 31 32  1  0
 32 33  1  0
 33 34  2  0
 34 35  1  0
 35 36  2  0
 36 37  1  0
 37 38  1  0
 38 39  1  0
 38 40  1  0
 38 41  1  0
 36 42  1  0
 42 43  2  0
 31  6  1  0
 43 33  1  0
 21 16  1  0
 30 24  1  0
  1 44  1  0
  1 45  1  0
  1 46  1  0
  8 47  1  0
  8 48  1  0
  8 49  1  0
 12 50  1  0
 12 51  1  0
 17 52  1  0
 18 53  1  0
 19 54  1  0
 20 55  1  0
 23 56  1  0
 23 57  1  0
 25 58  1  0
 26 59  1  0
 29 60  1  0
 30 61  1  0
 32 62  1  0
 32 63  1  0
 34 64  1  0
 35 65  1  0
 42 66  1  0
 43 67  1  0
M  CHG  2   2  -1  15  -1
M  END
>  <UniqueID>  (28) 
26

>  <SMILES>  (28) 
C[N-]S(=O)(=O)c1c(C)nc(SCC(=O)[N-]c2ccccc2OCc2ccc(F)cc2)n1Cc1ccc(OC(F)(F)F)cc1

>  <Energy>  (28) 
96.07006849888708

>  <Genealogy>  (28) 
C[N-]S(=O)(=O)c1c(C)nc(SCC(=O)[N-]c2ccccc2OCc2ccc(F)cc2)n1Cc1ccc(OC(F)(F)F)cc1 (protonated)
C[N-]S(=O)(=O)c1c(C)nc(SCC(=O)[N-]c2ccccc2OCc2ccc(F)cc2)n1Cc1ccc(OC(F)(F)F)cc1 (3D coordinates assigned)
C[N-]S(=O)(=O)c1c(C)nc(SCC(=O)[N-]c2ccccc2OCc2ccc(F)cc2)n1Cc1ccc(OC(F)(F)F)cc1 (optimized conformer: 96.07006849888708 kcal/mol)

>  <smiles>  (28) 
CNS(=O)(=O)c1c(C)nc(SCC(=O)Nc2ccccc2OCc2ccc(F)cc2)n1Cc1ccc(OC(F)(F)F)cc1

>  <score_type>  (28) 
oracle

>  <origin>  (28) 
adg

>  <m_score__min__energy>  (28) 
-11.48

>  <m_primary>  (28) 
energy

$$$$
28:0
     RDKit          3D

 49 51  0  0  0  0  0  0  0  0999 V2000
   64.5370   32.3800   49.4230 C   0  0  0  0  0  0  0  0  0  0  0  0
   63.2600   32.8900   49.7940 O   0  0  0  0  0  0  0  0  0  0  0  0
   62.3340   33.4380   48.8940 C   0  0  0  0  0  0  0  0  0  0  0  0
   61.1450   34.0620   49.3210 C   0  0  0  0  0  0  0  0  0  0  0  0
   60.2530   34.5930   48.3850 C   0  0  0  0  0  0  0  0  0  0  0  0
   60.5390   34.5200   47.0130 C   0  0  0  0  0  0  0  0  0  0  0  0
   59.5560   35.0460   46.0020 C   0  0  0  0  0  0  0  0  0  0  0  0
   58.1790   34.4210   46.2250 C   0  0  0  0  0  0  0  0  0  0  0  0
   57.8900   33.4460   45.1770 N   0  0  0  0  0  0  0  0  0  0  0  0
   57.6120   32.0560   45.3960 C   0  0  0  0  0  0  0  0  0  0  0  0
   56.6390   31.5280   44.7960 O   0  0  0  0  0  0  0  0  0  0  0  0
   58.4270   31.2300   46.3090 C   0  0  0  0  0  0  0  0  0  0  0  0
   58.7480   31.7300   47.5810 C   0  0  0  0  0  0  0  0  0  0  0  0
   59.5310   30.9790   48.4610 C   0  0  0  0  0  0  0  0  0  0  0  0
   60.0180   29.7310   48.0720 C   0  0  0  0  0  0  0  0  0  0  0  0
   59.7190   29.2290   46.8040 C   0  0  0  0  0  0  0  0  0  0  0  0
   58.9170   29.9630   45.9180 C   0  0  0  0  0  0  0  0  0  0  0  0
   58.5320   29.2490   44.3100 S   0  0  0  0  0  0  0  0  0  0  0  0
   57.6050   27.8790   45.0130 C   0  0  0  0  0  0  0  0  0  0  0  0
   58.2340   26.6500   45.2270 C   0  0  0  0  0  0  0  0  0  0  0  0
   57.5160   25.5680   45.7570 C   0  0  0  0  0  0  0  0  0  0  0  0
   58.1800   24.2350   45.9570 C   0  0  0  0  0  0  0  0  0  0  0  0
   56.1580   25.7530   46.0710 C   0  0  0  0  0  0  0  0  0  0  0  0
   55.4720   24.8030   46.5350 O   0  0  0  0  0  0  0  0  0  0  0  0
   55.5730   26.9640   45.8760 N   0  0  0  0  0  0  0  0  0  0  0  0
   56.2570   28.0240   45.3670 C   0  0  0  0  0  0  0  0  0  0  0  0
   55.6130   29.2460   45.2020 O   0  0  0  0  0  0  0  0  0  0  0  0
   61.7150   33.8850   46.5880 C   0  0  0  0  0  0  0  0  0  0  0  0
   62.6070   33.3540   47.5240 C   0  0  0  0  0  0  0  0  0  0  0  0
   65.1166   32.1485   50.3288 H   0  0  0  0  0  0  0  0  0  0  0  0
   64.4072   31.4647   48.8268 H   0  0  0  0  0  0  0  0  0  0  0  0
   65.0734   33.1329   48.8268 H   0  0  0  0  0  0  0  0  0  0  0  0
   60.9179   34.1315   50.3951 H   0  0  0  0  0  0  0  0  0  0  0  0
   59.3223   35.0704   48.7254 H   0  0  0  0  0  0  0  0  0  0  0  0
   59.4795   36.1385   46.1048 H   0  0  0  0  0  0  0  0  0  0  0  0
   59.9075   34.7859   44.9927 H   0  0  0  0  0  0  0  0  0  0  0  0
   58.1627   33.9181   47.2032 H   0  0  0  0  0  0  0  0  0  0  0  0
   57.4170   35.2138   46.1965 H   0  0  0  0  0  0  0  0  0  0  0  0
   58.3802   32.7205   47.8870 H   0  0  0  0  0  0  0  0  0  0  0  0
   59.7638   31.3721   49.4616 H   0  0  0  0  0  0  0  0  0  0  0  0
   60.6377   29.1423   48.7644 H   0  0  0  0  0  0  0  0  0  0  0  0
   60.1157   28.2499   46.4974 H   0  0  0  0  0  0  0  0  0  0  0  0
   59.2988   26.5302   44.9783 H   0  0  0  0  0  0  0  0  0  0  0  0
   58.2805   24.0333   47.0337 H   0  0  0  0  0  0  0  0  0  0  0  0
   57.5689   23.4475   45.4919 H   0  0  0  0  0  0  0  0  0  0  0  0
   59.1767   24.2484   45.4919 H   0  0  0  0  0  0  0  0  0  0  0  0
   55.9940   30.0940   45.6050 H   0  0  0  0  0  0  0  0  0  0  0  0
   61.9363   33.8045   45.5135 H   0  0  0  0  0  0  0  0  0  0  0  0
   63.5312   32.8660   47.1809 H   0  0  0  0  0  0  0  0  0  0  0  0
  1  2  1  0
  2  3  1  0
  3  4  2  0
  4  5  1  0
  5  6  2  0
  6  7  1  0
  7  8  1  0
  8  9  1  0
  9 10  1  0
 10 11  2  0
 10 12  1  0
 12 13  2  0
 13 14  1  0
 14 15  2  0
 15 16  1  0
 16 17  2  0
 17 18  1  0
 18 19  1  0
 19 20  1  0
 20 21  2  0
 21 22  1  0
 21 23  1  0
 23 24  2  0
 23 25  1  0
 25 26  1  0
 26 27  1  0
  6 28  1  0
 28 29  2  0
 29  3  1  0
 17 12  1  0
 26 19  2  0
  1 30  1  0
  1 31  1  0
  1 32  1  0
  4 33  1  0
  5 34  1  0
  7 35  1  0
  7 36  1  0
  8 37  1  0
  8 38  1  0
 13 39  1  0
 14 40  1  0
 15 41  1  0
 16 42  1  0
 20 43  1  0
 22 44  1  0
 22 45  1  0
 22 46  1  0
 27 47  1  0
 28 48  1  0
 29 49  1  0
M  CHG  2   9  -1  25  -1
M  END
>  <UniqueID>  (29) 
27

>  <SMILES>  (29) 
COc1ccc(CC[N-]C(=O)c2ccccc2Sc2cc(C)c(=O)[n-]c2O)cc1

>  <Energy>  (29) 
48.65769472790598

>  <Genealogy>  (29) 
COc1ccc(CC[N-]C(=O)c2ccccc2Sc2cc(C)c(=O)[n-]c2O)cc1 (protonated)
COc1ccc(CC[N-]C(=O)c2ccccc2Sc2cc(C)c(=O)[n-]c2O)cc1 (3D coordinates assigned)
COc1ccc(CC[N-]C(=O)c2ccccc2Sc2cc(C)c(=O)[n-]c2O)cc1 (optimized conformer: 48.65769472790598 kcal/mol)

>  <smiles>  (29) 
COc1ccc(CCNC(=O)c2ccccc2Sc2cc(C)c(=O)[nH]c2O)cc1

>  <score_type>  (29) 
oracle

>  <origin>  (29) 
adg

>  <m_score__min__energy>  (29) 
-13.050000000000001

>  <m_primary>  (29) 
energy

$$$$
29:0
     RDKit          3D

 25 27  0  0  0  0  0  0  0  0999 V2000
   58.2940   27.8320   46.5570 O   0  0  0  0  0  0  0  0  0  0  0  0
   57.0940   27.5650   45.6580 S   0  0  0  0  0  0  0  0  0  0  0  0
   56.4700   29.1510   45.3480 N   0  0  0  0  0  0  0  0  0  0  0  0
   56.8910   29.5200   44.1950 C   0  0  0  0  0  0  0  0  0  0  0  0
   56.6720   30.9020   43.6620 C   0  0  0  0  0  0  0  0  0  0  0  0
   57.4000   31.8950   44.5090 C   0  0  0  0  0  0  0  0  0  0  0  0
   57.9090   33.1160   44.0660 C   0  0  0  0  0  0  0  0  0  0  0  0
   58.6120   33.7920   45.0690 C   0  0  0  0  0  0  0  0  0  0  0  0
   59.2380   35.0350   44.9410 C   0  0  0  0  0  0  0  0  0  0  0  0
   59.9100   35.5710   46.0540 C   0  0  0  0  0  0  0  0  0  0  0  0
   59.9530   34.8620   47.2710 C   0  0  0  0  0  0  0  0  0  0  0  0
   59.3240   33.6130   47.3870 C   0  0  0  0  0  0  0  0  0  0  0  0
   58.6620   33.1040   46.2720 C   0  0  0  0  0  0  0  0  0  0  0  0
   57.8430   31.6460   46.1250 S   0  0  0  0  0  0  0  0  0  0  0  0
   57.7050   28.5610   43.5260 N   0  0  0  0  0  0  0  0  0  0  0  0
   57.8100   27.3360   44.1150 O   0  0  0  0  0  0  0  0  0  0  0  0
   55.8910   29.7250   46.0020 H   0  0  0  0  0  0  0  0  0  0  0  0
   57.0474   30.9585   42.6296 H   0  0  0  0  0  0  0  0  0  0  0  0
   55.5962   31.1307   43.6795 H   0  0  0  0  0  0  0  0  0  0  0  0
   57.7732   33.5028   43.0453 H   0  0  0  0  0  0  0  0  0  0  0  0
   59.2057   35.5835   43.9880 H   0  0  0  0  0  0  0  0  0  0  0  0
   60.4052   36.5500   45.9741 H   0  0  0  0  0  0  0  0  0  0  0  0
   60.4826   35.2900   48.1349 H   0  0  0  0  0  0  0  0  0  0  0  0
   59.3529   33.0513   48.3323 H   0  0  0  0  0  0  0  0  0  0  0  0
   58.3830   28.8540   42.7870 H   0  0  0  0  0  0  0  0  0  0  0  0
  1  2  2  0
  2  3  1  0
  3  4  2  0
  4  5  1  0
  5  6  1  0
  6  7  2  0
  7  8  1  0
  8  9  2  0
  9 10  1  0
 10 11  2  0
 11 12  1  0
 12 13  2  0
 13 14  1  0
  4 15  1  0
 15 16  1  0
  2 16  1  6
 14  6  1  0
 13  8  1  0
  3 17  1  0
  5 18  1  0
  5 19  1  0
  7 20  1  0
  9 21  1  0
 10 22  1  0
 11 23  1  0
 12 24  1  0
 15 25  1  0
M  CHG  1   3   1
M  END
>  <UniqueID>  (30) 
28

>  <SMILES>  (30) 
O=[S@]1[NH+]=C(Cc2cc3ccccc3s2)NO1

>  <Energy>  (30) 
74.5096312186337

>  <Genealogy>  (30) 
O=S1[NH+]=C(Cc2cc3ccccc3s2)NO1 (protonated)
O=[S@]1[NH+]=C(Cc2cc3ccccc3s2)NO1 (chirality)
O=[S@]1[NH+]=C(Cc2cc3ccccc3s2)NO1 (3D coordinates assigned)
O=[S@]1[NH+]=C(Cc2cc3ccccc3s2)NO1 (nonaromatic ring conformer: 74.5096312186337 kcal/mol)

>  <smiles>  (30) 
O=S1N=C(Cc2cc3ccccc3s2)NO1

>  <score_type>  (30) 
oracle

>  <origin>  (30) 
adg

>  <m_score__min__energy>  (30) 
-5.9100000000000001

>  <m_primary>  (30) 
energy

$$$$
30:0
     RDKit          3D

 41 44  0  0  0  0  0  0  0  0999 V2000
   64.9200   32.6720   46.3470 H   0  0  0  0  0  0  0  0  0  0  0  0
   64.0250   33.1700   46.5540 N   0  0  0  0  0  0  0  0  0  0  0  0
   63.1560   32.7020   47.3940 C   0  0  0  0  0  0  0  0  0  0  0  0
   61.7930   32.9500   47.1860 C   0  0  0  0  0  0  0  0  0  0  0  0
   61.4623   33.5254   46.3088 H   0  0  0  0  0  0  0  0  0  0  0  0
   60.8520   32.4590   48.1050 C   0  0  0  0  0  0  0  0  0  0  0  0
   59.4750   32.6840   47.9520 O   0  0  0  0  0  0  0  0  0  0  0  0
   58.8030   32.8170   46.7270 C   0  0  0  0  0  0  0  0  0  0  0  0
   58.5170   34.1030   46.2540 C   0  0  0  0  0  0  0  0  0  0  0  0
   58.8083   34.9816   46.8483 H   0  0  0  0  0  0  0  0  0  0  0  0
   57.8640   34.2770   45.0320 C   0  0  0  0  0  0  0  0  0  0  0  0
   57.6328   35.2907   44.6730 H   0  0  0  0  0  0  0  0  0  0  0  0
   57.5030   33.1650   44.2630 C   0  0  0  0  0  0  0  0  0  0  0  0
   56.9800   33.3070   43.3058 H   0  0  0  0  0  0  0  0  0  0  0  0
   57.8060   31.8690   44.7090 C   0  0  0  0  0  0  0  0  0  0  0  0
   57.3970   30.6670   43.8940 C   0  0  0  0  0  0  0  0  0  0  0  0
   56.3531   30.7892   43.5696 H   0  0  0  0  0  0  0  0  0  0  0  0
   58.0619   30.5893   43.0212 H   0  0  0  0  0  0  0  0  0  0  0  0
   57.5140   29.4380   44.6860 N   0  0  0  0  0  0  0  0  0  0  0  0
   56.4890   28.6640   45.1180 C   0  0  0  0  0  0  0  0  0  0  0  0
   55.1490   28.9690   44.9060 O   0  0  0  0  0  0  0  0  0  0  0  0
   56.9430   27.5310   45.7790 C   0  0  0  0  0  0  0  0  0  0  0  0
   56.3406   26.7343   46.2399 H   0  0  0  0  0  0  0  0  0  0  0  0
   58.3190   27.6270   45.7290 C   0  0  0  0  0  0  0  0  0  0  0  0
   59.2980   26.7570   46.2060 C   0  0  0  0  0  0  0  0  0  0  0  0
   59.0262   25.8329   46.7372 H   0  0  0  0  0  0  0  0  0  0  0  0
   60.6460   27.0990   45.9860 C   0  0  0  0  0  0  0  0  0  0  0  0
   61.4440   26.4365   46.3525 H   0  0  0  0  0  0  0  0  0  0  0  0
   60.9810   28.2850   45.2990 C   0  0  0  0  0  0  0  0  0  0  0  0
   62.0381   28.5390   45.1316 H   0  0  0  0  0  0  0  0  0  0  0  0
   59.9720   29.1460   44.8260 C   0  0  0  0  0  0  0  0  0  0  0  0
   60.2232   30.0719   44.2878 H   0  0  0  0  0  0  0  0  0  0  0  0
   58.6380   28.7870   45.0620 C   0  0  0  0  0  0  0  0  0  0  0  0
   58.4560   31.7020   45.9430 C   0  0  0  0  0  0  0  0  0  0  0  0
   58.6959   30.6895   46.2996 H   0  0  0  0  0  0  0  0  0  0  0  0
   61.2910   31.6910   49.1860 C   0  0  0  0  0  0  0  0  0  0  0  0
   60.5647   31.2714   49.8977 H   0  0  0  0  0  0  0  0  0  0  0  0
   62.6570   31.4590   49.3580 C   0  0  0  0  0  0  0  0  0  0  0  0
   63.0071   30.8610   50.2123 H   0  0  0  0  0  0  0  0  0  0  0  0
   63.5580   31.9690   48.4740 N   0  0  0  0  0  0  0  0  0  0  0  0
   64.5740   31.7820   48.6350 H   0  0  0  0  0  0  0  0  0  0  0  0
  1  2  1  0
  2  3  2  0
  3  4  1  0
  4  5  1  0
  4  6  2  0
  6  7  1  0
  7  8  1  0
  8  9  2  0
  9 10  1  0
  9 11  1  0
 11 12  1  0
 11 13  2  0
 13 14  1  0
 13 15  1  0
 15 16  1  0
 16 17  1  0
 16 18  1  0
 16 19  1  0
 19 20  1  0
 20 21  1  0
 20 22  2  0
 22 23  1  0
 22 24  1  0
 24 25  2  0
 25 26  1  0
 25 27  1  0
 27 28  1  0
 27 29  2  0
 29 30  1  0
 29 31  1  0
 31 32  1  0
 31 33  2  0
 15 34  2  0
 34 35  1  0
  6 36  1  0
 36 37  1  0
 36 38  2  0
 38 39  1  0
 38 40  1  0
 40 41  1  0
 40  3  1  0
 34  8  1  0
 33 19  1  0
 33 24  1  0
M  CHG  1  21  -1
M  END
>  <UniqueID>  (31) 
29

>  <SMILES>  (31) 
[H]/N=c1/cc(Oc2cccc(Cn3c([O-])cc4ccccc43)c2)cc[nH]1

>  <Energy>  (31) 
85.55240539429276

>  <Genealogy>  (31) 
N=c1cc(Oc2cccc(Cn3c([O-])cc4ccccc43)c2)cc[nH]1 (protonated)
[H]/N=c1/cc(Oc2cccc(Cn3c([O-])cc4ccccc43)c2)cc[nH]1 (cis-trans isomerization)
[H]/N=c1/cc(Oc2cccc(Cn3c([O-])cc4ccccc43)c2)cc[nH]1 (3D coordinates assigned)
[H]/N=c1/cc(Oc2cccc(Cn3c([O-])cc4ccccc43)c2)cc[nH]1 (optimized conformer: 85.55240539429276 kcal/mol)

>  <smiles>  (31) 
N=c1cc(Oc2cccc(Cn3c(O)cc4ccccc43)c2)cc[nH]1

>  <score_type>  (31) 
oracle

>  <origin>  (31) 
adg

>  <m_score__min__energy>  (31) 
-11.82

>  <m_primary>  (31) 
energy

$$$$
31:0
     RDKit          3D

 39 41  0  0  0  0  0  0  0  0999 V2000
   60.5360   28.6350   48.9530 C   0  0  0  0  0  0  0  0  0  0  0  0
   60.0390   29.5150   48.0810 C   0  0  0  0  0  0  0  0  0  0  0  0
   58.6150   29.3890   47.5890 C   0  0  0  0  0  0  0  0  0  0  0  0
   58.3250   29.7750   46.1030 C   0  0  1  0  0  0  0  0  0  0  0  0
   59.3690   29.2300   45.0790 C   0  0  0  0  0  0  0  0  0  0  0  0
   59.9330   27.8200   45.3750 C   0  0  0  0  0  0  0  0  0  0  0  0
   58.8660   26.7950   45.6340 C   0  0  0  0  0  0  0  0  0  0  0  0
   58.0270   26.3540   44.6000 C   0  0  0  0  0  0  0  0  0  0  0  0
   57.0520   25.3920   44.8710 C   0  0  0  0  0  0  0  0  0  0  0  0
   56.9140   24.8890   46.1660 C   0  0  0  0  0  0  0  0  0  0  0  0
   57.7560   25.3610   47.1750 C   0  0  0  0  0  0  0  0  0  0  0  0
   58.7020   26.2960   46.8910 N   0  0  0  0  0  0  0  0  0  0  0  0
   57.0300   29.1550   45.7830 N   0  0  0  0  0  0  0  0  0  0  0  0
   56.0910   29.7170   44.8740 C   0  0  0  0  0  0  0  0  0  0  0  0
   55.1380   29.0240   44.4370 O   0  0  0  0  0  0  0  0  0  0  0  0
   56.2140   31.0800   44.5060 N   0  0  0  0  0  0  0  0  0  0  0  0
   57.2350   31.8860   45.0940 C   0  0  0  0  0  0  0  0  0  0  0  0
   57.2190   33.2630   44.8470 C   0  0  0  0  0  0  0  0  0  0  0  0
   58.1910   34.0920   45.4020 C   0  0  0  0  0  0  0  0  0  0  0  0
   59.1970   33.5470   46.1990 C   0  0  0  0  0  0  0  0  0  0  0  0
   60.4360   34.5880   46.8740 Cl  0  0  0  0  0  0  0  0  0  0  0  0
   59.2290   32.1710   46.4450 C   0  0  0  0  0  0  0  0  0  0  0  0
   58.2370   31.3110   45.9220 C   0  0  0  0  0  0  0  0  0  0  0  0
   61.5733   28.7353   49.3049 H   0  0  0  0  0  0  0  0  0  0  0  0
   59.9082   27.8095   49.3197 H   0  0  0  0  0  0  0  0  0  0  0  0
   60.6708   30.3388   47.7173 H   0  0  0  0  0  0  0  0  0  0  0  0
   58.3131   28.3395   47.7211 H   0  0  0  0  0  0  0  0  0  0  0  0
   58.0490   30.1217   48.1829 H   0  0  0  0  0  0  0  0  0  0  0  0
   58.8875   29.1997   44.0905 H   0  0  0  0  0  0  0  0  0  0  0  0
   60.2290   29.9132   45.1383 H   0  0  0  0  0  0  0  0  0  0  0  0
   60.5281   27.4933   44.5094 H   0  0  0  0  0  0  0  0  0  0  0  0
   60.5391   27.8972   46.2897 H   0  0  0  0  0  0  0  0  0  0  0  0
   58.1362   26.7625   43.5845 H   0  0  0  0  0  0  0  0  0  0  0  0
   56.3944   25.0314   44.0663 H   0  0  0  0  0  0  0  0  0  0  0  0
   56.1504   24.1293   46.3890 H   0  0  0  0  0  0  0  0  0  0  0  0
   57.6541   24.9763   48.2005 H   0  0  0  0  0  0  0  0  0  0  0  0
   56.4329   33.6942   44.2097 H   0  0  0  0  0  0  0  0  0  0  0  0
   58.1651   35.1751   45.2118 H   0  0  0  0  0  0  0  0  0  0  0  0
   60.0408   31.7503   47.0565 H   0  0  0  0  0  0  0  0  0  0  0  0
  1  2  2  0
  2  3  1  0
  4  3  1  1
  4  5  1  0
  5  6  1  0
  6  7  1  0
  7  8  2  0
  8  9  1  0
  9 10  2  0
 10 11  1  0
 11 12  2  0
  4 13  1  0
 13 14  1  0
 14 15  2  0
 14 16  1  0
 16 17  1  0
 17 18  2  0
 18 19  1  0
 19 20  2  0
 20 21  1  0
 20 22  1  0
 22 23  2  0
 23  4  1  0
 12  7  1  0
 23 17  1  0
  1 24  1  0
  1 25  1  0
  2 26  1  0
  3 27  1  0
  3 28  1  0
  5 29  1  0
  5 30  1  0
  6 31  1  0
  6 32  1  0
  8 33  1  0
  9 34  1  0
 10 35  1  0
 11 36  1  0
 18 37  1  0
 19 38  1  0
 22 39  1  0
M  CHG  2  13  -1  16  -1
M  END
>  <UniqueID>  (32) 
30

>  <SMILES>  (32) 
C=CC[C@@]1(CCc2ccccn2)[N-]C(=O)[N-]c2ccc(Cl)cc21

>  <Energy>  (32) 
46.56631714504926

>  <Genealogy>  (32) 
C=CCC1(CCc2ccccn2)[N-]C(=O)[N-]c2ccc(Cl)cc21 (protonated)
C=CC[C@@]1(CCc2ccccn2)[N-]C(=O)[N-]c2ccc(Cl)cc21 (chirality)
C=CC[C@@]1(CCc2ccccn2)[N-]C(=O)[N-]c2ccc(Cl)cc21 (3D coordinates assigned)
C=CC[C@@]1(CCc2ccccn2)[N-]C(=O)[N-]c2ccc(Cl)cc21 (nonaromatic ring conformer: 46.56631714504926 kcal/mol)

>  <smiles>  (32) 
C=CCC1(CCc2ccccn2)NC(=O)Nc2ccc(Cl)cc21

>  <score_type>  (32) 
oracle

>  <origin>  (32) 
adg

>  <m_score__min__energy>  (32) 
-11.26

>  <m_primary>  (32) 
energy

$$$$
32:0
     RDKit          3D

 47 50  0  0  0  0  0  0  0  0999 V2000
   57.0087   32.6686   46.7718 H   0  0  0  0  0  0  0  0  0  0  0  0
   58.0760   32.4470   46.9190 C   0  0  0  0  0  0  0  0  0  0  0  0
   58.7900   33.1430   47.8340 N   0  0  0  0  0  0  0  0  0  0  0  0
   60.1170   32.9280   48.0250 C   0  0  0  0  0  0  0  0  0  0  0  0
   60.7860   33.7120   48.9740 C   0  0  0  0  0  0  0  0  0  0  0  0
   60.2258   34.4486   49.5686 H   0  0  0  0  0  0  0  0  0  0  0  0
   62.1570   33.5630   49.1680 C   0  0  0  0  0  0  0  0  0  0  0  0
   62.9930   34.5630   50.3420 Cl  0  0  0  0  0  0  0  0  0  0  0  0
   62.8690   32.6400   48.4060 C   0  0  0  0  0  0  0  0  0  0  0  0
   63.9545   32.5352   48.5497 H   0  0  0  0  0  0  0  0  0  0  0  0
   62.2140   31.8450   47.4590 C   0  0  0  0  0  0  0  0  0  0  0  0
   62.7968   31.1341   46.8548 H   0  0  0  0  0  0  0  0  0  0  0  0
   60.8130   31.9390   47.2640 C   0  0  0  0  0  0  0  0  0  0  0  0
   60.0460   31.1470   46.3370 C   0  0  0  0  0  0  0  0  0  0  0  0
   60.4710   30.1100   45.6600 N   0  0  0  0  0  0  0  0  0  0  0  0
   59.8220   28.8770   45.2320 C   0  0  0  0  0  0  0  0  0  0  0  0
   60.5349   28.2653   44.6596 H   0  0  0  0  0  0  0  0  0  0  0  0
   58.9565   29.1158   44.5964 H   0  0  0  0  0  0  0  0  0  0  0  0
   59.3570   28.1020   46.4630 C   0  0  0  0  0  0  0  0  0  0  0  0
   59.1740   28.8072   47.2871 H   0  0  0  0  0  0  0  0  0  0  0  0
   60.1388   27.3822   46.7469 H   0  0  0  0  0  0  0  0  0  0  0  0
   58.1250   27.3720   46.1720 N   0  0  0  0  0  0  0  0  0  0  0  0
   57.5000   27.7490   45.4240 H   0  0  0  0  0  0  0  0  0  0  0  0
   57.7800   26.1460   46.8370 C   0  0  0  0  0  0  0  0  0  0  0  0
   58.5710   25.6470   47.6820 O   0  0  0  0  0  0  0  0  0  0  0  0
   56.5100   25.4460   46.5290 C   0  0  0  0  0  0  0  0  0  0  0  0
   55.4390   26.1210   45.9140 C   0  0  0  0  0  0  0  0  0  0  0  0
   55.5280   27.4760   45.6160 O   0  0  0  0  0  0  0  0  0  0  0  0
   54.2890   25.4580   45.6270 N   0  0  0  0  0  0  0  0  0  0  0  0
   54.1120   24.1480   45.9320 C   0  0  0  0  0  0  0  0  0  0  0  0
   55.1280   23.4310   46.5840 C   0  0  0  0  0  0  0  0  0  0  0  0
   56.3440   24.0840   46.8610 C   0  0  0  0  0  0  0  0  0  0  0  0
   57.2910   23.4450   47.3940 O   0  0  0  0  0  0  0  0  0  0  0  0
   54.9430   21.9520   46.8670 C   0  0  0  0  0  0  0  0  0  0  0  0
   55.3499   21.3871   46.0154 H   0  0  0  0  0  0  0  0  0  0  0  0
   55.4676   21.7496   47.8124 H   0  0  0  0  0  0  0  0  0  0  0  0
   53.4690   21.5090   47.0810 C   0  0  0  0  0  0  0  0  0  0  0  0
   53.2763   20.6431   46.4305 H   0  0  0  0  0  0  0  0  0  0  0  0
   53.3711   21.2844   48.1534 H   0  0  0  0  0  0  0  0  0  0  0  0
   52.4070   22.5840   46.7710 C   0  0  0  0  0  0  0  0  0  0  0  0
   51.4577   22.0863   46.5239 H   0  0  0  0  0  0  0  0  0  0  0  0
   52.2973   23.2237   47.6591 H   0  0  0  0  0  0  0  0  0  0  0  0
   52.8230   23.4670   45.5970 C   0  0  0  0  0  0  0  0  0  0  0  0
   52.9563   22.8469   44.6983 H   0  0  0  0  0  0  0  0  0  0  0  0
   52.0444   24.2197   45.4042 H   0  0  0  0  0  0  0  0  0  0  0  0
   58.6880   31.4530   46.1650 C   0  0  0  0  0  0  0  0  0  0  0  0
   58.0980   30.8972   45.4213 H   0  0  0  0  0  0  0  0  0  0  0  0
  1  2  1  0
  2  3  1  0
  3  4  1  0
  4  5  2  0
  5  6  1  0
  5  7  1  0
  7  8  1  0
  7  9  2  0
  9 10  1  0
  9 11  1  0
 11 12  1  0
 11 13  2  0
 13 14  1  0
 14 15  2  0
 15 16  1  0
 16 17  1  0
 16 18  1  0
 16 19  1  0
 19 20  1  0
 19 21  1  0
 19 22  1  0
 22 23  1  0
 22 24  1  0
 24 25  2  0
 24 26  1  0
 26 27  2  0
 27 28  1  0
 27 29  1  0
 29 30  1  0
 30 31  2  0
 31 32  1  0
 32 33  2  0
 31 34  1  0
 34 35  1  0
 34 36  1  0
 34 37  1  0
 37 38  1  0
 37 39  1  0
 37 40  1  0
 40 41  1  0
 40 42  1  0
 40 43  1  0
 43 44  1  0
 43 45  1  0
 14 46  1  0
 46 47  1  0
 46  2  2  0
 13  4  1  0
 32 26  1  0
 43 30  1  0
M  CHG  3   3  -1  28  -1  29  -1
M  END
>  <UniqueID>  (33) 
31

>  <SMILES>  (33) 
O=C(NCC/N=c1/cc[n-]c2cc(Cl)ccc12)c1c([O-])[n-]c2c(c1=O)CCCC2

>  <Energy>  (33) 
76.18947350962283

>  <Genealogy>  (33) 
O=C(NCCN=c1cc[n-]c2cc(Cl)ccc12)c1c([O-])[n-]c2c(c1=O)CCCC2 (protonated)
O=C(NCC/N=c1/cc[n-]c2cc(Cl)ccc12)c1c([O-])[n-]c2c(c1=O)CCCC2 (cis-trans isomerization)
O=C(NCC/N=c1/cc[n-]c2cc(Cl)ccc12)c1c([O-])[n-]c2c(c1=O)CCCC2 (3D coordinates assigned)
O=C(NCC/N=c1/cc[n-]c2cc(Cl)ccc12)c1c([O-])[n-]c2c(c1=O)CCCC2 (nonaromatic ring conformer: 76.18947350962283 kcal/mol)

>  <smiles>  (33) 
O=C(NCCN=c1cc[nH]c2cc(Cl)ccc12)c1c(O)[nH]c2c(c1=O)CCCC2

>  <score_type>  (33) 
oracle

>  <origin>  (33) 
adg

>  <m_score__min__energy>  (33) 
-14.66

>  <m_primary>  (33) 
energy

$$$$
33:0
     RDKit          3D

 32 34  0  0  0  0  0  0  0  0999 V2000
   56.7120   29.2630   42.7140 N   0  0  0  0  0  0  0  0  0  0  0  0
   56.5120   29.7350   44.3660 S   0  0  0  0  0  0  0  0  0  0  0  0
   55.1450   29.3170   44.8310 O   0  0  0  0  0  0  0  0  0  0  0  0
   56.6320   31.2290   44.4840 O   0  0  0  0  0  0  0  0  0  0  0  0
   57.7540   28.9680   45.3520 C   0  0  0  0  0  0  0  0  0  0  0  0
   58.5540   27.9400   44.8350 C   0  0  0  0  0  0  0  0  0  0  0  0
   59.5540   27.3670   45.6250 C   0  0  0  0  0  0  0  0  0  0  0  0
   59.7780   27.8350   46.9230 C   0  0  0  0  0  0  0  0  0  0  0  0
   59.0030   28.8790   47.4420 C   0  0  0  0  0  0  0  0  0  0  0  0
   59.2810   29.3640   48.7640 N   0  0  0  0  0  0  0  0  0  0  0  0
   58.8860   30.6340   49.3030 C   0  0  0  0  0  0  0  0  0  0  0  0
   58.3270   30.6620   50.4310 O   0  0  0  0  0  0  0  0  0  0  0  0
   59.1480   31.9080   48.5940 C   0  0  0  0  0  0  0  0  0  0  0  0
   59.8640   32.9420   49.2440 C   0  0  0  0  0  0  0  0  0  0  0  0
   60.0740   34.1760   48.6090 C   0  0  0  0  0  0  0  0  0  0  0  0
   59.5690   34.3480   47.3250 C   0  0  0  0  0  0  0  0  0  0  0  0
   59.6440   35.6990   46.3370 S   0  0  0  0  0  0  0  0  0  0  0  0
   58.7940   34.9340   45.0880 C   0  0  0  0  0  0  0  0  0  0  0  0
   58.4530   33.6630   45.4160 N   0  0  0  0  0  0  0  0  0  0  0  0
   58.8860   33.3430   46.6620 C   0  0  0  0  0  0  0  0  0  0  0  0
   58.6760   32.1090   47.2760 C   0  0  0  0  0  0  0  0  0  0  0  0
   57.9620   29.4140   46.6630 C   0  0  0  0  0  0  0  0  0  0  0  0
   57.7100   29.4340   42.4610 H   0  0  0  0  0  0  0  0  0  0  0  0
   56.5640   28.2300   42.6710 H   0  0  0  0  0  0  0  0  0  0  0  0
   58.3946   27.5839   43.8065 H   0  0  0  0  0  0  0  0  0  0  0  0
   60.1664   26.5457   45.2245 H   0  0  0  0  0  0  0  0  0  0  0  0
   60.5673   27.3806   47.5398 H   0  0  0  0  0  0  0  0  0  0  0  0
   60.2597   32.7766   50.2569 H   0  0  0  0  0  0  0  0  0  0  0  0
   60.6230   34.9848   49.1133 H   0  0  0  0  0  0  0  0  0  0  0  0
   58.5483   35.4101   44.1273 H   0  0  0  0  0  0  0  0  0  0  0  0
   58.1506   31.3030   46.7428 H   0  0  0  0  0  0  0  0  0  0  0  0
   57.3060   30.1888   47.0866 H   0  0  0  0  0  0  0  0  0  0  0  0
  1  2  1  0
  2  3  2  0
  2  4  2  0
  2  5  1  0
  5  6  2  0
  6  7  1  0
  7  8  2  0
  8  9  1  0
  9 10  1  0
 10 11  1  0
 11 12  2  0
 11 13  1  0
 13 14  2  0
 14 15  1  0
 15 16  2  0
 16 17  1  0
 17 18  1  0
 18 19  2  0
 19 20  1  0
 20 21  2  0
  9 22  2  0
 22  5  1  0
 21 13  1  0
 20 16  1  0
  1 23  1  0
  1 24  1  0
  6 25  1  0
  7 26  1  0
  8 27  1  0
 14 28  1  0
 15 29  1  0
 18 30  1  0
 21 31  1  0
 22 32  1  0
M  CHG  1  10  -1
M  END
>  <UniqueID>  (34) 
32

>  <SMILES>  (34) 
NS(=O)(=O)c1cccc([N-]C(=O)c2ccc3scnc3c2)c1

>  <Energy>  (34) 
72.96002621126239

>  <Genealogy>  (34) 
NS(=O)(=O)c1cccc([N-]C(=O)c2ccc3scnc3c2)c1 (protonated)
NS(=O)(=O)c1cccc([N-]C(=O)c2ccc3scnc3c2)c1 (3D coordinates assigned)
NS(=O)(=O)c1cccc([N-]C(=O)c2ccc3scnc3c2)c1 (optimized conformer: 72.96002621126239 kcal/mol)

>  <smiles>  (34) 
NS(=O)(=O)c1cccc(NC(=O)c2ccc3scnc3c2)c1

>  <score_type>  (34) 
oracle

>  <origin>  (34) 
adg

>  <m_score__min__energy>  (34) 
-9.6300000000000008

>  <m_primary>  (34) 
energy

$$$$
34:0
     RDKit          3D

 48 50  0  0  0  0  0  0  0  0999 V2000
   60.9330   34.3720   49.1700 C   0  0  0  0  0  0  0  0  0  0  0  0
   59.9620   33.7940   48.1820 C   0  0  0  0  0  0  0  0  0  0  0  0
   59.0240   32.8420   48.5950 C   0  0  0  0  0  0  0  0  0  0  0  0
   58.1530   32.2630   47.6710 C   0  0  0  0  0  0  0  0  0  0  0  0
   58.2220   32.6040   46.3110 C   0  0  0  0  0  0  0  0  0  0  0  0
   57.3340   31.8890   45.3660 C   0  0  0  0  0  0  0  0  0  0  0  0
   56.2810   32.4530   44.9660 O   0  0  0  0  0  0  0  0  0  0  0  0
   57.6270   30.5610   44.9080 N   0  0  0  0  0  0  0  0  0  0  0  0
   57.7520   29.4140   45.7620 C   0  0  0  0  0  0  0  0  0  0  0  0
   56.7650   28.4200   45.7040 C   0  0  0  0  0  0  0  0  0  0  0  0
   55.6460   28.6310   44.9020 O   0  0  0  0  0  0  0  0  0  0  0  0
   56.9230   27.2130   46.4190 C   0  0  0  0  0  0  0  0  0  0  0  0
   55.9120   26.1260   46.3600 C   0  0  0  0  0  0  0  0  0  0  0  0
   54.7510   26.3430   45.9210 O   0  0  0  0  0  0  0  0  0  0  0  0
   56.2340   24.8440   46.7910 O   0  0  0  0  0  0  0  0  0  0  0  0
   58.0850   27.0280   47.1880 C   0  0  0  0  0  0  0  0  0  0  0  0
   59.0530   28.0390   47.2880 C   0  0  0  0  0  0  0  0  0  0  0  0
   60.2430   27.8660   48.0710 N   0  0  0  0  0  0  0  0  0  0  0  0
   60.6030   28.7510   49.5180 S   0  0  0  0  0  0  0  0  0  0  0  0
   59.3360   29.3500   50.0610 O   0  0  0  0  0  0  0  0  0  0  0  0
   61.5720   29.8530   49.1970 O   0  0  0  0  0  0  0  0  0  0  0  0
   61.3410   27.6670   50.6940 C   0  0  0  0  0  0  0  0  0  0  0  0
   62.2890   28.1450   51.6090 C   0  0  0  0  0  0  0  0  0  0  0  0
   62.8490   27.2810   52.5560 C   0  0  0  0  0  0  0  0  0  0  0  0
   62.4660   25.9360   52.5900 C   0  0  0  0  0  0  0  0  0  0  0  0
   63.2280   24.7560   53.8850 Br  0  0  0  0  0  0  0  0  0  0  0  0
   61.5250   25.4550   51.6750 C   0  0  0  0  0  0  0  0  0  0  0  0
   60.9620   26.3170   50.7300 C   0  0  0  0  0  0  0  0  0  0  0  0
   58.8630   29.2510   46.6160 C   0  0  0  0  0  0  0  0  0  0  0  0
   59.7800   30.2830   46.8260 O   0  0  0  0  0  0  0  0  0  0  0  0
   59.1450   33.5950   45.8910 C   0  0  0  0  0  0  0  0  0  0  0  0
   59.2260   34.0830   44.4680 C   0  0  0  0  0  0  0  0  0  0  0  0
   60.0240   34.1590   46.8310 C   0  0  0  0  0  0  0  0  0  0  0  0
   60.5836   34.1640   50.1921 H   0  0  0  0  0  0  0  0  0  0  0  0
   61.9229   33.9160   49.0210 H   0  0  0  0  0  0  0  0  0  0  0  0
   61.0041   35.4595   49.0210 H   0  0  0  0  0  0  0  0  0  0  0  0
   58.9726   32.5482   49.6538 H   0  0  0  0  0  0  0  0  0  0  0  0
   57.4049   31.5321   48.0118 H   0  0  0  0  0  0  0  0  0  0  0  0
   58.2377   26.0769   47.7191 H   0  0  0  0  0  0  0  0  0  0  0  0
   62.5933   29.2017   51.5824 H   0  0  0  0  0  0  0  0  0  0  0  0
   63.5910   27.6595   53.2744 H   0  0  0  0  0  0  0  0  0  0  0  0
   61.2272   24.3963   51.6988 H   0  0  0  0  0  0  0  0  0  0  0  0
   60.2200   25.9360   50.0129 H   0  0  0  0  0  0  0  0  0  0  0  0
   60.5200   30.2230   47.5140 H   0  0  0  0  0  0  0  0  0  0  0  0
   59.4061   35.1681   44.4622 H   0  0  0  0  0  0  0  0  0  0  0  0
   60.0515   33.5715   43.9514 H   0  0  0  0  0  0  0  0  0  0  0  0
   58.2795   33.8657   43.9514 H   0  0  0  0  0  0  0  0  0  0  0  0
   60.7705   34.8967   46.5017 H   0  0  0  0  0  0  0  0  0  0  0  0
  1  2  1  0
  2  3  2  0
  3  4  1  0
  4  5  2  0
  5  6  1  0
  6  7  2  0
  6  8  1  0
  8  9  1  0
  9 10  2  0
 10 11  1  0
 10 12  1  0
 12 13  1  0
 13 14  2  0
 13 15  1  0
 12 16  2  0
 16 17  1  0
 17 18  1  0
 18 19  1  0
 19 20  2  0
 19 21  2  0
 19 22  1  0
 22 23  2  0
 23 24  1  0
 24 25  2  0
 25 26  1  0
 25 27  1  0
 27 28  2  0
 17 29  2  0
 29 30  1  0
  5 31  1  0
 31 32  1  0
 31 33  2  0
 33  2  1  0
 29  9  1  0
 28 22  1  0
  1 34  1  0
  1 35  1  0
  1 36  1  0
  3 37  1  0
  4 38  1  0
 16 39  1  0
 23 40  1  0
 24 41  1  0
 27 42  1  0
 28 43  1  0
 30 44  1  0
 32 45  1  0
 32 46  1  0
 32 47  1  0
 33 48  1  0
M  CHG  4   8  -1  11  -1  15  -1  18  -1
M  END
>  <UniqueID>  (35) 
33

>  <SMILES>  (35) 
Cc1ccc(C(=O)[N-]c2c([O-])c(C(=O)[O-])cc([N-]S(=O)(=O)c3ccc(Br)cc3)c2O)c(C)c1

>  <Energy>  (35) 
65.76242487576705

>  <Genealogy>  (35) 
Cc1ccc(C(=O)[N-]c2c([O-])c(C(=O)[O-])cc([N-]S(=O)(=O)c3ccc(Br)cc3)c2O)c(C)c1 (protonated)
Cc1ccc(C(=O)[N-]c2c([O-])c(C(=O)[O-])cc([N-]S(=O)(=O)c3ccc(Br)cc3)c2O)c(C)c1 (3D coordinates assigned)
Cc1ccc(C(=O)[N-]c2c([O-])c(C(=O)[O-])cc([N-]S(=O)(=O)c3ccc(Br)cc3)c2O)c(C)c1 (optimized conformer: 65.76242487576705 kcal/mol)

>  <smiles>  (35) 
Cc1ccc(C(=O)Nc2c(O)c(NS(=O)(=O)c3ccc(Br)cc3)cc(C(=O)O)c2O)c(C)c1

>  <score_type>  (35) 
oracle

>  <origin>  (35) 
adg

>  <m_score__min__energy>  (35) 
-16.699999999999999

>  <m_primary>  (35) 
energy

$$$$
35:0
     RDKit          3D

 61 63  0  0  0  0  0  0  0  0999 V2000
   58.7400   23.3370   45.5010 C   0  0  0  0  0  0  0  0  0  0  0  0
   58.8920   24.4990   46.3100 O   0  0  0  0  0  0  0  0  0  0  0  0
   58.4150   25.7740   45.9690 C   0  0  0  0  0  0  0  0  0  0  0  0
   59.2510   26.7600   45.4150 C   0  0  0  0  0  0  0  0  0  0  0  0
   58.7340   28.0070   45.0540 C   0  0  0  0  0  0  0  0  0  0  0  0
   57.3710   28.2990   45.2400 C   0  0  0  0  0  0  0  0  0  0  0  0
   56.8300   29.6330   44.8790 C   0  0  0  0  0  0  0  0  0  0  0  0
   55.5910   29.8470   44.9550 O   0  0  0  0  0  0  0  0  0  0  0  0
   57.7340   30.6640   44.4540 N   0  0  0  0  0  0  0  0  0  0  0  0
   57.9640   31.9820   44.9820 C   0  0  0  0  0  0  0  0  0  0  0  0
   57.0410   33.0410   44.8720 C   0  0  0  0  0  0  0  0  0  0  0  0
   57.3190   34.2780   45.4590 C   0  0  0  0  0  0  0  0  0  0  0  0
   58.4990   34.4630   46.1860 C   0  0  0  0  0  0  0  0  0  0  0  0
   59.4090   33.4130   46.3310 C   0  0  0  0  0  0  0  0  0  0  0  0
   60.5770   33.6030   47.1450 N   0  0  0  0  0  0  0  0  0  0  0  0
   60.6040   33.6430   48.5810 C   0  0  0  0  0  0  0  0  0  0  0  0
   61.2920   34.5310   49.1510 O   0  0  0  0  0  0  0  0  0  0  0  0
   59.8360   32.6780   49.4030 C   0  0  0  0  0  0  0  0  0  0  0  0
   59.5740   31.3900   48.9170 C   0  0  0  0  0  0  0  0  0  0  0  0
   58.7340   30.5120   49.6310 C   0  0  0  0  0  0  0  0  0  0  0  0
   58.4680   29.2130   49.1750 O   0  0  0  0  0  0  0  0  0  0  0  0
   59.3510   28.4380   48.3700 C   0  0  0  0  0  0  0  0  0  0  0  0
   58.1520   30.9430   50.8400 C   0  0  0  0  0  0  0  0  0  0  0  0
   57.2610   30.1330   51.5510 O   0  0  0  0  0  0  0  0  0  0  0  0
   56.0000   30.6010   52.0170 C   0  0  0  0  0  0  0  0  0  0  0  0
   58.4620   32.2070   51.3610 C   0  0  0  0  0  0  0  0  0  0  0  0
   57.8800   32.5870   52.5820 O   0  0  0  0  0  0  0  0  0  0  0  0
   58.5320   33.3650   53.5770 C   0  0  0  0  0  0  0  0  0  0  0  0
   59.3130   33.0640   50.6440 C   0  0  0  0  0  0  0  0  0  0  0  0
   59.1570   32.1930   45.6810 C   0  0  0  0  0  0  0  0  0  0  0  0
   56.5380   27.3140   45.7990 C   0  0  0  0  0  0  0  0  0  0  0  0
   57.0560   26.0670   46.1750 C   0  0  0  0  0  0  0  0  0  0  0  0
   56.1800   25.0960   46.7490 N   0  0  0  0  0  0  0  0  0  0  0  0
   54.8660   24.4200   45.8470 S   0  0  0  0  0  0  0  0  0  0  0  0
   54.1370   23.0870   46.7710 C   0  0  0  0  0  0  0  0  0  0  0  0
   55.3490   23.9150   44.5180 O   0  0  0  0  0  0  0  0  0  0  0  0
   53.8310   25.4830   45.6190 O   0  0  0  0  0  0  0  0  0  0  0  0
   58.6244   22.4536   46.1462 H   0  0  0  0  0  0  0  0  0  0  0  0
   57.8485   23.4464   44.8660 H   0  0  0  0  0  0  0  0  0  0  0  0
   59.6296   23.2134   44.8660 H   0  0  0  0  0  0  0  0  0  0  0  0
   60.3199   26.5480   45.2648 H   0  0  0  0  0  0  0  0  0  0  0  0
   59.3997   28.7677   44.6201 H   0  0  0  0  0  0  0  0  0  0  0  0
   56.0994   32.8935   44.3227 H   0  0  0  0  0  0  0  0  0  0  0  0
   56.6071   35.1093   45.3488 H   0  0  0  0  0  0  0  0  0  0  0  0
   58.7117   35.4394   46.6457 H   0  0  0  0  0  0  0  0  0  0  0  0
   60.0278   31.0615   47.9703 H   0  0  0  0  0  0  0  0  0  0  0  0
   60.0189   27.8518   49.0183 H   0  0  0  0  0  0  0  0  0  0  0  0
   58.7656   27.7568   47.7350 H   0  0  0  0  0  0  0  0  0  0  0  0
   59.9505   29.1068   47.7350 H   0  0  0  0  0  0  0  0  0  0  0  0
   55.9935   30.6034   53.1170 H   0  0  0  0  0  0  0  0  0  0  0  0
   55.8285   31.6226   51.6471 H   0  0  0  0  0  0  0  0  0  0  0  0
   55.2035   29.9386   51.6471 H   0  0  0  0  0  0  0  0  0  0  0  0
   58.2339   33.0093   54.5743 H   0  0  0  0  0  0  0  0  0  0  0  0
   59.6217   33.2670   53.4634 H   0  0  0  0  0  0  0  0  0  0  0  0
   58.2450   34.4208   53.4634 H   0  0  0  0  0  0  0  0  0  0  0  0
   59.5715   34.0484   51.0612 H   0  0  0  0  0  0  0  0  0  0  0  0
   59.9094   31.3917   45.7225 H   0  0  0  0  0  0  0  0  0  0  0  0
   55.4679   27.5243   45.9429 H   0  0  0  0  0  0  0  0  0  0  0  0
   54.2453   23.2849   47.8476 H   0  0  0  0  0  0  0  0  0  0  0  0
   53.0694   23.0067   46.5185 H   0  0  0  0  0  0  0  0  0  0  0  0
   54.6454   22.1448   46.5185 H   0  0  0  0  0  0  0  0  0  0  0  0
  1  2  1  0
  2  3  1  0
  3  4  2  0
  4  5  1  0
  5  6  2  0
  6  7  1  0
  7  8  2  0
  7  9  1  0
  9 10  1  0
 10 11  2  0
 11 12  1  0
 12 13  2  0
 13 14  1  0
 14 15  1  0
 15 16  1  0
 16 17  2  0
 16 18  1  0
 18 19  2  0
 19 20  1  0
 20 21  1  0
 21 22  1  0
 20 23  2  0
 23 24  1  0
 24 25  1  0
 23 26  1  0
 26 27  1  0
 27 28  1  0
 26 29  2  0
 14 30  2  0
  6 31  1  0
 31 32  2  0
 32 33  1  0
 33 34  1  0
 34 35  1  0
 34 36  2  0
 34 37  2  0
 32  3  1  0
 30 10  1  0
 29 18  1  0
  1 38  1  0
  1 39  1  0
  1 40  1  0
  4 41  1  0
  5 42  1  0
 11 43  1  0
 12 44  1  0
 13 45  1  0
 19 46  1  0
 22 47  1  0
 22 48  1  0
 22 49  1  0
 25 50  1  0
 25 51  1  0
 25 52  1  0
 28 53  1  0
 28 54  1  0
 28 55  1  0
 29 56  1  0
 30 57  1  0
 31 58  1  0
 35 59  1  0
 35 60  1  0
 35 61  1  0
M  CHG  3   9  -1  15  -1  33  -1
M  END
>  <UniqueID>  (36) 
34

>  <SMILES>  (36) 
COc1ccc(C(=O)[N-]c2cccc([N-]C(=O)c3cc(OC)c(OC)c(OC)c3)c2)cc1[N-]S(C)(=O)=O

>  <Energy>  (36) 
82.98887666269677

>  <Genealogy>  (36) 
COc1ccc(C(=O)[N-]c2cccc([N-]C(=O)c3cc(OC)c(OC)c(OC)c3)c2)cc1[N-]S(C)(=O)=O (protonated)
COc1ccc(C(=O)[N-]c2cccc([N-]C(=O)c3cc(OC)c(OC)c(OC)c3)c2)cc1[N-]S(C)(=O)=O (3D coordinates assigned)
COc1ccc(C(=O)[N-]c2cccc([N-]C(=O)c3cc(OC)c(OC)c(OC)c3)c2)cc1[N-]S(C)(=O)=O (optimized conformer: 82.98887666269677 kcal/mol)

>  <smiles>  (36) 
COc1ccc(C(=O)Nc2cccc(NC(=O)c3cc(OC)c(OC)c(OC)c3)c2)cc1NS(C)(=O)=O

>  <score_type>  (36) 
oracle

>  <origin>  (36) 
adg

>  <m_score__min__energy>  (36) 
-12.57

>  <m_primary>  (36) 
energy

$$$$
36:0
     RDKit          3D

 29 30  0  0  0  0  0  0  0  0999 V2000
   57.7480   25.9490   44.5800 C   0  0  0  0  0  0  0  0  0  0  0  0
   57.1680   26.8660   45.9910 S   0  0  0  0  0  0  0  0  0  0  0  0
   57.8590   26.3630   47.2270 O   0  0  0  0  0  0  0  0  0  0  0  0
   55.6890   26.6220   46.1170 O   0  0  0  0  0  0  0  0  0  0  0  0
   57.4630   28.5760   45.8230 N   0  0  0  0  0  0  0  0  0  0  0  0
   56.5860   29.3730   45.0060 C   0  0  0  0  0  0  0  0  0  0  0  0
   55.4120   28.9790   44.7790 O   0  0  0  0  0  0  0  0  0  0  0  0
   57.0260   30.6590   44.4420 C   0  0  0  0  0  0  0  0  0  0  0  0
   57.4330   30.8920   43.1410 C   0  0  0  0  0  0  0  0  0  0  0  0
   57.7370   32.2350   43.0820 C   0  0  0  0  0  0  0  0  0  0  0  0
   57.4940   32.7390   44.3430 C   0  0  0  0  0  0  0  0  0  0  0  0
   57.0700   31.7770   45.1300 O   0  0  0  0  0  0  0  0  0  0  0  0
   58.5920   29.1850   46.4810 C   0  0  0  0  0  0  0  0  0  0  0  0
   59.7630   29.4910   45.7630 C   0  0  0  0  0  0  0  0  0  0  0  0
   60.8480   30.0970   46.4040 C   0  0  0  0  0  0  0  0  0  0  0  0
   60.7770   30.4050   47.7660 C   0  0  0  0  0  0  0  0  0  0  0  0
   62.1390   31.1660   48.5660 Cl  0  0  0  0  0  0  0  0  0  0  0  0
   59.6160   30.1080   48.4870 C   0  0  0  0  0  0  0  0  0  0  0  0
   58.5300   29.5030   47.8500 C   0  0  0  0  0  0  0  0  0  0  0  0
   58.3069   25.0653   44.9215 H   0  0  0  0  0  0  0  0  0  0  0  0
   56.8887   25.6274   43.9732 H   0  0  0  0  0  0  0  0  0  0  0  0
   58.4068   26.5876   43.9732 H   0  0  0  0  0  0  0  0  0  0  0  0
   57.5001   30.1586   42.3239 H   0  0  0  0  0  0  0  0  0  0  0  0
   58.1002   32.7926   42.2061 H   0  0  0  0  0  0  0  0  0  0  0  0
   57.6342   33.7878   44.6437 H   0  0  0  0  0  0  0  0  0  0  0  0
   59.8252   29.2520   44.6911 H   0  0  0  0  0  0  0  0  0  0  0  0
   61.7597   30.3320   45.8352 H   0  0  0  0  0  0  0  0  0  0  0  0
   59.5579   30.3514   49.5582 H   0  0  0  0  0  0  0  0  0  0  0  0
   57.6195   29.2735   48.4231 H   0  0  0  0  0  0  0  0  0  0  0  0
  1  2  1  0
  2  3  2  0
  2  4  2  0
  2  5  1  0
  5  6  1  0
  6  7  2  0
  6  8  1  0
  8  9  2  0
  9 10  1  0
 10 11  2  0
 11 12  1  0
  5 13  1  0
 13 14  2  0
 14 15  1  0
 15 16  2  0
 16 17  1  0
 16 18  1  0
 18 19  2  0
 12  8  1  0
 19 13  1  0
  1 20  1  0
  1 21  1  0
  1 22  1  0
  9 23  1  0
 10 24  1  0
 11 25  1  0
 14 26  1  0
 15 27  1  0
 18 28  1  0
 19 29  1  0
M  END
>  <UniqueID>  (37) 
35

>  <SMILES>  (37) 
CS(=O)(=O)N(C(=O)c1ccco1)c1ccc(Cl)cc1

>  <Energy>  (37) 
60.80086738919489

>  <Genealogy>  (37) 
CS(=O)(=O)N(C(=O)c1ccco1)c1ccc(Cl)cc1 (3D coordinates assigned)
CS(=O)(=O)N(C(=O)c1ccco1)c1ccc(Cl)cc1 (optimized conformer: 60.80086738919489 kcal/mol)

>  <smiles>  (37) 
CS(=O)(=O)N(C(=O)c1ccco1)c1ccc(Cl)cc1

>  <score_type>  (37) 
oracle

>  <origin>  (37) 
adg

>  <m_score__min__energy>  (37) 
-6.7999999999999998

>  <m_primary>  (37) 
energy

$$$$
37:0
     RDKit          3D

 29 30  0  0  0  0  0  0  0  0999 V2000
   58.9820   35.3450   47.5330 N   0  0  0  0  0  0  0  0  0  0  0  0
   59.7190   34.7800   46.0750 S   0  0  0  0  0  0  0  0  0  0  0  0
   59.5920   35.8330   45.0100 O   0  0  0  0  0  0  0  0  0  0  0  0
   61.1740   34.5140   46.3410 O   0  0  0  0  0  0  0  0  0  0  0  0
   58.9260   33.3040   45.5360 C   0  0  0  0  0  0  0  0  0  0  0  0
   58.4120   33.2110   44.2360 C   0  0  0  0  0  0  0  0  0  0  0  0
   57.7730   32.0400   43.8150 C   0  0  0  0  0  0  0  0  0  0  0  0
   57.6540   30.9460   44.6810 C   0  0  0  0  0  0  0  0  0  0  0  0
   56.9720   29.7720   44.2230 N   0  0  0  0  0  0  0  0  0  0  0  0
   57.2480   28.4270   44.6310 C   0  0  0  0  0  0  0  0  0  0  0  0
   57.7710   27.6340   43.8040 O   0  0  0  0  0  0  0  0  0  0  0  0
   57.0300   28.0110   45.9880 N   0  0  0  0  0  0  0  0  0  0  0  0
   57.0210   26.6360   46.4040 C   0  0  0  0  0  0  0  0  0  0  0  0
   58.1880   26.0580   46.9160 C   0  0  0  0  0  0  0  0  0  0  0  0
   58.1870   24.7630   47.3240 N   0  0  0  0  0  0  0  0  0  0  0  0
   57.0590   24.0110   47.2590 C   0  0  0  0  0  0  0  0  0  0  0  0
   57.0800   22.8110   47.6360 O   0  0  0  0  0  0  0  0  0  0  0  0
   55.9050   24.5550   46.7920 N   0  0  0  0  0  0  0  0  0  0  0  0
   55.8560   25.8470   46.3740 C   0  0  0  0  0  0  0  0  0  0  0  0
   54.7580   26.3280   45.9880 O   0  0  0  0  0  0  0  0  0  0  0  0
   58.1410   31.0530   45.9950 C   0  0  0  0  0  0  0  0  0  0  0  0
   58.7780   32.2250   46.4170 C   0  0  0  0  0  0  0  0  0  0  0  0
   58.8940   36.3820   47.4490 H   0  0  0  0  0  0  0  0  0  0  0  0
   58.5112   34.0609   43.5447 H   0  0  0  0  0  0  0  0  0  0  0  0
   57.3612   31.9781   42.7969 H   0  0  0  0  0  0  0  0  0  0  0  0
   57.0270   28.7480   46.7290 H   0  0  0  0  0  0  0  0  0  0  0  0
   59.1092   26.6548   46.9882 H   0  0  0  0  0  0  0  0  0  0  0  0
   58.0209   30.2123   46.6941 H   0  0  0  0  0  0  0  0  0  0  0  0
   59.1640   32.2994   47.4443 H   0  0  0  0  0  0  0  0  0  0  0  0
  1  2  1  0
  2  3  2  0
  2  4  2  0
  2  5  1  0
  5  6  2  0
  6  7  1  0
  7  8  2  0
  8  9  1  0
  9 10  1  0
 10 11  2  0
 10 12  1  0
 12 13  1  0
 13 14  2  0
 14 15  1  0
 15 16  1  0
 16 17  2  0
 16 18  1  0
 18 19  1  0
 19 20  2  0
  8 21  1  0
 21 22  2  0
 22  5  1  0
 19 13  1  0
  1 23  1  0
  6 24  1  0
  7 25  1  0
 12 26  1  0
 14 27  1  0
 21 28  1  0
 22 29  1  0
M  CHG  4   1  -1   9  -1  15  -1  18  -1
M  END
>  <UniqueID>  (38) 
36

>  <SMILES>  (38) 
[NH-]S(=O)(=O)c1ccc([N-]C(=O)Nc2c[n-]c(=O)[n-]c2=O)cc1

>  <Energy>  (38) 
39.38475655977294

>  <Genealogy>  (38) 
[NH-]S(=O)(=O)c1ccc([N-]C(=O)Nc2c[n-]c(=O)[n-]c2=O)cc1 (protonated)
[NH-]S(=O)(=O)c1ccc([N-]C(=O)Nc2c[n-]c(=O)[n-]c2=O)cc1 (3D coordinates assigned)
[NH-]S(=O)(=O)c1ccc([N-]C(=O)Nc2c[n-]c(=O)[n-]c2=O)cc1 (optimized conformer: 39.38475655977294 kcal/mol)

>  <smiles>  (38) 
NS(=O)(=O)c1ccc(NC(=O)Nc2c[nH]c(=O)[nH]c2=O)cc1

>  <score_type>  (38) 
oracle

>  <origin>  (38) 
adg

>  <m_score__min__energy>  (38) 
-12.84

>  <m_primary>  (38) 
energy

$$$$
38:0
     RDKit          3D

 42 44  0  0  0  0  0  0  0  0999 V2000
   65.1620   32.7420   49.7640 C   0  0  0  0  0  0  0  0  0  0  0  0
   63.9750   33.2060   49.1290 O   0  0  0  0  0  0  0  0  0  0  0  0
   62.8780   32.3920   48.8050 C   0  0  0  0  0  0  0  0  0  0  0  0
   62.6280   32.1190   47.4570 C   0  0  0  0  0  0  0  0  0  0  0  0
   61.5490   31.3120   47.0830 C   0  0  0  0  0  0  0  0  0  0  0  0
   60.7090   30.7510   48.0610 C   0  0  0  0  0  0  0  0  0  0  0  0
   59.5800   29.9360   47.7050 N   0  0  0  0  0  0  0  0  0  0  0  0
   59.5390   28.5070   47.8490 C   0  0  0  0  0  0  0  0  0  0  0  0
   60.4340   27.8990   48.4950 O   0  0  0  0  0  0  0  0  0  0  0  0
   58.3750   27.7340   47.3070 C   0  0  0  0  0  0  0  0  0  0  0  0
   57.8890   28.3660   46.0400 C   0  0  0  0  0  0  0  0  0  0  0  0
   57.9340   27.7230   44.8030 C   0  0  0  0  0  0  0  0  0  0  0  0
   57.3610   28.7940   43.6400 S   0  0  0  0  0  0  0  0  0  0  0  0
   57.0810   30.0220   44.7640 C   0  0  0  0  0  0  0  0  0  0  0  0
   56.6410   31.2180   44.4990 N   0  0  0  0  0  0  0  0  0  0  0  0
   57.4550   32.3640   44.2110 C   0  0  0  0  0  0  0  0  0  0  0  0
   57.6270   32.6920   43.0070 O   0  0  0  0  0  0  0  0  0  0  0  0
   58.1500   33.1210   45.2800 C   0  0  0  0  0  0  0  0  0  0  0  0
   57.9650   32.7710   46.6290 C   0  0  0  0  0  0  0  0  0  0  0  0
   58.6100   33.4900   47.6410 C   0  0  0  0  0  0  0  0  0  0  0  0
   59.4360   34.5680   47.3170 C   0  0  0  0  0  0  0  0  0  0  0  0
   59.6170   34.9330   45.9810 C   0  0  0  0  0  0  0  0  0  0  0  0
   58.9740   34.2180   44.9660 C   0  0  0  0  0  0  0  0  0  0  0  0
   57.4290   29.6470   46.0120 N   0  0  0  0  0  0  0  0  0  0  0  0
   60.9460   31.0440   49.4120 C   0  0  0  0  0  0  0  0  0  0  0  0
   62.0260   31.8500   49.7850 C   0  0  0  0  0  0  0  0  0  0  0  0
   65.0369   32.7909   50.8558 H   0  0  0  0  0  0  0  0  0  0  0  0
   65.3561   31.7018   49.4634 H   0  0  0  0  0  0  0  0  0  0  0  0
   66.0100   33.3748   49.4634 H   0  0  0  0  0  0  0  0  0  0  0  0
   63.2858   32.5427   46.6838 H   0  0  0  0  0  0  0  0  0  0  0  0
   61.3564   31.1151   46.0181 H   0  0  0  0  0  0  0  0  0  0  0  0
   58.7010   30.4180   47.4100 H   0  0  0  0  0  0  0  0  0  0  0  0
   58.6879   26.6996   47.1019 H   0  0  0  0  0  0  0  0  0  0  0  0
   57.5620   27.7367   48.0480 H   0  0  0  0  0  0  0  0  0  0  0  0
   58.2829   26.6959   44.6203 H   0  0  0  0  0  0  0  0  0  0  0  0
   57.3095   31.9272   46.8902 H   0  0  0  0  0  0  0  0  0  0  0  0
   58.4661   33.2055   48.6938 H   0  0  0  0  0  0  0  0  0  0  0  0
   59.9444   35.1301   48.1142 H   0  0  0  0  0  0  0  0  0  0  0  0
   60.2662   35.7839   45.7271 H   0  0  0  0  0  0  0  0  0  0  0  0
   59.1129   34.5146   43.9159 H   0  0  0  0  0  0  0  0  0  0  0  0
   60.2770   30.6365   50.1842 H   0  0  0  0  0  0  0  0  0  0  0  0
   62.2103   32.0612   50.8487 H   0  0  0  0  0  0  0  0  0  0  0  0
  1  2  1  0
  2  3  1  0
  3  4  2  0
  4  5  1  0
  5  6  2  0
  6  7  1  0
  7  8  1  0
  8  9  2  0
  8 10  1  0
 10 11  1  0
 11 12  2  0
 12 13  1  0
 13 14  1  0
 14 15  2  3
 15 16  1  0
 16 17  2  0
 16 18  1  0
 18 19  2  0
 19 20  1  0
 20 21  2  0
 21 22  1  0
 22 23  2  0
 14 24  1  0
  6 25  1  0
 25 26  2  0
 26  3  1  0
 24 11  1  0
 23 18  1  0
  1 27  1  0
  1 28  1  0
  1 29  1  0
  4 30  1  0
  5 31  1  0
  7 32  1  0
 10 33  1  0
 10 34  1  0
 12 35  1  0
 19 36  1  0
 20 37  1  0
 21 38  1  0
 22 39  1  0
 23 40  1  0
 25 41  1  0
 26 42  1  0
M  CHG  1  24  -1
M  END
>  <UniqueID>  (39) 
37

>  <SMILES>  (39) 
COc1ccc(NC(=O)Cc2csc(=NC(=O)c3ccccc3)[n-]2)cc1

>  <Energy>  (39) 
82.92099525091574

>  <Genealogy>  (39) 
COc1ccc(NC(=O)Cc2csc(=NC(=O)c3ccccc3)[n-]2)cc1 (protonated)
COc1ccc(NC(=O)Cc2csc(=NC(=O)c3ccccc3)[n-]2)cc1 (3D coordinates assigned)
COc1ccc(NC(=O)Cc2csc(=NC(=O)c3ccccc3)[n-]2)cc1 (optimized conformer: 82.92099525091574 kcal/mol)

>  <smiles>  (39) 
COc1ccc(NC(=O)Cc2csc(=NC(=O)c3ccccc3)[nH]2)cc1

>  <score_type>  (39) 
oracle

>  <origin>  (39) 
adg

>  <m_score__min__energy>  (39) 
-9.4700000000000006

>  <m_primary>  (39) 
energy

$$$$
39:0
     RDKit          3D

 62 65  0  0  1  0  0  0  0  0999 V2000
   63.8160   32.9110   53.8890 C   0  0  0  0  0  0  0  0  0  0  0  0
   64.7620   34.0570   54.1510 C   0  0  0  0  0  0  0  0  0  0  0  0
   62.5670   34.0140   49.2050 N   0  0  0  0  0  0  0  0  0  0  0  0
   63.6570   33.8480   49.9080 C   0  0  0  0  0  0  0  0  0  0  0  0
   65.9600   33.4200   51.2470 N   0  0  0  0  0  0  0  0  0  0  0  0
   65.8520   32.8200   50.0310 C   0  0  0  0  0  0  0  0  0  0  0  0
   64.6600   33.0510   49.3560 C   0  0  0  0  0  0  0  0  0  0  0  0
   64.9710   34.1850   51.7540 C   0  0  0  0  0  0  0  0  0  0  0  0
   65.1450   34.7220   52.9130 N   0  0  0  0  0  0  0  0  0  0  0  0
   61.9580   32.8420   48.6320 C   0  0  0  0  0  0  0  0  0  0  0  0
   61.8340   31.6660   49.3440 C   0  0  0  0  0  0  0  0  0  0  0  0
   61.2250   30.5900   48.6880 C   0  0  0  0  0  0  0  0  0  0  0  0
   60.7690   30.6810   47.3990 C   0  0  0  0  0  0  0  0  0  0  0  0
   60.1490   29.5030   46.8030 C   0  0  0  0  0  0  0  0  0  0  0  0
   60.6440   29.0800   45.7260 O   0  0  0  0  0  0  0  0  0  0  0  0
   59.0370   28.8300   47.3780 N   0  0  0  0  0  0  0  0  0  0  0  0
   58.4320   27.6810   46.7980 C   0  0  0  0  0  0  0  0  0  0  0  0
   58.8370   26.4370   47.2360 C   0  0  0  0  0  0  0  0  0  0  0  0
   58.2830   25.2890   46.7060 C   0  0  0  0  0  0  0  0  0  0  0  0
   57.3000   25.3270   45.7170 C   0  0  0  0  0  0  0  0  0  0  0  0
   56.7360   24.1480   45.1790 N   0  0  0  0  0  0  0  0  0  0  0  0
   55.6320   24.0960   44.2710 C   0  0  0  0  0  0  0  0  0  0  0  0
   56.0260   23.1140   43.1640 C   0  0  0  0  0  0  0  0  0  0  0  0
   56.2690   21.7890   43.6460 N   0  0  0  0  0  0  0  0  0  0  0  0
   57.3730   21.1430   42.9630 C   0  0  0  0  0  0  0  0  0  0  0  0
   56.4440   21.7330   45.0830 C   0  0  0  0  0  0  0  0  0  0  0  0
   57.3270   22.8620   45.5800 C   0  0  0  0  0  0  0  0  0  0  0  0
   56.9100   26.5730   45.2950 C   0  0  0  0  0  0  0  0  0  0  0  0
   57.4610   27.7480   45.8210 C   0  0  0  0  0  0  0  0  0  0  0  0
   57.0330   29.0420   45.3590 C   0  0  0  0  0  0  0  0  0  0  0  0
   56.6900   30.0930   44.9640 N   0  0  0  0  0  0  0  0  0  0  0  0
   60.9180   31.8790   46.7320 C   0  0  0  0  0  0  0  0  0  0  0  0
   61.5130   32.9800   47.3300 C   0  0  0  0  0  0  0  0  0  0  0  0
   63.8140   34.4150   51.1090 N   0  0  0  0  0  0  0  0  0  0  0  0
   63.4715   32.4937   54.8467 H   0  0  0  0  0  0  0  0  0  0  0  0
   62.9508   33.2737   53.3147 H   0  0  0  0  0  0  0  0  0  0  0  0
   64.3361   32.1302   53.3147 H   0  0  0  0  0  0  0  0  0  0  0  0
   64.2680   34.7854   54.8108 H   0  0  0  0  0  0  0  0  0  0  0  0
   65.6702   33.6556   54.6243 H   0  0  0  0  0  0  0  0  0  0  0  0
   66.8450   33.2740   51.7980 H   0  0  0  0  0  0  0  0  0  0  0  0
   66.6536   32.1947   49.6109 H   0  0  0  0  0  0  0  0  0  0  0  0
   64.5040   32.5964   48.3666 H   0  0  0  0  0  0  0  0  0  0  0  0
   62.1969   31.5786   50.3787 H   0  0  0  0  0  0  0  0  0  0  0  0
   61.1083   29.6377   49.2261 H   0  0  0  0  0  0  0  0  0  0  0  0
   58.6260   29.1790   48.2710 H   0  0  0  0  0  0  0  0  0  0  0  0
   59.6092   26.3591   48.0155 H   0  0  0  0  0  0  0  0  0  0  0  0
   58.6281   24.3122   47.0757 H   0  0  0  0  0  0  0  0  0  0  0  0
   54.7293   23.7414   44.7901 H   0  0  0  0  0  0  0  0  0  0  0  0
   55.4082   25.0911   43.8591 H   0  0  0  0  0  0  0  0  0  0  0  0
   55.2111   23.0736   42.4262 H   0  0  0  0  0  0  0  0  0  0  0  0
   56.9653   23.4787   42.7228 H   0  0  0  0  0  0  0  0  0  0  0  0
   58.0738   20.7329   43.7051 H   0  0  0  0  0  0  0  0  0  0  0  0
   56.9878   20.3278   42.3329 H   0  0  0  0  0  0  0  0  0  0  0  0
   57.8950   21.8782   42.3329 H   0  0  0  0  0  0  0  0  0  0  0  0
   55.4589   21.8104   45.5663 H   0  0  0  0  0  0  0  0  0  0  0  0
   56.9297   20.7787   45.3346 H   0  0  0  0  0  0  0  0  0  0  0  0
   57.4006   22.8165   46.6766 H   0  0  0  0  0  0  0  0  0  0  0  0
   58.3326   22.7648   45.1449 H   0  0  0  0  0  0  0  0  0  0  0  0
   56.1373   26.6517   44.5161 H   0  0  0  0  0  0  0  0  0  0  0  0
   60.5549   31.9636   45.6971 H   0  0  0  0  0  0  0  0  0  0  0  0
   61.6269   33.9300   46.7874 H   0  0  0  0  0  0  0  0  0  0  0  0
   63.0440   35.0060   51.4930 H   0  0  0  0  0  0  0  0  0  0  0  0
  1  2  1  0
  2  3  1  0
  3  4  2  0
  4  5  1  0
  5  6  1  0
  6  7  2  0
  7  8  1  0
  8  9  2  0
  9 10  1  0
 10 11  2  0
 11 12  1  0
 12 13  2  0
 13 14  1  0
 14 15  2  0
 14 16  1  0
 16 17  1  0
 17 18  2  0
 18 19  1  0
 19 20  2  0
 20 21  1  0
 21 22  1  0
 22 23  1  0
 23 24  1  0
 24 25  1  0
 24 26  1  0
 26 27  1  0
 20 28  1  0
 28 29  2  0
 29 30  1  0
 30 31  3  0
 13 32  1  0
 32 33  2  0
  8 34  1  0
 34  4  1  0
 33 10  1  0
 29 17  1  0
 27 21  1  0
  1 35  1  0
  1 36  1  0
  1 37  1  0
  2 38  1  0
  2 39  1  0
  5 40  1  0
  6 41  1  0
  7 42  1  0
 11 43  1  0
 12 44  1  0
 16 45  1  0
 18 46  1  0
 19 47  1  0
 22 48  1  0
 22 49  1  0
 23 50  1  0
 23 51  1  0
 25 52  1  0
 25 53  1  0
 25 54  1  0
 26 55  1  0
 26 56  1  0
 27 57  1  0
 27 58  1  0
 28 59  1  0
 32 60  1  0
 33 61  1  0
 34 62  1  0
M  END
>  <smiles>  (40) 
CCN=c1[nH]ccc(=Nc2ccc(C(=O)Nc3ccc(N4CCN(C)CC4)cc3C#N)cc2)[nH]1

>  <score_type>  (40) 
oracle

>  <origin>  (40) 
adg

>  <m_score__min__energy>  (40) 
-7.9800000000000004

>  <m_primary>  (40) 
energy

$$$$
40:0
     RDKit          3D

 49 51  0  0  0  0  0  0  0  0999 V2000
   64.4220   29.2370   52.0300 C   0  0  0  0  0  0  0  0  0  0  0  0
   64.4160   30.1210   50.9140 O   0  0  0  0  0  0  0  0  0  0  0  0
   63.3370   30.9450   50.5570 C   0  0  0  0  0  0  0  0  0  0  0  0
   62.0130   30.4690   50.5200 C   0  0  0  0  0  0  0  0  0  0  0  0
   60.9490   31.3220   50.1840 C   0  0  0  0  0  0  0  0  0  0  0  0
   59.2980   30.6740   50.1850 S   0  0  0  0  0  0  0  0  0  0  0  0
   58.9410   30.2610   51.5850 O   0  0  0  0  0  0  0  0  0  0  0  0
   58.3130   31.7110   49.7250 O   0  0  0  0  0  0  0  0  0  0  0  0
   59.1930   29.2960   49.1330 N   0  0  0  0  0  0  0  0  0  0  0  0
   59.2700   29.3920   47.7010 C   0  0  0  0  0  0  0  0  0  0  0  0
   60.5290   29.4450   47.0840 C   0  0  0  0  0  0  0  0  0  0  0  0
   60.6330   29.5880   45.6980 C   0  0  0  0  0  0  0  0  0  0  0  0
   59.4800   29.6820   44.9140 C   0  0  0  0  0  0  0  0  0  0  0  0
   58.2160   29.6240   45.5150 C   0  0  0  0  0  0  0  0  0  0  0  0
   56.7560   29.7740   44.5450 S   0  0  0  0  0  0  0  0  0  0  0  0
   55.5190   28.7630   45.2010 N   0  0  0  0  0  0  0  0  0  0  0  0
   56.2950   31.2060   44.5500 O   0  0  0  0  0  0  0  0  0  0  0  0
   57.0350   29.3630   43.1260 O   0  0  0  0  0  0  0  0  0  0  0  0
   58.1140   29.4560   46.9020 C   0  0  0  0  0  0  0  0  0  0  0  0
   61.2130   32.6800   49.8920 C   0  0  0  0  0  0  0  0  0  0  0  0
   60.1150   33.6160   49.5480 C   0  0  0  0  0  0  0  0  0  0  0  0
   60.0800   34.4140   48.4680 C   0  0  0  0  0  0  0  0  0  0  0  0
   59.3340   34.1610   47.2110 C   0  0  0  0  0  0  0  0  0  0  0  0
   58.0630   33.5550   47.1990 C   0  0  0  0  0  0  0  0  0  0  0  0
   57.4150   33.2870   45.9910 C   0  0  0  0  0  0  0  0  0  0  0  0
   58.0320   33.6090   44.7790 C   0  0  0  0  0  0  0  0  0  0  0  0
   57.4030   33.3470   43.6070 F   0  0  0  0  0  0  0  0  0  0  0  0
   59.3020   34.1900   44.7770 C   0  0  0  0  0  0  0  0  0  0  0  0
   59.9540   34.4570   45.9860 C   0  0  0  0  0  0  0  0  0  0  0  0
   62.5420   33.1360   49.8850 C   0  0  0  0  0  0  0  0  0  0  0  0
   63.5920   32.2810   50.2280 C   0  0  0  0  0  0  0  0  0  0  0  0
   65.3780   32.9660   50.2480 Br  0  0  0  0  0  0  0  0  0  0  0  0
   64.4180   29.8223   52.9614 H   0  0  0  0  0  0  0  0  0  0  0  0
   63.5282   28.5968   51.9954 H   0  0  0  0  0  0  0  0  0  0  0  0
   65.3244   28.6090   51.9954 H   0  0  0  0  0  0  0  0  0  0  0  0
   61.8088   29.4145   50.7575 H   0  0  0  0  0  0  0  0  0  0  0  0
   59.2260   28.3530   49.5820 H   0  0  0  0  0  0  0  0  0  0  0  0
   61.4405   29.3735   47.6956 H   0  0  0  0  0  0  0  0  0  0  0  0
   61.6244   29.6267   45.2230 H   0  0  0  0  0  0  0  0  0  0  0  0
   59.5651   29.8017   43.8238 H   0  0  0  0  0  0  0  0  0  0  0  0
   54.6500   29.3400   45.2550 H   0  0  0  0  0  0  0  0  0  0  0  0
   57.1220   29.3735   47.3701 H   0  0  0  0  0  0  0  0  0  0  0  0
   59.2572   33.6604   50.2351 H   0  0  0  0  0  0  0  0  0  0  0  0
   60.6614   35.3463   48.5209 H   0  0  0  0  0  0  0  0  0  0  0  0
   57.5762   33.2904   48.1493 H   0  0  0  0  0  0  0  0  0  0  0  0
   56.4181   32.8221   45.9936 H   0  0  0  0  0  0  0  0  0  0  0  0
   59.7907   34.4382   43.8233 H   0  0  0  0  0  0  0  0  0  0  0  0
   60.9599   34.9021   45.9769 H   0  0  0  0  0  0  0  0  0  0  0  0
   62.7580   34.1780   49.6063 H   0  0  0  0  0  0  0  0  0  0  0  0
  1  2  1  0
  2  3  1  0
  3  4  2  0
  4  5  1  0
  5  6  1  0
  6  7  2  0
  6  8  2  0
  6  9  1  0
  9 10  1  0
 10 11  2  0
 11 12  1  0
 12 13  2  0
 13 14  1  0
 14 15  1  0
 15 16  1  0
 15 17  2  0
 15 18  2  0
 14 19  2  0
  5 20  2  0
 20 21  1  0
 21 22  2  3
 22 23  1  0
 23 24  2  0
 24 25  1  0
 25 26  2  0
 26 27  1  0
 26 28  1  0
 28 29  2  0
 20 30  1  0
 30 31  2  0
 31 32  1  0
 31  3  1  0
 19 10  1  0
 29 23  1  0
  1 33  1  0
  1 34  1  0
  1 35  1  0
  4 36  1  0
  9 37  1  0
 11 38  1  0
 12 39  1  0
 13 40  1  0
 16 41  1  0
 19 42  1  0
 21 43  1  0
 22 44  1  0
 24 45  1  0
 25 46  1  0
 28 47  1  0
 29 48  1  0
 30 49  1  0
M  CHG  1  16  -1
M  END
>  <UniqueID>  (41) 
38

>  <SMILES>  (41) 
COc1cc(S(=O)(=O)Nc2cccc(S([NH-])(=O)=O)c2)c(C=Cc2ccc(F)cc2)cc1Br

>  <Energy>  (41) 
59.622299709957694

>  <Genealogy>  (41) 
COc1cc(S(=O)(=O)Nc2cccc(S([NH-])(=O)=O)c2)c(C=Cc2ccc(F)cc2)cc1Br (protonated)
COc1cc(S(=O)(=O)Nc2cccc(S([NH-])(=O)=O)c2)c(C=Cc2ccc(F)cc2)cc1Br (3D coordinates assigned)
COc1cc(S(=O)(=O)Nc2cccc(S([NH-])(=O)=O)c2)c(C=Cc2ccc(F)cc2)cc1Br (optimized conformer: 59.622299709957694 kcal/mol)

>  <smiles>  (41) 
COc1cc(S(=O)(=O)Nc2cccc(S(N)(=O)=O)c2)c(C=Cc2ccc(F)cc2)cc1Br

>  <score_type>  (41) 
oracle

>  <origin>  (41) 
adg

>  <m_score__min__energy>  (41) 
-12.6

>  <m_primary>  (41) 
energy

$$$$
41:0
     RDKit          3D

 43 45  0  0  0  0  0  0  0  0999 V2000
   59.1590   29.2120   44.5420 C   0  0  0  0  0  0  0  0  0  0  0  0
   57.9520   29.9900   44.8310 N   0  0  0  0  0  0  0  0  0  0  0  0
   56.6390   29.3510   44.7470 C   0  0  0  0  0  0  0  0  0  0  0  0
   58.0480   31.3680   45.2290 C   0  0  0  0  0  0  0  0  0  0  0  0
   57.4100   32.3560   44.4610 C   0  0  0  0  0  0  0  0  0  0  0  0
   57.5130   33.7030   44.8130 C   0  0  0  0  0  0  0  0  0  0  0  0
   58.2470   34.0770   45.9390 C   0  0  0  0  0  0  0  0  0  0  0  0
   58.8810   33.1060   46.7160 C   0  0  0  0  0  0  0  0  0  0  0  0
   58.7970   31.7450   46.3670 C   0  0  0  0  0  0  0  0  0  0  0  0
   59.3890   30.7420   47.2110 N   0  0  0  0  0  0  0  0  0  0  0  0
   59.0690   30.5960   48.6020 C   0  0  0  0  0  0  0  0  0  0  0  0
   58.5090   31.5340   49.2310 O   0  0  0  0  0  0  0  0  0  0  0  0
   59.4320   29.3380   49.3310 C   0  0  0  0  0  0  0  0  0  0  0  0
   60.1460   28.4510   48.4700 O   0  0  0  0  0  0  0  0  0  0  0  0
   59.5570   27.5140   47.6040 C   0  0  0  0  0  0  0  0  0  0  0  0
   60.3150   26.5910   46.8550 C   0  0  0  0  0  0  0  0  0  0  0  0
   59.6830   25.6840   45.9980 C   0  0  0  0  0  0  0  0  0  0  0  0
   58.2870   25.6850   45.8820 C   0  0  0  0  0  0  0  0  0  0  0  0
   57.6270   24.7890   45.0310 C   0  0  0  0  0  0  0  0  0  0  0  0
   56.2330   24.8160   44.9410 C   0  0  0  0  0  0  0  0  0  0  0  0
   55.5120   25.7410   45.7040 C   0  0  0  0  0  0  0  0  0  0  0  0
   54.2560   25.7760   45.6320 O   0  0  0  0  0  0  0  0  0  0  0  0
   56.1670   26.6050   46.5250 N   0  0  0  0  0  0  0  0  0  0  0  0
   57.5220   26.6020   46.6340 C   0  0  0  0  0  0  0  0  0  0  0  0
   58.1610   27.5070   47.4890 C   0  0  0  0  0  0  0  0  0  0  0  0
   59.6331   28.9064   45.4864 H   0  0  0  0  0  0  0  0  0  0  0  0
   58.8885   28.3178   43.9613 H   0  0  0  0  0  0  0  0  0  0  0  0
   59.8617   29.8276   43.9613 H   0  0  0  0  0  0  0  0  0  0  0  0
   56.2563   29.1647   45.7613 H   0  0  0  0  0  0  0  0  0  0  0  0
   55.9436   30.0114   44.2083 H   0  0  0  0  0  0  0  0  0  0  0  0
   56.7297   28.3963   44.2083 H   0  0  0  0  0  0  0  0  0  0  0  0
   56.8249   32.0662   43.5757 H   0  0  0  0  0  0  0  0  0  0  0  0
   57.0150   34.4702   44.2020 H   0  0  0  0  0  0  0  0  0  0  0  0
   58.3262   35.1389   46.2150 H   0  0  0  0  0  0  0  0  0  0  0  0
   59.4505   33.4067   47.6077 H   0  0  0  0  0  0  0  0  0  0  0  0
   60.0970   30.0980   46.7940 H   0  0  0  0  0  0  0  0  0  0  0  0
   60.0634   29.5898   50.1958 H   0  0  0  0  0  0  0  0  0  0  0  0
   58.5095   28.8423   49.6674 H   0  0  0  0  0  0  0  0  0  0  0  0
   61.4113   26.5840   46.9452 H   0  0  0  0  0  0  0  0  0  0  0  0
   60.2825   24.9695   45.4148 H   0  0  0  0  0  0  0  0  0  0  0  0
   58.2044   24.0665   44.4355 H   0  0  0  0  0  0  0  0  0  0  0  0
   55.7066   24.1158   44.2757 H   0  0  0  0  0  0  0  0  0  0  0  0
   57.5619   28.2189   48.0757 H   0  0  0  0  0  0  0  0  0  0  0  0
  1  2  1  0
  2  3  1  0
  2  4  1  0
  4  5  2  0
  5  6  1  0
  6  7  2  0
  7  8  1  0
  8  9  2  0
  9 10  1  0
 10 11  1  0
 11 12  2  0
 11 13  1  0
 13 14  1  0
 14 15  1  0
 15 16  2  0
 16 17  1  0
 17 18  2  0
 18 19  1  0
 19 20  2  0
 20 21  1  0
 21 22  2  0
 21 23  1  0
 23 24  1  0
 24 25  2  0
  9  4  1  0
 25 15  1  0
 24 18  1  0
  1 26  1  0
  1 27  1  0
  1 28  1  0
  3 29  1  0
  3 30  1  0
  3 31  1  0
  5 32  1  0
  6 33  1  0
  7 34  1  0
  8 35  1  0
 10 36  1  0
 13 37  1  0
 13 38  1  0
 16 39  1  0
 17 40  1  0
 19 41  1  0
 20 42  1  0
 25 43  1  0
M  CHG  1  23  -1
M  END
>  <UniqueID>  (42) 
39

>  <SMILES>  (42) 
CN(C)c1ccccc1NC(=O)COc1ccc2ccc(=O)[n-]c2c1

>  <Energy>  (42) 
54.203333292307214

>  <Genealogy>  (42) 
CN(C)c1ccccc1NC(=O)COc1ccc2ccc(=O)[n-]c2c1 (protonated)
CN(C)c1ccccc1NC(=O)COc1ccc2ccc(=O)[n-]c2c1 (3D coordinates assigned)
CN(C)c1ccccc1NC(=O)COc1ccc2ccc(=O)[n-]c2c1 (optimized conformer: 54.203333292307214 kcal/mol)

>  <smiles>  (42) 
CN(C)c1ccccc1NC(=O)COc1ccc2ccc(=O)[nH]c2c1

>  <score_type>  (42) 
oracle

>  <origin>  (42) 
adg

>  <m_score__min__energy>  (42) 
-9.6899999999999995

>  <m_primary>  (42) 
energy

$$$$
42:0
     RDKit          3D

 45 47  0  0  0  0  0  0  0  0999 V2000
   55.1520   26.6950   46.0400 N   0  0  0  0  0  0  0  0  0  0  0  0
   56.8410   26.3590   45.9090 S   0  0  0  0  0  0  0  0  0  0  0  0
   57.0690   25.3860   44.7870 O   0  0  0  0  0  0  0  0  0  0  0  0
   57.3310   25.7450   47.1920 O   0  0  0  0  0  0  0  0  0  0  0  0
   57.7140   27.8590   45.6040 C   0  0  0  0  0  0  0  0  0  0  0  0
   59.1110   27.8720   45.5130 C   0  0  0  0  0  0  0  0  0  0  0  0
   59.7830   29.0670   45.2490 C   0  0  0  0  0  0  0  0  0  0  0  0
   59.0650   30.2500   45.0530 C   0  0  0  0  0  0  0  0  0  0  0  0
   57.6660   30.2470   45.1200 C   0  0  0  0  0  0  0  0  0  0  0  0
   56.9600   31.4700   44.8650 N   0  0  0  0  0  0  0  0  0  0  0  0
   57.6700   33.0510   44.9040 S   0  0  0  0  0  0  0  0  0  0  0  0
   56.5830   34.0870   44.8820 O   0  0  0  0  0  0  0  0  0  0  0  0
   58.5410   33.2290   43.6920 O   0  0  0  0  0  0  0  0  0  0  0  0
   58.6090   33.2400   46.3830 C   0  0  0  0  0  0  0  0  0  0  0  0
   58.1240   32.7090   47.5840 C   0  0  0  0  0  0  0  0  0  0  0  0
   58.8990   32.7750   48.7450 C   0  0  0  0  0  0  0  0  0  0  0  0
   60.1740   33.3540   48.7150 C   0  0  0  0  0  0  0  0  0  0  0  0
   60.9480   33.3770   49.9230 N   0  0  0  0  0  0  0  0  0  0  0  0
   62.3000   33.8330   50.0590 C   0  0  0  0  0  0  0  0  0  0  0  0
   62.6900   34.8710   49.4570 O   0  0  0  0  0  0  0  0  0  0  0  0
   63.2090   33.0860   50.8780 N   0  0  0  0  0  0  0  0  0  0  0  0
   64.6320   33.2960   50.9050 C   0  0  0  0  0  0  0  0  0  0  0  0
   65.4610   32.4950   50.1040 C   0  0  0  0  0  0  0  0  0  0  0  0
   66.8460   32.6940   50.0980 C   0  0  0  0  0  0  0  0  0  0  0  0
   67.4110   33.7040   50.8800 C   0  0  0  0  0  0  0  0  0  0  0  0
   66.5910   34.5270   51.6580 C   0  0  0  0  0  0  0  0  0  0  0  0
   65.2080   34.3300   51.6670 C   0  0  0  0  0  0  0  0  0  0  0  0
   60.6420   33.9260   47.5180 C   0  0  0  0  0  0  0  0  0  0  0  0
   59.8640   33.8630   46.3570 C   0  0  0  0  0  0  0  0  0  0  0  0
   56.9950   29.0470   45.4200 C   0  0  0  0  0  0  0  0  0  0  0  0
   54.7690   26.7150   45.0690 H   0  0  0  0  0  0  0  0  0  0  0  0
   59.6795   26.9402   45.6496 H   0  0  0  0  0  0  0  0  0  0  0  0
   60.8816   29.0775   45.1951 H   0  0  0  0  0  0  0  0  0  0  0  0
   59.6011   31.1878   44.8452 H   0  0  0  0  0  0  0  0  0  0  0  0
   57.1301   32.2385   47.6140 H   0  0  0  0  0  0  0  0  0  0  0  0
   58.5051   32.3696   49.6886 H   0  0  0  0  0  0  0  0  0  0  0  0
   62.7990   32.3920   51.5420 H   0  0  0  0  0  0  0  0  0  0  0  0
   65.0192   31.7062   49.4774 H   0  0  0  0  0  0  0  0  0  0  0  0
   67.4904   32.0545   49.4769 H   0  0  0  0  0  0  0  0  0  0  0  0
   68.5010   33.8519   50.8838 H   0  0  0  0  0  0  0  0  0  0  0  0
   67.0354   35.3305   52.2637 H   0  0  0  0  0  0  0  0  0  0  0  0
   64.5658   34.9863   52.2727 H   0  0  0  0  0  0  0  0  0  0  0  0
   61.6224   34.4242   47.4948 H   0  0  0  0  0  0  0  0  0  0  0  0
   60.2384   34.3037   45.4212 H   0  0  0  0  0  0  0  0  0  0  0  0
   55.8987   29.0419   45.5106 H   0  0  0  0  0  0  0  0  0  0  0  0
  1  2  1  0
  2  3  2  0
  2  4  2  0
  2  5  1  0
  5  6  2  0
  6  7  1  0
  7  8  2  0
  8  9  1  0
  9 10  1  0
 10 11  1  0
 11 12  2  0
 11 13  2  0
 11 14  1  0
 14 15  2  0
 15 16  1  0
 16 17  2  0
 17 18  1  0
 18 19  1  0
 19 20  2  0
 19 21  1  0
 21 22  1  0
 22 23  2  0
 23 24  1  0
 24 25  2  0
 25 26  1  0
 26 27  2  0
 17 28  1  0
 28 29  2  0
  9 30  2  0
 30  5  1  0
 29 14  1  0
 27 22  1  0
  1 31  1  0
  6 32  1  0
  7 33  1  0
  8 34  1  0
 15 35  1  0
 16 36  1  0
 21 37  1  0
 23 38  1  0
 24 39  1  0
 25 40  1  0
 26 41  1  0
 27 42  1  0
 28 43  1  0
 29 44  1  0
 30 45  1  0
M  CHG  3   1  -1  10  -1  18  -1
M  END
>  <UniqueID>  (43) 
40

>  <SMILES>  (43) 
[NH-]S(=O)(=O)c1cccc([N-]S(=O)(=O)c2ccc([N-]C(=O)Nc3ccccc3)cc2)c1

>  <Energy>  (43) 
56.474251607381234

>  <Genealogy>  (43) 
[NH-]S(=O)(=O)c1cccc([N-]S(=O)(=O)c2ccc([N-]C(=O)Nc3ccccc3)cc2)c1 (protonated)
[NH-]S(=O)(=O)c1cccc([N-]S(=O)(=O)c2ccc([N-]C(=O)Nc3ccccc3)cc2)c1 (3D coordinates assigned)
[NH-]S(=O)(=O)c1cccc([N-]S(=O)(=O)c2ccc([N-]C(=O)Nc3ccccc3)cc2)c1 (optimized conformer: 56.474251607381234 kcal/mol)

>  <smiles>  (43) 
NS(=O)(=O)c1cccc(NS(=O)(=O)c2ccc(NC(=O)Nc3ccccc3)cc2)c1

>  <score_type>  (43) 
oracle

>  <origin>  (43) 
adg

>  <m_score__min__energy>  (43) 
-14.880000000000001

>  <m_primary>  (43) 
energy

$$$$
43:0
     RDKit          3D

 44 46  0  0  0  0  0  0  0  0999 V2000
   57.8260   27.2900   43.0980 C   0  0  0  0  0  0  0  0  0  0  0  0
   57.9020   26.8920   44.5510 C   0  0  0  0  0  0  0  0  0  0  0  0
   58.1150   25.5290   44.8280 C   0  0  0  0  0  0  0  0  0  0  0  0
   58.1650   25.0600   46.1410 C   0  0  0  0  0  0  0  0  0  0  0  0
   57.9980   25.9430   47.2010 C   0  0  0  0  0  0  0  0  0  0  0  0
   57.7640   27.2950   46.9560 C   0  0  0  0  0  0  0  0  0  0  0  0
   57.6940   27.8000   45.6390 C   0  0  0  0  0  0  0  0  0  0  0  0
   57.4670   29.3060   45.5060 C   0  0  1  0  0  0  0  0  0  0  0  0
   58.9650   30.2010   44.9010 S   0  0  0  0  0  0  0  0  0  0  0  0
   58.7520   31.7680   45.7620 C   0  0  0  0  0  0  0  0  0  0  0  0
   58.4060   32.9090   45.0250 C   0  0  0  0  0  0  0  0  0  0  0  0
   58.2100   34.1330   45.6700 C   0  0  0  0  0  0  0  0  0  0  0  0
   58.3450   34.2210   47.0560 C   0  0  0  0  0  0  0  0  0  0  0  0
   58.6470   33.0810   47.8030 C   0  0  0  0  0  0  0  0  0  0  0  0
   58.8120   31.8390   47.1680 C   0  0  0  0  0  0  0  0  0  0  0  0
   59.1130   30.6640   47.9310 N   0  0  0  0  0  0  0  0  0  0  0  0
   60.4060   30.0640   48.0670 C   0  0  0  0  0  0  0  0  0  0  0  0
   60.6820   29.0520   47.3710 O   0  0  0  0  0  0  0  0  0  0  0  0
   61.3840   30.5230   49.1130 C   0  0  0  0  0  0  0  0  0  0  0  0
   62.2870   31.5680   48.5400 C   0  0  0  0  0  0  0  0  0  0  0  0
   63.4480   32.0500   49.1290 C   0  0  0  0  0  0  0  0  0  0  0  0
   64.0400   33.0920   48.4050 C   0  0  0  0  0  0  0  0  0  0  0  0
   63.3410   33.4410   47.2560 C   0  0  0  0  0  0  0  0  0  0  0  0
   61.9890   32.4490   47.1380 S   0  0  0  0  0  0  0  0  0  0  0  0
   56.1790   29.7150   44.8440 C   0  0  0  0  0  0  0  0  0  0  0  0
   55.1670   28.9680   44.8710 O   0  0  0  0  0  0  0  0  0  0  0  0
   56.1230   30.9080   44.1340 O   0  0  0  0  0  0  0  0  0  0  0  0
   57.6202   28.3680   43.0234 H   0  0  0  0  0  0  0  0  0  0  0  0
   58.7834   27.0646   42.6055 H   0  0  0  0  0  0  0  0  0  0  0  0
   57.0190   26.7277   42.6055 H   0  0  0  0  0  0  0  0  0  0  0  0
   58.2442   24.8216   43.9956 H   0  0  0  0  0  0  0  0  0  0  0  0
   58.3366   23.9913   46.3372 H   0  0  0  0  0  0  0  0  0  0  0  0
   58.0506   25.5740   48.2359 H   0  0  0  0  0  0  0  0  0  0  0  0
   57.6313   27.9819   47.8048 H   0  0  0  0  0  0  0  0  0  0  0  0
   57.3098   29.6528   46.5380 H   0  0  0  0  0  0  0  0  0  0  0  0
   58.2882   32.8405   43.9335 H   0  0  0  0  0  0  0  0  0  0  0  0
   57.9492   35.0273   45.0850 H   0  0  0  0  0  0  0  0  0  0  0  0
   58.2133   35.1896   47.5605 H   0  0  0  0  0  0  0  0  0  0  0  0
   58.7564   33.1558   48.8950 H   0  0  0  0  0  0  0  0  0  0  0  0
   60.8338   30.9446   49.9671 H   0  0  0  0  0  0  0  0  0  0  0  0
   61.9872   29.6658   49.4466 H   0  0  0  0  0  0  0  0  0  0  0  0
   63.8607   31.6538   50.0685 H   0  0  0  0  0  0  0  0  0  0  0  0
   64.9712   33.5878   48.7166 H   0  0  0  0  0  0  0  0  0  0  0  0
   63.6239   34.2313   46.5451 H   0  0  0  0  0  0  0  0  0  0  0  0
  1  2  1  0
  2  3  2  0
  3  4  1  0
  4  5  2  0
  5  6  1  0
  6  7  2  0
  7  8  1  0
  8  9  1  0
  9 10  1  0
 10 11  2  0
 11 12  1  0
 12 13  2  0
 13 14  1  0
 14 15  2  0
 15 16  1  0
 16 17  1  0
 17 18  2  0
 17 19  1  0
 19 20  1  0
 20 21  2  0
 21 22  1  0
 22 23  2  0
 23 24  1  0
  8 25  1  0
 25 26  2  0
 25 27  1  0
  7  2  1  0
 15 10  1  0
 24 20  1  0
  1 28  1  0
  1 29  1  0
  1 30  1  0
  3 31  1  0
  4 32  1  0
  5 33  1  0
  6 34  1  0
  8 35  1  1
 11 36  1  0
 12 37  1  0
 13 38  1  0
 14 39  1  0
 19 40  1  0
 19 41  1  0
 21 42  1  0
 22 43  1  0
 23 44  1  0
M  CHG  2  16  -1  27  -1
M  END
>  <UniqueID>  (44) 
41

>  <SMILES>  (44) 
Cc1ccccc1[C@@H](Sc1ccccc1[N-]C(=O)Cc1cccs1)C(=O)[O-]

>  <Energy>  (44) 
79.69400458289157

>  <Genealogy>  (44) 
Cc1ccccc1C(Sc1ccccc1[N-]C(=O)Cc1cccs1)C(=O)[O-] (protonated)
Cc1ccccc1[C@@H](Sc1ccccc1[N-]C(=O)Cc1cccs1)C(=O)[O-] (chirality)
Cc1ccccc1[C@@H](Sc1ccccc1[N-]C(=O)Cc1cccs1)C(=O)[O-] (3D coordinates assigned)
Cc1ccccc1[C@@H](Sc1ccccc1[N-]C(=O)Cc1cccs1)C(=O)[O-] (optimized conformer: 79.69400458289157 kcal/mol)

>  <smiles>  (44) 
Cc1ccccc1C(Sc1ccccc1NC(=O)Cc1cccs1)C(=O)O

>  <score_type>  (44) 
oracle

>  <origin>  (44) 
adg

>  <m_score__min__energy>  (44) 
-13.65

>  <m_primary>  (44) 
energy

$$$$
44:0
     RDKit          3D

 40 42  0  0  0  0  0  0  0  0999 V2000
   60.2140   33.8460   50.5450 O   0  0  0  0  0  0  0  0  0  0  0  0
   60.1340   33.0090   49.6080 C   0  0  0  0  0  0  0  0  0  0  0  0
   59.5850   31.7040   49.8410 N   0  0  0  0  0  0  0  0  0  0  0  0
   58.4900   31.3740   50.7060 C   0  0  0  0  0  0  0  0  0  0  0  0
   57.5840   32.3430   51.1710 C   0  0  0  0  0  0  0  0  0  0  0  0
   56.5440   31.9820   52.0330 C   0  0  0  0  0  0  0  0  0  0  0  0
   56.3970   30.6480   52.4550 C   0  0  0  0  0  0  0  0  0  0  0  0
   55.2950   30.2640   53.3690 C   0  0  0  0  0  0  0  0  0  0  0  0
   55.5030   30.1930   54.6110 O   0  0  0  0  0  0  0  0  0  0  0  0
   54.0070   29.9190   52.8360 N   0  0  0  0  0  0  0  0  0  0  0  0
   52.8830   30.7970   52.6790 C   0  0  0  0  0  0  0  0  0  0  0  0
   52.1000   31.0930   53.8030 C   0  0  0  0  0  0  0  0  0  0  0  0
   50.9840   31.9280   53.6900 C   0  0  0  0  0  0  0  0  0  0  0  0
   50.6320   32.4600   52.4470 C   0  0  0  0  0  0  0  0  0  0  0  0
   51.3900   32.1490   51.3130 C   0  0  0  0  0  0  0  0  0  0  0  0
   51.0280   32.6620   50.0740 O   0  0  0  0  0  0  0  0  0  0  0  0
   52.5090   31.3150   51.4250 C   0  0  0  0  0  0  0  0  0  0  0  0
   57.3210   29.6890   52.0070 C   0  0  0  0  0  0  0  0  0  0  0  0
   58.3620   30.0520   51.1470 C   0  0  0  0  0  0  0  0  0  0  0  0
   60.6060   33.3780   48.3090 N   0  0  0  0  0  0  0  0  0  0  0  0
   59.7940   33.6990   47.1690 C   0  0  0  0  0  0  0  0  0  0  0  0
   60.0390   34.8520   46.3990 C   0  0  0  0  0  0  0  0  0  0  0  0
   59.2540   35.1340   45.2790 C   0  0  0  0  0  0  0  0  0  0  0  0
   58.2290   34.2620   44.9060 C   0  0  0  0  0  0  0  0  0  0  0  0
   57.9950   33.1010   45.6450 C   0  0  0  0  0  0  0  0  0  0  0  0
   58.7750   32.8110   46.7700 C   0  0  0  0  0  0  0  0  0  0  0  0
   58.5160   31.6380   47.4810 O   0  0  0  0  0  0  0  0  0  0  0  0
   57.6938   33.3909   50.8550 H   0  0  0  0  0  0  0  0  0  0  0  0
   55.8354   32.7468   52.3838 H   0  0  0  0  0  0  0  0  0  0  0  0
   52.3652   30.6654   54.7812 H   0  0  0  0  0  0  0  0  0  0  0  0
   50.3831   32.1661   54.5801 H   0  0  0  0  0  0  0  0  0  0  0  0
   49.7589   33.1234   52.3600 H   0  0  0  0  0  0  0  0  0  0  0  0
   53.0976   31.0639   50.5303 H   0  0  0  0  0  0  0  0  0  0  0  0
   57.2246   28.6437   52.3356 H   0  0  0  0  0  0  0  0  0  0  0  0
   59.0855   29.2930   50.8147 H   0  0  0  0  0  0  0  0  0  0  0  0
   60.8538   35.5349   46.6814 H   0  0  0  0  0  0  0  0  0  0  0  0
   59.4432   36.0437   44.6902 H   0  0  0  0  0  0  0  0  0  0  0  0
   57.6054   34.4902   44.0290 H   0  0  0  0  0  0  0  0  0  0  0  0
   57.1938   32.4110   45.3416 H   0  0  0  0  0  0  0  0  0  0  0  0
   58.9780   31.4210   48.3560 H   0  0  0  0  0  0  0  0  0  0  0  0
  1  2  2  0
  2  3  1  0
  3  4  1  0
  4  5  2  0
  5  6  1  0
  6  7  2  0
  7  8  1  0
  8  9  2  0
  8 10  1  0
 10 11  1  0
 11 12  2  0
 12 13  1  0
 13 14  2  0
 14 15  1  0
 15 16  1  0
 15 17  2  0
  7 18  1  0
 18 19  2  0
  2 20  1  0
 20 21  1  0
 21 22  2  0
 22 23  1  0
 23 24  2  0
 24 25  1  0
 25 26  2  0
 26 27  1  0
 19  4  1  0
 26 21  1  0
 17 11  1  0
  5 28  1  0
  6 29  1  0
 12 30  1  0
 13 31  1  0
 14 32  1  0
 17 33  1  0
 18 34  1  0
 19 35  1  0
 22 36  1  0
 23 37  1  0
 24 38  1  0
 25 39  1  0
 27 40  1  0
M  CHG  4   3  -1  10  -1  16  -1  20  -1
M  END
>  <UniqueID>  (45) 
42

>  <SMILES>  (45) 
O=C([N-]c1ccc(C(=O)[N-]c2cccc([O-])c2)cc1)[N-]c1ccccc1O

>  <Energy>  (45) 
54.9254677101271

>  <Genealogy>  (45) 
O=C([N-]c1ccc(C(=O)[N-]c2cccc([O-])c2)cc1)[N-]c1ccccc1O (protonated)
O=C([N-]c1ccc(C(=O)[N-]c2cccc([O-])c2)cc1)[N-]c1ccccc1O (3D coordinates assigned)
O=C([N-]c1ccc(C(=O)[N-]c2cccc([O-])c2)cc1)[N-]c1ccccc1O (optimized conformer: 54.9254677101271 kcal/mol)

>  <smiles>  (45) 
O=C(Nc1ccc(C(=O)Nc2cccc(O)c2)cc1)Nc1ccccc1O

>  <score_type>  (45) 
oracle

>  <origin>  (45) 
adg

>  <m_score__min__energy>  (45) 
-14.119999999999999

>  <m_primary>  (45) 
energy

$$$$
45:0
     RDKit          3D

 62 66  0  0  1  0  0  0  0  0999 V2000
   56.3570   31.3210   52.5390 C   0  0  0  0  0  0  0  0  0  0  0  0
   57.5900   32.1550   52.5840 C   0  0  0  0  0  0  0  0  0  0  0  0
   57.4440   33.5210   52.3690 C   0  0  0  0  0  0  0  0  0  0  0  0
   58.5710   34.2920   52.4100 N   0  0  0  0  0  0  0  0  0  0  0  0
   59.7700   33.7390   52.6500 C   0  0  0  0  0  0  0  0  0  0  0  0
   59.9400   32.3820   52.8660 C   0  0  0  0  0  0  0  0  0  0  0  0
   57.4980   28.3590   45.5460 C   0  0  0  0  0  0  0  0  0  0  0  0
   56.7940   29.4390   45.5600 N   0  0  0  0  0  0  0  0  0  0  0  0
   58.8660   29.3020   52.0120 C   0  0  0  0  0  0  0  0  0  0  0  0
   60.0150   29.3080   51.0300 C   0  0  0  0  0  0  0  0  0  0  0  0
   59.5500   29.7080   49.7200 N   0  0  0  0  0  0  0  0  0  0  0  0
   59.2400   31.1280   49.5710 C   0  0  0  0  0  0  0  0  0  0  0  0
   60.2570   31.8760   48.8030 C   0  0  0  0  0  0  0  0  0  0  0  0
   59.8610   32.5400   47.6400 C   0  0  0  0  0  0  0  0  0  0  0  0
   60.8150   33.2440   46.9310 C   0  0  0  0  0  0  0  0  0  0  0  0
   62.1460   33.3040   47.3470 C   0  0  0  0  0  0  0  0  0  0  0  0
   63.3480   34.2070   46.4320 Cl  0  0  0  0  0  0  0  0  0  0  0  0
   62.5330   32.6380   48.5090 C   0  0  0  0  0  0  0  0  0  0  0  0
   64.2010   32.7180   49.0190 Cl  0  0  0  0  0  0  0  0  0  0  0  0
   61.5870   31.9260   49.2320 C   0  0  0  0  0  0  0  0  0  0  0  0
   59.3980   28.7990   48.6440 C   0  0  0  0  0  0  0  0  0  0  0  0
   58.5080   29.0440   47.6190 C   0  0  0  0  0  0  0  0  0  0  0  0
   58.3870   28.1170   46.5760 C   0  0  0  0  0  0  0  0  0  0  0  0
   58.8260   31.5780   52.8320 C   0  0  0  0  0  0  0  0  0  0  0  0
   58.9690   30.3300   53.0250 N   0  0  0  0  0  0  0  0  0  0  0  0
   57.2260   30.5150   44.7210 C   0  0  0  0  0  0  0  0  0  0  0  0
   57.9370   31.5820   45.2760 C   0  0  0  0  0  0  0  0  0  0  0  0
   58.3540   32.6290   44.4450 C   0  0  0  0  0  0  0  0  0  0  0  0
   58.0660   32.6100   43.0870 C   0  0  0  0  0  0  0  0  0  0  0  0
   57.3620   31.5470   42.5620 C   0  0  0  0  0  0  0  0  0  0  0  0
   56.9360   30.4940   43.3590 C   0  0  0  0  0  0  0  0  0  0  0  0
   56.2400   29.4430   42.8350 F   0  0  0  0  0  0  0  0  0  0  0  0
   57.3890   27.4680   44.5500 N   0  0  0  0  0  0  0  0  0  0  0  0
   58.1230   26.3320   44.5180 C   0  0  0  0  0  0  0  0  0  0  0  0
   58.9830   26.1100   45.5270 N   0  0  0  0  0  0  0  0  0  0  0  0
   59.1430   26.9550   46.5510 C   0  0  0  0  0  0  0  0  0  0  0  0
   60.0120   26.7550   47.5900 C   0  0  0  0  0  0  0  0  0  0  0  0
   60.1040   27.6670   48.5770 N   0  0  0  0  0  0  0  0  0  0  0  0
   56.0275   31.0981   53.5645 H   0  0  0  0  0  0  0  0  0  0  0  0
   55.5632   31.8684   52.0096 H   0  0  0  0  0  0  0  0  0  0  0  0
   56.5696   30.3805   52.0096 H   0  0  0  0  0  0  0  0  0  0  0  0
   56.4567   33.9647   52.1730 H   0  0  0  0  0  0  0  0  0  0  0  0
   58.4560   35.3350   52.2440 H   0  0  0  0  0  0  0  0  0  0  0  0
   60.6552   34.3915   52.6762 H   0  0  0  0  0  0  0  0  0  0  0  0
   60.9373   31.9599   53.0591 H   0  0  0  0  0  0  0  0  0  0  0  0
   58.8395   28.3222   52.5113 H   0  0  0  0  0  0  0  0  0  0  0  0
   57.9487   29.5023   51.4389 H   0  0  0  0  0  0  0  0  0  0  0  0
   60.7837   30.0154   51.3744 H   0  0  0  0  0  0  0  0  0  0  0  0
   60.4386   28.2948   50.9668 H   0  0  0  0  0  0  0  0  0  0  0  0
   58.2743   31.2210   49.0526 H   0  0  0  0  0  0  0  0  0  0  0  0
   59.2145   31.5613   50.5817 H   0  0  0  0  0  0  0  0  0  0  0  0
   58.8164   32.5034   47.2973 H   0  0  0  0  0  0  0  0  0  0  0  0
   60.5174   33.7720   46.0130 H   0  0  0  0  0  0  0  0  0  0  0  0
   61.8852   31.3970   50.1492 H   0  0  0  0  0  0  0  0  0  0  0  0
   57.8984   29.9597   47.6207 H   0  0  0  0  0  0  0  0  0  0  0  0
   58.1662   31.5993   46.3517 H   0  0  0  0  0  0  0  0  0  0  0  0
   58.9146   33.4738   44.8718 H   0  0  0  0  0  0  0  0  0  0  0  0
   58.3958   33.4339   42.4370 H   0  0  0  0  0  0  0  0  0  0  0  0
   57.1327   31.5334   41.4862 H   0  0  0  0  0  0  0  0  0  0  0  0
   56.7170   27.6310   43.7560 H   0  0  0  0  0  0  0  0  0  0  0  0
   58.0193   25.6126   43.6923 H   0  0  0  0  0  0  0  0  0  0  0  0
   60.6353   25.8491   47.6187 H   0  0  0  0  0  0  0  0  0  0  0  0
  1  2  1  0
  2  3  2  0
  3  4  1  0
  4  5  1  0
  5  6  2  0
  6  7  1  0
  7  8  2  0
  8  9  1  0
  9 10  1  0
 10 11  1  0
 11 12  1  0
 12 13  1  0
 13 14  2  0
 14 15  1  0
 15 16  2  0
 16 17  1  0
 16 18  1  0
 18 19  1  0
 18 20  2  0
 11 21  1  0
 21 22  2  0
 22 23  1  0
 23 24  1  0
 24 25  2  0
 25 26  1  0
 26 27  2  0
 27 28  1  0
 28 29  2  0
 29 30  1  0
 30 31  2  0
 31 32  1  0
 24 33  1  0
 33 34  1  0
 34 35  2  0
 35 36  1  0
 36 37  1  0
 37 38  2  0
  7  2  1  0
 20 13  1  0
 38 21  1  0
 36 23  2  0
 31 26  1  0
  1 39  1  0
  1 40  1  0
  1 41  1  0
  3 42  1  0
  4 43  1  0
  5 44  1  0
  6 45  1  0
  9 46  1  0
  9 47  1  0
 10 48  1  0
 10 49  1  0
 12 50  1  0
 12 51  1  0
 14 52  1  0
 15 53  1  0
 20 54  1  0
 22 55  1  0
 27 56  1  0
 28 57  1  0
 29 58  1  0
 30 59  1  0
 33 60  1  0
 34 61  1  0
 37 62  1  0
M  END
>  <smiles>  (46) 
Cc1c[nH]ccc1=NCCN(Cc1ccc(Cl)c(Cl)c1)c1cc2c(=Nc3ccccc3F)[nH]cnc2cn1

>  <score_type>  (46) 
oracle

>  <origin>  (46) 
adg

>  <m_score__min__energy>  (46) 
-10.039999999999999

>  <m_primary>  (46) 
energy

$$$$
46:0
     RDKit          3D

 79 83  0  0  0  0  0  0  0  0999 V2000
   58.5810   29.6300   48.5150 O   0  0  0  0  0  0  0  0  0  0  0  0
   59.3500   28.7200   48.9110 C   0  0  0  0  0  0  0  0  0  0  0  0
   59.6610   28.6230   50.3010 N   0  0  0  0  0  0  0  0  0  0  0  0
   58.9750   29.6700   51.5010 S   0  0  0  0  0  0  0  0  0  0  0  0
   59.2510   29.0900   52.8530 O   0  0  0  0  0  0  0  0  0  0  0  0
   57.4910   29.7840   51.3040 O   0  0  0  0  0  0  0  0  0  0  0  0
   59.7070   31.2700   51.3860 C   0  0  0  0  0  0  0  0  0  0  0  0
   60.7890   31.6240   52.2070 C   0  0  0  0  0  0  0  0  0  0  0  0
   61.3430   32.9090   52.1200 C   0  0  0  0  0  0  0  0  0  0  0  0
   60.8230   33.8430   51.2160 C   0  0  0  0  0  0  0  0  0  0  0  0
   59.7550   33.4900   50.3860 C   0  0  0  0  0  0  0  0  0  0  0  0
   59.2000   32.2040   50.4620 C   0  0  0  0  0  0  0  0  0  0  0  0
   58.1920   31.8650   49.6210 F   0  0  0  0  0  0  0  0  0  0  0  0
   59.9510   27.8260   47.9670 N   0  0  0  0  0  0  0  0  0  0  0  0
   59.3340   27.4290   46.6880 C   0  0  1  0  0  0  0  0  0  0  0  0
   57.8550   27.0640   46.9880 C   0  0  0  0  0  0  0  0  0  0  0  0
   57.2430   26.0790   46.0210 C   0  0  0  0  0  0  0  0  0  0  0  0
   57.9370   25.6790   44.8620 C   0  0  0  0  0  0  0  0  0  0  0  0
   57.3730   24.7300   44.0000 C   0  0  0  0  0  0  0  0  0  0  0  0
   56.1430   24.1430   44.3110 C   0  0  0  0  0  0  0  0  0  0  0  0
   55.4840   24.4830   45.4950 C   0  0  0  0  0  0  0  0  0  0  0  0
   56.0340   25.4420   46.3500 C   0  0  0  0  0  0  0  0  0  0  0  0
   59.4410   28.5150   45.5860 C   0  0  0  0  0  0  0  0  0  0  0  0
   59.8450   28.1850   44.4790 O   0  0  0  0  0  0  0  0  0  0  0  0
   59.1400   29.9350   45.8560 N   0  0  1  0  0  0  0  0  0  0  0  0
   60.3760   30.7810   46.0100 C   0  0  0  0  0  0  0  0  0  0  0  0
   60.6490   31.2140   47.4580 C   0  0  0  0  0  0  0  0  0  0  0  0
   61.9050   32.0220   47.6190 C   0  0  0  0  0  0  0  0  0  0  0  0
   62.2700   33.1370   46.8670 C   0  0  0  0  0  0  0  0  0  0  0  0
   63.3690   33.7270   47.3920 N   0  0  0  0  0  0  0  0  0  0  0  0
   63.7020   32.9970   48.4710 C   0  0  0  0  0  0  0  0  0  0  0  0
   64.7400   33.2400   49.3720 C   0  0  0  0  0  0  0  0  0  0  0  0
   64.8750   32.3740   50.4760 C   0  0  0  0  0  0  0  0  0  0  0  0
   63.9740   31.2980   50.6540 C   0  0  0  0  0  0  0  0  0  0  0  0
   62.9300   31.0830   49.7360 C   0  0  0  0  0  0  0  0  0  0  0  0
   62.8290   31.9450   48.6430 C   0  0  0  0  0  0  0  0  0  0  0  0
   58.1450   30.5370   44.8970 C   0  0  2  0  0  0  0  0  0  0  0  0
   57.4190   31.8230   45.3970 C   0  0  0  0  0  0  0  0  0  0  0  0
   58.3310   32.9560   45.7700 C   0  0  0  0  0  0  0  0  0  0  0  0
   58.4220   33.3870   47.1100 C   0  0  0  0  0  0  0  0  0  0  0  0
   59.0800   34.5850   47.4210 C   0  0  0  0  0  0  0  0  0  0  0  0
   59.6500   35.3540   46.4030 C   0  0  0  0  0  0  0  0  0  0  0  0
   59.6020   34.9110   45.0780 C   0  0  0  0  0  0  0  0  0  0  0  0
   58.9480   33.7120   44.7590 C   0  0  0  0  0  0  0  0  0  0  0  0
   57.0980   29.5040   44.5050 C   0  0  0  0  0  0  0  0  0  0  0  0
   57.3280   28.6930   43.5760 O   0  0  0  0  0  0  0  0  0  0  0  0
   55.9190   29.3740   45.2290 O   0  0  0  0  0  0  0  0  0  0  0  0
   61.2021   30.8936   52.9183 H   0  0  0  0  0  0  0  0  0  0  0  0
   62.1903   33.1846   52.7651 H   0  0  0  0  0  0  0  0  0  0  0  0
   61.2543   34.8533   51.1589 H   0  0  0  0  0  0  0  0  0  0  0  0
   59.3492   34.2219   49.6721 H   0  0  0  0  0  0  0  0  0  0  0  0
   60.9930   27.9690   47.9340 H   0  0  0  0  0  0  0  0  0  0  0  0
   59.8800   26.5670   46.2771 H   0  0  0  0  0  0  0  0  0  0  0  0
   57.8066   26.6294   47.9973 H   0  0  0  0  0  0  0  0  0  0  0  0
   57.2779   27.9955   46.8918 H   0  0  0  0  0  0  0  0  0  0  0  0
   58.9221   26.1121   44.6340 H   0  0  0  0  0  0  0  0  0  0  0  0
   57.8989   24.4460   43.0765 H   0  0  0  0  0  0  0  0  0  0  0  0
   55.6934   23.4124   43.6225 H   0  0  0  0  0  0  0  0  0  0  0  0
   54.5324   23.9960   45.7543 H   0  0  0  0  0  0  0  0  0  0  0  0
   55.5175   25.6999   47.2863 H   0  0  0  0  0  0  0  0  0  0  0  0
   58.6440   29.9230   46.7820 H   0  0  0  0  0  0  0  0  0  0  0  0
   61.2401   30.2025   45.6514 H   0  0  0  0  0  0  0  0  0  0  0  0
   60.2139   31.6980   45.4245 H   0  0  0  0  0  0  0  0  0  0  0  0
   59.7992   31.8198   47.8056 H   0  0  0  0  0  0  0  0  0  0  0  0
   60.7789   30.2957   48.0495 H   0  0  0  0  0  0  0  0  0  0  0  0
   61.7384   33.4889   45.9706 H   0  0  0  0  0  0  0  0  0  0  0  0
   63.8210   34.6190   47.0830 H   0  0  0  0  0  0  0  0  0  0  0  0
   65.4321   34.0822   49.2249 H   0  0  0  0  0  0  0  0  0  0  0  0
   65.6849   32.5357   51.2026 H   0  0  0  0  0  0  0  0  0  0  0  0
   64.0906   30.6249   51.5161 H   0  0  0  0  0  0  0  0  0  0  0  0
   62.2141   30.2595   49.8755 H   0  0  0  0  0  0  0  0  0  0  0  0
   58.7531   30.8490   44.0351 H   0  0  0  0  0  0  0  0  0  0  0  0
   56.7500   32.1715   44.5964 H   0  0  0  0  0  0  0  0  0  0  0  0
   56.8850   31.5398   46.3161 H   0  0  0  0  0  0  0  0  0  0  0  0
   57.9756   32.7817   47.9127 H   0  0  0  0  0  0  0  0  0  0  0  0
   59.1477   34.9198   48.4666 H   0  0  0  0  0  0  0  0  0  0  0  0
   60.1375   36.3100   46.6448 H   0  0  0  0  0  0  0  0  0  0  0  0
   60.0784   35.5043   44.2836 H   0  0  0  0  0  0  0  0  0  0  0  0
   58.9181   33.3631   43.7162 H   0  0  0  0  0  0  0  0  0  0  0  0
  1  2  2  0
  2  3  1  0
  3  4  1  0
  4  5  2  0
  4  6  2  0
  4  7  1  0
  7  8  2  0
  8  9  1  0
  9 10  2  0
 10 11  1  0
 11 12  2  0
 12 13  1  0
  2 14  1  0
 14 15  1  0
 15 16  1  0
 16 17  1  0
 17 18  2  0
 18 19  1  0
 19 20  2  0
 20 21  1  0
 21 22  2  0
 15 23  1  0
 23 24  2  0
 23 25  1  0
 25 26  1  0
 26 27  1  0
 27 28  1  0
 28 29  2  0
 29 30  1  0
 30 31  1  0
 31 32  2  0
 32 33  1  0
 33 34  2  0
 34 35  1  0
 35 36  2  0
 25 37  1  0
 37 38  1  0
 38 39  1  0
 39 40  2  0
 40 41  1  0
 41 42  2  0
 42 43  1  0
 43 44  2  0
 37 45  1  0
 45 46  2  0
 45 47  1  0
 12  7  1  0
 22 17  1  0
 36 28  1  0
 44 39  1  0
 36 31  1  0
  8 48  1  0
  9 49  1  0
 10 50  1  0
 11 51  1  0
 14 52  1  0
 15 53  1  6
 16 54  1  0
 16 55  1  0
 18 56  1  0
 19 57  1  0
 20 58  1  0
 21 59  1  0
 22 60  1  0
 25 61  1  1
 26 62  1  0
 26 63  1  0
 27 64  1  0
 27 65  1  0
 29 66  1  0
 30 67  1  0
 32 68  1  0
 33 69  1  0
 34 70  1  0
 35 71  1  0
 37 72  1  6
 38 73  1  0
 38 74  1  0
 40 75  1  0
 41 76  1  0
 42 77  1  0
 43 78  1  0
 44 79  1  0
M  CHG  3   3  -1  25   1  47  -1
M  END
>  <UniqueID>  (47) 
43

>  <SMILES>  (47) 
O=C([N-]S(=O)(=O)c1ccccc1F)N[C@@H](Cc1ccccc1)C(=O)[N@@H+](CCc1c[nH]c2ccccc12)C(Cc1ccccc1)C(=O)[O-]

>  <Energy>  (47) 
142.1470933112787

>  <Genealogy>  (47) 
O=C([N-]S(=O)(=O)c1ccccc1F)NC(Cc1ccccc1)C(=O)[NH+](CCc1c[nH]c2ccccc12)C(Cc1ccccc1)C(=O)[O-] (protonated)
O=C([N-]S(=O)(=O)c1ccccc1F)N[C@@H](Cc1ccccc1)C(=O)[N@@H+](CCc1c[nH]c2ccccc12)C(Cc1ccccc1)C(=O)[O-] (chirality)
O=C([N-]S(=O)(=O)c1ccccc1F)N[C@@H](Cc1ccccc1)C(=O)[N@@H+](CCc1c[nH]c2ccccc12)C(Cc1ccccc1)C(=O)[O-] (3D coordinates assigned)
O=C([N-]S(=O)(=O)c1ccccc1F)N[C@@H](Cc1ccccc1)C(=O)[N@@H+](CCc1c[nH]c2ccccc12)C(Cc1ccccc1)C(=O)[O-] (optimized conformer: 142.1470933112787 kcal/mol)

>  <smiles>  (47) 
O=C(NC(Cc1ccccc1)C(=O)N(CCc1c[nH]c2ccccc12)C(Cc1ccccc1)C(=O)O)NS(=O)(=O)c1ccccc1F

>  <score_type>  (47) 
oracle

>  <origin>  (47) 
adg

>  <m_score__min__energy>  (47) 
-13.550000000000001

>  <m_primary>  (47) 
energy

$$$$
47:0
     RDKit          3D

 82 86  0  0  0  0  0  0  0  0999 V2000
   59.2738   20.7073   43.5892 H   0  0  0  0  0  0  0  0  0  0  0  0
   58.5030   21.4800   43.7260 C   0  0  0  0  0  0  0  0  0  0  0  0
   57.3230   21.4250   42.9840 C   0  0  0  0  0  0  0  0  0  0  0  0
   57.1698   20.6162   42.2544 H   0  0  0  0  0  0  0  0  0  0  0  0
   56.3350   22.3970   43.1670 C   0  0  0  0  0  0  0  0  0  0  0  0
   55.4125   22.3588   42.5691 H   0  0  0  0  0  0  0  0  0  0  0  0
   56.5150   23.4260   44.1140 C   0  0  0  0  0  0  0  0  0  0  0  0
   55.4940   24.4090   44.3560 N   0  0  0  0  0  0  0  0  0  0  0  0
   54.9120   24.7370   45.6300 C   0  0  0  0  0  0  0  0  0  0  0  0
   54.6120   25.9390   45.8650 O   0  0  0  0  0  0  0  0  0  0  0  0
   54.7310   23.7210   46.6940 C   0  0  0  0  0  0  0  0  0  0  0  0
   55.7360   23.5270   47.6590 C   0  0  0  0  0  0  0  0  0  0  0  0
   56.6492   24.1394   47.6288 H   0  0  0  0  0  0  0  0  0  0  0  0
   55.5800   22.5600   48.6560 C   0  0  0  0  0  0  0  0  0  0  0  0
   56.3651   22.4215   49.4139 H   0  0  0  0  0  0  0  0  0  0  0  0
   54.4290   21.7690   48.6920 C   0  0  0  0  0  0  0  0  0  0  0  0
   54.2780   20.8070   49.6840 O   0  0  0  0  0  0  0  0  0  0  0  0
   53.4300   21.9420   47.7280 C   0  0  0  0  0  0  0  0  0  0  0  0
   52.5256   21.3164   47.7555 H   0  0  0  0  0  0  0  0  0  0  0  0
   53.5800   22.9090   46.7300 C   0  0  0  0  0  0  0  0  0  0  0  0
   52.7959   23.0367   45.9692 H   0  0  0  0  0  0  0  0  0  0  0  0
   57.7340   23.5070   44.8190 C   0  0  0  0  0  0  0  0  0  0  0  0
   57.9700   24.5450   45.7810 N   0  0  0  0  0  0  0  0  0  0  0  0
   58.8220   25.5260   45.6610 C   0  0  0  0  0  0  0  0  0  0  0  0
   58.3330   26.8130   45.1380 C   0  0  0  0  0  0  0  0  0  0  0  0
   58.2240   27.9250   45.9860 C   0  0  0  0  0  0  0  0  0  0  0  0
   58.5440   27.7690   47.3360 O   0  0  0  0  0  0  0  0  0  0  0  0
   57.8070   29.1480   45.5010 N   0  0  0  0  0  0  0  0  0  0  0  0
   57.7730   30.3020   46.4280 C   0  0  0  0  0  0  0  0  0  0  0  0
   57.1243   31.0818   46.0024 H   0  0  0  0  0  0  0  0  0  0  0  0
   57.3864   29.9518   47.3964 H   0  0  0  0  0  0  0  0  0  0  0  0
   59.1490   30.8800   46.6530 C   0  0  0  0  0  0  0  0  0  0  0  0
   60.1870   30.0560   47.1170 C   0  0  0  0  0  0  0  0  0  0  0  0
   59.9921   28.9920   47.3167 H   0  0  0  0  0  0  0  0  0  0  0  0
   61.4670   30.5790   47.3270 C   0  0  0  0  0  0  0  0  0  0  0  0
   62.2691   29.9290   47.7066 H   0  0  0  0  0  0  0  0  0  0  0  0
   61.7320   31.9310   47.0550 C   0  0  0  0  0  0  0  0  0  0  0  0
   63.0370   32.5010   47.2300 N   0  0  0  0  0  0  0  0  0  0  0  0
   63.3850   33.6750   47.9790 C   0  0  0  0  0  0  0  0  0  0  0  0
   64.0760   34.5630   47.4090 O   0  0  0  0  0  0  0  0  0  0  0  0
   62.9770   33.8630   49.4210 C   0  0  0  0  0  0  0  0  0  0  0  0
   63.8412   34.2361   49.9901 H   0  0  0  0  0  0  0  0  0  0  0  0
   62.1449   34.5818   49.4506 H   0  0  0  0  0  0  0  0  0  0  0  0
   62.5020   32.5650   50.0440 C   0  0  0  0  0  0  0  0  0  0  0  0
   63.4660   31.5840   50.3450 C   0  0  0  0  0  0  0  0  0  0  0  0
   64.5203   31.7599   50.0854 H   0  0  0  0  0  0  0  0  0  0  0  0
   63.0990   30.3910   50.9690 C   0  0  0  0  0  0  0  0  0  0  0  0
   63.8612   29.6304   51.1938 H   0  0  0  0  0  0  0  0  0  0  0  0
   61.7670   30.1640   51.3070 C   0  0  0  0  0  0  0  0  0  0  0  0
   61.4802   29.2240   51.8010 H   0  0  0  0  0  0  0  0  0  0  0  0
   60.7950   31.1230   51.0220 C   0  0  0  0  0  0  0  0  0  0  0  0
   59.7462   30.9326   51.2935 H   0  0  0  0  0  0  0  0  0  0  0  0
   61.1420   32.3290   50.3920 C   0  0  0  0  0  0  0  0  0  0  0  0
   59.8500   33.4910   50.0400 S   0  0  0  0  0  0  0  0  0  0  0  0
   58.6830   32.7760   49.4160 O   0  0  0  0  0  0  0  0  0  0  0  0
   60.3510   34.5570   49.1090 O   0  0  0  0  0  0  0  0  0  0  0  0
   59.3270   34.2310   51.4570 O   0  0  0  0  0  0  0  0  0  0  0  0
   60.6790   32.7700   46.6710 C   0  0  0  0  0  0  0  0  0  0  0  0
   60.8629   33.8442   46.5218 H   0  0  0  0  0  0  0  0  0  0  0  0
   59.3960   32.2520   46.4760 C   0  0  0  0  0  0  0  0  0  0  0  0
   58.5746   32.9221   46.1822 H   0  0  0  0  0  0  0  0  0  0  0  0
   57.4440   29.2790   44.1680 C   0  0  0  0  0  0  0  0  0  0  0  0
   56.9400   30.5890   43.5600 C   0  0  0  0  0  0  0  0  0  0  0  0
   56.2306   31.0506   44.2626 H   0  0  0  0  0  0  0  0  0  0  0  0
   56.4669   30.3426   42.5980 H   0  0  0  0  0  0  0  0  0  0  0  0
   58.0680   31.5960   43.2710 C   0  0  0  0  0  0  0  0  0  0  0  0
   59.0294   31.0616   43.2836 H   0  0  0  0  0  0  0  0  0  0  0  0
   58.0269   32.3746   44.0469 H   0  0  0  0  0  0  0  0  0  0  0  0
   57.9080   32.2830   41.9170 C   0  0  0  0  0  0  0  0  0  0  0  0
   57.6609   33.3438   42.0710 H   0  0  0  0  0  0  0  0  0  0  0  0
   58.8486   32.2038   41.3522 H   0  0  0  0  0  0  0  0  0  0  0  0
   57.0992   31.7964   41.3522 H   0  0  0  0  0  0  0  0  0  0  0  0
   57.5930   28.1840   43.3000 C   0  0  0  0  0  0  0  0  0  0  0  0
   57.3660   28.3015   42.2301 H   0  0  0  0  0  0  0  0  0  0  0  0
   58.0250   26.9530   43.7820 C   0  0  0  0  0  0  0  0  0  0  0  0
   58.1370   25.9770   42.9880 O   0  0  0  0  0  0  0  0  0  0  0  0
   60.2760   25.4060   46.0430 C   0  0  0  0  0  0  0  0  0  0  0  0
   60.3677   25.3984   47.1391 H   0  0  0  0  0  0  0  0  0  0  0  0
   60.6865   24.4709   45.6342 H   0  0  0  0  0  0  0  0  0  0  0  0
   60.8343   26.2611   45.6342 H   0  0  0  0  0  0  0  0  0  0  0  0
   58.7080   22.5150   44.6430 C   0  0  0  0  0  0  0  0  0  0  0  0
   59.6381   22.5509   45.2291 H   0  0  0  0  0  0  0  0  0  0  0  0
  1  2  1  0
  2  3  2  0
  3  4  1  0
  3  5  1  0
  5  6  1  0
  5  7  2  0
  7  8  1  0
  8  9  1  0
  9 10  2  0
  9 11  1  0
 11 12  2  0
 12 13  1  0
 12 14  1  0
 14 15  1  0
 14 16  2  0
 16 17  1  0
 16 18  1  0
 18 19  1  0
 18 20  2  0
 20 21  1  0
  7 22  1  0
 22 23  1  0
 23 24  2  0
 24 25  1  0
 25 26  2  0
 26 27  1  0
 26 28  1  0
 28 29  1  0
 29 30  1  0
 29 31  1  0
 29 32  1  0
 32 33  2  0
 33 34  1  0
 33 35  1  0
 35 36  1  0
 35 37  2  0
 37 38  1  0
 38 39  1  0
 39 40  2  0
 39 41  1  0
 41 42  1  0
 41 43  1  0
 41 44  1  0
 44 45  2  0
 45 46  1  0
 45 47  1  0
 47 48  1  0
 47 49  2  0
 49 50  1  0
 49 51  1  0
 51 52  1  0
 51 53  2  0
 53 54  1  0
 54 55  2  0
 54 56  2  0
 54 57  1  0
 37 58  1  0
 58 59  1  0
 58 60  2  0
 60 61  1  0
 28 62  1  0
 62 63  1  0
 63 64  1  0
 63 65  1  0
 63 66  1  0
 66 67  1  0
 66 68  1  0
 66 69  1  0
 69 70  1  0
 69 71  1  0
 69 72  1  0
 62 73  2  0
 73 74  1  0
 73 75  1  0
 75 76  2  0
 24 77  1  0
 77 78  1  0
 77 79  1  0
 77 80  1  0
 22 81  2  0
 81 82  1  0
 81  2  1  0
 20 11  1  0
 75 25  1  0
 60 32  1  0
 53 44  1  0
M  CHG  5   8  -1  17  -1  27  -1  38  -1  57  -1
M  END
>  <UniqueID>  (48) 
44

>  <SMILES>  (48) 
CCCc1cc(=O)c(/C(C)=N/c2ccccc2[N-]C(=O)c2ccc([O-])cc2)c([O-])n1Cc1ccc([N-]C(=O)Cc2ccccc2S(=O)(=O)[O-])cc1

>  <Energy>  (48) 
120.99337919921044

>  <Genealogy>  (48) 
CCCc1cc(=O)c(C(C)=Nc2ccccc2[N-]C(=O)c2ccc([O-])cc2)c([O-])n1Cc1ccc([N-]C(=O)Cc2ccccc2S(=O)(=O)[O-])cc1 (protonated)
CCCc1cc(=O)c(/C(C)=N/c2ccccc2[N-]C(=O)c2ccc([O-])cc2)c([O-])n1Cc1ccc([N-]C(=O)Cc2ccccc2S(=O)(=O)[O-])cc1 (cis-trans isomerization)
CCCc1cc(=O)c(/C(C)=N/c2ccccc2[N-]C(=O)c2ccc([O-])cc2)c([O-])n1Cc1ccc([N-]C(=O)Cc2ccccc2S(=O)(=O)[O-])cc1 (3D coordinates assigned)
CCCc1cc(=O)c(/C(C)=N/c2ccccc2[N-]C(=O)c2ccc([O-])cc2)c([O-])n1Cc1ccc([N-]C(=O)Cc2ccccc2S(=O)(=O)[O-])cc1 (optimized conformer: 120.99337919921044 kcal/mol)

>  <smiles>  (48) 
CCCc1cc(=O)c(C(C)=Nc2ccccc2NC(=O)c2ccc(O)cc2)c(O)n1Cc1ccc(NC(=O)Cc2ccccc2S(=O)(=O)O)cc1

>  <score_type>  (48) 
oracle

>  <origin>  (48) 
adg

>  <m_score__min__energy>  (48) 
-22.920000000000002

>  <m_primary>  (48) 
energy

$$$$
48:0
     RDKit          3D

 54 55  0  0  0  0  0  0  0  0999 V2000
   56.1868   33.7492   45.5048 H   0  0  0  0  0  0  0  0  0  0  0  0
   57.1810   33.5360   45.0850 C   0  0  0  0  0  0  0  0  0  0  0  0
   58.0660   34.5360   44.9590 C   0  0  0  0  0  0  0  0  0  0  0  0
   57.7085   35.5763   44.9558 H   0  0  0  0  0  0  0  0  0  0  0  0
   59.5380   34.2610   44.8220 C   0  0  0  0  0  0  0  0  0  0  0  0
   59.6905   33.1917   44.6139 H   0  0  0  0  0  0  0  0  0  0  0  0
   59.9415   34.8645   43.9956 H   0  0  0  0  0  0  0  0  0  0  0  0
   60.2370   34.6190   46.0650 N   0  0  0  0  0  0  0  0  0  0  0  0
   60.7630   33.7750   46.3930 H   0  0  0  0  0  0  0  0  0  0  0  0
   59.3010   35.0190   47.1290 C   0  0  0  0  0  0  0  0  0  0  0  0
   59.7852   35.7637   47.7779 H   0  0  0  0  0  0  0  0  0  0  0  0
   58.3992   35.4505   46.6702 H   0  0  0  0  0  0  0  0  0  0  0  0
   58.9020   33.8030   47.9660 C   0  0  0  0  0  0  0  0  0  0  0  0
   57.8553   33.9148   48.2854 H   0  0  0  0  0  0  0  0  0  0  0  0
   59.0247   32.9001   47.3498 H   0  0  0  0  0  0  0  0  0  0  0  0
   59.9650   33.6430   49.4480 S   0  0  0  0  0  0  0  0  0  0  0  0
   61.4560   33.1820   48.5610 C   0  0  0  0  0  0  0  0  0  0  0  0
   62.5430   34.0670   48.4880 C   0  0  0  0  0  0  0  0  0  0  0  0
   62.4848   35.0471   48.9841 H   0  0  0  0  0  0  0  0  0  0  0  0
   63.6980   33.7100   47.7890 C   0  0  0  0  0  0  0  0  0  0  0  0
   64.5545   34.3993   47.7538 H   0  0  0  0  0  0  0  0  0  0  0  0
   63.7660   32.4770   47.1340 C   0  0  0  0  0  0  0  0  0  0  0  0
   64.6755   32.1959   46.5828 H   0  0  0  0  0  0  0  0  0  0  0  0
   62.6790   31.6030   47.1800 C   0  0  0  0  0  0  0  0  0  0  0  0
   62.7268   30.6391   46.6522 H   0  0  0  0  0  0  0  0  0  0  0  0
   61.5240   31.9520   47.8990 C   0  0  0  0  0  0  0  0  0  0  0  0
   60.6722   31.2573   47.9414 H   0  0  0  0  0  0  0  0  0  0  0  0
   57.5140   32.1320   44.6670 C   0  0  0  0  0  0  0  0  0  0  0  0
   58.3312   31.7428   45.2920 H   0  0  0  0  0  0  0  0  0  0  0  0
   57.8341   32.1180   43.6147 H   0  0  0  0  0  0  0  0  0  0  0  0
   56.3250   31.3030   44.8390 N   0  0  0  0  0  0  0  0  0  0  0  0
   56.2200   29.9120   44.5180 C   0  0  0  0  0  0  0  0  0  0  0  0
   55.1650   29.3030   44.8400 O   0  0  0  0  0  0  0  0  0  0  0  0
   57.3550   29.1710   43.8520 C   0  0  0  0  0  0  0  0  0  0  0  0
   57.7336   29.7832   43.0202 H   0  0  0  0  0  0  0  0  0  0  0  0
   56.9593   28.2058   43.5030 H   0  0  0  0  0  0  0  0  0  0  0  0
   58.5180   28.8730   44.8100 C   0  0  0  0  0  0  0  0  0  0  0  0
   58.5744   29.6674   45.5688 H   0  0  0  0  0  0  0  0  0  0  0  0
   59.4532   28.8329   44.2322 H   0  0  0  0  0  0  0  0  0  0  0  0
   58.3120   27.5490   45.4940 C   0  0  0  0  0  0  0  0  0  0  0  0
   59.4010   26.8480   46.0290 C   0  0  0  0  0  0  0  0  0  0  0  0
   60.4193   27.2492   45.9187 H   0  0  0  0  0  0  0  0  0  0  0  0
   59.1970   25.6410   46.7020 C   0  0  0  0  0  0  0  0  0  0  0  0
   60.0569   25.0919   47.1131 H   0  0  0  0  0  0  0  0  0  0  0  0
   57.9060   25.1270   46.8560 C   0  0  0  0  0  0  0  0  0  0  0  0
   57.7180   23.9260   47.5360 O   0  0  0  0  0  0  0  0  0  0  0  0
   56.8030   25.8170   46.3310 C   0  0  0  0  0  0  0  0  0  0  0  0
   55.5220   25.2700   46.5020 O   0  0  0  0  0  0  0  0  0  0  0  0
   55.0700   24.0720   45.8840 C   0  0  0  0  0  0  0  0  0  0  0  0
   54.7943   23.3413   46.6586 H   0  0  0  0  0  0  0  0  0  0  0  0
   54.1927   24.2910   45.2576 H   0  0  0  0  0  0  0  0  0  0  0  0
   55.8733   23.6569   45.2576 H   0  0  0  0  0  0  0  0  0  0  0  0
   57.0140   27.0340   45.6510 C   0  0  0  0  0  0  0  0  0  0  0  0
   56.1553   27.5850   45.2399 H   0  0  0  0  0  0  0  0  0  0  0  0
  1  2  1  0
  2  3  2  0
  3  4  1  0
  3  5  1  0
  5  6  1  0
  5  7  1  0
  5  8  1  0
  8  9  1  0
  8 10  1  0
 10 11  1  0
 10 12  1  0
 10 13  1  0
 13 14  1  0
 13 15  1  0
 13 16  1  0
 16 17  1  0
 17 18  2  0
 18 19  1  0
 18 20  1  0
 20 21  1  0
 20 22  2  0
 22 23  1  0
 22 24  1  0
 24 25  1  0
 24 26  2  0
 26 27  1  0
  2 28  1  0
 28 29  1  0
 28 30  1  0
 28 31  1  0
 31 32  1  0
 32 33  2  0
 32 34  1  0
 34 35  1  0
 34 36  1  0
 34 37  1  0
 37 38  1  0
 37 39  1  0
 37 40  1  0
 40 41  2  0
 41 42  1  0
 41 43  1  0
 43 44  1  0
 43 45  2  0
 45 46  1  0
 45 47  1  0
 47 48  1  0
 48 49  1  0
 49 50  1  0
 49 51  1  0
 49 52  1  0
 47 53  2  0
 53 54  1  0
 26 17  1  0
 53 40  1  0
M  CHG  2  31  -1  46  -1
M  END
>  <UniqueID>  (49) 
45

>  <SMILES>  (49) 
COc1cc(CCC(=O)[N-]C/C=C/CNCCSc2ccccc2)ccc1[O-]

>  <Energy>  (49) 
35.81074120191279

>  <Genealogy>  (49) 
COc1cc(CCC(=O)[N-]CC=CCNCCSc2ccccc2)ccc1[O-] (protonated)
COc1cc(CCC(=O)[N-]C/C=C/CNCCSc2ccccc2)ccc1[O-] (cis-trans isomerization)
COc1cc(CCC(=O)[N-]C/C=C/CNCCSc2ccccc2)ccc1[O-] (3D coordinates assigned)
COc1cc(CCC(=O)[N-]C/C=C/CNCCSc2ccccc2)ccc1[O-] (optimized conformer: 35.81074120191279 kcal/mol)

>  <smiles>  (49) 
COc1cc(CCC(=O)NCC=CCNCCSc2ccccc2)ccc1O

>  <score_type>  (49) 
oracle

>  <origin>  (49) 
adg

>  <m_score__min__energy>  (49) 
-13.74

>  <m_primary>  (49) 
energy

$$$$
49:0
     RDKit          3D

 18 18  0  0  0  0  0  0  0  0999 V2000
   55.4760   23.4640   46.1920 O   0  0  0  0  0  0  0  0  0  0  0  0
   55.7230   24.6970   46.1730 C   0  0  0  0  0  0  0  0  0  0  0  0
   54.8080   25.6380   45.8820 N   0  0  0  0  0  0  0  0  0  0  0  0
   55.4470   26.7960   45.9650 N   0  0  0  0  0  0  0  0  0  0  0  0
   56.7190   26.5060   46.3040 C   0  0  0  0  0  0  0  0  0  0  0  0
   57.7940   27.5290   46.4840 C   0  0  0  0  0  0  0  0  0  0  0  0
   57.3570   28.7880   46.0090 O   0  0  0  0  0  0  0  0  0  0  0  0
   57.4970   28.8850   44.6030 C   0  0  0  0  0  0  0  0  0  0  0  0
   56.2080   29.4010   43.9680 C   0  0  0  0  0  0  0  0  0  0  0  0
   55.1680   29.3620   44.9050 O   0  0  0  0  0  0  0  0  0  0  0  0
   56.8990   25.2110   46.4320 O   0  0  0  0  0  0  0  0  0  0  0  0
   58.0425   27.6104   47.5525 H   0  0  0  0  0  0  0  0  0  0  0  0
   58.6822   27.2195   45.9136 H   0  0  0  0  0  0  0  0  0  0  0  0
   58.3181   29.5785   44.3686 H   0  0  0  0  0  0  0  0  0  0  0  0
   57.7155   27.8855   44.1990 H   0  0  0  0  0  0  0  0  0  0  0  0
   56.3567   30.4374   43.6306 H   0  0  0  0  0  0  0  0  0  0  0  0
   55.9467   28.7651   43.1093 H   0  0  0  0  0  0  0  0  0  0  0  0
   55.1420   28.4300   45.2480 H   0  0  0  0  0  0  0  0  0  0  0  0
  1  2  2  0
  2  3  1  0
  3  4  1  0
  4  5  2  0
  5  6  1  0
  6  7  1  0
  7  8  1  0
  8  9  1  0
  9 10  1  0
  5 11  1  0
 11  2  1  0
  6 12  1  0
  6 13  1  0
  8 14  1  0
  8 15  1  0
  9 16  1  0
  9 17  1  0
 10 18  1  0
M  CHG  1   3  -1
M  END
>  <UniqueID>  (50) 
46

>  <SMILES>  (50) 
O=c1[n-]nc(COCCO)o1

>  <Energy>  (50) 
51.142883783267145

>  <Genealogy>  (50) 
O=c1[n-]nc(COCCO)o1 (protonated)
O=c1[n-]nc(COCCO)o1 (3D coordinates assigned)
O=c1[n-]nc(COCCO)o1 (optimized conformer: 51.142883783267145 kcal/mol)

>  <smiles>  (50) 
O=c1[nH]nc(COCCO)o1

>  <score_type>  (50) 
oracle

>  <origin>  (50) 
adg

>  <m_score__min__energy>  (50) 
-6.8399999999999999

>  <m_primary>  (50) 
energy

$$$$
50:0
     RDKit          3D

 29 30  0  0  0  0  0  0  0  0999 V2000
   59.9980   27.6870   46.6600 C   0  0  0  0  0  0  0  0  0  0  0  0
   58.5410   27.6330   46.2980 C   0  0  0  0  0  0  0  0  0  0  0  0
   57.8830   26.4550   46.4680 N   0  0  0  0  0  0  0  0  0  0  0  0
   56.5760   26.3190   46.1360 C   0  0  0  0  0  0  0  0  0  0  0  0
   55.8250   24.8860   46.3530 S   0  0  0  0  0  0  0  0  0  0  0  0
   55.8940   27.3690   45.6180 N   0  0  0  0  0  0  0  0  0  0  0  0
   56.4920   28.5720   45.4310 C   0  0  0  0  0  0  0  0  0  0  0  0
   55.8180   29.5270   44.9580 O   0  0  0  0  0  0  0  0  0  0  0  0
   57.8450   28.7510   45.7820 C   0  0  0  0  0  0  0  0  0  0  0  0
   58.4990   30.0670   45.5940 C   0  0  0  0  0  0  0  0  0  0  0  0
   59.6970   30.1160   45.2030 O   0  0  0  0  0  0  0  0  0  0  0  0
   57.7580   31.2820   45.7890 N   0  0  0  0  0  0  0  0  0  0  0  0
   58.3750   32.5720   45.9260 C   0  0  0  0  0  0  0  0  0  0  0  0
   59.0400   32.8910   47.1190 C   0  0  0  0  0  0  0  0  0  0  0  0
   59.6690   34.1380   47.2830 C   0  0  0  0  0  0  0  0  0  0  0  0
   60.3360   34.4600   48.5180 N   0  0  0  0  0  0  0  0  0  0  0  0
   59.6820   34.6520   49.5640 O   0  0  0  0  0  0  0  0  0  0  0  0
   61.7070   34.5600   48.5670 O   0  0  0  0  0  0  0  0  0  0  0  0
   59.6370   35.0620   46.2240 C   0  0  0  0  0  0  0  0  0  0  0  0
   59.0000   34.7400   45.0240 C   0  0  0  0  0  0  0  0  0  0  0  0
   58.3760   33.4990   44.8670 C   0  0  0  0  0  0  0  0  0  0  0  0
   57.8180   33.1900   43.6690 F   0  0  0  0  0  0  0  0  0  0  0  0
   60.1039   27.6909   47.7549 H   0  0  0  0  0  0  0  0  0  0  0  0
   60.5118   26.8073   46.2451 H   0  0  0  0  0  0  0  0  0  0  0  0
   60.4452   28.6023   46.2451 H   0  0  0  0  0  0  0  0  0  0  0  0
   56.7190   31.2390   45.6810 H   0  0  0  0  0  0  0  0  0  0  0  0
   59.0699   32.1562   47.9370 H   0  0  0  0  0  0  0  0  0  0  0  0
   60.1168   36.0448   46.3415 H   0  0  0  0  0  0  0  0  0  0  0  0
   58.9891   35.4664   44.1981 H   0  0  0  0  0  0  0  0  0  0  0  0
  1  2  1  0
  2  3  1  0
  3  4  1  0
  4  5  2  0
  4  6  1  0
  6  7  1  0
  7  8  2  0
  7  9  1  0
  9 10  1  0
 10 11  2  0
 10 12  1  0
 12 13  1  0
 13 14  2  0
 14 15  1  0
 15 16  1  0
 16 17  2  0
 16 18  1  0
 15 19  2  0
 19 20  1  0
 20 21  2  0
 21 22  1  0
  9  2  2  0
 21 13  1  0
  1 23  1  0
  1 24  1  0
  1 25  1  0
 12 26  1  0
 14 27  1  0
 19 28  1  0
 20 29  1  0
M  CHG  4   3  -1   6  -1  16   1  18  -1
M  END
>  <UniqueID>  (51) 
47

>  <SMILES>  (51) 
Cc1[n-]c(=S)[n-]c(=O)c1C(=O)Nc1cc([N+](=O)[O-])ccc1F

>  <Energy>  (51) 
42.08845130429034

>  <Genealogy>  (51) 
Cc1[n-]c(=S)[n-]c(=O)c1C(=O)Nc1cc([N+](=O)[O-])ccc1F (protonated)
Cc1[n-]c(=S)[n-]c(=O)c1C(=O)Nc1cc([N+](=O)[O-])ccc1F (3D coordinates assigned)
Cc1[n-]c(=S)[n-]c(=O)c1C(=O)Nc1cc([N+](=O)[O-])ccc1F (optimized conformer: 42.08845130429034 kcal/mol)

>  <smiles>  (51) 
Cc1[nH]c(=S)[nH]c(=O)c1C(=O)Nc1cc([N+](=O)[O-])ccc1F

>  <score_type>  (51) 
oracle

>  <origin>  (51) 
adg

>  <m_score__min__energy>  (51) 
-10.050000000000001

>  <m_primary>  (51) 
energy

$$$$
51:0
     RDKit          3D

 59 62  0  0  0  0  0  0  0  0999 V2000
   56.2780   23.3330   43.3330 C   0  0  0  0  0  0  0  0  0  0  0  0
   56.2970   23.4460   44.7510 O   0  0  0  0  0  0  0  0  0  0  0  0
   55.9980   24.6380   45.4190 C   0  0  0  0  0  0  0  0  0  0  0  0
   54.8790   24.7800   45.9860 O   0  0  0  0  0  0  0  0  0  0  0  0
   56.9960   25.7300   45.4590 C   0  0  0  0  0  0  0  0  0  0  0  0
   57.2020   26.4600   46.6420 C   0  0  0  0  0  0  0  0  0  0  0  0
   58.1440   27.4920   46.6830 C   0  0  0  0  0  0  0  0  0  0  0  0
   58.8910   27.8180   45.5420 C   0  0  0  0  0  0  0  0  0  0  0  0
   59.9280   28.9060   45.5920 C   0  0  0  0  0  0  0  0  0  0  0  0
   59.3680   30.1240   46.2600 C   0  0  0  0  0  0  0  0  0  0  0  0
   58.9030   31.2750   45.6260 C   0  0  0  0  0  0  0  0  0  0  0  0
   58.5360   32.2010   46.5440 N   0  0  0  0  0  0  0  0  0  0  0  0
   57.9430   33.5090   46.2600 C   0  0  0  0  0  0  0  0  0  0  0  0
   58.9630   34.4060   45.5530 C   0  0  0  0  0  0  0  0  0  0  0  0
   59.6850   35.3170   46.5540 C   0  0  0  0  0  0  0  0  0  0  0  0
   60.2450   34.5460   47.7270 C   0  0  0  0  0  0  0  0  0  0  0  0
   59.6840   34.6480   48.8520 O   0  0  0  0  0  0  0  0  0  0  0  0
   61.4430   33.7480   47.6010 N   0  0  0  0  0  0  0  0  0  0  0  0
   61.6140   32.5720   48.4630 C   0  0  0  0  0  0  0  0  0  0  0  0
   63.1010   32.2580   48.6470 C   0  0  0  0  0  0  0  0  0  0  0  0
   63.7580   32.1820   47.3970 O   0  0  0  0  0  0  0  0  0  0  0  0
   63.7470   33.4550   46.7810 C   0  0  0  0  0  0  0  0  0  0  0  0
   62.3170   33.8780   46.4290 C   0  0  0  0  0  0  0  0  0  0  0  0
   58.7600   31.6390   47.7490 C   0  0  0  0  0  0  0  0  0  0  0  0
   58.5250   32.1960   48.9680 N   0  0  0  0  0  0  0  0  0  0  0  0
   58.8200   31.4780   50.0940 C   0  0  0  0  0  0  0  0  0  0  0  0
   59.3590   30.1760   49.9950 C   0  0  0  0  0  0  0  0  0  0  0  0
   59.5940   29.6100   48.7310 C   0  0  0  0  0  0  0  0  0  0  0  0
   59.2770   30.3780   47.6160 C   0  0  0  0  0  0  0  0  0  0  0  0
   58.6960   27.0840   44.3620 C   0  0  0  0  0  0  0  0  0  0  0  0
   57.7550   26.0510   44.3200 C   0  0  0  0  0  0  0  0  0  0  0  0
   56.1017   22.2845   43.0511 H   0  0  0  0  0  0  0  0  0  0  0  0
   55.4731   23.9625   42.9258 H   0  0  0  0  0  0  0  0  0  0  0  0
   57.2445   23.6646   42.9258 H   0  0  0  0  0  0  0  0  0  0  0  0
   56.6179   26.2176   47.5420 H   0  0  0  0  0  0  0  0  0  0  0  0
   58.3003   28.0522   47.6167 H   0  0  0  0  0  0  0  0  0  0  0  0
   60.8012   28.5500   46.1584 H   0  0  0  0  0  0  0  0  0  0  0  0
   60.2264   29.1649   44.5654 H   0  0  0  0  0  0  0  0  0  0  0  0
   58.8427   31.4118   44.5362 H   0  0  0  0  0  0  0  0  0  0  0  0
   57.0637   33.3771   45.6124 H   0  0  0  0  0  0  0  0  0  0  0  0
   57.6425   33.9817   47.2067 H   0  0  0  0  0  0  0  0  0  0  0  0
   59.7047   33.7738   45.0429 H   0  0  0  0  0  0  0  0  0  0  0  0
   58.4292   35.0377   44.8278 H   0  0  0  0  0  0  0  0  0  0  0  0
   60.5121   35.8258   46.0372 H   0  0  0  0  0  0  0  0  0  0  0  0
   58.9518   36.0386   46.9434 H   0  0  0  0  0  0  0  0  0  0  0  0
   61.1617   32.7735   49.4452 H   0  0  0  0  0  0  0  0  0  0  0  0
   61.1224   31.7086   47.9910 H   0  0  0  0  0  0  0  0  0  0  0  0
   63.5650   33.0521   49.2503 H   0  0  0  0  0  0  0  0  0  0  0  0
   63.1955   31.2863   49.1539 H   0  0  0  0  0  0  0  0  0  0  0  0
   64.1817   34.1931   47.4711 H   0  0  0  0  0  0  0  0  0  0  0  0
   64.3370   33.4028   45.8541 H   0  0  0  0  0  0  0  0  0  0  0  0
   62.3208   34.9257   46.0939 H   0  0  0  0  0  0  0  0  0  0  0  0
   61.9388   33.2267   45.6273 H   0  0  0  0  0  0  0  0  0  0  0  0
   58.1250   33.1560   49.0550 H   0  0  0  0  0  0  0  0  0  0  0  0
   58.6360   31.9181   51.0852 H   0  0  0  0  0  0  0  0  0  0  0  0
   59.5943   29.6064   50.9061 H   0  0  0  0  0  0  0  0  0  0  0  0
   60.0127   28.5981   48.6272 H   0  0  0  0  0  0  0  0  0  0  0  0
   59.2867   27.3227   43.4653 H   0  0  0  0  0  0  0  0  0  0  0  0
   57.6073   25.4849   43.3885 H   0  0  0  0  0  0  0  0  0  0  0  0
  1  2  1  0
  2  3  1  0
  3  4  2  0
  3  5  1  0
  5  6  2  0
  6  7  1  0
  7  8  2  0
  8  9  1  0
  9 10  1  0
 10 11  2  0
 11 12  1  0
 12 13  1  0
 13 14  1  0
 14 15  1  0
 15 16  1  0
 16 17  2  0
 16 18  1  0
 18 19  1  0
 19 20  1  0
 20 21  1  0
 21 22  1  0
 22 23  1  0
 12 24  1  0
 24 25  2  0
 25 26  1  0
 26 27  2  0
 27 28  1  0
 28 29  2  0
  8 30  1  0
 30 31  2  0
 31  5  1  0
 29 10  1  0
 23 18  1  0
 29 24  1  0
  1 32  1  0
  1 33  1  0
  1 34  1  0
  6 35  1  0
  7 36  1  0
  9 37  1  0
  9 38  1  0
 11 39  1  0
 13 40  1  0
 13 41  1  0
 14 42  1  0
 14 43  1  0
 15 44  1  0
 15 45  1  0
 19 46  1  0
 19 47  1  0
 20 48  1  0
 20 49  1  0
 22 50  1  0
 22 51  1  0
 23 52  1  0
 23 53  1  0
 25 54  1  0
 26 55  1  0
 27 56  1  0
 28 57  1  0
 30 58  1  0
 31 59  1  0
M  CHG  1  25   1
M  END
>  <UniqueID>  (52) 
48

>  <SMILES>  (52) 
COC(=O)c1ccc(Cc2cn(CCCC(=O)N3CCOCC3)c3[nH+]cccc23)cc1

>  <Energy>  (52) 
90.5673120364826

>  <Genealogy>  (52) 
COC(=O)c1ccc(Cc2cn(CCCC(=O)N3CCOCC3)c3[nH+]cccc23)cc1 (protonated)
COC(=O)c1ccc(Cc2cn(CCCC(=O)N3CCOCC3)c3[nH+]cccc23)cc1 (3D coordinates assigned)
COC(=O)c1ccc(Cc2cn(CCCC(=O)N3CCOCC3)c3[nH+]cccc23)cc1 (nonaromatic ring conformer: 90.5673120364826 kcal/mol)

>  <smiles>  (52) 
COC(=O)c1ccc(Cc2cn(CCCC(=O)N3CCOCC3)c3ncccc23)cc1

>  <score_type>  (52) 
oracle

>  <origin>  (52) 
adg

>  <m_score__min__energy>  (52) 
-7.3600000000000003

>  <m_primary>  (52) 
energy

$$$$
52:0
     RDKit          3D

 41 44  0  0  0  0  0  0  0  0999 V2000
   55.8134   24.1863   47.3175 H   0  0  0  0  0  0  0  0  0  0  0  0
   56.4500   24.9880   46.9150 C   0  0  0  0  0  0  0  0  0  0  0  0
   55.8830   26.0920   46.3590 N   0  0  0  0  0  0  0  0  0  0  0  0
   56.6280   27.1170   45.8580 C   0  0  0  0  0  0  0  0  0  0  0  0
   55.9470   28.2320   45.2630 N   0  0  0  0  0  0  0  0  0  0  0  0
   56.4940   29.3310   44.8360 C   0  0  0  0  0  0  0  0  0  0  0  0
   56.5560   29.6470   43.5270 N   0  0  0  0  0  0  0  0  0  0  0  0
   57.1670   30.8470   43.5270 C   0  0  0  0  0  0  0  0  0  0  0  0
   57.4065   31.4419   42.6333 H   0  0  0  0  0  0  0  0  0  0  0  0
   57.4450   31.2110   44.8330 C   0  0  0  0  0  0  0  0  0  0  0  0
   58.1060   32.4430   45.3180 C   0  0  0  0  0  0  0  0  0  0  0  0
   58.2110   33.5520   44.4720 C   0  0  0  0  0  0  0  0  0  0  0  0
   57.7971   33.5072   43.4538 H   0  0  0  0  0  0  0  0  0  0  0  0
   58.8390   34.7130   44.9170 C   0  0  0  0  0  0  0  0  0  0  0  0
   58.9231   35.5851   44.2519 H   0  0  0  0  0  0  0  0  0  0  0  0
   59.3610   34.7650   46.2100 C   0  0  0  0  0  0  0  0  0  0  0  0
   59.9320   35.8220   46.5950 O   0  0  0  0  0  0  0  0  0  0  0  0
   59.2500   33.6830   47.0470 N   0  0  0  0  0  0  0  0  0  0  0  0
   59.8260   33.7140   48.4020 C   0  0  0  0  0  0  0  0  0  0  0  0
   59.6189   34.6913   48.8624 H   0  0  0  0  0  0  0  0  0  0  0  0
   59.3727   32.9118   49.0028 H   0  0  0  0  0  0  0  0  0  0  0  0
   61.3160   33.4990   48.3400 C   0  0  0  0  0  0  0  0  0  0  0  0
   62.1440   33.9590   49.3790 C   0  0  0  0  0  0  0  0  0  0  0  0
   61.7007   34.4546   50.2553 H   0  0  0  0  0  0  0  0  0  0  0  0
   63.5300   33.7880   49.3010 C   0  0  0  0  0  0  0  0  0  0  0  0
   64.1741   34.1443   50.1184 H   0  0  0  0  0  0  0  0  0  0  0  0
   64.0980   33.1650   48.1860 C   0  0  0  0  0  0  0  0  0  0  0  0
   65.1881   33.0298   48.1273 H   0  0  0  0  0  0  0  0  0  0  0  0
   63.2810   32.7140   47.1460 C   0  0  0  0  0  0  0  0  0  0  0  0
   63.7287   32.2254   46.2680 H   0  0  0  0  0  0  0  0  0  0  0  0
   61.8950   32.8830   47.2200 C   0  0  0  0  0  0  0  0  0  0  0  0
   61.2557   32.5316   46.3967 H   0  0  0  0  0  0  0  0  0  0  0  0
   58.6420   32.5340   46.6140 C   0  0  0  0  0  0  0  0  0  0  0  0
   58.5724   31.6698   47.2909 H   0  0  0  0  0  0  0  0  0  0  0  0
   57.0120   30.2530   45.6150 O   0  0  0  0  0  0  0  0  0  0  0  0
   58.0330   27.0160   45.8780 C   0  0  0  0  0  0  0  0  0  0  0  0
   58.6527   27.8166   45.4478 H   0  0  0  0  0  0  0  0  0  0  0  0
   58.6320   25.8920   46.4480 C   0  0  0  0  0  0  0  0  0  0  0  0
   59.7285   25.8104   46.4817 H   0  0  0  0  0  0  0  0  0  0  0  0
   57.8400   24.8720   46.9750 C   0  0  0  0  0  0  0  0  0  0  0  0
   58.3052   23.9864   47.4326 H   0  0  0  0  0  0  0  0  0  0  0  0
  1  2  1  0
  2  3  2  0
  3  4  1  0
  4  5  1  0
  5  6  2  0
  6  7  1  0
  7  8  1  0
  8  9  1  0
  8 10  2  0
 10 11  1  0
 11 12  1  0
 12 13  1  0
 12 14  2  0
 14 15  1  0
 14 16  1  0
 16 17  2  0
 16 18  1  0
 18 19  1  0
 19 20  1  0
 19 21  1  0
 19 22  1  0
 22 23  2  0
 23 24  1  0
 23 25  1  0
 25 26  1  0
 25 27  2  0
 27 28  1  0
 27 29  1  0
 29 30  1  0
 29 31  2  0
 31 32  1  0
 18 33  1  0
 33 34  1  0
 10 35  1  0
  4 36  2  0
 36 37  1  0
 36 38  1  0
 38 39  1  0
 38 40  2  0
 40 41  1  0
 40  2  1  0
 35  6  1  0
 33 11  2  0
 31 22  1  0
M  CHG  1   7  -1
M  END
>  <UniqueID>  (53) 
49

>  <SMILES>  (53) 
O=c1ccc(-c2c[n-]/c(=N/c3ccccn3)o2)cn1Cc1ccccc1

>  <Energy>  (53) 
83.74192656553541

>  <Genealogy>  (53) 
O=c1ccc(-c2c[n-]c(=Nc3ccccn3)o2)cn1Cc1ccccc1 (protonated)
O=c1ccc(-c2c[n-]/c(=N/c3ccccn3)o2)cn1Cc1ccccc1 (cis-trans isomerization)
O=c1ccc(-c2c[n-]/c(=N/c3ccccn3)o2)cn1Cc1ccccc1 (3D coordinates assigned)
O=c1ccc(-c2c[n-]/c(=N/c3ccccn3)o2)cn1Cc1ccccc1 (optimized conformer: 83.74192656553541 kcal/mol)

>  <smiles>  (53) 
O=c1ccc(-c2c[nH]c(=Nc3ccccn3)o2)cn1Cc1ccccc1

>  <score_type>  (53) 
oracle

>  <origin>  (53) 
adg

>  <m_score__min__energy>  (53) 
-11

>  <m_primary>  (53) 
energy

$$$$
53:0
     RDKit          3D

 56 59  0  0  0  0  0  0  0  0999 V2000
   59.7700   22.3340   44.8440 C   0  0  0  0  0  0  0  0  0  0  0  0
   58.3330   22.2510   44.6050 N   0  0  0  0  0  0  0  0  0  0  0  0
   57.4030   23.3000   44.9510 C   0  0  0  0  0  0  0  0  0  0  0  0
   57.8320   24.4670   45.6170 C   0  0  0  0  0  0  0  0  0  0  0  0
   56.9200   25.4850   45.9520 C   0  0  0  0  0  0  0  0  0  0  0  0
   57.3960   26.6940   46.7170 C   0  0  0  0  0  0  0  0  0  0  0  0
   58.6940   27.1490   46.2100 N   0  0  0  0  0  0  0  0  0  0  0  0
   58.9210   27.3170   44.7640 C   0  0  0  0  0  0  0  0  0  0  0  0
   58.0710   28.4350   44.2110 C   0  0  0  0  0  0  0  0  0  0  0  0
   57.3980   28.2920   42.9860 C   0  0  0  0  0  0  0  0  0  0  0  0
   56.5750   29.3170   42.5120 C   0  0  0  0  0  0  0  0  0  0  0  0
   56.4030   30.4850   43.2620 C   0  0  0  0  0  0  0  0  0  0  0  0
   57.0670   30.6460   44.4840 C   0  0  0  0  0  0  0  0  0  0  0  0
   56.8150   31.8000   45.2410 O   0  0  0  0  0  0  0  0  0  0  0  0
   57.8070   32.7080   45.6350 C   0  0  0  0  0  0  0  0  0  0  0  0
   58.5620   32.4490   46.7860 C   0  0  0  0  0  0  0  0  0  0  0  0
   59.6000   33.3110   47.1600 C   0  0  0  0  0  0  0  0  0  0  0  0
   59.8710   34.4530   46.3980 C   0  0  0  0  0  0  0  0  0  0  0  0
   59.1040   34.7300   45.2620 C   0  0  0  0  0  0  0  0  0  0  0  0
   58.0740   33.8600   44.8800 C   0  0  0  0  0  0  0  0  0  0  0  0
   57.9180   29.6230   44.9420 C   0  0  0  0  0  0  0  0  0  0  0  0
   59.7600   27.3980   47.1430 C   0  0  0  0  0  0  0  0  0  0  0  0
   60.7640   26.6350   47.1550 O   0  0  0  0  0  0  0  0  0  0  0  0
   59.6940   28.5260   48.0950 C   0  0  0  0  0  0  0  0  0  0  0  0
   60.6990   29.4870   48.2070 C   0  0  0  0  0  0  0  0  0  0  0  0
   60.2510   30.6000   49.3880 S   0  0  0  0  0  0  0  0  0  0  0  0
   58.7840   29.8730   49.7510 C   0  0  0  0  0  0  0  0  0  0  0  0
   57.8770   30.3420   50.6920 O   0  0  0  0  0  0  0  0  0  0  0  0
   58.6140   28.7470   48.9630 C   0  0  0  0  0  0  0  0  0  0  0  0
   55.5660   25.3390   45.5950 C   0  0  0  0  0  0  0  0  0  0  0  0
   54.6410   26.3400   45.8800 O   0  0  0  0  0  0  0  0  0  0  0  0
   55.1340   24.1820   44.9420 C   0  0  0  0  0  0  0  0  0  0  0  0
   56.0390   23.1650   44.6230 C   0  0  0  0  0  0  0  0  0  0  0  0
   55.5760   22.0190   43.9800 O   0  0  0  0  0  0  0  0  0  0  0  0
   59.9615   22.3451   45.9271 H   0  0  0  0  0  0  0  0  0  0  0  0
   60.2677   21.4631   44.3925 H   0  0  0  0  0  0  0  0  0  0  0  0
   60.1641   23.2564   44.3925 H   0  0  0  0  0  0  0  0  0  0  0  0
   57.9740   21.3730   44.1630 H   0  0  0  0  0  0  0  0  0  0  0  0
   58.8942   24.5830   45.8782 H   0  0  0  0  0  0  0  0  0  0  0  0
   56.6605   27.5044   46.6059 H   0  0  0  0  0  0  0  0  0  0  0  0
   57.5058   26.4215   47.7770 H   0  0  0  0  0  0  0  0  0  0  0  0
   59.9816   27.5517   44.5910 H   0  0  0  0  0  0  0  0  0  0  0  0
   58.6460   26.3818   44.2544 H   0  0  0  0  0  0  0  0  0  0  0  0
   57.5193   27.3702   42.3982 H   0  0  0  0  0  0  0  0  0  0  0  0
   56.0608   29.2049   41.5460 H   0  0  0  0  0  0  0  0  0  0  0  0
   55.7422   31.2817   42.8896 H   0  0  0  0  0  0  0  0  0  0  0  0
   58.3382   31.5637   47.3993 H   0  0  0  0  0  0  0  0  0  0  0  0
   60.2028   33.0904   48.0533 H   0  0  0  0  0  0  0  0  0  0  0  0
   60.6856   35.1313   46.6920 H   0  0  0  0  0  0  0  0  0  0  0  0
   59.3095   35.6323   44.6673 H   0  0  0  0  0  0  0  0  0  0  0  0
   57.4730   34.0809   43.9856 H   0  0  0  0  0  0  0  0  0  0  0  0
   58.4698   29.7562   45.8842 H   0  0  0  0  0  0  0  0  0  0  0  0
   61.6296   29.5132   47.6210 H   0  0  0  0  0  0  0  0  0  0  0  0
   56.8930   30.1120   50.6170 H   0  0  0  0  0  0  0  0  0  0  0  0
   57.7284   28.0964   49.0122 H   0  0  0  0  0  0  0  0  0  0  0  0
   54.0724   24.0701   44.6764 H   0  0  0  0  0  0  0  0  0  0  0  0
  1  2  1  0
  2  3  1  0
  3  4  2  0
  4  5  1  0
  5  6  1  0
  6  7  1  0
  7  8  1  0
  8  9  1  0
  9 10  2  0
 10 11  1  0
 11 12  2  0
 12 13  1  0
 13 14  1  0
 14 15  1  0
 15 16  2  0
 16 17  1  0
 17 18  2  0
 18 19  1  0
 19 20  2  0
 13 21  2  0
  7 22  1  0
 22 23  2  0
 22 24  1  0
 24 25  2  0
 25 26  1  0
 26 27  1  0
 27 28  1  0
 27 29  2  0
  5 30  2  0
 30 31  1  0
 30 32  1  0
 32 33  2  0
 33 34  1  0
 33  3  1  0
 21  9  1  0
 29 24  1  0
 20 15  1  0
  1 35  1  0
  1 36  1  0
  1 37  1  0
  2 38  1  0
  4 39  1  0
  6 40  1  0
  6 41  1  0
  8 42  1  0
  8 43  1  0
 10 44  1  0
 11 45  1  0
 12 46  1  0
 16 47  1  0
 17 48  1  0
 18 49  1  0
 19 50  1  0
 20 51  1  0
 21 52  1  0
 25 53  1  0
 28 54  1  0
 29 55  1  0
 32 56  1  0
M  CHG  2  31  -1  34  -1
M  END
>  <UniqueID>  (54) 
50

>  <SMILES>  (54) 
CNc1cc(CN(Cc2cccc(Oc3ccccc3)c2)C(=O)c2csc(O)c2)c([O-])cc1[O-]

>  <Energy>  (54) 
93.94468452979639

>  <Genealogy>  (54) 
CNc1cc(CN(Cc2cccc(Oc3ccccc3)c2)C(=O)c2csc(O)c2)c([O-])cc1[O-] (protonated)
CNc1cc(CN(Cc2cccc(Oc3ccccc3)c2)C(=O)c2csc(O)c2)c([O-])cc1[O-] (3D coordinates assigned)
CNc1cc(CN(Cc2cccc(Oc3ccccc3)c2)C(=O)c2csc(O)c2)c([O-])cc1[O-] (optimized conformer: 93.94468452979639 kcal/mol)

>  <smiles>  (54) 
CNc1cc(CN(Cc2cccc(Oc3ccccc3)c2)C(=O)c2csc(O)c2)c(O)cc1O

>  <score_type>  (54) 
oracle

>  <origin>  (54) 
adg

>  <m_score__min__energy>  (54) 
-14.6

>  <m_primary>  (54) 
energy

$$$$
54:0
     RDKit          3D

 32 33  0  0  0  0  0  0  0  0999 V2000
   54.4290   24.8100   45.6030 C   0  0  0  0  0  0  0  0  0  0  0  0
   54.9330   26.0810   46.0020 O   0  0  0  0  0  0  0  0  0  0  0  0
   56.2780   26.4700   45.9010 C   0  0  0  0  0  0  0  0  0  0  0  0
   57.3360   25.5870   46.1840 C   0  0  0  0  0  0  0  0  0  0  0  0
   58.6600   26.0150   46.0660 C   0  0  0  0  0  0  0  0  0  0  0  0
   58.9430   27.3210   45.6690 C   0  0  0  0  0  0  0  0  0  0  0  0
   57.9010   28.2190   45.3870 C   0  0  0  0  0  0  0  0  0  0  0  0
   58.2240   29.6180   44.9120 C   0  0  0  0  0  0  0  0  0  0  0  0
   57.1480   30.5700   45.2340 N   0  0  0  0  0  0  0  0  0  0  0  0
   57.6720   31.8860   45.5130 C   0  0  0  0  0  0  0  0  0  0  0  0
   57.5780   32.9110   44.5530 C   0  0  0  0  0  0  0  0  0  0  0  0
   58.1210   34.1720   44.8110 C   0  0  0  0  0  0  0  0  0  0  0  0
   58.7650   34.4240   46.0250 C   0  0  0  0  0  0  0  0  0  0  0  0
   58.8680   33.4120   46.9850 C   0  0  0  0  0  0  0  0  0  0  0  0
   59.6830   33.7260   48.5060 Cl  0  0  0  0  0  0  0  0  0  0  0  0
   58.3260   32.1480   46.7310 C   0  0  0  0  0  0  0  0  0  0  0  0
   56.5660   27.7830   45.5000 C   0  0  0  0  0  0  0  0  0  0  0  0
   55.5190   28.6540   45.2120 O   0  0  0  0  0  0  0  0  0  0  0  0
   54.1922   24.2127   46.4959 H   0  0  0  0  0  0  0  0  0  0  0  0
   53.5179   24.9489   45.0025 H   0  0  0  0  0  0  0  0  0  0  0  0
   55.1877   24.2868   45.0025 H   0  0  0  0  0  0  0  0  0  0  0  0
   57.1195   24.5557   46.4994 H   0  0  0  0  0  0  0  0  0  0  0  0
   59.4826   25.3190   46.2871 H   0  0  0  0  0  0  0  0  0  0  0  0
   59.9886   27.6499   45.5761 H   0  0  0  0  0  0  0  0  0  0  0  0
   59.1522   29.9530   45.3980 H   0  0  0  0  0  0  0  0  0  0  0  0
   58.3368   29.5888   43.8182 H   0  0  0  0  0  0  0  0  0  0  0  0
   56.6350   30.2220   46.0770 H   0  0  0  0  0  0  0  0  0  0  0  0
   56.4570   30.6090   44.4470 H   0  0  0  0  0  0  0  0  0  0  0  0
   57.0742   32.7181   43.5944 H   0  0  0  0  0  0  0  0  0  0  0  0
   58.0413   34.9685   44.0565 H   0  0  0  0  0  0  0  0  0  0  0  0
   59.1910   35.4181   46.2258 H   0  0  0  0  0  0  0  0  0  0  0  0
   58.4115   31.3542   47.4877 H   0  0  0  0  0  0  0  0  0  0  0  0
  1  2  1  0
  2  3  1  0
  3  4  2  0
  4  5  1  0
  5  6  2  0
  6  7  1  0
  7  8  1  0
  8  9  1  0
  9 10  1  0
 10 11  2  0
 11 12  1  0
 12 13  2  0
 13 14  1  0
 14 15  1  0
 14 16  2  0
  7 17  2  0
 17 18  1  0
 17  3  1  0
 16 10  1  0
  1 19  1  0
  1 20  1  0
  1 21  1  0
  4 22  1  0
  5 23  1  0
  6 24  1  0
  8 25  1  0
  8 26  1  0
  9 27  1  0
  9 28  1  0
 11 29  1  0
 12 30  1  0
 13 31  1  0
 16 32  1  0
M  CHG  2   9   1  18  -1
M  END
>  <UniqueID>  (55) 
51

>  <SMILES>  (55) 
COc1cccc(C[NH2+]c2cccc(Cl)c2)c1[O-]

>  <Energy>  (55) 
32.60422567624849

>  <Genealogy>  (55) 
COc1cccc(C[NH2+]c2cccc(Cl)c2)c1[O-] (protonated)
COc1cccc(C[NH2+]c2cccc(Cl)c2)c1[O-] (3D coordinates assigned)
COc1cccc(C[NH2+]c2cccc(Cl)c2)c1[O-] (optimized conformer: 32.60422567624849 kcal/mol)

>  <smiles>  (55) 
COc1cccc(CNc2cccc(Cl)c2)c1O

>  <score_type>  (55) 
oracle

>  <origin>  (55) 
adg

>  <m_score__min__energy>  (55) 
-9.25

>  <m_primary>  (55) 
energy

$$$$
55:0
     RDKit          3D

 39 40  0  0  0  0  0  0  0  0999 V2000
   58.8460   24.8760   45.9840 O   0  0  0  0  0  0  0  0  0  0  0  0
   58.3680   25.9430   45.5120 C   0  0  0  0  0  0  0  0  0  0  0  0
   59.2800   27.1010   45.2320 C   0  0  0  0  0  0  0  0  0  0  0  0
   58.9790   28.2720   46.1640 C   0  0  0  0  0  0  0  0  0  0  0  0
   57.5340   28.4700   46.2630 N   0  0  0  0  0  0  0  0  0  0  0  0
   56.9280   29.1510   44.7850 S   0  0  0  0  0  0  0  0  0  0  0  0
   57.4460   28.3480   43.6240 O   0  0  0  0  0  0  0  0  0  0  0  0
   55.4250   29.0980   44.7650 O   0  0  0  0  0  0  0  0  0  0  0  0
   57.4780   30.8170   44.6270 C   0  0  0  0  0  0  0  0  0  0  0  0
   57.7750   31.5650   45.7770 C   0  0  0  0  0  0  0  0  0  0  0  0
   58.2200   32.8850   45.6580 C   0  0  0  0  0  0  0  0  0  0  0  0
   58.3560   33.4680   44.3960 C   0  0  0  0  0  0  0  0  0  0  0  0
   58.0470   32.7310   43.2480 C   0  0  0  0  0  0  0  0  0  0  0  0
   57.6120   31.4070   43.3620 C   0  0  0  0  0  0  0  0  0  0  0  0
   56.9580   26.0690   45.2850 N   0  0  0  0  0  0  0  0  0  0  0  0
   56.0190   24.9860   45.5660 C   0  0  0  0  0  0  0  0  0  0  0  0
   56.3830   23.7630   44.7710 C   0  0  0  0  0  0  0  0  0  0  0  0
   56.1140   23.7010   43.3930 C   0  0  0  0  0  0  0  0  0  0  0  0
   56.4510   22.5590   42.6600 C   0  0  0  0  0  0  0  0  0  0  0  0
   57.0520   21.4710   43.2980 C   0  0  0  0  0  0  0  0  0  0  0  0
   57.3360   21.5310   44.6640 C   0  0  0  0  0  0  0  0  0  0  0  0
   57.0080   22.6740   45.4000 C   0  0  0  0  0  0  0  0  0  0  0  0
   60.3223   26.7821   45.3801 H   0  0  0  0  0  0  0  0  0  0  0  0
   59.1213   27.4292   44.1942 H   0  0  0  0  0  0  0  0  0  0  0  0
   59.3871   28.0576   47.1627 H   0  0  0  0  0  0  0  0  0  0  0  0
   59.4429   29.1843   45.7610 H   0  0  0  0  0  0  0  0  0  0  0  0
   57.6575   31.1123   46.7726 H   0  0  0  0  0  0  0  0  0  0  0  0
   58.4635   33.4656   46.5600 H   0  0  0  0  0  0  0  0  0  0  0  0
   58.7061   34.5068   44.3049 H   0  0  0  0  0  0  0  0  0  0  0  0
   58.1463   33.1933   42.2548 H   0  0  0  0  0  0  0  0  0  0  0  0
   57.3745   30.8273   42.4578 H   0  0  0  0  0  0  0  0  0  0  0  0
   56.5830   26.9620   44.8910 H   0  0  0  0  0  0  0  0  0  0  0  0
   56.0527   24.7452   46.6388 H   0  0  0  0  0  0  0  0  0  0  0  0
   55.0055   25.3081   45.2848 H   0  0  0  0  0  0  0  0  0  0  0  0
   55.6364   24.5543   42.8891 H   0  0  0  0  0  0  0  0  0  0  0  0
   56.2429   22.5172   41.5807 H   0  0  0  0  0  0  0  0  0  0  0  0
   57.3017   20.5665   42.7239 H   0  0  0  0  0  0  0  0  0  0  0  0
   57.8188   20.6773   45.1622 H   0  0  0  0  0  0  0  0  0  0  0  0
   57.2401   22.7202   46.4742 H   0  0  0  0  0  0  0  0  0  0  0  0
  1  2  2  0
  2  3  1  0
  3  4  1  0
  4  5  1  0
  5  6  1  0
  6  7  2  0
  6  8  2  0
  6  9  1  0
  9 10  2  0
 10 11  1  0
 11 12  2  0
 12 13  1  0
 13 14  2  0
  2 15  1  0
 15 16  1  0
 16 17  1  0
 17 18  2  0
 18 19  1  0
 19 20  2  0
 20 21  1  0
 21 22  2  0
 14  9  1  0
 22 17  1  0
  3 23  1  0
  3 24  1  0
  4 25  1  0
  4 26  1  0
 10 27  1  0
 11 28  1  0
 12 29  1  0
 13 30  1  0
 14 31  1  0
 15 32  1  0
 16 33  1  0
 16 34  1  0
 18 35  1  0
 19 36  1  0
 20 37  1  0
 21 38  1  0
 22 39  1  0
M  CHG  1   5  -1
M  END
>  <UniqueID>  (56) 
52

>  <SMILES>  (56) 
O=C(CC[N-]S(=O)(=O)c1ccccc1)NCc1ccccc1

>  <Energy>  (56) 
28.1825887754921

>  <Genealogy>  (56) 
O=C(CC[N-]S(=O)(=O)c1ccccc1)NCc1ccccc1 (protonated)
O=C(CC[N-]S(=O)(=O)c1ccccc1)NCc1ccccc1 (3D coordinates assigned)
O=C(CC[N-]S(=O)(=O)c1ccccc1)NCc1ccccc1 (optimized conformer: 28.1825887754921 kcal/mol)

>  <smiles>  (56) 
O=C(CCNS(=O)(=O)c1ccccc1)NCc1ccccc1

>  <score_type>  (56) 
oracle

>  <origin>  (56) 
adg

>  <m_score__min__energy>  (56) 
-10.380000000000001

>  <m_primary>  (56) 
energy

$$$$
56:0
     RDKit          3D

 26 27  0  0  0  0  0  0  0  0999 V2000
   55.9650   27.4430   45.6560 O   0  0  0  0  0  0  0  0  0  0  0  0
   56.5900   28.4640   45.2660 C   0  0  0  0  0  0  0  0  0  0  0  0
   55.8340   29.5920   44.8060 N   0  0  0  0  0  0  0  0  0  0  0  0
   56.1930   30.4650   43.6950 C   0  0  0  0  0  0  0  0  0  0  0  0
   57.1430   31.5250   44.1830 C   0  0  0  0  0  0  0  0  0  0  0  0
   57.3930   31.6530   45.5620 C   0  0  0  0  0  0  0  0  0  0  0  0
   58.2530   32.6460   46.0370 C   0  0  0  0  0  0  0  0  0  0  0  0
   58.8650   33.5280   45.1450 C   0  0  0  0  0  0  0  0  0  0  0  0
   58.6150   33.4220   43.7760 C   0  0  0  0  0  0  0  0  0  0  0  0
   57.7540   32.4310   43.2870 C   0  0  0  0  0  0  0  0  0  0  0  0
   57.4580   32.3590   41.5530 Cl  0  0  0  0  0  0  0  0  0  0  0  0
   58.0670   28.4320   45.2580 C   0  0  0  0  0  0  0  0  0  0  0  0
   58.8500   28.0110   46.3170 C   0  0  0  0  0  0  0  0  0  0  0  0
   60.1610   28.1890   45.9270 C   0  0  0  0  0  0  0  0  0  0  0  0
   60.1230   28.7250   44.6560 C   0  0  0  0  0  0  0  0  0  0  0  0
   58.8490   28.8770   44.2550 N   0  0  0  0  0  0  0  0  0  0  0  0
   56.6773   29.8733   42.9042 H   0  0  0  0  0  0  0  0  0  0  0  0
   55.2866   30.9398   43.2914 H   0  0  0  0  0  0  0  0  0  0  0  0
   56.9077   30.9661   46.2710 H   0  0  0  0  0  0  0  0  0  0  0  0
   58.4483   32.7330   47.1160 H   0  0  0  0  0  0  0  0  0  0  0  0
   59.5446   34.3069   45.5211 H   0  0  0  0  0  0  0  0  0  0  0  0
   59.0970   34.1210   43.0766 H   0  0  0  0  0  0  0  0  0  0  0  0
   58.4972   27.6129   47.2799 H   0  0  0  0  0  0  0  0  0  0  0  0
   61.0603   27.9505   46.5139 H   0  0  0  0  0  0  0  0  0  0  0  0
   61.0072   28.9896   44.0576 H   0  0  0  0  0  0  0  0  0  0  0  0
   58.5470   29.3160   43.3590 H   0  0  0  0  0  0  0  0  0  0  0  0
  1  2  2  0
  2  3  1  0
  3  4  1  0
  4  5  1  0
  5  6  2  0
  6  7  1  0
  7  8  2  0
  8  9  1  0
  9 10  2  0
 10 11  1  0
  2 12  1  0
 12 13  2  0
 13 14  1  0
 14 15  2  0
 15 16  1  0
 10  5  1  0
 16 12  1  0
  4 17  1  0
  4 18  1  0
  6 19  1  0
  7 20  1  0
  8 21  1  0
  9 22  1  0
 13 23  1  0
 14 24  1  0
 15 25  1  0
 16 26  1  0
M  CHG  1   3  -1
M  END
>  <UniqueID>  (57) 
53

>  <SMILES>  (57) 
O=C([N-]Cc1ccccc1Cl)c1ccc[nH]1

>  <Energy>  (57) 
54.346061383236375

>  <Genealogy>  (57) 
O=C([N-]Cc1ccccc1Cl)c1ccc[nH]1 (protonated)
O=C([N-]Cc1ccccc1Cl)c1ccc[nH]1 (3D coordinates assigned)
O=C([N-]Cc1ccccc1Cl)c1ccc[nH]1 (optimized conformer: 54.346061383236375 kcal/mol)

>  <smiles>  (57) 
O=C(NCc1ccccc1Cl)c1ccc[nH]1

>  <score_type>  (57) 
oracle

>  <origin>  (57) 
adg

>  <m_score__min__energy>  (57) 
-8.1600000000000001

>  <m_primary>  (57) 
energy

$$$$
57:0
     RDKit          3D

 44 46  0  0  0  0  0  0  0  0999 V2000
   55.0050   25.6560   45.9020 O   0  0  0  0  0  0  0  0  0  0  0  0
   56.1830   25.3320   45.6000 C   0  0  0  0  0  0  0  0  0  0  0  0
   57.2720   26.0560   46.1870 N   0  0  0  0  0  0  0  0  0  0  0  0
   57.9430   27.1870   45.6140 C   0  0  0  0  0  0  0  0  0  0  0  0
   59.3350   27.2790   45.7260 C   0  0  0  0  0  0  0  0  0  0  0  0
   60.0150   28.3780   45.1950 C   0  0  0  0  0  0  0  0  0  0  0  0
   59.3060   29.4020   44.5630 C   0  0  0  0  0  0  0  0  0  0  0  0
   57.9100   29.3380   44.4720 C   0  0  0  0  0  0  0  0  0  0  0  0
   57.0200   30.6470   43.7000 S   0  0  0  0  0  0  0  0  0  0  0  0
   56.7110   30.2450   42.2850 O   0  0  0  0  0  0  0  0  0  0  0  0
   55.7280   30.9160   44.4210 O   0  0  0  0  0  0  0  0  0  0  0  0
   57.9780   32.0970   43.6850 N   0  0  0  0  0  0  0  0  0  0  0  0
   58.0550   32.9450   44.6770 C   0  0  0  0  0  0  0  0  0  0  0  0
   58.8690   34.2080   44.5170 C   0  0  0  0  0  0  0  0  0  0  0  0
   60.1270   34.2010   45.4010 C   0  0  0  0  0  0  0  0  0  0  0  0
   60.0890   33.2190   46.5940 C   0  0  0  0  0  0  0  0  0  0  0  0
   58.9950   33.5390   47.6290 C   0  0  0  0  0  0  0  0  0  0  0  0
   57.5470   33.5940   47.0820 C   0  0  0  0  0  0  0  0  0  0  0  0
   57.3370   32.7380   45.9110 N   0  0  0  0  0  0  0  0  0  0  0  0
   57.2290   28.2350   45.0060 C   0  0  0  0  0  0  0  0  0  0  0  0
   56.4120   24.1770   44.7110 C   0  0  0  0  0  0  0  0  0  0  0  0
   57.2900   23.1380   44.9480 C   0  0  0  0  0  0  0  0  0  0  0  0
   57.1790   22.3010   43.8590 C   0  0  0  0  0  0  0  0  0  0  0  0
   56.2470   22.8820   43.0230 C   0  0  0  0  0  0  0  0  0  0  0  0
   55.8110   24.0000   43.5570 O   0  0  0  0  0  0  0  0  0  0  0  0
   59.8967   26.4818   46.2348 H   0  0  0  0  0  0  0  0  0  0  0  0
   61.1105   28.4368   45.2748 H   0  0  0  0  0  0  0  0  0  0  0  0
   59.8452   30.2604   44.1359 H   0  0  0  0  0  0  0  0  0  0  0  0
   58.5370   32.2620   42.8190 H   0  0  0  0  0  0  0  0  0  0  0  0
   59.1754   34.3016   43.4647 H   0  0  0  0  0  0  0  0  0  0  0  0
   58.2418   35.0568   44.8270 H   0  0  0  0  0  0  0  0  0  0  0  0
   60.9860   33.9339   44.7679 H   0  0  0  0  0  0  0  0  0  0  0  0
   60.1983   35.2082   45.8375 H   0  0  0  0  0  0  0  0  0  0  0  0
   59.9112   32.2061   46.2036 H   0  0  0  0  0  0  0  0  0  0  0  0
   61.0553   33.3075   47.1121 H   0  0  0  0  0  0  0  0  0  0  0  0
   59.0319   32.7651   48.4098 H   0  0  0  0  0  0  0  0  0  0  0  0
   59.2158   34.5528   47.9943 H   0  0  0  0  0  0  0  0  0  0  0  0
   56.8604   33.2709   47.8784 H   0  0  0  0  0  0  0  0  0  0  0  0
   57.3570   34.6305   46.7663 H   0  0  0  0  0  0  0  0  0  0  0  0
   56.6540   31.9580   46.0160 H   0  0  0  0  0  0  0  0  0  0  0  0
   56.1314   28.1891   44.9492 H   0  0  0  0  0  0  0  0  0  0  0  0
   57.9423   23.0059   45.8238 H   0  0  0  0  0  0  0  0  0  0  0  0
   57.7231   21.3601   43.6901 H   0  0  0  0  0  0  0  0  0  0  0  0
   55.9193   22.4713   42.0566 H   0  0  0  0  0  0  0  0  0  0  0  0
  1  2  2  0
  2  3  1  0
  3  4  1  0
  4  5  2  0
  5  6  1  0
  6  7  2  0
  7  8  1  0
  8  9  1  0
  9 10  2  0
  9 11  2  0
  9 12  1  0
 12 13  2  3
 13 14  1  0
 14 15  1  0
 15 16  1  0
 16 17  1  0
 17 18  1  0
 18 19  1  0
  8 20  2  0
  2 21  1  0
 21 22  2  0
 22 23  1  0
 23 24  2  0
 24 25  1  0
 20  4  1  0
 25 21  1  0
 19 13  1  0
  5 26  1  0
  6 27  1  0
  7 28  1  0
 12 29  1  0
 14 30  1  0
 14 31  1  0
 15 32  1  0
 15 33  1  0
 16 34  1  0
 16 35  1  0
 17 36  1  0
 17 37  1  0
 18 38  1  0
 18 39  1  0
 19 40  1  0
 20 41  1  0
 22 42  1  0
 23 43  1  0
 24 44  1  0
M  CHG  2   3  -1  12   1
M  END
>  <UniqueID>  (58) 
54

>  <SMILES>  (58) 
O=C([N-]c1cccc(S(=O)(=O)[NH+]=C2CCCCCN2)c1)c1ccco1

>  <Energy>  (58) 
81.25304718773016

>  <Genealogy>  (58) 
O=C([N-]c1cccc(S(=O)(=O)[NH+]=C2CCCCCN2)c1)c1ccco1 (protonated)
O=C([N-]c1cccc(S(=O)(=O)[NH+]=C2CCCCCN2)c1)c1ccco1 (3D coordinates assigned)
O=C([N-]c1cccc(S(=O)(=O)[NH+]=C2CCCCCN2)c1)c1ccco1 (nonaromatic ring conformer: 81.25304718773016 kcal/mol)

>  <smiles>  (58) 
O=C(Nc1cccc(S(=O)(=O)N=C2CCCCCN2)c1)c1ccco1

>  <score_type>  (58) 
oracle

>  <origin>  (58) 
adg

>  <m_score__min__energy>  (58) 
-7.1200000000000001

>  <m_primary>  (58) 
energy

$$$$
58:0
     RDKit          3D

 44 46  0  0  0  0  0  0  0  0999 V2000
   57.9226   26.9001   43.6643 H   0  0  0  0  0  0  0  0  0  0  0  0
   57.5450   27.4320   44.5500 C   0  0  0  0  0  0  0  0  0  0  0  0
   57.0480   26.7560   45.5430 N   0  0  0  0  0  0  0  0  0  0  0  0
   56.5120   25.4210   45.4890 C   0  0  0  0  0  0  0  0  0  0  0  0
   57.3180   24.2880   45.2440 C   0  0  0  0  0  0  0  0  0  0  0  0
   58.3980   24.4105   45.0752 H   0  0  0  0  0  0  0  0  0  0  0  0
   56.7500   23.0120   45.2150 C   0  0  0  0  0  0  0  0  0  0  0  0
   57.3827   22.1342   45.0168 H   0  0  0  0  0  0  0  0  0  0  0  0
   55.3810   22.8480   45.4370 C   0  0  0  0  0  0  0  0  0  0  0  0
   54.9355   21.8427   45.4087 H   0  0  0  0  0  0  0  0  0  0  0  0
   54.5780   23.9610   45.6950 C   0  0  0  0  0  0  0  0  0  0  0  0
   53.5006   23.8304   45.8743 H   0  0  0  0  0  0  0  0  0  0  0  0
   55.1400   25.2410   45.7260 C   0  0  0  0  0  0  0  0  0  0  0  0
   54.3260   26.3390   45.9880 O   0  0  0  0  0  0  0  0  0  0  0  0
   57.6080   28.9110   44.5990 C   0  0  0  0  0  0  0  0  0  0  0  0
   58.8370   29.5840   44.4800 C   0  0  0  0  0  0  0  0  0  0  0  0
   59.7641   29.0068   44.3480 H   0  0  0  0  0  0  0  0  0  0  0  0
   58.8910   30.9800   44.5280 C   0  0  0  0  0  0  0  0  0  0  0  0
   59.8603   31.4921   44.4374 H   0  0  0  0  0  0  0  0  0  0  0  0
   57.7170   31.7340   44.6910 C   0  0  0  0  0  0  0  0  0  0  0  0
   57.7690   33.2110   44.7540 C   0  0  0  0  0  0  0  0  0  0  0  0
   56.7050   33.8770   44.8880 O   0  0  0  0  0  0  0  0  0  0  0  0
   59.0020   33.8660   44.6570 O   0  0  0  0  0  0  0  0  0  0  0  0
   59.2660   35.1380   45.2460 C   0  0  0  0  0  0  0  0  0  0  0  0
   60.1194   35.6029   44.7307 H   0  0  0  0  0  0  0  0  0  0  0  0
   58.3674   35.7644   45.1451 H   0  0  0  0  0  0  0  0  0  0  0  0
   59.5970   34.9950   46.7350 C   0  0  0  0  0  0  0  0  0  0  0  0
   60.5192   35.5536   46.9531 H   0  0  0  0  0  0  0  0  0  0  0  0
   58.7551   35.3943   47.3196 H   0  0  0  0  0  0  0  0  0  0  0  0
   59.7970   33.5490   47.1110 C   0  0  0  0  0  0  0  0  0  0  0  0
   58.8150   32.8660   47.8490 C   0  0  0  0  0  0  0  0  0  0  0  0
   57.8806   33.3776   48.1231 H   0  0  0  0  0  0  0  0  0  0  0  0
   59.0220   31.5380   48.2360 C   0  0  0  0  0  0  0  0  0  0  0  0
   58.2491   31.0058   48.8099 H   0  0  0  0  0  0  0  0  0  0  0  0
   60.2100   30.8870   47.8940 C   0  0  0  0  0  0  0  0  0  0  0  0
   60.3706   29.8418   48.1968 H   0  0  0  0  0  0  0  0  0  0  0  0
   61.1940   31.5620   47.1680 C   0  0  0  0  0  0  0  0  0  0  0  0
   62.1287   31.0476   46.9003 H   0  0  0  0  0  0  0  0  0  0  0  0
   60.9930   32.8900   46.7810 C   0  0  0  0  0  0  0  0  0  0  0  0
   61.7737   33.4207   46.2163 H   0  0  0  0  0  0  0  0  0  0  0  0
   56.4890   31.0640   44.8100 C   0  0  0  0  0  0  0  0  0  0  0  0
   55.5630   31.6434   44.9399 H   0  0  0  0  0  0  0  0  0  0  0  0
   56.4310   29.6660   44.7650 C   0  0  0  0  0  0  0  0  0  0  0  0
   55.1960   29.0390   44.8860 O   0  0  0  0  0  0  0  0  0  0  0  0
  1  2  1  0
  2  3  2  0
  3  4  1  0
  4  5  2  0
  5  6  1  0
  5  7  1  0
  7  8  1  0
  7  9  2  0
  9 10  1  0
  9 11  1  0
 11 12  1  0
 11 13  2  0
 13 14  1  0
  2 15  1  0
 15 16  2  0
 16 17  1  0
 16 18  1  0
 18 19  1  0
 18 20  2  0
 20 21  1  0
 21 22  2  0
 21 23  1  0
 23 24  1  0
 24 25  1  0
 24 26  1  0
 24 27  1  0
 27 28  1  0
 27 29  1  0
 27 30  1  0
 30 31  2  0
 31 32  1  0
 31 33  1  0
 33 34  1  0
 33 35  2  0
 35 36  1  0
 35 37  1  0
 37 38  1  0
 37 39  2  0
 39 40  1  0
 20 41  1  0
 41 42  1  0
 41 43  2  0
 43 44  1  0
 13  4  1  0
 43 15  1  0
 39 30  1  0
M  CHG  2  14  -1  44  -1
M  END
>  <UniqueID>  (59) 
55

>  <SMILES>  (59) 
O=C(OCCc1ccccc1)c1ccc(/C=N/c2ccccc2[O-])c([O-])c1

>  <Energy>  (59) 
46.812893535953854

>  <Genealogy>  (59) 
O=C(OCCc1ccccc1)c1ccc(C=Nc2ccccc2[O-])c([O-])c1 (protonated)
O=C(OCCc1ccccc1)c1ccc(/C=N/c2ccccc2[O-])c([O-])c1 (cis-trans isomerization)
O=C(OCCc1ccccc1)c1ccc(/C=N/c2ccccc2[O-])c([O-])c1 (3D coordinates assigned)
O=C(OCCc1ccccc1)c1ccc(/C=N/c2ccccc2[O-])c([O-])c1 (optimized conformer: 46.812893535953854 kcal/mol)

>  <smiles>  (59) 
O=C(OCCc1ccccc1)c1ccc(C=Nc2ccccc2O)c(O)c1

>  <score_type>  (59) 
oracle

>  <origin>  (59) 
adg

>  <m_score__min__energy>  (59) 
-15.9

>  <m_primary>  (59) 
energy

$$$$
59:0
     RDKit          3D

 51 53  0  0  0  0  0  0  0  0999 V2000
   61.4510   30.3930   47.6210 C   0  0  0  0  0  0  0  0  0  0  0  0
   60.2040   29.9710   47.8290 C   0  0  0  0  0  0  0  0  0  0  0  0
   59.5010   28.9890   46.9660 C   0  0  0  0  0  0  0  0  0  0  0  0
   60.0750   27.7570   46.5940 C   0  0  0  0  0  0  0  0  0  0  0  0
   59.3640   26.8610   45.7910 C   0  0  0  0  0  0  0  0  0  0  0  0
   58.0810   27.1810   45.3460 C   0  0  0  0  0  0  0  0  0  0  0  0
   57.4980   28.4040   45.6940 C   0  0  0  0  0  0  0  0  0  0  0  0
   56.1780   28.7030   45.2160 N   0  0  0  0  0  0  0  0  0  0  0  0
   55.8250   29.7350   44.2830 C   0  0  0  0  0  0  0  0  0  0  0  0
   54.7110   29.6610   43.7000 O   0  0  0  0  0  0  0  0  0  0  0  0
   56.7470   30.8480   43.9510 C   0  0  0  0  0  0  0  0  0  0  0  0
   57.2340   30.9930   42.6410 C   0  0  0  0  0  0  0  0  0  0  0  0
   58.0950   32.0430   42.3190 C   0  0  0  0  0  0  0  0  0  0  0  0
   58.4860   32.9560   43.3010 C   0  0  0  0  0  0  0  0  0  0  0  0
   58.0260   32.8160   44.6160 C   0  0  0  0  0  0  0  0  0  0  0  0
   58.5320   33.9560   45.8610 S   0  0  0  0  0  0  0  0  0  0  0  0
   58.8830   35.2680   45.2130 O   0  0  0  0  0  0  0  0  0  0  0  0
   57.3860   34.2030   46.8040 O   0  0  0  0  0  0  0  0  0  0  0  0
   59.9110   33.3520   46.7590 N   0  0  0  0  0  0  0  0  0  0  0  0
   61.1850   33.8280   46.1480 C   0  0  0  0  0  0  0  0  0  0  0  0
   62.4760   33.2120   46.7360 C   0  0  0  0  0  0  0  0  0  0  0  0
   63.0540   33.9140   47.9910 C   0  0  0  0  0  0  0  0  0  0  0  0
   62.1150   33.9840   49.2080 C   0  0  0  0  0  0  0  0  0  0  0  0
   60.8560   33.1060   49.0900 C   0  0  0  0  0  0  0  0  0  0  0  0
   59.7320   33.6630   48.1960 C   0  0  0  0  0  0  0  0  0  0  0  0
   57.1660   31.7570   44.9390 C   0  0  0  0  0  0  0  0  0  0  0  0
   58.1990   29.2900   46.5300 C   0  0  0  0  0  0  0  0  0  0  0  0
   61.9056   31.1241   48.3057 H   0  0  0  0  0  0  0  0  0  0  0  0
   62.0256   30.0102   46.7647 H   0  0  0  0  0  0  0  0  0  0  0  0
   59.6611   30.3763   48.6956 H   0  0  0  0  0  0  0  0  0  0  0  0
   61.0877   27.4992   46.9374 H   0  0  0  0  0  0  0  0  0  0  0  0
   59.8178   25.8996   45.5087 H   0  0  0  0  0  0  0  0  0  0  0  0
   57.5254   26.4684   44.7187 H   0  0  0  0  0  0  0  0  0  0  0  0
   56.9346   30.2741   41.8641 H   0  0  0  0  0  0  0  0  0  0  0  0
   58.4666   32.1518   41.2894 H   0  0  0  0  0  0  0  0  0  0  0  0
   59.1573   33.7875   43.0405 H   0  0  0  0  0  0  0  0  0  0  0  0
   59.8780   32.3100   46.6560 H   0  0  0  0  0  0  0  0  0  0  0  0
   61.1551   33.5913   45.0742 H   0  0  0  0  0  0  0  0  0  0  0  0
   61.2392   34.9054   46.3631 H   0  0  0  0  0  0  0  0  0  0  0  0
   62.2583   32.1678   47.0049 H   0  0  0  0  0  0  0  0  0  0  0  0
   63.2413   33.3257   45.9541 H   0  0  0  0  0  0  0  0  0  0  0  0
   63.9609   33.3706   48.2947 H   0  0  0  0  0  0  0  0  0  0  0  0
   63.2376   34.9570   47.6934 H   0  0  0  0  0  0  0  0  0  0  0  0
   62.6779   33.6610   50.0961 H   0  0  0  0  0  0  0  0  0  0  0  0
   61.7668   35.0252   49.2769 H   0  0  0  0  0  0  0  0  0  0  0  0
   61.1611   32.1316   48.6809 H   0  0  0  0  0  0  0  0  0  0  0  0
   60.4327   33.0526   50.1039 H   0  0  0  0  0  0  0  0  0  0  0  0
   58.7763   33.2320   48.5291 H   0  0  0  0  0  0  0  0  0  0  0  0
   59.7527   34.7583   48.2950 H   0  0  0  0  0  0  0  0  0  0  0  0
   56.8157   31.6359   45.9747 H   0  0  0  0  0  0  0  0  0  0  0  0
   57.7233   30.2299   46.8468 H   0  0  0  0  0  0  0  0  0  0  0  0
  1  2  2  0
  2  3  1  0
  3  4  2  0
  4  5  1  0
  5  6  2  0
  6  7  1  0
  7  8  1  0
  8  9  1  0
  9 10  2  0
  9 11  1  0
 11 12  2  0
 12 13  1  0
 13 14  2  0
 14 15  1  0
 15 16  1  0
 16 17  2  0
 16 18  2  0
 16 19  1  0
 19 20  1  0
 20 21  1  0
 21 22  1  0
 22 23  1  0
 23 24  1  0
 24 25  1  0
 15 26  2  0
  7 27  2  0
 27  3  1  0
 26 11  1  0
 25 19  1  0
  1 28  1  0
  1 29  1  0
  2 30  1  0
  4 31  1  0
  5 32  1  0
  6 33  1  0
 12 34  1  0
 13 35  1  0
 14 36  1  0
 19 37  1  0
 20 38  1  0
 20 39  1  0
 21 40  1  0
 21 41  1  0
 22 42  1  0
 22 43  1  0
 23 44  1  0
 23 45  1  0
 24 46  1  0
 24 47  1  0
 25 48  1  0
 25 49  1  0
 26 50  1  0
 27 51  1  0
M  CHG  2   8  -1  19   1
M  END
>  <UniqueID>  (60) 
56

>  <SMILES>  (60) 
C=Cc1cccc([N-]C(=O)c2cccc(S(=O)(=O)[NH+]3CCCCCC3)c2)c1

>  <Energy>  (60) 
70.84241471184602

>  <Genealogy>  (60) 
C=Cc1cccc([N-]C(=O)c2cccc(S(=O)(=O)[NH+]3CCCCCC3)c2)c1 (protonated)
C=Cc1cccc([N-]C(=O)c2cccc(S(=O)(=O)[NH+]3CCCCCC3)c2)c1 (3D coordinates assigned)
C=Cc1cccc([N-]C(=O)c2cccc(S(=O)(=O)[NH+]3CCCCCC3)c2)c1 (nonaromatic ring conformer: 70.84241471184602 kcal/mol)

>  <smiles>  (60) 
C=Cc1cccc(NC(=O)c2cccc(S(=O)(=O)N3CCCCCC3)c2)c1

>  <score_type>  (60) 
oracle

>  <origin>  (60) 
adg

>  <m_score__min__energy>  (60) 
-8.1400000000000006

>  <m_primary>  (60) 
energy

$$$$
60:0
     RDKit          3D

 39 41  0  0  0  0  0  0  0  0999 V2000
   55.4920   29.0930   44.8770 N   0  0  0  0  0  0  0  0  0  0  0  0
   56.6870   29.6340   43.7530 S   0  0  0  0  0  0  0  0  0  0  0  0
   56.0140   30.0900   42.4890 O   0  0  0  0  0  0  0  0  0  0  0  0
   57.6170   28.5000   43.4210 O   0  0  0  0  0  0  0  0  0  0  0  0
   57.5990   30.9650   44.4580 C   0  0  0  0  0  0  0  0  0  0  0  0
   58.1440   30.8410   45.7420 C   0  0  0  0  0  0  0  0  0  0  0  0
   58.8600   31.9000   46.3110 C   0  0  0  0  0  0  0  0  0  0  0  0
   59.0260   33.1070   45.6020 C   0  0  0  0  0  0  0  0  0  0  0  0
   59.7600   34.2260   46.1280 N   0  0  0  0  0  0  0  0  0  0  0  0
   60.9730   34.2090   46.5940 C   0  0  0  0  0  0  0  0  0  0  0  0
   61.2470   33.9240   48.0290 C   0  0  0  0  0  0  0  0  0  0  0  0
   60.2180   33.7790   48.9790 C   0  0  0  0  0  0  0  0  0  0  0  0
   58.8780   33.8990   48.6180 O   0  0  0  0  0  0  0  0  0  0  0  0
   60.5280   33.5200   50.2740 N   0  0  0  0  0  0  0  0  0  0  0  0
   61.8100   33.3940   50.6910 C   0  0  0  0  0  0  0  0  0  0  0  0
   62.0360   33.1670   51.9110 O   0  0  0  0  0  0  0  0  0  0  0  0
   62.8400   33.5270   49.8000 N   0  0  0  0  0  0  0  0  0  0  0  0
   64.2050   33.3920   50.2520 C   0  0  0  0  0  0  0  0  0  0  0  0
   64.7070   34.2410   51.2530 C   0  0  0  0  0  0  0  0  0  0  0  0
   66.0290   34.1090   51.6890 C   0  0  0  0  0  0  0  0  0  0  0  0
   66.8570   33.1320   51.1300 C   0  0  0  0  0  0  0  0  0  0  0  0
   66.3640   32.2830   50.1330 C   0  0  0  0  0  0  0  0  0  0  0  0
   65.0430   32.4130   49.6950 C   0  0  0  0  0  0  0  0  0  0  0  0
   62.5760   33.7870   48.4790 C   0  0  0  0  0  0  0  0  0  0  0  0
   63.5280   33.8930   47.6570 O   0  0  0  0  0  0  0  0  0  0  0  0
   58.4840   33.2190   44.3150 C   0  0  0  0  0  0  0  0  0  0  0  0
   57.7690   32.1600   43.7480 C   0  0  0  0  0  0  0  0  0  0  0  0
   55.5320   28.0490   44.8840 H   0  0  0  0  0  0  0  0  0  0  0  0
   58.0086   29.9064   46.3061 H   0  0  0  0  0  0  0  0  0  0  0  0
   59.2950   31.7902   47.3154 H   0  0  0  0  0  0  0  0  0  0  0  0
   61.8143   34.4093   45.9142 H   0  0  0  0  0  0  0  0  0  0  0  0
   58.6100   34.3450   47.7500 H   0  0  0  0  0  0  0  0  0  0  0  0
   64.0581   35.0116   51.6948 H   0  0  0  0  0  0  0  0  0  0  0  0
   66.4178   34.7752   52.4732 H   0  0  0  0  0  0  0  0  0  0  0  0
   67.8969   33.0303   51.4739 H   0  0  0  0  0  0  0  0  0  0  0  0
   67.0159   31.5134   49.6940 H   0  0  0  0  0  0  0  0  0  0  0  0
   64.6582   31.7451   48.9102 H   0  0  0  0  0  0  0  0  0  0  0  0
   58.6224   34.1495   43.7449 H   0  0  0  0  0  0  0  0  0  0  0  0
   57.3387   32.2657   42.7412 H   0  0  0  0  0  0  0  0  0  0  0  0
  1  2  1  0
  2  3  2  0
  2  4  2  0
  2  5  1  0
  5  6  2  0
  6  7  1  0
  7  8  2  0
  8  9  1  0
  9 10  2  3
 10 11  1  0
 11 12  2  0
 12 13  1  0
 12 14  1  0
 14 15  1  0
 15 16  2  0
 15 17  1  0
 17 18  1  0
 18 19  2  0
 19 20  1  0
 20 21  2  0
 21 22  1  0
 22 23  2  0
 17 24  1  0
 24 25  2  0
  8 26  1  0
 26 27  2  0
 27  5  1  0
 24 11  1  0
 23 18  1  0
  1 28  1  0
  6 29  1  0
  7 30  1  0
 10 31  1  0
 13 32  1  0
 19 33  1  0
 20 34  1  0
 21 35  1  0
 22 36  1  0
 23 37  1  0
 26 38  1  0
 27 39  1  0
M  CHG  2   1  -1  14  -1
M  END
>  <UniqueID>  (61) 
57

>  <SMILES>  (61) 
[NH-]S(=O)(=O)c1ccc(N=Cc2c(O)[n-]c(=O)n(-c3ccccc3)c2=O)cc1

>  <Energy>  (61) 
57.72971467163826

>  <Genealogy>  (61) 
[NH-]S(=O)(=O)c1ccc(N=Cc2c(O)[n-]c(=O)n(-c3ccccc3)c2=O)cc1 (protonated)
[NH-]S(=O)(=O)c1ccc(N=Cc2c(O)[n-]c(=O)n(-c3ccccc3)c2=O)cc1 (3D coordinates assigned)
[NH-]S(=O)(=O)c1ccc(N=Cc2c(O)[n-]c(=O)n(-c3ccccc3)c2=O)cc1 (optimized conformer: 57.72971467163826 kcal/mol)

>  <smiles>  (61) 
NS(=O)(=O)c1ccc(N=Cc2c(O)[nH]c(=O)n(-c3ccccc3)c2=O)cc1

>  <score_type>  (61) 
oracle

>  <origin>  (61) 
adg

>  <m_score__min__energy>  (61) 
-11.460000000000001

>  <m_primary>  (61) 
energy

$$$$
61:0
     RDKit          3D

 49 51  0  0  0  0  0  0  0  0999 V2000
   50.7950   24.7500   44.6820 C   0  0  0  0  0  0  0  0  0  0  0  0
   52.2320   24.8870   44.8810 N   0  0  0  0  0  0  0  0  0  0  0  0
   53.0770   23.7440   45.0750 C   0  0  0  0  0  0  0  0  0  0  0  0
   52.5600   22.6040   45.2350 O   0  0  0  0  0  0  0  0  0  0  0  0
   54.5510   23.8860   45.1280 C   0  0  0  0  0  0  0  0  0  0  0  0
   55.3560   22.8240   44.6790 C   0  0  0  0  0  0  0  0  0  0  0  0
   56.7470   22.9180   44.7310 C   0  0  0  0  0  0  0  0  0  0  0  0
   57.3550   24.0760   45.2150 C   0  0  0  0  0  0  0  0  0  0  0  0
   56.5740   25.1660   45.6310 C   0  0  0  0  0  0  0  0  0  0  0  0
   57.2530   26.4010   46.1650 C   0  0  0  0  0  0  0  0  0  0  0  0
   58.1660   26.0360   47.2940 C   0  0  0  0  0  0  0  0  0  0  0  0
   57.9440   24.9930   47.9640 O   0  0  0  0  0  0  0  0  0  0  0  0
   59.2700   26.8890   47.6160 N   0  0  0  0  0  0  0  0  0  0  0  0
   59.3230   28.2980   47.3560 C   0  0  0  0  0  0  0  0  0  0  0  0
   59.5820   28.7340   46.0510 C   0  0  0  0  0  0  0  0  0  0  0  0
   59.6560   30.0980   45.7600 C   0  0  0  0  0  0  0  0  0  0  0  0
   59.4830   31.0480   46.7780 C   0  0  0  0  0  0  0  0  0  0  0  0
   59.5880   32.4910   46.4750 C   0  0  0  0  0  0  0  0  0  0  0  0
   58.4730   33.1350   45.9120 C   0  0  0  0  0  0  0  0  0  0  0  0
   58.5340   34.4840   45.5600 C   0  0  0  0  0  0  0  0  0  0  0  0
   59.7080   35.2060   45.7670 C   0  0  0  0  0  0  0  0  0  0  0  0
   60.8200   34.5860   46.3410 C   0  0  0  0  0  0  0  0  0  0  0  0
   60.7740   33.2330   46.7120 C   0  0  0  0  0  0  0  0  0  0  0  0
   62.1940   32.5210   47.4990 S   0  0  0  0  0  0  0  0  0  0  0  0
   63.6350   33.3400   47.0060 N   0  0  0  0  0  0  0  0  0  0  0  0
   62.3200   31.0740   47.1110 O   0  0  0  0  0  0  0  0  0  0  0  0
   62.0450   32.6150   48.9910 O   0  0  0  0  0  0  0  0  0  0  0  0
   59.2730   30.6130   48.0950 C   0  0  0  0  0  0  0  0  0  0  0  0
   59.1940   29.2480   48.3870 C   0  0  0  0  0  0  0  0  0  0  0  0
   59.0510   28.8590   49.6790 F   0  0  0  0  0  0  0  0  0  0  0  0
   55.1670   25.0690   45.5920 C   0  0  0  0  0  0  0  0  0  0  0  0
   54.3900   26.1560   45.9840 O   0  0  0  0  0  0  0  0  0  0  0  0
   50.2924   24.7021   45.6593 H   0  0  0  0  0  0  0  0  0  0  0  0
   50.4187   25.6163   44.1182 H   0  0  0  0  0  0  0  0  0  0  0  0
   50.5891   23.8282   44.1182 H   0  0  0  0  0  0  0  0  0  0  0  0
   52.6380   25.8480   44.9270 H   0  0  0  0  0  0  0  0  0  0  0  0
   54.8852   21.9118   44.2836 H   0  0  0  0  0  0  0  0  0  0  0  0
   57.3664   22.0757   44.3890 H   0  0  0  0  0  0  0  0  0  0  0  0
   58.4519   24.1357   45.2711 H   0  0  0  0  0  0  0  0  0  0  0  0
   57.8380   26.8715   45.3610 H   0  0  0  0  0  0  0  0  0  0  0  0
   56.4894   27.1032   46.5308 H   0  0  0  0  0  0  0  0  0  0  0  0
   59.7284   27.9962   45.2483 H   0  0  0  0  0  0  0  0  0  0  0  0
   59.8506   30.4287   44.7291 H   0  0  0  0  0  0  0  0  0  0  0  0
   57.5434   32.5704   45.7472 H   0  0  0  0  0  0  0  0  0  0  0  0
   57.6554   34.9776   45.1191 H   0  0  0  0  0  0  0  0  0  0  0  0
   59.7588   36.2661   45.4778 H   0  0  0  0  0  0  0  0  0  0  0  0
   61.7416   35.1640   46.5041 H   0  0  0  0  0  0  0  0  0  0  0  0
   64.4210   32.6600   47.1050 H   0  0  0  0  0  0  0  0  0  0  0  0
   59.1697   31.3512   48.9039 H   0  0  0  0  0  0  0  0  0  0  0  0
  1  2  1  0
  2  3  1  0
  3  4  2  0
  3  5  1  0
  5  6  2  0
  6  7  1  0
  7  8  2  0
  8  9  1  0
  9 10  1  0
 10 11  1  0
 11 12  2  0
 11 13  1  0
 13 14  1  0
 14 15  2  0
 15 16  1  0
 16 17  2  0
 17 18  1  0
 18 19  2  0
 19 20  1  0
 20 21  2  0
 21 22  1  0
 22 23  2  0
 23 24  1  0
 24 25  1  0
 24 26  2  0
 24 27  2  0
 17 28  1  0
 28 29  2  0
 29 30  1  0
  9 31  2  0
 31 32  1  0
 31  5  1  0
 29 14  1  0
 23 18  1  0
  1 33  1  0
  1 34  1  0
  1 35  1  0
  2 36  1  0
  6 37  1  0
  7 38  1  0
  8 39  1  0
 10 40  1  0
 10 41  1  0
 15 42  1  0
 16 43  1  0
 19 44  1  0
 20 45  1  0
 21 46  1  0
 22 47  1  0
 25 48  1  0
 28 49  1  0
M  CHG  3  13  -1  25  -1  32  -1
M  END
>  <UniqueID>  (62) 
58

>  <SMILES>  (62) 
CNC(=O)c1cccc(CC(=O)[N-]c2ccc(-c3ccccc3S([NH-])(=O)=O)cc2F)c1[O-]

>  <Energy>  (62) 
65.13424525231106

>  <Genealogy>  (62) 
CNC(=O)c1cccc(CC(=O)[N-]c2ccc(-c3ccccc3S([NH-])(=O)=O)cc2F)c1[O-] (protonated)
CNC(=O)c1cccc(CC(=O)[N-]c2ccc(-c3ccccc3S([NH-])(=O)=O)cc2F)c1[O-] (3D coordinates assigned)
CNC(=O)c1cccc(CC(=O)[N-]c2ccc(-c3ccccc3S([NH-])(=O)=O)cc2F)c1[O-] (optimized conformer: 65.13424525231106 kcal/mol)

>  <smiles>  (62) 
CNC(=O)c1cccc(CC(=O)Nc2ccc(-c3ccccc3S(N)(=O)=O)cc2F)c1O

>  <score_type>  (62) 
oracle

>  <origin>  (62) 
adg

>  <m_score__min__energy>  (62) 
-14.609999999999999

>  <m_primary>  (62) 
energy

$$$$
62:0
     RDKit          3D

 48 51  0  0  0  0  0  0  0  0999 V2000
   56.9920   29.1070   43.0650 N   0  0  0  0  0  0  0  0  0  0  0  0
   56.5560   29.7960   44.5890 S   0  0  0  0  0  0  0  0  0  0  0  0
   55.1670   29.3540   44.9540 O   0  0  0  0  0  0  0  0  0  0  0  0
   56.5780   31.2960   44.4950 O   0  0  0  0  0  0  0  0  0  0  0  0
   57.7000   29.2690   45.8190 C   0  0  0  0  0  0  0  0  0  0  0  0
   58.6940   30.1400   46.2910 C   0  0  0  0  0  0  0  0  0  0  0  0
   59.5970   29.7130   47.2690 C   0  0  0  0  0  0  0  0  0  0  0  0
   59.5060   28.4150   47.7980 C   0  0  0  0  0  0  0  0  0  0  0  0
   60.5030   27.9420   48.8220 C   0  0  0  0  0  0  0  0  0  0  0  0
   60.6830   28.9940   49.9210 C   0  0  0  0  0  0  0  0  0  0  0  0
   59.5560   28.9600   50.8440 N   0  0  0  0  0  0  0  0  0  0  0  0
   58.7670   30.1090   51.1720 C   0  0  0  0  0  0  0  0  0  0  0  0
   57.5110   30.0240   51.2330 O   0  0  0  0  0  0  0  0  0  0  0  0
   59.4390   31.4110   51.4840 C   0  0  0  0  0  0  0  0  0  0  0  0
   59.9090   32.0600   50.2500 N   0  0  0  0  0  0  0  0  0  0  0  0
   61.2620   32.2370   50.0590 C   0  0  0  0  0  0  0  0  0  0  0  0
   61.7400   32.8120   48.9180 N   0  0  0  0  0  0  0  0  0  0  0  0
   60.8680   33.2080   47.9660 C   0  0  0  0  0  0  0  0  0  0  0  0
   61.2470   33.9290   46.4770 S   0  0  0  0  0  0  0  0  0  0  0  0
   59.6150   34.0200   46.0430 C   0  0  0  0  0  0  0  0  0  0  0  0
   58.8110   33.5110   47.0000 C   0  0  0  0  0  0  0  0  0  0  0  0
   59.5030   33.0390   48.1140 C   0  0  0  0  0  0  0  0  0  0  0  0
   59.0150   32.4480   49.2770 C   0  0  0  0  0  0  0  0  0  0  0  0
   57.7740   32.2720   49.4290 O   0  0  0  0  0  0  0  0  0  0  0  0
   57.3830   33.5610   46.6240 C   0  0  0  0  0  0  0  0  0  0  0  0
   57.4170   34.2190   45.2180 C   0  0  0  0  0  0  0  0  0  0  0  0
   58.8980   34.4980   44.8500 C   0  0  0  0  0  0  0  0  0  0  0  0
   58.5130   27.5440   47.3200 C   0  0  0  0  0  0  0  0  0  0  0  0
   57.6130   27.9710   46.3400 C   0  0  0  0  0  0  0  0  0  0  0  0
   58.0260   29.2140   42.9660 H   0  0  0  0  0  0  0  0  0  0  0  0
   56.7990   28.0820   43.1270 H   0  0  0  0  0  0  0  0  0  0  0  0
   58.7628   31.1620   45.8901 H   0  0  0  0  0  0  0  0  0  0  0  0
   60.3819   30.3962   47.6257 H   0  0  0  0  0  0  0  0  0  0  0  0
   60.1425   27.0056   49.2727 H   0  0  0  0  0  0  0  0  0  0  0  0
   61.4708   27.7760   48.3262 H   0  0  0  0  0  0  0  0  0  0  0  0
   61.6110   28.7860   50.4738 H   0  0  0  0  0  0  0  0  0  0  0  0
   60.7354   29.9901   49.4573 H   0  0  0  0  0  0  0  0  0  0  0  0
   58.7234   32.0746   51.9915 H   0  0  0  0  0  0  0  0  0  0  0  0
   60.3047   31.2164   52.1342 H   0  0  0  0  0  0  0  0  0  0  0  0
   61.9668   31.9100   50.8377 H   0  0  0  0  0  0  0  0  0  0  0  0
   56.9504   32.5507   46.5777 H   0  0  0  0  0  0  0  0  0  0  0  0
   56.7627   34.1119   47.3464 H   0  0  0  0  0  0  0  0  0  0  0  0
   56.9709   33.5388   44.4775 H   0  0  0  0  0  0  0  0  0  0  0  0
   56.8432   35.1575   45.2233 H   0  0  0  0  0  0  0  0  0  0  0  0
   59.1981   33.9358   43.9534 H   0  0  0  0  0  0  0  0  0  0  0  0
   59.1000   35.5520   44.6085 H   0  0  0  0  0  0  0  0  0  0  0  0
   58.4435   26.5212   47.7189 H   0  0  0  0  0  0  0  0  0  0  0  0
   56.8333   27.2857   45.9762 H   0  0  0  0  0  0  0  0  0  0  0  0
  1  2  1  0
  2  3  2  0
  2  4  2  0
  2  5  1  0
  5  6  2  0
  6  7  1  0
  7  8  2  0
  8  9  1  0
  9 10  1  0
 10 11  1  0
 11 12  1  0
 12 13  2  0
 12 14  1  0
 14 15  1  0
 15 16  1  0
 16 17  2  0
 17 18  1  0
 18 19  1  0
 19 20  1  0
 20 21  2  0
 21 22  1  0
 22 23  1  0
 23 24  2  0
 21 25  1  0
 25 26  1  0
 26 27  1  0
  8 28  1  0
 28 29  2  0
 29  5  1  0
 23 15  1  0
 22 18  2  0
 27 20  1  0
  1 30  1  0
  1 31  1  0
  6 32  1  0
  7 33  1  0
  9 34  1  0
  9 35  1  0
 10 36  1  0
 10 37  1  0
 14 38  1  0
 14 39  1  0
 16 40  1  0
 25 41  1  0
 25 42  1  0
 26 43  1  0
 26 44  1  0
 27 45  1  0
 27 46  1  0
 28 47  1  0
 29 48  1  0
M  CHG  1  11  -1
M  END
>  <UniqueID>  (63) 
59

>  <SMILES>  (63) 
NS(=O)(=O)c1ccc(CC[N-]C(=O)Cn2cnc3sc4c(c3c2=O)CCC4)cc1

>  <Energy>  (63) 
96.55693008535928

>  <Genealogy>  (63) 
NS(=O)(=O)c1ccc(CC[N-]C(=O)Cn2cnc3sc4c(c3c2=O)CCC4)cc1 (protonated)
NS(=O)(=O)c1ccc(CC[N-]C(=O)Cn2cnc3sc4c(c3c2=O)CCC4)cc1 (3D coordinates assigned)
NS(=O)(=O)c1ccc(CC[N-]C(=O)Cn2cnc3sc4c(c3c2=O)CCC4)cc1 (nonaromatic ring conformer: 96.55693008535928 kcal/mol)

>  <smiles>  (63) 
NS(=O)(=O)c1ccc(CCNC(=O)Cn2cnc3sc4c(c3c2=O)CCC4)cc1

>  <score_type>  (63) 
oracle

>  <origin>  (63) 
adg

>  <m_score__min__energy>  (63) 
-11.57

>  <m_primary>  (63) 
energy

$$$$
63:0
     RDKit          3D

 52 55  0  0  0  0  0  0  0  0999 V2000
   53.8690   22.9690   44.5610 N   0  0  0  0  0  0  0  0  0  0  0  0
   55.5160   22.6530   44.1370 S   0  0  0  0  0  0  0  0  0  0  0  0
   55.5990   22.2840   42.6810 O   0  0  0  0  0  0  0  0  0  0  0  0
   56.0310   21.5020   44.9570 O   0  0  0  0  0  0  0  0  0  0  0  0
   56.4870   24.0900   44.4400 C   0  0  0  0  0  0  0  0  0  0  0  0
   56.7360   24.5000   45.7540 C   0  0  0  0  0  0  0  0  0  0  0  0
   57.5220   25.6290   46.0040 C   0  0  0  0  0  0  0  0  0  0  0  0
   58.0720   26.3670   44.9380 C   0  0  0  0  0  0  0  0  0  0  0  0
   58.9340   27.5020   45.1540 N   0  0  0  0  0  0  0  0  0  0  0  0
   59.7820   27.7010   46.3010 C   0  0  0  0  0  0  0  0  0  0  0  0
   59.6730   26.9640   47.3160 O   0  0  0  0  0  0  0  0  0  0  0  0
   60.7330   28.8650   46.3390 C   0  0  0  0  0  0  0  0  0  0  0  0
   60.0900   30.0970   46.8290 N   0  0  0  0  0  0  0  0  0  0  0  0
   60.7820   30.9160   47.8410 C   0  0  0  0  0  0  0  0  0  0  0  0
   59.8900   31.2610   49.0050 C   0  0  0  0  0  0  0  0  0  0  0  0
   59.9060   32.5530   49.5560 C   0  0  0  0  0  0  0  0  0  0  0  0
   59.0480   32.8800   50.6110 C   0  0  0  0  0  0  0  0  0  0  0  0
   58.1650   31.9210   51.1200 C   0  0  0  0  0  0  0  0  0  0  0  0
   57.1030   32.3290   52.4570 Cl  0  0  0  0  0  0  0  0  0  0  0  0
   58.1470   30.6310   50.5790 C   0  0  0  0  0  0  0  0  0  0  0  0
   59.0070   30.3000   49.5260 C   0  0  0  0  0  0  0  0  0  0  0  0
   59.1960   30.7820   45.9260 C   0  0  0  0  0  0  0  0  0  0  0  0
   58.3140   30.1260   45.2230 N   0  0  0  0  0  0  0  0  0  0  0  0
   57.3260   31.2120   44.3140 S   0  0  0  0  0  0  0  0  0  0  0  0
   55.8870   31.1470   44.7460 O   0  0  0  0  0  0  0  0  0  0  0  0
   57.4970   31.0150   42.8320 O   0  0  0  0  0  0  0  0  0  0  0  0
   58.1290   32.6260   44.8970 C   0  0  0  0  0  0  0  0  0  0  0  0
   57.8810   33.9600   44.5740 C   0  0  0  0  0  0  0  0  0  0  0  0
   58.6940   34.9460   45.1530 C   0  0  0  0  0  0  0  0  0  0  0  0
   59.7380   34.5810   46.0260 C   0  0  0  0  0  0  0  0  0  0  0  0
   59.9690   33.2280   46.3310 C   0  0  0  0  0  0  0  0  0  0  0  0
   59.1360   32.2550   45.7650 C   0  0  0  0  0  0  0  0  0  0  0  0
   57.8290   25.9380   43.6240 C   0  0  0  0  0  0  0  0  0  0  0  0
   57.0410   24.8110   43.3750 C   0  0  0  0  0  0  0  0  0  0  0  0
   53.3200   22.9720   43.6730 H   0  0  0  0  0  0  0  0  0  0  0  0
   56.3114   23.9315   46.5946 H   0  0  0  0  0  0  0  0  0  0  0  0
   57.7122   25.9431   47.0409 H   0  0  0  0  0  0  0  0  0  0  0  0
   58.8940   28.2740   44.4500 H   0  0  0  0  0  0  0  0  0  0  0  0
   61.5718   28.6148   47.0052 H   0  0  0  0  0  0  0  0  0  0  0  0
   61.0778   29.0514   45.3112 H   0  0  0  0  0  0  0  0  0  0  0  0
   61.6513   30.3555   48.2155 H   0  0  0  0  0  0  0  0  0  0  0  0
   61.0873   31.8573   47.3606 H   0  0  0  0  0  0  0  0  0  0  0  0
   60.5961   33.3106   49.1562 H   0  0  0  0  0  0  0  0  0  0  0  0
   59.0673   33.8922   51.0412 H   0  0  0  0  0  0  0  0  0  0  0  0
   57.4559   29.8760   50.9819 H   0  0  0  0  0  0  0  0  0  0  0  0
   58.9918   29.2840   49.1046 H   0  0  0  0  0  0  0  0  0  0  0  0
   57.0692   34.2319   43.8833 H   0  0  0  0  0  0  0  0  0  0  0  0
   58.5158   36.0072   44.9247 H   0  0  0  0  0  0  0  0  0  0  0  0
   60.3758   35.3588   46.4714 H   0  0  0  0  0  0  0  0  0  0  0  0
   60.7904   32.9386   47.0030 H   0  0  0  0  0  0  0  0  0  0  0  0
   58.2636   26.4950   42.7808 H   0  0  0  0  0  0  0  0  0  0  0  0
   56.8554   24.4894   42.3396 H   0  0  0  0  0  0  0  0  0  0  0  0
  1  2  1  0
  2  3  2  0
  2  4  2  0
  2  5  1  0
  5  6  2  0
  6  7  1  0
  7  8  2  0
  8  9  1  0
  9 10  1  0
 10 11  2  0
 10 12  1  0
 12 13  1  0
 13 14  1  0
 14 15  1  0
 15 16  2  0
 16 17  1  0
 17 18  2  0
 18 19  1  0
 18 20  1  0
 20 21  2  0
 13 22  1  0
 22 23  2  0
 23 24  1  0
 24 25  2  0
 24 26  2  0
 24 27  1  0
 27 28  2  0
 28 29  1  0
 29 30  2  0
 30 31  1  0
 31 32  2  0
  8 33  1  0
 33 34  2  0
 34  5  1  0
 21 15  1  0
 32 22  1  0
 32 27  1  0
  1 35  1  0
  6 36  1  0
  7 37  1  0
  9 38  1  0
 12 39  1  0
 12 40  1  0
 14 41  1  0
 14 42  1  0
 16 43  1  0
 17 44  1  0
 20 45  1  0
 21 46  1  0
 28 47  1  0
 29 48  1  0
 30 49  1  0
 31 50  1  0
 33 51  1  0
 34 52  1  0
M  CHG  1   1  -1
M  END
>  <UniqueID>  (64) 
60

>  <SMILES>  (64) 
[NH-]S(=O)(=O)c1ccc(NC(=O)CN(Cc2ccc(Cl)cc2)C2=NS(=O)(=O)c3ccccc32)cc1

>  <Energy>  (64) 
84.83048511364105

>  <Genealogy>  (64) 
[NH-]S(=O)(=O)c1ccc(NC(=O)CN(Cc2ccc(Cl)cc2)C2=NS(=O)(=O)c3ccccc32)cc1 (protonated)
[NH-]S(=O)(=O)c1ccc(NC(=O)CN(Cc2ccc(Cl)cc2)C2=NS(=O)(=O)c3ccccc32)cc1 (3D coordinates assigned)
[NH-]S(=O)(=O)c1ccc(NC(=O)CN(Cc2ccc(Cl)cc2)C2=NS(=O)(=O)c3ccccc32)cc1 (nonaromatic ring conformer: 84.83048511364105 kcal/mol)

>  <smiles>  (64) 
NS(=O)(=O)c1ccc(NC(=O)CN(Cc2ccc(Cl)cc2)C2=NS(=O)(=O)c3ccccc32)cc1

>  <score_type>  (64) 
oracle

>  <origin>  (64) 
adg

>  <m_score__min__energy>  (64) 
-12.6

>  <m_primary>  (64) 
energy

$$$$
64:0
     RDKit          3D

 57 60  0  0  1  0  0  0  0  0999 V2000
   56.7270   27.3740   45.6010 C   0  0  0  0  0  0  0  0  0  0  0  0
   58.0080   28.1210   45.6040 C   0  0  0  0  0  0  0  0  0  0  0  0
   59.0580   27.5990   46.3360 C   0  0  0  0  0  0  0  0  0  0  0  0
   60.2840   28.2300   46.3930 C   0  0  0  0  0  0  0  0  0  0  0  0
   60.4620   29.4190   45.6960 C   0  0  0  0  0  0  0  0  0  0  0  0
   59.4150   29.9410   44.9660 C   0  0  0  0  0  0  0  0  0  0  0  0
   58.1770   29.3150   44.9010 C   0  0  0  0  0  0  0  0  0  0  0  0
   56.8420   29.9370   43.9960 S   0  0  0  0  0  0  0  0  0  0  0  0
   55.5860   29.8790   44.8470 O   0  0  0  0  0  0  0  0  0  0  0  0
   56.6010   29.0240   42.8300 O   0  0  0  0  0  0  0  0  0  0  0  0
   57.0160   31.5620   43.5040 N   0  0  0  0  0  0  0  0  0  0  0  0
   57.6370   32.5240   44.3460 C   0  0  0  0  0  0  0  0  0  0  0  0
   57.0900   32.6950   45.6210 C   0  0  0  0  0  0  0  0  0  0  0  0
   57.6540   33.6110   46.4710 C   0  0  0  0  0  0  0  0  0  0  0  0
   58.7540   34.3860   46.1200 C   0  0  0  0  0  0  0  0  0  0  0  0
   59.2820   35.3370   47.1010 C   0  0  0  0  0  0  0  0  0  0  0  0
   59.5970   34.7140   48.3940 N   0  0  0  0  0  0  0  0  0  0  0  0
   60.0970   33.5060   48.4350 C   0  0  0  0  0  0  0  0  0  0  0  0
   59.3200   32.5840   49.0400 N   0  0  0  0  0  0  0  0  0  0  0  0
   59.7770   31.3060   49.1200 C   0  0  0  0  0  0  0  0  0  0  0  0
   58.9330   30.3600   49.7640 N   0  0  0  0  0  0  0  0  0  0  0  0
   58.1140   30.7940   50.8730 C   0  0  0  0  0  0  0  0  0  0  0  0
   58.9390   28.9940   49.2720 C   0  0  0  0  0  0  0  0  0  0  0  0
   60.9740   30.9620   48.6100 N   0  0  0  0  0  0  0  0  0  0  0  0
   61.7600   31.8800   48.0000 C   0  0  0  0  0  0  0  0  0  0  0  0
   62.9880   31.5240   47.4770 C   0  0  0  0  0  0  0  0  0  0  0  0
   63.7590   32.4920   46.8640 C   0  0  0  0  0  0  0  0  0  0  0  0
   63.3080   33.8060   46.7730 C   0  0  0  0  0  0  0  0  0  0  0  0
   62.0730   34.1800   47.2950 C   0  0  0  0  0  0  0  0  0  0  0  0
   61.3320   33.2080   47.8950 C   0  0  0  0  0  0  0  0  0  0  0  0
   59.2710   34.1950   44.8580 C   0  0  0  0  0  0  0  0  0  0  0  0
   58.7280   33.2760   43.9670 C   0  0  0  0  0  0  0  0  0  0  0  0
   56.4084   27.1882   46.6373 H   0  0  0  0  0  0  0  0  0  0  0  0
   55.9587   27.9657   45.0817 H   0  0  0  0  0  0  0  0  0  0  0  0
   56.8636   26.4140   45.0817 H   0  0  0  0  0  0  0  0  0  0  0  0
   58.9128   26.6578   46.8864 H   0  0  0  0  0  0  0  0  0  0  0  0
   61.1075   27.7985   46.9810 H   0  0  0  0  0  0  0  0  0  0  0  0
   61.4305   29.9397   45.7264 H   0  0  0  0  0  0  0  0  0  0  0  0
   59.5651   30.8829   44.4179 H   0  0  0  0  0  0  0  0  0  0  0  0
   56.6740   31.9060   42.5740 H   0  0  0  0  0  0  0  0  0  0  0  0
   56.2190   32.1027   45.9380 H   0  0  0  0  0  0  0  0  0  0  0  0
   57.2180   33.7383   47.4729 H   0  0  0  0  0  0  0  0  0  0  0  0
   60.2008   35.7853   46.6950 H   0  0  0  0  0  0  0  0  0  0  0  0
   58.5015   36.0909   47.2809 H   0  0  0  0  0  0  0  0  0  0  0  0
   58.6094   30.5315   51.8194 H   0  0  0  0  0  0  0  0  0  0  0  0
   57.9752   31.8840   50.8218 H   0  0  0  0  0  0  0  0  0  0  0  0
   57.1341   30.2968   50.8218 H   0  0  0  0  0  0  0  0  0  0  0  0
   58.9421   28.2976   50.1235 H   0  0  0  0  0  0  0  0  0  0  0  0
   58.0416   28.8208   48.6599 H   0  0  0  0  0  0  0  0  0  0  0  0
   59.8379   28.8287   48.6599 H   0  0  0  0  0  0  0  0  0  0  0  0
   61.2970   29.9530   48.6900 H   0  0  0  0  0  0  0  0  0  0  0  0
   63.3460   30.4863   47.5477 H   0  0  0  0  0  0  0  0  0  0  0  0
   64.7390   32.2222   46.4435 H   0  0  0  0  0  0  0  0  0  0  0  0
   63.9381   34.5612   46.2804 H   0  0  0  0  0  0  0  0  0  0  0  0
   61.7112   35.2165   47.2257 H   0  0  0  0  0  0  0  0  0  0  0  0
   60.1422   34.7890   44.5445 H   0  0  0  0  0  0  0  0  0  0  0  0
   59.1664   33.1500   42.9660 H   0  0  0  0  0  0  0  0  0  0  0  0
  1  2  1  0
  2  3  2  0
  3  4  1  0
  4  5  2  0
  5  6  1  0
  6  7  2  0
  7  8  1  0
  8  9  2  0
  8 10  2  0
  8 11  1  0
 11 12  1  0
 12 13  2  0
 13 14  1  0
 14 15  2  0
 15 16  1  0
 16 17  1  0
 17 18  2  0
 18 19  1  0
 19 20  2  0
 20 21  1  0
 21 22  1  0
 21 23  1  0
 20 24  1  0
 24 25  1  0
 25 26  2  0
 26 27  1  0
 27 28  2  0
 28 29  1  0
 29 30  2  0
 15 31  1  0
 31 32  2  0
  7  2  1  0
 32 12  1  0
 30 18  1  0
 30 25  1  0
  1 33  1  0
  1 34  1  0
  1 35  1  0
  3 36  1  0
  4 37  1  0
  5 38  1  0
  6 39  1  0
 11 40  1  0
 13 41  1  0
 14 42  1  0
 16 43  1  0
 16 44  1  0
 22 45  1  0
 22 46  1  0
 22 47  1  0
 23 48  1  0
 23 49  1  0
 23 50  1  0
 24 51  1  0
 26 52  1  0
 27 53  1  0
 28 54  1  0
 29 55  1  0
 31 56  1  0
 32 57  1  0
M  END
>  <smiles>  (65) 
Cc1ccccc1S(=O)(=O)Nc1ccc(CN=c2nc(N(C)C)[nH]c3ccccc23)cc1

>  <score_type>  (65) 
oracle

>  <origin>  (65) 
adg

>  <m_score__min__energy>  (65) 
-10.15

>  <m_primary>  (65) 
energy

$$$$
65:0
     RDKit          3D

 28 29  0  0  0  0  0  0  0  0999 V2000
   53.3840   23.7320   55.1010 C   0  0  0  0  0  0  0  0  0  0  0  0
   52.8850   24.4400   53.9700 O   0  0  0  0  0  0  0  0  0  0  0  0
   52.4880   25.7860   53.9870 C   0  0  0  0  0  0  0  0  0  0  0  0
   53.0920   26.7600   53.1670 C   0  0  0  0  0  0  0  0  0  0  0  0
   52.6740   28.1010   53.2190 C   0  0  0  0  0  0  0  0  0  0  0  0
   53.3080   29.1110   52.3360 C   0  0  0  0  0  0  0  0  0  0  0  0
   54.5670   29.1720   52.2890 O   0  0  0  0  0  0  0  0  0  0  0  0
   52.5140   30.0510   51.5070 C   0  0  0  0  0  0  0  0  0  0  0  0
   52.1710   29.7060   50.1870 C   0  0  0  0  0  0  0  0  0  0  0  0
   51.4370   30.5910   49.3920 C   0  0  0  0  0  0  0  0  0  0  0  0
   51.0470   31.8330   49.9010 C   0  0  0  0  0  0  0  0  0  0  0  0
   50.3150   32.7070   49.1050 O   0  0  0  0  0  0  0  0  0  0  0  0
   51.3970   32.1940   51.2070 C   0  0  0  0  0  0  0  0  0  0  0  0
   51.0190   33.4320   51.7140 O   0  0  0  0  0  0  0  0  0  0  0  0
   52.1300   31.3100   52.0050 C   0  0  0  0  0  0  0  0  0  0  0  0
   51.6240   28.4570   54.0840 C   0  0  0  0  0  0  0  0  0  0  0  0
   51.0230   27.4940   54.8980 C   0  0  0  0  0  0  0  0  0  0  0  0
   51.4530   26.1660   54.8520 C   0  0  0  0  0  0  0  0  0  0  0  0
   50.8460   25.2200   55.6700 O   0  0  0  0  0  0  0  0  0  0  0  0
   53.0381   24.2228   56.0227 H   0  0  0  0  0  0  0  0  0  0  0  0
   53.0155   22.6959   55.0768 H   0  0  0  0  0  0  0  0  0  0  0  0
   54.4837   23.7307   55.0768 H   0  0  0  0  0  0  0  0  0  0  0  0
   53.8990   26.4678   52.4790 H   0  0  0  0  0  0  0  0  0  0  0  0
   52.4824   28.7336   49.7778 H   0  0  0  0  0  0  0  0  0  0  0  0
   51.1658   30.3095   48.3638 H   0  0  0  0  0  0  0  0  0  0  0  0
   52.4083   31.6006   53.0288 H   0  0  0  0  0  0  0  0  0  0  0  0
   51.2741   29.4993   54.1198 H   0  0  0  0  0  0  0  0  0  0  0  0
   50.2079   27.7827   55.5779 H   0  0  0  0  0  0  0  0  0  0  0  0
  1  2  1  0
  2  3  1  0
  3  4  2  0
  4  5  1  0
  5  6  1  0
  6  7  2  0
  6  8  1  0
  8  9  2  0
  9 10  1  0
 10 11  2  0
 11 12  1  0
 11 13  1  0
 13 14  1  0
 13 15  2  0
  5 16  2  0
 16 17  1  0
 17 18  2  0
 18 19  1  0
 18  3  1  0
 15  8  1  0
  1 20  1  0
  1 21  1  0
  1 22  1  0
  4 23  1  0
  9 24  1  0
 10 25  1  0
 15 26  1  0
 16 27  1  0
 17 28  1  0
M  CHG  3  12  -1  14  -1  19  -1
M  END
>  <UniqueID>  (66) 
61

>  <SMILES>  (66) 
COc1cc(C(=O)c2ccc([O-])c([O-])c2)ccc1[O-]

>  <Energy>  (66) 
35.170041689684886

>  <Genealogy>  (66) 
COc1cc(C(=O)c2ccc([O-])c([O-])c2)ccc1[O-] (protonated)
COc1cc(C(=O)c2ccc([O-])c([O-])c2)ccc1[O-] (3D coordinates assigned)
COc1cc(C(=O)c2ccc([O-])c([O-])c2)ccc1[O-] (optimized conformer: 35.170041689684886 kcal/mol)

>  <smiles>  (66) 
COc1cc(C(=O)c2ccc(O)c(O)c2)ccc1O

>  <score_type>  (66) 
oracle

>  <origin>  (66) 
adg

>  <m_score__min__energy>  (66) 
-15.57

>  <m_primary>  (66) 
energy

$$$$
66:0
     RDKit          3D

 52 55  0  0  0  0  0  0  0  0999 V2000
   56.9190   24.7570   44.8220 C   0  0  0  0  0  0  0  0  0  0  0  0
   56.6150   26.2530   45.7120 S   0  0  0  0  0  0  0  0  0  0  0  0
   57.3340   26.2410   47.0340 O   0  0  0  0  0  0  0  0  0  0  0  0
   55.1320   26.3110   46.0220 O   0  0  0  0  0  0  0  0  0  0  0  0
   57.1010   27.5830   44.7450 N   0  0  0  0  0  0  0  0  0  0  0  0
   57.6110   28.7970   45.2080 C   0  0  0  0  0  0  0  0  0  0  0  0
   58.5960   28.7390   46.2000 C   0  0  0  0  0  0  0  0  0  0  0  0
   59.1650   29.8680   46.7270 C   0  0  0  0  0  0  0  0  0  0  0  0
   58.7700   31.1130   46.2820 C   0  0  0  0  0  0  0  0  0  0  0  0
   59.3230   32.3220   46.7910 N   0  0  0  0  0  0  0  0  0  0  0  0
   58.5560   33.3300   47.4260 C   0  0  0  0  0  0  0  0  0  0  0  0
   57.2970   33.1920   47.5720 O   0  0  0  0  0  0  0  0  0  0  0  0
   59.2690   34.5370   47.9060 C   0  0  0  0  0  0  0  0  0  0  0  0
   60.5300   34.2410   48.5120 N   0  0  0  0  0  0  0  0  0  0  0  0
   60.7780   34.2040   49.8170 N   0  0  0  0  0  0  0  0  0  0  0  0
   62.0700   33.8950   50.0560 C   0  0  0  0  0  0  0  0  0  0  0  0
   62.6100   33.7740   51.3950 C   0  0  0  0  0  0  0  0  0  0  0  0
   63.7310   34.4150   51.8550 C   0  0  0  0  0  0  0  0  0  0  0  0
   64.2050   34.2370   53.1520 C   0  0  0  0  0  0  0  0  0  0  0  0
   63.5240   33.3930   53.9960 C   0  0  0  0  0  0  0  0  0  0  0  0
   62.3820   32.7260   53.5670 C   0  0  0  0  0  0  0  0  0  0  0  0
   61.6650   31.8730   54.3670 O   0  0  0  0  0  0  0  0  0  0  0  0
   61.9220   32.9160   52.2610 C   0  0  0  0  0  0  0  0  0  0  0  0
   62.6410   33.7320   48.8260 C   0  0  0  0  0  0  0  0  0  0  0  0
   63.9210   33.4040   48.4430 C   0  0  0  0  0  0  0  0  0  0  0  0
   64.8380   33.1800   49.3130 N   0  0  0  0  0  0  0  0  0  0  0  0
   64.1810   33.3100   47.1210 N   0  0  0  0  0  0  0  0  0  0  0  0
   63.2550   33.5190   46.1710 C   0  0  0  0  0  0  0  0  0  0  0  0
   62.0160   33.8370   46.5830 N   0  0  0  0  0  0  0  0  0  0  0  0
   61.6860   33.9470   47.8830 C   0  0  0  0  0  0  0  0  0  0  0  0
   57.8070   31.2110   45.3090 C   0  0  0  0  0  0  0  0  0  0  0  0
   57.3910   32.4370   44.8430 O   0  0  0  0  0  0  0  0  0  0  0  0
   57.2500   30.0500   44.7940 C   0  0  0  0  0  0  0  0  0  0  0  0
   57.0861   23.9347   45.5333 H   0  0  0  0  0  0  0  0  0  0  0  0
   56.0499   24.5237   44.1893 H   0  0  0  0  0  0  0  0  0  0  0  0
   57.8102   24.8814   44.1893 H   0  0  0  0  0  0  0  0  0  0  0  0
   57.0060   27.4750   43.6890 H   0  0  0  0  0  0  0  0  0  0  0  0
   58.9238   27.7557   46.5683 H   0  0  0  0  0  0  0  0  0  0  0  0
   59.9374   29.7821   47.5055 H   0  0  0  0  0  0  0  0  0  0  0  0
   60.3660   32.4300   46.6660 H   0  0  0  0  0  0  0  0  0  0  0  0
   59.4407   35.2056   47.0496 H   0  0  0  0  0  0  0  0  0  0  0  0
   58.6379   35.0059   48.6753 H   0  0  0  0  0  0  0  0  0  0  0  0
   64.2733   35.0915   51.1780 H   0  0  0  0  0  0  0  0  0  0  0  0
   65.1084   34.7626   53.4950 H   0  0  0  0  0  0  0  0  0  0  0  0
   63.8868   33.2433   55.0236 H   0  0  0  0  0  0  0  0  0  0  0  0
   61.8400   31.8450   55.3570 H   0  0  0  0  0  0  0  0  0  0  0  0
   61.0196   32.3915   51.9137 H   0  0  0  0  0  0  0  0  0  0  0  0
   65.7600   32.8210   48.9970 H   0  0  0  0  0  0  0  0  0  0  0  0
   65.1750   33.0570   46.8570 H   0  0  0  0  0  0  0  0  0  0  0  0
   63.5001   33.4336   45.1021 H   0  0  0  0  0  0  0  0  0  0  0  0
   57.0050   33.0920   45.5230 H   0  0  0  0  0  0  0  0  0  0  0  0
   56.4798   30.1411   44.0140 H   0  0  0  0  0  0  0  0  0  0  0  0
  1  2  1  0
  2  3  2  0
  2  4  2  0
  2  5  1  0
  5  6  1  0
  6  7  2  0
  7  8  1  0
  8  9  2  0
  9 10  1  0
 10 11  1  0
 11 12  2  0
 11 13  1  0
 13 14  1  0
 14 15  1  0
 15 16  2  0
 16 17  1  0
 17 18  2  0
 18 19  1  0
 19 20  2  0
 20 21  1  0
 21 22  1  0
 21 23  2  0
 16 24  1  0
 24 25  1  0
 25 26  2  3
 25 27  1  0
 27 28  1  0
 28 29  2  0
 29 30  1  0
  9 31  1  0
 31 32  1  0
 31 33  2  0
 33  6  1  0
 30 14  1  0
 23 17  1  0
 30 24  2  0
  1 34  1  0
  1 35  1  0
  1 36  1  0
  5 37  1  0
  7 38  1  0
  8 39  1  0
 10 40  1  0
 13 41  1  0
 13 42  1  0
 18 43  1  0
 19 44  1  0
 20 45  1  0
 22 46  1  0
 23 47  1  0
 26 48  1  0
 27 49  1  0
 28 50  1  0
 32 51  1  0
 33 52  1  0
M  END
>  <smiles>  (67) 
CS(=O)(=O)Nc1ccc(NC(=O)Cn2nc(-c3cccc(O)c3)c3c(=N)[nH]cnc32)c(O)c1

>  <score_type>  (67) 
oracle

>  <origin>  (67) 
adg

>  <m_score__min__energy>  (67) 
-8.9000000000000004

>  <m_primary>  (67) 
energy

$$$$
67:0
     RDKit          3D

 66 70  0  0  0  0  0  0  0  0999 V2000
   56.9190   30.9440   42.6630 C   0  0  0  0  0  0  0  0  0  0  0  0
   57.3930   29.8200   43.4590 N   0  0  0  0  0  0  0  0  0  0  0  0
   56.6410   29.3130   44.5690 C   0  0  0  0  0  0  0  0  0  0  0  0
   55.5200   29.8170   44.8440 O   0  0  0  0  0  0  0  0  0  0  0  0
   57.1710   28.2170   45.4120 C   0  0  0  0  0  0  0  0  0  0  0  0
   56.3430   27.1380   45.7710 C   0  0  0  0  0  0  0  0  0  0  0  0
   56.8360   26.0810   46.5430 C   0  0  0  0  0  0  0  0  0  0  0  0
   55.9930   24.9470   46.7770 N   0  0  0  0  0  0  0  0  0  0  0  0
   54.6950   24.4550   45.7350 S   0  0  0  0  0  0  0  0  0  0  0  0
   53.7050   25.5820   45.6320 O   0  0  0  0  0  0  0  0  0  0  0  0
   54.0040   23.2530   46.3170 O   0  0  0  0  0  0  0  0  0  0  0  0
   55.3410   24.1010   44.1040 C   0  0  0  0  0  0  0  0  0  0  0  0
   56.5960   23.2790   44.1930 C   0  0  0  0  0  0  0  0  0  0  0  0
   56.6400   21.9890   43.6360 C   0  0  0  0  0  0  0  0  0  0  0  0
   57.8090   21.2260   43.7170 C   0  0  0  0  0  0  0  0  0  0  0  0
   58.9450   21.7470   44.3440 C   0  0  0  0  0  0  0  0  0  0  0  0
   58.9120   23.0370   44.8890 C   0  0  0  0  0  0  0  0  0  0  0  0
   57.7450   23.8030   44.8090 C   0  0  0  0  0  0  0  0  0  0  0  0
   58.1460   26.1470   47.0450 C   0  0  0  0  0  0  0  0  0  0  0  0
   58.9730   27.2200   46.7120 C   0  0  0  0  0  0  0  0  0  0  0  0
   58.5090   28.2350   45.8680 C   0  0  0  0  0  0  0  0  0  0  0  0
   59.4450   29.1930   45.3620 N   0  0  0  0  0  0  0  0  0  0  0  0
   59.6670   30.4550   46.0180 C   0  0  0  0  0  0  0  0  0  0  0  0
   58.7320   31.4900   45.8680 C   0  0  0  0  0  0  0  0  0  0  0  0
   58.9290   32.7210   46.5030 C   0  0  0  0  0  0  0  0  0  0  0  0
   60.0620   32.9280   47.3130 C   0  0  0  0  0  0  0  0  0  0  0  0
   60.3050   34.1410   47.9760 C   0  0  0  0  0  0  0  0  0  0  0  0
   59.5100   35.1150   47.8630 O   0  0  0  0  0  0  0  0  0  0  0  0
   61.4450   34.2700   48.7740 C   0  0  0  0  0  0  0  0  0  0  0  0
   62.3250   33.1770   48.9120 C   0  0  0  0  0  0  0  0  0  0  0  0
   63.5170   33.2460   49.7330 N   0  0  0  0  0  0  0  0  0  0  0  0
   64.7110   32.4440   49.4160 C   0  0  0  0  0  0  0  0  0  0  0  0
   65.9620   33.0080   50.0960 C   0  0  0  0  0  0  0  0  0  0  0  0
   65.7220   33.2760   51.4640 O   0  0  0  0  0  0  0  0  0  0  0  0
   64.7740   34.3150   51.5740 C   0  0  0  0  0  0  0  0  0  0  0  0
   63.4070   33.8490   51.0700 C   0  0  0  0  0  0  0  0  0  0  0  0
   62.0580   32.0470   48.2570 O   0  0  0  0  0  0  0  0  0  0  0  0
   60.9940   31.8840   47.4790 C   0  0  0  0  0  0  0  0  0  0  0  0
   60.7980   30.6630   46.8300 C   0  0  0  0  0  0  0  0  0  0  0  0
   56.5795   31.7492   43.3312 H   0  0  0  0  0  0  0  0  0  0  0  0
   57.7374   31.3148   42.0284 H   0  0  0  0  0  0  0  0  0  0  0  0
   56.0822   30.6168   42.0284 H   0  0  0  0  0  0  0  0  0  0  0  0
   58.3150   29.4010   43.2130 H   0  0  0  0  0  0  0  0  0  0  0  0
   55.2940   27.1254   45.4402 H   0  0  0  0  0  0  0  0  0  0  0  0
   54.5855   23.5444   43.5300 H   0  0  0  0  0  0  0  0  0  0  0  0
   55.5776   25.0522   43.6048 H   0  0  0  0  0  0  0  0  0  0  0  0
   55.7513   21.5782   43.1345 H   0  0  0  0  0  0  0  0  0  0  0  0
   57.8350   20.2140   43.2866 H   0  0  0  0  0  0  0  0  0  0  0  0
   59.8632   21.1448   44.4092 H   0  0  0  0  0  0  0  0  0  0  0  0
   59.8059   23.4482   45.3808 H   0  0  0  0  0  0  0  0  0  0  0  0
   57.7264   24.8192   45.2297 H   0  0  0  0  0  0  0  0  0  0  0  0
   58.5214   25.3496   47.7032 H   0  0  0  0  0  0  0  0  0  0  0  0
   59.9953   27.2684   47.1151 H   0  0  0  0  0  0  0  0  0  0  0  0
   59.9060   29.0060   44.4430 H   0  0  0  0  0  0  0  0  0  0  0  0
   57.8379   31.3326   45.2469 H   0  0  0  0  0  0  0  0  0  0  0  0
   58.1960   33.5302   46.3690 H   0  0  0  0  0  0  0  0  0  0  0  0
   61.6544   35.2180   49.2911 H   0  0  0  0  0  0  0  0  0  0  0  0
   64.5507   31.4121   49.7616 H   0  0  0  0  0  0  0  0  0  0  0  0
   64.8671   32.4723   48.3275 H   0  0  0  0  0  0  0  0  0  0  0  0
   66.7780   32.2752   50.0114 H   0  0  0  0  0  0  0  0  0  0  0  0
   66.2349   33.9503   49.5984 H   0  0  0  0  0  0  0  0  0  0  0  0
   64.6876   34.6160   52.6285 H   0  0  0  0  0  0  0  0  0  0  0  0
   65.1071   35.1665   50.9625 H   0  0  0  0  0  0  0  0  0  0  0  0
   63.0008   33.1030   51.7690 H   0  0  0  0  0  0  0  0  0  0  0  0
   62.7398   34.7214   51.0078 H   0  0  0  0  0  0  0  0  0  0  0  0
   61.5348   29.8557   46.9546 H   0  0  0  0  0  0  0  0  0  0  0  0
  1  2  1  0
  2  3  1  0
  3  4  2  0
  3  5  1  0
  5  6  2  0
  6  7  1  0
  7  8  1  0
  8  9  1  0
  9 10  2  0
  9 11  2  0
  9 12  1  0
 12 13  1  0
 13 14  2  0
 14 15  1  0
 15 16  2  0
 16 17  1  0
 17 18  2  0
  7 19  2  0
 19 20  1  0
 20 21  2  0
 21 22  1  0
 22 23  1  0
 23 24  2  0
 24 25  1  0
 25 26  2  0
 26 27  1  0
 27 28  2  0
 27 29  1  0
 29 30  2  0
 30 31  1  0
 31 32  1  0
 32 33  1  0
 33 34  1  0
 34 35  1  0
 35 36  1  0
 30 37  1  0
 37 38  1  0
 38 39  2  0
 21  5  1  0
 39 23  1  0
 18 13  1  0
 38 26  1  0
 36 31  1  0
  1 40  1  0
  1 41  1  0
  1 42  1  0
  2 43  1  0
  6 44  1  0
 12 45  1  0
 12 46  1  0
 14 47  1  0
 15 48  1  0
 16 49  1  0
 17 50  1  0
 18 51  1  0
 19 52  1  0
 20 53  1  0
 22 54  1  0
 24 55  1  0
 25 56  1  0
 29 57  1  0
 32 58  1  0
 32 59  1  0
 33 60  1  0
 33 61  1  0
 35 62  1  0
 35 63  1  0
 36 64  1  0
 36 65  1  0
 39 66  1  0
M  CHG  1   8  -1
M  END
>  <UniqueID>  (68) 
62

>  <SMILES>  (68) 
CNC(=O)c1cc([N-]S(=O)(=O)Cc2ccccc2)ccc1Nc1ccc2c(=O)cc(N3CCOCC3)oc2c1

>  <Energy>  (68) 
88.11733138097775

>  <Genealogy>  (68) 
CNC(=O)c1cc([N-]S(=O)(=O)Cc2ccccc2)ccc1Nc1ccc2c(=O)cc(N3CCOCC3)oc2c1 (protonated)
CNC(=O)c1cc([N-]S(=O)(=O)Cc2ccccc2)ccc1Nc1ccc2c(=O)cc(N3CCOCC3)oc2c1 (3D coordinates assigned)
CNC(=O)c1cc([N-]S(=O)(=O)Cc2ccccc2)ccc1Nc1ccc2c(=O)cc(N3CCOCC3)oc2c1 (nonaromatic ring conformer: 88.11733138097775 kcal/mol)

>  <smiles>  (68) 
CNC(=O)c1cc(NS(=O)(=O)Cc2ccccc2)ccc1Nc1ccc2c(=O)cc(N3CCOCC3)oc2c1

>  <score_type>  (68) 
oracle

>  <origin>  (68) 
adg

>  <m_score__min__energy>  (68) 
-12.279999999999999

>  <m_primary>  (68) 
energy

$$$$
68:0
     RDKit          3D

 37 39  0  0  0  0  0  0  0  0999 V2000
   60.7700   28.8760   45.1710 C   0  0  0  0  0  0  0  0  0  0  0  0
   60.5650   29.0360   46.5700 O   0  0  0  0  0  0  0  0  0  0  0  0
   59.4470   29.6910   47.0980 C   0  0  0  0  0  0  0  0  0  0  0  0
   58.9400   29.2990   48.1820 O   0  0  0  0  0  0  0  0  0  0  0  0
   58.8140   30.7770   46.3220 C   0  0  0  0  0  0  0  0  0  0  0  0
   59.1840   32.0950   46.6490 C   0  0  0  0  0  0  0  0  0  0  0  0
   58.6700   33.1790   45.9390 C   0  0  0  0  0  0  0  0  0  0  0  0
   57.7720   32.9670   44.8970 C   0  0  0  0  0  0  0  0  0  0  0  0
   57.3730   31.6700   44.5710 C   0  0  0  0  0  0  0  0  0  0  0  0
   57.8780   30.5600   45.2710 C   0  0  0  0  0  0  0  0  0  0  0  0
   57.1860   28.9670   44.8960 S   0  0  0  0  0  0  0  0  0  0  0  0
   55.6940   29.0180   45.0700 O   0  0  0  0  0  0  0  0  0  0  0  0
   57.4550   28.5590   43.4760 O   0  0  0  0  0  0  0  0  0  0  0  0
   57.8060   27.7920   46.0070 N   0  0  0  0  0  0  0  0  0  0  0  0
   57.6190   26.3840   45.8430 C   0  0  0  0  0  0  0  0  0  0  0  0
   56.3220   25.8420   45.7970 C   0  0  0  0  0  0  0  0  0  0  0  0
   55.1950   26.6430   45.9750 O   0  0  0  0  0  0  0  0  0  0  0  0
   56.1560   24.5100   45.5840 N   0  0  0  0  0  0  0  0  0  0  0  0
   57.2290   23.7000   45.4080 C   0  0  0  0  0  0  0  0  0  0  0  0
   58.4820   24.1900   45.4660 N   0  0  0  0  0  0  0  0  0  0  0  0
   58.7110   25.5210   45.6560 C   0  0  0  0  0  0  0  0  0  0  0  0
   59.8880   25.9720   45.6470 O   0  0  0  0  0  0  0  0  0  0  0  0
   59.5240   23.1900   45.2920 C   0  0  0  0  0  0  0  0  0  0  0  0
   58.8700   21.8130   45.4720 C   0  0  0  0  0  0  0  0  0  0  0  0
   57.0780   21.9550   45.1340 S   0  0  0  0  0  0  0  0  0  0  0  0
   61.6266   28.2074   45.0000 H   0  0  0  0  0  0  0  0  0  0  0  0
   59.8683   28.4404   44.7157 H   0  0  0  0  0  0  0  0  0  0  0  0
   60.9735   29.8565   44.7157 H   0  0  0  0  0  0  0  0  0  0  0  0
   59.8879   32.2720   47.4755 H   0  0  0  0  0  0  0  0  0  0  0  0
   58.9744   34.2027   46.2025 H   0  0  0  0  0  0  0  0  0  0  0  0
   57.3764   33.8225   44.3299 H   0  0  0  0  0  0  0  0  0  0  0  0
   56.6528   31.5138   43.7544 H   0  0  0  0  0  0  0  0  0  0  0  0
   55.1360   27.5840   45.6050 H   0  0  0  0  0  0  0  0  0  0  0  0
   59.9593   23.2712   44.2851 H   0  0  0  0  0  0  0  0  0  0  0  0
   60.3308   23.3367   46.0252 H   0  0  0  0  0  0  0  0  0  0  0  0
   59.3217   21.0959   44.7708 H   0  0  0  0  0  0  0  0  0  0  0  0
   59.0267   21.4593   46.5017 H   0  0  0  0  0  0  0  0  0  0  0  0
  1  2  1  0
  2  3  1  0
  3  4  2  0
  3  5  1  0
  5  6  2  0
  6  7  1  0
  7  8  2  0
  8  9  1  0
  9 10  2  0
 10 11  1  0
 11 12  2  0
 11 13  2  0
 11 14  1  0
 14 15  1  0
 15 16  2  0
 16 17  1  0
 16 18  1  0
 18 19  2  0
 19 20  1  0
 20 21  1  0
 21 22  2  0
 20 23  1  0
 23 24  1  0
 24 25  1  0
 10  5  1  0
 21 15  1  0
 25 19  1  0
  1 26  1  0
  1 27  1  0
  1 28  1  0
  6 29  1  0
  7 30  1  0
  8 31  1  0
  9 32  1  0
 17 33  1  0
 23 34  1  0
 23 35  1  0
 24 36  1  0
 24 37  1  0
M  CHG  1  14  -1
M  END
>  <UniqueID>  (69) 
63

>  <SMILES>  (69) 
COC(=O)c1ccccc1S(=O)(=O)[N-]c1c(O)nc2n(c1=O)CCS2

>  <Energy>  (69) 
61.11964580240604

>  <Genealogy>  (69) 
COC(=O)c1ccccc1S(=O)(=O)[N-]c1c(O)nc2n(c1=O)CCS2 (protonated)
COC(=O)c1ccccc1S(=O)(=O)[N-]c1c(O)nc2n(c1=O)CCS2 (3D coordinates assigned)
COC(=O)c1ccccc1S(=O)(=O)[N-]c1c(O)nc2n(c1=O)CCS2 (nonaromatic ring conformer: 61.11964580240604 kcal/mol)

>  <smiles>  (69) 
COC(=O)c1ccccc1S(=O)(=O)Nc1c(O)nc2n(c1=O)CCS2

>  <score_type>  (69) 
oracle

>  <origin>  (69) 
adg

>  <m_score__min__energy>  (69) 
-10.039999999999999

>  <m_primary>  (69) 
energy

$$$$
69:0
     RDKit          3D

 39 41  0  0  1  0  0  0  0  0999 V2000
   59.3920   30.6090   49.1170 N   0  0  0  0  0  0  0  0  0  0  0  0
   60.6220   30.4300   48.4230 C   0  0  0  0  0  0  0  0  0  0  0  0
   61.0430   29.2610   48.3020 O   0  0  0  0  0  0  0  0  0  0  0  0
   61.3360   31.5860   47.8910 C   0  0  0  0  0  0  0  0  0  0  0  0
   62.6890   31.7540   48.0890 C   0  0  0  0  0  0  0  0  0  0  0  0
   63.3830   32.8560   47.5840 C   0  0  0  0  0  0  0  0  0  0  0  0
   62.6840   33.8160   46.8590 C   0  0  0  0  0  0  0  0  0  0  0  0
   57.9470   26.4160   44.2310 C   0  0  0  0  0  0  0  0  0  0  0  0
   58.3650   27.4740   44.9790 C   0  0  0  0  0  0  0  0  0  0  0  0
   59.2650   32.4650   46.9140 N   0  0  0  0  0  0  0  0  0  0  0  0
   58.9130   31.7180   45.9180 C   0  0  0  0  0  0  0  0  0  0  0  0
   59.3100   30.4410   45.7790 N   0  0  0  0  0  0  0  0  0  0  0  0
   58.9130   29.7110   44.7200 C   0  0  0  0  0  0  0  0  0  0  0  0
   59.2520   28.4880   44.5240 N   0  0  0  0  0  0  0  0  0  0  0  0
   60.6750   32.5480   47.1740 C   0  0  0  0  0  0  0  0  0  0  0  0
   61.3100   33.6710   46.6440 C   0  0  0  0  0  0  0  0  0  0  0  0
   57.0460   26.6980   46.8580 C   0  0  0  0  0  0  0  0  0  0  0  0
   56.6220   25.6180   46.0880 C   0  0  0  0  0  0  0  0  0  0  0  0
   55.7490   24.7160   46.6910 O   0  0  0  0  0  0  0  0  0  0  0  0
   57.0730   25.4900   44.8000 C   0  0  0  0  0  0  0  0  0  0  0  0
   57.9120   27.6150   46.2960 C   0  0  0  0  0  0  0  0  0  0  0  0
   58.1090   30.2770   43.7940 N   0  0  0  0  0  0  0  0  0  0  0  0
   57.6810   31.5500   43.8790 C   0  0  0  0  0  0  0  0  0  0  0  0
   58.0980   32.2840   44.9720 C   0  0  0  0  0  0  0  0  0  0  0  0
   57.5230   34.0870   45.1450 Br  0  0  0  0  0  0  0  0  0  0  0  0
   59.3210   30.1330   50.0530 H   0  0  0  0  0  0  0  0  0  0  0  0
   58.6060   31.1780   48.7210 H   0  0  0  0  0  0  0  0  0  0  0  0
   63.2408   30.9955   48.6636 H   0  0  0  0  0  0  0  0  0  0  0  0
   64.4641   32.9631   47.7566 H   0  0  0  0  0  0  0  0  0  0  0  0
   63.2135   34.6910   46.4540 H   0  0  0  0  0  0  0  0  0  0  0  0
   58.2932   26.2935   43.1941 H   0  0  0  0  0  0  0  0  0  0  0  0
   59.9310   30.0080   46.4970 H   0  0  0  0  0  0  0  0  0  0  0  0
   60.7452   34.4222   46.0724 H   0  0  0  0  0  0  0  0  0  0  0  0
   56.6976   26.8184   47.8944 H   0  0  0  0  0  0  0  0  0  0  0  0
   54.7600   25.0010   46.7490 H   0  0  0  0  0  0  0  0  0  0  0  0
   56.7362   24.6330   44.1983 H   0  0  0  0  0  0  0  0  0  0  0  0
   58.2524   28.4727   46.8947 H   0  0  0  0  0  0  0  0  0  0  0  0
   57.7770   29.7330   42.9480 H   0  0  0  0  0  0  0  0  0  0  0  0
   57.0267   31.9874   43.1105 H   0  0  0  0  0  0  0  0  0  0  0  0
  1  2  1  0
  2  3  2  0
  2  4  1  0
  4  5  2  0
  5  6  1  0
  6  7  2  0
  7  8  1  0
  8  9  2  0
  9 10  1  0
 10 11  2  0
 11 12  1  0
 12 13  1  0
 13 14  2  0
 14 15  1  0
 15 16  2  0
 16 17  1  0
 17 18  2  0
 18 19  1  0
 18 20  1  0
 20 21  2  0
 13 22  1  0
 22 23  1  0
 23 24  2  0
 24 25  1  0
  9  4  1  0
 24 11  1  0
 21 15  1  0
  1 26  1  0
  1 27  1  0
  5 28  1  0
  6 29  1  0
  7 30  1  0
  8 31  1  0
 12 32  1  0
 16 33  1  0
 17 34  1  0
 19 35  1  0
 20 36  1  0
 21 37  1  0
 22 38  1  0
 23 39  1  0
M  END
>  <smiles>  (70) 
NC(=O)c1ccccc1N=c1[nH]c(=Nc2ccc(O)cc2)[nH]cc1Br

>  <score_type>  (70) 
oracle

>  <origin>  (70) 
adg

>  <m_score__min__energy>  (70) 
-9.1300000000000008

>  <m_primary>  (70) 
energy

$$$$
70:0
     RDKit          3D

 41 44  0  0  0  0  0  0  0  0999 V2000
   57.1130   20.8180   46.1880 C   0  0  0  0  0  0  0  0  0  0  0  0
   56.5700   21.8120   47.1220 N   0  0  0  0  0  0  0  0  0  0  0  0
   55.8940   21.3470   48.3390 C   0  0  0  0  0  0  0  0  0  0  0  0
   56.6980   23.2320   46.8450 C   0  0  0  0  0  0  0  0  0  0  0  0
   56.1670   23.7910   45.6660 C   0  0  0  0  0  0  0  0  0  0  0  0
   56.2900   25.1580   45.4010 C   0  0  0  0  0  0  0  0  0  0  0  0
   56.9470   26.0040   46.3070 C   0  0  0  0  0  0  0  0  0  0  0  0
   57.0770   27.4520   46.0250 C   0  0  0  0  0  0  0  0  0  0  0  0
   58.0810   28.2170   46.5410 N   0  0  0  0  0  0  0  0  0  0  0  0
   57.8120   29.4290   46.0360 C   0  0  0  0  0  0  0  0  0  0  0  0
   58.5040   30.6170   46.2250 C   0  0  0  0  0  0  0  0  0  0  0  0
   58.0080   31.7760   45.5800 C   0  0  0  0  0  0  0  0  0  0  0  0
   58.6960   33.0820   45.7380 C   0  0  0  0  0  0  0  0  0  0  0  0
   59.4350   33.3660   46.9030 C   0  0  0  0  0  0  0  0  0  0  0  0
   60.0820   34.5970   47.0490 C   0  0  0  0  0  0  0  0  0  0  0  0
   60.0000   35.5560   46.0370 C   0  0  0  0  0  0  0  0  0  0  0  0
   59.2710   35.2870   44.8770 C   0  0  0  0  0  0  0  0  0  0  0  0
   58.6210   34.0570   44.7260 C   0  0  0  0  0  0  0  0  0  0  0  0
   56.8360   31.6630   44.7780 C   0  0  0  0  0  0  0  0  0  0  0  0
   56.2010   30.4610   44.6320 N   0  0  0  0  0  0  0  0  0  0  0  0
   56.7020   29.3730   45.2650 C   0  0  0  0  0  0  0  0  0  0  0  0
   56.2040   28.1320   45.2310 N   0  0  0  0  0  0  0  0  0  0  0  0
   57.4780   25.4570   47.4840 C   0  0  0  0  0  0  0  0  0  0  0  0
   57.3570   24.0900   47.7510 C   0  0  0  0  0  0  0  0  0  0  0  0
   57.5649   19.9907   46.7549 H   0  0  0  0  0  0  0  0  0  0  0  0
   56.3023   20.4287   45.5547 H   0  0  0  0  0  0  0  0  0  0  0  0
   57.8787   21.2898   45.5547 H   0  0  0  0  0  0  0  0  0  0  0  0
   56.4336   21.7182   49.2228 H   0  0  0  0  0  0  0  0  0  0  0  0
   54.8619   21.7271   48.3532 H   0  0  0  0  0  0  0  0  0  0  0  0
   55.8799   20.2472   48.3532 H   0  0  0  0  0  0  0  0  0  0  0  0
   55.6485   23.1430   44.9441 H   0  0  0  0  0  0  0  0  0  0  0  0
   55.8681   25.5739   44.4742 H   0  0  0  0  0  0  0  0  0  0  0  0
   59.4058   30.6569   46.8536 H   0  0  0  0  0  0  0  0  0  0  0  0
   59.5036   32.6144   47.7033 H   0  0  0  0  0  0  0  0  0  0  0  0
   60.6565   34.8104   47.9624 H   0  0  0  0  0  0  0  0  0  0  0  0
   60.5099   36.5236   46.1539 H   0  0  0  0  0  0  0  0  0  0  0  0
   59.2075   36.0431   44.0806 H   0  0  0  0  0  0  0  0  0  0  0  0
   58.0476   33.8509   43.8102 H   0  0  0  0  0  0  0  0  0  0  0  0
   56.4372   32.5535   44.2701 H   0  0  0  0  0  0  0  0  0  0  0  0
   57.9944   26.1093   48.2036 H   0  0  0  0  0  0  0  0  0  0  0  0
   57.7807   23.6782   48.6788 H   0  0  0  0  0  0  0  0  0  0  0  0
  1  2  1  0
  2  3  1  0
  2  4  1  0
  4  5  2  0
  5  6  1  0
  6  7  2  0
  7  8  1  0
  8  9  2  0
  9 10  1  0
 10 11  2  0
 11 12  1  0
 12 13  1  0
 13 14  2  0
 14 15  1  0
 15 16  2  0
 16 17  1  0
 17 18  2  0
 12 19  2  0
 19 20  1  0
 20 21  2  0
 21 22  1  0
  7 23  1  0
 23 24  2  0
 24  4  1  0
 22  8  1  0
 21 10  1  0
 18 13  1  0
  1 25  1  0
  1 26  1  0
  1 27  1  0
  3 28  1  0
  3 29  1  0
  3 30  1  0
  5 31  1  0
  6 32  1  0
 11 33  1  0
 14 34  1  0
 15 35  1  0
 16 36  1  0
 17 37  1  0
 18 38  1  0
 19 39  1  0
 23 40  1  0
 24 41  1  0
M  CHG  1  22  -1
M  END
>  <UniqueID>  (71) 
64

>  <SMILES>  (71) 
CN(C)c1ccc(-c2nc3cc(-c4ccccc4)cnc3[n-]2)cc1

>  <Energy>  (71) 
89.86311150918057

>  <Genealogy>  (71) 
CN(C)c1ccc(-c2nc3cc(-c4ccccc4)cnc3[n-]2)cc1 (protonated)
CN(C)c1ccc(-c2nc3cc(-c4ccccc4)cnc3[n-]2)cc1 (3D coordinates assigned)
CN(C)c1ccc(-c2nc3cc(-c4ccccc4)cnc3[n-]2)cc1 (optimized conformer: 89.86311150918057 kcal/mol)

>  <smiles>  (71) 
CN(C)c1ccc(-c2nc3cc(-c4ccccc4)cnc3[nH]2)cc1

>  <score_type>  (71) 
oracle

>  <origin>  (71) 
adg

>  <m_score__min__energy>  (71) 
-8.8200000000000003

>  <m_primary>  (71) 
energy

$$$$
71:0
     RDKit          3D

 63 67  0  0  0  0  0  0  0  0999 V2000
   58.1290   30.1320   54.0270 N   0  0  0  0  0  0  0  0  0  0  0  0
   58.3450   30.0230   52.3120 S   0  0  0  0  0  0  0  0  0  0  0  0
   59.2860   28.9000   51.9810 O   0  0  0  0  0  0  0  0  0  0  0  0
   57.0180   29.7170   51.6710 O   0  0  0  0  0  0  0  0  0  0  0  0
   58.9620   31.5530   51.6740 C   0  0  0  0  0  0  0  0  0  0  0  0
   58.5210   32.7450   52.2750 C   0  0  0  0  0  0  0  0  0  0  0  0
   58.8970   33.9850   51.7540 C   0  0  0  0  0  0  0  0  0  0  0  0
   59.7070   34.0520   50.6190 C   0  0  0  0  0  0  0  0  0  0  0  0
   60.1520   32.8780   50.0080 C   0  0  0  0  0  0  0  0  0  0  0  0
   59.8290   31.6230   50.5510 C   0  0  0  0  0  0  0  0  0  0  0  0
   60.3480   30.4500   49.9060 N   0  0  0  0  0  0  0  0  0  0  0  0
   60.0390   30.0570   48.5560 C   0  0  0  0  0  0  0  0  0  0  0  0
   58.9900   29.1460   48.3560 C   0  0  0  0  0  0  0  0  0  0  0  0
   58.6880   28.6720   47.0790 C   0  0  0  0  0  0  0  0  0  0  0  0
   59.4120   29.1270   45.9670 C   0  0  0  0  0  0  0  0  0  0  0  0
   59.1250   28.5720   44.5940 C   0  0  0  0  0  0  0  0  0  0  0  0
   57.7380   27.9190   44.5390 C   0  0  0  0  0  0  0  0  0  0  0  0
   56.7190   28.8280   45.0560 N   0  0  0  0  0  0  0  0  0  0  0  0
   56.3290   30.0330   44.3860 C   0  0  0  0  0  0  0  0  0  0  0  0
   55.3000   30.0330   43.6530 O   0  0  0  0  0  0  0  0  0  0  0  0
   57.1500   31.2610   44.5180 C   0  0  0  0  0  0  0  0  0  0  0  0
   57.6860   31.8880   43.3790 C   0  0  0  0  0  0  0  0  0  0  0  0
   58.4390   33.0580   43.4950 C   0  0  0  0  0  0  0  0  0  0  0  0
   58.6830   33.6180   44.7570 C   0  0  0  0  0  0  0  0  0  0  0  0
   59.4180   34.8070   44.8820 C   0  0  0  0  0  0  0  0  0  0  0  0
   59.6570   35.3560   46.1470 C   0  0  0  0  0  0  0  0  0  0  0  0
   59.1550   34.7280   47.2900 C   0  0  0  0  0  0  0  0  0  0  0  0
   58.4150   33.5480   47.1780 C   0  0  0  0  0  0  0  0  0  0  0  0
   58.1690   32.9860   45.9150 C   0  0  0  0  0  0  0  0  0  0  0  0
   57.4070   31.8120   45.7880 C   0  0  0  0  0  0  0  0  0  0  0  0
   60.4300   30.0760   46.1490 C   0  0  0  0  0  0  0  0  0  0  0  0
   60.7450   30.5590   47.4300 C   0  0  0  0  0  0  0  0  0  0  0  0
   61.7560   31.6300   47.5440 C   0  0  0  0  0  0  0  0  0  0  0  0
   62.8030   31.5190   48.4730 C   0  0  0  0  0  0  0  0  0  0  0  0
   63.7690   32.5250   48.5680 C   0  0  0  0  0  0  0  0  0  0  0  0
   63.6790   33.6620   47.7600 C   0  0  0  0  0  0  0  0  0  0  0  0
   62.6210   33.7960   46.8570 C   0  0  0  0  0  0  0  0  0  0  0  0
   61.6610   32.7850   46.7510 C   0  0  0  0  0  0  0  0  0  0  0  0
   57.5510   29.3120   54.3140 H   0  0  0  0  0  0  0  0  0  0  0  0
   57.8740   32.7006   53.1635 H   0  0  0  0  0  0  0  0  0  0  0  0
   58.5542   34.9109   52.2390 H   0  0  0  0  0  0  0  0  0  0  0  0
   59.9948   35.0300   50.2059 H   0  0  0  0  0  0  0  0  0  0  0  0
   60.7607   32.9361   49.0936 H   0  0  0  0  0  0  0  0  0  0  0  0
   61.0110   29.8550   50.4530 H   0  0  0  0  0  0  0  0  0  0  0  0
   58.3985   28.8014   49.2170 H   0  0  0  0  0  0  0  0  0  0  0  0
   57.8792   27.9388   46.9437 H   0  0  0  0  0  0  0  0  0  0  0  0
   59.1657   29.3906   43.8603 H   0  0  0  0  0  0  0  0  0  0  0  0
   59.8801   27.8063   44.3627 H   0  0  0  0  0  0  0  0  0  0  0  0
   57.4995   27.6650   43.4956 H   0  0  0  0  0  0  0  0  0  0  0  0
   57.7497   27.0109   45.1596 H   0  0  0  0  0  0  0  0  0  0  0  0
   57.5099   31.4514   42.3848 H   0  0  0  0  0  0  0  0  0  0  0  0
   58.8422   33.5421   42.5933 H   0  0  0  0  0  0  0  0  0  0  0  0
   59.8071   35.3086   43.9837 H   0  0  0  0  0  0  0  0  0  0  0  0
   60.2410   36.2834   46.2417 H   0  0  0  0  0  0  0  0  0  0  0  0
   59.3432   35.1644   48.2820 H   0  0  0  0  0  0  0  0  0  0  0  0
   58.0241   33.0580   48.0819 H   0  0  0  0  0  0  0  0  0  0  0  0
   57.0084   31.3199   46.6874 H   0  0  0  0  0  0  0  0  0  0  0  0
   60.9887   30.4465   45.2769 H   0  0  0  0  0  0  0  0  0  0  0  0
   62.8633   30.6375   49.1282 H   0  0  0  0  0  0  0  0  0  0  0  0
   64.6013   32.4216   49.2798 H   0  0  0  0  0  0  0  0  0  0  0  0
   64.4412   34.4515   47.8350 H   0  0  0  0  0  0  0  0  0  0  0  0
   62.5435   34.6964   46.2299 H   0  0  0  0  0  0  0  0  0  0  0  0
   60.8267   32.8950   46.0425 H   0  0  0  0  0  0  0  0  0  0  0  0
  1  2  1  0
  2  3  2  0
  2  4  2  0
  2  5  1  0
  5  6  2  0
  6  7  1  0
  7  8  2  0
  8  9  1  0
  9 10  2  0
 10 11  1  0
 11 12  1  0
 12 13  2  0
 13 14  1  0
 14 15  2  0
 15 16  1  0
 16 17  1  0
 17 18  1  0
 18 19  1  0
 19 20  2  0
 19 21  1  0
 21 22  2  0
 22 23  1  0
 23 24  2  0
 24 25  1  0
 25 26  2  0
 26 27  1  0
 27 28  2  0
 28 29  1  0
 29 30  2  0
 15 31  1  0
 31 32  2  0
 32 33  1  0
 33 34  2  0
 34 35  1  0
 35 36  2  0
 36 37  1  0
 37 38  2  0
 10  5  1  0
 32 12  1  0
 38 33  1  0
 30 21  1  0
 29 24  1  0
  1 39  1  0
  6 40  1  0
  7 41  1  0
  8 42  1  0
  9 43  1  0
 11 44  1  0
 13 45  1  0
 14 46  1  0
 16 47  1  0
 16 48  1  0
 17 49  1  0
 17 50  1  0
 22 51  1  0
 23 52  1  0
 25 53  1  0
 26 54  1  0
 27 55  1  0
 28 56  1  0
 30 57  1  0
 31 58  1  0
 34 59  1  0
 35 60  1  0
 36 61  1  0
 37 62  1  0
 38 63  1  0
M  CHG  2   1  -1  18  -1
M  END
>  <UniqueID>  (72) 
65

>  <SMILES>  (72) 
[NH-]S(=O)(=O)c1ccccc1Nc1ccc(CC[N-]C(=O)c2ccc3ccccc3c2)cc1-c1ccccc1

>  <Energy>  (72) 
82.13459986433924

>  <Genealogy>  (72) 
[NH-]S(=O)(=O)c1ccccc1Nc1ccc(CC[N-]C(=O)c2ccc3ccccc3c2)cc1-c1ccccc1 (protonated)
[NH-]S(=O)(=O)c1ccccc1Nc1ccc(CC[N-]C(=O)c2ccc3ccccc3c2)cc1-c1ccccc1 (3D coordinates assigned)
[NH-]S(=O)(=O)c1ccccc1Nc1ccc(CC[N-]C(=O)c2ccc3ccccc3c2)cc1-c1ccccc1 (optimized conformer: 82.13459986433924 kcal/mol)

>  <smiles>  (72) 
NS(=O)(=O)c1ccccc1Nc1ccc(CCNC(=O)c2ccc3ccccc3c2)cc1-c1ccccc1

>  <score_type>  (72) 
oracle

>  <origin>  (72) 
adg

>  <m_score__min__energy>  (72) 
-14.91

>  <m_primary>  (72) 
energy

$$$$
72:0
     RDKit          3D

 42 44  0  0  0  0  0  0  0  0999 V2000
   59.2690   35.2520   45.3140 C   0  0  0  0  0  0  0  0  0  0  0  0
   58.7450   33.8470   45.2130 C   0  0  0  0  0  0  0  0  0  0  0  0
   58.2910   33.3550   43.9780 C   0  0  0  0  0  0  0  0  0  0  0  0
   57.7520   32.0700   43.8850 C   0  0  0  0  0  0  0  0  0  0  0  0
   57.6490   31.2630   45.0260 C   0  0  0  0  0  0  0  0  0  0  0  0
   56.9850   29.6380   44.8770 S   0  0  0  0  0  0  0  0  0  0  0  0
   57.4770   29.0350   43.5910 O   0  0  0  0  0  0  0  0  0  0  0  0
   55.4790   29.6630   44.8450 O   0  0  0  0  0  0  0  0  0  0  0  0
   57.5410   28.6730   46.2080 N   0  0  0  0  0  0  0  0  0  0  0  0
   57.8680   27.2760   46.1420 C   0  0  0  0  0  0  0  0  0  0  0  0
   59.2060   26.8400   46.1650 C   0  0  0  0  0  0  0  0  0  0  0  0
   59.5050   25.4780   46.1440 C   0  0  0  0  0  0  0  0  0  0  0  0
   58.4790   24.5360   46.0680 C   0  0  0  0  0  0  0  0  0  0  0  0
   57.1360   24.9440   46.0190 C   0  0  0  0  0  0  0  0  0  0  0  0
   56.0890   23.9170   45.8020 C   0  0  0  0  0  0  0  0  0  0  0  0
   54.9820   24.0470   46.3920 O   0  0  0  0  0  0  0  0  0  0  0  0
   56.2930   22.7740   44.8780 C   0  0  0  0  0  0  0  0  0  0  0  0
   56.6790   21.5070   45.3560 C   0  0  0  0  0  0  0  0  0  0  0  0
   56.8430   20.4430   44.4660 C   0  0  0  0  0  0  0  0  0  0  0  0
   56.6210   20.6500   43.1030 C   0  0  0  0  0  0  0  0  0  0  0  0
   56.2460   21.8770   42.6520 N   0  0  0  0  0  0  0  0  0  0  0  0
   56.0740   22.9290   43.4960 C   0  0  0  0  0  0  0  0  0  0  0  0
   56.8230   26.3240   46.0840 C   0  0  0  0  0  0  0  0  0  0  0  0
   55.4550   26.7640   46.1050 N   0  0  0  0  0  0  0  0  0  0  0  0
   58.0920   31.7550   46.2650 C   0  0  0  0  0  0  0  0  0  0  0  0
   58.6310   33.0430   46.3580 C   0  0  0  0  0  0  0  0  0  0  0  0
   59.3725   35.5295   46.3734 H   0  0  0  0  0  0  0  0  0  0  0  0
   60.2505   35.3136   44.8213 H   0  0  0  0  0  0  0  0  0  0  0  0
   58.5675   35.9413   44.8213 H   0  0  0  0  0  0  0  0  0  0  0  0
   58.3604   33.9854   43.0792 H   0  0  0  0  0  0  0  0  0  0  0  0
   57.4069   31.6898   42.9122 H   0  0  0  0  0  0  0  0  0  0  0  0
   60.0209   27.5781   46.1998 H   0  0  0  0  0  0  0  0  0  0  0  0
   60.5527   25.1457   46.1875 H   0  0  0  0  0  0  0  0  0  0  0  0
   58.7240   23.4639   46.0462 H   0  0  0  0  0  0  0  0  0  0  0  0
   56.8516   21.3549   46.4317 H   0  0  0  0  0  0  0  0  0  0  0  0
   57.1441   19.4516   44.8353 H   0  0  0  0  0  0  0  0  0  0  0  0
   56.7496   19.8196   42.3932 H   0  0  0  0  0  0  0  0  0  0  0  0
   55.7623   23.9056   43.0972 H   0  0  0  0  0  0  0  0  0  0  0  0
   54.7300   26.2790   46.6790 H   0  0  0  0  0  0  0  0  0  0  0  0
   55.1450   27.5990   45.5630 H   0  0  0  0  0  0  0  0  0  0  0  0
   58.0150   31.1262   47.1643 H   0  0  0  0  0  0  0  0  0  0  0  0
   58.9668   33.4271   47.3325 H   0  0  0  0  0  0  0  0  0  0  0  0
  1  2  1  0
  2  3  2  0
  3  4  1  0
  4  5  2  0
  5  6  1  0
  6  7  2  0
  6  8  2  0
  6  9  1  0
  9 10  1  0
 10 11  2  0
 11 12  1  0
 12 13  2  0
 13 14  1  0
 14 15  1  0
 15 16  2  0
 15 17  1  0
 17 18  2  0
 18 19  1  0
 19 20  2  0
 20 21  1  0
 21 22  2  0
 14 23  2  0
 23 24  1  0
  5 25  1  0
 25 26  2  0
 26  2  1  0
 23 10  1  0
 22 17  1  0
  1 27  1  0
  1 28  1  0
  1 29  1  0
  3 30  1  0
  4 31  1  0
 11 32  1  0
 12 33  1  0
 13 34  1  0
 18 35  1  0
 19 36  1  0
 20 37  1  0
 22 38  1  0
 24 39  1  0
 24 40  1  0
 25 41  1  0
 26 42  1  0
M  CHG  1   9  -1
M  END
>  <UniqueID>  (73) 
66

>  <SMILES>  (73) 
Cc1ccc(S(=O)(=O)[N-]c2cccc(C(=O)c3cccnc3)c2N)cc1

>  <Energy>  (73) 
58.3150281998972

>  <Genealogy>  (73) 
Cc1ccc(S(=O)(=O)[N-]c2cccc(C(=O)c3cccnc3)c2N)cc1 (protonated)
Cc1ccc(S(=O)(=O)[N-]c2cccc(C(=O)c3cccnc3)c2N)cc1 (3D coordinates assigned)
Cc1ccc(S(=O)(=O)[N-]c2cccc(C(=O)c3cccnc3)c2N)cc1 (optimized conformer: 58.3150281998972 kcal/mol)

>  <smiles>  (73) 
Cc1ccc(S(=O)(=O)Nc2cccc(C(=O)c3cccnc3)c2N)cc1

>  <score_type>  (73) 
oracle

>  <origin>  (73) 
adg

>  <m_score__min__energy>  (73) 
-11.35

>  <m_primary>  (73) 
energy

$$$$
73:0
     RDKit          3D

 47 50  0  0  0  0  0  0  0  0999 V2000
   57.7750   25.1100   47.5200 C   0  0  0  0  0  0  0  0  0  0  0  0
   57.8060   26.3230   46.6280 C   0  0  0  0  0  0  0  0  0  0  0  0
   59.0390   26.9470   46.3840 C   0  0  0  0  0  0  0  0  0  0  0  0
   59.1250   28.0360   45.5150 C   0  0  0  0  0  0  0  0  0  0  0  0
   57.9840   28.5210   44.8720 C   0  0  0  0  0  0  0  0  0  0  0  0
   58.1250   29.6230   43.9640 N   0  0  0  0  0  0  0  0  0  0  0  0
   57.4850   31.2150   44.2170 S   0  0  0  0  0  0  0  0  0  0  0  0
   57.4990   31.9600   42.9120 O   0  0  0  0  0  0  0  0  0  0  0  0
   56.0680   31.1030   44.7050 O   0  0  0  0  0  0  0  0  0  0  0  0
   58.4380   32.0690   45.4280 C   0  0  0  0  0  0  0  0  0  0  0  0
   58.1180   33.3880   45.7740 C   0  0  0  0  0  0  0  0  0  0  0  0
   58.8870   34.0720   46.7190 C   0  0  0  0  0  0  0  0  0  0  0  0
   59.9780   33.4420   47.3270 C   0  0  0  0  0  0  0  0  0  0  0  0
   60.3270   32.1290   46.9580 C   0  0  0  0  0  0  0  0  0  0  0  0
   59.5380   31.4410   46.0270 C   0  0  0  0  0  0  0  0  0  0  0  0
   61.5340   31.5300   47.4560 N   0  0  0  0  0  0  0  0  0  0  0  0
   62.6180   32.3270   47.9500 C   0  0  0  0  0  0  0  0  0  0  0  0
   63.6810   31.7680   48.3330 O   0  0  0  0  0  0  0  0  0  0  0  0
   62.5150   33.8220   47.9650 C   0  0  0  0  0  0  0  0  0  0  0  0
   60.8870   34.2970   48.6220 S   0  0  0  0  0  0  0  0  0  0  0  0
   56.7400   27.9210   45.1330 C   0  0  0  0  0  0  0  0  0  0  0  0
   56.6350   26.8500   46.0290 C   0  0  0  0  0  0  0  0  0  0  0  0
   55.3330   26.3000   46.2740 N   0  0  0  0  0  0  0  0  0  0  0  0
   54.7720   25.1480   45.6280 C   0  0  0  0  0  0  0  0  0  0  0  0
   53.5190   25.0630   45.5290 O   0  0  0  0  0  0  0  0  0  0  0  0
   55.6160   24.0490   45.1000 C   0  0  0  0  0  0  0  0  0  0  0  0
   56.1900   24.1210   43.8210 C   0  0  0  0  0  0  0  0  0  0  0  0
   56.9790   23.0660   43.3550 C   0  0  0  0  0  0  0  0  0  0  0  0
   57.1980   21.9810   44.1420 N   0  0  0  0  0  0  0  0  0  0  0  0
   56.6700   21.8880   45.3910 C   0  0  0  0  0  0  0  0  0  0  0  0
   55.8760   22.9210   45.8950 C   0  0  0  0  0  0  0  0  0  0  0  0
   57.7831   25.4287   48.5728 H   0  0  0  0  0  0  0  0  0  0  0  0
   56.8618   24.5306   47.3194 H   0  0  0  0  0  0  0  0  0  0  0  0
   58.6575   24.4847   47.3194 H   0  0  0  0  0  0  0  0  0  0  0  0
   59.9462   26.5745   46.8822 H   0  0  0  0  0  0  0  0  0  0  0  0
   60.0985   28.5156   45.3353 H   0  0  0  0  0  0  0  0  0  0  0  0
   57.2593   33.8865   45.3006 H   0  0  0  0  0  0  0  0  0  0  0  0
   58.6338   35.1087   46.9856 H   0  0  0  0  0  0  0  0  0  0  0  0
   59.7836   30.4014   45.7646 H   0  0  0  0  0  0  0  0  0  0  0  0
   61.6750   30.5000   47.3520 H   0  0  0  0  0  0  0  0  0  0  0  0
   63.3068   34.2398   48.6041 H   0  0  0  0  0  0  0  0  0  0  0  0
   62.6318   34.2128   46.9434 H   0  0  0  0  0  0  0  0  0  0  0  0
   55.8384   28.2972   44.6275 H   0  0  0  0  0  0  0  0  0  0  0  0
   56.0194   25.0044   43.1881 H   0  0  0  0  0  0  0  0  0  0  0  0
   57.4231   23.1143   42.3498 H   0  0  0  0  0  0  0  0  0  0  0  0
   56.8682   20.9978   46.0060 H   0  0  0  0  0  0  0  0  0  0  0  0
   55.4566   22.8512   46.9095 H   0  0  0  0  0  0  0  0  0  0  0  0
  1  2  1  0
  2  3  2  0
  3  4  1  0
  4  5  2  0
  5  6  1  0
  6  7  1  0
  7  8  2  0
  7  9  2  0
  7 10  1  0
 10 11  2  0
 11 12  1  0
 12 13  2  0
 13 14  1  0
 14 15  2  0
 14 16  1  0
 16 17  1  0
 17 18  2  0
 17 19  1  0
 19 20  1  0
  5 21  1  0
 21 22  2  0
 22 23  1  0
 23 24  1  0
 24 25  2  0
 24 26  1  0
 26 27  2  0
 27 28  1  0
 28 29  2  0
 29 30  1  0
 30 31  2  0
 22  2  1  0
 31 26  1  0
 15 10  1  0
 20 13  1  0
  1 32  1  0
  1 33  1  0
  1 34  1  0
  3 35  1  0
  4 36  1  0
 11 37  1  0
 12 38  1  0
 15 39  1  0
 16 40  1  0
 19 41  1  0
 19 42  1  0
 21 43  1  0
 27 44  1  0
 28 45  1  0
 30 46  1  0
 31 47  1  0
M  CHG  2   6  -1  23  -1
M  END
>  <UniqueID>  (74) 
67

>  <SMILES>  (74) 
Cc1ccc([N-]S(=O)(=O)c2ccc3c(c2)NC(=O)CS3)cc1[N-]C(=O)c1ccncc1

>  <Energy>  (74) 
67.7738789171669

>  <Genealogy>  (74) 
Cc1ccc([N-]S(=O)(=O)c2ccc3c(c2)NC(=O)CS3)cc1[N-]C(=O)c1ccncc1 (protonated)
Cc1ccc([N-]S(=O)(=O)c2ccc3c(c2)NC(=O)CS3)cc1[N-]C(=O)c1ccncc1 (3D coordinates assigned)
Cc1ccc([N-]S(=O)(=O)c2ccc3c(c2)NC(=O)CS3)cc1[N-]C(=O)c1ccncc1 (nonaromatic ring conformer: 67.7738789171669 kcal/mol)

>  <smiles>  (74) 
Cc1ccc(NS(=O)(=O)c2ccc3c(c2)NC(=O)CS3)cc1NC(=O)c1ccncc1

>  <score_type>  (74) 
oracle

>  <origin>  (74) 
adg

>  <m_score__min__energy>  (74) 
-12.98

>  <m_primary>  (74) 
energy

$$$$
74:0
     RDKit          3D

 45 49  0  0  0  0  0  0  0  0999 V2000
   57.8280   24.5540   47.2130 O   0  0  0  0  0  0  0  0  0  0  0  0
   57.0650   24.7500   46.2270 C   0  0  0  0  0  0  0  0  0  0  0  0
   56.2860   25.9510   46.1250 N   0  0  0  0  0  0  0  0  0  0  0  0
   56.7420   27.1620   45.9700 C   0  0  0  0  0  0  0  0  0  0  0  0
   57.9210   27.6890   46.4700 C   0  0  0  0  0  0  0  0  0  0  0  0
   57.8750   29.0220   46.0840 C   0  0  0  0  0  0  0  0  0  0  0  0
   58.8780   30.0680   46.3970 C   0  0  0  0  0  0  0  0  0  0  0  0
   60.1650   29.6920   46.8660 C   0  0  0  0  0  0  0  0  0  0  0  0
   61.1380   30.6640   47.1600 C   0  0  0  0  0  0  0  0  0  0  0  0
   60.8020   32.0010   46.9760 C   0  0  0  0  0  0  0  0  0  0  0  0
   61.5780   33.0760   47.1900 N   0  0  0  0  0  0  0  0  0  0  0  0
   60.8180   34.1490   46.8660 C   0  0  0  0  0  0  0  0  0  0  0  0
   59.5550   33.7500   46.4440 C   0  0  0  0  0  0  0  0  0  0  0  0
   59.5670   32.3740   46.5220 C   0  0  0  0  0  0  0  0  0  0  0  0
   58.5780   31.4420   46.2220 C   0  0  0  0  0  0  0  0  0  0  0  0
   56.7380   29.2550   45.3930 N   0  0  0  0  0  0  0  0  0  0  0  0
   56.0570   28.1220   45.3300 N   0  0  0  0  0  0  0  0  0  0  0  0
   57.0440   23.7710   45.1250 C   0  0  0  0  0  0  0  0  0  0  0  0
   58.2350   23.0760   44.8560 C   0  0  0  0  0  0  0  0  0  0  0  0
   58.2320   21.9700   44.0100 C   0  0  0  0  0  0  0  0  0  0  0  0
   57.0330   21.5520   43.4420 C   0  0  0  0  0  0  0  0  0  0  0  0
   55.8930   22.2540   43.6660 N   0  0  0  0  0  0  0  0  0  0  0  0
   55.8550   23.3690   44.4460 C   0  0  0  0  0  0  0  0  0  0  0  0
   54.7210   24.0200   44.4980 N   0  0  0  0  0  0  0  0  0  0  0  0
   53.5100   23.6760   45.1880 C   0  0  0  0  0  0  0  0  0  0  0  0
   52.2570   23.9640   44.6260 C   0  0  0  0  0  0  0  0  0  0  0  0
   51.0970   23.5580   45.2910 C   0  0  0  0  0  0  0  0  0  0  0  0
   51.1870   22.8730   46.4620 N   0  0  0  0  0  0  0  0  0  0  0  0
   52.3900   22.5550   47.0120 C   0  0  0  0  0  0  0  0  0  0  0  0
   52.4330   21.9150   48.0950 O   0  0  0  0  0  0  0  0  0  0  0  0
   53.5750   22.9370   46.3740 C   0  0  0  0  0  0  0  0  0  0  0  0
   58.7085   27.1731   47.0390 H   0  0  0  0  0  0  0  0  0  0  0  0
   60.4037   28.6267   47.0010 H   0  0  0  0  0  0  0  0  0  0  0  0
   62.1349   30.3754   47.5246 H   0  0  0  0  0  0  0  0  0  0  0  0
   62.5630   33.0870   47.5350 H   0  0  0  0  0  0  0  0  0  0  0  0
   61.1544   35.1944   46.9283 H   0  0  0  0  0  0  0  0  0  0  0  0
   58.7248   34.3938   46.1180 H   0  0  0  0  0  0  0  0  0  0  0  0
   57.5905   31.7630   45.8590 H   0  0  0  0  0  0  0  0  0  0  0  0
   55.1290   28.0200   44.8650 H   0  0  0  0  0  0  0  0  0  0  0  0
   59.1769   23.4080   45.3171 H   0  0  0  0  0  0  0  0  0  0  0  0
   59.1672   21.4329   43.7933 H   0  0  0  0  0  0  0  0  0  0  0  0
   57.0086   20.6516   42.8106 H   0  0  0  0  0  0  0  0  0  0  0  0
   52.1885   24.5046   43.6704 H   0  0  0  0  0  0  0  0  0  0  0  0
   50.1098   23.7929   44.8665 H   0  0  0  0  0  0  0  0  0  0  0  0
   54.5496   22.6586   46.8013 H   0  0  0  0  0  0  0  0  0  0  0  0
  1  2  2  0
  2  3  1  0
  3  4  2  3
  4  5  1  0
  5  6  2  0
  6  7  1  0
  7  8  2  0
  8  9  1  0
  9 10  2  0
 10 11  1  0
 11 12  1  0
 12 13  2  0
 13 14  1  0
 14 15  2  0
  6 16  1  0
 16 17  1  0
  2 18  1  0
 18 19  2  0
 19 20  1  0
 20 21  2  0
 21 22  1  0
 22 23  1  0
 23 24  2  3
 24 25  1  0
 25 26  1  0
 26 27  2  0
 27 28  1  0
 28 29  1  0
 29 30  2  0
 29 31  1  0
 17  4  1  0
 23 18  1  0
 31 25  2  0
 15  7  1  0
 14 10  1  0
  5 32  1  0
  8 33  1  0
  9 34  1  0
 11 35  1  0
 12 36  1  0
 13 37  1  0
 15 38  1  0
 17 39  1  0
 19 40  1  0
 20 41  1  0
 21 42  1  0
 26 43  1  0
 27 44  1  0
 31 45  1  0
M  CHG  3  16  -1  22  -1  28  -1
M  END
>  <UniqueID>  (75) 
68

>  <SMILES>  (75) 
O=C(N=c1cc(-c2ccc3[nH]ccc3c2)[n-][nH]1)c1ccc[n-]c1=Nc1cc[n-]c(=O)c1

>  <Energy>  (75) 
140.6233652456512

>  <Genealogy>  (75) 
O=C(N=c1cc(-c2ccc3[nH]ccc3c2)[n-][nH]1)c1ccc[n-]c1=Nc1cc[n-]c(=O)c1 (protonated)
O=C(N=c1cc(-c2ccc3[nH]ccc3c2)[n-][nH]1)c1ccc[n-]c1=Nc1cc[n-]c(=O)c1 (3D coordinates assigned)
O=C(N=c1cc(-c2ccc3[nH]ccc3c2)[n-][nH]1)c1ccc[n-]c1=Nc1cc[n-]c(=O)c1 (optimized conformer: 140.6233652456512 kcal/mol)

>  <smiles>  (75) 
O=C(N=c1cc(-c2ccc3[nH]ccc3c2)[nH][nH]1)c1ccc[nH]c1=Nc1cc[nH]c(=O)c1

>  <score_type>  (75) 
oracle

>  <origin>  (75) 
adg

>  <m_score__min__energy>  (75) 
-14.16

>  <m_primary>  (75) 
energy

$$$$
75:0
     RDKit          3D

 31 32  0  0  0  0  0  0  0  0999 V2000
   55.6980   26.4690   46.3240 O   0  0  0  0  0  0  0  0  0  0  0  0
   56.3640   27.2790   45.6250 C   0  0  0  0  0  0  0  0  0  0  0  0
   57.7700   26.9480   45.2300 C   0  0  0  0  0  0  0  0  0  0  0  0
   58.5210   26.3300   46.4080 C   0  0  0  0  0  0  0  0  0  0  0  0
   59.8810   26.7540   46.3880 O   0  0  0  0  0  0  0  0  0  0  0  0
   60.2770   28.0350   45.9940 C   0  0  0  0  0  0  0  0  0  0  0  0
   60.8510   28.2160   44.8850 O   0  0  0  0  0  0  0  0  0  0  0  0
   60.0370   29.1680   46.8930 C   0  0  0  0  0  0  0  0  0  0  0  0
   60.6130   30.4270   46.7810 C   0  0  0  0  0  0  0  0  0  0  0  0
   60.1770   31.3220   47.7650 C   0  0  0  0  0  0  0  0  0  0  0  0
   59.2590   30.7720   48.6500 C   0  0  0  0  0  0  0  0  0  0  0  0
   58.9850   29.1730   48.2070 S   0  0  0  0  0  0  0  0  0  0  0  0
   55.8050   28.5400   45.2430 N   0  0  0  0  0  0  0  0  0  0  0  0
   56.5040   29.5750   44.5410 C   0  0  0  0  0  0  0  0  0  0  0  0
   57.4030   30.3870   45.2460 C   0  0  0  0  0  0  0  0  0  0  0  0
   58.0700   31.4320   44.5970 C   0  0  0  0  0  0  0  0  0  0  0  0
   57.8270   31.6830   43.2440 C   0  0  0  0  0  0  0  0  0  0  0  0
   56.9130   30.8960   42.5390 C   0  0  0  0  0  0  0  0  0  0  0  0
   56.2500   29.8460   43.1830 C   0  0  0  0  0  0  0  0  0  0  0  0
   57.7532   26.2323   44.3949 H   0  0  0  0  0  0  0  0  0  0  0  0
   58.2825   27.8722   44.9246 H   0  0  0  0  0  0  0  0  0  0  0  0
   58.0519   26.6515   47.3496 H   0  0  0  0  0  0  0  0  0  0  0  0
   58.4808   25.2335   46.3299 H   0  0  0  0  0  0  0  0  0  0  0  0
   61.3384   30.6937   45.9982 H   0  0  0  0  0  0  0  0  0  0  0  0
   60.5282   32.3623   47.8310 H   0  0  0  0  0  0  0  0  0  0  0  0
   58.7904   31.2939   49.4974 H   0  0  0  0  0  0  0  0  0  0  0  0
   57.5851   30.2018   46.3149 H   0  0  0  0  0  0  0  0  0  0  0  0
   58.7858   32.0561   45.1521 H   0  0  0  0  0  0  0  0  0  0  0  0
   58.3560   32.5012   42.7334 H   0  0  0  0  0  0  0  0  0  0  0  0
   56.7146   31.1021   41.4769 H   0  0  0  0  0  0  0  0  0  0  0  0
   55.5280   29.2302   42.6267 H   0  0  0  0  0  0  0  0  0  0  0  0
  1  2  2  0
  2  3  1  0
  3  4  1  0
  4  5  1  0
  5  6  1  0
  6  7  2  0
  6  8  1  0
  8  9  2  0
  9 10  1  0
 10 11  2  0
 11 12  1  0
  2 13  1  0
 13 14  1  0
 14 15  2  0
 15 16  1  0
 16 17  2  0
 17 18  1  0
 18 19  2  0
 12  8  1  0
 19 14  1  0
  3 20  1  0
  3 21  1  0
  4 22  1  0
  4 23  1  0
  9 24  1  0
 10 25  1  0
 11 26  1  0
 15 27  1  0
 16 28  1  0
 17 29  1  0
 18 30  1  0
 19 31  1  0
M  CHG  1  13  -1
M  END
>  <UniqueID>  (76) 
69

>  <SMILES>  (76) 
O=C(CCOC(=O)c1cccs1)[N-]c1ccccc1

>  <Energy>  (76) 
53.38043787198305

>  <Genealogy>  (76) 
O=C(CCOC(=O)c1cccs1)[N-]c1ccccc1 (protonated)
O=C(CCOC(=O)c1cccs1)[N-]c1ccccc1 (3D coordinates assigned)
O=C(CCOC(=O)c1cccs1)[N-]c1ccccc1 (optimized conformer: 53.38043787198305 kcal/mol)

>  <smiles>  (76) 
O=C(CCOC(=O)c1cccs1)Nc1ccccc1

>  <score_type>  (76) 
oracle

>  <origin>  (76) 
adg

>  <m_score__min__energy>  (76) 
-8.5800000000000001

>  <m_primary>  (76) 
energy

$$$$
76:0
     RDKit          3D

 67 70  0  0  0  0  0  0  0  0999 V2000
   57.3850   26.5140   47.1800 O   0  0  0  0  0  0  0  0  0  0  0  0
   56.6410   26.3260   46.1800 C   0  0  0  0  0  0  0  0  0  0  0  0
   55.8750   27.4060   45.6230 N   0  0  0  0  0  0  0  0  0  0  0  0
   56.3870   28.6990   45.2530 C   0  0  0  0  0  0  0  0  0  0  0  0
   55.5490   29.5880   44.5670 C   0  0  0  0  0  0  0  0  0  0  0  0
   56.0190   30.8430   44.1690 C   0  0  0  0  0  0  0  0  0  0  0  0
   57.3470   31.2230   44.4430 C   0  0  0  0  0  0  0  0  0  0  0  0
   57.8490   32.5990   44.0880 C   0  0  0  0  0  0  0  0  0  0  0  0
   58.5490   33.2520   45.2510 C   0  0  0  0  0  0  0  0  0  0  0  0
   58.1640   32.9570   46.5680 C   0  0  0  0  0  0  0  0  0  0  0  0
   58.8450   33.5240   47.6490 C   0  0  0  0  0  0  0  0  0  0  0  0
   59.9270   34.3890   47.4260 C   0  0  0  0  0  0  0  0  0  0  0  0
   60.6550   34.9590   48.5180 N   0  0  0  0  0  0  0  0  0  0  0  0
   61.6460   34.2710   49.2960 C   0  0  0  0  0  0  0  0  0  0  0  0
   61.3500   33.9030   50.4660 O   0  0  0  0  0  0  0  0  0  0  0  0
   63.0250   33.9700   48.7450 C   0  0  0  0  0  0  0  0  0  0  0  0
   63.4410   32.5040   48.8800 C   0  0  0  0  0  0  0  0  0  0  0  0
   63.5530   32.3940   47.3680 C   0  0  0  0  0  0  0  0  0  0  0  0
   63.0960   33.8360   47.2210 C   0  0  0  0  0  0  0  0  0  0  0  0
   60.2790   34.7290   46.1140 C   0  0  0  0  0  0  0  0  0  0  0  0
   59.6000   34.1580   45.0300 C   0  0  0  0  0  0  0  0  0  0  0  0
   58.1920   30.3250   45.1110 C   0  0  0  0  0  0  0  0  0  0  0  0
   57.7230   29.0660   45.4940 C   0  0  0  0  0  0  0  0  0  0  0  0
   56.5770   25.0250   45.5940 N   0  0  0  0  0  0  0  0  0  0  0  0
   55.5290   24.0440   45.8780 C   0  0  1  0  0  0  0  0  0  0  0  0
   55.5170   23.7090   47.3820 C   0  0  0  0  0  0  0  0  0  0  0  0
   56.9300   23.5690   47.9800 C   0  0  0  0  0  0  0  0  0  0  0  0
   57.3450   22.2150   47.9770 O   0  0  0  0  0  0  0  0  0  0  0  0
   56.3230   21.3860   48.4910 C   0  0  0  0  0  0  0  0  0  0  0  0
   56.2010   21.6420   49.9620 C   0  0  0  0  0  0  0  0  0  0  0  0
   57.3560   21.7370   50.7580 C   0  0  0  0  0  0  0  0  0  0  0  0
   57.2450   21.8690   52.1450 C   0  0  0  0  0  0  0  0  0  0  0  0
   55.9860   21.8850   52.7500 C   0  0  0  0  0  0  0  0  0  0  0  0
   54.8320   21.7970   51.9650 C   0  0  0  0  0  0  0  0  0  0  0  0
   54.9370   21.6760   50.5760 C   0  0  0  0  0  0  0  0  0  0  0  0
   54.1830   24.5600   45.4380 C   0  0  0  0  0  0  0  0  0  0  0  0
   53.3430   23.7710   44.9250 O   0  0  0  0  0  0  0  0  0  0  0  0
   53.8240   25.8820   45.6710 O   0  0  0  0  0  0  0  0  0  0  0  0
   54.5131   29.2961   44.3398 H   0  0  0  0  0  0  0  0  0  0  0  0
   55.3489   31.5364   43.6397 H   0  0  0  0  0  0  0  0  0  0  0  0
   58.5544   32.5158   43.2480 H   0  0  0  0  0  0  0  0  0  0  0  0
   56.9836   33.2206   43.8147 H   0  0  0  0  0  0  0  0  0  0  0  0
   57.3206   32.2749   46.7508 H   0  0  0  0  0  0  0  0  0  0  0  0
   58.5318   33.2914   48.6775 H   0  0  0  0  0  0  0  0  0  0  0  0
   63.5826   34.7682   49.2568 H   0  0  0  0  0  0  0  0  0  0  0  0
   64.3919   32.3546   49.4124 H   0  0  0  0  0  0  0  0  0  0  0  0
   62.8138   31.7978   49.4438 H   0  0  0  0  0  0  0  0  0  0  0  0
   64.5755   32.2092   47.0069 H   0  0  0  0  0  0  0  0  0  0  0  0
   63.0295   31.5894   46.8308 H   0  0  0  0  0  0  0  0  0  0  0  0
   63.8373   34.4957   46.7464 H   0  0  0  0  0  0  0  0  0  0  0  0
   62.2224   34.0822   46.5995 H   0  0  0  0  0  0  0  0  0  0  0  0
   61.0922   35.4475   45.9338 H   0  0  0  0  0  0  0  0  0  0  0  0
   59.8907   34.4199   44.0019 H   0  0  0  0  0  0  0  0  0  0  0  0
   59.2297   30.6135   45.3346 H   0  0  0  0  0  0  0  0  0  0  0  0
   58.4036   28.3567   45.9876 H   0  0  0  0  0  0  0  0  0  0  0  0
   55.7423   23.1253   45.3119 H   0  0  0  0  0  0  0  0  0  0  0  0
   54.9888   24.5128   47.9157 H   0  0  0  0  0  0  0  0  0  0  0  0
   55.0133   22.7380   47.4983 H   0  0  0  0  0  0  0  0  0  0  0  0
   57.6356   24.1639   47.3814 H   0  0  0  0  0  0  0  0  0  0  0  0
   56.9107   23.9298   49.0190 H   0  0  0  0  0  0  0  0  0  0  0  0
   55.3702   21.6190   47.9932 H   0  0  0  0  0  0  0  0  0  0  0  0
   56.5675   20.3288   48.3105 H   0  0  0  0  0  0  0  0  0  0  0  0
   58.3500   21.7074   50.2878 H   0  0  0  0  0  0  0  0  0  0  0  0
   58.1513   21.9605   52.7617 H   0  0  0  0  0  0  0  0  0  0  0  0
   55.9023   21.9668   53.8438 H   0  0  0  0  0  0  0  0  0  0  0  0
   53.8406   21.8230   52.4408 H   0  0  0  0  0  0  0  0  0  0  0  0
   54.0272   21.6072   49.9615 H   0  0  0  0  0  0  0  0  0  0  0  0
  1  2  2  0
  2  3  1  0
  3  4  1  0
  4  5  2  0
  5  6  1  0
  6  7  2  0
  7  8  1  0
  8  9  1  0
  9 10  2  0
 10 11  1  0
 11 12  2  0
 12 13  1  0
 13 14  1  0
 14 15  2  0
 14 16  1  0
 16 17  1  0
 17 18  1  0
 18 19  1  0
 12 20  1  0
 20 21  2  0
  7 22  1  0
 22 23  2  0
  2 24  1  0
 24 25  1  0
 25 26  1  0
 26 27  1  0
 27 28  1  0
 28 29  1  0
 29 30  1  0
 30 31  2  0
 31 32  1  0
 32 33  2  0
 33 34  1  0
 34 35  2  0
 25 36  1  0
 36 37  2  0
 36 38  1  0
 23  4  1  0
 35 30  1  0
 21  9  1  0
 19 16  1  0
  5 39  1  0
  6 40  1  0
  8 41  1  0
  8 42  1  0
 10 43  1  0
 11 44  1  0
 16 45  1  0
 17 46  1  0
 17 47  1  0
 18 48  1  0
 18 49  1  0
 19 50  1  0
 19 51  1  0
 20 52  1  0
 21 53  1  0
 22 54  1  0
 23 55  1  0
 25 56  1  6
 26 57  1  0
 26 58  1  0
 27 59  1  0
 27 60  1  0
 29 61  1  0
 29 62  1  0
 31 63  1  0
 32 64  1  0
 33 65  1  0
 34 66  1  0
 35 67  1  0
M  CHG  4   3  -1  13  -1  24  -1  38  -1
M  END
>  <UniqueID>  (77) 
70

>  <SMILES>  (77) 
O=C([N-]c1ccc(Cc2ccc([N-]C(=O)C3CCC3)cc2)cc1)[N-][C@@H](CCOCc1ccccc1)C(=O)[O-]

>  <Energy>  (77) 
136.9358983887312

>  <Genealogy>  (77) 
O=C([N-]c1ccc(Cc2ccc([N-]C(=O)C3CCC3)cc2)cc1)[N-]C(CCOCc1ccccc1)C(=O)[O-] (protonated)
O=C([N-]c1ccc(Cc2ccc([N-]C(=O)C3CCC3)cc2)cc1)[N-][C@@H](CCOCc1ccccc1)C(=O)[O-] (chirality)
O=C([N-]c1ccc(Cc2ccc([N-]C(=O)C3CCC3)cc2)cc1)[N-][C@@H](CCOCc1ccccc1)C(=O)[O-] (3D coordinates assigned)
O=C([N-]c1ccc(Cc2ccc([N-]C(=O)C3CCC3)cc2)cc1)[N-][C@@H](CCOCc1ccccc1)C(=O)[O-] (nonaromatic ring conformer: 136.9358983887312 kcal/mol)

>  <smiles>  (77) 
O=C(Nc1ccc(Cc2ccc(NC(=O)C3CCC3)cc2)cc1)NC(CCOCc1ccccc1)C(=O)O

>  <score_type>  (77) 
oracle

>  <origin>  (77) 
adg

>  <m_score__min__energy>  (77) 
-16.170000000000002

>  <m_primary>  (77) 
energy

$$$$
77:0
     RDKit          3D

 34 35  0  0  0  0  0  0  0  0999 V2000
   56.5610   29.5560   42.6230 N   0  0  0  0  0  0  0  0  0  0  0  0
   56.5860   30.0260   43.9720 C   0  0  0  0  0  0  0  0  0  0  0  0
   55.5250   30.4590   44.4950 O   0  0  0  0  0  0  0  0  0  0  0  0
   57.8510   30.0350   44.7380 C   0  0  0  0  0  0  0  0  0  0  0  0
   58.6790   28.8960   44.7000 C   0  0  0  0  0  0  0  0  0  0  0  0
   58.3510   27.8270   43.9310 F   0  0  0  0  0  0  0  0  0  0  0  0
   59.8630   28.8580   45.4370 C   0  0  0  0  0  0  0  0  0  0  0  0
   60.2420   29.9500   46.2140 C   0  0  0  0  0  0  0  0  0  0  0  0
   59.4330   31.0850   46.2670 C   0  0  0  0  0  0  0  0  0  0  0  0
   58.2240   31.1400   45.5470 C   0  0  0  0  0  0  0  0  0  0  0  0
   57.3580   32.2850   45.6800 N   0  0  0  0  0  0  0  0  0  0  0  0
   57.6740   33.4490   46.5140 C   0  0  0  0  0  0  0  0  0  0  0  0
   58.8800   34.2270   45.9660 C   0  0  0  0  0  0  0  0  0  0  0  0
   60.0790   34.1450   46.8770 C   0  0  0  0  0  0  0  0  0  0  0  0
   61.3470   33.8400   46.3530 C   0  0  0  0  0  0  0  0  0  0  0  0
   62.4470   33.7040   47.2040 C   0  0  0  0  0  0  0  0  0  0  0  0
   62.2910   33.8760   48.5820 C   0  0  0  0  0  0  0  0  0  0  0  0
   61.0380   34.1930   49.1100 C   0  0  0  0  0  0  0  0  0  0  0  0
   59.9350   34.3320   48.2620 C   0  0  0  0  0  0  0  0  0  0  0  0
   55.6730   29.5770   42.0760 H   0  0  0  0  0  0  0  0  0  0  0  0
   57.4160   29.1520   42.1800 H   0  0  0  0  0  0  0  0  0  0  0  0
   60.4999   27.9617   45.4043 H   0  0  0  0  0  0  0  0  0  0  0  0
   61.1806   29.9173   46.7867 H   0  0  0  0  0  0  0  0  0  0  0  0
   59.7426   31.9461   46.8775 H   0  0  0  0  0  0  0  0  0  0  0  0
   56.4410   32.2940   45.1830 H   0  0  0  0  0  0  0  0  0  0  0  0
   56.8004   34.1169   46.5403 H   0  0  0  0  0  0  0  0  0  0  0  0
   57.9255   33.0909   47.5232 H   0  0  0  0  0  0  0  0  0  0  0  0
   59.1526   33.8109   44.9849 H   0  0  0  0  0  0  0  0  0  0  0  0
   58.5894   35.2851   45.8884 H   0  0  0  0  0  0  0  0  0  0  0  0
   61.4740   33.7078   45.2684 H   0  0  0  0  0  0  0  0  0  0  0  0
   63.4364   33.4614   46.7889 H   0  0  0  0  0  0  0  0  0  0  0  0
   63.1563   33.7615   49.2514 H   0  0  0  0  0  0  0  0  0  0  0  0
   60.9184   34.3336   50.1944 H   0  0  0  0  0  0  0  0  0  0  0  0
   58.9508   34.5887   48.6808 H   0  0  0  0  0  0  0  0  0  0  0  0
  1  2  1  0
  2  3  2  0
  2  4  1  0
  4  5  2  0
  5  6  1  0
  5  7  1  0
  7  8  2  0
  8  9  1  0
  9 10  2  0
 10 11  1  0
 11 12  1  0
 12 13  1  0
 13 14  1  0
 14 15  2  0
 15 16  1  0
 16 17  2  0
 17 18  1  0
 18 19  2  0
 10  4  1  0
 19 14  1  0
  1 20  1  0
  1 21  1  0
  7 22  1  0
  8 23  1  0
  9 24  1  0
 11 25  1  0
 12 26  1  0
 12 27  1  0
 13 28  1  0
 13 29  1  0
 15 30  1  0
 16 31  1  0
 17 32  1  0
 18 33  1  0
 19 34  1  0
M  END
>  <UniqueID>  (78) 
71

>  <SMILES>  (78) 
NC(=O)c1c(F)cccc1NCCc1ccccc1

>  <Energy>  (78) 
37.10705873904614

>  <Genealogy>  (78) 
NC(=O)c1c(F)cccc1NCCc1ccccc1 (3D coordinates assigned)
NC(=O)c1c(F)cccc1NCCc1ccccc1 (optimized conformer: 37.10705873904614 kcal/mol)

>  <smiles>  (78) 
NC(=O)c1c(F)cccc1NCCc1ccccc1

>  <score_type>  (78) 
oracle

>  <origin>  (78) 
adg

>  <m_score__min__energy>  (78) 
-7.4299999999999997

>  <m_primary>  (78) 
energy

$$$$
78:0
     RDKit          3D

 62 64  0  0  0  0  0  0  0  0999 V2000
   58.8340   21.8720   44.2630 C   0  0  0  0  0  0  0  0  0  0  0  0
   57.5230   21.0920   44.3340 C   0  0  0  0  0  0  0  0  0  0  0  0
   56.4360   21.7620   43.5460 C   0  0  0  0  0  0  0  0  0  0  0  0
   56.2630   21.4640   42.3330 O   0  0  0  0  0  0  0  0  0  0  0  0
   55.6780   22.8190   44.1470 N   0  0  0  0  0  0  0  0  0  0  0  0
   56.2270   24.0370   44.6690 C   0  0  0  0  0  0  0  0  0  0  0  0
   57.2570   24.7260   44.0070 C   0  0  0  0  0  0  0  0  0  0  0  0
   57.7520   25.9260   44.5280 C   0  0  0  0  0  0  0  0  0  0  0  0
   57.2370   26.4480   45.7250 C   0  0  0  0  0  0  0  0  0  0  0  0
   57.7620   27.7160   46.2700 C   0  0  0  0  0  0  0  0  0  0  0  0
   58.6570   27.7000   47.1600 O   0  0  0  0  0  0  0  0  0  0  0  0
   57.2250   28.9290   45.8260 O   0  0  0  0  0  0  0  0  0  0  0  0
   57.3650   29.4110   44.4900 C   0  0  0  0  0  0  0  0  0  0  0  0
   56.8720   30.8280   44.4230 C   0  0  0  0  0  0  0  0  0  0  0  0
   55.6320   31.0430   44.4970 O   0  0  0  0  0  0  0  0  0  0  0  0
   57.7910   31.9340   44.2690 N   0  0  0  0  0  0  0  0  0  0  0  0
   58.1880   32.4000   42.9350 C   0  0  0  0  0  0  0  0  0  0  0  0
   57.3350   31.7480   41.8520 C   0  0  0  0  0  0  0  0  0  0  0  0
   58.3460   32.5840   45.4280 C   0  0  0  0  0  0  0  0  0  0  0  0
   59.1530   31.8760   46.3410 C   0  0  0  0  0  0  0  0  0  0  0  0
   59.4880   30.5050   46.0570 N   0  0  0  0  0  0  0  0  0  0  0  0
   59.5950   32.4990   47.4910 N   0  0  0  0  0  0  0  0  0  0  0  0
   60.4090   31.7650   48.4880 C   0  0  0  0  0  0  0  0  0  0  0  0
   61.8520   32.2100   48.4660 C   0  0  0  0  0  0  0  0  0  0  0  0
   62.4370   32.7150   47.2920 C   0  0  0  0  0  0  0  0  0  0  0  0
   63.7620   33.1580   47.2970 C   0  0  0  0  0  0  0  0  0  0  0  0
   64.5120   33.1170   48.4740 C   0  0  0  0  0  0  0  0  0  0  0  0
   63.9320   32.6380   49.6490 C   0  0  0  0  0  0  0  0  0  0  0  0
   62.6080   32.1950   49.6510 C   0  0  0  0  0  0  0  0  0  0  0  0
   59.2660   33.8170   47.7190 C   0  0  0  0  0  0  0  0  0  0  0  0
   59.6720   34.4140   48.7540 O   0  0  0  0  0  0  0  0  0  0  0  0
   58.5020   34.5000   46.8300 N   0  0  0  0  0  0  0  0  0  0  0  0
   58.0340   33.9140   45.7040 C   0  0  0  0  0  0  0  0  0  0  0  0
   57.3020   34.5690   44.9170 O   0  0  0  0  0  0  0  0  0  0  0  0
   56.1970   25.7630   46.3760 C   0  0  0  0  0  0  0  0  0  0  0  0
   55.6870   24.5760   45.8400 C   0  0  0  0  0  0  0  0  0  0  0  0
   59.1902   22.0839   45.2819 H   0  0  0  0  0  0  0  0  0  0  0  0
   59.5873   21.2751   43.7280 H   0  0  0  0  0  0  0  0  0  0  0  0
   58.6688   22.8188   43.7280 H   0  0  0  0  0  0  0  0  0  0  0  0
   57.6864   20.0823   43.9292 H   0  0  0  0  0  0  0  0  0  0  0  0
   57.2065   21.0479   45.3866 H   0  0  0  0  0  0  0  0  0  0  0  0
   57.6761   24.3198   43.0746 H   0  0  0  0  0  0  0  0  0  0  0  0
   58.5503   26.4643   43.9961 H   0  0  0  0  0  0  0  0  0  0  0  0
   58.4241   29.3754   44.1950 H   0  0  0  0  0  0  0  0  0  0  0  0
   56.7764   28.7818   43.8061 H   0  0  0  0  0  0  0  0  0  0  0  0
   58.0625   33.4916   42.8832 H   0  0  0  0  0  0  0  0  0  0  0  0
   59.2395   32.1245   42.7661 H   0  0  0  0  0  0  0  0  0  0  0  0
   56.5448   31.1440   42.3218 H   0  0  0  0  0  0  0  0  0  0  0  0
   56.8771   32.5284   41.2265 H   0  0  0  0  0  0  0  0  0  0  0  0
   57.9679   31.1013   41.2265 H   0  0  0  0  0  0  0  0  0  0  0  0
   60.1840   30.2590   45.3200 H   0  0  0  0  0  0  0  0  0  0  0  0
   59.0940   29.7020   46.5870 H   0  0  0  0  0  0  0  0  0  0  0  0
   59.9947   31.9474   49.4906 H   0  0  0  0  0  0  0  0  0  0  0  0
   60.3759   30.6945   48.2372 H   0  0  0  0  0  0  0  0  0  0  0  0
   61.8483   32.7617   46.3640 H   0  0  0  0  0  0  0  0  0  0  0  0
   64.2158   33.5403   46.3708 H   0  0  0  0  0  0  0  0  0  0  0  0
   65.5568   33.4612   48.4748 H   0  0  0  0  0  0  0  0  0  0  0  0
   64.5204   32.6092   50.5779 H   0  0  0  0  0  0  0  0  0  0  0  0
   62.1540   31.8323   50.5850 H   0  0  0  0  0  0  0  0  0  0  0  0
   58.2530   35.4960   47.0300 H   0  0  0  0  0  0  0  0  0  0  0  0
   55.7815   26.1627   47.3128 H   0  0  0  0  0  0  0  0  0  0  0  0
   54.8547   24.0629   46.3439 H   0  0  0  0  0  0  0  0  0  0  0  0
  1  2  1  0
  2  3  1  0
  3  4  2  0
  3  5  1  0
  5  6  1  0
  6  7  2  0
  7  8  1  0
  8  9  2  0
  9 10  1  0
 10 11  2  0
 10 12  1  0
 12 13  1  0
 13 14  1  0
 14 15  2  0
 14 16  1  0
 16 17  1  0
 17 18  1  0
 16 19  1  0
 19 20  2  0
 20 21  1  0
 20 22  1  0
 22 23  1  0
 23 24  1  0
 24 25  2  0
 25 26  1  0
 26 27  2  0
 27 28  1  0
 28 29  2  0
 22 30  1  0
 30 31  2  0
 30 32  1  0
 32 33  1  0
 33 34  2  0
  9 35  1  0
 35 36  2  0
 36  6  1  0
 33 19  1  0
 29 24  1  0
  1 37  1  0
  1 38  1  0
  1 39  1  0
  2 40  1  0
  2 41  1  0
  7 42  1  0
  8 43  1  0
 13 44  1  0
 13 45  1  0
 17 46  1  0
 17 47  1  0
 18 48  1  0
 18 49  1  0
 18 50  1  0
 21 51  1  0
 21 52  1  0
 23 53  1  0
 23 54  1  0
 25 55  1  0
 26 56  1  0
 27 57  1  0
 28 58  1  0
 29 59  1  0
 32 60  1  0
 35 61  1  0
 36 62  1  0
M  CHG  1   5  -1
M  END
>  <UniqueID>  (79) 
72

>  <SMILES>  (79) 
CCC(=O)[N-]c1ccc(C(=O)OCC(=O)N(CC)c2c(N)n(Cc3ccccc3)c(=O)[nH]c2=O)cc1

>  <Energy>  (79) 
71.61294069944805

>  <Genealogy>  (79) 
CCC(=O)[N-]c1ccc(C(=O)OCC(=O)N(CC)c2c(N)n(Cc3ccccc3)c(=O)[nH]c2=O)cc1 (protonated)
CCC(=O)[N-]c1ccc(C(=O)OCC(=O)N(CC)c2c(N)n(Cc3ccccc3)c(=O)[nH]c2=O)cc1 (3D coordinates assigned)
CCC(=O)[N-]c1ccc(C(=O)OCC(=O)N(CC)c2c(N)n(Cc3ccccc3)c(=O)[nH]c2=O)cc1 (optimized conformer: 71.61294069944805 kcal/mol)

>  <smiles>  (79) 
CCC(=O)Nc1ccc(C(=O)OCC(=O)N(CC)c2c(N)n(Cc3ccccc3)c(=O)[nH]c2=O)cc1

>  <score_type>  (79) 
oracle

>  <origin>  (79) 
adg

>  <m_score__min__energy>  (79) 
-9.9399999999999995

>  <m_primary>  (79) 
energy

$$$$
79:0
     RDKit          3D

 54 57  0  0  0  0  0  0  0  0999 V2000
   60.9830   30.8120   47.0560 N   0  0  0  0  0  0  0  0  0  0  0  0
   60.3220   29.8750   46.8950 C   0  0  0  0  0  0  0  0  0  0  0  0
   59.4970   28.7060   46.6940 C   0  0  0  0  0  0  0  0  0  0  0  0
   59.3260   27.7520   47.7230 C   0  0  0  0  0  0  0  0  0  0  0  0
   60.0030   27.8810   49.0350 C   0  0  0  0  0  0  0  0  0  0  0  0
   59.9290   29.0800   49.7640 C   0  0  0  0  0  0  0  0  0  0  0  0
   60.5790   29.1980   50.9960 C   0  0  0  0  0  0  0  0  0  0  0  0
   61.3130   28.1230   51.5060 C   0  0  0  0  0  0  0  0  0  0  0  0
   61.4000   26.9310   50.7820 C   0  0  0  0  0  0  0  0  0  0  0  0
   60.7520   26.8100   49.5500 C   0  0  0  0  0  0  0  0  0  0  0  0
   58.4820   26.6520   47.5050 C   0  0  0  0  0  0  0  0  0  0  0  0
   57.8190   26.5080   46.2780 C   0  0  0  0  0  0  0  0  0  0  0  0
   56.9410   25.3460   46.0020 C   0  0  0  0  0  0  0  0  0  0  0  0
   57.5270   24.0840   45.7940 C   0  0  0  0  0  0  0  0  0  0  0  0
   56.7310   22.9650   45.5310 C   0  0  0  0  0  0  0  0  0  0  0  0
   55.3390   23.0920   45.4600 C   0  0  0  0  0  0  0  0  0  0  0  0
   54.5370   21.9830   45.2000 O   0  0  0  0  0  0  0  0  0  0  0  0
   54.7480   24.3430   45.6480 C   0  0  0  0  0  0  0  0  0  0  0  0
   55.5370   25.4690   45.9080 C   0  0  0  0  0  0  0  0  0  0  0  0
   54.9120   26.7050   46.0440 O   0  0  0  0  0  0  0  0  0  0  0  0
   58.0180   27.4350   45.3030 N   0  0  0  0  0  0  0  0  0  0  0  0
   58.8150   28.5210   45.4760 C   0  0  0  0  0  0  0  0  0  0  0  0
   58.9640   29.6910   44.1190 S   0  0  0  0  0  0  0  0  0  0  0  0
   57.2430   29.4800   43.5290 C   0  0  0  0  0  0  0  0  0  0  0  0
   56.2470   30.0810   44.4840 C   0  0  0  0  0  0  0  0  0  0  0  0
   55.5300   29.3160   45.1830 O   0  0  0  0  0  0  0  0  0  0  0  0
   56.2260   31.4870   44.7670 N   0  0  0  0  0  0  0  0  0  0  0  0
   57.3620   32.3170   45.0320 C   0  0  0  0  0  0  0  0  0  0  0  0
   57.9940   33.0360   44.0070 C   0  0  0  0  0  0  0  0  0  0  0  0
   59.0720   33.8770   44.2960 C   0  0  0  0  0  0  0  0  0  0  0  0
   59.5160   34.0170   45.6130 C   0  0  0  0  0  0  0  0  0  0  0  0
   58.8790   33.3200   46.6480 C   0  0  0  0  0  0  0  0  0  0  0  0
   59.4150   33.5180   48.3140 S   0  0  0  0  0  0  0  0  0  0  0  0
   61.0670   33.0330   48.4500 N   0  0  0  0  0  0  0  0  0  0  0  0
   59.2800   34.9590   48.7210 O   0  0  0  0  0  0  0  0  0  0  0  0
   58.5690   32.6770   49.2280 O   0  0  0  0  0  0  0  0  0  0  0  0
   57.7910   32.4850   46.3550 C   0  0  0  0  0  0  0  0  0  0  0  0
   59.3569   29.9298   49.3633 H   0  0  0  0  0  0  0  0  0  0  0  0
   60.5129   30.1374   51.5645 H   0  0  0  0  0  0  0  0  0  0  0  0
   61.8218   28.2155   52.4768 H   0  0  0  0  0  0  0  0  0  0  0  0
   61.9797   26.0864   51.1827 H   0  0  0  0  0  0  0  0  0  0  0  0
   60.8287   25.8718   48.9808 H   0  0  0  0  0  0  0  0  0  0  0  0
   58.3406   25.9023   48.2974 H   0  0  0  0  0  0  0  0  0  0  0  0
   58.6208   23.9767   45.8387 H   0  0  0  0  0  0  0  0  0  0  0  0
   57.2003   21.9817   45.3794 H   0  0  0  0  0  0  0  0  0  0  0  0
   53.5740   22.0850   44.9020 H   0  0  0  0  0  0  0  0  0  0  0  0
   53.6541   24.4441   45.5913 H   0  0  0  0  0  0  0  0  0  0  0  0
   57.1393   29.9715   42.5504 H   0  0  0  0  0  0  0  0  0  0  0  0
   57.0371   28.4021   43.4538 H   0  0  0  0  0  0  0  0  0  0  0  0
   57.6394   32.9374   42.9704 H   0  0  0  0  0  0  0  0  0  0  0  0
   59.5711   34.4290   43.4860 H   0  0  0  0  0  0  0  0  0  0  0  0
   60.3676   34.6759   45.8380 H   0  0  0  0  0  0  0  0  0  0  0  0
   61.0750   31.9910   48.5110 H   0  0  0  0  0  0  0  0  0  0  0  0
   57.2712   31.9587   47.1691 H   0  0  0  0  0  0  0  0  0  0  0  0
  1  2  3  0
  2  3  1  0
  3  4  2  0
  4  5  1  0
  5  6  2  0
  6  7  1  0
  7  8  2  0
  8  9  1  0
  9 10  2  0
  4 11  1  0
 11 12  2  0
 12 13  1  0
 13 14  2  0
 14 15  1  0
 15 16  2  0
 16 17  1  0
 16 18  1  0
 18 19  2  0
 19 20  1  0
 12 21  1  0
 21 22  2  0
 22 23  1  0
 23 24  1  0
 24 25  1  0
 25 26  2  0
 25 27  1  0
 27 28  1  0
 28 29  2  0
 29 30  1  0
 30 31  2  0
 31 32  1  0
 32 33  1  0
 33 34  1  0
 33 35  2  0
 33 36  2  0
 32 37  2  0
 22  3  1  0
 37 28  1  0
 10  5  1  0
 19 13  1  0
  6 38  1  0
  7 39  1  0
  8 40  1  0
  9 41  1  0
 10 42  1  0
 11 43  1  0
 14 44  1  0
 15 45  1  0
 17 46  1  0
 18 47  1  0
 24 48  1  0
 24 49  1  0
 29 50  1  0
 30 51  1  0
 31 52  1  0
 34 53  1  0
 37 54  1  0
M  CHG  3  20  -1  27  -1  34  -1
M  END
>  <UniqueID>  (80) 
73

>  <SMILES>  (80) 
N#Cc1c(-c2ccccc2)cc(-c2ccc(O)cc2[O-])nc1SCC(=O)[N-]c1cccc(S([NH-])(=O)=O)c1

>  <Energy>  (80) 
71.70247713901256

>  <Genealogy>  (80) 
N#Cc1c(-c2ccccc2)cc(-c2ccc(O)cc2[O-])nc1SCC(=O)[N-]c1cccc(S([NH-])(=O)=O)c1 (protonated)
N#Cc1c(-c2ccccc2)cc(-c2ccc(O)cc2[O-])nc1SCC(=O)[N-]c1cccc(S([NH-])(=O)=O)c1 (3D coordinates assigned)
N#Cc1c(-c2ccccc2)cc(-c2ccc(O)cc2[O-])nc1SCC(=O)[N-]c1cccc(S([NH-])(=O)=O)c1 (optimized conformer: 71.70247713901256 kcal/mol)

>  <smiles>  (80) 
N#Cc1c(-c2ccccc2)cc(-c2ccc(O)cc2O)nc1SCC(=O)Nc1cccc(S(N)(=O)=O)c1

>  <score_type>  (80) 
oracle

>  <origin>  (80) 
adg

>  <m_score__min__energy>  (80) 
-15.84

>  <m_primary>  (80) 
energy

$$$$
80:0
     RDKit          3D

 54 56  0  0  0  0  0  0  0  0999 V2000
   57.9700   22.4650   44.6560 C   0  0  0  0  0  0  0  0  0  0  0  0
   57.8170   23.8590   45.0500 N   0  0  0  0  0  0  0  0  0  0  0  0
   58.9020   24.6070   45.6120 C   0  0  0  0  0  0  0  0  0  0  0  0
   59.9740   24.0220   45.9270 O   0  0  0  0  0  0  0  0  0  0  0  0
   58.7620   26.0560   45.8770 C   0  0  0  0  0  0  0  0  0  0  0  0
   59.1660   26.5430   47.1310 C   0  0  0  0  0  0  0  0  0  0  0  0
   59.0270   27.8920   47.4490 C   0  0  0  0  0  0  0  0  0  0  0  0
   58.4630   28.7720   46.5300 C   0  0  0  0  0  0  0  0  0  0  0  0
   58.0410   28.3160   45.2770 C   0  0  0  0  0  0  0  0  0  0  0  0
   57.4400   29.2630   44.3830 N   0  0  0  0  0  0  0  0  0  0  0  0
   56.2600   30.0070   44.6930 C   0  0  0  0  0  0  0  0  0  0  0  0
   55.1670   29.3970   44.8270 O   0  0  0  0  0  0  0  0  0  0  0  0
   56.3320   31.4300   44.8700 N   0  0  0  0  0  0  0  0  0  0  0  0
   57.4440   32.1780   45.3810 C   0  0  0  0  0  0  0  0  0  0  0  0
   58.1400   33.0180   44.5080 C   0  0  0  0  0  0  0  0  0  0  0  0
   59.2260   33.7670   44.9630 C   0  0  0  0  0  0  0  0  0  0  0  0
   59.6320   33.6920   46.3000 C   0  0  0  0  0  0  0  0  0  0  0  0
   60.7650   34.4690   46.7110 N   0  0  0  0  0  0  0  0  0  0  0  0
   62.1070   33.9700   46.7660 C   0  0  0  0  0  0  0  0  0  0  0  0
   62.7690   33.8400   45.7000 O   0  0  0  0  0  0  0  0  0  0  0  0
   62.7250   33.6370   48.0700 C   0  0  0  0  0  0  0  0  0  0  0  0
   63.7630   32.6920   48.1510 C   0  0  0  0  0  0  0  0  0  0  0  0
   64.3480   32.3830   49.3820 C   0  0  0  0  0  0  0  0  0  0  0  0
   63.9060   33.0130   50.5530 C   0  0  0  0  0  0  0  0  0  0  0  0
   64.5080   32.7010   51.8120 N   0  0  0  0  0  0  0  0  0  0  0  0
   62.8720   33.9560   50.4800 C   0  0  0  0  0  0  0  0  0  0  0  0
   62.2860   34.2660   49.2500 C   0  0  0  0  0  0  0  0  0  0  0  0
   58.8840   32.9110   47.2130 C   0  0  0  0  0  0  0  0  0  0  0  0
   59.2010   32.8860   48.6850 C   0  0  0  0  0  0  0  0  0  0  0  0
   57.8070   32.1430   46.7390 C   0  0  0  0  0  0  0  0  0  0  0  0
   58.2460   26.9610   44.9100 C   0  0  0  0  0  0  0  0  0  0  0  0
   57.9880   26.5090   43.4900 C   0  0  0  0  0  0  0  0  0  0  0  0
   58.0391   21.8353   45.5553 H   0  0  0  0  0  0  0  0  0  0  0  0
   57.1004   22.1555   44.0576 H   0  0  0  0  0  0  0  0  0  0  0  0
   58.8860   22.3515   44.0576 H   0  0  0  0  0  0  0  0  0  0  0  0
   56.8800   24.3080   44.9460 H   0  0  0  0  0  0  0  0  0  0  0  0
   59.5969   25.8515   47.8700 H   0  0  0  0  0  0  0  0  0  0  0  0
   59.3637   28.2626   48.4285 H   0  0  0  0  0  0  0  0  0  0  0  0
   58.3483   29.8344   46.7912 H   0  0  0  0  0  0  0  0  0  0  0  0
   57.8299   33.0894   43.4550 H   0  0  0  0  0  0  0  0  0  0  0  0
   59.7675   34.4220   44.2646 H   0  0  0  0  0  0  0  0  0  0  0  0
   64.1176   32.1917   47.2378 H   0  0  0  0  0  0  0  0  0  0  0  0
   65.1592   31.6418   49.4319 H   0  0  0  0  0  0  0  0  0  0  0  0
   64.0610   33.0020   52.7070 H   0  0  0  0  0  0  0  0  0  0  0  0
   65.4040   32.1660   51.8580 H   0  0  0  0  0  0  0  0  0  0  0  0
   62.5200   34.4545   51.3952 H   0  0  0  0  0  0  0  0  0  0  0  0
   61.4750   35.0077   49.2036 H   0  0  0  0  0  0  0  0  0  0  0  0
   58.2676   32.9596   49.2624 H   0  0  0  0  0  0  0  0  0  0  0  0
   59.7129   31.9447   48.9339 H   0  0  0  0  0  0  0  0  0  0  0  0
   59.8541   33.7354   48.9339 H   0  0  0  0  0  0  0  0  0  0  0  0
   57.2421   31.5080   47.4373 H   0  0  0  0  0  0  0  0  0  0  0  0
   57.4427   25.5537   43.5026 H   0  0  0  0  0  0  0  0  0  0  0  0
   57.3868   27.2675   42.9673 H   0  0  0  0  0  0  0  0  0  0  0  0
   58.9468   26.3770   42.9673 H   0  0  0  0  0  0  0  0  0  0  0  0
  1  2  1  0
  2  3  1  0
  3  4  2  0
  3  5  1  0
  5  6  2  0
  6  7  1  0
  7  8  2  0
  8  9  1  0
  9 10  1  0
 10 11  1  0
 11 12  2  0
 11 13  1  0
 13 14  1  0
 14 15  2  0
 15 16  1  0
 16 17  2  0
 17 18  1  0
 18 19  1  0
 19 20  2  0
 19 21  1  0
 21 22  2  0
 22 23  1  0
 23 24  2  0
 24 25  1  0
 24 26  1  0
 26 27  2  0
 17 28  1  0
 28 29  1  0
 28 30  2  0
  9 31  2  0
 31 32  1  0
 31  5  1  0
 30 14  1  0
 27 21  1  0
  1 33  1  0
  1 34  1  0
  1 35  1  0
  2 36  1  0
  6 37  1  0
  7 38  1  0
  8 39  1  0
 15 40  1  0
 16 41  1  0
 22 42  1  0
 23 43  1  0
 25 44  1  0
 25 45  1  0
 26 46  1  0
 27 47  1  0
 29 48  1  0
 29 49  1  0
 29 50  1  0
 30 51  1  0
 32 52  1  0
 32 53  1  0
 32 54  1  0
M  CHG  3  10  -1  13  -1  18  -1
M  END
>  <UniqueID>  (81) 
74

>  <SMILES>  (81) 
CNC(=O)c1cccc([N-]C(=O)[N-]c2ccc([N-]C(=O)c3ccc(N)cc3)c(C)c2)c1C

>  <Energy>  (81) 
76.00943884825439

>  <Genealogy>  (81) 
CNC(=O)c1cccc([N-]C(=O)[N-]c2ccc([N-]C(=O)c3ccc(N)cc3)c(C)c2)c1C (protonated)
CNC(=O)c1cccc([N-]C(=O)[N-]c2ccc([N-]C(=O)c3ccc(N)cc3)c(C)c2)c1C (3D coordinates assigned)
CNC(=O)c1cccc([N-]C(=O)[N-]c2ccc([N-]C(=O)c3ccc(N)cc3)c(C)c2)c1C (optimized conformer: 76.00943884825439 kcal/mol)

>  <smiles>  (81) 
CNC(=O)c1cccc(NC(=O)Nc2ccc(NC(=O)c3ccc(N)cc3)c(C)c2)c1C

>  <score_type>  (81) 
oracle

>  <origin>  (81) 
adg

>  <m_score__min__energy>  (81) 
-12.27

>  <m_primary>  (81) 
energy

$$$$
81:0
     RDKit          3D

 45 46  0  0  0  0  0  0  0  0999 V2000
   63.4790   32.7380   48.3750 C   0  0  0  0  0  0  0  0  0  0  0  0
   62.4210   33.6620   48.6060 O   0  0  0  0  0  0  0  0  0  0  0  0
   61.2770   33.7860   47.7990 C   0  0  0  0  0  0  0  0  0  0  0  0
   61.3660   33.8600   46.3930 C   0  0  0  0  0  0  0  0  0  0  0  0
   60.2110   33.9780   45.6170 C   0  0  0  0  0  0  0  0  0  0  0  0
   58.9560   34.0260   46.2280 C   0  0  0  0  0  0  0  0  0  0  0  0
   57.5080   34.1680   45.2480 Cl  0  0  0  0  0  0  0  0  0  0  0  0
   58.8550   33.9540   47.6190 C   0  0  0  0  0  0  0  0  0  0  0  0
   60.0070   33.8310   48.4130 C   0  0  0  0  0  0  0  0  0  0  0  0
   59.8760   33.7360   49.9160 C   0  0  0  0  0  0  0  0  0  0  0  0
   59.7070   32.3300   50.3330 N   0  0  0  0  0  0  0  0  0  0  0  0
   59.3420   32.2590   51.7580 C   0  0  0  0  0  0  0  0  0  0  0  0
   58.7040   31.6300   49.5020 C   0  0  0  0  0  0  0  0  0  0  0  0
   58.8330   30.1530   49.7040 C   0  0  0  0  0  0  0  0  0  0  0  0
   58.2490   29.6000   50.6760 O   0  0  0  0  0  0  0  0  0  0  0  0
   59.5530   29.3770   48.7380 N   0  0  0  0  0  0  0  0  0  0  0  0
   59.0170   28.7670   47.5560 C   0  0  0  0  0  0  0  0  0  0  0  0
   59.2760   27.4110   47.3270 C   0  0  0  0  0  0  0  0  0  0  0  0
   58.7550   26.7720   46.1980 C   0  0  0  0  0  0  0  0  0  0  0  0
   57.9510   27.4790   45.3020 C   0  0  0  0  0  0  0  0  0  0  0  0
   57.6540   28.8290   45.5360 C   0  0  0  0  0  0  0  0  0  0  0  0
   56.6190   29.7040   44.4120 S   0  0  0  0  0  0  0  0  0  0  0  0
   56.9920   29.2250   42.7930 N   0  0  0  0  0  0  0  0  0  0  0  0
   56.8370   31.1850   44.5560 O   0  0  0  0  0  0  0  0  0  0  0  0
   55.1790   29.3970   44.7140 O   0  0  0  0  0  0  0  0  0  0  0  0
   58.1870   29.4720   46.6630 C   0  0  0  0  0  0  0  0  0  0  0  0
   63.8783   32.3893   49.3388 H   0  0  0  0  0  0  0  0  0  0  0  0
   63.0973   31.8789   47.8038 H   0  0  0  0  0  0  0  0  0  0  0  0
   64.2789   33.2318   47.8038 H   0  0  0  0  0  0  0  0  0  0  0  0
   62.3512   33.8245   45.9050 H   0  0  0  0  0  0  0  0  0  0  0  0
   60.2899   34.0333   44.5212 H   0  0  0  0  0  0  0  0  0  0  0  0
   57.8650   33.9939   48.0968 H   0  0  0  0  0  0  0  0  0  0  0  0
   60.7826   34.1461   50.3849 H   0  0  0  0  0  0  0  0  0  0  0  0
   58.9923   34.3094   50.2328 H   0  0  0  0  0  0  0  0  0  0  0  0
   60.2361   32.4329   52.3746 H   0  0  0  0  0  0  0  0  0  0  0  0
   58.5871   33.0271   51.9819 H   0  0  0  0  0  0  0  0  0  0  0  0
   58.9301   31.2639   51.9819 H   0  0  0  0  0  0  0  0  0  0  0  0
   57.6944   31.9535   49.7954 H   0  0  0  0  0  0  0  0  0  0  0  0
   58.8726   31.8715   48.4422 H   0  0  0  0  0  0  0  0  0  0  0  0
   59.8933   26.8444   48.0397 H   0  0  0  0  0  0  0  0  0  0  0  0
   58.9789   25.7106   46.0154 H   0  0  0  0  0  0  0  0  0  0  0  0
   57.5495   26.9755   44.4102 H   0  0  0  0  0  0  0  0  0  0  0  0
   58.0310   29.2390   42.7000 H   0  0  0  0  0  0  0  0  0  0  0  0
   56.6930   28.2270   42.6970 H   0  0  0  0  0  0  0  0  0  0  0  0
   57.9558   30.5310   46.8500 H   0  0  0  0  0  0  0  0  0  0  0  0
  1  2  1  0
  2  3  1  0
  3  4  2  0
  4  5  1  0
  5  6  2  0
  6  7  1  0
  6  8  1  0
  8  9  2  0
  9 10  1  0
 10 11  1  0
 11 12  1  0
 11 13  1  0
 13 14  1  0
 14 15  2  0
 14 16  1  0
 16 17  1  0
 17 18  2  0
 18 19  1  0
 19 20  2  0
 20 21  1  0
 21 22  1  0
 22 23  1  0
 22 24  2  0
 22 25  2  0
 21 26  2  0
  9  3  1  0
 26 17  1  0
  1 27  1  0
  1 28  1  0
  1 29  1  0
  4 30  1  0
  5 31  1  0
  8 32  1  0
 10 33  1  0
 10 34  1  0
 12 35  1  0
 12 36  1  0
 12 37  1  0
 13 38  1  0
 13 39  1  0
 18 40  1  0
 19 41  1  0
 20 42  1  0
 23 43  1  0
 23 44  1  0
 26 45  1  0
M  CHG  1  16  -1
M  END
>  <UniqueID>  (82) 
75

>  <SMILES>  (82) 
COc1ccc(Cl)cc1CN(C)CC(=O)[N-]c1cccc(S(N)(=O)=O)c1

>  <Energy>  (82) 
45.627550745273446

>  <Genealogy>  (82) 
COc1ccc(Cl)cc1CN(C)CC(=O)[N-]c1cccc(S(N)(=O)=O)c1 (protonated)
COc1ccc(Cl)cc1CN(C)CC(=O)[N-]c1cccc(S(N)(=O)=O)c1 (3D coordinates assigned)
COc1ccc(Cl)cc1CN(C)CC(=O)[N-]c1cccc(S(N)(=O)=O)c1 (optimized conformer: 45.627550745273446 kcal/mol)

>  <smiles>  (82) 
COc1ccc(Cl)cc1CN(C)CC(=O)Nc1cccc(S(N)(=O)=O)c1

>  <score_type>  (82) 
oracle

>  <origin>  (82) 
adg

>  <m_score__min__energy>  (82) 
-10.17

>  <m_primary>  (82) 
energy

$$$$
82:0
     RDKit          3D

 47 49  0  0  0  0  0  0  0  0999 V2000
   65.2880   32.6860   49.6750 C   0  0  0  0  0  0  0  0  0  0  0  0
   64.0630   33.0100   48.8840 C   0  0  0  0  0  0  0  0  0  0  0  0
   64.1330   33.0540   47.6270 O   0  0  0  0  0  0  0  0  0  0  0  0
   62.8460   33.3590   49.5600 N   0  0  0  0  0  0  0  0  0  0  0  0
   61.5740   33.4650   48.9020 C   0  0  0  0  0  0  0  0  0  0  0  0
   60.4610   32.7990   49.4360 C   0  0  0  0  0  0  0  0  0  0  0  0
   59.2160   32.8920   48.8090 C   0  0  0  0  0  0  0  0  0  0  0  0
   59.0680   33.6510   47.6370 C   0  0  0  0  0  0  0  0  0  0  0  0
   57.8000   33.7660   46.9830 N   0  0  0  0  0  0  0  0  0  0  0  0
   57.4920   33.2500   45.6820 C   0  0  0  0  0  0  0  0  0  0  0  0
   56.7070   33.8980   44.9400 O   0  0  0  0  0  0  0  0  0  0  0  0
   57.9780   31.9020   45.2280 C   0  0  0  0  0  0  0  0  0  0  0  0
   56.7620   31.1150   44.1200 S   0  0  0  0  0  0  0  0  0  0  0  0
   57.0440   29.4470   44.7170 C   0  0  0  0  0  0  0  0  0  0  0  0
   58.3110   28.9740   44.8190 N   0  0  0  0  0  0  0  0  0  0  0  0
   58.5630   27.7400   45.3280 C   0  0  0  0  0  0  0  0  0  0  0  0
   59.7550   27.3420   45.4110 O   0  0  0  0  0  0  0  0  0  0  0  0
   57.5000   26.9320   45.7730 C   0  0  0  0  0  0  0  0  0  0  0  0
   57.7460   25.5900   46.4270 C   0  0  0  0  0  0  0  0  0  0  0  0
   57.6310   24.4570   45.4420 C   0  0  0  0  0  0  0  0  0  0  0  0
   56.5340   24.3840   44.5660 C   0  0  0  0  0  0  0  0  0  0  0  0
   56.4050   23.3040   43.6870 C   0  0  0  0  0  0  0  0  0  0  0  0
   57.3740   22.2990   43.6650 C   0  0  0  0  0  0  0  0  0  0  0  0
   58.4760   22.3710   44.5220 C   0  0  0  0  0  0  0  0  0  0  0  0
   58.6030   23.4440   45.4100 C   0  0  0  0  0  0  0  0  0  0  0  0
   56.1940   27.4330   45.6210 C   0  0  0  0  0  0  0  0  0  0  0  0
   55.0940   26.6760   46.0060 O   0  0  0  0  0  0  0  0  0  0  0  0
   55.9970   28.6770   45.1100 N   0  0  0  0  0  0  0  0  0  0  0  0
   60.1900   34.2610   47.0670 C   0  0  0  0  0  0  0  0  0  0  0  0
   61.4330   34.1770   47.6980 C   0  0  0  0  0  0  0  0  0  0  0  0
   65.0578   32.7469   50.7489 H   0  0  0  0  0  0  0  0  0  0  0  0
   65.6245   31.6680   49.4293 H   0  0  0  0  0  0  0  0  0  0  0  0
   66.0838   33.4045   49.4293 H   0  0  0  0  0  0  0  0  0  0  0  0
   62.9070   33.6330   50.5680 H   0  0  0  0  0  0  0  0  0  0  0  0
   60.5689   32.2007   50.3527 H   0  0  0  0  0  0  0  0  0  0  0  0
   58.3477   32.3682   49.2354 H   0  0  0  0  0  0  0  0  0  0  0  0
   58.9298   32.0241   44.6903 H   0  0  0  0  0  0  0  0  0  0  0  0
   58.1168   31.2613   46.1113 H   0  0  0  0  0  0  0  0  0  0  0  0
   58.7577   25.5847   46.8588 H   0  0  0  0  0  0  0  0  0  0  0  0
   56.9824   25.4445   47.2053 H   0  0  0  0  0  0  0  0  0  0  0  0
   55.7742   25.1794   44.5720 H   0  0  0  0  0  0  0  0  0  0  0  0
   55.5386   23.2462   43.0117 H   0  0  0  0  0  0  0  0  0  0  0  0
   57.2702   21.4502   42.9730 H   0  0  0  0  0  0  0  0  0  0  0  0
   59.2436   21.5834   44.4979 H   0  0  0  0  0  0  0  0  0  0  0  0
   59.4687   23.4947   46.0868 H   0  0  0  0  0  0  0  0  0  0  0  0
   60.0931   34.8090   46.1181 H   0  0  0  0  0  0  0  0  0  0  0  0
   62.3076   34.6712   47.2500 H   0  0  0  0  0  0  0  0  0  0  0  0
  1  2  1  0
  2  3  2  0
  2  4  1  0
  4  5  1  0
  5  6  2  0
  6  7  1  0
  7  8  2  0
  8  9  1  0
  9 10  1  0
 10 11  2  0
 10 12  1  0
 12 13  1  0
 13 14  1  0
 14 15  2  0
 15 16  1  0
 16 17  2  0
 16 18  1  0
 18 19  1  0
 19 20  1  0
 20 21  2  0
 21 22  1  0
 22 23  2  0
 23 24  1  0
 24 25  2  0
 18 26  2  0
 26 27  1  0
 26 28  1  0
  8 29  1  0
 29 30  2  0
 30  5  1  0
 28 14  1  0
 25 20  1  0
  1 31  1  0
  1 32  1  0
  1 33  1  0
  4 34  1  0
  6 35  1  0
  7 36  1  0
 12 37  1  0
 12 38  1  0
 19 39  1  0
 19 40  1  0
 21 41  1  0
 22 42  1  0
 23 43  1  0
 24 44  1  0
 25 45  1  0
 29 46  1  0
 30 47  1  0
M  CHG  3   9  -1  27  -1  28  -1
M  END
>  <UniqueID>  (83) 
76

>  <SMILES>  (83) 
CC(=O)Nc1ccc([N-]C(=O)CSc2nc(=O)c(Cc3ccccc3)c([O-])[n-]2)cc1

>  <Energy>  (83) 
48.115383311799214

>  <Genealogy>  (83) 
CC(=O)Nc1ccc([N-]C(=O)CSc2nc(=O)c(Cc3ccccc3)c([O-])[n-]2)cc1 (protonated)
CC(=O)Nc1ccc([N-]C(=O)CSc2nc(=O)c(Cc3ccccc3)c([O-])[n-]2)cc1 (3D coordinates assigned)
CC(=O)Nc1ccc([N-]C(=O)CSc2nc(=O)c(Cc3ccccc3)c([O-])[n-]2)cc1 (optimized conformer: 48.115383311799214 kcal/mol)

>  <smiles>  (83) 
CC(=O)Nc1ccc(NC(=O)CSc2nc(=O)c(Cc3ccccc3)c(O)[nH]2)cc1

>  <score_type>  (83) 
oracle

>  <origin>  (83) 
adg

>  <m_score__min__energy>  (83) 
-14.69

>  <m_primary>  (83) 
energy

$$$$
83:0
     RDKit          3D

 32 33  0  0  0  0  0  0  0  0999 V2000
   59.6800   35.7100   46.7580 N   0  0  0  0  0  0  0  0  0  0  0  0
   58.9080   34.6120   46.2650 C   0  0  0  0  0  0  0  0  0  0  0  0
   58.5600   33.5550   47.1170 C   0  0  0  0  0  0  0  0  0  0  0  0
   57.8060   32.4810   46.6350 C   0  0  0  0  0  0  0  0  0  0  0  0
   57.3910   32.4480   45.2990 C   0  0  0  0  0  0  0  0  0  0  0  0
   56.6370   31.3490   44.8640 O   0  0  0  0  0  0  0  0  0  0  0  0
   56.7540   30.7430   43.5810 C   0  0  0  0  0  0  0  0  0  0  0  0
   56.0760   29.3740   43.5820 C   0  0  0  0  0  0  0  0  0  0  0  0
   55.9850   28.8490   44.9070 O   0  0  0  0  0  0  0  0  0  0  0  0
   57.0150   28.2040   45.6130 C   0  0  0  0  0  0  0  0  0  0  0  0
   58.1500   28.9540   45.9530 C   0  0  0  0  0  0  0  0  0  0  0  0
   59.2050   28.3700   46.6600 C   0  0  0  0  0  0  0  0  0  0  0  0
   59.1370   27.0250   47.0300 C   0  0  0  0  0  0  0  0  0  0  0  0
   58.0170   26.2630   46.6900 C   0  0  0  0  0  0  0  0  0  0  0  0
   56.9600   26.8430   45.9800 C   0  0  0  0  0  0  0  0  0  0  0  0
   57.7400   33.5100   44.4430 C   0  0  0  0  0  0  0  0  0  0  0  0
   58.4950   34.5850   44.9260 C   0  0  0  0  0  0  0  0  0  0  0  0
   59.2120   36.5650   47.1360 H   0  0  0  0  0  0  0  0  0  0  0  0
   60.7230   35.6770   46.7490 H   0  0  0  0  0  0  0  0  0  0  0  0
   58.8814   33.5705   48.1689 H   0  0  0  0  0  0  0  0  0  0  0  0
   57.5370   31.6559   47.3108 H   0  0  0  0  0  0  0  0  0  0  0  0
   56.2729   31.3865   42.8297 H   0  0  0  0  0  0  0  0  0  0  0  0
   57.8195   30.6163   43.3390 H   0  0  0  0  0  0  0  0  0  0  0  0
   55.0633   29.4738   43.1643 H   0  0  0  0  0  0  0  0  0  0  0  0
   56.6781   28.6843   42.9723 H   0  0  0  0  0  0  0  0  0  0  0  0
   58.2108   30.0126   45.6604 H   0  0  0  0  0  0  0  0  0  0  0  0
   60.0884   28.9695   46.9248 H   0  0  0  0  0  0  0  0  0  0  0  0
   59.9655   26.5658   47.5892 H   0  0  0  0  0  0  0  0  0  0  0  0
   57.9657   25.2035   46.9813 H   0  0  0  0  0  0  0  0  0  0  0  0
   56.0840   26.2362   45.7073 H   0  0  0  0  0  0  0  0  0  0  0  0
   57.4182   33.4948   43.3912 H   0  0  0  0  0  0  0  0  0  0  0  0
   58.7652   35.4115   44.2523 H   0  0  0  0  0  0  0  0  0  0  0  0
  1  2  1  0
  2  3  2  0
  3  4  1  0
  4  5  2  0
  5  6  1  0
  6  7  1  0
  7  8  1  0
  8  9  1  0
  9 10  1  0
 10 11  2  0
 11 12  1  0
 12 13  2  0
 13 14  1  0
 14 15  2  0
  5 16  1  0
 16 17  2  0
 17  2  1  0
 15 10  1  0
  1 18  1  0
  1 19  1  0
  3 20  1  0
  4 21  1  0
  7 22  1  0
  7 23  1  0
  8 24  1  0
  8 25  1  0
 11 26  1  0
 12 27  1  0
 13 28  1  0
 14 29  1  0
 15 30  1  0
 16 31  1  0
 17 32  1  0
M  END
>  <UniqueID>  (84) 
77

>  <SMILES>  (84) 
Nc1ccc(OCCOc2ccccc2)cc1

>  <Energy>  (84) 
29.698038105453715

>  <Genealogy>  (84) 
Nc1ccc(OCCOc2ccccc2)cc1 (3D coordinates assigned)
Nc1ccc(OCCOc2ccccc2)cc1 (optimized conformer: 29.698038105453715 kcal/mol)

>  <smiles>  (84) 
Nc1ccc(OCCOc2ccccc2)cc1

>  <score_type>  (84) 
oracle

>  <origin>  (84) 
adg

>  <m_score__min__energy>  (84) 
-6.1600000000000001

>  <m_primary>  (84) 
energy

$$$$
84:0
     RDKit          3D

 78 82  0  0  0  0  0  0  0  0999 V2000
   60.5970   28.5200   52.6660 C   0  0  0  0  0  0  0  0  0  0  0  0
   61.0030   29.9310   52.2210 C   0  0  1  0  0  0  0  0  0  0  0  0
   61.8970   29.8640   50.9680 C   0  0  0  0  0  0  0  0  0  0  0  0
   61.1570   30.2210   49.7530 N   0  0  0  0  0  0  0  0  0  0  0  0
   60.4670   29.2330   48.9780 C   0  0  0  0  0  0  0  0  0  0  0  0
   60.2700   28.0900   49.4710 O   0  0  0  0  0  0  0  0  0  0  0  0
   59.9230   29.5460   47.6280 C   0  0  0  0  0  0  0  0  0  0  0  0
   59.0960   28.5830   46.9860 C   0  0  0  0  0  0  0  0  0  0  0  0
   58.9370   27.2600   47.5140 N   0  0  0  0  0  0  0  0  0  0  0  0
   59.1900   26.0620   46.7210 C   0  0  0  0  0  0  0  0  0  0  0  0
   57.9060   25.5710   46.1200 C   0  0  0  0  0  0  0  0  0  0  0  0
   57.8580   24.7430   44.9910 C   0  0  0  0  0  0  0  0  0  0  0  0
   56.5690   24.4170   44.5920 C   0  0  0  0  0  0  0  0  0  0  0  0
   55.4900   25.1910   45.6250 S   0  0  0  0  0  0  0  0  0  0  0  0
   56.6460   25.9260   46.6010 C   0  0  0  0  0  0  0  0  0  0  0  0
   58.4780   28.8960   45.7680 C   0  0  0  0  0  0  0  0  0  0  0  0
   58.6970   30.1180   45.1540 C   0  0  0  0  0  0  0  0  0  0  0  0
   59.5590   31.0430   45.7320 C   0  0  0  0  0  0  0  0  0  0  0  0
   60.2040   30.7780   46.9540 C   0  0  0  0  0  0  0  0  0  0  0  0
   61.3720   32.0020   47.5280 S   0  0  0  0  0  0  0  0  0  0  0  0
   61.8440   32.8240   46.3720 O   0  0  0  0  0  0  0  0  0  0  0  0
   62.5820   31.2710   48.0440 O   0  0  0  0  0  0  0  0  0  0  0  0
   60.7880   33.0930   48.7760 N   0  0  0  0  0  0  0  0  0  0  0  0
   61.6910   34.1200   49.3240 C   0  0  0  0  0  0  0  0  0  0  0  0
   62.9550   33.5570   49.9310 C   0  0  0  0  0  0  0  0  0  0  0  0
   62.9670   33.1090   51.2660 C   0  0  0  0  0  0  0  0  0  0  0  0
   64.1160   32.5280   51.8120 C   0  0  0  0  0  0  0  0  0  0  0  0
   65.2610   32.3750   51.0250 C   0  0  0  0  0  0  0  0  0  0  0  0
   65.2690   32.8320   49.7060 C   0  0  0  0  0  0  0  0  0  0  0  0
   64.1220   33.4310   49.1630 C   0  0  0  0  0  0  0  0  0  0  0  0
   59.3360   33.3510   48.8070 C   0  0  0  0  0  0  0  0  0  0  0  0
   58.8750   33.7260   47.4280 C   0  0  0  0  0  0  0  0  0  0  0  0
   57.6530   33.2420   46.9290 C   0  0  0  0  0  0  0  0  0  0  0  0
   57.2290   33.6030   45.6500 C   0  0  0  0  0  0  0  0  0  0  0  0
   58.0060   34.4680   44.8670 C   0  0  0  0  0  0  0  0  0  0  0  0
   59.2090   34.9670   45.3680 C   0  0  0  0  0  0  0  0  0  0  0  0
   59.6360   34.6110   46.6500 C   0  0  0  0  0  0  0  0  0  0  0  0
   59.7730   30.7940   52.0020 C   0  0  0  0  0  0  0  0  0  0  0  0
   58.5740   30.2040   51.5570 C   0  0  0  0  0  0  0  0  0  0  0  0
   57.4290   30.9830   51.3670 C   0  0  0  0  0  0  0  0  0  0  0  0
   57.4690   32.3590   51.5980 C   0  0  0  0  0  0  0  0  0  0  0  0
   58.6610   32.9600   52.0080 C   0  0  0  0  0  0  0  0  0  0  0  0
   59.8040   32.1830   52.2150 C   0  0  0  0  0  0  0  0  0  0  0  0
   60.5831   28.4719   53.7649 H   0  0  0  0  0  0  0  0  0  0  0  0
   59.5953   28.2866   52.2761 H   0  0  0  0  0  0  0  0  0  0  0  0
   61.3215   27.7899   52.2761 H   0  0  0  0  0  0  0  0  0  0  0  0
   61.5944   30.4032   53.0193 H   0  0  0  0  0  0  0  0  0  0  0  0
   62.7372   30.5631   51.0919 H   0  0  0  0  0  0  0  0  0  0  0  0
   62.2567   28.8302   50.8587 H   0  0  0  0  0  0  0  0  0  0  0  0
   60.9770   31.2290   49.5450 H   0  0  0  0  0  0  0  0  0  0  0  0
   58.5940   27.1440   48.4930 H   0  0  0  0  0  0  0  0  0  0  0  0
   59.9023   26.2996   45.9172 H   0  0  0  0  0  0  0  0  0  0  0  0
   59.6109   25.2791   47.3691 H   0  0  0  0  0  0  0  0  0  0  0  0
   58.7577   24.3846   44.4694 H   0  0  0  0  0  0  0  0  0  0  0  0
   56.2999   23.7658   43.7473 H   0  0  0  0  0  0  0  0  0  0  0  0
   56.4436   26.5733   47.4670 H   0  0  0  0  0  0  0  0  0  0  0  0
   57.8104   28.1618   45.2934 H   0  0  0  0  0  0  0  0  0  0  0  0
   58.1885   30.3568   44.2083 H   0  0  0  0  0  0  0  0  0  0  0  0
   59.7404   32.0015   45.2237 H   0  0  0  0  0  0  0  0  0  0  0  0
   61.9718   34.8051   48.5105 H   0  0  0  0  0  0  0  0  0  0  0  0
   61.1456   34.6289   50.1324 H   0  0  0  0  0  0  0  0  0  0  0  0
   62.0642   33.2170   51.8851 H   0  0  0  0  0  0  0  0  0  0  0  0
   64.1187   32.1919   52.8594 H   0  0  0  0  0  0  0  0  0  0  0  0
   66.1565   31.8941   51.4454 H   0  0  0  0  0  0  0  0  0  0  0  0
   66.1750   32.7225   49.0919 H   0  0  0  0  0  0  0  0  0  0  0  0
   64.1382   33.8042   48.1284 H   0  0  0  0  0  0  0  0  0  0  0  0
   58.8077   32.4449   49.1385 H   0  0  0  0  0  0  0  0  0  0  0  0
   59.1199   34.1720   49.5065 H   0  0  0  0  0  0  0  0  0  0  0  0
   57.0309   32.5783   47.5475 H   0  0  0  0  0  0  0  0  0  0  0  0
   56.2818   33.2076   45.2545 H   0  0  0  0  0  0  0  0  0  0  0  0
   57.6681   34.7528   43.8597 H   0  0  0  0  0  0  0  0  0  0  0  0
   59.8222   35.6418   44.7527 H   0  0  0  0  0  0  0  0  0  0  0  0
   60.5725   35.0263   47.0506 H   0  0  0  0  0  0  0  0  0  0  0  0
   58.5384   29.1228   51.3576 H   0  0  0  0  0  0  0  0  0  0  0  0
   56.4933   30.5100   51.0343 H   0  0  0  0  0  0  0  0  0  0  0  0
   56.5640   32.9683   51.4575 H   0  0  0  0  0  0  0  0  0  0  0  0
   58.7003   34.0475   52.1684 H   0  0  0  0  0  0  0  0  0  0  0  0
   60.7363   32.6627   52.5476 H   0  0  0  0  0  0  0  0  0  0  0  0
  1  2  1  0
  2  3  1  0
  3  4  1  0
  4  5  1  0
  5  6  2  0
  5  7  1  0
  7  8  1  0
  8  9  1  0
  9 10  1  0
 10 11  1  0
 11 12  1  0
 12 13  2  0
 13 14  1  0
 14 15  1  0
  8 16  2  0
 16 17  1  0
 17 18  2  0
 18 19  1  0
 19 20  1  0
 20 21  2  0
 20 22  2  0
 20 23  1  0
 23 24  1  0
 24 25  1  0
 25 26  2  0
 26 27  1  0
 27 28  2  0
 28 29  1  0
 29 30  2  0
 23 31  1  0
 31 32  1  0
 32 33  2  0
 33 34  1  0
 34 35  2  0
 35 36  1  0
 36 37  2  0
  2 38  1  0
 38 39  2  0
 39 40  1  0
 40 41  2  0
 41 42  1  0
 42 43  2  0
 19  7  2  0
 30 25  1  0
 37 32  1  0
 43 38  1  0
 15 11  2  0
  1 44  1  0
  1 45  1  0
  1 46  1  0
  2 47  1  1
  3 48  1  0
  3 49  1  0
  4 50  1  0
  9 51  1  0
 10 52  1  0
 10 53  1  0
 12 54  1  0
 13 55  1  0
 15 56  1  0
 16 57  1  0
 17 58  1  0
 18 59  1  0
 24 60  1  0
 24 61  1  0
 26 62  1  0
 27 63  1  0
 28 64  1  0
 29 65  1  0
 30 66  1  0
 31 67  1  0
 31 68  1  0
 33 69  1  0
 34 70  1  0
 35 71  1  0
 36 72  1  0
 37 73  1  0
 39 74  1  0
 40 75  1  0
 41 76  1  0
 42 77  1  0
 43 78  1  0
M  END
>  <UniqueID>  (85) 
78

>  <SMILES>  (85) 
C[C@@H](CNC(=O)c1c(NCc2ccsc2)cccc1S(=O)(=O)N(Cc1ccccc1)Cc1ccccc1)c1ccccc1

>  <Energy>  (85) 
135.37987103981968

>  <Genealogy>  (85) 
C[C@@H](CNC(=O)c1c(NCc2ccsc2)cccc1S(=O)(=O)N(Cc1ccccc1)Cc1ccccc1)c1ccccc1 (chirality)
C[C@@H](CNC(=O)c1c(NCc2ccsc2)cccc1S(=O)(=O)N(Cc1ccccc1)Cc1ccccc1)c1ccccc1 (3D coordinates assigned)
C[C@@H](CNC(=O)c1c(NCc2ccsc2)cccc1S(=O)(=O)N(Cc1ccccc1)Cc1ccccc1)c1ccccc1 (optimized conformer: 135.37987103981968 kcal/mol)

>  <smiles>  (85) 
CC(CNC(=O)c1c(NCc2ccsc2)cccc1S(=O)(=O)N(Cc1ccccc1)Cc1ccccc1)c1ccccc1

>  <score_type>  (85) 
oracle

>  <origin>  (85) 
adg

>  <m_score__min__energy>  (85) 
-11.119999999999999

>  <m_primary>  (85) 
energy

$$$$
85:0
     RDKit          3D

 41 43  0  0  0  0  0  0  0  0999 V2000
   55.5200   28.8440   45.0360 O   0  0  0  0  0  0  0  0  0  0  0  0
   56.7570   28.9890   44.8400 C   0  0  0  0  0  0  0  0  0  0  0  0
   57.6550   27.8970   45.0990 N   0  0  0  0  0  0  0  0  0  0  0  0
   57.3390   26.7830   45.9510 C   0  0  0  0  0  0  0  0  0  0  0  0
   56.0480   26.2440   45.9510 C   0  0  0  0  0  0  0  0  0  0  0  0
   55.7520   25.1780   46.7380 N   0  0  0  0  0  0  0  0  0  0  0  0
   56.7020   24.6050   47.5230 C   0  0  0  0  0  0  0  0  0  0  0  0
   56.4080   23.6190   48.2460 O   0  0  0  0  0  0  0  0  0  0  0  0
   57.9680   25.0940   47.5240 N   0  0  0  0  0  0  0  0  0  0  0  0
   58.3070   26.1620   46.7560 C   0  0  0  0  0  0  0  0  0  0  0  0
   57.2650   30.2680   44.2870 C   0  0  0  0  0  0  0  0  0  0  0  0
   56.9170   30.6750   42.9840 C   0  0  0  0  0  0  0  0  0  0  0  0
   56.1440   29.8930   42.1890 F   0  0  0  0  0  0  0  0  0  0  0  0
   57.4020   31.8800   42.4700 C   0  0  0  0  0  0  0  0  0  0  0  0
   58.2390   32.6890   43.2390 C   0  0  0  0  0  0  0  0  0  0  0  0
   58.6050   32.2970   44.5360 C   0  0  0  0  0  0  0  0  0  0  0  0
   59.4630   33.1000   45.3580 N   0  0  0  0  0  0  0  0  0  0  0  0
   58.9590   34.4560   46.3130 S   0  0  0  0  0  0  0  0  0  0  0  0
   59.5140   35.7230   45.7260 O   0  0  0  0  0  0  0  0  0  0  0  0
   57.4580   34.5240   46.3490 O   0  0  0  0  0  0  0  0  0  0  0  0
   59.5780   34.2690   47.9760 C   0  0  0  0  0  0  0  0  0  0  0  0
   59.9230   32.8260   48.2510 C   0  0  0  0  0  0  0  0  0  0  0  0
   58.9510   31.9920   48.8300 C   0  0  0  0  0  0  0  0  0  0  0  0
   59.2240   30.6420   49.0650 C   0  0  0  0  0  0  0  0  0  0  0  0
   60.4650   30.1070   48.7180 C   0  0  0  0  0  0  0  0  0  0  0  0
   60.7260   28.7970   48.9460 F   0  0  0  0  0  0  0  0  0  0  0  0
   61.4370   30.9210   48.1330 C   0  0  0  0  0  0  0  0  0  0  0  0
   61.1760   32.2770   47.8930 C   0  0  0  0  0  0  0  0  0  0  0  0
   62.4420   33.2440   47.1410 Cl  0  0  0  0  0  0  0  0  0  0  0  0
   58.1200   31.0860   45.0530 C   0  0  0  0  0  0  0  0  0  0  0  0
   58.4650   30.7260   46.3180 F   0  0  0  0  0  0  0  0  0  0  0  0
   58.5490   27.8630   44.5570 H   0  0  0  0  0  0  0  0  0  0  0  0
   55.2699   26.6855   45.3110 H   0  0  0  0  0  0  0  0  0  0  0  0
   59.3399   26.5402   46.7649 H   0  0  0  0  0  0  0  0  0  0  0  0
   57.1224   32.1928   41.4532 H   0  0  0  0  0  0  0  0  0  0  0  0
   58.6135   33.6378   42.8272 H   0  0  0  0  0  0  0  0  0  0  0  0
   60.4799   34.8867   48.0984 H   0  0  0  0  0  0  0  0  0  0  0  0
   58.8000   34.5905   48.6840 H   0  0  0  0  0  0  0  0  0  0  0  0
   57.9680   32.4052   49.1002 H   0  0  0  0  0  0  0  0  0  0  0  0
   58.4587   29.9994   49.5247 H   0  0  0  0  0  0  0  0  0  0  0  0
   62.4136   30.4954   47.8588 H   0  0  0  0  0  0  0  0  0  0  0  0
  1  2  2  0
  2  3  1  0
  3  4  1  0
  4  5  1  0
  5  6  2  0
  6  7  1  0
  7  8  2  0
  7  9  1  0
  9 10  1  0
  2 11  1  0
 11 12  2  0
 12 13  1  0
 12 14  1  0
 14 15  2  0
 15 16  1  0
 16 17  1  0
 17 18  1  0
 18 19  2  0
 18 20  2  0
 18 21  1  0
 21 22  1  0
 22 23  2  0
 23 24  1  0
 24 25  2  0
 25 26  1  0
 25 27  1  0
 27 28  2  0
 28 29  1  0
 16 30  2  0
 30 31  1  0
 10  4  2  0
 30 11  1  0
 28 22  1  0
  3 32  1  0
  5 33  1  0
 10 34  1  0
 14 35  1  0
 15 36  1  0
 21 37  1  0
 21 38  1  0
 23 39  1  0
 24 40  1  0
 27 41  1  0
M  CHG  2   9  -1  17  -1
M  END
>  <UniqueID>  (86) 
79

>  <SMILES>  (86) 
O=C(Nc1cnc(=O)[n-]c1)c1c(F)ccc([N-]S(=O)(=O)Cc2ccc(F)cc2Cl)c1F

>  <Energy>  (86) 
52.605651641150004

>  <Genealogy>  (86) 
O=C(Nc1cnc(=O)[n-]c1)c1c(F)ccc([N-]S(=O)(=O)Cc2ccc(F)cc2Cl)c1F (protonated)
O=C(Nc1cnc(=O)[n-]c1)c1c(F)ccc([N-]S(=O)(=O)Cc2ccc(F)cc2Cl)c1F (3D coordinates assigned)
O=C(Nc1cnc(=O)[n-]c1)c1c(F)ccc([N-]S(=O)(=O)Cc2ccc(F)cc2Cl)c1F (optimized conformer: 52.605651641150004 kcal/mol)

>  <smiles>  (86) 
O=C(Nc1cnc(=O)[nH]c1)c1c(F)ccc(NS(=O)(=O)Cc2ccc(F)cc2Cl)c1F

>  <score_type>  (86) 
oracle

>  <origin>  (86) 
adg

>  <m_score__min__energy>  (86) 
-11.84

>  <m_primary>  (86) 
energy

$$$$
86:0
     RDKit          3D

 37 38  0  0  0  0  0  0  0  0999 V2000
   57.3640   33.8240   45.9670 C   0  0  0  0  0  0  0  0  0  0  0  0
   59.0090   34.4910   46.0910 S   0  0  0  0  0  0  0  0  0  0  0  0
   59.1250   35.2980   47.3530 O   0  0  0  0  0  0  0  0  0  0  0  0
   59.2850   35.3890   44.9180 O   0  0  0  0  0  0  0  0  0  0  0  0
   60.1660   33.2000   46.1370 N   0  0  0  0  0  0  0  0  0  0  0  0
   61.3480   33.2380   46.9540 C   0  0  0  0  0  0  0  0  0  0  0  0
   62.5830   33.5810   46.3750 C   0  0  0  0  0  0  0  0  0  0  0  0
   63.7600   33.5360   47.1240 C   0  0  0  0  0  0  0  0  0  0  0  0
   63.7220   33.1370   48.4580 C   0  0  0  0  0  0  0  0  0  0  0  0
   62.5070   32.7950   49.0520 C   0  0  0  0  0  0  0  0  0  0  0  0
   61.3060   32.8500   48.3190 C   0  0  0  0  0  0  0  0  0  0  0  0
   60.0350   32.5450   49.0180 C   0  0  0  0  0  0  0  0  0  0  0  0
   59.5500   33.3680   49.8400 O   0  0  0  0  0  0  0  0  0  0  0  0
   59.3540   31.3120   48.7470 N   0  0  0  0  0  0  0  0  0  0  0  0
   59.2860   30.6340   47.4850 C   0  0  0  0  0  0  0  0  0  0  0  0
   60.3720   29.8440   47.0880 C   0  0  0  0  0  0  0  0  0  0  0  0
   60.3360   29.1490   45.8770 C   0  0  0  0  0  0  0  0  0  0  0  0
   59.2060   29.2250   45.0580 C   0  0  0  0  0  0  0  0  0  0  0  0
   58.1040   29.9960   45.4510 C   0  0  0  0  0  0  0  0  0  0  0  0
   56.6640   30.0610   44.4410 S   0  0  0  0  0  0  0  0  0  0  0  0
   55.5360   28.8630   44.9670 N   0  0  0  0  0  0  0  0  0  0  0  0
   56.0340   31.4220   44.5410 O   0  0  0  0  0  0  0  0  0  0  0  0
   57.0320   29.8050   43.0070 O   0  0  0  0  0  0  0  0  0  0  0  0
   58.1400   30.6880   46.6700 C   0  0  0  0  0  0  0  0  0  0  0  0
   56.9581   33.6594   46.9760 H   0  0  0  0  0  0  0  0  0  0  0  0
   56.7210   34.5325   45.4242 H   0  0  0  0  0  0  0  0  0  0  0  0
   57.3960   32.8678   45.4242 H   0  0  0  0  0  0  0  0  0  0  0  0
   59.9540   32.3480   45.5730 H   0  0  0  0  0  0  0  0  0  0  0  0
   62.6218   33.8883   45.3195 H   0  0  0  0  0  0  0  0  0  0  0  0
   64.7177   33.8157   46.6607 H   0  0  0  0  0  0  0  0  0  0  0  0
   64.6517   33.0915   49.0441 H   0  0  0  0  0  0  0  0  0  0  0  0
   62.4869   32.4786   50.1053 H   0  0  0  0  0  0  0  0  0  0  0  0
   61.2592   29.7703   47.7341 H   0  0  0  0  0  0  0  0  0  0  0  0
   61.1986   28.5407   45.5673 H   0  0  0  0  0  0  0  0  0  0  0  0
   59.1818   28.6788   44.1035 H   0  0  0  0  0  0  0  0  0  0  0  0
   54.6540   29.3640   45.2190 H   0  0  0  0  0  0  0  0  0  0  0  0
   57.2677   31.2763   46.9910 H   0  0  0  0  0  0  0  0  0  0  0  0
  1  2  1  0
  2  3  2  0
  2  4  2  0
  2  5  1  0
  5  6  1  0
  6  7  2  0
  7  8  1  0
  8  9  2  0
  9 10  1  0
 10 11  2  0
 11 12  1  0
 12 13  2  0
 12 14  1  0
 14 15  1  0
 15 16  2  0
 16 17  1  0
 17 18  2  0
 18 19  1  0
 19 20  1  0
 20 21  1  0
 20 22  2  0
 20 23  2  0
 19 24  2  0
 11  6  1  0
 24 15  1  0
  1 25  1  0
  1 26  1  0
  1 27  1  0
  5 28  1  0
  7 29  1  0
  8 30  1  0
  9 31  1  0
 10 32  1  0
 16 33  1  0
 17 34  1  0
 18 35  1  0
 21 36  1  0
 24 37  1  0
M  CHG  2  14  -1  21  -1
M  END
>  <UniqueID>  (87) 
80

>  <SMILES>  (87) 
CS(=O)(=O)Nc1ccccc1C(=O)[N-]c1cccc(S([NH-])(=O)=O)c1

>  <Energy>  (87) 
45.32310662137589

>  <Genealogy>  (87) 
CS(=O)(=O)Nc1ccccc1C(=O)[N-]c1cccc(S([NH-])(=O)=O)c1 (protonated)
CS(=O)(=O)Nc1ccccc1C(=O)[N-]c1cccc(S([NH-])(=O)=O)c1 (3D coordinates assigned)
CS(=O)(=O)Nc1ccccc1C(=O)[N-]c1cccc(S([NH-])(=O)=O)c1 (optimized conformer: 45.32310662137589 kcal/mol)

>  <smiles>  (87) 
CS(=O)(=O)Nc1ccccc1C(=O)Nc1cccc(S(N)(=O)=O)c1

>  <score_type>  (87) 
oracle

>  <origin>  (87) 
adg

>  <m_score__min__energy>  (87) 
-12.65

>  <m_primary>  (87) 
energy

$$$$
87:0
     RDKit          3D

 56 59  0  0  0  0  0  0  0  0999 V2000
   54.7240   25.7840   45.6590 N   0  0  0  0  0  0  0  0  0  0  0  0
   55.3540   24.4000   46.4790 S   0  0  0  0  0  0  0  0  0  0  0  0
   54.2550   23.7350   47.2590 O   0  0  0  0  0  0  0  0  0  0  0  0
   56.4150   24.8450   47.4470 O   0  0  0  0  0  0  0  0  0  0  0  0
   56.0540   23.2700   45.3050 C   0  0  0  0  0  0  0  0  0  0  0  0
   55.5720   21.9510   45.2880 C   0  0  0  0  0  0  0  0  0  0  0  0
   56.0310   21.0380   44.3370 C   0  0  0  0  0  0  0  0  0  0  0  0
   56.9750   21.4290   43.3890 C   0  0  0  0  0  0  0  0  0  0  0  0
   57.4750   22.7320   43.3990 C   0  0  0  0  0  0  0  0  0  0  0  0
   57.0400   23.6580   44.3610 C   0  0  0  0  0  0  0  0  0  0  0  0
   57.6320   25.0070   44.3430 C   0  0  0  0  0  0  0  0  0  0  0  0
   57.5860   25.6820   43.2790 O   0  0  0  0  0  0  0  0  0  0  0  0
   58.2570   25.5380   45.5220 N   0  0  0  0  0  0  0  0  0  0  0  0
   58.6870   26.9030   45.6520 C   0  0  0  0  0  0  0  0  0  0  0  0
   60.0090   27.2250   45.9990 C   0  0  0  0  0  0  0  0  0  0  0  0
   60.3990   28.5620   46.1270 C   0  0  0  0  0  0  0  0  0  0  0  0
   59.4700   29.5930   45.9280 C   0  0  0  0  0  0  0  0  0  0  0  0
   59.9010   31.0320   46.0150 C   0  0  0  0  0  0  0  0  0  0  0  0
   60.7810   31.2250   47.1700 N   0  0  0  0  0  0  0  0  0  0  0  0
   62.1210   31.3200   47.1270 C   0  0  0  0  0  0  0  0  0  0  0  0
   62.5830   31.4720   48.4140 C   0  0  0  0  0  0  0  0  0  0  0  0
   61.5420   31.4730   49.2720 N   0  0  0  0  0  0  0  0  0  0  0  0
   60.4590   31.3060   48.4820 C   0  0  0  0  0  0  0  0  0  0  0  0
   59.0600   31.3100   49.0270 C   0  0  0  0  0  0  0  0  0  0  0  0
   58.5220   32.7390   49.1130 C   0  0  0  0  0  0  0  0  0  0  0  0
   58.5510   33.3970   47.7600 C   0  0  0  0  0  0  0  0  0  0  0  0
   59.5870   34.2850   47.4290 C   0  0  0  0  0  0  0  0  0  0  0  0
   59.6330   34.8720   46.1600 C   0  0  0  0  0  0  0  0  0  0  0  0
   58.6450   34.5780   45.2160 C   0  0  0  0  0  0  0  0  0  0  0  0
   57.6140   33.6910   45.5360 C   0  0  0  0  0  0  0  0  0  0  0  0
   57.5680   33.0960   46.8010 C   0  0  0  0  0  0  0  0  0  0  0  0
   58.1450   29.2710   45.5920 C   0  0  0  0  0  0  0  0  0  0  0  0
   57.7560   27.9340   45.4690 C   0  0  0  0  0  0  0  0  0  0  0  0
   54.8090   26.5910   46.3170 H   0  0  0  0  0  0  0  0  0  0  0  0
   54.8255   21.6343   46.0313 H   0  0  0  0  0  0  0  0  0  0  0  0
   55.6467   20.0073   44.3358 H   0  0  0  0  0  0  0  0  0  0  0  0
   57.3258   20.7109   42.6332 H   0  0  0  0  0  0  0  0  0  0  0  0
   58.2169   23.0366   42.6461 H   0  0  0  0  0  0  0  0  0  0  0  0
   58.2800   24.9400   46.3770 H   0  0  0  0  0  0  0  0  0  0  0  0
   60.7411   26.4222   46.1709 H   0  0  0  0  0  0  0  0  0  0  0  0
   61.4401   28.8059   46.3852 H   0  0  0  0  0  0  0  0  0  0  0  0
   60.4407   31.3063   45.0966 H   0  0  0  0  0  0  0  0  0  0  0  0
   59.0110   31.6680   46.1303 H   0  0  0  0  0  0  0  0  0  0  0  0
   62.7413   31.2827   46.2194 H   0  0  0  0  0  0  0  0  0  0  0  0
   63.6401   31.5767   48.6998 H   0  0  0  0  0  0  0  0  0  0  0  0
   58.4116   30.7185   48.3639 H   0  0  0  0  0  0  0  0  0  0  0  0
   59.0705   30.8728   50.0363 H   0  0  0  0  0  0  0  0  0  0  0  0
   57.4856   32.7138   49.4808 H   0  0  0  0  0  0  0  0  0  0  0  0
   59.1559   33.3162   49.8022 H   0  0  0  0  0  0  0  0  0  0  0  0
   60.3652   34.5199   48.1701 H   0  0  0  0  0  0  0  0  0  0  0  0
   60.4476   35.5657   45.9048 H   0  0  0  0  0  0  0  0  0  0  0  0
   58.6792   35.0452   44.2207 H   0  0  0  0  0  0  0  0  0  0  0  0
   56.8373   33.4603   44.7920 H   0  0  0  0  0  0  0  0  0  0  0  0
   56.7604   32.3905   47.0462 H   0  0  0  0  0  0  0  0  0  0  0  0
   57.4111   30.0732   45.4251 H   0  0  0  0  0  0  0  0  0  0  0  0
   56.7112   27.6895   45.2267 H   0  0  0  0  0  0  0  0  0  0  0  0
  1  2  1  0
  2  3  2  0
  2  4  2  0
  2  5  1  0
  5  6  2  0
  6  7  1  0
  7  8  2  0
  8  9  1  0
  9 10  2  0
 10 11  1  0
 11 12  2  0
 11 13  1  0
 13 14  1  0
 14 15  2  0
 15 16  1  0
 16 17  2  0
 17 18  1  0
 18 19  1  0
 19 20  1  0
 20 21  2  0
 21 22  1  0
 22 23  2  0
 23 24  1  0
 24 25  1  0
 25 26  1  0
 26 27  2  0
 27 28  1  0
 28 29  2  0
 29 30  1  0
 30 31  2  0
 17 32  1  0
 32 33  2  0
 10  5  1  0
 33 14  1  0
 23 19  1  0
 31 26  1  0
  1 34  1  0
  6 35  1  0
  7 36  1  0
  8 37  1  0
  9 38  1  0
 13 39  1  0
 15 40  1  0
 16 41  1  0
 18 42  1  0
 18 43  1  0
 20 44  1  0
 21 45  1  0
 24 46  1  0
 24 47  1  0
 25 48  1  0
 25 49  1  0
 27 50  1  0
 28 51  1  0
 29 52  1  0
 30 53  1  0
 31 54  1  0
 32 55  1  0
 33 56  1  0
M  CHG  1   1  -1
M  END
>  <UniqueID>  (88) 
81

>  <SMILES>  (88) 
[NH-]S(=O)(=O)c1ccccc1C(=O)Nc1ccc(Cn2ccnc2CCc2ccccc2)cc1

>  <Energy>  (88) 
95.50149549410554

>  <Genealogy>  (88) 
[NH-]S(=O)(=O)c1ccccc1C(=O)Nc1ccc(Cn2ccnc2CCc2ccccc2)cc1 (protonated)
[NH-]S(=O)(=O)c1ccccc1C(=O)Nc1ccc(Cn2ccnc2CCc2ccccc2)cc1 (3D coordinates assigned)
[NH-]S(=O)(=O)c1ccccc1C(=O)Nc1ccc(Cn2ccnc2CCc2ccccc2)cc1 (optimized conformer: 95.50149549410554 kcal/mol)

>  <smiles>  (88) 
NS(=O)(=O)c1ccccc1C(=O)Nc1ccc(Cn2ccnc2CCc2ccccc2)cc1

>  <score_type>  (88) 
oracle

>  <origin>  (88) 
adg

>  <m_score__min__energy>  (88) 
-12.140000000000001

>  <m_primary>  (88) 
energy

$$$$
88:0
     RDKit          3D

 44 46  0  0  0  0  0  0  0  0999 V2000
   62.4870   33.8430   45.9590 O   0  0  0  0  0  0  0  0  0  0  0  0
   62.4460   33.3860   47.1310 C   0  0  0  0  0  0  0  0  0  0  0  0
   63.4830   32.4960   47.5640 N   0  0  0  0  0  0  0  0  0  0  0  0
   63.7010   32.0460   48.9090 C   0  0  0  0  0  0  0  0  0  0  0  0
   64.7940   32.5010   49.6630 C   0  0  0  0  0  0  0  0  0  0  0  0
   64.9580   32.0580   50.9780 C   0  0  0  0  0  0  0  0  0  0  0  0
   64.0520   31.2110   51.5360 N   0  0  0  0  0  0  0  0  0  0  0  0
   64.2230   30.8010   52.8380 O   0  0  0  0  0  0  0  0  0  0  0  0
   62.9650   30.7810   50.8370 C   0  0  0  0  0  0  0  0  0  0  0  0
   62.7650   31.1940   49.5150 C   0  0  0  0  0  0  0  0  0  0  0  0
   61.3540   30.6250   48.6370 Cl  0  0  0  0  0  0  0  0  0  0  0  0
   61.4040   33.7960   48.0290 N   0  0  0  0  0  0  0  0  0  0  0  0
   60.2930   34.6440   47.6040 C   0  0  0  0  0  0  0  0  0  0  0  0
   59.3100   33.8440   46.7960 C   0  0  0  0  0  0  0  0  0  0  0  0
   58.9550   34.2450   45.5010 C   0  0  0  0  0  0  0  0  0  0  0  0
   58.0390   33.4930   44.7560 C   0  0  0  0  0  0  0  0  0  0  0  0
   57.4640   32.3360   45.2950 C   0  0  0  0  0  0  0  0  0  0  0  0
   56.5350   31.5930   44.4940 N   0  0  0  0  0  0  0  0  0  0  0  0
   56.5710   29.8750   44.2600 S   0  0  0  0  0  0  0  0  0  0  0  0
   56.5720   29.5770   42.7870 O   0  0  0  0  0  0  0  0  0  0  0  0
   55.3420   29.2660   44.8730 O   0  0  0  0  0  0  0  0  0  0  0  0
   57.9930   29.1910   45.0420 C   0  0  0  0  0  0  0  0  0  0  0  0
   59.2790   29.4390   44.5350 C   0  0  0  0  0  0  0  0  0  0  0  0
   60.3970   28.8770   45.1570 C   0  0  0  0  0  0  0  0  0  0  0  0
   60.2370   28.0650   46.2850 C   0  0  0  0  0  0  0  0  0  0  0  0
   58.9590   27.8200   46.7960 C   0  0  0  0  0  0  0  0  0  0  0  0
   57.8390   28.3820   46.1770 C   0  0  0  0  0  0  0  0  0  0  0  0
   57.8090   31.9430   46.6000 C   0  0  0  0  0  0  0  0  0  0  0  0
   58.7240   32.6940   47.3440 C   0  0  0  0  0  0  0  0  0  0  0  0
   65.5172   33.2022   49.2212 H   0  0  0  0  0  0  0  0  0  0  0  0
   65.8246   32.3961   51.5651 H   0  0  0  0  0  0  0  0  0  0  0  0
   62.2402   30.1052   51.3144 H   0  0  0  0  0  0  0  0  0  0  0  0
   61.4960   33.5870   49.0480 H   0  0  0  0  0  0  0  0  0  0  0  0
   59.7872   35.0522   48.4914 H   0  0  0  0  0  0  0  0  0  0  0  0
   60.6839   35.4645   46.9844 H   0  0  0  0  0  0  0  0  0  0  0  0
   59.3978   35.1542   45.0682 H   0  0  0  0  0  0  0  0  0  0  0  0
   57.7689   33.8137   43.7391 H   0  0  0  0  0  0  0  0  0  0  0  0
   59.4063   30.0762   43.6475 H   0  0  0  0  0  0  0  0  0  0  0  0
   61.4037   29.0732   44.7594 H   0  0  0  0  0  0  0  0  0  0  0  0
   61.1176   27.6189   46.7703 H   0  0  0  0  0  0  0  0  0  0  0  0
   58.8349   27.1848   47.6854 H   0  0  0  0  0  0  0  0  0  0  0  0
   56.8343   28.1892   46.5811 H   0  0  0  0  0  0  0  0  0  0  0  0
   57.3570   31.0407   47.0376 H   0  0  0  0  0  0  0  0  0  0  0  0
   58.9858   32.3808   48.3655 H   0  0  0  0  0  0  0  0  0  0  0  0
  1  2  2  0
  2  3  1  0
  3  4  1  0
  4  5  2  0
  5  6  1  0
  6  7  2  0
  7  8  1  0
  7  9  1  0
  9 10  2  0
 10 11  1  0
  2 12  1  0
 12 13  1  0
 13 14  1  0
 14 15  2  0
 15 16  1  0
 16 17  2  0
 17 18  1  0
 18 19  1  0
 19 20  2  0
 19 21  2  0
 19 22  1  0
 22 23  2  0
 23 24  1  0
 24 25  2  0
 25 26  1  0
 26 27  2  0
 17 28  1  0
 28 29  2  0
 10  4  1  0
 29 14  1  0
 27 22  1  0
  5 30  1  0
  6 31  1  0
  9 32  1  0
 12 33  1  0
 13 34  1  0
 13 35  1  0
 15 36  1  0
 16 37  1  0
 23 38  1  0
 24 39  1  0
 25 40  1  0
 26 41  1  0
 27 42  1  0
 28 43  1  0
 29 44  1  0
M  CHG  4   3  -1   7   1   8  -1  18  -1
M  END
>  <UniqueID>  (89) 
82

>  <SMILES>  (89) 
O=C([N-]c1cc[n+]([O-])cc1Cl)NCc1ccc([N-]S(=O)(=O)c2ccccc2)cc1

>  <Energy>  (89) 
52.198486108536045

>  <Genealogy>  (89) 
O=C([N-]c1cc[n+]([O-])cc1Cl)NCc1ccc([N-]S(=O)(=O)c2ccccc2)cc1 (protonated)
O=C([N-]c1cc[n+]([O-])cc1Cl)NCc1ccc([N-]S(=O)(=O)c2ccccc2)cc1 (3D coordinates assigned)
O=C([N-]c1cc[n+]([O-])cc1Cl)NCc1ccc([N-]S(=O)(=O)c2ccccc2)cc1 (optimized conformer: 52.198486108536045 kcal/mol)

>  <smiles>  (89) 
O=C(NCc1ccc(NS(=O)(=O)c2ccccc2)cc1)Nc1cc[n+]([O-])cc1Cl

>  <score_type>  (89) 
oracle

>  <origin>  (89) 
adg

>  <m_score__min__energy>  (89) 
-10.960000000000001

>  <m_primary>  (89) 
energy

$$$$
89:0
     RDKit          3D

 42 44  0  0  0  0  0  0  0  0999 V2000
   54.1280   29.8360   52.0720 C   0  0  0  0  0  0  0  0  0  0  0  0
   54.9840   30.9370   51.6480 N   0  0  0  0  0  0  0  0  0  0  0  0
   56.4120   30.8230   51.6350 C   0  0  0  0  0  0  0  0  0  0  0  0
   56.9590   29.7400   51.9810 O   0  0  0  0  0  0  0  0  0  0  0  0
   57.2090   31.9480   51.2360 N   0  0  0  0  0  0  0  0  0  0  0  0
   58.6470   31.9540   51.2320 C   0  0  0  0  0  0  0  0  0  0  0  0
   59.2950   30.9010   51.4820 O   0  0  0  0  0  0  0  0  0  0  0  0
   59.3980   33.2170   50.9340 C   0  0  0  0  0  0  0  0  0  0  0  0
   60.1480   33.0750   49.6810 N   0  0  0  0  0  0  0  0  0  0  0  0
   59.6650   32.8750   48.4220 C   0  0  0  0  0  0  0  0  0  0  0  0
   58.2110   32.7150   48.0720 C   0  0  0  0  0  0  0  0  0  0  0  0
   58.0270   32.7140   46.5780 C   0  0  0  0  0  0  0  0  0  0  0  0
   57.8510   33.9230   45.8860 C   0  0  0  0  0  0  0  0  0  0  0  0
   57.7100   33.9260   44.4950 C   0  0  0  0  0  0  0  0  0  0  0  0
   57.7530   32.7240   43.7840 C   0  0  0  0  0  0  0  0  0  0  0  0
   57.9410   31.5170   44.4630 C   0  0  0  0  0  0  0  0  0  0  0  0
   58.0820   31.5090   45.8540 C   0  0  0  0  0  0  0  0  0  0  0  0
   60.6400   32.8220   47.4750 N   0  0  0  0  0  0  0  0  0  0  0  0
   61.7660   33.0220   48.1830 C   0  0  0  0  0  0  0  0  0  0  0  0
   63.0690   33.0860   47.6980 C   0  0  0  0  0  0  0  0  0  0  0  0
   64.1020   33.3280   48.6240 C   0  0  0  0  0  0  0  0  0  0  0  0
   63.8070   33.5020   49.9940 C   0  0  0  0  0  0  0  0  0  0  0  0
   62.4770   33.4330   50.4530 C   0  0  0  0  0  0  0  0  0  0  0  0
   61.4770   33.1830   49.5080 C   0  0  0  0  0  0  0  0  0  0  0  0
   54.0978   29.7972   53.1709 H   0  0  0  0  0  0  0  0  0  0  0  0
   53.1110   29.9912   51.6825 H   0  0  0  0  0  0  0  0  0  0  0  0
   54.5291   28.8887   51.6825 H   0  0  0  0  0  0  0  0  0  0  0  0
   54.5400   31.8360   51.3540 H   0  0  0  0  0  0  0  0  0  0  0  0
   56.7100   32.8240   50.9620 H   0  0  0  0  0  0  0  0  0  0  0  0
   58.6857   34.0498   50.8391 H   0  0  0  0  0  0  0  0  0  0  0  0
   60.1028   33.4183   51.7542 H   0  0  0  0  0  0  0  0  0  0  0  0
   57.8420   31.7638   48.4831 H   0  0  0  0  0  0  0  0  0  0  0  0
   57.6466   33.5566   48.5001 H   0  0  0  0  0  0  0  0  0  0  0  0
   57.8239   34.8724   46.4409 H   0  0  0  0  0  0  0  0  0  0  0  0
   57.5650   34.8759   43.9597 H   0  0  0  0  0  0  0  0  0  0  0  0
   57.6389   32.7277   42.6899 H   0  0  0  0  0  0  0  0  0  0  0  0
   57.9781   30.5715   43.9020 H   0  0  0  0  0  0  0  0  0  0  0  0
   58.2364   30.5575   46.3840 H   0  0  0  0  0  0  0  0  0  0  0  0
   63.2846   32.9521   46.6277 H   0  0  0  0  0  0  0  0  0  0  0  0
   65.1448   33.3818   48.2781 H   0  0  0  0  0  0  0  0  0  0  0  0
   64.6218   33.6928   50.7080 H   0  0  0  0  0  0  0  0  0  0  0  0
   62.2337   33.5709   51.5169 H   0  0  0  0  0  0  0  0  0  0  0  0
  1  2  1  0
  2  3  1  0
  3  4  2  0
  3  5  1  0
  5  6  1  0
  6  7  2  0
  6  8  1  0
  8  9  1  0
  9 10  1  0
 10 11  1  0
 11 12  1  0
 12 13  2  0
 13 14  1  0
 14 15  2  0
 15 16  1  0
 16 17  2  0
 10 18  2  0
 18 19  1  0
 19 20  2  0
 20 21  1  0
 21 22  2  0
 22 23  1  0
 23 24  2  0
 24  9  1  0
 17 12  1  0
 24 19  1  0
  1 25  1  0
  1 26  1  0
  1 27  1  0
  2 28  1  0
  5 29  1  0
  8 30  1  0
  8 31  1  0
 11 32  1  0
 11 33  1  0
 13 34  1  0
 14 35  1  0
 15 36  1  0
 16 37  1  0
 17 38  1  0
 20 39  1  0
 21 40  1  0
 22 41  1  0
 23 42  1  0
M  END
>  <UniqueID>  (90) 
83

>  <SMILES>  (90) 
CNC(=O)NC(=O)Cn1c(Cc2ccccc2)nc2ccccc21

>  <Energy>  (90) 
74.60624358850981

>  <Genealogy>  (90) 
CNC(=O)NC(=O)Cn1c(Cc2ccccc2)nc2ccccc21 (3D coordinates assigned)
CNC(=O)NC(=O)Cn1c(Cc2ccccc2)nc2ccccc21 (optimized conformer: 74.60624358850981 kcal/mol)

>  <smiles>  (90) 
CNC(=O)NC(=O)Cn1c(Cc2ccccc2)nc2ccccc21

>  <score_type>  (90) 
oracle

>  <origin>  (90) 
adg

>  <m_score__min__energy>  (90) 
-7.8200000000000003

>  <m_primary>  (90) 
energy

$$$$
90:0
     RDKit          3D

 38 39  0  0  0  0  0  0  0  0999 V2000
   59.2140   29.4120   48.6350 C   0  0  0  0  0  0  0  0  0  0  0  0
   59.0690   30.6570   49.3110 O   0  0  0  0  0  0  0  0  0  0  0  0
   59.0840   31.9090   48.6780 C   0  0  0  0  0  0  0  0  0  0  0  0
   59.7120   33.0320   49.2440 C   0  0  0  0  0  0  0  0  0  0  0  0
   59.6960   34.2580   48.5750 C   0  0  0  0  0  0  0  0  0  0  0  0
   59.0600   34.3730   47.3370 C   0  0  0  0  0  0  0  0  0  0  0  0
   58.4320   33.2640   46.7510 C   0  0  0  0  0  0  0  0  0  0  0  0
   57.7820   33.4220   45.4740 N   0  0  0  0  0  0  0  0  0  0  0  0
   58.4560   33.3220   44.1780 C   0  0  0  0  0  0  0  0  0  0  0  0
   57.7160   32.3440   43.2600 C   0  0  0  0  0  0  0  0  0  0  0  0
   57.5030   31.0270   43.9560 C   0  0  0  0  0  0  0  0  0  0  0  0
   58.5950   30.3070   44.4660 C   0  0  0  0  0  0  0  0  0  0  0  0
   58.3970   29.0690   45.0850 C   0  0  0  0  0  0  0  0  0  0  0  0
   57.1080   28.5300   45.1870 C   0  0  0  0  0  0  0  0  0  0  0  0
   56.8590   26.9750   45.9760 S   0  0  0  0  0  0  0  0  0  0  0  0
   55.1720   26.6050   45.9910 N   0  0  0  0  0  0  0  0  0  0  0  0
   57.6020   25.9020   45.2300 O   0  0  0  0  0  0  0  0  0  0  0  0
   57.3760   27.0310   47.3860 O   0  0  0  0  0  0  0  0  0  0  0  0
   56.0170   29.2430   44.6720 C   0  0  0  0  0  0  0  0  0  0  0  0
   56.2130   30.4810   44.0550 C   0  0  0  0  0  0  0  0  0  0  0  0
   58.4470   32.0320   47.4360 C   0  0  0  0  0  0  0  0  0  0  0  0
   59.3083   28.6025   49.3737 H   0  0  0  0  0  0  0  0  0  0  0  0
   58.3307   29.2320   48.0045 H   0  0  0  0  0  0  0  0  0  0  0  0
   60.1150   29.4398   48.0045 H   0  0  0  0  0  0  0  0  0  0  0  0
   60.2177   32.9450   50.2170 H   0  0  0  0  0  0  0  0  0  0  0  0
   60.1854   35.1348   49.0242 H   0  0  0  0  0  0  0  0  0  0  0  0
   59.0514   35.3421   46.8167 H   0  0  0  0  0  0  0  0  0  0  0  0
   56.7530   33.6070   45.4590 H   0  0  0  0  0  0  0  0  0  0  0  0
   58.4793   34.3148   43.7050 H   0  0  0  0  0  0  0  0  0  0  0  0
   59.4798   32.9529   44.3380 H   0  0  0  0  0  0  0  0  0  0  0  0
   56.7398   32.7715   42.9873 H   0  0  0  0  0  0  0  0  0  0  0  0
   58.3216   32.1757   42.3572 H   0  0  0  0  0  0  0  0  0  0  0  0
   59.6112   30.7188   44.3782 H   0  0  0  0  0  0  0  0  0  0  0  0
   59.2561   28.5165   45.4932 H   0  0  0  0  0  0  0  0  0  0  0  0
   54.7600   27.0920   46.8180 H   0  0  0  0  0  0  0  0  0  0  0  0
   55.0023   28.8262   44.7539 H   0  0  0  0  0  0  0  0  0  0  0  0
   55.3529   31.0306   43.6449 H   0  0  0  0  0  0  0  0  0  0  0  0
   57.9525   31.1564   46.9900 H   0  0  0  0  0  0  0  0  0  0  0  0
  1  2  1  0
  2  3  1  0
  3  4  2  0
  4  5  1  0
  5  6  2  0
  6  7  1  0
  7  8  1  0
  8  9  1  0
  9 10  1  0
 10 11  1  0
 11 12  2  0
 12 13  1  0
 13 14  2  0
 14 15  1  0
 15 16  1  0
 15 17  2  0
 15 18  2  0
 14 19  1  0
 19 20  2  0
  7 21  2  0
 21  3  1  0
 20 11  1  0
  1 22  1  0
  1 23  1  0
  1 24  1  0
  4 25  1  0
  5 26  1  0
  6 27  1  0
  8 28  1  0
  9 29  1  0
  9 30  1  0
 10 31  1  0
 10 32  1  0
 12 33  1  0
 13 34  1  0
 16 35  1  0
 19 36  1  0
 20 37  1  0
 21 38  1  0
M  CHG  1  16  -1
M  END
>  <UniqueID>  (91) 
84

>  <SMILES>  (91) 
COc1cccc(NCCc2ccc(S([NH-])(=O)=O)cc2)c1

>  <Energy>  (91) 
34.35620242805372

>  <Genealogy>  (91) 
COc1cccc(NCCc2ccc(S([NH-])(=O)=O)cc2)c1 (protonated)
COc1cccc(NCCc2ccc(S([NH-])(=O)=O)cc2)c1 (3D coordinates assigned)
COc1cccc(NCCc2ccc(S([NH-])(=O)=O)cc2)c1 (optimized conformer: 34.35620242805372 kcal/mol)

>  <smiles>  (91) 
COc1cccc(NCCc2ccc(S(N)(=O)=O)cc2)c1

>  <score_type>  (91) 
oracle

>  <origin>  (91) 
adg

>  <m_score__min__energy>  (91) 
-10.050000000000001

>  <m_primary>  (91) 
energy

$$$$
91:0
     RDKit          3D

 42 44  0  0  1  0  0  0  0  0999 V2000
   56.3250   24.8000   47.4410 C   0  0  0  0  0  0  0  0  0  0  0  0
   55.9220   25.7290   46.3740 N   0  0  0  0  0  0  0  0  0  0  0  0
   54.8940   25.0230   45.6320 C   0  0  0  0  0  0  0  0  0  0  0  0
   57.1250   25.9010   45.5640 C   0  0  0  0  0  0  0  0  0  0  0  0
   57.4380   27.3260   45.3020 C   0  0  0  0  0  0  0  0  0  0  0  0
   58.7850   27.6520   45.1740 C   0  0  0  0  0  0  0  0  0  0  0  0
   59.1440   28.9640   44.9300 C   0  0  0  0  0  0  0  0  0  0  0  0
   58.1370   29.8960   44.8230 C   0  0  0  0  0  0  0  0  0  0  0  0
   58.5600   31.2500   44.5680 N   0  0  0  0  0  0  0  0  0  0  0  0
   58.1010   32.2250   45.3120 C   0  0  0  0  0  0  0  0  0  0  0  0
   56.8460   32.7260   45.2200 N   0  0  0  0  0  0  0  0  0  0  0  0
   56.7020   33.7010   46.1110 N   0  0  0  0  0  0  0  0  0  0  0  0
   57.8590   33.8420   46.7850 C   0  0  0  0  0  0  0  0  0  0  0  0
   58.7640   32.9200   46.3030 C   0  0  0  0  0  0  0  0  0  0  0  0
   60.1380   32.7110   46.7360 C   0  0  0  0  0  0  0  0  0  0  0  0
   60.5770   31.4900   47.2170 C   0  0  0  0  0  0  0  0  0  0  0  0
   61.9050   31.3860   47.6060 C   0  0  0  0  0  0  0  0  0  0  0  0
   62.7710   32.4570   47.5200 C   0  0  0  0  0  0  0  0  0  0  0  0
   64.0990   32.4030   47.8940 O   0  0  0  0  0  0  0  0  0  0  0  0
   62.3130   33.6830   47.0320 C   0  0  0  0  0  0  0  0  0  0  0  0
   60.9930   33.7990   46.6410 C   0  0  0  0  0  0  0  0  0  0  0  0
   56.7970   29.5710   44.9510 C   0  0  0  0  0  0  0  0  0  0  0  0
   56.4990   28.2830   45.1880 N   0  0  0  0  0  0  0  0  0  0  0  0
   56.1261   25.2586   48.4209 H   0  0  0  0  0  0  0  0  0  0  0  0
   55.7512   23.8660   47.3500 H   0  0  0  0  0  0  0  0  0  0  0  0
   57.3991   24.5808   47.3500 H   0  0  0  0  0  0  0  0  0  0  0  0
   54.1971   24.5444   46.3358 H   0  0  0  0  0  0  0  0  0  0  0  0
   54.3444   25.7351   44.9989 H   0  0  0  0  0  0  0  0  0  0  0  0
   55.3613   24.2544   44.9989 H   0  0  0  0  0  0  0  0  0  0  0  0
   57.9745   25.4456   46.0941 H   0  0  0  0  0  0  0  0  0  0  0  0
   56.9447   25.4160   44.5933 H   0  0  0  0  0  0  0  0  0  0  0  0
   59.5562   26.8731   45.2661 H   0  0  0  0  0  0  0  0  0  0  0  0
   60.1999   29.2539   44.8248 H   0  0  0  0  0  0  0  0  0  0  0  0
   56.0780   32.4200   44.5630 H   0  0  0  0  0  0  0  0  0  0  0  0
   55.8210   34.2570   46.2460 H   0  0  0  0  0  0  0  0  0  0  0  0
   58.0504   34.5709   47.5863 H   0  0  0  0  0  0  0  0  0  0  0  0
   59.8953   30.6297   47.2887 H   0  0  0  0  0  0  0  0  0  0  0  0
   62.2768   30.4256   47.9927 H   0  0  0  0  0  0  0  0  0  0  0  0
   64.8660   32.3370   47.2370 H   0  0  0  0  0  0  0  0  0  0  0  0
   62.9937   34.5441   46.9600 H   0  0  0  0  0  0  0  0  0  0  0  0
   60.6187   34.7578   46.2529 H   0  0  0  0  0  0  0  0  0  0  0  0
   56.0105   30.3349   44.8624 H   0  0  0  0  0  0  0  0  0  0  0  0
  1  2  1  0
  2  3  1  0
  2  4  1  0
  4  5  1  0
  5  6  2  0
  6  7  1  0
  7  8  2  0
  8  9  1  0
  9 10  2  0
 10 11  1  0
 11 12  1  0
 12 13  1  0
 13 14  2  0
 14 15  1  0
 15 16  2  0
 16 17  1  0
 17 18  2  0
 18 19  1  0
 18 20  1  0
 20 21  2  0
  8 22  1  0
 22 23  2  0
 23  5  1  0
 14 10  1  0
 21 15  1  0
  1 24  1  0
  1 25  1  0
  1 26  1  0
  3 27  1  0
  3 28  1  0
  3 29  1  0
  4 30  1  0
  4 31  1  0
  6 32  1  0
  7 33  1  0
 11 34  1  0
 12 35  1  0
 13 36  1  0
 16 37  1  0
 17 38  1  0
 19 39  1  0
 20 40  1  0
 21 41  1  0
 22 42  1  0
M  END
>  <smiles>  (92) 
CN(C)Cc1ccc(N=c2[nH][nH]cc2-c2ccc(O)cc2)cn1

>  <score_type>  (92) 
oracle

>  <origin>  (92) 
adg

>  <m_score__min__energy>  (92) 
-7.1500000000000004

>  <m_primary>  (92) 
energy

$$$$
92:0
     RDKit          3D

 50 52  0  0  0  0  0  0  0  0999 V2000
   59.0160   29.9990   49.6930 C   0  0  0  0  0  0  0  0  0  0  0  0
   58.8930   30.4970   48.3650 O   0  0  0  0  0  0  0  0  0  0  0  0
   58.7160   29.6940   47.2260 C   0  0  0  0  0  0  0  0  0  0  0  0
   58.3750   28.3290   47.3250 C   0  0  0  0  0  0  0  0  0  0  0  0
   58.2080   27.5570   46.1740 C   0  0  0  0  0  0  0  0  0  0  0  0
   58.3800   28.1290   44.9130 C   0  0  0  0  0  0  0  0  0  0  0  0
   58.1490   27.0680   43.3410 Br  0  0  0  0  0  0  0  0  0  0  0  0
   58.7200   29.4790   44.8020 C   0  0  0  0  0  0  0  0  0  0  0  0
   58.8850   30.2710   45.9490 C   0  0  0  0  0  0  0  0  0  0  0  0
   59.2260   31.7320   45.8030 C   0  0  0  0  0  0  0  0  0  0  0  0
   57.8910   32.6530   44.9530 S   0  0  0  0  0  0  0  0  0  0  0  0
   57.4000   33.7230   46.3570 C   0  0  0  0  0  0  0  0  0  0  0  0
   58.5840   34.2200   47.1330 C   0  0  0  0  0  0  0  0  0  0  0  0
   59.2440   35.2060   46.7060 O   0  0  0  0  0  0  0  0  0  0  0  0
   59.0090   33.5220   48.3130 N   0  0  0  0  0  0  0  0  0  0  0  0
   60.2230   33.8980   49.0480 C   0  0  0  0  0  0  0  0  0  0  0  0
   61.4130   33.2400   48.3780 C   0  0  0  0  0  0  0  0  0  0  0  0
   61.4310   31.8500   48.1610 C   0  0  0  0  0  0  0  0  0  0  0  0
   62.5270   31.2470   47.5360 C   0  0  0  0  0  0  0  0  0  0  0  0
   63.6110   32.0240   47.1200 C   0  0  0  0  0  0  0  0  0  0  0  0
   63.6000   33.4060   47.3270 C   0  0  0  0  0  0  0  0  0  0  0  0
   62.5070   34.0140   47.9510 C   0  0  0  0  0  0  0  0  0  0  0  0
   60.1410   33.5410   50.5300 C   0  0  0  0  0  0  0  0  0  0  0  0
   61.3260   33.4170   51.2850 C   0  0  0  0  0  0  0  0  0  0  0  0
   61.2770   33.1410   52.6540 C   0  0  0  0  0  0  0  0  0  0  0  0
   60.0450   33.0120   53.2970 C   0  0  0  0  0  0  0  0  0  0  0  0
   58.8620   33.1700   52.5760 C   0  0  0  0  0  0  0  0  0  0  0  0
   58.9050   33.4450   51.2050 C   0  0  0  0  0  0  0  0  0  0  0  0
   58.8157   30.8099   50.4087 H   0  0  0  0  0  0  0  0  0  0  0  0
   58.2917   29.1858   49.8482 H   0  0  0  0  0  0  0  0  0  0  0  0
   60.0356   29.6165   49.8482 H   0  0  0  0  0  0  0  0  0  0  0  0
   58.2398   27.8699   48.3154 H   0  0  0  0  0  0  0  0  0  0  0  0
   57.9398   26.4938   46.2615 H   0  0  0  0  0  0  0  0  0  0  0  0
   58.8598   29.9257   43.8066 H   0  0  0  0  0  0  0  0  0  0  0  0
   59.3780   32.1649   46.8027 H   0  0  0  0  0  0  0  0  0  0  0  0
   60.1404   31.8134   45.1970 H   0  0  0  0  0  0  0  0  0  0  0  0
   56.8447   34.5881   45.9656 H   0  0  0  0  0  0  0  0  0  0  0  0
   56.7786   33.1225   47.0376 H   0  0  0  0  0  0  0  0  0  0  0  0
   58.5670   32.5950   48.5150 H   0  0  0  0  0  0  0  0  0  0  0  0
   60.3362   34.9917   49.0147 H   0  0  0  0  0  0  0  0  0  0  0  0
   60.5787   31.2345   48.4846 H   0  0  0  0  0  0  0  0  0  0  0  0
   62.5357   30.1594   47.3717 H   0  0  0  0  0  0  0  0  0  0  0  0
   64.4730   31.5480   46.6296 H   0  0  0  0  0  0  0  0  0  0  0  0
   64.4536   34.0168   46.9981 H   0  0  0  0  0  0  0  0  0  0  0  0
   62.5024   35.1026   48.1088 H   0  0  0  0  0  0  0  0  0  0  0  0
   62.3007   33.5391   50.7900 H   0  0  0  0  0  0  0  0  0  0  0  0
   62.2099   33.0253   53.2252 H   0  0  0  0  0  0  0  0  0  0  0  0
   60.0072   32.7856   54.3728 H   0  0  0  0  0  0  0  0  0  0  0  0
   57.8921   33.0781   53.0867 H   0  0  0  0  0  0  0  0  0  0  0  0
   57.9672   33.5877   50.6480 H   0  0  0  0  0  0  0  0  0  0  0  0
  1  2  1  0
  2  3  1  0
  3  4  2  0
  4  5  1  0
  5  6  2  0
  6  7  1  0
  6  8  1  0
  8  9  2  0
  9 10  1  0
 10 11  1  0
 11 12  1  0
 12 13  1  0
 13 14  2  0
 13 15  1  0
 15 16  1  0
 16 17  1  0
 17 18  2  0
 18 19  1  0
 19 20  2  0
 20 21  1  0
 21 22  2  0
 16 23  1  0
 23 24  2  0
 24 25  1  0
 25 26  2  0
 26 27  1  0
 27 28  2  0
  9  3  1  0
 22 17  1  0
 28 23  1  0
  1 29  1  0
  1 30  1  0
  1 31  1  0
  4 32  1  0
  5 33  1  0
  8 34  1  0
 10 35  1  0
 10 36  1  0
 12 37  1  0
 12 38  1  0
 15 39  1  0
 16 40  1  0
 18 41  1  0
 19 42  1  0
 20 43  1  0
 21 44  1  0
 22 45  1  0
 24 46  1  0
 25 47  1  0
 26 48  1  0
 27 49  1  0
 28 50  1  0
M  END
>  <UniqueID>  (93) 
85

>  <SMILES>  (93) 
COc1ccc(Br)cc1CSCC(=O)NC(c1ccccc1)c1ccccc1

>  <Energy>  (93) 
48.53522817437728

>  <Genealogy>  (93) 
COc1ccc(Br)cc1CSCC(=O)NC(c1ccccc1)c1ccccc1 (3D coordinates assigned)
COc1ccc(Br)cc1CSCC(=O)NC(c1ccccc1)c1ccccc1 (optimized conformer: 48.53522817437728 kcal/mol)

>  <smiles>  (93) 
COc1ccc(Br)cc1CSCC(=O)NC(c1ccccc1)c1ccccc1

>  <score_type>  (93) 
oracle

>  <origin>  (93) 
adg

>  <m_score__min__energy>  (93) 
-8.2599999999999998

>  <m_primary>  (93) 
energy

$$$$
93:0
     RDKit          3D

 73 78  0  0  0  0  0  0  0  0999 V2000
   61.1200   28.0120   48.5060 O   0  0  0  0  0  0  0  0  0  0  0  0
   60.2870   28.4980   47.6910 C   0  0  0  0  0  0  0  0  0  0  0  0
   60.3670   29.8460   47.3250 O   0  0  0  0  0  0  0  0  0  0  0  0
   59.6300   30.8860   47.9730 C   0  0  1  0  0  0  0  0  0  0  0  0
   60.4150   31.3460   49.2240 C   0  0  1  0  0  0  0  0  0  0  0  0
   60.5730   30.2490   50.1260 O   0  0  0  0  0  0  0  0  0  0  0  0
   59.6250   29.8080   51.0660 C   0  0  0  0  0  0  0  0  0  0  0  0
   59.9150   28.8370   52.0450 C   0  0  0  0  0  0  0  0  0  0  0  0
   58.9380   28.4340   52.9630 C   0  0  0  0  0  0  0  0  0  0  0  0
   59.2720   27.4770   53.9150 O   0  0  0  0  0  0  0  0  0  0  0  0
   57.6420   28.9960   52.9090 C   0  0  0  0  0  0  0  0  0  0  0  0
   56.6110   28.6480   53.8020 C   0  0  0  0  0  0  0  0  0  0  0  0
   56.7980   27.8110   54.7270 O   0  0  0  0  0  0  0  0  0  0  0  0
   55.3560   29.2420   53.6700 C   0  0  0  0  0  0  0  0  0  0  0  0
   55.1370   30.1770   52.6440 C   0  0  0  0  0  0  0  0  0  0  0  0
   53.8200   30.8370   52.4480 C   0  0  0  0  0  0  0  0  0  0  0  0
   53.4320   31.3680   51.1990 C   0  0  0  0  0  0  0  0  0  0  0  0
   52.1900   31.9930   51.0510 C   0  0  0  0  0  0  0  0  0  0  0  0
   51.3250   32.1070   52.1420 C   0  0  0  0  0  0  0  0  0  0  0  0
   50.0910   32.7290   51.9910 O   0  0  0  0  0  0  0  0  0  0  0  0
   51.7040   31.5980   53.3870 C   0  0  0  0  0  0  0  0  0  0  0  0
   52.9440   30.9700   53.5410 C   0  0  0  0  0  0  0  0  0  0  0  0
   56.1390   30.4970   51.8270 O   0  0  0  0  0  0  0  0  0  0  0  0
   57.3530   29.9600   51.9150 C   0  0  0  0  0  0  0  0  0  0  0  0
   58.3410   30.3560   51.0100 C   0  0  0  0  0  0  0  0  0  0  0  0
   61.7110   31.8490   48.9170 O   0  0  0  0  0  0  0  0  0  0  0  0
   61.8200   32.5140   47.6590 C   0  0  2  0  0  0  0  0  0  0  0  0
   62.9450   33.5560   47.7400 C   0  0  0  0  0  0  0  0  0  0  0  0
   62.7890   34.3570   48.8820 O   0  0  0  0  0  0  0  0  0  0  0  0
   60.5010   33.1660   47.1780 C   0  0  2  0  0  0  0  0  0  0  0  0
   60.0930   34.1410   48.1080 O   0  0  0  0  0  0  0  0  0  0  0  0
   59.4120   32.0760   47.0070 C   0  0  2  0  0  0  0  0  0  0  0  0
   58.1310   32.6190   47.2140 O   0  0  0  0  0  0  0  0  0  0  0  0
   59.2200   27.6460   47.1230 C   0  0  0  0  0  0  0  0  0  0  0  0
   59.3640   26.2480   47.0740 C   0  0  0  0  0  0  0  0  0  0  0  0
   58.3410   25.4480   46.5590 C   0  0  0  0  0  0  0  0  0  0  0  0
   57.1460   26.0260   46.0970 C   0  0  0  0  0  0  0  0  0  0  0  0
   56.0680   25.1640   45.5540 C   0  0  0  0  0  0  0  0  0  0  0  0
   54.8690   25.5190   45.7140 O   0  0  0  0  0  0  0  0  0  0  0  0
   56.3500   23.9030   44.8240 C   0  0  0  0  0  0  0  0  0  0  0  0
   56.9110   22.7920   45.4810 C   0  0  0  0  0  0  0  0  0  0  0  0
   57.1940   21.6190   44.7760 C   0  0  0  0  0  0  0  0  0  0  0  0
   56.9310   21.5450   43.4050 C   0  0  0  0  0  0  0  0  0  0  0  0
   56.3870   22.6470   42.7390 C   0  0  0  0  0  0  0  0  0  0  0  0
   56.1030   23.8220   43.4410 C   0  0  0  0  0  0  0  0  0  0  0  0
   57.0110   27.4240   46.1250 C   0  0  0  0  0  0  0  0  0  0  0  0
   58.0360   28.2260   46.6360 C   0  0  0  0  0  0  0  0  0  0  0  0
   58.6422   30.5067   48.2736 H   0  0  0  0  0  0  0  0  0  0  0  0
   59.8277   32.1602   49.6737 H   0  0  0  0  0  0  0  0  0  0  0  0
   60.9196   28.3910   52.0884 H   0  0  0  0  0  0  0  0  0  0  0  0
   54.5436   28.9805   54.3639 H   0  0  0  0  0  0  0  0  0  0  0  0
   54.1108   31.2896   50.3370 H   0  0  0  0  0  0  0  0  0  0  0  0
   51.8929   32.3965   50.0717 H   0  0  0  0  0  0  0  0  0  0  0  0
   51.0255   31.6915   54.2478 H   0  0  0  0  0  0  0  0  0  0  0  0
   53.2371   30.5765   54.5255 H   0  0  0  0  0  0  0  0  0  0  0  0
   58.1050   31.1089   50.2435 H   0  0  0  0  0  0  0  0  0  0  0  0
   62.0566   31.7482   46.9056 H   0  0  0  0  0  0  0  0  0  0  0  0
   63.9148   33.0392   47.7895 H   0  0  0  0  0  0  0  0  0  0  0  0
   62.9031   34.1964   46.8466 H   0  0  0  0  0  0  0  0  0  0  0  0
   61.9430   34.0740   49.3170 H   0  0  0  0  0  0  0  0  0  0  0  0
   60.6594   33.6539   46.2050 H   0  0  0  0  0  0  0  0  0  0  0  0
   59.3280   33.7590   48.6130 H   0  0  0  0  0  0  0  0  0  0  0  0
   59.4908   31.7011   45.9759 H   0  0  0  0  0  0  0  0  0  0  0  0
   58.2290   33.6060   47.1730 H   0  0  0  0  0  0  0  0  0  0  0  0
   60.2887   25.7810   47.4438 H   0  0  0  0  0  0  0  0  0  0  0  0
   58.4718   24.3567   46.5147 H   0  0  0  0  0  0  0  0  0  0  0  0
   57.1284   22.8474   46.5579 H   0  0  0  0  0  0  0  0  0  0  0  0
   57.6242   20.7530   45.3004 H   0  0  0  0  0  0  0  0  0  0  0  0
   57.1519   20.6207   42.8510 H   0  0  0  0  0  0  0  0  0  0  0  0
   56.1819   22.5895   41.6598 H   0  0  0  0  0  0  0  0  0  0  0  0
   55.6838   24.6887   42.9090 H   0  0  0  0  0  0  0  0  0  0  0  0
   56.0918   27.8913   45.7420 H   0  0  0  0  0  0  0  0  0  0  0  0
   57.9148   29.3191   46.6570 H   0  0  0  0  0  0  0  0  0  0  0  0
  1  2  2  0
  2  3  1  0
  3  4  1  0
  4  5  1  0
  5  6  1  0
  6  7  1  0
  7  8  2  0
  8  9  1  0
  9 10  1  0
  9 11  2  0
 11 12  1  0
 12 13  2  0
 12 14  1  0
 14 15  2  0
 15 16  1  0
 16 17  2  0
 17 18  1  0
 18 19  2  0
 19 20  1  0
 19 21  1  0
 21 22  2  0
 15 23  1  0
 23 24  1  0
 24 25  2  0
  5 26  1  0
 26 27  1  0
 27 28  1  0
 28 29  1  0
 27 30  1  0
 30 31  1  0
 30 32  1  0
 32 33  1  0
  2 34  1  0
 34 35  2  0
 35 36  1  0
 36 37  2  0
 37 38  1  0
 38 39  2  0
 38 40  1  0
 40 41  2  0
 41 42  1  0
 42 43  2  0
 43 44  1  0
 44 45  2  0
 37 46  1  0
 46 47  2  0
 32  4  1  0
 47 34  1  0
 25  7  1  0
 45 40  1  0
 24 11  1  0
 22 16  1  0
  4 48  1  1
  5 49  1  1
  8 50  1  0
 14 51  1  0
 17 52  1  0
 18 53  1  0
 21 54  1  0
 22 55  1  0
 25 56  1  0
 27 57  1  6
 28 58  1  0
 28 59  1  0
 29 60  1  0
 30 61  1  6
 31 62  1  0
 32 63  1  6
 33 64  1  0
 35 65  1  0
 36 66  1  0
 41 67  1  0
 42 68  1  0
 43 69  1  0
 44 70  1  0
 45 71  1  0
 46 72  1  0
 47 73  1  0
M  CHG  2  10  -1  20  -1
M  END
>  <UniqueID>  (94) 
86

>  <SMILES>  (94) 
O=C(O[C@@H]1C(O)C(O)C(CO)O[C@@H]1Oc1cc([O-])c2c(=O)cc(-c3ccc([O-])cc3)oc2c1)c1ccc(C(=O)c2ccccc2)cc1

>  <Energy>  (94) 
110.02776989240718

>  <Genealogy>  (94) 
O=C(OC1C(Oc2cc([O-])c3c(=O)cc(-c4ccc([O-])cc4)oc3c2)OC(CO)C(O)C1O)c1ccc(C(=O)c2ccccc2)cc1 (protonated)
O=C(O[C@@H]1C(O)C(O)C(CO)O[C@@H]1Oc1cc([O-])c2c(=O)cc(-c3ccc([O-])cc3)oc2c1)c1ccc(C(=O)c2ccccc2)cc1 (chirality)
O=C(O[C@@H]1C(O)C(O)C(CO)O[C@@H]1Oc1cc([O-])c2c(=O)cc(-c3ccc([O-])cc3)oc2c1)c1ccc(C(=O)c2ccccc2)cc1 (3D coordinates assigned)
O=C(O[C@@H]1C(O)C(O)C(CO)O[C@@H]1Oc1cc([O-])c2c(=O)cc(-c3ccc([O-])cc3)oc2c1)c1ccc(C(=O)c2ccccc2)cc1 (nonaromatic ring conformer: 110.02776989240718 kcal/mol)

>  <smiles>  (94) 
O=C(OC1C(Oc2cc(O)c3c(=O)cc(-c4ccc(O)cc4)oc3c2)OC(CO)C(O)C1O)c1ccc(C(=O)c2ccccc2)cc1

>  <score_type>  (94) 
oracle

>  <origin>  (94) 
adg

>  <m_score__min__energy>  (94) 
-14.369999999999999

>  <m_primary>  (94) 
energy

$$$$
94:0
     RDKit          3D

 53 56  0  0  0  0  0  0  0  0999 V2000
   60.6770   28.8230   45.7170 O   0  0  0  0  0  0  0  0  0  0  0  0
   59.8220   29.7160   45.9710 C   0  0  0  0  0  0  0  0  0  0  0  0
   60.0120   30.5740   47.0620 O   0  0  0  0  0  0  0  0  0  0  0  0
   61.0200   31.5470   47.1180 C   0  0  0  0  0  0  0  0  0  0  0  0
   62.3040   31.1490   47.5090 C   0  0  0  0  0  0  0  0  0  0  0  0
   63.3320   32.0870   47.6260 C   0  0  0  0  0  0  0  0  0  0  0  0
   63.0870   33.4300   47.3420 C   0  0  0  0  0  0  0  0  0  0  0  0
   61.8190   33.8380   46.9200 C   0  0  0  0  0  0  0  0  0  0  0  0
   60.7770   32.9040   46.7840 C   0  0  0  0  0  0  0  0  0  0  0  0
   59.4720   33.3500   46.2420 C   0  0  0  0  0  0  0  0  0  0  0  0
   58.2740   32.9920   46.8860 C   0  0  0  0  0  0  0  0  0  0  0  0
   57.0460   33.4360   46.3870 C   0  0  0  0  0  0  0  0  0  0  0  0
   57.0020   34.2280   45.2370 C   0  0  0  0  0  0  0  0  0  0  0  0
   58.1860   34.5740   44.5810 C   0  0  0  0  0  0  0  0  0  0  0  0
   59.4170   34.1350   45.0770 C   0  0  0  0  0  0  0  0  0  0  0  0
   58.5970   29.8400   45.1480 C   0  0  0  0  0  0  0  0  0  0  0  0
   58.5970   30.7670   44.0890 C   0  0  0  0  0  0  0  0  0  0  0  0
   57.4420   30.9890   43.3360 C   0  0  0  0  0  0  0  0  0  0  0  0
   57.4580   32.1630   42.0320 Cl  0  0  0  0  0  0  0  0  0  0  0  0
   56.2740   30.2850   43.6240 C   0  0  0  0  0  0  0  0  0  0  0  0
   56.2600   29.3490   44.6590 C   0  0  0  0  0  0  0  0  0  0  0  0
   57.4120   29.1090   45.4270 C   0  0  0  0  0  0  0  0  0  0  0  0
   57.4010   28.0710   46.4220 N   0  0  0  0  0  0  0  0  0  0  0  0
   56.9710   26.4270   46.0710 S   0  0  0  0  0  0  0  0  0  0  0  0
   55.4750   26.2940   46.0040 O   0  0  0  0  0  0  0  0  0  0  0  0
   57.4820   25.5450   47.1740 O   0  0  0  0  0  0  0  0  0  0  0  0
   57.6910   25.9140   44.5200 C   0  0  0  0  0  0  0  0  0  0  0  0
   57.4380   24.4510   44.2900 C   0  0  0  0  0  0  0  0  0  0  0  0
   56.4800   24.0370   43.3480 C   0  0  0  0  0  0  0  0  0  0  0  0
   56.2770   22.6760   43.1010 C   0  0  0  0  0  0  0  0  0  0  0  0
   57.0310   21.7210   43.7860 C   0  0  0  0  0  0  0  0  0  0  0  0
   57.9920   22.1240   44.7170 C   0  0  0  0  0  0  0  0  0  0  0  0
   58.2000   23.4840   44.9660 C   0  0  0  0  0  0  0  0  0  0  0  0
   62.5047   30.0894   47.7257 H   0  0  0  0  0  0  0  0  0  0  0  0
   64.3355   31.7662   47.9424 H   0  0  0  0  0  0  0  0  0  0  0  0
   63.8937   34.1699   47.4504 H   0  0  0  0  0  0  0  0  0  0  0  0
   61.6346   34.8983   46.6924 H   0  0  0  0  0  0  0  0  0  0  0  0
   58.3035   32.3601   47.7859 H   0  0  0  0  0  0  0  0  0  0  0  0
   56.1129   33.1613   46.9006 H   0  0  0  0  0  0  0  0  0  0  0  0
   56.0349   34.5793   44.8479 H   0  0  0  0  0  0  0  0  0  0  0  0
   58.1495   35.1931   43.6725 H   0  0  0  0  0  0  0  0  0  0  0  0
   60.3462   34.4048   44.5538 H   0  0  0  0  0  0  0  0  0  0  0  0
   59.5164   31.3225   43.8519 H   0  0  0  0  0  0  0  0  0  0  0  0
   55.3629   30.4673   43.0352 H   0  0  0  0  0  0  0  0  0  0  0  0
   55.3363   28.7926   44.8762 H   0  0  0  0  0  0  0  0  0  0  0  0
   57.6480   28.2990   47.4100 H   0  0  0  0  0  0  0  0  0  0  0  0
   57.2408   26.4939   43.7008 H   0  0  0  0  0  0  0  0  0  0  0  0
   58.7763   26.0902   44.5521 H   0  0  0  0  0  0  0  0  0  0  0  0
   55.8878   24.7869   42.8031 H   0  0  0  0  0  0  0  0  0  0  0  0
   55.5227   22.3572   42.3665 H   0  0  0  0  0  0  0  0  0  0  0  0
   56.8683   20.6504   43.5926 H   0  0  0  0  0  0  0  0  0  0  0  0
   58.5857   21.3701   45.2548 H   0  0  0  0  0  0  0  0  0  0  0  0
   58.9629   23.7977   45.6937 H   0  0  0  0  0  0  0  0  0  0  0  0
  1  2  2  0
  2  3  1  0
  3  4  1  0
  4  5  2  0
  5  6  1  0
  6  7  2  0
  7  8  1  0
  8  9  2  0
  9 10  1  0
 10 11  2  0
 11 12  1  0
 12 13  2  0
 13 14  1  0
 14 15  2  0
  2 16  1  0
 16 17  2  0
 17 18  1  0
 18 19  1  0
 18 20  2  0
 20 21  1  0
 21 22  2  0
 22 23  1  0
 23 24  1  0
 24 25  2  0
 24 26  2  0
 24 27  1  0
 27 28  1  0
 28 29  2  0
 29 30  1  0
 30 31  2  0
 31 32  1  0
 32 33  2  0
  9  4  1  0
 15 10  1  0
 22 16  1  0
 33 28  1  0
  5 34  1  0
  6 35  1  0
  7 36  1  0
  8 37  1  0
 11 38  1  0
 12 39  1  0
 13 40  1  0
 14 41  1  0
 15 42  1  0
 17 43  1  0
 20 44  1  0
 21 45  1  0
 23 46  1  0
 27 47  1  0
 27 48  1  0
 29 49  1  0
 30 50  1  0
 31 51  1  0
 32 52  1  0
 33 53  1  0
M  END
>  <UniqueID>  (95) 
87

>  <SMILES>  (95) 
O=C(Oc1ccccc1-c1ccccc1)c1cc(Cl)ccc1NS(=O)(=O)Cc1ccccc1

>  <Energy>  (95) 
71.63713414286093

>  <Genealogy>  (95) 
O=C(Oc1ccccc1-c1ccccc1)c1cc(Cl)ccc1NS(=O)(=O)Cc1ccccc1 (3D coordinates assigned)
O=C(Oc1ccccc1-c1ccccc1)c1cc(Cl)ccc1NS(=O)(=O)Cc1ccccc1 (optimized conformer: 71.63713414286093 kcal/mol)

>  <smiles>  (95) 
O=C(Oc1ccccc1-c1ccccc1)c1cc(Cl)ccc1NS(=O)(=O)Cc1ccccc1

>  <score_type>  (95) 
oracle

>  <origin>  (95) 
adg

>  <m_score__min__energy>  (95) 
-11.15

>  <m_primary>  (95) 
energy

$$$$
