0:0
     RDKit          3D

 53 56  0  0  0  0  0  0  0  0999 V2000
   58.8460   32.6020   51.4810 C   0  0  0  0  0  0  0  0  0  0  0  0
   59.8330   31.4620   51.7270 C   0  0  0  0  0  0  0  0  0  0  0  0
   59.7970   30.4550   50.5940 C   0  0  0  0  0  0  0  0  0  0  0  0
   60.9430   30.1170   49.8270 C   0  0  0  0  0  0  0  0  0  0  0  0
   62.3150   30.6890   50.0880 C   0  0  0  0  0  0  0  0  0  0  0  0
   62.6420   31.8170   49.1430 C   0  0  0  0  0  0  0  0  0  0  0  0
   62.9220   33.1030   49.6390 C   0  0  0  0  0  0  0  0  0  0  0  0
   63.2270   34.1460   48.7600 C   0  0  0  0  0  0  0  0  0  0  0  0
   63.2690   33.9130   47.3830 C   0  0  0  0  0  0  0  0  0  0  0  0
   63.0100   32.6350   46.8820 C   0  0  0  0  0  0  0  0  0  0  0  0
   62.7030   31.5880   47.7570 C   0  0  0  0  0  0  0  0  0  0  0  0
   60.8170   29.2360   48.7970 N   0  0  0  0  0  0  0  0  0  0  0  0
   59.6280   28.6670   48.4860 C   0  0  0  0  0  0  0  0  0  0  0  0
   59.5150   27.5000   47.1330 S   0  0  0  0  0  0  0  0  0  0  0  0
   57.7880   27.9180   46.6990 C   0  0  0  0  0  0  0  0  0  0  0  0
   57.7020   29.2440   46.0060 C   0  0  0  0  0  0  0  0  0  0  0  0
   56.6780   29.5180   45.3220 O   0  0  0  0  0  0  0  0  0  0  0  0
   58.7550   30.2080   46.1560 N   0  0  0  0  0  0  0  0  0  0  0  0
   58.6310   31.5570   45.6810 C   0  0  0  0  0  0  0  0  0  0  0  0
   58.1680   31.7900   44.3770 C   0  0  0  0  0  0  0  0  0  0  0  0
   58.0580   33.0890   43.8820 C   0  0  0  0  0  0  0  0  0  0  0  0
   58.4090   34.1770   44.6800 C   0  0  0  0  0  0  0  0  0  0  0  0
   58.8720   33.9740   45.9880 C   0  0  0  0  0  0  0  0  0  0  0  0
   59.2120   35.0720   46.7940 C   0  0  0  0  0  0  0  0  0  0  0  0
   59.6560   34.8720   48.1020 C   0  0  0  0  0  0  0  0  0  0  0  0
   59.7630   33.5800   48.6170 C   0  0  0  0  0  0  0  0  0  0  0  0
   59.4330   32.4770   47.8270 C   0  0  0  0  0  0  0  0  0  0  0  0
   58.9890   32.6550   46.5010 C   0  0  0  0  0  0  0  0  0  0  0  0
   58.5210   28.9760   49.2040 N   0  0  0  0  0  0  0  0  0  0  0  0
   58.5740   29.8470   50.2410 C   0  0  0  0  0  0  0  0  0  0  0  0
   57.5190   30.1030   50.8800 O   0  0  0  0  0  0  0  0  0  0  0  0
   58.4998   33.0018   52.4455 H   0  0  0  0  0  0  0  0  0  0  0  0
   59.3428   33.4004   50.9102 H   0  0  0  0  0  0  0  0  0  0  0  0
   57.9848   32.2246   50.9102 H   0  0  0  0  0  0  0  0  0  0  0  0
   60.8486   31.8770   51.8067 H   0  0  0  0  0  0  0  0  0  0  0  0
   59.5504   30.9500   52.6587 H   0  0  0  0  0  0  0  0  0  0  0  0
   62.3522   31.0675   51.1202 H   0  0  0  0  0  0  0  0  0  0  0  0
   63.0535   29.8887   49.9326 H   0  0  0  0  0  0  0  0  0  0  0  0
   62.9009   33.2886   50.7230 H   0  0  0  0  0  0  0  0  0  0  0  0
   63.4344   35.1522   49.1531 H   0  0  0  0  0  0  0  0  0  0  0  0
   63.5061   34.7363   46.6931 H   0  0  0  0  0  0  0  0  0  0  0  0
   63.0475   32.4519   45.7980 H   0  0  0  0  0  0  0  0  0  0  0  0
   62.5084   30.5811   47.3592 H   0  0  0  0  0  0  0  0  0  0  0  0
   57.3884   27.1396   46.0323 H   0  0  0  0  0  0  0  0  0  0  0  0
   57.2025   27.9754   47.6285 H   0  0  0  0  0  0  0  0  0  0  0  0
   59.5820   29.9560   46.7430 H   0  0  0  0  0  0  0  0  0  0  0  0
   57.8889   30.9389   43.7385 H   0  0  0  0  0  0  0  0  0  0  0  0
   57.6929   33.2559   42.8579 H   0  0  0  0  0  0  0  0  0  0  0  0
   58.3224   35.1988   44.2820 H   0  0  0  0  0  0  0  0  0  0  0  0
   59.1282   36.0930   46.3935 H   0  0  0  0  0  0  0  0  0  0  0  0
   59.9224   35.7359   48.7287 H   0  0  0  0  0  0  0  0  0  0  0  0
   60.1090   33.4294   49.6503 H   0  0  0  0  0  0  0  0  0  0  0  0
   59.5201   31.4621   48.2422 H   0  0  0  0  0  0  0  0  0  0  0  0
  1  2  1  0
  2  3  1  0
  3  4  2  0
  4  5  1  0
  5  6  1  0
  6  7  2  0
  7  8  1  0
  8  9  2  0
  9 10  1  0
 10 11  2  0
  4 12  1  0
 12 13  1  0
 13 14  1  0
 14 15  1  0
 15 16  1  0
 16 17  2  0
 16 18  1  0
 18 19  1  0
 19 20  2  0
 20 21  1  0
 21 22  2  0
 22 23  1  0
 23 24  2  0
 24 25  1  0
 25 26  2  0
 26 27  1  0
 27 28  2  0
 13 29  2  0
 29 30  1  0
 30 31  2  0
 30  3  1  0
 11  6  1  0
 28 19  1  0
 28 23  1  0
  1 32  1  0
  1 33  1  0
  1 34  1  0
  2 35  1  0
  2 36  1  0
  5 37  1  0
  5 38  1  0
  7 39  1  0
  8 40  1  0
  9 41  1  0
 10 42  1  0
 11 43  1  0
 15 44  1  0
 15 45  1  0
 18 46  1  0
 20 47  1  0
 21 48  1  0
 22 49  1  0
 24 50  1  0
 25 51  1  0
 26 52  1  0
 27 53  1  0
M  CHG  1  12  -1
M  END
>  <UniqueID>  (1) 
1

>  <SMILES>  (1) 
CCc1c(Cc2ccccc2)[n-]c(SCC(=O)Nc2cccc3ccccc23)nc1=O

>  <Energy>  (1) 
59.46878166215964

>  <Genealogy>  (1) 
CCc1c(Cc2ccccc2)[n-]c(SCC(=O)Nc2cccc3ccccc23)nc1=O (protonated)
CCc1c(Cc2ccccc2)[n-]c(SCC(=O)Nc2cccc3ccccc23)nc1=O (3D coordinates assigned)
CCc1c(Cc2ccccc2)[n-]c(SCC(=O)Nc2cccc3ccccc23)nc1=O (optimized conformer: 59.46878166215964 kcal/mol)

>  <smiles>  (1) 
CCc1c(Cc2ccccc2)[nH]c(SCC(=O)Nc2cccc3ccccc23)nc1=O

>  <score_type>  (1) 
oracle

>  <origin>  (1) 
adg

>  <m_score__min__energy>  (1) 
-11.15

>  <m_primary>  (1) 
energy

$$$$
1:0
     RDKit          3D

 45 48  0  0  0  0  0  0  0  0999 V2000
   59.1740   31.4600   51.6200 C   0  0  0  0  0  0  0  0  0  0  0  0
   59.3910   32.4100   50.4800 C   0  0  0  0  0  0  0  0  0  0  0  0
   60.4600   33.3210   50.5110 C   0  0  0  0  0  0  0  0  0  0  0  0
   60.6860   34.1820   49.4320 C   0  0  0  0  0  0  0  0  0  0  0  0
   59.8580   34.1320   48.3070 C   0  0  0  0  0  0  0  0  0  0  0  0
   60.0780   34.9510   47.2850 O   0  0  0  0  0  0  0  0  0  0  0  0
   59.3310   34.9450   46.1830 C   0  0  0  0  0  0  0  0  0  0  0  0
   59.6140   35.7460   45.2520 O   0  0  0  0  0  0  0  0  0  0  0  0
   58.2540   34.0450   46.0540 C   0  0  0  0  0  0  0  0  0  0  0  0
   57.4060   34.0130   44.8350 C   0  0  0  0  0  0  0  0  0  0  0  0
   56.6100   34.9620   44.6090 O   0  0  0  0  0  0  0  0  0  0  0  0
   57.4180   32.8990   43.9310 N   0  0  0  0  0  0  0  0  0  0  0  0
   57.5680   31.5180   44.2920 C   0  0  0  0  0  0  0  0  0  0  0  0
   56.5260   30.6270   44.0040 C   0  0  0  0  0  0  0  0  0  0  0  0
   56.6390   29.2740   44.3410 C   0  0  0  0  0  0  0  0  0  0  0  0
   57.8020   28.7970   44.9620 C   0  0  0  0  0  0  0  0  0  0  0  0
   57.9510   27.0970   45.3880 S   0  0  0  0  0  0  0  0  0  0  0  0
   59.3060   26.8580   45.9930 O   0  0  0  0  0  0  0  0  0  0  0  0
   57.7870   26.2510   44.1560 O   0  0  0  0  0  0  0  0  0  0  0  0
   56.7110   26.6830   46.5290 N   0  0  0  0  0  0  0  0  0  0  0  0
   55.8960   25.6850   46.3790 C   0  0  0  0  0  0  0  0  0  0  0  0
   56.1990   24.4520   46.8720 N   0  0  0  0  0  0  0  0  0  0  0  0
   55.3480   23.4060   46.7160 C   0  0  0  0  0  0  0  0  0  0  0  0
   54.1400   23.5880   46.0440 C   0  0  0  0  0  0  0  0  0  0  0  0
   53.8420   24.8550   45.5470 C   0  0  0  0  0  0  0  0  0  0  0  0
   54.7210   25.8770   45.7220 N   0  0  0  0  0  0  0  0  0  0  0  0
   58.8600   29.6790   45.2190 C   0  0  0  0  0  0  0  0  0  0  0  0
   58.7470   31.0300   44.8810 C   0  0  0  0  0  0  0  0  0  0  0  0
   57.9860   33.1780   47.1230 C   0  0  0  0  0  0  0  0  0  0  0  0
   58.7940   33.2090   48.2620 C   0  0  0  0  0  0  0  0  0  0  0  0
   58.5670   32.3470   49.3450 C   0  0  0  0  0  0  0  0  0  0  0  0
   59.2965   31.9963   52.5726 H   0  0  0  0  0  0  0  0  0  0  0  0
   58.1576   31.0435   51.5618 H   0  0  0  0  0  0  0  0  0  0  0  0
   59.9088   30.6435   51.5618 H   0  0  0  0  0  0  0  0  0  0  0  0
   61.1227   33.3574   51.3882 H   0  0  0  0  0  0  0  0  0  0  0  0
   61.5179   34.9007   49.4690 H   0  0  0  0  0  0  0  0  0  0  0  0
   55.6139   30.9933   43.5101 H   0  0  0  0  0  0  0  0  0  0  0  0
   55.8131   28.5824   44.1182 H   0  0  0  0  0  0  0  0  0  0  0  0
   55.6109   22.4168   47.1189 H   0  0  0  0  0  0  0  0  0  0  0  0
   53.4389   22.7511   45.9094 H   0  0  0  0  0  0  0  0  0  0  0  0
   52.8959   25.0282   45.0133 H   0  0  0  0  0  0  0  0  0  0  0  0
   59.7825   29.3066   45.6884 H   0  0  0  0  0  0  0  0  0  0  0  0
   59.5850   31.7151   45.0769 H   0  0  0  0  0  0  0  0  0  0  0  0
   57.1417   32.4753   47.0648 H   0  0  0  0  0  0  0  0  0  0  0  0
   57.7421   31.6205   49.3050 H   0  0  0  0  0  0  0  0  0  0  0  0
  1  2  1  0
  2  3  2  0
  3  4  1  0
  4  5  2  0
  5  6  1  0
  6  7  1  0
  7  8  2  0
  7  9  1  0
  9 10  1  0
 10 11  2  0
 10 12  1  0
 12 13  1  0
 13 14  2  0
 14 15  1  0
 15 16  2  0
 16 17  1  0
 17 18  2  0
 17 19  2  0
 17 20  1  0
 20 21  2  3
 21 22  1  0
 22 23  2  0
 23 24  1  0
 24 25  2  0
 25 26  1  0
 16 27  1  0
 27 28  2  0
  9 29  2  0
 29 30  1  0
 30 31  2  0
 31  2  1  0
 30  5  1  0
 28 13  1  0
 26 21  1  0
  1 32  1  0
  1 33  1  0
  1 34  1  0
  3 35  1  0
  4 36  1  0
 14 37  1  0
 15 38  1  0
 23 39  1  0
 24 40  1  0
 25 41  1  0
 27 42  1  0
 28 43  1  0
 29 44  1  0
 31 45  1  0
M  CHG  2  12  -1  26  -1
M  END
>  <UniqueID>  (2) 
2

>  <SMILES>  (2) 
Cc1ccc2oc(=O)c(C(=O)[N-]c3ccc(S(=O)(=O)N=c4nccc[n-]4)cc3)cc2c1

>  <Energy>  (2) 
65.69436851495882

>  <Genealogy>  (2) 
Cc1ccc2oc(=O)c(C(=O)[N-]c3ccc(S(=O)(=O)N=c4nccc[n-]4)cc3)cc2c1 (protonated)
Cc1ccc2oc(=O)c(C(=O)[N-]c3ccc(S(=O)(=O)N=c4nccc[n-]4)cc3)cc2c1 (3D coordinates assigned)
Cc1ccc2oc(=O)c(C(=O)[N-]c3ccc(S(=O)(=O)N=c4nccc[n-]4)cc3)cc2c1 (optimized conformer: 65.69436851495882 kcal/mol)

>  <smiles>  (2) 
Cc1ccc2oc(=O)c(C(=O)Nc3ccc(S(=O)(=O)N=c4nccc[nH]4)cc3)cc2c1

>  <score_type>  (2) 
oracle

>  <origin>  (2) 
adg

>  <m_score__min__energy>  (2) 
-11.66

>  <m_primary>  (2) 
energy

$$$$
2:0
     RDKit          3D

 51 54  0  0  0  0  0  0  0  0999 V2000
   55.2130   31.2120   52.4180 N   0  0  0  0  0  0  0  0  0  0  0  0
   56.8560   30.7000   52.5830 S   0  0  0  0  0  0  0  0  0  0  0  0
   57.3290   30.9640   53.9850 O   0  0  0  0  0  0  0  0  0  0  0  0
   56.9360   29.2250   52.3040 O   0  0  0  0  0  0  0  0  0  0  0  0
   57.8680   31.5910   51.4500 C   0  0  0  0  0  0  0  0  0  0  0  0
   58.1270   31.0510   50.1840 C   0  0  0  0  0  0  0  0  0  0  0  0
   58.8760   31.7740   49.2500 C   0  0  0  0  0  0  0  0  0  0  0  0
   59.3870   33.0390   49.5820 C   0  0  0  0  0  0  0  0  0  0  0  0
   60.1730   33.7900   48.6450 N   0  0  0  0  0  0  0  0  0  0  0  0
   59.8180   34.0630   47.4240 C   0  0  0  0  0  0  0  0  0  0  0  0
   59.1990   33.1300   46.6470 N   0  0  0  0  0  0  0  0  0  0  0  0
   58.7820   33.4110   45.3820 C   0  0  0  0  0  0  0  0  0  0  0  0
   58.0810   32.3610   44.5980 C   0  0  0  0  0  0  0  0  0  0  0  0
   57.9430   32.4590   43.2010 C   0  0  0  0  0  0  0  0  0  0  0  0
   57.2630   31.4720   42.4870 C   0  0  0  0  0  0  0  0  0  0  0  0
   56.6900   30.3900   43.1550 C   0  0  0  0  0  0  0  0  0  0  0  0
   56.7750   30.2910   44.5470 C   0  0  0  0  0  0  0  0  0  0  0  0
   56.1550   29.1670   45.1860 N   0  0  0  0  0  0  0  0  0  0  0  0
   56.8440   27.5950   45.4600 S   0  0  0  0  0  0  0  0  0  0  0  0
   57.3790   26.9900   44.1970 O   0  0  0  0  0  0  0  0  0  0  0  0
   55.7400   26.6990   45.9460 O   0  0  0  0  0  0  0  0  0  0  0  0
   58.1020   27.7030   46.7100 C   0  0  0  0  0  0  0  0  0  0  0  0
   58.6620   28.9650   46.9810 C   0  0  0  0  0  0  0  0  0  0  0  0
   59.7410   29.0970   47.8580 C   0  0  0  0  0  0  0  0  0  0  0  0
   60.2890   27.9710   48.4680 C   0  0  0  0  0  0  0  0  0  0  0  0
   59.7470   26.7090   48.2170 C   0  0  0  0  0  0  0  0  0  0  0  0
   58.6460   26.5600   47.3570 C   0  0  0  0  0  0  0  0  0  0  0  0
   58.1040   25.2020   47.1810 C   0  0  0  0  0  0  0  0  0  0  0  0
   57.1080   24.8220   47.8510 O   0  0  0  0  0  0  0  0  0  0  0  0
   58.7490   24.2990   46.3450 O   0  0  0  0  0  0  0  0  0  0  0  0
   57.4980   31.2630   45.2620 C   0  0  0  0  0  0  0  0  0  0  0  0
   59.0180   34.6950   44.8630 C   0  0  0  0  0  0  0  0  0  0  0  0
   59.6460   35.6410   45.6720 C   0  0  0  0  0  0  0  0  0  0  0  0
   60.0270   35.3110   46.9330 N   0  0  0  0  0  0  0  0  0  0  0  0
   59.1700   33.5540   50.8660 C   0  0  0  0  0  0  0  0  0  0  0  0
   58.3980   32.8440   51.7900 C   0  0  0  0  0  0  0  0  0  0  0  0
   55.1110   31.6080   51.4570 H   0  0  0  0  0  0  0  0  0  0  0  0
   57.7400   30.0549   49.9234 H   0  0  0  0  0  0  0  0  0  0  0  0
   59.0653   31.3505   48.2526 H   0  0  0  0  0  0  0  0  0  0  0  0
   58.3741   33.3195   42.6684 H   0  0  0  0  0  0  0  0  0  0  0  0
   57.1784   31.5474   41.3929 H   0  0  0  0  0  0  0  0  0  0  0  0
   56.1676   29.6092   42.5827 H   0  0  0  0  0  0  0  0  0  0  0  0
   58.2445   29.8595   46.4957 H   0  0  0  0  0  0  0  0  0  0  0  0
   60.1591   30.0927   48.0675 H   0  0  0  0  0  0  0  0  0  0  0  0
   61.1481   28.0760   49.1469 H   0  0  0  0  0  0  0  0  0  0  0  0
   60.1864   25.8224   48.6974 H   0  0  0  0  0  0  0  0  0  0  0  0
   57.6096   31.1650   46.3519 H   0  0  0  0  0  0  0  0  0  0  0  0
   58.7129   34.9493   43.8372 H   0  0  0  0  0  0  0  0  0  0  0  0
   59.8329   36.6550   45.2888 H   0  0  0  0  0  0  0  0  0  0  0  0
   59.6092   34.5220   51.1489 H   0  0  0  0  0  0  0  0  0  0  0  0
   58.2058   33.2691   52.7862 H   0  0  0  0  0  0  0  0  0  0  0  0
  1  2  1  0
  2  3  2  0
  2  4  2  0
  2  5  1  0
  5  6  2  0
  6  7  1  0
  7  8  2  0
  8  9  1  0
  9 10  2  3
 10 11  1  0
 11 12  2  0
 12 13  1  0
 13 14  2  0
 14 15  1  0
 15 16  2  0
 16 17  1  0
 17 18  1  0
 18 19  1  0
 19 20  2  0
 19 21  2  0
 19 22  1  0
 22 23  2  0
 23 24  1  0
 24 25  2  0
 25 26  1  0
 26 27  2  0
 27 28  1  0
 28 29  2  0
 28 30  1  0
 17 31  2  0
 12 32  1  0
 32 33  2  0
 33 34  1  0
  8 35  1  0
 35 36  2  0
 36  5  1  0
 34 10  1  0
 31 13  1  0
 27 22  1  0
  1 37  1  0
  6 38  1  0
  7 39  1  0
 14 40  1  0
 15 41  1  0
 16 42  1  0
 23 43  1  0
 24 44  1  0
 25 45  1  0
 26 46  1  0
 31 47  1  0
 32 48  1  0
 33 49  1  0
 35 50  1  0
 36 51  1  0
M  CHG  4   1  -1  18  -1  30  -1  34  -1
M  END
>  <UniqueID>  (3) 
3

>  <SMILES>  (3) 
[NH-]S(=O)(=O)c1ccc(N=c2nc(-c3cccc([N-]S(=O)(=O)c4ccccc4C(=O)[O-])c3)cc[n-]2)cc1

>  <Energy>  (3) 
79.14299386560631

>  <Genealogy>  (3) 
[NH-]S(=O)(=O)c1ccc(N=c2nc(-c3cccc([N-]S(=O)(=O)c4ccccc4C(=O)[O-])c3)cc[n-]2)cc1 (protonated)
[NH-]S(=O)(=O)c1ccc(N=c2nc(-c3cccc([N-]S(=O)(=O)c4ccccc4C(=O)[O-])c3)cc[n-]2)cc1 (3D coordinates assigned)
[NH-]S(=O)(=O)c1ccc(N=c2nc(-c3cccc([N-]S(=O)(=O)c4ccccc4C(=O)[O-])c3)cc[n-]2)cc1 (optimized conformer: 79.14299386560631 kcal/mol)

>  <smiles>  (3) 
NS(=O)(=O)c1ccc(N=c2nc(-c3cccc(NS(=O)(=O)c4ccccc4C(=O)O)c3)cc[nH]2)cc1

>  <score_type>  (3) 
oracle

>  <origin>  (3) 
adg

>  <m_score__min__energy>  (3) 
-18.399999999999999

>  <m_primary>  (3) 
energy

$$$$
3:0
     RDKit          3D

 39 41  0  0  0  0  0  0  0  0999 V2000
   57.1583   30.3619   42.4707 H   0  0  0  0  0  0  0  0  0  0  0  0
   57.2960   31.0840   43.2890 C   0  0  0  0  0  0  0  0  0  0  0  0
   56.9810   30.7410   44.5650 N   0  0  0  0  0  0  0  0  0  0  0  0
   57.1380   31.6000   45.5750 N   0  0  0  0  0  0  0  0  0  0  0  0
   57.6210   32.8580   45.3720 C   0  0  0  0  0  0  0  0  0  0  0  0
   57.7710   33.6850   46.3630 N   0  0  0  0  0  0  0  0  0  0  0  0
   59.0400   34.3120   46.7210 C   0  0  0  0  0  0  0  0  0  0  0  0
   58.9181   34.8812   47.6544 H   0  0  0  0  0  0  0  0  0  0  0  0
   59.3540   34.9933   45.9165 H   0  0  0  0  0  0  0  0  0  0  0  0
   60.0790   33.2520   46.9140 C   0  0  0  0  0  0  0  0  0  0  0  0
   59.8040   31.9670   46.5590 N   0  0  0  0  0  0  0  0  0  0  0  0
   60.6990   30.9580   46.7470 C   0  0  0  0  0  0  0  0  0  0  0  0
   60.3550   29.5670   46.2950 C   0  0  0  0  0  0  0  0  0  0  0  0
   60.3886   28.8868   47.1588 H   0  0  0  0  0  0  0  0  0  0  0  0
   61.0833   29.2494   45.5343 H   0  0  0  0  0  0  0  0  0  0  0  0
   59.0090   29.5360   45.7070 N   0  0  0  0  0  0  0  0  0  0  0  0
   59.0660   29.7280   44.6790 H   0  0  0  0  0  0  0  0  0  0  0  0
   58.4160   30.2830   46.1420 H   0  0  0  0  0  0  0  0  0  0  0  0
   58.4040   28.2470   45.9260 C   0  0  0  0  0  0  0  0  0  0  0  0
   59.1970   27.1360   46.2690 C   0  0  0  0  0  0  0  0  0  0  0  0
   60.2885   27.2471   46.3480 H   0  0  0  0  0  0  0  0  0  0  0  0
   58.6060   25.8920   46.5100 C   0  0  0  0  0  0  0  0  0  0  0  0
   59.2336   25.0270   46.7708 H   0  0  0  0  0  0  0  0  0  0  0  0
   57.2190   25.7460   46.4200 C   0  0  0  0  0  0  0  0  0  0  0  0
   56.7564   24.7656   46.6066 H   0  0  0  0  0  0  0  0  0  0  0  0
   56.4190   26.8450   46.0930 C   0  0  0  0  0  0  0  0  0  0  0  0
   55.0400   26.7000   46.0100 O   0  0  0  0  0  0  0  0  0  0  0  0
   57.0080   28.0920   45.8500 C   0  0  0  0  0  0  0  0  0  0  0  0
   56.3751   28.9557   45.5981 H   0  0  0  0  0  0  0  0  0  0  0  0
   61.9530   31.2380   47.3080 C   0  0  0  0  0  0  0  0  0  0  0  0
   62.6929   30.4353   47.4432 H   0  0  0  0  0  0  0  0  0  0  0  0
   62.2530   32.5450   47.6930 C   0  0  0  0  0  0  0  0  0  0  0  0
   63.2286   32.7753   48.1459 H   0  0  0  0  0  0  0  0  0  0  0  0
   61.3140   33.5600   47.5030 C   0  0  0  0  0  0  0  0  0  0  0  0
   61.5403   34.5911   47.8121 H   0  0  0  0  0  0  0  0  0  0  0  0
   57.9610   33.2560   44.0770 C   0  0  0  0  0  0  0  0  0  0  0  0
   58.3549   34.2659   43.8902 H   0  0  0  0  0  0  0  0  0  0  0  0
   57.7950   32.3580   43.0250 C   0  0  0  0  0  0  0  0  0  0  0  0
   58.0550   32.6514   41.9972 H   0  0  0  0  0  0  0  0  0  0  0  0
  1  2  1  0
  2  3  2  0
  3  4  1  0
  4  5  1  0
  5  6  2  0
  6  7  1  0
  7  8  1  0
  7  9  1  0
  7 10  1  0
 10 11  2  0
 11 12  1  0
 12 13  1  0
 13 14  1  0
 13 15  1  0
 13 16  1  0
 16 17  1  0
 16 18  1  0
 16 19  1  0
 19 20  2  0
 20 21  1  0
 20 22  1  0
 22 23  1  0
 22 24  2  0
 24 25  1  0
 24 26  1  0
 26 27  1  0
 26 28  2  0
 28 29  1  0
 12 30  2  0
 30 31  1  0
 30 32  1  0
 32 33  1  0
 32 34  2  0
 34 35  1  0
  5 36  1  0
 36 37  1  0
 36 38  2  0
 38 39  1  0
 38  2  1  0
 34 10  1  0
 28 19  1  0
M  CHG  3   4  -1  16   1  27  -1
M  END
>  <UniqueID>  (4) 
4

>  <SMILES>  (4) 
[O-]c1cccc([NH2+]Cc2cccc(C/N=c3/cccn[n-]3)n2)c1

>  <Energy>  (4) 
41.66956562128493

>  <Genealogy>  (4) 
[O-]c1cccc([NH2+]Cc2cccc(CN=c3cccn[n-]3)n2)c1 (protonated)
[O-]c1cccc([NH2+]Cc2cccc(C/N=c3/cccn[n-]3)n2)c1 (cis-trans isomerization)
[O-]c1cccc([NH2+]Cc2cccc(C/N=c3/cccn[n-]3)n2)c1 (3D coordinates assigned)
[O-]c1cccc([NH2+]Cc2cccc(C/N=c3/cccn[n-]3)n2)c1 (optimized conformer: 41.66956562128493 kcal/mol)

>  <smiles>  (4) 
Oc1cccc(NCc2cccc(CN=c3cccn[nH]3)n2)c1

>  <score_type>  (4) 
oracle

>  <origin>  (4) 
adg

>  <m_score__min__energy>  (4) 
-11.27

>  <m_primary>  (4) 
energy

$$$$
4:0
     RDKit          3D

 36 38  0  0  0  0  0  0  0  0999 V2000
   58.6320   22.2720   45.0300 C   0  0  0  0  0  0  0  0  0  0  0  0
   57.6880   23.4070   45.2730 C   0  0  0  0  0  0  0  0  0  0  0  0
   56.4360   23.4320   44.6510 C   0  0  0  0  0  0  0  0  0  0  0  0
   55.5780   24.5060   44.8860 C   0  0  0  0  0  0  0  0  0  0  0  0
   55.9680   25.5490   45.7300 C   0  0  0  0  0  0  0  0  0  0  0  0
   55.0790   26.6030   45.9480 O   0  0  0  0  0  0  0  0  0  0  0  0
   57.2450   25.4980   46.3330 C   0  0  0  0  0  0  0  0  0  0  0  0
   57.7340   26.5740   47.2630 C   0  0  0  0  0  0  0  0  0  0  0  0
   58.9120   27.2300   46.7080 N   0  0  0  0  0  0  0  0  0  0  0  0
   58.9080   27.9630   45.4770 C   0  0  0  0  0  0  0  0  0  0  0  0
   59.3270   27.4070   44.4250 O   0  0  0  0  0  0  0  0  0  0  0  0
   58.4120   29.3660   45.4250 C   0  0  0  0  0  0  0  0  0  0  0  0
   59.2850   30.4230   45.7450 C   0  0  0  0  0  0  0  0  0  0  0  0
   58.8420   31.7490   45.7040 C   0  0  0  0  0  0  0  0  0  0  0  0
   59.7000   32.8150   46.0190 C   0  0  0  0  0  0  0  0  0  0  0  0
   59.2280   34.1310   45.9690 C   0  0  0  0  0  0  0  0  0  0  0  0
   57.9020   34.3880   45.6050 C   0  0  0  0  0  0  0  0  0  0  0  0
   57.0420   33.3310   45.2900 C   0  0  0  0  0  0  0  0  0  0  0  0
   57.5070   32.0120   45.3390 C   0  0  0  0  0  0  0  0  0  0  0  0
   56.6740   30.9840   45.0340 N   0  0  0  0  0  0  0  0  0  0  0  0
   57.0810   29.6860   45.0670 C   0  0  0  0  0  0  0  0  0  0  0  0
   56.2480   28.7860   44.7790 O   0  0  0  0  0  0  0  0  0  0  0  0
   58.0580   24.4330   46.0870 N   0  0  0  0  0  0  0  0  0  0  0  0
   58.9711   21.8643   45.9938 H   0  0  0  0  0  0  0  0  0  0  0  0
   58.1190   21.4843   44.4588 H   0  0  0  0  0  0  0  0  0  0  0  0
   59.5000   22.6329   44.4588 H   0  0  0  0  0  0  0  0  0  0  0  0
   56.1309   22.6129   43.9831 H   0  0  0  0  0  0  0  0  0  0  0  0
   54.5893   24.5321   44.4045 H   0  0  0  0  0  0  0  0  0  0  0  0
   55.1410   27.4870   45.4580 H   0  0  0  0  0  0  0  0  0  0  0  0
   56.9376   27.3193   47.4053 H   0  0  0  0  0  0  0  0  0  0  0  0
   58.0015   26.1172   48.2272 H   0  0  0  0  0  0  0  0  0  0  0  0
   60.3247   30.2041   46.0298 H   0  0  0  0  0  0  0  0  0  0  0  0
   60.7432   32.6153   46.3051 H   0  0  0  0  0  0  0  0  0  0  0  0
   59.9009   34.9653   46.2164 H   0  0  0  0  0  0  0  0  0  0  0  0
   57.5347   35.4242   45.5664 H   0  0  0  0  0  0  0  0  0  0  0  0
   56.0000   33.5365   45.0037 H   0  0  0  0  0  0  0  0  0  0  0  0
  1  2  1  0
  2  3  2  0
  3  4  1  0
  4  5  2  0
  5  6  1  0
  5  7  1  0
  7  8  1  0
  8  9  1  0
  9 10  1  0
 10 11  2  0
 10 12  1  0
 12 13  2  0
 13 14  1  0
 14 15  2  0
 15 16  1  0
 16 17  2  0
 17 18  1  0
 18 19  2  0
 19 20  1  0
 20 21  1  0
 21 22  2  0
  7 23  2  0
 23  2  1  0
 21 12  1  0
 19 14  1  0
  1 24  1  0
  1 25  1  0
  1 26  1  0
  3 27  1  0
  4 28  1  0
  6 29  1  0
  8 30  1  0
  8 31  1  0
 13 32  1  0
 15 33  1  0
 16 34  1  0
 17 35  1  0
 18 36  1  0
M  CHG  2   9  -1  20  -1
M  END
>  <UniqueID>  (5) 
5

>  <SMILES>  (5) 
Cc1ccc(O)c(C[N-]C(=O)c2cc3ccccc3[n-]c2=O)n1

>  <Energy>  (5) 
42.51874113109586

>  <Genealogy>  (5) 
Cc1ccc(O)c(C[N-]C(=O)c2cc3ccccc3[n-]c2=O)n1 (protonated)
Cc1ccc(O)c(C[N-]C(=O)c2cc3ccccc3[n-]c2=O)n1 (3D coordinates assigned)
Cc1ccc(O)c(C[N-]C(=O)c2cc3ccccc3[n-]c2=O)n1 (optimized conformer: 42.51874113109586 kcal/mol)

>  <smiles>  (5) 
Cc1ccc(O)c(CNC(=O)c2cc3ccccc3[nH]c2=O)n1

>  <score_type>  (5) 
oracle

>  <origin>  (5) 
adg

>  <m_score__min__energy>  (5) 
-11.779999999999999

>  <m_primary>  (5) 
energy

$$$$
5:0
     RDKit          3D

 53 56  0  0  1  0  0  0  0  0999 V2000
   57.5840   29.5160   45.8440 O   0  0  0  0  0  0  0  0  0  0  0  0
   58.0100   29.3800   44.6910 C   0  0  0  0  0  0  0  0  0  0  0  0
   58.0320   28.0940   44.1070 N   0  0  0  0  0  0  0  0  0  0  0  0
   57.5550   26.9970   44.8750 C   0  0  0  0  0  0  0  0  0  0  0  0
   56.4510   27.0910   45.7120 C   0  0  0  0  0  0  0  0  0  0  0  0
   56.1050   25.9500   46.4000 C   0  0  0  0  0  0  0  0  0  0  0  0
   56.7740   24.7580   46.3070 C   0  0  0  0  0  0  0  0  0  0  0  0
   56.3170   23.3240   47.1850 S   0  0  0  0  0  0  0  0  0  0  0  0
   57.3880   22.8850   48.1560 O   0  0  0  0  0  0  0  0  0  0  0  0
   55.0830   23.6420   48.0170 O   0  0  0  0  0  0  0  0  0  0  0  0
   55.9370   22.0110   46.1350 N   0  0  0  0  0  0  0  0  0  0  0  0
   56.0900   22.0700   44.8590 C   0  0  0  0  0  0  0  0  0  0  0  0
   57.0090   21.1950   44.3020 C   0  0  0  0  0  0  0  0  0  0  0  0
   57.1780   21.2530   42.9430 C   0  0  0  0  0  0  0  0  0  0  0  0
   56.4660   22.1290   42.2240 N   0  0  0  0  0  0  0  0  0  0  0  0
   55.5700   22.9780   42.7910 C   0  0  0  0  0  0  0  0  0  0  0  0
   55.3780   22.9490   44.1330 N   0  0  0  0  0  0  0  0  0  0  0  0
   57.8750   24.6710   45.4700 C   0  0  0  0  0  0  0  0  0  0  0  0
   58.2390   25.8060   44.7680 C   0  0  0  0  0  0  0  0  0  0  0  0
   58.4620   30.5460   44.0040 N   0  0  0  0  0  0  0  0  0  0  0  0
   58.3900   31.7740   44.7210 C   0  0  0  0  0  0  0  0  0  0  0  0
   57.7770   32.8270   44.0300 C   0  0  0  0  0  0  0  0  0  0  0  0
   57.6610   34.0570   44.6410 C   0  0  0  0  0  0  0  0  0  0  0  0
   58.1540   34.2170   45.9230 C   0  0  0  0  0  0  0  0  0  0  0  0
   58.7630   33.1870   46.6230 C   0  0  0  0  0  0  0  0  0  0  0  0
   59.2590   33.3710   47.9700 C   0  0  0  0  0  0  0  0  0  0  0  0
   59.6820   34.5300   48.2770 O   0  0  0  0  0  0  0  0  0  0  0  0
   59.3180   32.3590   48.9900 C   0  0  0  0  0  0  0  0  0  0  0  0
   60.2920   31.3820   48.9100 C   0  0  0  0  0  0  0  0  0  0  0  0
   60.3730   30.3710   49.8780 C   0  0  0  0  0  0  0  0  0  0  0  0
   59.4880   30.3240   50.9330 C   0  0  0  0  0  0  0  0  0  0  0  0
   58.5130   31.2950   51.0190 C   0  0  0  0  0  0  0  0  0  0  0  0
   58.4430   32.2840   50.0580 C   0  0  0  0  0  0  0  0  0  0  0  0
   58.8800   31.9380   45.9990 C   0  0  0  0  0  0  0  0  0  0  0  0
   58.3940   27.9760   43.1350 H   0  0  0  0  0  0  0  0  0  0  0  0
   55.8834   28.0271   45.8195 H   0  0  0  0  0  0  0  0  0  0  0  0
   55.2332   25.9985   47.0691 H   0  0  0  0  0  0  0  0  0  0  0  0
   57.5770   20.4861   44.9223 H   0  0  0  0  0  0  0  0  0  0  0  0
   57.8950   20.5831   42.4459 H   0  0  0  0  0  0  0  0  0  0  0  0
   56.6360   22.1300   41.1770 H   0  0  0  0  0  0  0  0  0  0  0  0
   55.0040   23.6842   42.1658 H   0  0  0  0  0  0  0  0  0  0  0  0
   58.4396   23.7325   45.3675 H   0  0  0  0  0  0  0  0  0  0  0  0
   59.1095   25.7555   44.0974 H   0  0  0  0  0  0  0  0  0  0  0  0
   58.8220   30.4800   43.0250 H   0  0  0  0  0  0  0  0  0  0  0  0
   57.3924   32.6739   43.0109 H   0  0  0  0  0  0  0  0  0  0  0  0
   57.1837   34.8982   44.1170 H   0  0  0  0  0  0  0  0  0  0  0  0
   58.0592   35.2005   46.4065 H   0  0  0  0  0  0  0  0  0  0  0  0
   61.0114   31.3977   48.0780 H   0  0  0  0  0  0  0  0  0  0  0  0
   61.1558   29.6028   49.7938 H   0  0  0  0  0  0  0  0  0  0  0  0
   59.5578   29.5291   51.6901 H   0  0  0  0  0  0  0  0  0  0  0  0
   57.7931   31.2819   51.8506 H   0  0  0  0  0  0  0  0  0  0  0  0
   57.6554   33.0468   50.1460 H   0  0  0  0  0  0  0  0  0  0  0  0
   59.3578   31.0973   46.5233 H   0  0  0  0  0  0  0  0  0  0  0  0
  1  2  2  0
  2  3  1  0
  3  4  1  0
  4  5  2  0
  5  6  1  0
  6  7  2  0
  7  8  1  0
  8  9  2  0
  8 10  2  0
  8 11  1  0
 11 12  2  0
 12 13  1  0
 13 14  2  0
 14 15  1  0
 15 16  1  0
 16 17  2  0
  7 18  1  0
 18 19  2  0
  2 20  1  0
 20 21  1  0
 21 22  2  0
 22 23  1  0
 23 24  2  0
 24 25  1  0
 25 26  1  0
 26 27  2  0
 26 28  1  0
 28 29  2  0
 29 30  1  0
 30 31  2  0
 31 32  1  0
 32 33  2  0
 25 34  2  0
 19  4  1  0
 34 21  1  0
 17 12  1  0
 33 28  1  0
  3 35  1  0
  5 36  1  0
  6 37  1  0
 13 38  1  0
 14 39  1  0
 15 40  1  0
 16 41  1  0
 18 42  1  0
 19 43  1  0
 20 44  1  0
 22 45  1  0
 23 46  1  0
 24 47  1  0
 29 48  1  0
 30 49  1  0
 31 50  1  0
 32 51  1  0
 33 52  1  0
 34 53  1  0
M  END
>  <smiles>  (6) 
O=C(Nc1ccc(S(=O)(=O)N=c2cc[nH]cn2)cc1)Nc1cccc(C(=O)c2ccccc2)c1

>  <score_type>  (6) 
oracle

>  <origin>  (6) 
adg

>  <m_score__min__energy>  (6) 
-10.380000000000001

>  <m_primary>  (6) 
energy

$$$$
6:0
     RDKit          3D

 49 51  0  0  0  0  0  0  0  0999 V2000
   60.0590   34.0410   48.9170 C   0  0  0  0  0  0  0  0  0  0  0  0
   60.3790   32.6840   48.3840 C   0  0  0  0  0  0  0  0  0  0  0  0
   61.5800   32.3030   48.3480 O   0  0  0  0  0  0  0  0  0  0  0  0
   59.3350   31.8690   47.8310 N   0  0  0  0  0  0  0  0  0  0  0  0
   59.4760   30.4730   47.5160 C   0  0  0  0  0  0  0  0  0  0  0  0
   58.9850   29.5130   48.4150 C   0  0  0  0  0  0  0  0  0  0  0  0
   59.1550   28.1480   48.1600 C   0  0  0  0  0  0  0  0  0  0  0  0
   59.8360   27.7300   47.0130 C   0  0  0  0  0  0  0  0  0  0  0  0
   60.1390   25.9830   46.7200 S   0  0  0  0  0  0  0  0  0  0  0  0
   58.5810   25.4050   47.4860 C   0  0  0  0  0  0  0  0  0  0  0  0
   57.7980   24.5450   46.5460 C   0  0  0  0  0  0  0  0  0  0  0  0
   57.7320   23.3010   46.7410 O   0  0  0  0  0  0  0  0  0  0  0  0
   57.1310   25.1520   45.4310 N   0  0  0  0  0  0  0  0  0  0  0  0
   57.2500   26.5110   44.9860 C   0  0  0  0  0  0  0  0  0  0  0  0
   58.0170   26.8680   43.8620 C   0  0  0  0  0  0  0  0  0  0  0  0
   58.0540   28.1950   43.4260 C   0  0  0  0  0  0  0  0  0  0  0  0
   57.3260   29.1820   44.1050 C   0  0  0  0  0  0  0  0  0  0  0  0
   57.3740   30.8530   43.5510 S   0  0  0  0  0  0  0  0  0  0  0  0
   58.7960   31.2810   43.3150 O   0  0  0  0  0  0  0  0  0  0  0  0
   56.6290   30.9720   42.2520 O   0  0  0  0  0  0  0  0  0  0  0  0
   56.6310   31.8900   44.7250 N   0  0  0  0  0  0  0  0  0  0  0  0
   57.2650   32.8290   45.3550 C   0  0  0  0  0  0  0  0  0  0  0  0
   58.2630   33.6020   44.8080 C   0  0  0  0  0  0  0  0  0  0  0  0
   58.6270   34.4150   45.8610 C   0  0  0  0  0  0  0  0  0  0  0  0
   59.6940   35.4570   45.8380 C   0  0  0  0  0  0  0  0  0  0  0  0
   57.8880   34.1260   46.9090 O   0  0  0  0  0  0  0  0  0  0  0  0
   57.0490   33.1670   46.6420 N   0  0  0  0  0  0  0  0  0  0  0  0
   56.5480   28.8260   45.2130 C   0  0  0  0  0  0  0  0  0  0  0  0
   56.5050   27.4970   45.6440 C   0  0  0  0  0  0  0  0  0  0  0  0
   60.3180   28.6800   46.1050 C   0  0  0  0  0  0  0  0  0  0  0  0
   60.1540   30.0440   46.3610 C   0  0  0  0  0  0  0  0  0  0  0  0
   60.0654   34.0139   50.0166 H   0  0  0  0  0  0  0  0  0  0  0  0
   60.8121   34.7607   48.5636 H   0  0  0  0  0  0  0  0  0  0  0  0
   59.0637   34.3484   48.5636 H   0  0  0  0  0  0  0  0  0  0  0  0
   58.4310   32.3370   47.5930 H   0  0  0  0  0  0  0  0  0  0  0  0
   58.4624   29.8367   49.3272 H   0  0  0  0  0  0  0  0  0  0  0  0
   58.7526   27.4033   48.8624 H   0  0  0  0  0  0  0  0  0  0  0  0
   58.8200   24.8234   48.3886 H   0  0  0  0  0  0  0  0  0  0  0  0
   57.9719   26.2853   47.7393 H   0  0  0  0  0  0  0  0  0  0  0  0
   58.5903   26.0988   43.3238 H   0  0  0  0  0  0  0  0  0  0  0  0
   58.6566   28.4662   42.5466 H   0  0  0  0  0  0  0  0  0  0  0  0
   58.6692   33.5777   43.7860 H   0  0  0  0  0  0  0  0  0  0  0  0
   59.9677   35.7243   46.8693 H   0  0  0  0  0  0  0  0  0  0  0  0
   60.5781   35.0650   45.3139 H   0  0  0  0  0  0  0  0  0  0  0  0
   59.3231   36.3501   45.3139 H   0  0  0  0  0  0  0  0  0  0  0  0
   55.9688   29.5944   45.7460 H   0  0  0  0  0  0  0  0  0  0  0  0
   55.8806   27.2235   46.5074 H   0  0  0  0  0  0  0  0  0  0  0  0
   60.8275   28.3519   45.1870 H   0  0  0  0  0  0  0  0  0  0  0  0
   60.5572   30.7856   45.6557 H   0  0  0  0  0  0  0  0  0  0  0  0
  1  2  1  0
  2  3  2  0
  2  4  1  0
  4  5  1  0
  5  6  2  0
  6  7  1  0
  7  8  2  0
  8  9  1  0
  9 10  1  0
 10 11  1  0
 11 12  2  0
 11 13  1  0
 13 14  1  0
 14 15  2  0
 15 16  1  0
 16 17  2  0
 17 18  1  0
 18 19  2  0
 18 20  2  0
 18 21  1  0
 21 22  2  3
 22 23  1  0
 23 24  2  0
 24 25  1  0
 24 26  1  0
 26 27  1  0
 17 28  1  0
 28 29  2  0
  8 30  1  0
 30 31  2  0
 31  5  1  0
 29 14  1  0
 27 22  1  0
  1 32  1  0
  1 33  1  0
  1 34  1  0
  4 35  1  0
  6 36  1  0
  7 37  1  0
 10 38  1  0
 10 39  1  0
 15 40  1  0
 16 41  1  0
 23 42  1  0
 25 43  1  0
 25 44  1  0
 25 45  1  0
 28 46  1  0
 29 47  1  0
 30 48  1  0
 31 49  1  0
M  CHG  2  13  -1  27  -1
M  END
>  <UniqueID>  (7) 
6

>  <SMILES>  (7) 
CC(=O)Nc1ccc(SCC(=O)[N-]c2ccc(S(=O)(=O)N=c3cc(C)o[n-]3)cc2)cc1

>  <Energy>  (7) 
79.73752414860091

>  <Genealogy>  (7) 
CC(=O)Nc1ccc(SCC(=O)[N-]c2ccc(S(=O)(=O)N=c3cc(C)o[n-]3)cc2)cc1 (protonated)
CC(=O)Nc1ccc(SCC(=O)[N-]c2ccc(S(=O)(=O)N=c3cc(C)o[n-]3)cc2)cc1 (3D coordinates assigned)
CC(=O)Nc1ccc(SCC(=O)[N-]c2ccc(S(=O)(=O)N=c3cc(C)o[n-]3)cc2)cc1 (optimized conformer: 79.73752414860091 kcal/mol)

>  <smiles>  (7) 
CC(=O)Nc1ccc(SCC(=O)Nc2ccc(S(=O)(=O)N=c3cc(C)o[nH]3)cc2)cc1

>  <score_type>  (7) 
oracle

>  <origin>  (7) 
adg

>  <m_score__min__energy>  (7) 
-12.85

>  <m_primary>  (7) 
energy

$$$$
7:0
     RDKit          3D

 34 36  0  0  0  0  0  0  0  0999 V2000
   55.6090   26.7110   44.9470 H   0  0  0  0  0  0  0  0  0  0  0  0
   55.9040   27.4430   45.6310 N   0  0  0  0  0  0  0  0  0  0  0  0
   56.2790   28.6200   45.2450 C   0  0  0  0  0  0  0  0  0  0  0  0
   55.4280   29.3870   44.5120 N   0  0  0  0  0  0  0  0  0  0  0  0
   55.7560   30.6430   44.1160 C   0  0  0  0  0  0  0  0  0  0  0  0
   55.0530   31.2352   43.5118 H   0  0  0  0  0  0  0  0  0  0  0  0
   56.9970   31.1790   44.4830 C   0  0  0  0  0  0  0  0  0  0  0  0
   57.4150   32.4910   44.0850 N   0  0  0  0  0  0  0  0  0  0  0  0
   57.4380   33.6690   44.9030 C   0  0  0  0  0  0  0  0  0  0  0  0
   56.6990   34.6510   44.6170 O   0  0  0  0  0  0  0  0  0  0  0  0
   58.2880   33.7130   46.1150 C   0  0  0  0  0  0  0  0  0  0  0  0
   59.3560   34.6250   46.2110 C   0  0  0  0  0  0  0  0  0  0  0  0
   59.5635   35.3126   45.3779 H   0  0  0  0  0  0  0  0  0  0  0  0
   60.1550   34.6630   47.3580 C   0  0  0  0  0  0  0  0  0  0  0  0
   60.9884   35.3780   47.4223 H   0  0  0  0  0  0  0  0  0  0  0  0
   59.8980   33.7960   48.4220 C   0  0  0  0  0  0  0  0  0  0  0  0
   60.6760   33.8390   49.5320 F   0  0  0  0  0  0  0  0  0  0  0  0
   58.8410   32.8870   48.3410 C   0  0  0  0  0  0  0  0  0  0  0  0
   58.5890   32.0450   49.3740 F   0  0  0  0  0  0  0  0  0  0  0  0
   58.0380   32.8440   47.1960 C   0  0  0  0  0  0  0  0  0  0  0  0
   57.2058   32.1269   47.1392 H   0  0  0  0  0  0  0  0  0  0  0  0
   57.8590   30.4030   45.1930 N   0  0  0  0  0  0  0  0  0  0  0  0
   57.5500   29.1360   45.5860 C   0  0  0  0  0  0  0  0  0  0  0  0
   58.5640   28.3810   46.3620 C   0  0  0  0  0  0  0  0  0  0  0  0
   59.2360   27.2470   45.9330 C   0  0  0  0  0  0  0  0  0  0  0  0
   59.1318   26.7846   44.9404 H   0  0  0  0  0  0  0  0  0  0  0  0
   60.0360   26.7990   46.9190 N   0  0  0  0  0  0  0  0  0  0  0  0
   59.8940   27.6160   47.9510 N   0  0  0  0  0  0  0  0  0  0  0  0
   60.5360   27.4120   49.2410 C   0  0  0  0  0  0  0  0  0  0  0  0
   59.8216   27.6390   50.0461 H   0  0  0  0  0  0  0  0  0  0  0  0
   60.8638   26.3654   49.3260 H   0  0  0  0  0  0  0  0  0  0  0  0
   61.4078   28.0774   49.3260 H   0  0  0  0  0  0  0  0  0  0  0  0
   58.9980   28.5770   47.6620 C   0  0  0  0  0  0  0  0  0  0  0  0
   58.6680   29.3781   48.3398 H   0  0  0  0  0  0  0  0  0  0  0  0
  1  2  1  0
  2  3  2  0
  3  4  1  0
  4  5  1  0
  5  6  1  0
  5  7  2  0
  7  8  1  0
  8  9  1  0
  9 10  2  0
  9 11  1  0
 11 12  2  0
 12 13  1  0
 12 14  1  0
 14 15  1  0
 14 16  2  0
 16 17  1  0
 16 18  1  0
 18 19  1  0
 18 20  2  0
 20 21  1  0
  7 22  1  0
 22 23  2  0
 23 24  1  0
 24 25  1  0
 25 26  1  0
 25 27  2  0
 27 28  1  0
 28 29  1  0
 29 30  1  0
 29 31  1  0
 29 32  1  0
 28 33  1  0
 33 34  1  0
 23  3  1  0
 33 24  2  0
 20 11  1  0
M  CHG  2   4  -1   8  -1
M  END
>  <UniqueID>  (8) 
7

>  <SMILES>  (8) 
[H]/N=c1\[n-]cc([N-]C(=O)c2ccc(F)c(F)c2)nc1-c1cnn(C)c1

>  <Energy>  (8) 
75.55739367616415

>  <Genealogy>  (8) 
Cn1cc(-c2nc([N-]C(=O)c3ccc(F)c(F)c3)c[n-]c2=N)cn1 (protonated)
[H]/N=c1\[n-]cc([N-]C(=O)c2ccc(F)c(F)c2)nc1-c1cnn(C)c1 (cis-trans isomerization)
[H]/N=c1\[n-]cc([N-]C(=O)c2ccc(F)c(F)c2)nc1-c1cnn(C)c1 (3D coordinates assigned)
[H]/N=c1\[n-]cc([N-]C(=O)c2ccc(F)c(F)c2)nc1-c1cnn(C)c1 (optimized conformer: 75.55739367616415 kcal/mol)

>  <smiles>  (8) 
Cn1cc(-c2nc(NC(=O)c3ccc(F)c(F)c3)c[nH]c2=N)cn1

>  <score_type>  (8) 
oracle

>  <origin>  (8) 
adg

>  <m_score__min__energy>  (8) 
-10.44

>  <m_primary>  (8) 
energy

$$$$
8:0
     RDKit          3D

 47 49  0  0  0  0  0  0  0  0999 V2000
   60.4450   28.7780   45.8020 C   0  0  0  0  0  0  0  0  0  0  0  0
   59.7930   29.3600   44.5520 C   0  0  0  0  0  0  0  0  0  0  0  0
   58.3520   29.0820   44.5430 N   0  0  0  0  0  0  0  0  0  0  0  0
   57.8560   27.7600   44.8190 C   0  0  0  0  0  0  0  0  0  0  0  0
   58.0880   26.7130   43.9100 C   0  0  0  0  0  0  0  0  0  0  0  0
   57.5990   25.4290   44.1700 C   0  0  0  0  0  0  0  0  0  0  0  0
   56.8760   25.1780   45.3380 C   0  0  0  0  0  0  0  0  0  0  0  0
   56.6390   26.2130   46.2470 C   0  0  0  0  0  0  0  0  0  0  0  0
   57.1250   27.4990   45.9900 C   0  0  0  0  0  0  0  0  0  0  0  0
   57.2350   30.3790   44.2320 S   0  0  0  0  0  0  0  0  0  0  0  0
   57.0300   30.5310   42.7510 O   0  0  0  0  0  0  0  0  0  0  0  0
   55.9040   30.0600   44.8540 O   0  0  0  0  0  0  0  0  0  0  0  0
   57.8690   31.8810   44.8990 C   0  0  0  0  0  0  0  0  0  0  0  0
   57.4460   33.1090   44.3740 C   0  0  0  0  0  0  0  0  0  0  0  0
   57.9670   34.3030   44.8760 C   0  0  0  0  0  0  0  0  0  0  0  0
   58.9070   34.2800   45.9110 C   0  0  0  0  0  0  0  0  0  0  0  0
   59.3210   33.0550   46.4640 C   0  0  0  0  0  0  0  0  0  0  0  0
   60.3090   33.0000   47.5070 N   0  0  0  0  0  0  0  0  0  0  0  0
   61.6360   33.5480   47.3830 C   0  0  0  0  0  0  0  0  0  0  0  0
   61.9550   34.1960   46.3490 O   0  0  0  0  0  0  0  0  0  0  0  0
   62.6430   33.3720   48.4580 C   0  0  0  0  0  0  0  0  0  0  0  0
   63.6950   32.4430   48.3360 C   0  0  0  0  0  0  0  0  0  0  0  0
   64.6280   32.2930   49.3670 C   0  0  0  0  0  0  0  0  0  0  0  0
   64.5200   33.0590   50.5300 C   0  0  0  0  0  0  0  0  0  0  0  0
   63.4750   33.9730   50.6680 C   0  0  0  0  0  0  0  0  0  0  0  0
   62.5380   34.1280   49.6420 C   0  0  0  0  0  0  0  0  0  0  0  0
   58.8110   31.8590   45.9380 C   0  0  0  0  0  0  0  0  0  0  0  0
   59.9677   29.2041   46.6968 H   0  0  0  0  0  0  0  0  0  0  0  0
   60.3207   27.6851   45.8054 H   0  0  0  0  0  0  0  0  0  0  0  0
   61.5169   29.0251   45.8054 H   0  0  0  0  0  0  0  0  0  0  0  0
   59.9512   30.4484   44.5354 H   0  0  0  0  0  0  0  0  0  0  0  0
   60.2490   28.8952   43.6654 H   0  0  0  0  0  0  0  0  0  0  0  0
   58.6576   26.9049   42.9887 H   0  0  0  0  0  0  0  0  0  0  0  0
   57.7842   24.6153   43.4533 H   0  0  0  0  0  0  0  0  0  0  0  0
   56.4935   24.1671   45.5424 H   0  0  0  0  0  0  0  0  0  0  0  0
   56.0688   26.0156   47.1668 H   0  0  0  0  0  0  0  0  0  0  0  0
   56.9340   28.3100   46.7082 H   0  0  0  0  0  0  0  0  0  0  0  0
   56.7017   33.1325   43.5644 H   0  0  0  0  0  0  0  0  0  0  0  0
   57.6371   35.2647   44.4561 H   0  0  0  0  0  0  0  0  0  0  0  0
   59.3240   35.2231   46.2939 H   0  0  0  0  0  0  0  0  0  0  0  0
   60.0130   32.5800   48.4140 H   0  0  0  0  0  0  0  0  0  0  0  0
   63.7830   31.8325   47.4252 H   0  0  0  0  0  0  0  0  0  0  0  0
   65.4497   31.5693   49.2617 H   0  0  0  0  0  0  0  0  0  0  0  0
   65.2585   32.9417   51.3367 H   0  0  0  0  0  0  0  0  0  0  0  0
   63.3881   34.5729   51.5859 H   0  0  0  0  0  0  0  0  0  0  0  0
   61.7127   34.8456   49.7602 H   0  0  0  0  0  0  0  0  0  0  0  0
   59.1527   30.8954   46.3438 H   0  0  0  0  0  0  0  0  0  0  0  0
  1  2  1  0
  2  3  1  0
  3  4  1  0
  4  5  2  0
  5  6  1  0
  6  7  2  0
  7  8  1  0
  8  9  2  0
  3 10  1  0
 10 11  2  0
 10 12  2  0
 10 13  1  0
 13 14  2  0
 14 15  1  0
 15 16  2  0
 16 17  1  0
 17 18  1  0
 18 19  1  0
 19 20  2  0
 19 21  1  0
 21 22  2  0
 22 23  1  0
 23 24  2  0
 24 25  1  0
 25 26  2  0
 17 27  2  0
  9  4  1  0
 27 13  1  0
 26 21  1  0
  1 28  1  0
  1 29  1  0
  1 30  1  0
  2 31  1  0
  2 32  1  0
  5 33  1  0
  6 34  1  0
  7 35  1  0
  8 36  1  0
  9 37  1  0
 14 38  1  0
 15 39  1  0
 16 40  1  0
 18 41  1  0
 22 42  1  0
 23 43  1  0
 24 44  1  0
 25 45  1  0
 26 46  1  0
 27 47  1  0
M  END
>  <UniqueID>  (9) 
8

>  <SMILES>  (9) 
CCN(c1ccccc1)S(=O)(=O)c1cccc(NC(=O)c2ccccc2)c1

>  <Energy>  (9) 
57.81193193194763

>  <Genealogy>  (9) 
CCN(c1ccccc1)S(=O)(=O)c1cccc(NC(=O)c2ccccc2)c1 (3D coordinates assigned)
CCN(c1ccccc1)S(=O)(=O)c1cccc(NC(=O)c2ccccc2)c1 (optimized conformer: 57.81193193194763 kcal/mol)

>  <smiles>  (9) 
CCN(c1ccccc1)S(=O)(=O)c1cccc(NC(=O)c2ccccc2)c1

>  <score_type>  (9) 
oracle

>  <origin>  (9) 
adg

>  <m_score__min__energy>  (9) 
-9.4299999999999997

>  <m_primary>  (9) 
energy

$$$$
9:0
     RDKit          3D

 39 42  0  0  0  0  0  0  0  0999 V2000
   58.6140   32.8350   43.9890 O   0  0  0  0  0  0  0  0  0  0  0  0
   58.0160   31.6240   44.3130 C   0  0  0  0  0  0  0  0  0  0  0  0
   56.6360   31.4610   44.1580 C   0  0  0  0  0  0  0  0  0  0  0  0
   56.0320   30.2440   44.4840 C   0  0  0  0  0  0  0  0  0  0  0  0
   56.8090   29.1810   44.9660 C   0  0  0  0  0  0  0  0  0  0  0  0
   58.1950   29.3410   45.1290 C   0  0  0  0  0  0  0  0  0  0  0  0
   58.7940   30.5680   44.8000 C   0  0  0  0  0  0  0  0  0  0  0  0
   59.0200   28.2210   45.7290 C   0  0  1  0  0  0  0  0  0  0  0  0
   59.4340   28.5800   47.1390 C   0  0  0  0  0  0  0  0  0  0  0  0
   58.9500   29.7500   47.7520 C   0  0  0  0  0  0  0  0  0  0  0  0
   59.3480   30.0860   49.0490 C   0  0  0  0  0  0  0  0  0  0  0  0
   60.2370   29.2580   49.7490 C   0  0  0  0  0  0  0  0  0  0  0  0
   60.6400   29.5820   51.0420 O   0  0  0  0  0  0  0  0  0  0  0  0
   60.7260   28.0970   49.1430 C   0  0  0  0  0  0  0  0  0  0  0  0
   60.3300   27.7590   47.8450 C   0  0  0  0  0  0  0  0  0  0  0  0
   58.3100   26.9360   45.7430 N   0  0  0  0  0  0  0  0  0  0  0  0
   57.0290   26.7840   45.5630 C   0  0  0  0  0  0  0  0  0  0  0  0
   56.4370   25.4310   45.6700 C   0  0  0  0  0  0  0  0  0  0  0  0
   57.2650   24.3010   45.5370 C   0  0  0  0  0  0  0  0  0  0  0  0
   56.7320   23.0150   45.6470 C   0  0  0  0  0  0  0  0  0  0  0  0
   55.3670   22.8400   45.8820 C   0  0  0  0  0  0  0  0  0  0  0  0
   54.5310   23.9530   46.0000 C   0  0  0  0  0  0  0  0  0  0  0  0
   55.0550   25.2460   45.8860 C   0  0  0  0  0  0  0  0  0  0  0  0
   54.1890   26.3310   45.9630 O   0  0  0  0  0  0  0  0  0  0  0  0
   56.2050   27.9220   45.2720 N   0  0  0  0  0  0  0  0  0  0  0  0
   56.0244   32.2928   43.7785 H   0  0  0  0  0  0  0  0  0  0  0  0
   54.9458   30.1197   44.3624 H   0  0  0  0  0  0  0  0  0  0  0  0
   59.8789   30.6993   44.9257 H   0  0  0  0  0  0  0  0  0  0  0  0
   59.9061   28.1019   45.0882 H   0  0  0  0  0  0  0  0  0  0  0  0
   58.2539   30.4046   47.2071 H   0  0  0  0  0  0  0  0  0  0  0  0
   58.9631   31.0017   49.5215 H   0  0  0  0  0  0  0  0  0  0  0  0
   60.9840   30.5070   51.2730 H   0  0  0  0  0  0  0  0  0  0  0  0
   61.4251   27.4467   49.6893 H   0  0  0  0  0  0  0  0  0  0  0  0
   60.7220   26.8455   47.3740 H   0  0  0  0  0  0  0  0  0  0  0  0
   58.3402   24.4317   45.3449 H   0  0  0  0  0  0  0  0  0  0  0  0
   57.3889   22.1382   45.5483 H   0  0  0  0  0  0  0  0  0  0  0  0
   54.9500   21.8263   45.9742 H   0  0  0  0  0  0  0  0  0  0  0  0
   53.4555   23.8126   46.1834 H   0  0  0  0  0  0  0  0  0  0  0  0
   55.1650   27.8300   45.2640 H   0  0  0  0  0  0  0  0  0  0  0  0
  1  2  1  0
  2  3  2  0
  3  4  1  0
  4  5  2  0
  5  6  1  0
  6  7  2  0
  6  8  1  0
  8  9  1  0
  9 10  2  0
 10 11  1  0
 11 12  2  0
 12 13  1  0
 12 14  1  0
 14 15  2  0
  8 16  1  0
 16 17  2  0
 17 18  1  0
 18 19  2  0
 19 20  1  0
 20 21  2  0
 21 22  1  0
 22 23  2  0
 23 24  1  0
 17 25  1  0
  7  2  1  0
 15  9  1  0
 23 18  1  0
 25  5  1  0
  3 26  1  0
  4 27  1  0
  7 28  1  0
  8 29  1  6
 10 30  1  0
 11 31  1  0
 13 32  1  0
 14 33  1  0
 15 34  1  0
 19 35  1  0
 20 36  1  0
 21 37  1  0
 22 38  1  0
 25 39  1  0
M  CHG  2   1  -1  24  -1
M  END
>  <UniqueID>  (10) 
9

>  <SMILES>  (10) 
[O-]c1ccc2c(c1)[C@@H](c1ccc(O)cc1)N=C(c1ccccc1[O-])N2

>  <Energy>  (10) 
51.06905701611493

>  <Genealogy>  (10) 
[O-]c1ccc2c(c1)C(c1ccc(O)cc1)N=C(c1ccccc1[O-])N2 (protonated)
[O-]c1ccc2c(c1)[C@@H](c1ccc(O)cc1)N=C(c1ccccc1[O-])N2 (chirality)
[O-]c1ccc2c(c1)[C@@H](c1ccc(O)cc1)N=C(c1ccccc1[O-])N2 (3D coordinates assigned)
[O-]c1ccc2c(c1)[C@@H](c1ccc(O)cc1)N=C(c1ccccc1[O-])N2 (nonaromatic ring conformer: 51.06905701611493 kcal/mol)

>  <smiles>  (10) 
Oc1ccc(C2N=C(c3ccccc3O)Nc3ccc(O)cc32)cc1

>  <score_type>  (10) 
oracle

>  <origin>  (10) 
adg

>  <m_score__min__energy>  (10) 
-11.699999999999999

>  <m_primary>  (10) 
energy

$$$$
10:0
     RDKit          3D

 27 28  0  0  0  0  0  0  0  0999 V2000
   53.7819   22.9349   45.9910 H   0  0  0  0  0  0  0  0  0  0  0  0
   54.8530   23.0910   45.7950 C   0  0  0  0  0  0  0  0  0  0  0  0
   55.5380   23.8340   46.6780 C   0  0  0  0  0  0  0  0  0  0  0  0
   55.4694   23.5509   47.7387 H   0  0  0  0  0  0  0  0  0  0  0  0
   56.3770   25.0020   46.3390 C   0  0  0  0  0  0  0  0  0  0  0  0
   57.7760   24.8820   46.2820 C   0  0  0  0  0  0  0  0  0  0  0  0
   58.2536   23.9219   46.5271 H   0  0  0  0  0  0  0  0  0  0  0  0
   58.5620   25.9750   45.9160 C   0  0  0  0  0  0  0  0  0  0  0  0
   59.6574   25.8779   45.8883 H   0  0  0  0  0  0  0  0  0  0  0  0
   57.9630   27.1910   45.5850 C   0  0  0  0  0  0  0  0  0  0  0  0
   58.5890   28.0515   45.3063 H   0  0  0  0  0  0  0  0  0  0  0  0
   56.5620   27.3220   45.6060 C   0  0  0  0  0  0  0  0  0  0  0  0
   55.9070   28.5510   45.2590 N   0  0  0  0  0  0  0  0  0  0  0  0
   56.5510   29.7960   44.2370 S   0  0  0  0  0  0  0  0  0  0  0  0
   55.8390   31.0940   44.4950 O   0  0  0  0  0  0  0  0  0  0  0  0
   56.3340   29.4030   42.8040 O   0  0  0  0  0  0  0  0  0  0  0  0
   58.2990   29.9780   44.5200 C   0  0  0  0  0  0  0  0  0  0  0  0
   58.4951   29.9984   45.6022 H   0  0  0  0  0  0  0  0  0  0  0  0
   58.8341   29.1307   44.0663 H   0  0  0  0  0  0  0  0  0  0  0  0
   58.6480   30.9173   44.0663 H   0  0  0  0  0  0  0  0  0  0  0  0
   55.7750   26.2200   45.9780 C   0  0  0  0  0  0  0  0  0  0  0  0
   54.3880   26.3420   45.9950 O   0  0  0  0  0  0  0  0  0  0  0  0
   55.4170   22.4660   44.5830 C   0  0  0  0  0  0  0  0  0  0  0  0
   55.4210   23.0630   43.3780 N   0  0  0  0  0  0  0  0  0  0  0  0
   55.9440   22.1650   42.5600 N   0  0  0  0  0  0  0  0  0  0  0  0
   56.2370   21.0640   43.2320 N   0  0  0  0  0  0  0  0  0  0  0  0
   55.9110   21.2170   44.5040 N   0  0  0  0  0  0  0  0  0  0  0  0
  1  2  1  0
  2  3  2  0
  3  4  1  0
  3  5  1  0
  5  6  2  0
  6  7  1  0
  6  8  1  0
  8  9  1  0
  8 10  2  0
 10 11  1  0
 10 12  1  0
 12 13  1  0
 13 14  1  0
 14 15  2  0
 14 16  2  0
 14 17  1  0
 17 18  1  0
 17 19  1  0
 17 20  1  0
 12 21  2  0
 21 22  1  0
  2 23  1  0
 23 24  1  0
 24 25  2  0
 25 26  1  0
 26 27  1  0
 21  5  1  0
 27 23  2  0
M  CHG  3  13  -1  22  -1  26  -1
M  END
>  <UniqueID>  (11) 
10

>  <SMILES>  (11) 
CS(=O)(=O)[N-]c1cccc(/C=C\c2nn[n-]n2)c1[O-]

>  <Energy>  (11) 
72.7530036960519

>  <Genealogy>  (11) 
CS(=O)(=O)[N-]c1cccc(C=Cc2nn[n-]n2)c1[O-] (protonated)
CS(=O)(=O)[N-]c1cccc(/C=C\c2nn[n-]n2)c1[O-] (cis-trans isomerization)
CS(=O)(=O)[N-]c1cccc(/C=C\c2nn[n-]n2)c1[O-] (3D coordinates assigned)
CS(=O)(=O)[N-]c1cccc(/C=C\c2nn[n-]n2)c1[O-] (optimized conformer: 72.7530036960519 kcal/mol)

>  <smiles>  (11) 
CS(=O)(=O)Nc1cccc(C=Cc2nn[nH]n2)c1O

>  <score_type>  (11) 
oracle

>  <origin>  (11) 
adg

>  <m_score__min__energy>  (11) 
-15.279999999999999

>  <m_primary>  (11) 
energy

$$$$
11:0
     RDKit          3D

 65 67  0  0  0  0  0  0  0  0999 V2000
   67.2140   31.2220   50.9490 C   0  0  0  0  0  0  0  0  0  0  0  0
   67.2010   33.0020   50.8920 S   0  0  0  0  0  0  0  0  0  0  0  0
   67.7630   33.5200   52.1850 O   0  0  0  0  0  0  0  0  0  0  0  0
   68.0540   33.4940   49.7570 O   0  0  0  0  0  0  0  0  0  0  0  0
   65.5770   33.5890   50.7100 N   0  0  0  0  0  0  0  0  0  0  0  0
   64.4650   32.7570   50.3290 C   0  0  0  0  0  0  0  0  0  0  0  0
   63.9180   32.8410   49.0350 C   0  0  0  0  0  0  0  0  0  0  0  0
   62.8360   32.0260   48.6420 C   0  0  0  0  0  0  0  0  0  0  0  0
   62.2260   32.1450   47.2480 C   0  0  1  0  0  0  0  0  0  0  0  0
   61.7650   30.8320   46.7570 N   0  0  0  0  0  0  0  0  0  0  0  0
   60.3960   30.5060   47.1840 C   0  0  0  0  0  0  0  0  0  0  0  0
   59.9460   29.1870   46.5450 C   0  0  0  0  0  0  0  0  0  0  0  0
   59.8190   29.2580   45.0120 C   0  0  0  0  0  0  0  0  0  0  0  0
   58.6200   28.4530   44.4820 C   0  0  0  0  0  0  0  0  0  0  0  0
   57.4460   28.4370   45.4810 C   0  0  2  0  0  0  0  0  0  0  0  0
   56.8100   27.1830   45.4250 O   0  0  0  0  0  0  0  0  0  0  0  0
   56.4070   29.5530   45.1870 C   0  0  2  0  0  0  0  0  0  0  0  0
   55.2450   29.0190   44.6020 O   0  0  0  0  0  0  0  0  0  0  0  0
   56.9830   30.6460   44.3070 C   0  0  0  0  0  0  0  0  0  0  0  0
   56.8440   30.5640   42.9090 C   0  0  0  0  0  0  0  0  0  0  0  0
   57.3750   31.5620   42.0860 C   0  0  0  0  0  0  0  0  0  0  0  0
   58.0310   32.6600   42.6470 C   0  0  0  0  0  0  0  0  0  0  0  0
   58.1550   32.7640   44.0340 C   0  0  0  0  0  0  0  0  0  0  0  0
   57.6370   31.7630   44.8620 C   0  0  0  0  0  0  0  0  0  0  0  0
   61.0880   33.1570   47.2080 C   0  0  0  0  0  0  0  0  0  0  0  0
   60.3300   33.4380   48.3590 C   0  0  0  0  0  0  0  0  0  0  0  0
   59.2880   34.3710   48.3090 C   0  0  0  0  0  0  0  0  0  0  0  0
   58.9900   35.0250   47.1110 C   0  0  0  0  0  0  0  0  0  0  0  0
   59.7340   34.7490   45.9600 C   0  0  0  0  0  0  0  0  0  0  0  0
   60.7780   33.8200   46.0060 C   0  0  0  0  0  0  0  0  0  0  0  0
   62.2480   31.1850   49.6050 C   0  0  0  0  0  0  0  0  0  0  0  0
   62.7760   31.1000   50.8930 C   0  0  0  0  0  0  0  0  0  0  0  0
   63.8820   31.8720   51.2610 C   0  0  0  0  0  0  0  0  0  0  0  0
   64.5350   31.6850   52.9370 S   0  0  0  0  0  0  0  0  0  0  0  0
   67.2164   30.8887   51.9973 H   0  0  0  0  0  0  0  0  0  0  0  0
   66.3187   30.8324   50.4425 H   0  0  0  0  0  0  0  0  0  0  0  0
   68.1149   30.8455   50.4425 H   0  0  0  0  0  0  0  0  0  0  0  0
   65.4130   34.5810   50.9880 H   0  0  0  0  0  0  0  0  0  0  0  0
   64.3428   33.5566   48.3157 H   0  0  0  0  0  0  0  0  0  0  0  0
   63.0204   32.5104   46.5805 H   0  0  0  0  0  0  0  0  0  0  0  0
   62.4170   30.0760   47.0790 H   0  0  0  0  0  0  0  0  0  0  0  0
   60.3701   30.4074   48.2793 H   0  0  0  0  0  0  0  0  0  0  0  0
   59.7176   31.3110   46.8651 H   0  0  0  0  0  0  0  0  0  0  0  0
   60.6816   28.4091   46.7976 H   0  0  0  0  0  0  0  0  0  0  0  0
   58.9455   28.9604   46.9420 H   0  0  0  0  0  0  0  0  0  0  0  0
   59.6955   30.3104   44.7167 H   0  0  0  0  0  0  0  0  0  0  0  0
   60.7317   28.8211   44.5806 H   0  0  0  0  0  0  0  0  0  0  0  0
   58.2777   28.9053   43.5395 H   0  0  0  0  0  0  0  0  0  0  0  0
   58.9496   27.4147   44.3295 H   0  0  0  0  0  0  0  0  0  0  0  0
   57.8572   28.6224   46.4843 H   0  0  0  0  0  0  0  0  0  0  0  0
   56.3260   27.1420   44.5590 H   0  0  0  0  0  0  0  0  0  0  0  0
   56.1404   30.0056   46.1535 H   0  0  0  0  0  0  0  0  0  0  0  0
   55.1370   28.1000   44.9580 H   0  0  0  0  0  0  0  0  0  0  0  0
   56.3147   29.7100   42.4612 H   0  0  0  0  0  0  0  0  0  0  0  0
   57.2758   31.4821   40.9934 H   0  0  0  0  0  0  0  0  0  0  0  0
   58.4497   33.4422   41.9968 H   0  0  0  0  0  0  0  0  0  0  0  0
   58.6610   33.6349   44.4762 H   0  0  0  0  0  0  0  0  0  0  0  0
   57.7411   31.8487   45.9537 H   0  0  0  0  0  0  0  0  0  0  0  0
   60.5574   32.9218   49.3034 H   0  0  0  0  0  0  0  0  0  0  0  0
   58.7028   34.5897   49.2144 H   0  0  0  0  0  0  0  0  0  0  0  0
   58.1699   35.7572   47.0733 H   0  0  0  0  0  0  0  0  0  0  0  0
   59.4977   35.2634   45.0168 H   0  0  0  0  0  0  0  0  0  0  0  0
   61.3603   33.6062   45.0976 H   0  0  0  0  0  0  0  0  0  0  0  0
   61.3628   30.5885   49.3391 H   0  0  0  0  0  0  0  0  0  0  0  0
   62.3182   30.4194   51.6260 H   0  0  0  0  0  0  0  0  0  0  0  0
  1  2  1  0
  2  3  2  0
  2  4  2  0
  2  5  1  0
  5  6  1  0
  6  7  2  0
  7  8  1  0
  8  9  1  0
  9 10  1  0
 10 11  1  0
 11 12  1  0
 12 13  1  0
 13 14  1  0
 14 15  1  0
 15 16  1  0
 15 17  1  0
 17 18  1  0
 17 19  1  0
 19 20  2  0
 20 21  1  0
 21 22  2  0
 22 23  1  0
 23 24  2  0
  9 25  1  0
 25 26  2  0
 26 27  1  0
 27 28  2  0
 28 29  1  0
 29 30  2  0
  8 31  2  0
 31 32  1  0
 32 33  2  0
 33 34  1  0
 33  6  1  0
 24 19  1  0
 30 25  1  0
  1 35  1  0
  1 36  1  0
  1 37  1  0
  5 38  1  0
  7 39  1  0
  9 40  1  6
 10 41  1  0
 11 42  1  0
 11 43  1  0
 12 44  1  0
 12 45  1  0
 13 46  1  0
 13 47  1  0
 14 48  1  0
 14 49  1  0
 15 50  1  1
 16 51  1  0
 17 52  1  1
 18 53  1  0
 20 54  1  0
 21 55  1  0
 22 56  1  0
 23 57  1  0
 24 58  1  0
 26 59  1  0
 27 60  1  0
 28 61  1  0
 29 62  1  0
 30 63  1  0
 31 64  1  0
 32 65  1  0
M  CHG  1  34  -1
M  END
>  <UniqueID>  (12) 
11

>  <SMILES>  (12) 
CS(=O)(=O)Nc1cc([C@@H](NCCCC[C@H](O)C(O)c2ccccc2)c2ccccc2)ccc1[S-]

>  <Energy>  (12) 
64.54058551286724

>  <Genealogy>  (12) 
CS(=O)(=O)Nc1cc(C(NCCCCC(O)C(O)c2ccccc2)c2ccccc2)ccc1[S-] (protonated)
CS(=O)(=O)Nc1cc([C@@H](NCCCC[C@H](O)C(O)c2ccccc2)c2ccccc2)ccc1[S-] (chirality)
CS(=O)(=O)Nc1cc([C@@H](NCCCC[C@H](O)C(O)c2ccccc2)c2ccccc2)ccc1[S-] (3D coordinates assigned)
CS(=O)(=O)Nc1cc([C@@H](NCCCC[C@H](O)C(O)c2ccccc2)c2ccccc2)ccc1[S-] (optimized conformer: 64.54058551286724 kcal/mol)

>  <smiles>  (12) 
CS(=O)(=O)Nc1cc(C(NCCCCC(O)C(O)c2ccccc2)c2ccccc2)ccc1S

>  <score_type>  (12) 
oracle

>  <origin>  (12) 
adg

>  <m_score__min__energy>  (12) 
-10.15

>  <m_primary>  (12) 
energy

$$$$
12:0
     RDKit          3D

 44 47  0  0  1  0  0  0  0  0999 V2000
   55.1480   29.7210   43.5100 C   0  0  0  0  0  0  0  0  0  0  0  0
   55.3980   29.0350   44.7030 O   0  0  0  0  0  0  0  0  0  0  0  0
   56.6330   28.7830   45.2360 C   0  0  0  0  0  0  0  0  0  0  0  0
   57.1060   27.5090   45.5350 C   0  0  0  0  0  0  0  0  0  0  0  0
   58.3610   27.2980   46.0740 C   0  0  0  0  0  0  0  0  0  0  0  0
   59.1890   28.3740   46.3320 C   0  0  0  0  0  0  0  0  0  0  0  0
   58.7080   29.6230   46.0320 C   0  0  0  0  0  0  0  0  0  0  0  0
   57.4630   29.8640   45.4960 C   0  0  0  0  0  0  0  0  0  0  0  0
   57.0550   31.1540   45.2220 O   0  0  0  0  0  0  0  0  0  0  0  0
   57.7760   32.3240   45.4290 C   0  0  0  0  0  0  0  0  0  0  0  0
   57.0400   33.2420   46.4120 C   0  0  0  0  0  0  0  0  0  0  0  0
   57.8640   33.0800   44.1240 C   0  0  0  0  0  0  0  0  0  0  0  0
   59.1110   32.0390   46.0060 C   0  0  0  0  0  0  0  0  0  0  0  0
   59.9600   33.0990   46.2750 C   0  0  0  0  0  0  0  0  0  0  0  0
   61.1940   32.8800   46.8060 N   0  0  0  0  0  0  0  0  0  0  0  0
   61.6070   31.6260   47.0780 C   0  0  0  0  0  0  0  0  0  0  0  0
   62.7880   31.4220   47.5860 N   0  0  0  0  0  0  0  0  0  0  0  0
   63.7680   32.5150   47.5760 C   0  0  0  0  0  0  0  0  0  0  0  0
   63.5420   33.2830   48.8340 C   0  0  0  0  0  0  0  0  0  0  0  0
   64.3580   33.2780   49.9600 C   0  0  0  0  0  0  0  0  0  0  0  0
   63.7530   34.1250   50.8530 C   0  0  0  0  0  0  0  0  0  0  0  0
   62.6150   34.6080   50.2560 C   0  0  0  0  0  0  0  0  0  0  0  0
   62.5080   34.0930   49.0530 O   0  0  0  0  0  0  0  0  0  0  0  0
   60.8030   30.5740   46.8270 N   0  0  0  0  0  0  0  0  0  0  0  0
   59.5650   30.7700   46.2970 C   0  0  0  0  0  0  0  0  0  0  0  0
   54.7796   30.7319   43.7386 H   0  0  0  0  0  0  0  0  0  0  0  0
   56.0778   29.7928   42.9266 H   0  0  0  0  0  0  0  0  0  0  0  0
   54.3900   29.1778   42.9266 H   0  0  0  0  0  0  0  0  0  0  0  0
   56.4598   26.6413   45.3358 H   0  0  0  0  0  0  0  0  0  0  0  0
   58.7002   26.2757   46.2972 H   0  0  0  0  0  0  0  0  0  0  0  0
   60.1925   28.2345   46.7603 H   0  0  0  0  0  0  0  0  0  0  0  0
   57.2799   32.9428   47.4430 H   0  0  0  0  0  0  0  0  0  0  0  0
   57.3568   34.2827   46.2491 H   0  0  0  0  0  0  0  0  0  0  0  0
   55.9553   33.1591   46.2491 H   0  0  0  0  0  0  0  0  0  0  0  0
   57.9889   34.1533   44.3298 H   0  0  0  0  0  0  0  0  0  0  0  0
   58.7257   32.7147   43.5460 H   0  0  0  0  0  0  0  0  0  0  0  0
   56.9414   32.9224   43.5460 H   0  0  0  0  0  0  0  0  0  0  0  0
   59.6345   34.1270   46.0577 H   0  0  0  0  0  0  0  0  0  0  0  0
   61.8550   33.6690   47.0180 H   0  0  0  0  0  0  0  0  0  0  0  0
   64.7908   32.1108   47.5538 H   0  0  0  0  0  0  0  0  0  0  0  0
   63.6496   33.1534   46.6881 H   0  0  0  0  0  0  0  0  0  0  0  0
   65.2914   32.7140   50.1040 H   0  0  0  0  0  0  0  0  0  0  0  0
   64.1135   34.3720   51.8625 H   0  0  0  0  0  0  0  0  0  0  0  0
   61.9058   35.3140   50.7128 H   0  0  0  0  0  0  0  0  0  0  0  0
  1  2  1  0
  2  3  1  0
  3  4  2  0
  4  5  1  0
  5  6  2  0
  6  7  1  0
  7  8  2  0
  8  9  1  0
  9 10  1  0
 10 11  1  0
 10 12  1  0
 10 13  1  0
 13 14  2  0
 14 15  1  0
 15 16  1  0
 16 17  2  0
 17 18  1  0
 18 19  1  0
 19 20  2  0
 20 21  1  0
 21 22  2  0
 22 23  1  0
 16 24  1  0
 24 25  2  0
  8  3  1  0
 25 13  1  0
 25  7  1  0
 23 19  1  0
  1 26  1  0
  1 27  1  0
  1 28  1  0
  4 29  1  0
  5 30  1  0
  6 31  1  0
 11 32  1  0
 11 33  1  0
 11 34  1  0
 12 35  1  0
 12 36  1  0
 12 37  1  0
 14 38  1  0
 15 39  1  0
 18 40  1  0
 18 41  1  0
 20 42  1  0
 21 43  1  0
 22 44  1  0
M  END
>  <smiles>  (13) 
COc1cccc2c1OC(C)(C)c1c[nH]c(=NCc3ccco3)nc1-2

>  <score_type>  (13) 
oracle

>  <origin>  (13) 
adg

>  <m_score__min__energy>  (13) 
-7.4699999999999998

>  <m_primary>  (13) 
energy

$$$$
13:0
     RDKit          3D

 54 57  0  0  0  0  0  0  0  0999 V2000
   60.4650   28.4230   45.9190 C   0  0  0  0  0  0  0  0  0  0  0  0
   60.0530   28.1410   47.6360 S   0  0  0  0  0  0  0  0  0  0  0  0
   60.7530   26.9100   48.1450 O   0  0  0  0  0  0  0  0  0  0  0  0
   58.5690   27.9300   47.7540 O   0  0  0  0  0  0  0  0  0  0  0  0
   60.5020   29.5100   48.6080 N   0  0  0  0  0  0  0  0  0  0  0  0
   60.2170   30.8840   48.2920 C   0  0  0  0  0  0  0  0  0  0  0  0
   58.9250   31.4040   48.4480 C   0  0  0  0  0  0  0  0  0  0  0  0
   58.6480   32.7330   48.1390 C   0  0  0  0  0  0  0  0  0  0  0  0
   59.6530   33.5900   47.6650 C   0  0  0  0  0  0  0  0  0  0  0  0
   59.2650   35.0000   47.2750 C   0  0  0  0  0  0  0  0  0  0  0  0
   58.9540   35.0590   45.8500 N   0  0  0  0  0  0  0  0  0  0  0  0
   58.0890   34.1250   45.1930 C   0  0  0  0  0  0  0  0  0  0  0  0
   56.8920   34.4380   44.9520 O   0  0  0  0  0  0  0  0  0  0  0  0
   58.5940   32.8240   44.8470 N   0  0  0  0  0  0  0  0  0  0  0  0
   57.7920   31.7760   44.2720 C   0  0  0  0  0  0  0  0  0  0  0  0
   57.5170   31.7970   42.8960 C   0  0  0  0  0  0  0  0  0  0  0  0
   56.7710   30.7720   42.3060 C   0  0  0  0  0  0  0  0  0  0  0  0
   56.2770   29.7240   43.0880 C   0  0  0  0  0  0  0  0  0  0  0  0
   56.4930   29.7150   44.4700 C   0  0  0  0  0  0  0  0  0  0  0  0
   55.9810   28.6530   45.2260 O   0  0  0  0  0  0  0  0  0  0  0  0
   56.6490   27.4440   45.4700 C   0  0  0  0  0  0  0  0  0  0  0  0
   56.1510   26.4830   46.3650 C   0  0  0  0  0  0  0  0  0  0  0  0
   56.8140   25.2630   46.5340 C   0  0  0  0  0  0  0  0  0  0  0  0
   57.9930   25.0050   45.8270 C   0  0  0  0  0  0  0  0  0  0  0  0
   58.5040   25.9640   44.9450 C   0  0  0  0  0  0  0  0  0  0  0  0
   57.8250   27.1730   44.7580 C   0  0  0  0  0  0  0  0  0  0  0  0
   57.2510   30.7430   45.0620 C   0  0  0  0  0  0  0  0  0  0  0  0
   60.9700   33.0860   47.4980 C   0  0  0  0  0  0  0  0  0  0  0  0
   62.0150   33.8970   47.0000 C   0  0  0  0  0  0  0  0  0  0  0  0
   63.3030   33.3820   46.8430 C   0  0  0  0  0  0  0  0  0  0  0  0
   63.5750   32.0550   47.1660 C   0  0  0  0  0  0  0  0  0  0  0  0
   62.5570   31.2300   47.6460 C   0  0  0  0  0  0  0  0  0  0  0  0
   61.2500   31.7270   47.8230 C   0  0  0  0  0  0  0  0  0  0  0  0
   61.3713   29.0433   45.8565 H   0  0  0  0  0  0  0  0  0  0  0  0
   60.6459   27.4584   45.4221 H   0  0  0  0  0  0  0  0  0  0  0  0
   59.6313   28.9407   45.4221 H   0  0  0  0  0  0  0  0  0  0  0  0
   58.1193   30.7537   48.8194 H   0  0  0  0  0  0  0  0  0  0  0  0
   57.6254   33.1172   48.2684 H   0  0  0  0  0  0  0  0  0  0  0  0
   58.3811   35.3072   47.8533 H   0  0  0  0  0  0  0  0  0  0  0  0
   60.1056   35.6766   47.4882 H   0  0  0  0  0  0  0  0  0  0  0  0
   59.5410   32.5710   45.2090 H   0  0  0  0  0  0  0  0  0  0  0  0
   57.8910   32.6259   42.2771 H   0  0  0  0  0  0  0  0  0  0  0  0
   56.5725   30.7904   41.2242 H   0  0  0  0  0  0  0  0  0  0  0  0
   55.7167   28.9039   42.6152 H   0  0  0  0  0  0  0  0  0  0  0  0
   55.2343   26.6909   46.9364 H   0  0  0  0  0  0  0  0  0  0  0  0
   56.4085   24.5070   47.2225 H   0  0  0  0  0  0  0  0  0  0  0  0
   58.5185   24.0484   45.9642 H   0  0  0  0  0  0  0  0  0  0  0  0
   59.4386   25.7674   44.3993 H   0  0  0  0  0  0  0  0  0  0  0  0
   58.2169   27.9156   44.0474 H   0  0  0  0  0  0  0  0  0  0  0  0
   57.4219   30.7395   46.1486 H   0  0  0  0  0  0  0  0  0  0  0  0
   61.8113   34.9446   46.7334 H   0  0  0  0  0  0  0  0  0  0  0  0
   64.1076   34.0281   46.4620 H   0  0  0  0  0  0  0  0  0  0  0  0
   64.5930   31.6568   47.0427 H   0  0  0  0  0  0  0  0  0  0  0  0
   62.7771   30.1800   47.8890 H   0  0  0  0  0  0  0  0  0  0  0  0
  1  2  1  0
  2  3  2  0
  2  4  2  0
  2  5  1  0
  5  6  1  0
  6  7  2  0
  7  8  1  0
  8  9  2  0
  9 10  1  0
 10 11  1  0
 11 12  1  0
 12 13  2  0
 12 14  1  0
 14 15  1  0
 15 16  2  0
 16 17  1  0
 17 18  2  0
 18 19  1  0
 19 20  1  0
 20 21  1  0
 21 22  2  0
 22 23  1  0
 23 24  2  0
 24 25  1  0
 25 26  2  0
 19 27  2  0
  9 28  1  0
 28 29  2  0
 29 30  1  0
 30 31  2  0
 31 32  1  0
 32 33  2  0
 33  6  1  0
 27 15  1  0
 33 28  1  0
 26 21  1  0
  1 34  1  0
  1 35  1  0
  1 36  1  0
  7 37  1  0
  8 38  1  0
 10 39  1  0
 10 40  1  0
 14 41  1  0
 16 42  1  0
 17 43  1  0
 18 44  1  0
 22 45  1  0
 23 46  1  0
 24 47  1  0
 25 48  1  0
 26 49  1  0
 27 50  1  0
 29 51  1  0
 30 52  1  0
 31 53  1  0
 32 54  1  0
M  CHG  2   5  -1  11  -1
M  END
>  <UniqueID>  (14) 
12

>  <SMILES>  (14) 
CS(=O)(=O)[N-]c1ccc(C[N-]C(=O)Nc2cccc(Oc3ccccc3)c2)c2ccccc12

>  <Energy>  (14) 
73.41867118364335

>  <Genealogy>  (14) 
CS(=O)(=O)[N-]c1ccc(C[N-]C(=O)Nc2cccc(Oc3ccccc3)c2)c2ccccc12 (protonated)
CS(=O)(=O)[N-]c1ccc(C[N-]C(=O)Nc2cccc(Oc3ccccc3)c2)c2ccccc12 (3D coordinates assigned)
CS(=O)(=O)[N-]c1ccc(C[N-]C(=O)Nc2cccc(Oc3ccccc3)c2)c2ccccc12 (optimized conformer: 73.41867118364335 kcal/mol)

>  <smiles>  (14) 
CS(=O)(=O)Nc1ccc(CNC(=O)Nc2cccc(Oc3ccccc3)c2)c2ccccc12

>  <score_type>  (14) 
oracle

>  <origin>  (14) 
adg

>  <m_score__min__energy>  (14) 
-12.34

>  <m_primary>  (14) 
energy

$$$$
14:0
     RDKit          3D

 32 33  0  0  0  0  0  0  0  0999 V2000
   54.7700   26.3410   46.0020 N   0  0  0  0  0  0  0  0  0  0  0  0
   56.1210   25.2820   46.1870 S   0  0  0  0  0  0  0  0  0  0  0  0
   56.2210   24.3840   44.9870 O   0  0  0  0  0  0  0  0  0  0  0  0
   55.9280   24.4300   47.4110 O   0  0  0  0  0  0  0  0  0  0  0  0
   57.5950   26.2310   46.3480 C   0  0  0  0  0  0  0  0  0  0  0  0
   58.8400   25.5910   46.4240 C   0  0  0  0  0  0  0  0  0  0  0  0
   60.0060   26.3440   46.5740 C   0  0  0  0  0  0  0  0  0  0  0  0
   59.9400   27.7380   46.6430 C   0  0  0  0  0  0  0  0  0  0  0  0
   58.7000   28.3930   46.5520 C   0  0  0  0  0  0  0  0  0  0  0  0
   58.5990   29.8250   46.6470 N   0  0  0  0  0  0  0  0  0  0  0  0
   59.7010   30.7240   46.4480 C   0  0  0  0  0  0  0  0  0  0  0  0
   60.8010   30.3040   45.9970 O   0  0  0  0  0  0  0  0  0  0  0  0
   59.5250   32.1890   46.7020 C   0  0  0  0  0  0  0  0  0  0  0  0
   57.7560   32.6380   46.6940 S   0  0  0  0  0  0  0  0  0  0  0  0
   57.4320   31.9360   45.0790 C   0  0  0  0  0  0  0  0  0  0  0  0
   57.9630   32.5130   43.9680 N   0  0  0  0  0  0  0  0  0  0  0  0
   57.7300   31.9940   42.7350 C   0  0  0  0  0  0  0  0  0  0  0  0
   56.9340   30.8580   42.5970 C   0  0  0  0  0  0  0  0  0  0  0  0
   56.3930   30.2820   43.7480 C   0  0  0  0  0  0  0  0  0  0  0  0
   56.6500   30.8310   44.9640 N   0  0  0  0  0  0  0  0  0  0  0  0
   57.5300   27.6290   46.4260 C   0  0  0  0  0  0  0  0  0  0  0  0
   55.1340   27.3170   46.0860 H   0  0  0  0  0  0  0  0  0  0  0  0
   58.8982   24.4941   46.3654 H   0  0  0  0  0  0  0  0  0  0  0  0
   60.9805   25.8379   46.6381 H   0  0  0  0  0  0  0  0  0  0  0  0
   60.8619   28.3248   46.7690 H   0  0  0  0  0  0  0  0  0  0  0  0
   57.6490   30.2410   46.7720 H   0  0  0  0  0  0  0  0  0  0  0  0
   59.9566   32.4398   47.6822 H   0  0  0  0  0  0  0  0  0  0  0  0
   60.0355   32.7496   45.9051 H   0  0  0  0  0  0  0  0  0  0  0  0
   58.1691   32.4697   41.8457 H   0  0  0  0  0  0  0  0  0  0  0  0
   56.7368   30.4257   41.6049 H   0  0  0  0  0  0  0  0  0  0  0  0
   55.7601   29.3857   43.6706 H   0  0  0  0  0  0  0  0  0  0  0  0
   56.5524   28.1319   46.3881 H   0  0  0  0  0  0  0  0  0  0  0  0
  1  2  1  0
  2  3  2  0
  2  4  2  0
  2  5  1  0
  5  6  2  0
  6  7  1  0
  7  8  2  0
  8  9  1  0
  9 10  1  0
 10 11  1  0
 11 12  2  0
 11 13  1  0
 13 14  1  0
 14 15  1  0
 15 16  2  0
 16 17  1  0
 17 18  2  0
 18 19  1  0
 19 20  2  0
  9 21  2  0
 21  5  1  0
 20 15  1  0
  1 22  1  0
  6 23  1  0
  7 24  1  0
  8 25  1  0
 10 26  1  0
 13 27  1  0
 13 28  1  0
 17 29  1  0
 18 30  1  0
 19 31  1  0
 21 32  1  0
M  CHG  1   1  -1
M  END
>  <UniqueID>  (15) 
13

>  <SMILES>  (15) 
[NH-]S(=O)(=O)c1cccc(NC(=O)CSc2ncccn2)c1

>  <Energy>  (15) 
31.641885138187607

>  <Genealogy>  (15) 
[NH-]S(=O)(=O)c1cccc(NC(=O)CSc2ncccn2)c1 (protonated)
[NH-]S(=O)(=O)c1cccc(NC(=O)CSc2ncccn2)c1 (3D coordinates assigned)
[NH-]S(=O)(=O)c1cccc(NC(=O)CSc2ncccn2)c1 (optimized conformer: 31.641885138187607 kcal/mol)

>  <smiles>  (15) 
NS(=O)(=O)c1cccc(NC(=O)CSc2ncccn2)c1

>  <score_type>  (15) 
oracle

>  <origin>  (15) 
adg

>  <m_score__min__energy>  (15) 
-10.91

>  <m_primary>  (15) 
energy

$$$$
15:0
     RDKit          3D

 42 44  0  0  1  0  0  0  0  0999 V2000
   62.0590   33.5710   46.7770 C   0  0  0  0  0  0  0  0  0  0  0  0
   60.9450   33.6320   48.1560 S   0  0  0  0  0  0  0  0  0  0  0  0
   61.5250   34.5120   49.1970 O   0  0  0  0  0  0  0  0  0  0  0  0
   60.8870   32.2350   48.7530 O   0  0  0  0  0  0  0  0  0  0  0  0
   59.3460   34.0490   47.6910 N   0  0  0  0  0  0  0  0  0  0  0  0
   58.8380   33.5040   46.4840 C   0  0  0  0  0  0  0  0  0  0  0  0
   58.8760   34.2390   45.3030 C   0  0  0  0  0  0  0  0  0  0  0  0
   58.3740   33.6800   44.1450 C   0  0  0  0  0  0  0  0  0  0  0  0
   57.8500   32.4100   44.1810 C   0  0  0  0  0  0  0  0  0  0  0  0
   57.7900   31.6420   45.3290 C   0  0  0  0  0  0  0  0  0  0  0  0
   57.2300   30.2950   45.3510 C   0  0  0  0  0  0  0  0  0  0  0  0
   57.9040   29.2090   45.8960 C   0  0  0  0  0  0  0  0  0  0  0  0
   57.0640   28.1130   45.7350 C   0  0  0  0  0  0  0  0  0  0  0  0
   57.3710   26.9430   46.1250 N   0  0  0  0  0  0  0  0  0  0  0  0
   56.3770   25.9240   46.2660 C   0  0  1  0  0  0  0  0  0  0  0  0
   55.0790   26.3780   46.2700 O   0  0  0  0  0  0  0  0  0  0  0  0
   56.5630   24.7690   45.3620 C   0  0  0  0  0  0  0  0  0  0  0  0
   57.7550   24.1140   45.1970 C   0  0  0  0  0  0  0  0  0  0  0  0
   57.6420   23.1020   44.3180 N   0  0  0  0  0  0  0  0  0  0  0  0
   56.3580   23.1030   43.9080 C   0  0  0  0  0  0  0  0  0  0  0  0
   55.8490   22.1840   42.9780 O   0  0  0  0  0  0  0  0  0  0  0  0
   55.6600   24.1280   44.5390 C   0  0  0  0  0  0  0  0  0  0  0  0
   55.9480   28.5420   45.1240 N   0  0  0  0  0  0  0  0  0  0  0  0
   56.0450   29.8540   44.8920 N   0  0  0  0  0  0  0  0  0  0  0  0
   58.2960   32.2130   46.4850 C   0  0  0  0  0  0  0  0  0  0  0  0
   63.0943   33.5143   47.1442 H   0  0  0  0  0  0  0  0  0  0  0  0
   61.8376   32.6836   46.1658 H   0  0  0  0  0  0  0  0  0  0  0  0
   61.9359   34.4772   46.1658 H   0  0  0  0  0  0  0  0  0  0  0  0
   58.7200   34.6830   48.2420 H   0  0  0  0  0  0  0  0  0  0  0  0
   59.3011   35.2535   45.2924 H   0  0  0  0  0  0  0  0  0  0  0  0
   58.3932   34.2459   43.2019 H   0  0  0  0  0  0  0  0  0  0  0  0
   57.4575   31.9819   43.2468 H   0  0  0  0  0  0  0  0  0  0  0  0
   58.9009   29.2152   46.3609 H   0  0  0  0  0  0  0  0  0  0  0  0
   56.5545   25.5477   47.2843 H   0  0  0  0  0  0  0  0  0  0  0  0
   54.7530   26.6960   47.1240 H   0  0  0  0  0  0  0  0  0  0  0  0
   58.6864   24.3817   45.7174 H   0  0  0  0  0  0  0  0  0  0  0  0
   58.3860   22.4460   44.0090 H   0  0  0  0  0  0  0  0  0  0  0  0
   54.8400   22.2160   42.7710 H   0  0  0  0  0  0  0  0  0  0  0  0
   54.5969   24.3782   44.4075 H   0  0  0  0  0  0  0  0  0  0  0  0
   55.1440   27.9310   44.8770 H   0  0  0  0  0  0  0  0  0  0  0  0
   55.3270   30.4630   44.4300 H   0  0  0  0  0  0  0  0  0  0  0  0
   58.2715   31.6401   47.4237 H   0  0  0  0  0  0  0  0  0  0  0  0
  1  2  1  0
  2  3  2  0
  2  4  2  0
  2  5  1  0
  5  6  1  0
  6  7  2  0
  7  8  1  0
  8  9  2  0
  9 10  1  0
 10 11  1  0
 11 12  2  0
 12 13  1  0
 13 14  2  0
 14 15  1  0
 15 16  1  0
 15 17  1  0
 17 18  2  0
 18 19  1  0
 19 20  1  0
 20 21  1  0
 20 22  2  0
 13 23  1  0
 23 24  1  0
 10 25  2  0
 25  6  1  0
 24 11  1  0
 22 17  1  0
  1 26  1  0
  1 27  1  0
  1 28  1  0
  5 29  1  0
  7 30  1  0
  8 31  1  0
  9 32  1  0
 12 33  1  0
 15 34  1  1
 16 35  1  0
 18 36  1  0
 19 37  1  0
 21 38  1  0
 22 39  1  0
 23 40  1  0
 24 41  1  0
 25 42  1  0
M  END
>  <smiles>  (16) 
CS(=O)(=O)Nc1cccc(-c2cc(=NC(O)c3c[nH]c(O)c3)[nH][nH]2)c1

>  <score_type>  (16) 
oracle

>  <origin>  (16) 
adg

>  <m_score__min__energy>  (16) 
-9.7699999999999996

>  <m_primary>  (16) 
energy

$$$$
16:0
     RDKit          3D

 52 54  0  0  0  0  0  0  0  0999 V2000
   56.2800   22.2080   48.7300 C   0  0  0  0  0  0  0  0  0  0  0  0
   57.3880   22.5660   47.9120 O   0  0  0  0  0  0  0  0  0  0  0  0
   57.3940   23.6420   47.0120 C   0  0  0  0  0  0  0  0  0  0  0  0
   57.3930   24.9420   47.5280 C   0  0  0  0  0  0  0  0  0  0  0  0
   57.4010   26.0470   46.6720 C   0  0  0  0  0  0  0  0  0  0  0  0
   57.4270   25.8640   45.2780 C   0  0  0  0  0  0  0  0  0  0  0  0
   57.4050   26.9850   44.3770 N   0  0  0  0  0  0  0  0  0  0  0  0
   57.7550   28.3300   44.7400 C   0  0  0  0  0  0  0  0  0  0  0  0
   59.0220   28.6500   45.2340 C   0  0  0  0  0  0  0  0  0  0  0  0
   59.3120   29.9790   45.5430 C   0  0  0  0  0  0  0  0  0  0  0  0
   60.4530   30.2600   46.0030 O   0  0  0  0  0  0  0  0  0  0  0  0
   58.3690   30.9590   45.3480 N   0  0  0  0  0  0  0  0  0  0  0  0
   58.6610   32.3660   45.6940 C   0  0  0  0  0  0  0  0  0  0  0  0
   58.1910   32.7090   47.1170 C   0  0  0  0  0  0  0  0  0  0  0  0
   59.0190   33.8350   47.7510 C   0  0  0  0  0  0  0  0  0  0  0  0
   60.1600   34.3210   46.8460 C   0  0  0  0  0  0  0  0  0  0  0  0
   61.4770   34.0710   47.4770 N   0  0  0  0  0  0  0  0  0  0  0  0
   61.4360   33.0000   48.5070 C   0  0  0  0  0  0  0  0  0  0  0  0
   62.1360   31.7130   48.0360 C   0  0  0  0  0  0  0  0  0  0  0  0
   63.4990   31.9110   47.6910 O   0  0  0  0  0  0  0  0  0  0  0  0
   63.7620   33.1780   47.0980 C   0  0  0  0  0  0  0  0  0  0  0  0
   62.5290   33.8430   46.4620 C   0  0  0  0  0  0  0  0  0  0  0  0
   57.1420   30.6190   44.8350 C   0  0  0  0  0  0  0  0  0  0  0  0
   56.2610   31.4980   44.6330 O   0  0  0  0  0  0  0  0  0  0  0  0
   56.8560   29.3250   44.5370 N   0  0  0  0  0  0  0  0  0  0  0  0
   57.4040   24.5630   44.7600 C   0  0  0  0  0  0  0  0  0  0  0  0
   57.3960   23.4580   45.6160 C   0  0  0  0  0  0  0  0  0  0  0  0
   56.5618   22.2990   49.7894 H   0  0  0  0  0  0  0  0  0  0  0  0
   55.4347   22.8787   48.5165 H   0  0  0  0  0  0  0  0  0  0  0  0
   55.9870   21.1695   48.5165 H   0  0  0  0  0  0  0  0  0  0  0  0
   57.3859   25.0962   48.6171 H   0  0  0  0  0  0  0  0  0  0  0  0
   57.3869   27.0641   47.0906 H   0  0  0  0  0  0  0  0  0  0  0  0
   57.1040   26.8150   43.3900 H   0  0  0  0  0  0  0  0  0  0  0  0
   59.7797   27.8655   45.3772 H   0  0  0  0  0  0  0  0  0  0  0  0
   59.7463   32.5321   45.6269 H   0  0  0  0  0  0  0  0  0  0  0  0
   58.1198   33.0130   44.9880 H   0  0  0  0  0  0  0  0  0  0  0  0
   57.1383   33.0254   47.0747 H   0  0  0  0  0  0  0  0  0  0  0  0
   58.3169   31.8097   47.7378 H   0  0  0  0  0  0  0  0  0  0  0  0
   58.3526   34.6843   47.9621 H   0  0  0  0  0  0  0  0  0  0  0  0
   59.4741   33.4333   48.6684 H   0  0  0  0  0  0  0  0  0  0  0  0
   60.1124   33.7847   45.8867 H   0  0  0  0  0  0  0  0  0  0  0  0
   60.0460   35.4034   46.6865 H   0  0  0  0  0  0  0  0  0  0  0  0
   61.9374   33.3635   49.4161 H   0  0  0  0  0  0  0  0  0  0  0  0
   60.3805   32.7585   48.7011 H   0  0  0  0  0  0  0  0  0  0  0  0
   62.0849   30.9708   48.8462 H   0  0  0  0  0  0  0  0  0  0  0  0
   61.6158   31.3715   47.1289 H   0  0  0  0  0  0  0  0  0  0  0  0
   64.1531   33.8492   47.8768 H   0  0  0  0  0  0  0  0  0  0  0  0
   64.4826   33.0040   46.2853 H   0  0  0  0  0  0  0  0  0  0  0  0
   62.8243   34.8082   46.0247 H   0  0  0  0  0  0  0  0  0  0  0  0
   62.1304   33.1773   45.6823 H   0  0  0  0  0  0  0  0  0  0  0  0
   57.3921   24.4095   43.6708 H   0  0  0  0  0  0  0  0  0  0  0  0
   57.3912   22.4408   45.1975 H   0  0  0  0  0  0  0  0  0  0  0  0
  1  2  1  0
  2  3  1  0
  3  4  2  0
  4  5  1  0
  5  6  2  0
  6  7  1  0
  7  8  1  0
  8  9  2  0
  9 10  1  0
 10 11  2  0
 10 12  1  0
 12 13  1  0
 13 14  1  0
 14 15  1  0
 15 16  1  0
 16 17  1  0
 17 18  1  0
 18 19  1  0
 19 20  1  0
 20 21  1  0
 21 22  1  0
 12 23  1  0
 23 24  2  0
 23 25  1  0
  6 26  1  0
 26 27  2  0
 27  3  1  0
 25  8  1  0
 22 17  1  0
  1 28  1  0
  1 29  1  0
  1 30  1  0
  4 31  1  0
  5 32  1  0
  7 33  1  0
  9 34  1  0
 13 35  1  0
 13 36  1  0
 14 37  1  0
 14 38  1  0
 15 39  1  0
 15 40  1  0
 16 41  1  0
 16 42  1  0
 18 43  1  0
 18 44  1  0
 19 45  1  0
 19 46  1  0
 21 47  1  0
 21 48  1  0
 22 49  1  0
 22 50  1  0
 26 51  1  0
 27 52  1  0
M  CHG  1  25  -1
M  END
>  <UniqueID>  (17) 
14

>  <SMILES>  (17) 
COc1ccc(Nc2cc(=O)n(CCCCN3CCOCC3)c(=O)[n-]2)cc1

>  <Energy>  (17) 
72.89060692481155

>  <Genealogy>  (17) 
COc1ccc(Nc2cc(=O)n(CCCCN3CCOCC3)c(=O)[n-]2)cc1 (protonated)
COc1ccc(Nc2cc(=O)n(CCCCN3CCOCC3)c(=O)[n-]2)cc1 (3D coordinates assigned)
COc1ccc(Nc2cc(=O)n(CCCCN3CCOCC3)c(=O)[n-]2)cc1 (nonaromatic ring conformer: 72.89060692481155 kcal/mol)

>  <smiles>  (17) 
COc1ccc(Nc2cc(=O)n(CCCCN3CCOCC3)c(=O)[nH]2)cc1

>  <score_type>  (17) 
oracle

>  <origin>  (17) 
adg

>  <m_score__min__energy>  (17) 
-10.109999999999999

>  <m_primary>  (17) 
energy

$$$$
17:0
     RDKit          3D

 46 48  0  0  0  0  0  0  0  0999 V2000
   60.7380   27.9470   48.1240 C   0  0  0  0  0  0  0  0  0  0  0  0
   59.5310   28.2190   47.2770 C   0  0  0  0  0  0  0  0  0  0  0  0
   58.5120   27.2650   47.1920 C   0  0  0  0  0  0  0  0  0  0  0  0
   57.3620   27.5180   46.4220 C   0  0  0  0  0  0  0  0  0  0  0  0
   56.3000   26.4730   46.3580 C   0  0  0  0  0  0  0  0  0  0  0  0
   55.1430   26.7690   45.9560 O   0  0  0  0  0  0  0  0  0  0  0  0
   56.5530   25.1570   46.7250 O   0  0  0  0  0  0  0  0  0  0  0  0
   57.2720   28.7560   45.7350 C   0  0  0  0  0  0  0  0  0  0  0  0
   56.1620   29.0760   44.8650 C   0  0  0  0  0  0  0  0  0  0  0  0
   55.2760   29.3260   44.1640 N   0  0  0  0  0  0  0  0  0  0  0  0
   58.3170   29.6880   45.8520 C   0  0  0  0  0  0  0  0  0  0  0  0
   58.2450   30.9040   45.1560 O   0  0  0  0  0  0  0  0  0  0  0  0
   58.5900   32.1520   45.7010 C   0  0  0  0  0  0  0  0  0  0  0  0
   57.7410   33.2420   45.4810 C   0  0  0  0  0  0  0  0  0  0  0  0
   58.0920   34.5140   45.9420 C   0  0  0  0  0  0  0  0  0  0  0  0
   59.3060   34.7100   46.6080 C   0  0  0  0  0  0  0  0  0  0  0  0
   60.1700   33.6320   46.8360 C   0  0  0  0  0  0  0  0  0  0  0  0
   61.4310   33.8780   47.4770 N   0  0  0  0  0  0  0  0  0  0  0  0
   62.7000   32.7110   47.6900 S   0  0  0  0  0  0  0  0  0  0  0  0
   62.1030   31.3350   47.7400 O   0  0  0  0  0  0  0  0  0  0  0  0
   63.6370   32.7980   46.5160 O   0  0  0  0  0  0  0  0  0  0  0  0
   63.5740   33.0050   49.1940 C   0  0  0  0  0  0  0  0  0  0  0  0
   63.0290   33.8580   50.1630 C   0  0  0  0  0  0  0  0  0  0  0  0
   63.7680   34.1920   51.3020 C   0  0  0  0  0  0  0  0  0  0  0  0
   65.0530   33.6620   51.4940 C   0  0  0  0  0  0  0  0  0  0  0  0
   65.8670   34.0730   52.6860 C   0  0  0  0  0  0  0  0  0  0  0  0
   65.5970   32.8050   50.5230 C   0  0  0  0  0  0  0  0  0  0  0  0
   66.8490   32.3010   50.6710 F   0  0  0  0  0  0  0  0  0  0  0  0
   64.8580   32.4760   49.3820 C   0  0  0  0  0  0  0  0  0  0  0  0
   59.7920   32.3490   46.4050 C   0  0  0  0  0  0  0  0  0  0  0  0
   59.3970   29.4120   46.6360 N   0  0  0  0  0  0  0  0  0  0  0  0
   60.4616   28.0093   49.1869 H   0  0  0  0  0  0  0  0  0  0  0  0
   61.1215   26.9399   47.9032 H   0  0  0  0  0  0  0  0  0  0  0  0
   61.5164   28.6923   47.9032 H   0  0  0  0  0  0  0  0  0  0  0  0
   58.6102   26.3109   47.7305 H   0  0  0  0  0  0  0  0  0  0  0  0
   56.7927   33.0973   44.9427 H   0  0  0  0  0  0  0  0  0  0  0  0
   57.4116   35.3631   45.7805 H   0  0  0  0  0  0  0  0  0  0  0  0
   59.5836   35.7164   46.9546 H   0  0  0  0  0  0  0  0  0  0  0  0
   62.0166   34.2661   50.0272 H   0  0  0  0  0  0  0  0  0  0  0  0
   63.3398   34.8738   52.0515 H   0  0  0  0  0  0  0  0  0  0  0  0
   65.3306   33.8022   53.6074 H   0  0  0  0  0  0  0  0  0  0  0  0
   66.8383   33.5573   52.6622 H   0  0  0  0  0  0  0  0  0  0  0  0
   66.0287   35.1608   52.6622 H   0  0  0  0  0  0  0  0  0  0  0  0
   65.2867   31.7988   48.6286 H   0  0  0  0  0  0  0  0  0  0  0  0
   60.4432   31.4891   46.6205 H   0  0  0  0  0  0  0  0  0  0  0  0
   60.1420   30.1380   46.7400 H   0  0  0  0  0  0  0  0  0  0  0  0
  1  2  1  0
  2  3  2  0
  3  4  1  0
  4  5  1  0
  5  6  2  0
  5  7  1  0
  4  8  2  0
  8  9  1  0
  9 10  3  0
  8 11  1  0
 11 12  1  0
 12 13  1  0
 13 14  2  0
 14 15  1  0
 15 16  2  0
 16 17  1  0
 17 18  1  0
 18 19  1  0
 19 20  2  0
 19 21  2  0
 19 22  1  0
 22 23  2  0
 23 24  1  0
 24 25  2  0
 25 26  1  0
 25 27  1  0
 27 28  1  0
 27 29  2  0
 17 30  2  0
 11 31  2  0
 31  2  1  0
 30 13  1  0
 29 22  1  0
  1 32  1  0
  1 33  1  0
  1 34  1  0
  3 35  1  0
 14 36  1  0
 15 37  1  0
 16 38  1  0
 23 39  1  0
 24 40  1  0
 26 41  1  0
 26 42  1  0
 26 43  1  0
 29 44  1  0
 30 45  1  0
 31 46  1  0
M  CHG  3   7  -1  18  -1  31   1
M  END
>  <UniqueID>  (18) 
15

>  <SMILES>  (18) 
Cc1cc(C(=O)[O-])c(C#N)c(Oc2cccc([N-]S(=O)(=O)c3ccc(C)c(F)c3)c2)[nH+]1

>  <Energy>  (18) 
56.97214897458317

>  <Genealogy>  (18) 
Cc1cc(C(=O)[O-])c(C#N)c(Oc2cccc([N-]S(=O)(=O)c3ccc(C)c(F)c3)c2)[nH+]1 (protonated)
Cc1cc(C(=O)[O-])c(C#N)c(Oc2cccc([N-]S(=O)(=O)c3ccc(C)c(F)c3)c2)[nH+]1 (3D coordinates assigned)
Cc1cc(C(=O)[O-])c(C#N)c(Oc2cccc([N-]S(=O)(=O)c3ccc(C)c(F)c3)c2)[nH+]1 (optimized conformer: 56.97214897458317 kcal/mol)

>  <smiles>  (18) 
Cc1cc(C(=O)O)c(C#N)c(Oc2cccc(NS(=O)(=O)c3ccc(C)c(F)c3)c2)n1

>  <score_type>  (18) 
oracle

>  <origin>  (18) 
adg

>  <m_score__min__energy>  (18) 
-10.869999999999999

>  <m_primary>  (18) 
energy

$$$$
18:0
     RDKit          3D

 65 68  0  0  0  0  0  0  0  0999 V2000
   67.3030   32.5570   50.8330 C   0  0  0  0  0  0  0  0  0  0  0  0
   65.8900   32.9810   50.5740 C   0  0  0  0  0  0  0  0  0  0  0  0
   65.1420   33.6080   51.5670 C   0  0  0  0  0  0  0  0  0  0  0  0
   63.8380   34.0110   51.2770 C   0  0  0  0  0  0  0  0  0  0  0  0
   63.1660   34.5780   52.1820 O   0  0  0  0  0  0  0  0  0  0  0  0
   63.3000   33.7940   50.0300 N   0  0  0  0  0  0  0  0  0  0  0  0
   61.9350   34.2720   49.7140 C   0  0  0  0  0  0  0  0  0  0  0  0
   60.8900   33.2500   50.0870 C   0  0  0  0  0  0  0  0  0  0  0  0
   61.2280   32.1670   50.9170 C   0  0  0  0  0  0  0  0  0  0  0  0
   60.2590   31.2290   51.2860 C   0  0  0  0  0  0  0  0  0  0  0  0
   58.9390   31.3630   50.8320 C   0  0  0  0  0  0  0  0  0  0  0  0
   57.9140   30.3880   51.2460 C   0  0  0  0  0  0  0  0  0  0  0  0
   58.2710   29.2310   51.6040 O   0  0  0  0  0  0  0  0  0  0  0  0
   56.5220   30.7210   51.2620 N   0  0  0  0  0  0  0  0  0  0  0  0
   55.7490   30.9600   52.4740 C   0  0  0  0  0  0  0  0  0  0  0  0
   54.3430   30.4840   52.2670 C   0  0  0  0  0  0  0  0  0  0  0  0
   53.8490   29.3790   52.9850 C   0  0  0  0  0  0  0  0  0  0  0  0
   52.5540   28.9060   52.7470 C   0  0  0  0  0  0  0  0  0  0  0  0
   51.7470   29.5320   51.7890 C   0  0  0  0  0  0  0  0  0  0  0  0
   52.2340   30.6230   51.0600 C   0  0  0  0  0  0  0  0  0  0  0  0
   53.5300   31.0940   51.2960 C   0  0  0  0  0  0  0  0  0  0  0  0
   58.6130   32.4100   49.9550 C   0  0  0  0  0  0  0  0  0  0  0  0
   59.5820   33.3440   49.5810 C   0  0  0  0  0  0  0  0  0  0  0  0
   64.0560   33.1480   49.0770 C   0  0  0  0  0  0  0  0  0  0  0  0
   63.4180   32.7780   47.4330 S   0  0  0  0  0  0  0  0  0  0  0  0
   62.6130   31.2200   47.9450 C   0  0  0  0  0  0  0  0  0  0  0  0
   61.2540   31.1380   47.3340 C   0  0  0  0  0  0  0  0  0  0  0  0
   60.5820   30.0800   47.4670 O   0  0  0  0  0  0  0  0  0  0  0  0
   60.7570   32.2250   46.5400 N   0  0  0  0  0  0  0  0  0  0  0  0
   59.3970   32.3370   46.0780 C   0  0  0  0  0  0  0  0  0  0  0  0
   58.6780   33.5420   46.2020 C   0  0  0  0  0  0  0  0  0  0  0  0
   57.3540   33.6210   45.7400 C   0  0  0  0  0  0  0  0  0  0  0  0
   56.7490   32.5130   45.1370 C   0  0  0  0  0  0  0  0  0  0  0  0
   57.4710   31.3250   44.9720 C   0  0  0  0  0  0  0  0  0  0  0  0
   56.7010   29.9400   44.2020 S   0  0  0  0  0  0  0  0  0  0  0  0
   55.4680   29.3170   45.2350 N   0  0  0  0  0  0  0  0  0  0  0  0
   57.7140   28.8570   43.9390 O   0  0  0  0  0  0  0  0  0  0  0  0
   56.0920   30.3680   42.8960 O   0  0  0  0  0  0  0  0  0  0  0  0
   58.7930   31.2410   45.4430 C   0  0  0  0  0  0  0  0  0  0  0  0
   65.3330   32.7730   49.3550 N   0  0  0  0  0  0  0  0  0  0  0  0
   67.4771   32.5047   51.9179 H   0  0  0  0  0  0  0  0  0  0  0  0
   67.4767   31.5672   50.3857 H   0  0  0  0  0  0  0  0  0  0  0  0
   67.9929   33.2877   50.3857 H   0  0  0  0  0  0  0  0  0  0  0  0
   65.5722   33.7828   52.5642 H   0  0  0  0  0  0  0  0  0  0  0  0
   61.7430   35.1997   50.2731 H   0  0  0  0  0  0  0  0  0  0  0  0
   61.8737   34.4477   48.6299 H   0  0  0  0  0  0  0  0  0  0  0  0
   62.2611   32.0568   51.2784 H   0  0  0  0  0  0  0  0  0  0  0  0
   60.5329   30.3836   51.9343 H   0  0  0  0  0  0  0  0  0  0  0  0
   56.2026   30.4121   53.3131 H   0  0  0  0  0  0  0  0  0  0  0  0
   55.7438   32.0362   52.7014 H   0  0  0  0  0  0  0  0  0  0  0  0
   54.4833   28.8854   53.7360 H   0  0  0  0  0  0  0  0  0  0  0  0
   52.1703   28.0435   53.3117 H   0  0  0  0  0  0  0  0  0  0  0  0
   50.7259   29.1647   51.6086 H   0  0  0  0  0  0  0  0  0  0  0  0
   51.5997   31.1086   50.3038 H   0  0  0  0  0  0  0  0  0  0  0  0
   53.9152   31.9470   50.7181 H   0  0  0  0  0  0  0  0  0  0  0  0
   57.5897   32.4951   49.5606 H   0  0  0  0  0  0  0  0  0  0  0  0
   59.3203   34.1567   48.8874 H   0  0  0  0  0  0  0  0  0  0  0  0
   63.2188   30.3661   47.6076 H   0  0  0  0  0  0  0  0  0  0  0  0
   62.5242   31.1962   49.0412 H   0  0  0  0  0  0  0  0  0  0  0  0
   61.4510   32.9080   46.1760 H   0  0  0  0  0  0  0  0  0  0  0  0
   59.1536   34.4214   46.6608 H   0  0  0  0  0  0  0  0  0  0  0  0
   56.7900   34.5586   45.8528 H   0  0  0  0  0  0  0  0  0  0  0  0
   55.7062   32.5753   44.7926 H   0  0  0  0  0  0  0  0  0  0  0  0
   54.5750   29.3390   44.6870 H   0  0  0  0  0  0  0  0  0  0  0  0
   59.3594   30.3071   45.3125 H   0  0  0  0  0  0  0  0  0  0  0  0
  1  2  1  0
  2  3  2  0
  3  4  1  0
  4  5  2  0
  4  6  1  0
  6  7  1  0
  7  8  1  0
  8  9  2  0
  9 10  1  0
 10 11  2  0
 11 12  1  0
 12 13  2  0
 12 14  1  0
 14 15  1  0
 15 16  1  0
 16 17  2  0
 17 18  1  0
 18 19  2  0
 19 20  1  0
 20 21  2  0
 11 22  1  0
 22 23  2  0
  6 24  1  0
 24 25  1  0
 25 26  1  0
 26 27  1  0
 27 28  2  0
 27 29  1  0
 29 30  1  0
 30 31  2  0
 31 32  1  0
 32 33  2  0
 33 34  1  0
 34 35  1  0
 35 36  1  0
 35 37  2  0
 35 38  2  0
 34 39  2  0
 24 40  2  0
 40  2  1  0
 23  8  1  0
 39 30  1  0
 21 16  1  0
  1 41  1  0
  1 42  1  0
  1 43  1  0
  3 44  1  0
  7 45  1  0
  7 46  1  0
  9 47  1  0
 10 48  1  0
 15 49  1  0
 15 50  1  0
 17 51  1  0
 18 52  1  0
 19 53  1  0
 20 54  1  0
 21 55  1  0
 22 56  1  0
 23 57  1  0
 26 58  1  0
 26 59  1  0
 29 60  1  0
 31 61  1  0
 32 62  1  0
 33 63  1  0
 36 64  1  0
 39 65  1  0
M  CHG  2  14  -1  36  -1
M  END
>  <UniqueID>  (19) 
16

>  <SMILES>  (19) 
Cc1cc(=O)n(Cc2ccc(C(=O)[N-]Cc3ccccc3)cc2)c(SCC(=O)Nc2cccc(S([NH-])(=O)=O)c2)n1

>  <Energy>  (19) 
70.38697218501453

>  <Genealogy>  (19) 
Cc1cc(=O)n(Cc2ccc(C(=O)[N-]Cc3ccccc3)cc2)c(SCC(=O)Nc2cccc(S([NH-])(=O)=O)c2)n1 (protonated)
Cc1cc(=O)n(Cc2ccc(C(=O)[N-]Cc3ccccc3)cc2)c(SCC(=O)Nc2cccc(S([NH-])(=O)=O)c2)n1 (3D coordinates assigned)
Cc1cc(=O)n(Cc2ccc(C(=O)[N-]Cc3ccccc3)cc2)c(SCC(=O)Nc2cccc(S([NH-])(=O)=O)c2)n1 (optimized conformer: 70.38697218501453 kcal/mol)

>  <smiles>  (19) 
Cc1cc(=O)n(Cc2ccc(C(=O)NCc3ccccc3)cc2)c(SCC(=O)Nc2cccc(S(N)(=O)=O)c2)n1

>  <score_type>  (19) 
oracle

>  <origin>  (19) 
adg

>  <m_score__min__energy>  (19) 
-14.57

>  <m_primary>  (19) 
energy

$$$$
19:0
     RDKit          3D

 35 37  0  0  0  0  0  0  0  0999 V2000
   55.3150   28.6120   45.6130 H   0  0  0  0  0  0  0  0  0  0  0  0
   55.5180   29.3670   44.9200 N   0  0  0  0  0  0  0  0  0  0  0  0
   57.2370   29.4530   44.7590 S   0  0  0  0  0  0  0  0  0  0  0  0
   57.5880   30.0020   43.4050 O   0  0  0  0  0  0  0  0  0  0  0  0
   57.8200   28.0740   44.8860 O   0  0  0  0  0  0  0  0  0  0  0  0
   57.8930   30.4970   46.0150 C   0  0  0  0  0  0  0  0  0  0  0  0
   58.1380   31.8510   45.7480 C   0  0  0  0  0  0  0  0  0  0  0  0
   57.9193   32.2621   44.7514 H   0  0  0  0  0  0  0  0  0  0  0  0
   58.6590   32.6790   46.7440 C   0  0  0  0  0  0  0  0  0  0  0  0
   58.8615   33.7381   46.5264 H   0  0  0  0  0  0  0  0  0  0  0  0
   58.9240   32.1660   48.0170 C   0  0  0  0  0  0  0  0  0  0  0  0
   59.3539   32.8173   48.7922 H   0  0  0  0  0  0  0  0  0  0  0  0
   58.6420   30.8170   48.3100 C   0  0  0  0  0  0  0  0  0  0  0  0
   58.8970   30.2470   49.6060 N   0  0  0  0  0  0  0  0  0  0  0  0
   58.3330   30.5900   50.7280 C   0  0  0  0  0  0  0  0  0  0  0  0
   58.9820   31.4330   51.5700 N   0  0  0  0  0  0  0  0  0  0  0  0
   58.4210   31.7760   52.7580 C   0  0  0  0  0  0  0  0  0  0  0  0
   58.9466   32.4660   53.4346 H   0  0  0  0  0  0  0  0  0  0  0  0
   57.2130   31.2690   53.1120 N   0  0  0  0  0  0  0  0  0  0  0  0
   56.5630   30.4130   52.2820 C   0  0  0  0  0  0  0  0  0  0  0  0
   55.3920   29.9600   52.6230 N   0  0  0  0  0  0  0  0  0  0  0  0
   54.1250   30.6070   52.4010 C   0  0  0  0  0  0  0  0  0  0  0  0
   53.8500   31.1290   51.1300 C   0  0  0  0  0  0  0  0  0  0  0  0
   54.5964   31.0338   50.3276 H   0  0  0  0  0  0  0  0  0  0  0  0
   52.6340   31.7700   50.8740 C   0  0  0  0  0  0  0  0  0  0  0  0
   52.4208   32.1622   49.8687 H   0  0  0  0  0  0  0  0  0  0  0  0
   51.6890   31.9130   51.8940 C   0  0  0  0  0  0  0  0  0  0  0  0
   50.4790   32.5460   51.6380 O   0  0  0  0  0  0  0  0  0  0  0  0
   51.9660   31.4240   53.1750 C   0  0  0  0  0  0  0  0  0  0  0  0
   51.2254   31.5419   53.9798 H   0  0  0  0  0  0  0  0  0  0  0  0
   53.1820   30.7860   53.4340 C   0  0  0  0  0  0  0  0  0  0  0  0
   53.4045   30.4219   54.4479 H   0  0  0  0  0  0  0  0  0  0  0  0
   57.1280   30.0820   51.0920 N   0  0  0  0  0  0  0  0  0  0  0  0
   58.1500   29.9850   47.2950 C   0  0  0  0  0  0  0  0  0  0  0  0
   57.9639   28.9212   47.5042 H   0  0  0  0  0  0  0  0  0  0  0  0
  1  2  1  0
  2  3  1  0
  3  4  2  0
  3  5  2  0
  3  6  1  0
  6  7  2  0
  7  8  1  0
  7  9  1  0
  9 10  1  0
  9 11  2  0
 11 12  1  0
 11 13  1  0
 13 14  1  0
 14 15  2  0
 15 16  1  0
 16 17  2  0
 17 18  1  0
 17 19  1  0
 19 20  1  0
 20 21  2  3
 21 22  1  0
 22 23  2  0
 23 24  1  0
 23 25  1  0
 25 26  1  0
 25 27  2  0
 27 28  1  0
 27 29  1  0
 29 30  1  0
 29 31  2  0
 31 32  1  0
 20 33  1  0
 13 34  2  0
 34 35  1  0
 34  6  1  0
 33 15  1  0
 31 22  1  0
M  CHG  4   2  -1  19  -1  28  -1  33  -1
M  END
>  <UniqueID>  (20) 
17

>  <SMILES>  (20) 
[NH-]S(=O)(=O)c1cccc(/N=c2/nc[n-]c(=Nc3ccc([O-])cc3)[n-]2)c1

>  <Energy>  (20) 
49.646586097255565

>  <Genealogy>  (20) 
[NH-]S(=O)(=O)c1cccc(N=c2nc[n-]c(=Nc3ccc([O-])cc3)[n-]2)c1 (protonated)
[NH-]S(=O)(=O)c1cccc(/N=c2/nc[n-]c(=Nc3ccc([O-])cc3)[n-]2)c1 (cis-trans isomerization)
[NH-]S(=O)(=O)c1cccc(/N=c2/nc[n-]c(=Nc3ccc([O-])cc3)[n-]2)c1 (3D coordinates assigned)
[NH-]S(=O)(=O)c1cccc(/N=c2/nc[n-]c(=Nc3ccc([O-])cc3)[n-]2)c1 (optimized conformer: 49.646586097255565 kcal/mol)

>  <smiles>  (20) 
NS(=O)(=O)c1cccc(N=c2nc[nH]c(=Nc3ccc(O)cc3)[nH]2)c1

>  <score_type>  (20) 
oracle

>  <origin>  (20) 
adg

>  <m_score__min__energy>  (20) 
-15.77

>  <m_primary>  (20) 
energy

$$$$
20:0
     RDKit          3D

 46 49  0  0  0  0  0  0  0  0999 V2000
   54.7240   27.0900   46.7220 H   0  0  0  0  0  0  0  0  0  0  0  0
   55.3840   26.7260   46.0000 N   0  0  0  0  0  0  0  0  0  0  0  0
   56.7320   27.1880   45.9390 C   0  0  0  0  0  0  0  0  0  0  0  0
   57.6750   26.3910   46.1950 O   0  0  0  0  0  0  0  0  0  0  0  0
   57.0280   28.5710   45.5120 C   0  0  0  0  0  0  0  0  0  0  0  0
   56.0770   29.1920   44.6890 C   0  0  0  0  0  0  0  0  0  0  0  0
   55.2812   28.5891   44.2273 H   0  0  0  0  0  0  0  0  0  0  0  0
   56.1270   30.5260   44.4560 N   0  0  0  0  0  0  0  0  0  0  0  0
   57.0860   31.3150   44.9990 C   0  0  0  0  0  0  0  0  0  0  0  0
   57.0700   32.6900   44.7430 C   0  0  0  0  0  0  0  0  0  0  0  0
   56.2801   33.1205   44.1100 H   0  0  0  0  0  0  0  0  0  0  0  0
   58.0530   33.5180   45.2880 C   0  0  0  0  0  0  0  0  0  0  0  0
   58.0335   34.5989   45.0847 H   0  0  0  0  0  0  0  0  0  0  0  0
   59.0630   32.9780   46.0920 C   0  0  0  0  0  0  0  0  0  0  0  0
   60.3220   34.0080   46.7640 S   0  0  0  0  0  0  0  0  0  0  0  0
   61.5970   33.8800   45.9780 O   0  0  0  0  0  0  0  0  0  0  0  0
   59.8640   35.4380   46.7090 O   0  0  0  0  0  0  0  0  0  0  0  0
   60.6190   33.5680   48.4140 N   0  0  0  0  0  0  0  0  0  0  0  0
   61.6850   32.9360   48.7980 C   0  0  0  0  0  0  0  0  0  0  0  0
   61.6670   31.7630   49.4670 N   0  0  0  0  0  0  0  0  0  0  0  0
   62.9270   31.3310   49.7430 C   0  0  0  0  0  0  0  0  0  0  0  0
   63.1251   30.3923   50.2811 H   0  0  0  0  0  0  0  0  0  0  0  0
   63.9470   32.1650   49.2940 C   0  0  0  0  0  0  0  0  0  0  0  0
   65.0256   31.9907   49.4214 H   0  0  0  0  0  0  0  0  0  0  0  0
   63.2450   33.4870   48.5220 S   0  0  0  0  0  0  0  0  0  0  0  0
   59.0880   31.6010   46.3460 C   0  0  0  0  0  0  0  0  0  0  0  0
   59.8883   31.1776   46.9707 H   0  0  0  0  0  0  0  0  0  0  0  0
   58.0970   30.7500   45.8090 C   0  0  0  0  0  0  0  0  0  0  0  0
   58.1130   29.3490   46.0220 C   0  0  0  0  0  0  0  0  0  0  0  0
   59.1430   28.8350   46.6500 N   0  0  0  0  0  0  0  0  0  0  0  0
   59.5170   28.9300   48.0320 C   0  0  0  0  0  0  0  0  0  0  0  0
   60.4370   28.0180   48.5550 C   0  0  0  0  0  0  0  0  0  0  0  0
   60.8916   27.2613   47.8987 H   0  0  0  0  0  0  0  0  0  0  0  0
   60.7820   28.0630   49.9080 C   0  0  0  0  0  0  0  0  0  0  0  0
   61.5278   27.3582   50.3044 H   0  0  0  0  0  0  0  0  0  0  0  0
   60.1850   29.0000   50.7660 C   0  0  0  0  0  0  0  0  0  0  0  0
   60.6650   29.0420   52.4680 S   0  0  0  0  0  0  0  0  0  0  0  0
   59.4960   28.6790   53.3420 O   0  0  0  0  0  0  0  0  0  0  0  0
   61.1230   30.4250   52.8390 O   0  0  0  0  0  0  0  0  0  0  0  0
   61.9420   27.9100   52.7460 N   0  0  0  0  0  0  0  0  0  0  0  0
   62.7100   28.1460   52.0770 H   0  0  0  0  0  0  0  0  0  0  0  0
   62.3120   28.0870   53.7060 H   0  0  0  0  0  0  0  0  0  0  0  0
   59.2230   29.8940   50.2460 C   0  0  0  0  0  0  0  0  0  0  0  0
   58.4200   31.0970   51.2500 Cl  0  0  0  0  0  0  0  0  0  0  0  0
   58.8830   29.8410   48.8890 C   0  0  0  0  0  0  0  0  0  0  0  0
   58.1129   30.5189   48.4922 H   0  0  0  0  0  0  0  0  0  0  0  0
  1  2  1  0
  2  3  1  0
  3  4  2  0
  3  5  1  0
  5  6  2  0
  6  7  1  0
  6  8  1  0
  8  9  1  0
  9 10  2  0
 10 11  1  0
 10 12  1  0
 12 13  1  0
 12 14  2  0
 14 15  1  0
 15 16  2  0
 15 17  2  0
 15 18  1  0
 18 19  2  3
 19 20  1  0
 20 21  1  0
 21 22  1  0
 21 23  2  0
 23 24  1  0
 23 25  1  0
 14 26  1  0
 26 27  1  0
 26 28  2  0
 28 29  1  0
 29 30  2  0
 30 31  1  0
 31 32  2  0
 32 33  1  0
 32 34  1  0
 34 35  1  0
 34 36  2  0
 36 37  1  0
 37 38  2  0
 37 39  2  0
 37 40  1  0
 40 41  1  0
 40 42  1  0
 36 43  1  0
 43 44  1  0
 43 45  2  0
 45 46  1  0
 29  5  1  0
 45 31  1  0
 28  9  1  0
 25 19  1  0
M  CHG  3   2  -1   8  -1  20  -1
M  END
>  <UniqueID>  (21) 
18

>  <SMILES>  (21) 
[NH-]C(=O)c1c[n-]c2ccc(S(=O)(=O)N=c3[n-]ccs3)cc2/c1=N/c1ccc(S(N)(=O)=O)c(Cl)c1

>  <Energy>  (21) 
109.43146051473742

>  <Genealogy>  (21) 
[NH-]C(=O)c1c[n-]c2ccc(S(=O)(=O)N=c3[n-]ccs3)cc2c1=Nc1ccc(S(N)(=O)=O)c(Cl)c1 (protonated)
[NH-]C(=O)c1c[n-]c2ccc(S(=O)(=O)N=c3[n-]ccs3)cc2/c1=N/c1ccc(S(N)(=O)=O)c(Cl)c1 (cis-trans isomerization)
[NH-]C(=O)c1c[n-]c2ccc(S(=O)(=O)N=c3[n-]ccs3)cc2/c1=N/c1ccc(S(N)(=O)=O)c(Cl)c1 (3D coordinates assigned)
[NH-]C(=O)c1c[n-]c2ccc(S(=O)(=O)N=c3[n-]ccs3)cc2/c1=N/c1ccc(S(N)(=O)=O)c(Cl)c1 (optimized conformer: 109.43146051473742 kcal/mol)

>  <smiles>  (21) 
NC(=O)c1c[nH]c2ccc(S(=O)(=O)N=c3[nH]ccs3)cc2c1=Nc1ccc(S(N)(=O)=O)c(Cl)c1

>  <score_type>  (21) 
oracle

>  <origin>  (21) 
adg

>  <m_score__min__energy>  (21) 
-14.050000000000001

>  <m_primary>  (21) 
energy

$$$$
21:0
     RDKit          3D

 47 50  0  0  1  0  0  0  0  0999 V2000
   56.8780   29.1840   42.9750 N   0  0  0  0  0  0  0  0  0  0  0  0
   56.6450   29.5930   44.6380 S   0  0  0  0  0  0  0  0  0  0  0  0
   55.1460   29.5710   44.8690 O   0  0  0  0  0  0  0  0  0  0  0  0
   57.1220   30.9650   44.9700 O   0  0  0  0  0  0  0  0  0  0  0  0
   57.4340   28.4310   45.6850 C   0  0  0  0  0  0  0  0  0  0  0  0
   57.0930   27.0850   45.6540 C   0  0  0  0  0  0  0  0  0  0  0  0
   57.7400   26.1780   46.5010 C   0  0  0  0  0  0  0  0  0  0  0  0
   58.7270   26.6170   47.3790 C   0  0  0  0  0  0  0  0  0  0  0  0
   59.0650   27.9610   47.4070 C   0  0  0  0  0  0  0  0  0  0  0  0
   60.0910   28.3850   48.3280 N   0  0  0  0  0  0  0  0  0  0  0  0
   59.9780   29.5740   48.8280 C   0  0  0  0  0  0  0  0  0  0  0  0
   60.6340   30.6250   48.3120 N   0  0  0  0  0  0  0  0  0  0  0  0
   60.5500   31.8820   48.7960 C   0  0  0  0  0  0  0  0  0  0  0  0
   61.1630   32.7870   48.2480 N   0  0  0  0  0  0  0  0  0  0  0  0
   61.0490   33.4080   47.0240 C   0  0  0  0  0  0  0  0  0  0  0  0
   59.6780   33.5630   46.4630 C   0  0  0  0  0  0  0  0  0  0  0  0
   58.5340   33.3200   47.2100 C   0  0  0  0  0  0  0  0  0  0  0  0
   57.2560   33.4790   46.6660 C   0  0  0  0  0  0  0  0  0  0  0  0
   57.0650   33.8820   45.3690 C   0  0  0  0  0  0  0  0  0  0  0  0
   58.1870   34.1270   44.6140 C   0  0  0  0  0  0  0  0  0  0  0  0
   59.4370   33.9680   45.1550 C   0  0  0  0  0  0  0  0  0  0  0  0
   59.7520   32.1070   49.8810 C   0  0  0  0  0  0  0  0  0  0  0  0
   59.6560   33.3580   50.3940 C   0  0  0  0  0  0  0  0  0  0  0  0
   58.8070   33.4910   51.5220 C   0  0  0  0  0  0  0  0  0  0  0  0
   58.1860   32.4210   51.9840 N   0  0  0  0  0  0  0  0  0  0  0  0
   58.2720   31.1780   51.4880 C   0  0  0  0  0  0  0  0  0  0  0  0
   57.4180   29.8390   52.1670 Cl  0  0  0  0  0  0  0  0  0  0  0  0
   59.0870   31.0110   50.3940 C   0  0  0  0  0  0  0  0  0  0  0  0
   59.1870   29.7700   49.8930 N   0  0  0  0  0  0  0  0  0  0  0  0
   58.4270   28.8550   46.5710 C   0  0  0  0  0  0  0  0  0  0  0  0
   56.6350   28.1770   42.8100 H   0  0  0  0  0  0  0  0  0  0  0  0
   57.8650   29.3800   42.7000 H   0  0  0  0  0  0  0  0  0  0  0  0
   56.3136   26.7315   44.9630 H   0  0  0  0  0  0  0  0  0  0  0  0
   57.4672   25.1127   46.4728 H   0  0  0  0  0  0  0  0  0  0  0  0
   59.2344   25.9034   48.0449 H   0  0  0  0  0  0  0  0  0  0  0  0
   61.2380   30.4250   47.4830 H   0  0  0  0  0  0  0  0  0  0  0  0
   61.4818   34.4145   47.1223 H   0  0  0  0  0  0  0  0  0  0  0  0
   61.5694   32.7425   46.3195 H   0  0  0  0  0  0  0  0  0  0  0  0
   58.6352   32.9943   48.2558 H   0  0  0  0  0  0  0  0  0  0  0  0
   56.3781   33.2749   47.2966 H   0  0  0  0  0  0  0  0  0  0  0  0
   56.0552   34.0041   44.9502 H   0  0  0  0  0  0  0  0  0  0  0  0
   58.0816   34.4528   43.5687 H   0  0  0  0  0  0  0  0  0  0  0  0
   60.3055   34.1743   44.5123 H   0  0  0  0  0  0  0  0  0  0  0  0
   60.1999   34.2122   49.9644 H   0  0  0  0  0  0  0  0  0  0  0  0
   58.6679   34.4697   52.0044 H   0  0  0  0  0  0  0  0  0  0  0  0
   58.6650   28.9800   50.3160 H   0  0  0  0  0  0  0  0  0  0  0  0
   58.7051   29.9188   46.6031 H   0  0  0  0  0  0  0  0  0  0  0  0
  1  2  1  0
  2  3  2  0
  2  4  2  0
  2  5  1  0
  5  6  2  0
  6  7  1  0
  7  8  2  0
  8  9  1  0
  9 10  1  0
 10 11  2  0
 11 12  1  0
 12 13  1  0
 13 14  2  0
 14 15  1  0
 15 16  1  0
 16 17  2  0
 17 18  1  0
 18 19  2  0
 19 20  1  0
 20 21  2  0
 13 22  1  0
 22 23  2  0
 23 24  1  0
 24 25  2  0
 25 26  1  0
 26 27  1  0
 26 28  2  0
 28 29  1  0
  9 30  2  0
 30  5  1  0
 29 11  1  0
 21 16  1  0
 28 22  1  0
  1 31  1  0
  1 32  1  0
  6 33  1  0
  7 34  1  0
  8 35  1  0
 12 36  1  0
 15 37  1  0
 15 38  1  0
 17 39  1  0
 18 40  1  0
 19 41  1  0
 20 42  1  0
 21 43  1  0
 23 44  1  0
 24 45  1  0
 29 46  1  0
 30 47  1  0
M  END
>  <smiles>  (22) 
NS(=O)(=O)c1cccc(N=c2[nH]c(=NCc3ccccc3)c3ccnc(Cl)c3[nH]2)c1

>  <score_type>  (22) 
oracle

>  <origin>  (22) 
adg

>  <m_score__min__energy>  (22) 
-10.35

>  <m_primary>  (22) 
energy

$$$$
22:0
     RDKit          3D

 39 41  0  0  0  0  0  0  0  0999 V2000
   65.6035   33.0418   51.8074 H   0  0  0  0  0  0  0  0  0  0  0  0
   64.9770   33.1600   50.9110 C   0  0  0  0  0  0  0  0  0  0  0  0
   63.4240   33.8110   50.8670 S   0  0  0  0  0  0  0  0  0  0  0  0
   63.2660   33.6050   49.2010 C   0  0  0  0  0  0  0  0  0  0  0  0
   62.2250   33.8940   48.4740 N   0  0  0  0  0  0  0  0  0  0  0  0
   62.0170   33.6110   47.0780 C   0  0  0  0  0  0  0  0  0  0  0  0
   62.9480   33.7700   46.2420 O   0  0  0  0  0  0  0  0  0  0  0  0
   60.6900   33.1380   46.6150 C   0  0  0  0  0  0  0  0  0  0  0  0
   60.1030   31.9880   47.1800 C   0  0  0  0  0  0  0  0  0  0  0  0
   60.6258   31.4451   47.9812 H   0  0  0  0  0  0  0  0  0  0  0  0
   58.8610   31.5330   46.7290 C   0  0  0  0  0  0  0  0  0  0  0  0
   58.4126   30.6334   47.1758 H   0  0  0  0  0  0  0  0  0  0  0  0
   58.1830   32.2180   45.7090 C   0  0  0  0  0  0  0  0  0  0  0  0
   56.9090   31.7730   45.2300 N   0  0  0  0  0  0  0  0  0  0  0  0
   56.6430   30.2170   44.5080 S   0  0  0  0  0  0  0  0  0  0  0  0
   55.2620   29.7420   44.8690 O   0  0  0  0  0  0  0  0  0  0  0  0
   56.7160   30.3520   43.0100 O   0  0  0  0  0  0  0  0  0  0  0  0
   57.8100   29.0250   45.0750 C   0  0  0  0  0  0  0  0  0  0  0  0
   59.1650   29.1610   44.7450 C   0  0  0  0  0  0  0  0  0  0  0  0
   59.5004   30.0225   44.1490 H   0  0  0  0  0  0  0  0  0  0  0  0
   60.0920   28.2050   45.1710 C   0  0  0  0  0  0  0  0  0  0  0  0
   61.1558   28.3255   44.9184 H   0  0  0  0  0  0  0  0  0  0  0  0
   59.6750   27.0920   45.9190 C   0  0  0  0  0  0  0  0  0  0  0  0
   60.6800   26.0620   46.3610 C   0  0  0  0  0  0  0  0  0  0  0  0
   60.7121   26.0291   47.4600 H   0  0  0  0  0  0  0  0  0  0  0  0
   60.3883   25.0749   45.9730 H   0  0  0  0  0  0  0  0  0  0  0  0
   61.6739   26.3294   45.9730 H   0  0  0  0  0  0  0  0  0  0  0  0
   58.3100   26.9550   46.2490 C   0  0  0  0  0  0  0  0  0  0  0  0
   57.7190   25.5790   47.1770 Cl  0  0  0  0  0  0  0  0  0  0  0  0
   57.3870   27.9210   45.8280 C   0  0  0  0  0  0  0  0  0  0  0  0
   56.3241   27.8125   46.0898 H   0  0  0  0  0  0  0  0  0  0  0  0
   58.7420   33.3860   45.1750 C   0  0  0  0  0  0  0  0  0  0  0  0
   58.1957   33.9511   44.4055 H   0  0  0  0  0  0  0  0  0  0  0  0
   59.9900   33.8380   45.6140 C   0  0  0  0  0  0  0  0  0  0  0  0
   60.4278   34.7464   45.1745 H   0  0  0  0  0  0  0  0  0  0  0  0
   64.3770   33.0480   48.6750 N   0  0  0  0  0  0  0  0  0  0  0  0
   64.4910   32.8110   47.6630 H   0  0  0  0  0  0  0  0  0  0  0  0
   65.3280   32.7980   49.6140 C   0  0  0  0  0  0  0  0  0  0  0  0
   66.2995   32.3447   49.3676 H   0  0  0  0  0  0  0  0  0  0  0  0
  1  2  1  0
  2  3  1  0
  3  4  1  0
  4  5  2  0
  5  6  1  0
  6  7  2  0
  6  8  1  0
  8  9  2  0
  9 10  1  0
  9 11  1  0
 11 12  1  0
 11 13  2  0
 13 14  1  0
 14 15  1  0
 15 16  2  0
 15 17  2  0
 15 18  1  0
 18 19  2  0
 19 20  1  0
 19 21  1  0
 21 22  1  0
 21 23  2  0
 23 24  1  0
 24 25  1  0
 24 26  1  0
 24 27  1  0
 23 28  1  0
 28 29  1  0
 28 30  2  0
 30 31  1  0
 13 32  1  0
 32 33  1  0
 32 34  2  0
 34 35  1  0
  4 36  1  0
 36 37  1  0
 36 38  1  0
 38 39  1  0
 38  2  2  0
 34  8  1  0
 30 18  1  0
M  CHG  1  14  -1
M  END
>  <UniqueID>  (23) 
19

>  <SMILES>  (23) 
Cc1ccc(S(=O)(=O)[N-]c2ccc(C(=O)/N=c3/[nH]ccs3)cc2)cc1Cl

>  <Energy>  (23) 
84.18370915232931

>  <Genealogy>  (23) 
Cc1ccc(S(=O)(=O)[N-]c2ccc(C(=O)N=c3[nH]ccs3)cc2)cc1Cl (protonated)
Cc1ccc(S(=O)(=O)[N-]c2ccc(C(=O)/N=c3/[nH]ccs3)cc2)cc1Cl (cis-trans isomerization)
Cc1ccc(S(=O)(=O)[N-]c2ccc(C(=O)/N=c3/[nH]ccs3)cc2)cc1Cl (3D coordinates assigned)
Cc1ccc(S(=O)(=O)[N-]c2ccc(C(=O)/N=c3/[nH]ccs3)cc2)cc1Cl (optimized conformer: 84.18370915232931 kcal/mol)

>  <smiles>  (23) 
Cc1ccc(S(=O)(=O)Nc2ccc(C(=O)N=c3[nH]ccs3)cc2)cc1Cl

>  <score_type>  (23) 
oracle

>  <origin>  (23) 
adg

>  <m_score__min__energy>  (23) 
-10.4

>  <m_primary>  (23) 
energy

$$$$
23:0
     RDKit          3D

 27 28  0  0  1  0  0  0  0  0999 V2000
   56.6310   31.9290   45.2280 O   0  0  0  0  0  0  0  0  0  0  0  0
   57.4570   32.5190   44.4730 C   0  0  0  0  0  0  0  0  0  0  0  0
   58.1990   33.6620   44.8830 N   0  0  0  0  0  0  0  0  0  0  0  0
   58.7620   33.7390   46.0410 C   0  0  0  0  0  0  0  0  0  0  0  0
   59.9110   34.5010   46.2360 C   0  0  0  0  0  0  0  0  0  0  0  0
   60.4920   34.5640   47.4850 C   0  0  0  0  0  0  0  0  0  0  0  0
   59.9130   33.8660   48.5170 C   0  0  0  0  0  0  0  0  0  0  0  0
   58.7720   33.1160   48.3010 C   0  0  0  0  0  0  0  0  0  0  0  0
   58.2170   33.0620   47.0840 N   0  0  0  0  0  0  0  0  0  0  0  0
   57.6540   32.0180   43.1540 N   0  0  0  0  0  0  0  0  0  0  0  0
   56.9500   30.8600   42.6380 C   0  0  0  0  0  0  0  0  0  0  0  0
   56.8130   29.8010   43.6840 C   0  0  0  0  0  0  0  0  0  0  0  0
   57.7730   28.9180   44.1090 C   0  0  0  0  0  0  0  0  0  0  0  0
   57.1570   28.1470   45.0780 C   0  0  0  0  0  0  0  0  0  0  0  0
   55.8640   28.5600   45.2280 N   0  0  0  0  0  0  0  0  0  0  0  0
   55.6650   29.5710   44.3710 N   0  0  0  0  0  0  0  0  0  0  0  0
   60.3550   35.0524   45.3941 H   0  0  0  0  0  0  0  0  0  0  0  0
   61.4007   35.1611   47.6517 H   0  0  0  0  0  0  0  0  0  0  0  0
   60.3601   33.9042   49.5213 H   0  0  0  0  0  0  0  0  0  0  0  0
   58.3173   32.5602   49.1343 H   0  0  0  0  0  0  0  0  0  0  0  0
   57.3540   32.5020   46.8940 H   0  0  0  0  0  0  0  0  0  0  0  0
   58.3330   32.4970   42.5180 H   0  0  0  0  0  0  0  0  0  0  0  0
   55.9477   31.1680   42.3057 H   0  0  0  0  0  0  0  0  0  0  0  0
   57.5272   30.4472   41.7975 H   0  0  0  0  0  0  0  0  0  0  0  0
   58.8114   28.8398   43.7546 H   0  0  0  0  0  0  0  0  0  0  0  0
   57.6335   27.3298   45.6394 H   0  0  0  0  0  0  0  0  0  0  0  0
   55.1580   28.1640   45.8860 H   0  0  0  0  0  0  0  0  0  0  0  0
  1  2  2  0
  2  3  1  0
  3  4  2  0
  4  5  1  0
  5  6  2  0
  6  7  1  0
  7  8  2  0
  8  9  1  0
  2 10  1  0
 10 11  1  0
 11 12  1  0
 12 13  1  0
 13 14  2  0
 14 15  1  0
 15 16  1  0
  9  4  1  0
 16 12  2  0
  5 17  1  0
  6 18  1  0
  7 19  1  0
  8 20  1  0
  9 21  1  0
 10 22  1  0
 11 23  1  0
 11 24  1  0
 13 25  1  0
 14 26  1  0
 15 27  1  0
M  END
>  <smiles>  (24) 
O=C(N=c1cccc[nH]1)NCc1cc[nH]n1

>  <score_type>  (24) 
oracle

>  <origin>  (24) 
adg

>  <m_score__min__energy>  (24) 
-6.5599999999999996

>  <m_primary>  (24) 
energy

$$$$
24:0
     RDKit          3D

 72 75  0  0  1  0  0  0  0  0999 V2000
   62.5570   30.6440   54.1280 C   0  0  0  0  0  0  0  0  0  0  0  0
   63.1760   30.9690   52.5030 S   0  0  0  0  0  0  0  0  0  0  0  0
   62.9810   29.7410   51.6360 O   0  0  0  0  0  0  0  0  0  0  0  0
   62.4470   32.1600   51.9410 O   0  0  0  0  0  0  0  0  0  0  0  0
   64.8480   31.3640   52.6150 N   0  0  0  0  0  0  0  0  0  0  0  0
   65.0750   32.7740   52.8160 C   0  0  0  0  0  0  0  0  0  0  0  0
   66.4780   33.1820   52.4150 C   0  0  0  0  0  0  0  0  0  0  0  0
   66.8140   32.6770   50.7550 S   0  0  0  0  0  0  0  0  0  0  0  0
   67.0060   31.1950   50.6940 O   0  0  0  0  0  0  0  0  0  0  0  0
   68.0840   33.3780   50.3280 O   0  0  0  0  0  0  0  0  0  0  0  0
   65.5190   33.2150   49.7540 N   0  0  0  0  0  0  0  0  0  0  0  0
   64.4020   32.4460   49.4050 C   0  0  0  0  0  0  0  0  0  0  0  0
   64.2860   31.2670   49.8310 O   0  0  0  0  0  0  0  0  0  0  0  0
   63.3210   32.9350   48.5520 C   0  0  0  0  0  0  0  0  0  0  0  0
   62.1120   33.2290   49.1370 C   0  0  0  0  0  0  0  0  0  0  0  0
   61.0190   33.7000   48.4030 C   0  0  0  0  0  0  0  0  0  0  0  0
   61.1790   33.8730   47.0260 C   0  0  0  0  0  0  0  0  0  0  0  0
   60.0400   34.3510   46.3270 N   0  0  0  0  0  0  0  0  0  0  0  0
   59.2780   33.5420   45.6580 C   0  0  0  0  0  0  0  0  0  0  0  0
   59.2470   32.2730   46.0120 N   0  0  0  0  0  0  0  0  0  0  0  0
   58.4800   31.3070   45.3840 C   0  0  0  0  0  0  0  0  0  0  0  0
   58.5160   30.0970   45.7940 O   0  0  0  0  0  0  0  0  0  0  0  0
   58.5520   28.8860   46.2030 C   0  0  0  0  0  0  0  0  0  0  0  0
   57.9420   27.8700   45.4210 C   0  0  0  0  0  0  0  0  0  0  0  0
   57.9490   26.5550   45.8100 C   0  0  0  0  0  0  0  0  0  0  0  0
   58.5720   26.2470   46.9960 C   0  0  0  0  0  0  0  0  0  0  0  0
   59.1820   27.1880   47.7960 C   0  0  0  0  0  0  0  0  0  0  0  0
   59.1780   28.5140   47.4080 C   0  0  0  0  0  0  0  0  0  0  0  0
   59.8940   29.4780   48.2520 C   0  0  0  0  0  0  0  0  0  0  0  0
   60.7690   28.9030   49.2910 C   0  0  0  0  0  0  0  0  0  0  0  0
   60.1710   29.0900   50.6440 C   0  0  0  0  0  0  0  0  0  0  0  0
   60.2220   30.5150   50.9420 N   0  0  0  0  0  0  0  0  0  0  0  0
   59.5070   31.2860   49.9450 C   0  0  0  0  0  0  0  0  0  0  0  0
   58.8940   30.4030   48.8800 C   0  0  0  0  0  0  0  0  0  0  0  0
   57.6940   31.7330   44.3010 C   0  0  0  0  0  0  0  0  0  0  0  0
   56.8540   30.8470   43.5040 C   0  0  0  0  0  0  0  0  0  0  0  0
   57.5380   29.6160   43.3920 F   0  0  0  0  0  0  0  0  0  0  0  0
   56.6170   31.1920   42.2160 F   0  0  0  0  0  0  0  0  0  0  0  0
   55.6890   30.4670   44.1770 F   0  0  0  0  0  0  0  0  0  0  0  0
   57.7700   33.0940   43.9760 C   0  0  0  0  0  0  0  0  0  0  0  0
   58.5400   33.9550   44.6410 N   0  0  0  0  0  0  0  0  0  0  0  0
   62.3830   33.5840   46.4190 C   0  0  0  0  0  0  0  0  0  0  0  0
   63.4470   33.1140   47.1960 C   0  0  0  0  0  0  0  0  0  0  0  0
   63.2722   31.0195   54.8747 H   0  0  0  0  0  0  0  0  0  0  0  0
   61.5894   31.1504   54.2599 H   0  0  0  0  0  0  0  0  0  0  0  0
   62.4245   29.5600   54.2599 H   0  0  0  0  0  0  0  0  0  0  0  0
   65.2980   31.0760   51.7160 H   0  0  0  0  0  0  0  0  0  0  0  0
   64.3527   33.3406   52.2100 H   0  0  0  0  0  0  0  0  0  0  0  0
   64.9494   32.9907   53.8871 H   0  0  0  0  0  0  0  0  0  0  0  0
   66.5724   34.2755   52.4876 H   0  0  0  0  0  0  0  0  0  0  0  0
   67.1982   32.6955   53.0893 H   0  0  0  0  0  0  0  0  0  0  0  0
   65.6020   34.2070   49.3890 H   0  0  0  0  0  0  0  0  0  0  0  0
   62.0005   33.0885   50.2223 H   0  0  0  0  0  0  0  0  0  0  0  0
   60.0619   33.9275   48.8951 H   0  0  0  0  0  0  0  0  0  0  0  0
   57.4499   28.1454   44.4765 H   0  0  0  0  0  0  0  0  0  0  0  0
   57.4738   25.7758   45.1959 H   0  0  0  0  0  0  0  0  0  0  0  0
   58.5840   25.1967   47.3225 H   0  0  0  0  0  0  0  0  0  0  0  0
   59.6680   26.8863   48.7355 H   0  0  0  0  0  0  0  0  0  0  0  0
   60.5842   30.0067   47.5781 H   0  0  0  0  0  0  0  0  0  0  0  0
   60.8996   27.8278   49.0991 H   0  0  0  0  0  0  0  0  0  0  0  0
   61.7414   29.4163   49.2593 H   0  0  0  0  0  0  0  0  0  0  0  0
   59.1278   28.7411   50.6469 H   0  0  0  0  0  0  0  0  0  0  0  0
   60.7237   28.5122   51.3994 H   0  0  0  0  0  0  0  0  0  0  0  0
   61.2350   30.7980   50.8490 H   0  0  0  0  0  0  0  0  0  0  0  0
   58.7055   31.8527   50.4415 H   0  0  0  0  0  0  0  0  0  0  0  0
   60.2258   31.9600   49.4561 H   0  0  0  0  0  0  0  0  0  0  0  0
   58.0960   29.8004   49.3383 H   0  0  0  0  0  0  0  0  0  0  0  0
   58.5032   31.0586   48.0879 H   0  0  0  0  0  0  0  0  0  0  0  0
   57.1677   33.4682   43.1351 H   0  0  0  0  0  0  0  0  0  0  0  0
   58.5630   34.9400   44.3660 H   0  0  0  0  0  0  0  0  0  0  0  0
   62.5055   33.7217   45.3345 H   0  0  0  0  0  0  0  0  0  0  0  0
   64.4063   32.8825   46.7101 H   0  0  0  0  0  0  0  0  0  0  0  0
  1  2  1  0
  2  3  2  0
  2  4  2  0
  2  5  1  0
  5  6  1  0
  6  7  1  0
  7  8  1  0
  8  9  2  0
  8 10  2  0
  8 11  1  0
 11 12  1  0
 12 13  2  0
 12 14  1  0
 14 15  2  0
 15 16  1  0
 16 17  2  0
 17 18  1  0
 18 19  2  0
 19 20  1  0
 20 21  2  0
 21 22  1  0
 22 23  1  0
 23 24  2  0
 24 25  1  0
 25 26  2  0
 26 27  1  0
 27 28  2  0
 28 29  1  0
 29 30  1  0
 30 31  1  0
 31 32  1  0
 32 33  1  0
 33 34  1  0
 21 35  1  0
 35 36  1  0
 36 37  1  0
 36 38  1  0
 36 39  1  0
 35 40  2  0
 40 41  1  0
 17 42  1  0
 42 43  2  0
 43 14  1  0
 41 19  1  0
 28 23  1  0
 34 29  1  0
  1 44  1  0
  1 45  1  0
  1 46  1  0
  5 47  1  0
  6 48  1  0
  6 49  1  0
  7 50  1  0
  7 51  1  0
 11 52  1  0
 15 53  1  0
 16 54  1  0
 24 55  1  0
 25 56  1  0
 26 57  1  0
 27 58  1  0
 29 59  1  0
 30 60  1  0
 30 61  1  0
 31 62  1  0
 31 63  1  0
 32 64  1  0
 33 65  1  0
 33 66  1  0
 34 67  1  0
 34 68  1  0
 40 69  1  0
 41 70  1  0
 42 71  1  0
 43 72  1  0
M  END
>  <smiles>  (25) 
CS(=O)(=O)NCCS(=O)(=O)NC(=O)c1ccc(N=c2nc(Oc3ccccc3C3CCNCC3)c(C(F)(F)F)c[nH]2)cc1

>  <score_type>  (25) 
oracle

>  <origin>  (25) 
adg

>  <m_score__min__energy>  (25) 
-10.380000000000001

>  <m_primary>  (25) 
energy

$$$$
25:0
     RDKit          3D

 32 33  0  0  0  0  0  0  0  0999 V2000
   54.7850   26.2320   45.9760 N   0  0  0  0  0  0  0  0  0  0  0  0
   56.3990   25.6210   46.0540 S   0  0  0  0  0  0  0  0  0  0  0  0
   56.5260   24.4120   45.1700 O   0  0  0  0  0  0  0  0  0  0  0  0
   56.7150   25.2220   47.4680 O   0  0  0  0  0  0  0  0  0  0  0  0
   57.5200   26.8660   45.5120 C   0  0  0  0  0  0  0  0  0  0  0  0
   58.0450   26.8150   44.2150 C   0  0  0  0  0  0  0  0  0  0  0  0
   58.9460   27.7920   43.7820 C   0  0  0  0  0  0  0  0  0  0  0  0
   59.3290   28.8230   44.6450 C   0  0  0  0  0  0  0  0  0  0  0  0
   58.8080   28.8830   45.9450 C   0  0  0  0  0  0  0  0  0  0  0  0
   59.3290   30.1340   47.0700 S   0  0  0  0  0  0  0  0  0  0  0  0
   60.6400   30.6920   46.5970 O   0  0  0  0  0  0  0  0  0  0  0  0
   59.5220   29.5550   48.4450 O   0  0  0  0  0  0  0  0  0  0  0  0
   58.1570   31.4200   47.1410 N   0  0  0  0  0  0  0  0  0  0  0  0
   58.2200   32.2630   45.9450 C   0  0  0  0  0  0  0  0  0  0  0  0
   57.5680   31.5770   44.7780 C   0  0  0  0  0  0  0  0  0  0  0  0
   57.8910   31.9340   43.4600 C   0  0  0  0  0  0  0  0  0  0  0  0
   57.2410   31.2990   42.4000 C   0  0  0  0  0  0  0  0  0  0  0  0
   56.2910   30.3100   42.6600 C   0  0  0  0  0  0  0  0  0  0  0  0
   56.0070   29.9670   43.9840 C   0  0  0  0  0  0  0  0  0  0  0  0
   56.6440   30.6020   45.0040 N   0  0  0  0  0  0  0  0  0  0  0  0
   57.8930   27.9100   46.3700 C   0  0  0  0  0  0  0  0  0  0  0  0
   54.7540   27.0890   46.5720 H   0  0  0  0  0  0  0  0  0  0  0  0
   57.7475   26.0035   43.5346 H   0  0  0  0  0  0  0  0  0  0  0  0
   59.3540   27.7496   42.7614 H   0  0  0  0  0  0  0  0  0  0  0  0
   60.0408   29.5888   44.3032 H   0  0  0  0  0  0  0  0  0  0  0  0
   57.6993   33.2114   46.1436 H   0  0  0  0  0  0  0  0  0  0  0  0
   59.2756   32.4518   45.7001 H   0  0  0  0  0  0  0  0  0  0  0  0
   58.6490   32.7067   43.2638 H   0  0  0  0  0  0  0  0  0  0  0  0
   57.4770   31.5775   41.3623 H   0  0  0  0  0  0  0  0  0  0  0  0
   55.7717   29.8062   41.8314 H   0  0  0  0  0  0  0  0  0  0  0  0
   55.2674   29.1825   44.2018 H   0  0  0  0  0  0  0  0  0  0  0  0
   57.4654   27.9659   47.3819 H   0  0  0  0  0  0  0  0  0  0  0  0
  1  2  1  0
  2  3  2  0
  2  4  2  0
  2  5  1  0
  5  6  2  0
  6  7  1  0
  7  8  2  0
  8  9  1  0
  9 10  1  0
 10 11  2  0
 10 12  2  0
 10 13  1  0
 13 14  1  0
 14 15  1  0
 15 16  2  0
 16 17  1  0
 17 18  2  0
 18 19  1  0
 19 20  2  0
  9 21  2  0
 21  5  1  0
 20 15  1  0
  1 22  1  0
  6 23  1  0
  7 24  1  0
  8 25  1  0
 14 26  1  0
 14 27  1  0
 16 28  1  0
 17 29  1  0
 18 30  1  0
 19 31  1  0
 21 32  1  0
M  CHG  2   1  -1  13  -1
M  END
>  <UniqueID>  (26) 
20

>  <SMILES>  (26) 
[NH-]S(=O)(=O)c1cccc(S(=O)(=O)[N-]Cc2ccccn2)c1

>  <Energy>  (26) 
27.78812278061884

>  <Genealogy>  (26) 
[NH-]S(=O)(=O)c1cccc(S(=O)(=O)[N-]Cc2ccccn2)c1 (protonated)
[NH-]S(=O)(=O)c1cccc(S(=O)(=O)[N-]Cc2ccccn2)c1 (3D coordinates assigned)
[NH-]S(=O)(=O)c1cccc(S(=O)(=O)[N-]Cc2ccccn2)c1 (optimized conformer: 27.78812278061884 kcal/mol)

>  <smiles>  (26) 
NS(=O)(=O)c1cccc(S(=O)(=O)NCc2ccccn2)c1

>  <score_type>  (26) 
oracle

>  <origin>  (26) 
adg

>  <m_score__min__energy>  (26) 
-12.41

>  <m_primary>  (26) 
energy

$$$$
26:0
     RDKit          3D

 39 41  0  0  0  0  0  0  0  0999 V2000
   54.8130   26.3410   46.0150 N   0  0  0  0  0  0  0  0  0  0  0  0
   56.5270   26.1230   46.0000 S   0  0  0  0  0  0  0  0  0  0  0  0
   56.9290   25.3770   44.7580 O   0  0  0  0  0  0  0  0  0  0  0  0
   56.9360   25.3170   47.2000 O   0  0  0  0  0  0  0  0  0  0  0  0
   57.3200   27.6940   46.0310 C   0  0  0  0  0  0  0  0  0  0  0  0
   57.1030   28.6090   44.9920 C   0  0  0  0  0  0  0  0  0  0  0  0
   57.7230   29.8630   45.0170 C   0  0  0  0  0  0  0  0  0  0  0  0
   58.5530   30.2230   46.0940 C   0  0  0  0  0  0  0  0  0  0  0  0
   59.2200   31.4960   46.1330 N   0  0  0  0  0  0  0  0  0  0  0  0
   58.6040   32.7400   45.7640 C   0  0  0  0  0  0  0  0  0  0  0  0
   57.3610   32.8030   45.5580 O   0  0  0  0  0  0  0  0  0  0  0  0
   59.4160   33.9970   45.7110 C   0  0  0  0  0  0  0  0  0  0  0  0
   60.0740   34.2290   46.9960 N   0  0  0  0  0  0  0  0  0  0  0  0
   59.3600   34.5770   48.2260 C   0  0  0  0  0  0  0  0  0  0  0  0
   60.4050   34.5000   49.3660 C   0  0  0  0  0  0  0  0  0  0  0  0
   61.6440   34.0590   48.6690 C   0  0  0  0  0  0  0  0  0  0  0  0
   62.9000   33.8150   49.2250 C   0  0  0  0  0  0  0  0  0  0  0  0
   63.9440   33.4160   48.3740 C   0  0  0  0  0  0  0  0  0  0  0  0
   63.7160   33.2770   46.9920 C   0  0  0  0  0  0  0  0  0  0  0  0
   62.4440   33.5320   46.4540 C   0  0  0  0  0  0  0  0  0  0  0  0
   61.4190   33.9170   47.3260 C   0  0  0  0  0  0  0  0  0  0  0  0
   58.7780   29.2970   47.1220 C   0  0  0  0  0  0  0  0  0  0  0  0
   58.1580   28.0440   47.0970 C   0  0  0  0  0  0  0  0  0  0  0  0
   54.6070   27.0930   46.7100 H   0  0  0  0  0  0  0  0  0  0  0  0
   56.4430   28.3404   44.1540 H   0  0  0  0  0  0  0  0  0  0  0  0
   57.5606   30.5706   44.1906 H   0  0  0  0  0  0  0  0  0  0  0  0
   60.1810   31.5280   46.5410 H   0  0  0  0  0  0  0  0  0  0  0  0
   60.1789   33.9036   44.9240 H   0  0  0  0  0  0  0  0  0  0  0  0
   58.7504   34.8447   45.4909 H   0  0  0  0  0  0  0  0  0  0  0  0
   58.9484   35.5945   48.1536 H   0  0  0  0  0  0  0  0  0  0  0  0
   58.5164   33.8948   48.4075 H   0  0  0  0  0  0  0  0  0  0  0  0
   60.5472   35.4840   49.8367 H   0  0  0  0  0  0  0  0  0  0  0  0
   60.1049   33.8220   50.1786 H   0  0  0  0  0  0  0  0  0  0  0  0
   63.0691   33.9324   50.3056 H   0  0  0  0  0  0  0  0  0  0  0  0
   64.9422   33.2117   48.7887 H   0  0  0  0  0  0  0  0  0  0  0  0
   64.5381   32.9671   46.3301 H   0  0  0  0  0  0  0  0  0  0  0  0
   62.2579   33.4317   45.3745 H   0  0  0  0  0  0  0  0  0  0  0  0
   59.4475   29.5581   47.9548 H   0  0  0  0  0  0  0  0  0  0  0  0
   58.3290   27.3311   47.9171 H   0  0  0  0  0  0  0  0  0  0  0  0
  1  2  1  0
  2  3  2  0
  2  4  2  0
  2  5  1  0
  5  6  2  0
  6  7  1  0
  7  8  2  0
  8  9  1  0
  9 10  1  0
 10 11  2  0
 10 12  1  0
 12 13  1  0
 13 14  1  0
 14 15  1  0
 15 16  1  0
 16 17  2  0
 17 18  1  0
 18 19  2  0
 19 20  1  0
 20 21  2  0
  8 22  1  0
 22 23  2  0
 23  5  1  0
 21 13  1  0
 21 16  1  0
  1 24  1  0
  6 25  1  0
  7 26  1  0
  9 27  1  0
 12 28  1  0
 12 29  1  0
 14 30  1  0
 14 31  1  0
 15 32  1  0
 15 33  1  0
 17 34  1  0
 18 35  1  0
 19 36  1  0
 20 37  1  0
 22 38  1  0
 23 39  1  0
M  CHG  1   1  -1
M  END
>  <UniqueID>  (27) 
21

>  <SMILES>  (27) 
[NH-]S(=O)(=O)c1ccc(NC(=O)CN2CCc3ccccc32)cc1

>  <Energy>  (27) 
55.64575145315041

>  <Genealogy>  (27) 
[NH-]S(=O)(=O)c1ccc(NC(=O)CN2CCc3ccccc32)cc1 (protonated)
[NH-]S(=O)(=O)c1ccc(NC(=O)CN2CCc3ccccc32)cc1 (3D coordinates assigned)
[NH-]S(=O)(=O)c1ccc(NC(=O)CN2CCc3ccccc32)cc1 (nonaromatic ring conformer: 55.64575145315041 kcal/mol)

>  <smiles>  (27) 
NS(=O)(=O)c1ccc(NC(=O)CN2CCc3ccccc32)cc1

>  <score_type>  (27) 
oracle

>  <origin>  (27) 
adg

>  <m_score__min__energy>  (27) 
-11.08

>  <m_primary>  (27) 
energy

$$$$
27:0
     RDKit          3D

 45 48  0  0  0  0  0  0  0  0999 V2000
   60.4500   33.1790   46.4360 N   0  0  0  0  0  0  0  0  0  0  0  0
   58.9720   33.8800   45.8760 S   0  0  0  0  0  0  0  0  0  0  0  0
   59.2650   35.1790   45.1780 O   0  0  0  0  0  0  0  0  0  0  0  0
   58.0720   34.1560   47.0480 O   0  0  0  0  0  0  0  0  0  0  0  0
   58.1770   32.7730   44.7600 C   0  0  0  0  0  0  0  0  0  0  0  0
   58.2860   32.9710   43.3770 C   0  0  0  0  0  0  0  0  0  0  0  0
   57.6780   32.0770   42.4920 C   0  0  0  0  0  0  0  0  0  0  0  0
   56.9550   30.9880   42.9830 C   0  0  0  0  0  0  0  0  0  0  0  0
   56.8130   30.7980   44.3660 C   0  0  0  0  0  0  0  0  0  0  0  0
   56.0800   29.6830   44.8860 N   0  0  0  0  0  0  0  0  0  0  0  0
   56.5660   28.3360   44.9700 C   0  0  0  0  0  0  0  0  0  0  0  0
   55.9030   27.4930   45.6310 O   0  0  0  0  0  0  0  0  0  0  0  0
   57.7360   27.8730   44.1410 C   0  0  0  0  0  0  0  0  0  0  0  0
   59.2830   28.7700   44.5320 S   0  0  0  0  0  0  0  0  0  0  0  0
   59.3270   28.2870   46.2580 C   0  0  0  0  0  0  0  0  0  0  0  0
   58.6410   27.2450   46.7810 N   0  0  0  0  0  0  0  0  0  0  0  0
   58.9030   27.2090   48.0870 N   0  0  0  0  0  0  0  0  0  0  0  0
   59.7450   28.2320   48.3280 C   0  0  0  0  0  0  0  0  0  0  0  0
   60.2370   28.6600   49.5520 C   0  0  0  0  0  0  0  0  0  0  0  0
   61.0140   29.8290   49.5530 C   0  0  0  0  0  0  0  0  0  0  0  0
   61.2620   30.5230   48.3370 C   0  0  0  0  0  0  0  0  0  0  0  0
   62.0090   31.8030   48.3080 C   0  0  0  0  0  0  0  0  0  0  0  0
   61.6690   32.8310   49.2070 C   0  0  0  0  0  0  0  0  0  0  0  0
   62.3690   34.0410   49.1980 C   0  0  0  0  0  0  0  0  0  0  0  0
   63.4090   34.2420   48.2880 C   0  0  0  0  0  0  0  0  0  0  0  0
   63.7510   33.2330   47.3850 C   0  0  0  0  0  0  0  0  0  0  0  0
   63.0560   32.0200   47.3910 C   0  0  0  0  0  0  0  0  0  0  0  0
   60.7380   30.0270   47.1750 N   0  0  0  0  0  0  0  0  0  0  0  0
   60.0270   28.9050   47.2150 N   0  0  0  0  0  0  0  0  0  0  0  0
   57.4550   31.6740   45.2500 C   0  0  0  0  0  0  0  0  0  0  0  0
   61.1560   33.3100   45.6770 H   0  0  0  0  0  0  0  0  0  0  0  0
   60.2860   32.1500   46.5210 H   0  0  0  0  0  0  0  0  0  0  0  0
   58.8507   33.8310   42.9878 H   0  0  0  0  0  0  0  0  0  0  0  0
   57.7690   32.2313   41.4067 H   0  0  0  0  0  0  0  0  0  0  0  0
   56.4946   30.2758   42.2824 H   0  0  0  0  0  0  0  0  0  0  0  0
   57.8954   26.8005   44.3264 H   0  0  0  0  0  0  0  0  0  0  0  0
   57.4946   28.0739   43.0868 H   0  0  0  0  0  0  0  0  0  0  0  0
   60.0277   28.1082   50.4803 H   0  0  0  0  0  0  0  0  0  0  0  0
   61.4321   30.2091   50.4968 H   0  0  0  0  0  0  0  0  0  0  0  0
   60.8465   32.6813   49.9219 H   0  0  0  0  0  0  0  0  0  0  0  0
   62.1001   34.8362   49.9089 H   0  0  0  0  0  0  0  0  0  0  0  0
   63.9587   35.1948   48.2824 H   0  0  0  0  0  0  0  0  0  0  0  0
   64.5691   33.3931   46.6674 H   0  0  0  0  0  0  0  0  0  0  0  0
   63.3284   31.2303   46.6753 H   0  0  0  0  0  0  0  0  0  0  0  0
   57.3930   31.4997   46.3343 H   0  0  0  0  0  0  0  0  0  0  0  0
  1  2  1  0
  2  3  2  0
  2  4  2  0
  2  5  1  0
  5  6  2  0
  6  7  1  0
  7  8  2  0
  8  9  1  0
  9 10  1  0
 10 11  1  0
 11 12  2  0
 11 13  1  0
 13 14  1  0
 14 15  1  0
 15 16  2  0
 16 17  1  0
 17 18  2  0
 18 19  1  0
 19 20  2  0
 20 21  1  0
 21 22  1  0
 22 23  2  0
 23 24  1  0
 24 25  2  0
 25 26  1  0
 26 27  2  0
 21 28  2  0
 28 29  1  0
  9 30  2  0
 30  5  1  0
 29 15  1  0
 29 18  1  0
 27 22  1  0
  1 31  1  0
  1 32  1  0
  6 33  1  0
  7 34  1  0
  8 35  1  0
 13 36  1  0
 13 37  1  0
 19 38  1  0
 20 39  1  0
 23 40  1  0
 24 41  1  0
 25 42  1  0
 26 43  1  0
 27 44  1  0
 30 45  1  0
M  CHG  1  10  -1
M  END
>  <UniqueID>  (28) 
22

>  <SMILES>  (28) 
NS(=O)(=O)c1cccc([N-]C(=O)CSc2nnc3ccc(-c4ccccc4)nn23)c1

>  <Energy>  (28) 
95.08207687422203

>  <Genealogy>  (28) 
NS(=O)(=O)c1cccc([N-]C(=O)CSc2nnc3ccc(-c4ccccc4)nn23)c1 (protonated)
NS(=O)(=O)c1cccc([N-]C(=O)CSc2nnc3ccc(-c4ccccc4)nn23)c1 (3D coordinates assigned)
NS(=O)(=O)c1cccc([N-]C(=O)CSc2nnc3ccc(-c4ccccc4)nn23)c1 (optimized conformer: 95.08207687422203 kcal/mol)

>  <smiles>  (28) 
NS(=O)(=O)c1cccc(NC(=O)CSc2nnc3ccc(-c4ccccc4)nn23)c1

>  <score_type>  (28) 
oracle

>  <origin>  (28) 
adg

>  <m_score__min__energy>  (28) 
-13.050000000000001

>  <m_primary>  (28) 
energy

$$$$
28:0
     RDKit          3D

 38 39  0  0  0  0  0  0  0  0999 V2000
   58.3404   35.2728   44.7374 H   0  0  0  0  0  0  0  0  0  0  0  0
   58.2400   34.2490   45.1270 C   0  0  0  0  0  0  0  0  0  0  0  0
   58.9510   33.8690   46.2640 C   0  0  0  0  0  0  0  0  0  0  0  0
   59.7840   34.7730   46.8360 F   0  0  0  0  0  0  0  0  0  0  0  0
   58.7960   32.5610   46.7760 C   0  0  0  0  0  0  0  0  0  0  0  0
   59.5680   32.0390   47.9970 C   0  0  1  0  0  0  0  0  0  0  0  0
   59.3040   32.9190   49.2430 C   0  0  0  0  0  0  0  0  0  0  0  0
   59.4813   32.3279   50.1536 H   0  0  0  0  0  0  0  0  0  0  0  0
   59.9818   33.7853   49.2304 H   0  0  0  0  0  0  0  0  0  0  0  0
   58.2613   33.2691   49.2304 H   0  0  0  0  0  0  0  0  0  0  0  0
   59.0960   30.6790   48.3050 N   0  0  0  0  0  0  0  0  0  0  0  0
   58.0880   30.4300   48.1770 H   0  0  0  0  0  0  0  0  0  0  0  0
   59.9870   29.6710   48.7900 C   0  0  0  0  0  0  0  0  0  0  0  0
   59.8080   28.4290   48.4710 N   0  0  0  0  0  0  0  0  0  0  0  0
   59.3110   28.1720   47.5890 H   0  0  0  0  0  0  0  0  0  0  0  0
   60.1520   27.6620   49.0920 H   0  0  0  0  0  0  0  0  0  0  0  0
   61.3650   30.1460   49.8300 S   0  0  0  0  0  0  0  0  0  0  0  0
   62.0000   31.5180   48.7870 C   0  0  0  0  0  0  0  0  0  0  0  0
   62.1783   32.3821   49.4439 H   0  0  0  0  0  0  0  0  0  0  0  0
   62.9025   31.1197   48.3003 H   0  0  0  0  0  0  0  0  0  0  0  0
   61.0860   31.9870   47.6320 C   0  0  0  0  0  0  0  0  0  0  0  0
   61.5230   33.2400   47.2310 F   0  0  0  0  0  0  0  0  0  0  0  0
   61.2640   31.1230   46.5610 F   0  0  0  0  0  0  0  0  0  0  0  0
   57.9900   31.6940   46.0970 N   0  0  0  0  0  0  0  0  0  0  0  0
   57.2980   32.0270   44.9740 C   0  0  0  0  0  0  0  0  0  0  0  0
   56.5460   31.1130   44.4260 N   0  0  0  0  0  0  0  0  0  0  0  0
   56.2620   29.7750   44.8700 C   0  0  0  0  0  0  0  0  0  0  0  0
   55.1570   29.2260   44.6190 O   0  0  0  0  0  0  0  0  0  0  0  0
   57.2730   29.0150   45.5380 N   0  0  0  0  0  0  0  0  0  0  0  0
   58.3320   28.2890   44.8450 C   0  0  0  0  0  0  0  0  0  0  0  0
   58.0326   28.1239   43.7995 H   0  0  0  0  0  0  0  0  0  0  0  0
   58.4918   27.3259   45.3519 H   0  0  0  0  0  0  0  0  0  0  0  0
   59.6350   29.0820   44.8740 C   0  0  0  0  0  0  0  0  0  0  0  0
   59.9313   29.2623   45.9179 H   0  0  0  0  0  0  0  0  0  0  0  0
   60.4235   28.5105   44.3625 H   0  0  0  0  0  0  0  0  0  0  0  0
   59.4897   30.0449   44.3625 H   0  0  0  0  0  0  0  0  0  0  0  0
   57.4030   33.3420   44.4800 C   0  0  0  0  0  0  0  0  0  0  0  0
   56.8302   33.6497   43.5927 H   0  0  0  0  0  0  0  0  0  0  0  0
  1  2  1  0
  2  3  1  0
  3  4  1  0
  3  5  2  0
  5  6  1  0
  6  7  1  1
  7  8  1  0
  7  9  1  0
  7 10  1  0
  6 11  1  0
 11 12  1  0
 11 13  1  0
 13 14  2  0
 14 15  1  0
 14 16  1  0
 13 17  1  0
 17 18  1  0
 18 19  1  0
 18 20  1  0
 18 21  1  0
 21 22  1  0
 21 23  1  0
  5 24  1  0
 24 25  1  0
 25 26  2  0
 26 27  1  0
 27 28  2  0
 27 29  1  0
 29 30  1  0
 30 31  1  0
 30 32  1  0
 30 33  1  0
 33 34  1  0
 33 35  1  0
 33 36  1  0
 25 37  1  0
 37 38  1  0
 37  2  2  0
 21  6  1  0
M  CHG  3  14   1  24  -1  29  -1
M  END
>  <UniqueID>  (29) 
23

>  <SMILES>  (29) 
CC[N-]C(=O)/N=c1\ccc(F)c([C@@]2(C)NC(=[NH2+])SCC2(F)F)[n-]1

>  <Energy>  (29) 
52.9654040777856

>  <Genealogy>  (29) 
CC[N-]C(=O)N=c1ccc(F)c(C2(C)NC(=[NH2+])SCC2(F)F)[n-]1 (protonated)
CC[N-]C(=O)N=c1ccc(F)c([C@@]2(C)NC(=[NH2+])SCC2(F)F)[n-]1 (chirality)
CC[N-]C(=O)/N=c1\ccc(F)c([C@@]2(C)NC(=[NH2+])SCC2(F)F)[n-]1 (cis-trans isomerization)
CC[N-]C(=O)/N=c1\ccc(F)c([C@@]2(C)NC(=[NH2+])SCC2(F)F)[n-]1 (3D coordinates assigned)
CC[N-]C(=O)/N=c1\ccc(F)c([C@@]2(C)NC(=[NH2+])SCC2(F)F)[n-]1 (nonaromatic ring conformer: 52.9654040777856 kcal/mol)

>  <smiles>  (29) 
CCNC(=O)N=c1ccc(F)c(C2(C)NC(=N)SCC2(F)F)[nH]1

>  <score_type>  (29) 
oracle

>  <origin>  (29) 
adg

>  <m_score__min__energy>  (29) 
-7.4800000000000004

>  <m_primary>  (29) 
energy

$$$$
29:0
     RDKit          3D

 35 36  0  0  0  0  0  0  0  0999 V2000
   58.4380   28.7950   55.3110 C   0  0  0  0  0  0  0  0  0  0  0  0
   58.0050   28.5510   53.9770 O   0  0  0  0  0  0  0  0  0  0  0  0
   57.2280   29.4660   53.2600 C   0  0  0  0  0  0  0  0  0  0  0  0
   57.7570   30.7160   52.9400 C   0  0  0  0  0  0  0  0  0  0  0  0
   56.9610   31.6240   52.2230 C   0  0  0  0  0  0  0  0  0  0  0  0
   57.4220   32.9000   51.8630 O   0  0  0  0  0  0  0  0  0  0  0  0
   58.3270   33.6770   52.6420 C   0  0  0  0  0  0  0  0  0  0  0  0
   55.7000   31.2600   51.8600 N   0  0  0  0  0  0  0  0  0  0  0  0
   55.1970   30.0380   52.1820 C   0  0  0  0  0  0  0  0  0  0  0  0
   53.8970   29.7000   51.7880 O   0  0  0  0  0  0  0  0  0  0  0  0
   52.8280   30.6010   51.8150 C   0  0  0  0  0  0  0  0  0  0  0  0
   52.3740   31.1020   50.6380 N   0  0  0  0  0  0  0  0  0  0  0  0
   51.3220   31.9620   50.5880 C   0  0  0  0  0  0  0  0  0  0  0  0
   50.8630   32.4650   49.3670 O   0  0  0  0  0  0  0  0  0  0  0  0
   50.5830   31.6310   48.2490 C   0  0  0  0  0  0  0  0  0  0  0  0
   50.7040   32.3350   51.7360 N   0  0  0  0  0  0  0  0  0  0  0  0
   51.1240   31.8810   52.9440 C   0  0  0  0  0  0  0  0  0  0  0  0
   50.5190   32.2520   53.9860 O   0  0  0  0  0  0  0  0  0  0  0  0
   52.2270   31.0130   53.0250 C   0  0  0  0  0  0  0  0  0  0  0  0
   52.7320   30.5360   54.3630 C   0  0  0  0  0  0  0  0  0  0  0  0
   55.9650   29.1510   52.8710 N   0  0  0  0  0  0  0  0  0  0  0  0
   57.7029   28.3807   56.0167 H   0  0  0  0  0  0  0  0  0  0  0  0
   59.4138   28.3139   55.4736 H   0  0  0  0  0  0  0  0  0  0  0  0
   58.5319   29.8789   55.4736 H   0  0  0  0  0  0  0  0  0  0  0  0
   58.7792   30.9859   53.2437 H   0  0  0  0  0  0  0  0  0  0  0  0
   58.1297   33.5076   53.7108 H   0  0  0  0  0  0  0  0  0  0  0  0
   59.3601   33.3802   52.4083 H   0  0  0  0  0  0  0  0  0  0  0  0
   58.1900   34.7431   52.4083 H   0  0  0  0  0  0  0  0  0  0  0  0
   55.1050   31.9330   51.3270 H   0  0  0  0  0  0  0  0  0  0  0  0
   50.2514   30.6434   48.6022 H   0  0  0  0  0  0  0  0  0  0  0  0
   49.7891   32.0882   47.6402 H   0  0  0  0  0  0  0  0  0  0  0  0
   51.4920   31.5165   47.6402 H   0  0  0  0  0  0  0  0  0  0  0  0
   52.1857   31.0520   55.1663 H   0  0  0  0  0  0  0  0  0  0  0  0
   52.5727   29.4510   54.4495 H   0  0  0  0  0  0  0  0  0  0  0  0
   53.8061   30.7569   54.4495 H   0  0  0  0  0  0  0  0  0  0  0  0
  1  2  1  0
  2  3  1  0
  3  4  2  0
  4  5  1  0
  5  6  1  0
  6  7  1  0
  5  8  2  0
  8  9  1  0
  9 10  1  0
 10 11  1  0
 11 12  1  0
 12 13  2  0
 13 14  1  0
 14 15  1  0
 13 16  1  0
 16 17  1  0
 17 18  2  0
 17 19  1  0
 19 20  1  0
  9 21  2  0
 21  3  1  0
 19 11  2  0
  1 22  1  0
  1 23  1  0
  1 24  1  0
  4 25  1  0
  7 26  1  0
  7 27  1  0
  7 28  1  0
  8 29  1  0
 15 30  1  0
 15 31  1  0
 15 32  1  0
 20 33  1  0
 20 34  1  0
 20 35  1  0
M  CHG  2   8   1  16  -1
M  END
>  <UniqueID>  (30) 
24

>  <SMILES>  (30) 
COc1cc(OC)[nH+]c(Oc2nc(OC)[n-]c(=O)c2C)n1

>  <Energy>  (30) 
39.037099283899266

>  <Genealogy>  (30) 
COc1cc(OC)[nH+]c(Oc2nc(OC)[n-]c(=O)c2C)n1 (protonated)
COc1cc(OC)[nH+]c(Oc2nc(OC)[n-]c(=O)c2C)n1 (3D coordinates assigned)
COc1cc(OC)[nH+]c(Oc2nc(OC)[n-]c(=O)c2C)n1 (optimized conformer: 39.037099283899266 kcal/mol)

>  <smiles>  (30) 
COc1cc(OC)nc(Oc2nc(OC)[nH]c(=O)c2C)n1

>  <score_type>  (30) 
oracle

>  <origin>  (30) 
adg

>  <m_score__min__energy>  (30) 
-6.79

>  <m_primary>  (30) 
energy

$$$$
30:0
     RDKit          3D

 50 53  0  0  0  0  0  0  0  0999 V2000
   54.5240   25.2170   45.6170 C   0  0  0  0  0  0  0  0  0  0  0  0
   55.1720   26.4330   45.9730 O   0  0  0  0  0  0  0  0  0  0  0  0
   56.5630   26.6030   46.0060 C   0  0  0  0  0  0  0  0  0  0  0  0
   57.4510   25.6100   46.4860 C   0  0  0  0  0  0  0  0  0  0  0  0
   58.8440   25.8360   46.4950 C   0  0  0  0  0  0  0  0  0  0  0  0
   59.3740   27.0500   46.0280 C   0  0  0  0  0  0  0  0  0  0  0  0
   58.4850   28.0160   45.5630 C   0  0  0  0  0  0  0  0  0  0  0  0
   57.1230   27.8000   45.5500 C   0  0  0  0  0  0  0  0  0  0  0  0
   56.4950   28.9970   44.9970 C   0  0  0  0  0  0  0  0  0  0  0  0
   55.2610   29.1560   44.8020 O   0  0  0  0  0  0  0  0  0  0  0  0
   57.4900   29.9790   44.6950 N   0  0  0  0  0  0  0  0  0  0  0  0
   57.3020   31.2110   43.9310 C   0  0  0  0  0  0  0  0  0  0  0  0
   57.0370   32.4150   44.8470 C   0  0  0  0  0  0  0  0  0  0  0  0
   58.2210   32.7440   45.6740 N   0  0  0  0  0  0  0  0  0  0  0  0
   57.8100   33.1260   47.0410 C   0  0  0  0  0  0  0  0  0  0  0  0
   59.0470   33.2040   47.9450 C   0  0  0  0  0  0  0  0  0  0  0  0
   60.1590   33.8570   47.2460 N   0  0  0  0  0  0  0  0  0  0  0  0
   61.5080   33.7150   47.7370 C   0  0  0  0  0  0  0  0  0  0  0  0
   62.5500   33.3580   46.8640 C   0  0  0  0  0  0  0  0  0  0  0  0
   63.8580   33.2340   47.3380 C   0  0  0  0  0  0  0  0  0  0  0  0
   64.1410   33.4700   48.6860 C   0  0  0  0  0  0  0  0  0  0  0  0
   63.1150   33.8350   49.5620 C   0  0  0  0  0  0  0  0  0  0  0  0
   63.4720   34.1450   51.2510 Cl  0  0  0  0  0  0  0  0  0  0  0  0
   61.8030   33.9590   49.0900 C   0  0  0  0  0  0  0  0  0  0  0  0
   59.8670   34.6380   46.0410 C   0  0  0  0  0  0  0  0  0  0  0  0
   59.0720   33.7870   45.0350 C   0  0  0  0  0  0  0  0  0  0  0  0
   58.7300   29.3470   45.0200 C   0  0  0  0  0  0  0  0  0  0  0  0
   59.8640   29.8630   44.8290 O   0  0  0  0  0  0  0  0  0  0  0  0
   54.2350   24.6748   46.5294 H   0  0  0  0  0  0  0  0  0  0  0  0
   53.6254   25.4406   45.0232 H   0  0  0  0  0  0  0  0  0  0  0  0
   55.2107   24.5958   45.0232 H   0  0  0  0  0  0  0  0  0  0  0  0
   57.0515   24.6539   46.8552 H   0  0  0  0  0  0  0  0  0  0  0  0
   59.5207   25.0545   46.8711 H   0  0  0  0  0  0  0  0  0  0  0  0
   60.4588   27.2323   46.0295 H   0  0  0  0  0  0  0  0  0  0  0  0
   58.2093   31.4058   43.3404 H   0  0  0  0  0  0  0  0  0  0  0  0
   56.4265   31.0785   43.2784 H   0  0  0  0  0  0  0  0  0  0  0  0
   56.7824   33.2865   44.2259 H   0  0  0  0  0  0  0  0  0  0  0  0
   56.2077   32.1569   45.5220 H   0  0  0  0  0  0  0  0  0  0  0  0
   57.3136   34.1072   47.0137 H   0  0  0  0  0  0  0  0  0  0  0  0
   57.1133   32.3730   47.4378 H   0  0  0  0  0  0  0  0  0  0  0  0
   58.7988   33.7816   48.8477 H   0  0  0  0  0  0  0  0  0  0  0  0
   59.3512   32.1826   48.2174 H   0  0  0  0  0  0  0  0  0  0  0  0
   62.3341   33.1751   45.8010 H   0  0  0  0  0  0  0  0  0  0  0  0
   64.6670   32.9500   46.6488 H   0  0  0  0  0  0  0  0  0  0  0  0
   65.1713   33.3685   49.0576 H   0  0  0  0  0  0  0  0  0  0  0  0
   60.9982   34.2490   49.7815 H   0  0  0  0  0  0  0  0  0  0  0  0
   59.2744   35.5229   46.3164 H   0  0  0  0  0  0  0  0  0  0  0  0
   60.8145   34.9496   45.5772 H   0  0  0  0  0  0  0  0  0  0  0  0
   58.4223   34.4558   44.4514 H   0  0  0  0  0  0  0  0  0  0  0  0
   59.8065   33.2621   44.4066 H   0  0  0  0  0  0  0  0  0  0  0  0
  1  2  1  0
  2  3  1  0
  3  4  2  0
  4  5  1  0
  5  6  2  0
  6  7  1  0
  7  8  2  0
  8  9  1  0
  9 10  2  0
  9 11  1  0
 11 12  1  0
 12 13  1  0
 13 14  1  0
 14 15  1  0
 15 16  1  0
 16 17  1  0
 17 18  1  0
 18 19  2  0
 19 20  1  0
 20 21  2  0
 21 22  1  0
 22 23  1  0
 22 24  2  0
 17 25  1  0
 25 26  1  0
 11 27  1  0
 27 28  2  0
  8  3  1  0
 26 14  1  0
 27  7  1  0
 24 18  1  0
  1 29  1  0
  1 30  1  0
  1 31  1  0
  4 32  1  0
  5 33  1  0
  6 34  1  0
 12 35  1  0
 12 36  1  0
 13 37  1  0
 13 38  1  0
 15 39  1  0
 15 40  1  0
 16 41  1  0
 16 42  1  0
 19 43  1  0
 20 44  1  0
 21 45  1  0
 24 46  1  0
 25 47  1  0
 25 48  1  0
 26 49  1  0
 26 50  1  0
M  END
>  <UniqueID>  (31) 
25

>  <SMILES>  (31) 
COc1cccc2c1C(=O)N(CCN1CCN(c3cccc(Cl)c3)CC1)C2=O

>  <Energy>  (31) 
93.37432715239613

>  <Genealogy>  (31) 
COc1cccc2c1C(=O)N(CCN1CCN(c3cccc(Cl)c3)CC1)C2=O (3D coordinates assigned)
COc1cccc2c1C(=O)N(CCN1CCN(c3cccc(Cl)c3)CC1)C2=O (nonaromatic ring conformer: 93.37432715239613 kcal/mol)

>  <smiles>  (31) 
COc1cccc2c1C(=O)N(CCN1CCN(c3cccc(Cl)c3)CC1)C2=O

>  <score_type>  (31) 
oracle

>  <origin>  (31) 
adg

>  <m_score__min__energy>  (31) 
-10.130000000000001

>  <m_primary>  (31) 
energy

$$$$
31:0
     RDKit          3D

 52 55  0  0  0  0  0  0  0  0999 V2000
   57.2800   34.5580   45.2580 O   0  0  0  0  0  0  0  0  0  0  0  0
   58.0240   33.5880   45.3340 C   0  0  0  0  0  0  0  0  0  0  0  0
   58.1330   32.6550   44.1550 C   0  0  0  0  0  0  0  0  0  0  0  0
   57.8400   31.2690   44.5590 N   0  0  0  0  0  0  0  0  0  0  0  0
   56.6590   30.7000   44.1690 C   0  0  0  0  0  0  0  0  0  0  0  0
   56.3660   29.3720   44.4750 C   0  0  0  0  0  0  0  0  0  0  0  0
   57.2900   28.6090   45.1920 C   0  0  0  0  0  0  0  0  0  0  0  0
   57.0200   27.2660   45.4980 C   0  0  0  0  0  0  0  0  0  0  0  0
   57.9520   26.5080   46.2110 C   0  0  0  0  0  0  0  0  0  0  0  0
   59.1550   27.0830   46.6220 C   0  0  0  0  0  0  0  0  0  0  0  0
   59.4360   28.4200   46.3230 C   0  0  0  0  0  0  0  0  0  0  0  0
   58.5070   29.1960   45.6040 C   0  0  0  0  0  0  0  0  0  0  0  0
   58.7620   30.5430   45.2760 C   0  0  0  0  0  0  0  0  0  0  0  0
   59.8460   31.0830   45.6360 O   0  0  0  0  0  0  0  0  0  0  0  0
   58.8030   33.3580   46.5380 N   0  0  0  0  0  0  0  0  0  0  0  0
   59.6300   34.5450   46.8590 C   0  0  0  0  0  0  0  0  0  0  0  0
   61.0160   34.1450   47.3110 C   0  0  0  0  0  0  0  0  0  0  0  0
   61.3680   34.2030   48.6700 C   0  0  0  0  0  0  0  0  0  0  0  0
   62.6670   33.8800   49.0750 C   0  0  0  0  0  0  0  0  0  0  0  0
   63.6230   33.5040   48.1280 C   0  0  0  0  0  0  0  0  0  0  0  0
   63.2820   33.4510   46.7730 C   0  0  0  0  0  0  0  0  0  0  0  0
   61.9850   33.7720   46.3640 C   0  0  0  0  0  0  0  0  0  0  0  0
   57.8940   33.0110   47.6570 C   0  0  0  0  0  0  0  0  0  0  0  0
   58.5960   32.1870   48.7110 C   0  0  0  0  0  0  0  0  0  0  0  0
   58.9800   30.8620   48.4470 C   0  0  0  0  0  0  0  0  0  0  0  0
   59.6090   30.1010   49.4380 C   0  0  0  0  0  0  0  0  0  0  0  0
   59.8570   30.6560   50.6960 C   0  0  0  0  0  0  0  0  0  0  0  0
   59.4750   31.9740   50.9670 C   0  0  0  0  0  0  0  0  0  0  0  0
   58.8460   32.7370   49.9790 C   0  0  0  0  0  0  0  0  0  0  0  0
   57.4150   32.9651   43.3815 H   0  0  0  0  0  0  0  0  0  0  0  0
   59.1596   32.6995   43.7625 H   0  0  0  0  0  0  0  0  0  0  0  0
   55.9292   31.2996   43.6052 H   0  0  0  0  0  0  0  0  0  0  0  0
   55.4125   28.9276   44.1535 H   0  0  0  0  0  0  0  0  0  0  0  0
   56.0726   26.8094   45.1757 H   0  0  0  0  0  0  0  0  0  0  0  0
   57.7370   25.4558   46.4489 H   0  0  0  0  0  0  0  0  0  0  0  0
   59.8855   26.4822   47.1836 H   0  0  0  0  0  0  0  0  0  0  0  0
   60.3862   28.8669   46.6507 H   0  0  0  0  0  0  0  0  0  0  0  0
   59.4490   32.5520   46.3740 H   0  0  0  0  0  0  0  0  0  0  0  0
   59.7142   35.1759   45.9618 H   0  0  0  0  0  0  0  0  0  0  0  0
   59.1436   35.0948   47.6782 H   0  0  0  0  0  0  0  0  0  0  0  0
   60.6194   34.5035   49.4178 H   0  0  0  0  0  0  0  0  0  0  0  0
   62.9365   33.9220   50.1407 H   0  0  0  0  0  0  0  0  0  0  0  0
   64.6441   33.2496   48.4484 H   0  0  0  0  0  0  0  0  0  0  0  0
   64.0357   33.1562   46.0280 H   0  0  0  0  0  0  0  0  0  0  0  0
   61.7215   33.7326   45.2968 H   0  0  0  0  0  0  0  0  0  0  0  0
   57.5246   33.9392   48.1174 H   0  0  0  0  0  0  0  0  0  0  0  0
   57.0631   32.4146   47.2521 H   0  0  0  0  0  0  0  0  0  0  0  0
   58.7855   30.4214   47.4580 H   0  0  0  0  0  0  0  0  0  0  0  0
   59.9088   29.0640   49.2265 H   0  0  0  0  0  0  0  0  0  0  0  0
   60.3528   30.0563   51.4735 H   0  0  0  0  0  0  0  0  0  0  0  0
   59.6696   32.4102   51.9579 H   0  0  0  0  0  0  0  0  0  0  0  0
   58.5455   33.7728   50.1955 H   0  0  0  0  0  0  0  0  0  0  0  0
  1  2  2  0
  2  3  1  0
  3  4  1  0
  4  5  1  0
  5  6  2  0
  6  7  1  0
  7  8  2  0
  8  9  1  0
  9 10  2  0
 10 11  1  0
 11 12  2  0
 12 13  1  0
 13 14  2  0
  2 15  1  0
 15 16  1  0
 16 17  1  0
 17 18  2  0
 18 19  1  0
 19 20  2  0
 20 21  1  0
 21 22  2  0
 15 23  1  0
 23 24  1  0
 24 25  2  0
 25 26  1  0
 26 27  2  0
 27 28  1  0
 28 29  2  0
 13  4  1  0
 22 17  1  0
 29 24  1  0
 12  7  1  0
  3 30  1  0
  3 31  1  0
  5 32  1  0
  6 33  1  0
  8 34  1  0
  9 35  1  0
 10 36  1  0
 11 37  1  0
 15 38  1  0
 16 39  1  0
 16 40  1  0
 18 41  1  0
 19 42  1  0
 20 43  1  0
 21 44  1  0
 22 45  1  0
 23 46  1  0
 23 47  1  0
 25 48  1  0
 26 49  1  0
 27 50  1  0
 28 51  1  0
 29 52  1  0
M  CHG  1  15   1
M  END
>  <UniqueID>  (32) 
26

>  <SMILES>  (32) 
O=C(Cn1ccc2ccccc2c1=O)[NH+](Cc1ccccc1)Cc1ccccc1

>  <Energy>  (32) 
60.853330247469806

>  <Genealogy>  (32) 
O=C(Cn1ccc2ccccc2c1=O)[NH+](Cc1ccccc1)Cc1ccccc1 (protonated)
O=C(Cn1ccc2ccccc2c1=O)[NH+](Cc1ccccc1)Cc1ccccc1 (3D coordinates assigned)
O=C(Cn1ccc2ccccc2c1=O)[NH+](Cc1ccccc1)Cc1ccccc1 (optimized conformer: 60.853330247469806 kcal/mol)

>  <smiles>  (32) 
O=C(Cn1ccc2ccccc2c1=O)N(Cc1ccccc1)Cc1ccccc1

>  <score_type>  (32) 
oracle

>  <origin>  (32) 
adg

>  <m_score__min__energy>  (32) 
-7.0599999999999996

>  <m_primary>  (32) 
energy

$$$$
32:0
     RDKit          3D

 46 48  0  0  0  0  0  0  0  0999 V2000
   55.1470   26.2130   45.9860 N   0  0  0  0  0  0  0  0  0  0  0  0
   56.8680   26.3600   46.0010 S   0  0  0  0  0  0  0  0  0  0  0  0
   57.4000   25.9180   47.3360 O   0  0  0  0  0  0  0  0  0  0  0  0
   57.4520   25.4790   44.9330 O   0  0  0  0  0  0  0  0  0  0  0  0
   57.3180   28.0400   45.7180 C   0  0  0  0  0  0  0  0  0  0  0  0
   56.4700   28.8720   44.9750 C   0  0  0  0  0  0  0  0  0  0  0  0
   56.8190   30.2050   44.7400 C   0  0  0  0  0  0  0  0  0  0  0  0
   58.0330   30.7170   45.2360 C   0  0  0  0  0  0  0  0  0  0  0  0
   58.4210   32.0850   45.0330 N   0  0  0  0  0  0  0  0  0  0  0  0
   57.8410   33.2350   45.6610 C   0  0  0  0  0  0  0  0  0  0  0  0
   56.7290   33.1580   46.2500 O   0  0  0  0  0  0  0  0  0  0  0  0
   58.5310   34.5600   45.5530 C   0  0  0  0  0  0  0  0  0  0  0  0
   59.6680   34.6350   46.4940 N   0  0  0  0  0  0  0  0  0  0  0  0
   60.8750   33.9380   45.9640 C   0  0  0  0  0  0  0  0  0  0  0  0
   61.6430   33.1020   47.0080 C   0  0  0  0  0  0  0  0  0  0  0  0
   61.6450   33.7630   48.3190 N   0  0  0  0  0  0  0  0  0  0  0  0
   62.7670   33.6080   49.2150 C   0  0  0  0  0  0  0  0  0  0  0  0
   62.7950   34.2870   50.4460 C   0  0  0  0  0  0  0  0  0  0  0  0
   63.8780   34.1280   51.3200 C   0  0  0  0  0  0  0  0  0  0  0  0
   64.9400   33.2860   50.9760 C   0  0  0  0  0  0  0  0  0  0  0  0
   65.9890   33.1380   51.8220 F   0  0  0  0  0  0  0  0  0  0  0  0
   64.9210   32.6010   49.7580 C   0  0  0  0  0  0  0  0  0  0  0  0
   63.8420   32.7610   48.8790 C   0  0  0  0  0  0  0  0  0  0  0  0
   60.4050   34.3720   48.8190 C   0  0  0  0  0  0  0  0  0  0  0  0
   59.2590   34.1650   47.8300 C   0  0  0  0  0  0  0  0  0  0  0  0
   58.8650   29.8880   45.9970 C   0  0  0  0  0  0  0  0  0  0  0  0
   58.5180   28.5540   46.2270 C   0  0  0  0  0  0  0  0  0  0  0  0
   54.7640   27.0700   46.4470 H   0  0  0  0  0  0  0  0  0  0  0  0
   55.5256   28.4745   44.5749 H   0  0  0  0  0  0  0  0  0  0  0  0
   56.1431   30.8558   44.1659 H   0  0  0  0  0  0  0  0  0  0  0  0
   58.9029   34.6908   44.5261 H   0  0  0  0  0  0  0  0  0  0  0  0
   57.8123   35.3544   45.8027 H   0  0  0  0  0  0  0  0  0  0  0  0
   60.5553   33.2659   45.1540 H   0  0  0  0  0  0  0  0  0  0  0  0
   61.5655   34.7242   45.6246 H   0  0  0  0  0  0  0  0  0  0  0  0
   61.1623   32.1172   47.1033 H   0  0  0  0  0  0  0  0  0  0  0  0
   62.6843   32.9938   46.6705 H   0  0  0  0  0  0  0  0  0  0  0  0
   61.9607   34.9476   50.7246 H   0  0  0  0  0  0  0  0  0  0  0  0
   63.8930   34.6666   52.2790 H   0  0  0  0  0  0  0  0  0  0  0  0
   65.7544   31.9353   49.4892 H   0  0  0  0  0  0  0  0  0  0  0  0
   63.8338   32.2219   47.9202 H   0  0  0  0  0  0  0  0  0  0  0  0
   60.1388   33.9093   49.7808 H   0  0  0  0  0  0  0  0  0  0  0  0
   60.5698   35.4523   48.9451 H   0  0  0  0  0  0  0  0  0  0  0  0
   59.0068   33.0954   47.7805 H   0  0  0  0  0  0  0  0  0  0  0  0
   58.3800   34.7354   48.1647 H   0  0  0  0  0  0  0  0  0  0  0  0
   59.7990   30.2894   46.4172 H   0  0  0  0  0  0  0  0  0  0  0  0
   59.1890   27.9055   46.8094 H   0  0  0  0  0  0  0  0  0  0  0  0
  1  2  1  0
  2  3  2  0
  2  4  2  0
  2  5  1  0
  5  6  2  0
  6  7  1  0
  7  8  2  0
  8  9  1  0
  9 10  1  0
 10 11  2  0
 10 12  1  0
 12 13  1  0
 13 14  1  0
 14 15  1  0
 15 16  1  0
 16 17  1  0
 17 18  2  0
 18 19  1  0
 19 20  2  0
 20 21  1  0
 20 22  1  0
 22 23  2  0
 16 24  1  0
 24 25  1  0
  8 26  1  0
 26 27  2  0
 27  5  1  0
 25 13  1  0
 23 17  1  0
  1 28  1  0
  6 29  1  0
  7 30  1  0
 12 31  1  0
 12 32  1  0
 14 33  1  0
 14 34  1  0
 15 35  1  0
 15 36  1  0
 18 37  1  0
 19 38  1  0
 22 39  1  0
 23 40  1  0
 24 41  1  0
 24 42  1  0
 25 43  1  0
 25 44  1  0
 26 45  1  0
 27 46  1  0
M  CHG  2   1  -1   9  -1
M  END
>  <UniqueID>  (33) 
27

>  <SMILES>  (33) 
[NH-]S(=O)(=O)c1ccc([N-]C(=O)CN2CCN(c3ccc(F)cc3)CC2)cc1

>  <Energy>  (33) 
59.87638775889356

>  <Genealogy>  (33) 
[NH-]S(=O)(=O)c1ccc([N-]C(=O)CN2CCN(c3ccc(F)cc3)CC2)cc1 (protonated)
[NH-]S(=O)(=O)c1ccc([N-]C(=O)CN2CCN(c3ccc(F)cc3)CC2)cc1 (3D coordinates assigned)
[NH-]S(=O)(=O)c1ccc([N-]C(=O)CN2CCN(c3ccc(F)cc3)CC2)cc1 (nonaromatic ring conformer: 59.87638775889356 kcal/mol)

>  <smiles>  (33) 
NS(=O)(=O)c1ccc(NC(=O)CN2CCN(c3ccc(F)cc3)CC2)cc1

>  <score_type>  (33) 
oracle

>  <origin>  (33) 
adg

>  <m_score__min__energy>  (33) 
-11.890000000000001

>  <m_primary>  (33) 
energy

$$$$
33:0
     RDKit          3D

 48 51  0  0  0  0  0  0  0  0999 V2000
   60.2490   34.6180   48.0120 C   0  0  0  0  0  0  0  0  0  0  0  0
   59.4300   34.2250   46.8250 C   0  0  0  0  0  0  0  0  0  0  0  0
   58.9220   35.0890   45.9780 O   0  0  0  0  0  0  0  0  0  0  0  0
   58.2880   34.4900   45.0130 N   0  0  0  0  0  0  0  0  0  0  0  0
   58.3740   33.1620   45.2380 C   0  0  0  0  0  0  0  0  0  0  0  0
   57.7650   32.1560   44.3410 C   0  0  0  0  0  0  0  0  0  0  0  0
   57.0880   31.0320   44.8530 C   0  0  0  0  0  0  0  0  0  0  0  0
   56.5120   30.1010   43.9830 C   0  0  0  0  0  0  0  0  0  0  0  0
   56.5890   30.2880   42.6010 C   0  0  0  0  0  0  0  0  0  0  0  0
   57.2380   31.4110   42.0850 C   0  0  0  0  0  0  0  0  0  0  0  0
   57.8190   32.3450   42.9480 C   0  0  0  0  0  0  0  0  0  0  0  0
   59.0950   32.9470   46.4070 C   0  0  0  0  0  0  0  0  0  0  0  0
   59.5480   31.6590   46.9690 C   0  0  0  0  0  0  0  0  0  0  0  0
   59.6300   30.6560   46.2110 O   0  0  0  0  0  0  0  0  0  0  0  0
   59.9100   31.5520   48.3560 N   0  0  0  0  0  0  0  0  0  0  0  0
   60.2210   30.3100   49.0050 C   0  0  0  0  0  0  0  0  0  0  0  0
   60.3520   30.2780   50.4010 C   0  0  0  0  0  0  0  0  0  0  0  0
   60.6310   29.0760   51.0560 C   0  0  0  0  0  0  0  0  0  0  0  0
   60.7490   27.8910   50.3270 C   0  0  0  0  0  0  0  0  0  0  0  0
   60.5700   27.8940   48.9390 C   0  0  0  0  0  0  0  0  0  0  0  0
   60.6670   26.6530   48.2250 N   0  0  0  0  0  0  0  0  0  0  0  0
   60.1310   26.3780   46.9230 C   0  0  0  0  0  0  0  0  0  0  0  0
   60.9300   26.0860   45.9940 O   0  0  0  0  0  0  0  0  0  0  0  0
   58.6730   26.3780   46.6530 C   0  0  0  0  0  0  0  0  0  0  0  0
   58.0580   27.4610   45.9990 C   0  0  0  0  0  0  0  0  0  0  0  0
   56.6850   27.4430   45.7360 C   0  0  0  0  0  0  0  0  0  0  0  0
   55.9090   26.3520   46.1380 C   0  0  0  0  0  0  0  0  0  0  0  0
   54.5450   26.3330   45.8740 O   0  0  0  0  0  0  0  0  0  0  0  0
   56.5060   25.2820   46.8120 C   0  0  0  0  0  0  0  0  0  0  0  0
   57.8790   25.2970   47.0730 C   0  0  0  0  0  0  0  0  0  0  0  0
   60.3270   29.1110   48.2770 C   0  0  0  0  0  0  0  0  0  0  0  0
   59.7074   34.3581   48.9335 H   0  0  0  0  0  0  0  0  0  0  0  0
   61.2097   34.0828   47.9880 H   0  0  0  0  0  0  0  0  0  0  0  0
   60.4326   35.7023   47.9880 H   0  0  0  0  0  0  0  0  0  0  0  0
   57.0121   30.8861   45.9406 H   0  0  0  0  0  0  0  0  0  0  0  0
   55.9963   29.2181   44.3886 H   0  0  0  0  0  0  0  0  0  0  0  0
   56.1386   29.5510   41.9198 H   0  0  0  0  0  0  0  0  0  0  0  0
   57.2924   31.5615   40.9967 H   0  0  0  0  0  0  0  0  0  0  0  0
   58.3211   33.2325   42.5355 H   0  0  0  0  0  0  0  0  0  0  0  0
   59.9810   32.4220   48.9270 H   0  0  0  0  0  0  0  0  0  0  0  0
   60.2345   31.2040   50.9831 H   0  0  0  0  0  0  0  0  0  0  0  0
   60.7580   29.0631   52.1486 H   0  0  0  0  0  0  0  0  0  0  0  0
   60.9839   26.9502   50.8463 H   0  0  0  0  0  0  0  0  0  0  0  0
   58.6615   28.3280   45.6924 H   0  0  0  0  0  0  0  0  0  0  0  0
   56.2148   28.2883   45.2121 H   0  0  0  0  0  0  0  0  0  0  0  0
   55.8943   24.4275   47.1371 H   0  0  0  0  0  0  0  0  0  0  0  0
   58.3416   24.4565   47.6111 H   0  0  0  0  0  0  0  0  0  0  0  0
   60.2191   29.1253   47.1824 H   0  0  0  0  0  0  0  0  0  0  0  0
  1  2  1  0
  2  3  1  0
  3  4  1  0
  4  5  2  0
  5  6  1  0
  6  7  2  0
  7  8  1  0
  8  9  2  0
  9 10  1  0
 10 11  2  0
  5 12  1  0
 12 13  1  0
 13 14  2  0
 13 15  1  0
 15 16  1  0
 16 17  2  0
 17 18  1  0
 18 19  2  0
 19 20  1  0
 20 21  1  0
 21 22  1  0
 22 23  2  0
 22 24  1  0
 24 25  2  0
 25 26  1  0
 26 27  2  0
 27 28  1  0
 27 29  1  0
 29 30  2  0
 20 31  2  0
 12  2  2  0
 31 16  1  0
 11  6  1  0
 30 24  1  0
  1 32  1  0
  1 33  1  0
  1 34  1  0
  7 35  1  0
  8 36  1  0
  9 37  1  0
 10 38  1  0
 11 39  1  0
 15 40  1  0
 17 41  1  0
 18 42  1  0
 19 43  1  0
 25 44  1  0
 26 45  1  0
 29 46  1  0
 30 47  1  0
 31 48  1  0
M  CHG  2  21  -1  28  -1
M  END
>  <UniqueID>  (34) 
28

>  <SMILES>  (34) 
Cc1onc(-c2ccccc2)c1C(=O)Nc1cccc([N-]C(=O)c2ccc([O-])cc2)c1

>  <Energy>  (34) 
98.5188796297339

>  <Genealogy>  (34) 
Cc1onc(-c2ccccc2)c1C(=O)Nc1cccc([N-]C(=O)c2ccc([O-])cc2)c1 (protonated)
Cc1onc(-c2ccccc2)c1C(=O)Nc1cccc([N-]C(=O)c2ccc([O-])cc2)c1 (3D coordinates assigned)
Cc1onc(-c2ccccc2)c1C(=O)Nc1cccc([N-]C(=O)c2ccc([O-])cc2)c1 (optimized conformer: 98.5188796297339 kcal/mol)

>  <smiles>  (34) 
Cc1onc(-c2ccccc2)c1C(=O)Nc1cccc(NC(=O)c2ccc(O)cc2)c1

>  <score_type>  (34) 
oracle

>  <origin>  (34) 
adg

>  <m_score__min__energy>  (34) 
-15.02

>  <m_primary>  (34) 
energy

$$$$
34:0
     RDKit          3D

 42 44  0  0  0  0  0  0  0  0999 V2000
   56.6860   21.6570   42.9820 C   0  0  0  0  0  0  0  0  0  0  0  0
   56.8810   22.9370   43.6510 N   0  0  0  0  0  0  0  0  0  0  0  0
   56.9600   24.1500   43.0680 C   0  0  0  0  0  0  0  0  0  0  0  0
   57.0520   25.1510   43.9700 N   0  0  0  0  0  0  0  0  0  0  0  0
   57.0160   24.5170   45.1590 C   0  0  0  0  0  0  0  0  0  0  0  0
   57.0940   25.3340   46.7070 S   0  0  0  0  0  0  0  0  0  0  0  0
   58.5270   25.3770   47.1580 O   0  0  0  0  0  0  0  0  0  0  0  0
   56.2530   24.5820   47.6990 O   0  0  0  0  0  0  0  0  0  0  0  0
   56.4950   26.9510   46.5160 N   0  0  0  0  0  0  0  0  0  0  0  0
   57.1590   28.0810   45.9260 C   0  0  0  0  0  0  0  0  0  0  0  0
   58.5350   28.2100   46.1600 C   0  0  0  0  0  0  0  0  0  0  0  0
   59.2630   29.2930   45.6330 C   0  0  0  0  0  0  0  0  0  0  0  0
   60.6390   29.4660   45.8590 O   0  0  0  0  0  0  0  0  0  0  0  0
   61.2130   30.3510   46.8210 C   0  0  0  0  0  0  0  0  0  0  0  0
   60.2970   30.5280   48.0040 C   0  0  0  0  0  0  0  0  0  0  0  0
   59.5960   31.7300   48.1880 C   0  0  0  0  0  0  0  0  0  0  0  0
   58.7390   31.8870   49.2820 C   0  0  0  0  0  0  0  0  0  0  0  0
   58.5610   30.8400   50.2050 C   0  0  0  0  0  0  0  0  0  0  0  0
   57.6540   31.0010   51.3630 C   0  0  0  0  0  0  0  0  0  0  0  0
   56.8980   30.0600   51.7190 O   0  0  0  0  0  0  0  0  0  0  0  0
   57.6240   32.1960   52.0740 O   0  0  0  0  0  0  0  0  0  0  0  0
   59.2540   29.6340   50.0080 C   0  0  0  0  0  0  0  0  0  0  0  0
   60.1110   29.4780   48.9140 C   0  0  0  0  0  0  0  0  0  0  0  0
   58.5990   30.2430   44.8520 C   0  0  0  0  0  0  0  0  0  0  0  0
   57.2320   30.1230   44.6040 C   0  0  0  0  0  0  0  0  0  0  0  0
   56.5040   29.0520   45.1330 C   0  0  0  0  0  0  0  0  0  0  0  0
   55.1470   28.9770   44.8510 O   0  0  0  0  0  0  0  0  0  0  0  0
   56.9010   23.1580   44.9750 C   0  0  0  0  0  0  0  0  0  0  0  0
   56.5652   20.8643   43.7351 H   0  0  0  0  0  0  0  0  0  0  0  0
   55.7849   21.7055   42.3530 H   0  0  0  0  0  0  0  0  0  0  0  0
   57.5607   21.4350   42.3530 H   0  0  0  0  0  0  0  0  0  0  0  0
   56.9506   24.3069   41.9793 H   0  0  0  0  0  0  0  0  0  0  0  0
   59.0542   27.4524   46.7654 H   0  0  0  0  0  0  0  0  0  0  0  0
   62.1709   29.9349   47.1665 H   0  0  0  0  0  0  0  0  0  0  0  0
   61.3681   31.3316   46.3473 H   0  0  0  0  0  0  0  0  0  0  0  0
   59.7213   32.5524   47.4683 H   0  0  0  0  0  0  0  0  0  0  0  0
   58.2002   32.8358   49.4219 H   0  0  0  0  0  0  0  0  0  0  0  0
   59.1215   28.8059   50.7198 H   0  0  0  0  0  0  0  0  0  0  0  0
   60.6421   28.5261   48.7667 H   0  0  0  0  0  0  0  0  0  0  0  0
   59.1584   31.0910   44.4301 H   0  0  0  0  0  0  0  0  0  0  0  0
   56.7216   30.8772   43.9869 H   0  0  0  0  0  0  0  0  0  0  0  0
   56.8374   22.3954   45.7651 H   0  0  0  0  0  0  0  0  0  0  0  0
  1  2  1  0
  2  3  1  0
  3  4  2  0
  4  5  1  0
  5  6  1  0
  6  7  2  0
  6  8  2  0
  6  9  1  0
  9 10  1  0
 10 11  2  0
 11 12  1  0
 12 13  1  0
 13 14  1  0
 14 15  1  0
 15 16  2  0
 16 17  1  0
 17 18  2  0
 18 19  1  0
 19 20  2  0
 19 21  1  0
 18 22  1  0
 22 23  2  0
 12 24  2  0
 24 25  1  0
 25 26  2  0
 26 27  1  0
  5 28  2  0
 28  2  1  0
 26 10  1  0
 23 15  1  0
  1 29  1  0
  1 30  1  0
  1 31  1  0
  3 32  1  0
 11 33  1  0
 14 34  1  0
 14 35  1  0
 16 36  1  0
 17 37  1  0
 22 38  1  0
 23 39  1  0
 24 40  1  0
 25 41  1  0
 28 42  1  0
M  CHG  3   9  -1  21  -1  27  -1
M  END
>  <UniqueID>  (35) 
29

>  <SMILES>  (35) 
Cn1cnc(S(=O)(=O)[N-]c2cc(OCc3ccc(C(=O)[O-])cc3)ccc2[O-])c1

>  <Energy>  (35) 
80.50044006736485

>  <Genealogy>  (35) 
Cn1cnc(S(=O)(=O)[N-]c2cc(OCc3ccc(C(=O)[O-])cc3)ccc2[O-])c1 (protonated)
Cn1cnc(S(=O)(=O)[N-]c2cc(OCc3ccc(C(=O)[O-])cc3)ccc2[O-])c1 (3D coordinates assigned)
Cn1cnc(S(=O)(=O)[N-]c2cc(OCc3ccc(C(=O)[O-])cc3)ccc2[O-])c1 (optimized conformer: 80.50044006736485 kcal/mol)

>  <smiles>  (35) 
Cn1cnc(S(=O)(=O)Nc2cc(OCc3ccc(C(=O)O)cc3)ccc2O)c1

>  <score_type>  (35) 
oracle

>  <origin>  (35) 
adg

>  <m_score__min__energy>  (35) 
-14.029999999999999

>  <m_primary>  (35) 
energy

$$$$
35:0
     RDKit          3D

 48 50  0  0  0  0  0  0  0  0999 V2000
   64.3340   33.0850   47.7650 N   0  0  0  0  0  0  0  0  0  0  0  0
   62.7100   32.8730   47.2040 S   0  0  0  0  0  0  0  0  0  0  0  0
   62.5580   31.4430   46.7640 O   0  0  0  0  0  0  0  0  0  0  0  0
   62.4760   33.7830   46.0310 O   0  0  0  0  0  0  0  0  0  0  0  0
   61.5340   33.2410   48.4810 C   0  0  0  0  0  0  0  0  0  0  0  0
   62.0010   33.5680   49.7660 C   0  0  0  0  0  0  0  0  0  0  0  0
   61.1050   33.8190   50.8070 C   0  0  0  0  0  0  0  0  0  0  0  0
   59.7310   33.7510   50.5790 C   0  0  0  0  0  0  0  0  0  0  0  0
   59.2480   33.4430   49.3070 C   0  0  0  0  0  0  0  0  0  0  0  0
   60.1370   33.2000   48.2460 C   0  0  0  0  0  0  0  0  0  0  0  0
   59.5700   32.9160   46.9130 C   0  0  0  0  0  0  0  0  0  0  0  0
   59.1780   33.9680   46.0710 C   0  0  0  0  0  0  0  0  0  0  0  0
   58.6200   33.6960   44.8190 C   0  0  0  0  0  0  0  0  0  0  0  0
   58.4310   32.3700   44.3990 C   0  0  0  0  0  0  0  0  0  0  0  0
   57.7920   32.0770   43.0650 C   0  0  0  0  0  0  0  0  0  0  0  0
   56.6370   31.1740   43.1820 N   0  0  0  0  0  0  0  0  0  0  0  0
   57.0130   29.7750   43.4590 C   0  0  0  0  0  0  0  0  0  0  0  0
   56.2080   29.1800   44.5920 C   0  0  0  0  0  0  0  0  0  0  0  0
   55.1480   29.7520   44.9590 O   0  0  0  0  0  0  0  0  0  0  0  0
   56.6360   28.0070   45.2980 N   0  0  0  0  0  0  0  0  0  0  0  0
   57.8750   27.8340   45.9990 C   0  0  0  0  0  0  0  0  0  0  0  0
   58.1680   28.5530   47.1710 C   0  0  0  0  0  0  0  0  0  0  0  0
   59.3980   28.3790   47.8140 C   0  0  0  0  0  0  0  0  0  0  0  0
   60.3500   27.5050   47.2810 C   0  0  0  0  0  0  0  0  0  0  0  0
   60.0770   26.8130   46.0970 C   0  0  0  0  0  0  0  0  0  0  0  0
   58.8480   26.9860   45.4530 C   0  0  0  0  0  0  0  0  0  0  0  0
   58.8160   31.3190   45.2480 C   0  0  0  0  0  0  0  0  0  0  0  0
   59.3810   31.5910   46.4970 C   0  0  0  0  0  0  0  0  0  0  0  0
   64.9520   33.1490   46.9250 H   0  0  0  0  0  0  0  0  0  0  0  0
   64.6030   32.2220   48.2890 H   0  0  0  0  0  0  0  0  0  0  0  0
   63.0833   33.6267   49.9533 H   0  0  0  0  0  0  0  0  0  0  0  0
   61.4836   34.0708   51.8086 H   0  0  0  0  0  0  0  0  0  0  0  0
   59.0273   33.9404   51.4029 H   0  0  0  0  0  0  0  0  0  0  0  0
   58.1631   33.3899   49.1332 H   0  0  0  0  0  0  0  0  0  0  0  0
   59.3104   35.0100   46.3975 H   0  0  0  0  0  0  0  0  0  0  0  0
   58.3272   34.5257   44.1588 H   0  0  0  0  0  0  0  0  0  0  0  0
   57.4557   33.0245   42.6189 H   0  0  0  0  0  0  0  0  0  0  0  0
   58.5441   31.5791   42.4354 H   0  0  0  0  0  0  0  0  0  0  0  0
   55.9580   31.5400   43.8900 H   0  0  0  0  0  0  0  0  0  0  0  0
   56.8435   29.1765   42.5518 H   0  0  0  0  0  0  0  0  0  0  0  0
   58.0723   29.7627   43.7551 H   0  0  0  0  0  0  0  0  0  0  0  0
   57.4279   29.2544   47.5836 H   0  0  0  0  0  0  0  0  0  0  0  0
   59.6165   28.9306   48.7403 H   0  0  0  0  0  0  0  0  0  0  0  0
   61.3132   27.3618   47.7926 H   0  0  0  0  0  0  0  0  0  0  0  0
   60.8294   26.1323   45.6721 H   0  0  0  0  0  0  0  0  0  0  0  0
   58.6437   26.4534   44.5124 H   0  0  0  0  0  0  0  0  0  0  0  0
   58.6720   30.2765   44.9280 H   0  0  0  0  0  0  0  0  0  0  0  0
   59.6785   30.7621   47.1561 H   0  0  0  0  0  0  0  0  0  0  0  0
  1  2  1  0
  2  3  2  0
  2  4  2  0
  2  5  1  0
  5  6  2  0
  6  7  1  0
  7  8  2  0
  8  9  1  0
  9 10  2  0
 10 11  1  0
 11 12  2  0
 12 13  1  0
 13 14  2  0
 14 15  1  0
 15 16  1  0
 16 17  1  0
 17 18  1  0
 18 19  2  0
 18 20  1  0
 20 21  1  0
 21 22  2  0
 22 23  1  0
 23 24  2  0
 24 25  1  0
 25 26  2  0
 14 27  1  0
 27 28  2  0
 10  5  1  0
 28 11  1  0
 26 21  1  0
  1 29  1  0
  1 30  1  0
  6 31  1  0
  7 32  1  0
  8 33  1  0
  9 34  1  0
 12 35  1  0
 13 36  1  0
 15 37  1  0
 15 38  1  0
 16 39  1  0
 17 40  1  0
 17 41  1  0
 22 42  1  0
 23 43  1  0
 24 44  1  0
 25 45  1  0
 26 46  1  0
 27 47  1  0
 28 48  1  0
M  CHG  1  20  -1
M  END
>  <UniqueID>  (36) 
30

>  <SMILES>  (36) 
NS(=O)(=O)c1ccccc1-c1ccc(CNCC(=O)[N-]c2ccccc2)cc1

>  <Energy>  (36) 
61.53397112281182

>  <Genealogy>  (36) 
NS(=O)(=O)c1ccccc1-c1ccc(CNCC(=O)[N-]c2ccccc2)cc1 (protonated)
NS(=O)(=O)c1ccccc1-c1ccc(CNCC(=O)[N-]c2ccccc2)cc1 (3D coordinates assigned)
NS(=O)(=O)c1ccccc1-c1ccc(CNCC(=O)[N-]c2ccccc2)cc1 (optimized conformer: 61.53397112281182 kcal/mol)

>  <smiles>  (36) 
NS(=O)(=O)c1ccccc1-c1ccc(CNCC(=O)Nc2ccccc2)cc1

>  <score_type>  (36) 
oracle

>  <origin>  (36) 
adg

>  <m_score__min__energy>  (36) 
-10.99

>  <m_primary>  (36) 
energy

$$$$
36:0
     RDKit          3D

 60 64  0  0  0  0  0  0  0  0999 V2000
   55.3540   29.1280   44.6700 O   0  0  0  0  0  0  0  0  0  0  0  0
   56.5770   29.9790   44.4700 S   0  0  0  0  0  0  0  0  0  0  0  0
   56.9920   29.8850   43.0270 O   0  0  0  0  0  0  0  0  0  0  0  0
   56.2670   31.6430   44.8660 N   0  0  0  0  0  0  0  0  0  0  0  0
   57.1640   32.5290   45.1800 C   0  0  0  0  0  0  0  0  0  0  0  0
   58.0290   33.0090   44.1900 C   0  0  0  0  0  0  0  0  0  0  0  0
   59.0170   33.9360   44.5310 C   0  0  0  0  0  0  0  0  0  0  0  0
   59.1270   34.3800   45.8490 C   0  0  0  0  0  0  0  0  0  0  0  0
   60.0830   35.2770   46.1940 F   0  0  0  0  0  0  0  0  0  0  0  0
   58.2400   33.8900   46.8110 C   0  0  0  0  0  0  0  0  0  0  0  0
   57.2890   32.9840   46.4590 N   0  0  0  0  0  0  0  0  0  0  0  0
   57.8660   29.3770   45.5160 C   0  0  0  0  0  0  0  0  0  0  0  0
   59.0120   30.1590   45.7240 C   0  0  0  0  0  0  0  0  0  0  0  0
   60.0450   29.7010   46.5520 C   0  0  0  0  0  0  0  0  0  0  0  0
   61.2000   30.5190   46.7480 N   0  0  0  0  0  0  0  0  0  0  0  0
   61.3580   31.6150   48.0820 S   0  0  0  0  0  0  0  0  0  0  0  0
   61.2780   33.0270   47.5730 O   0  0  0  0  0  0  0  0  0  0  0  0
   62.7030   31.4140   48.7210 O   0  0  0  0  0  0  0  0  0  0  0  0
   60.1060   31.3440   49.2900 C   0  0  0  0  0  0  0  0  0  0  0  0
   59.1410   32.3300   49.5360 C   0  0  0  0  0  0  0  0  0  0  0  0
   58.1230   32.1010   50.4660 C   0  0  0  0  0  0  0  0  0  0  0  0
   58.0520   30.8820   51.1620 C   0  0  0  0  0  0  0  0  0  0  0  0
   56.9670   30.6360   52.1460 C   0  0  0  0  0  0  0  0  0  0  0  0
   57.2670   30.1800   53.4440 C   0  0  0  0  0  0  0  0  0  0  0  0
   56.2430   29.9480   54.3670 C   0  0  0  0  0  0  0  0  0  0  0  0
   54.9110   30.1670   54.0080 C   0  0  0  0  0  0  0  0  0  0  0  0
   53.9200   29.9410   54.9050 F   0  0  0  0  0  0  0  0  0  0  0  0
   54.6010   30.6210   52.7240 C   0  0  0  0  0  0  0  0  0  0  0  0
   55.6210   30.8540   51.7960 C   0  0  0  0  0  0  0  0  0  0  0  0
   59.0250   29.8970   50.9090 C   0  0  0  0  0  0  0  0  0  0  0  0
   60.0420   30.1260   49.9790 C   0  0  0  0  0  0  0  0  0  0  0  0
   59.9540   28.4290   47.1330 C   0  0  0  0  0  0  0  0  0  0  0  0
   58.8150   27.6470   46.9370 C   0  0  0  0  0  0  0  0  0  0  0  0
   57.7610   28.1210   46.1480 C   0  0  0  0  0  0  0  0  0  0  0  0
   56.6200   27.3290   45.9910 O   0  0  0  0  0  0  0  0  0  0  0  0
   56.6540   25.9900   45.5750 C   0  0  0  0  0  0  0  0  0  0  0  0
   55.9210   25.0440   46.3020 C   0  0  0  0  0  0  0  0  0  0  0  0
   55.9470   23.6950   45.9350 C   0  0  0  0  0  0  0  0  0  0  0  0
   56.6950   23.2850   44.8290 C   0  0  0  0  0  0  0  0  0  0  0  0
   57.4170   24.2230   44.0870 C   0  0  0  0  0  0  0  0  0  0  0  0
   57.3980   25.5720   44.4550 C   0  0  0  0  0  0  0  0  0  0  0  0
   57.9317   32.6592   43.1517 H   0  0  0  0  0  0  0  0  0  0  0  0
   59.7065   34.3149   43.7622 H   0  0  0  0  0  0  0  0  0  0  0  0
   58.3109   34.2369   47.8525 H   0  0  0  0  0  0  0  0  0  0  0  0
   59.1001   31.1394   45.2331 H   0  0  0  0  0  0  0  0  0  0  0  0
   59.1848   33.2871   48.9955 H   0  0  0  0  0  0  0  0  0  0  0  0
   57.3711   32.8814   50.6548 H   0  0  0  0  0  0  0  0  0  0  0  0
   58.3137   30.0052   53.7336 H   0  0  0  0  0  0  0  0  0  0  0  0
   56.4869   29.5920   55.3788 H   0  0  0  0  0  0  0  0  0  0  0  0
   53.5522   30.7957   52.4421 H   0  0  0  0  0  0  0  0  0  0  0  0
   55.3699   31.2100   50.7859 H   0  0  0  0  0  0  0  0  0  0  0  0
   58.9843   28.9390   51.4480 H   0  0  0  0  0  0  0  0  0  0  0  0
   60.7950   29.3474   49.7871 H   0  0  0  0  0  0  0  0  0  0  0  0
   60.7833   28.0457   47.7457 H   0  0  0  0  0  0  0  0  0  0  0  0
   58.7454   26.6538   47.4047 H   0  0  0  0  0  0  0  0  0  0  0  0
   55.3213   25.3639   47.1668 H   0  0  0  0  0  0  0  0  0  0  0  0
   55.3778   22.9559   46.5179 H   0  0  0  0  0  0  0  0  0  0  0  0
   56.7156   22.2233   44.5421 H   0  0  0  0  0  0  0  0  0  0  0  0
   58.0010   23.9002   43.2125 H   0  0  0  0  0  0  0  0  0  0  0  0
   57.9659   26.3087   43.8678 H   0  0  0  0  0  0  0  0  0  0  0  0
  1  2  2  0
  2  3  2  0
  2  4  1  0
  4  5  2  3
  5  6  1  0
  6  7  2  0
  7  8  1  0
  8  9  1  0
  8 10  2  0
 10 11  1  0
  2 12  1  0
 12 13  2  0
 13 14  1  0
 14 15  1  0
 15 16  1  0
 16 17  2  0
 16 18  2  0
 16 19  1  0
 19 20  2  0
 20 21  1  0
 21 22  2  0
 22 23  1  0
 23 24  2  0
 24 25  1  0
 25 26  2  0
 26 27  1  0
 26 28  1  0
 28 29  2  0
 22 30  1  0
 30 31  2  0
 14 32  2  0
 32 33  1  0
 33 34  2  0
 34 35  1  0
 35 36  1  0
 36 37  2  0
 37 38  1  0
 38 39  2  0
 39 40  1  0
 40 41  2  0
 11  5  1  0
 34 12  1  0
 41 36  1  0
 31 19  1  0
 29 23  1  0
  6 42  1  0
  7 43  1  0
 10 44  1  0
 13 45  1  0
 20 46  1  0
 21 47  1  0
 24 48  1  0
 25 49  1  0
 28 50  1  0
 29 51  1  0
 30 52  1  0
 31 53  1  0
 32 54  1  0
 33 55  1  0
 37 56  1  0
 38 57  1  0
 39 58  1  0
 40 59  1  0
 41 60  1  0
M  CHG  2  11  -1  15  -1
M  END
>  <UniqueID>  (37) 
31

>  <SMILES>  (37) 
O=S(=O)(N=c1ccc(F)c[n-]1)c1cc([N-]S(=O)(=O)c2ccc(-c3ccc(F)cc3)cc2)ccc1Oc1ccccc1

>  <Energy>  (37) 
91.94839411658575

>  <Genealogy>  (37) 
O=S(=O)(N=c1ccc(F)c[n-]1)c1cc([N-]S(=O)(=O)c2ccc(-c3ccc(F)cc3)cc2)ccc1Oc1ccccc1 (protonated)
O=S(=O)(N=c1ccc(F)c[n-]1)c1cc([N-]S(=O)(=O)c2ccc(-c3ccc(F)cc3)cc2)ccc1Oc1ccccc1 (3D coordinates assigned)
O=S(=O)(N=c1ccc(F)c[n-]1)c1cc([N-]S(=O)(=O)c2ccc(-c3ccc(F)cc3)cc2)ccc1Oc1ccccc1 (optimized conformer: 91.94839411658575 kcal/mol)

>  <smiles>  (37) 
O=S(=O)(N=c1ccc(F)c[nH]1)c1cc(NS(=O)(=O)c2ccc(-c3ccc(F)cc3)cc2)ccc1Oc1ccccc1

>  <score_type>  (37) 
oracle

>  <origin>  (37) 
adg

>  <m_score__min__energy>  (37) 
-12.380000000000001

>  <m_primary>  (37) 
energy

$$$$
37:0
     RDKit          3D

 54 57  0  0  0  0  0  0  0  0999 V2000
   57.5290   26.5310   46.9930 O   0  0  0  0  0  0  0  0  0  0  0  0
   57.1650   26.4400   45.7890 C   0  0  0  0  0  0  0  0  0  0  0  0
   57.2330   27.5860   44.9210 N   0  0  0  0  0  0  0  0  0  0  0  0
   57.6670   28.8920   45.3390 C   0  0  0  0  0  0  0  0  0  0  0  0
   57.3650   30.0390   44.5890 C   0  0  0  0  0  0  0  0  0  0  0  0
   57.8250   31.2900   45.0010 C   0  0  0  0  0  0  0  0  0  0  0  0
   58.6080   31.4170   46.1560 C   0  0  0  0  0  0  0  0  0  0  0  0
   59.0670   32.7160   46.5630 N   0  0  0  0  0  0  0  0  0  0  0  0
   58.8070   33.1680   47.9360 C   0  0  0  0  0  0  0  0  0  0  0  0
   59.4030   34.5580   48.1660 C   0  0  0  0  0  0  0  0  0  0  0  0
   59.0340   35.4310   47.0470 N   0  0  0  0  0  0  0  0  0  0  0  0
   59.6320   35.0020   45.7650 C   0  0  0  0  0  0  0  0  0  0  0  0
   59.9560   33.4940   45.6930 C   0  0  0  0  0  0  0  0  0  0  0  0
   58.9260   30.2720   46.9120 C   0  0  0  0  0  0  0  0  0  0  0  0
   59.6870   30.4290   48.0830 O   0  0  0  0  0  0  0  0  0  0  0  0
   61.0830   30.1610   48.2090 C   0  0  0  0  0  0  0  0  0  0  0  0
   61.8770   31.4420   48.2170 C   0  0  0  0  0  0  0  0  0  0  0  0
   62.7250   31.7550   47.1410 C   0  0  0  0  0  0  0  0  0  0  0  0
   63.4580   32.9440   47.1440 C   0  0  0  0  0  0  0  0  0  0  0  0
   63.3490   33.8330   48.2170 C   0  0  0  0  0  0  0  0  0  0  0  0
   62.4980   33.5370   49.2850 C   0  0  0  0  0  0  0  0  0  0  0  0
   61.7580   32.3510   49.2870 C   0  0  0  0  0  0  0  0  0  0  0  0
   60.9310   32.0860   50.3300 F   0  0  0  0  0  0  0  0  0  0  0  0
   58.4640   29.0130   46.4850 C   0  0  0  0  0  0  0  0  0  0  0  0
   56.6680   25.1400   45.2890 C   0  0  0  0  0  0  0  0  0  0  0  0
   57.5870   24.1850   44.8170 C   0  0  0  0  0  0  0  0  0  0  0  0
   57.1410   22.9480   44.3430 C   0  0  0  0  0  0  0  0  0  0  0  0
   55.7760   22.6560   44.3260 C   0  0  0  0  0  0  0  0  0  0  0  0
   54.8510   23.6040   44.7750 C   0  0  0  0  0  0  0  0  0  0  0  0
   55.2900   24.8450   45.2530 C   0  0  0  0  0  0  0  0  0  0  0  0
   54.3650   25.7670   45.6240 F   0  0  0  0  0  0  0  0  0  0  0  0
   56.9980   27.4640   43.9110 H   0  0  0  0  0  0  0  0  0  0  0  0
   56.7631   29.9513   43.6725 H   0  0  0  0  0  0  0  0  0  0  0  0
   57.5707   32.1847   44.4138 H   0  0  0  0  0  0  0  0  0  0  0  0
   57.7206   33.2079   48.1041 H   0  0  0  0  0  0  0  0  0  0  0  0
   59.2742   32.4608   48.6371 H   0  0  0  0  0  0  0  0  0  0  0  0
   59.0100   34.9764   49.1044 H   0  0  0  0  0  0  0  0  0  0  0  0
   60.4985   34.4845   48.2322 H   0  0  0  0  0  0  0  0  0  0  0  0
   59.3740   36.3980   47.2630 H   0  0  0  0  0  0  0  0  0  0  0  0
   58.9255   35.2424   44.9569 H   0  0  0  0  0  0  0  0  0  0  0  0
   60.5883   35.5366   45.6668 H   0  0  0  0  0  0  0  0  0  0  0  0
   59.8330   33.1501   44.6554 H   0  0  0  0  0  0  0  0  0  0  0  0
   60.9917   33.3447   46.0320 H   0  0  0  0  0  0  0  0  0  0  0  0
   61.2626   29.6199   49.1497 H   0  0  0  0  0  0  0  0  0  0  0  0
   61.4036   29.5536   47.3498 H   0  0  0  0  0  0  0  0  0  0  0  0
   62.8119   31.0604   46.2925 H   0  0  0  0  0  0  0  0  0  0  0  0
   64.1225   33.1812   46.3001 H   0  0  0  0  0  0  0  0  0  0  0  0
   63.9329   34.7652   48.2207 H   0  0  0  0  0  0  0  0  0  0  0  0
   62.4101   34.2395   50.1269 H   0  0  0  0  0  0  0  0  0  0  0  0
   58.7319   28.1130   47.0580 H   0  0  0  0  0  0  0  0  0  0  0  0
   58.6631   24.4132   44.8210 H   0  0  0  0  0  0  0  0  0  0  0  0
   57.8665   22.2037   43.9829 H   0  0  0  0  0  0  0  0  0  0  0  0
   55.4276   21.6793   43.9591 H   0  0  0  0  0  0  0  0  0  0  0  0
   53.7755   23.3742   44.7526 H   0  0  0  0  0  0  0  0  0  0  0  0
  1  2  2  0
  2  3  1  0
  3  4  1  0
  4  5  2  0
  5  6  1  0
  6  7  2  0
  7  8  1  0
  8  9  1  0
  9 10  1  0
 10 11  1  0
 11 12  1  0
 12 13  1  0
  7 14  1  0
 14 15  1  0
 15 16  1  0
 16 17  1  0
 17 18  2  0
 18 19  1  0
 19 20  2  0
 20 21  1  0
 21 22  2  0
 22 23  1  0
 14 24  2  0
  2 25  1  0
 25 26  2  0
 26 27  1  0
 27 28  2  0
 28 29  1  0
 29 30  2  0
 30 31  1  0
 24  4  1  0
 30 25  1  0
 13  8  1  0
 22 17  1  0
  3 32  1  0
  5 33  1  0
  6 34  1  0
  9 35  1  0
  9 36  1  0
 10 37  1  0
 10 38  1  0
 11 39  1  0
 12 40  1  0
 12 41  1  0
 13 42  1  0
 13 43  1  0
 16 44  1  0
 16 45  1  0
 18 46  1  0
 19 47  1  0
 20 48  1  0
 21 49  1  0
 24 50  1  0
 26 51  1  0
 27 52  1  0
 28 53  1  0
 29 54  1  0
M  END
>  <UniqueID>  (38) 
32

>  <SMILES>  (38) 
O=C(Nc1ccc(N2CCNCC2)c(OCc2ccccc2F)c1)c1ccccc1F

>  <Energy>  (38) 
73.9801791037895

>  <Genealogy>  (38) 
O=C(Nc1ccc(N2CCNCC2)c(OCc2ccccc2F)c1)c1ccccc1F (3D coordinates assigned)
O=C(Nc1ccc(N2CCNCC2)c(OCc2ccccc2F)c1)c1ccccc1F (nonaromatic ring conformer: 73.9801791037895 kcal/mol)

>  <smiles>  (38) 
O=C(Nc1ccc(N2CCNCC2)c(OCc2ccccc2F)c1)c1ccccc1F

>  <score_type>  (38) 
oracle

>  <origin>  (38) 
adg

>  <m_score__min__energy>  (38) 
-8.8300000000000001

>  <m_primary>  (38) 
energy

$$$$
38:0
     RDKit          3D

 69 72  0  0  0  0  0  0  0  0999 V2000
   63.3600   33.1600   48.8250 C   0  0  0  0  0  0  0  0  0  0  0  0
   62.5250   33.1390   47.5220 C   0  0  0  0  0  0  0  0  0  0  0  0
   63.3670   33.7980   46.4100 C   0  0  0  0  0  0  0  0  0  0  0  0
   61.2410   33.9890   47.7270 C   0  0  0  0  0  0  0  0  0  0  0  0
   60.2510   33.2850   48.6150 C   0  0  0  0  0  0  0  0  0  0  0  0
   59.6420   33.9170   49.4660 O   0  0  0  0  0  0  0  0  0  0  0  0
   59.9540   31.8200   48.4060 C   0  0  2  0  0  0  0  0  0  0  0  0
   60.2190   30.9940   49.6940 C   0  0  0  0  0  0  0  0  0  0  0  0
   60.8660   29.6200   49.4500 C   0  0  0  0  0  0  0  0  0  0  0  0
   60.4800   29.0080   48.1210 C   0  0  0  0  0  0  0  0  0  0  0  0
   60.0070   27.5690   48.1390 C   0  0  0  0  0  0  0  0  0  0  0  0
   58.6170   27.4880   47.8280 O   0  0  0  0  0  0  0  0  0  0  0  0
   58.0450   26.4460   47.0900 C   0  0  0  0  0  0  0  0  0  0  0  0
   57.3710   26.6850   46.0540 O   0  0  0  0  0  0  0  0  0  0  0  0
   58.2160   25.0940   47.5110 N   0  0  0  0  0  0  0  0  0  0  0  0
   56.9420   23.9220   47.4320 S   0  0  0  0  0  0  0  0  0  0  0  0
   57.3770   22.6980   48.1890 O   0  0  0  0  0  0  0  0  0  0  0  0
   55.6860   24.4630   48.0550 O   0  0  0  0  0  0  0  0  0  0  0  0
   56.6190   23.5120   45.7380 C   0  0  0  0  0  0  0  0  0  0  0  0
   57.5100   22.6410   45.0880 C   0  0  0  0  0  0  0  0  0  0  0  0
   57.3520   22.3330   43.7370 C   0  0  0  0  0  0  0  0  0  0  0  0
   56.3040   22.8940   43.0120 C   0  0  0  0  0  0  0  0  0  0  0  0
   55.4020   23.7540   43.6390 C   0  0  0  0  0  0  0  0  0  0  0  0
   55.5300   24.0660   45.0060 C   0  0  0  0  0  0  0  0  0  0  0  0
   54.5060   24.9500   45.6160 C   0  0  0  0  0  0  0  0  0  0  0  0
   53.3940   24.4760   45.9720 O   0  0  0  0  0  0  0  0  0  0  0  0
   54.7680   26.2920   45.8610 O   0  0  0  0  0  0  0  0  0  0  0  0
   60.4760   29.7900   47.0100 C   0  0  0  0  0  0  0  0  0  0  0  0
   60.2430   29.2600   45.6450 C   0  0  0  0  0  0  0  0  0  0  0  0
   61.2180   28.9490   44.9080 O   0  0  0  0  0  0  0  0  0  0  0  0
   58.9370   29.1850   45.1500 O   0  0  0  0  0  0  0  0  0  0  0  0
   57.8400   29.8920   45.7230 C   0  0  0  0  0  0  0  0  0  0  0  0
   57.9190   31.3460   45.3510 C   0  0  0  0  0  0  0  0  0  0  0  0
   57.7500   32.3330   46.3380 C   0  0  0  0  0  0  0  0  0  0  0  0
   57.7920   33.6880   45.9950 C   0  0  0  0  0  0  0  0  0  0  0  0
   57.9880   34.0670   44.6640 C   0  0  0  0  0  0  0  0  0  0  0  0
   58.1400   33.0910   43.6730 C   0  0  0  0  0  0  0  0  0  0  0  0
   58.1020   31.7340   44.0130 C   0  0  0  0  0  0  0  0  0  0  0  0
   60.6930   31.2860   47.1560 C   0  0  2  0  0  0  0  0  0  0  0  0
   62.1980   31.6510   47.1250 C   0  0  0  0  0  0  0  0  0  0  0  0
   62.6850   33.1430   49.6934 H   0  0  0  0  0  0  0  0  0  0  0  0
   64.0168   32.2781   48.8538 H   0  0  0  0  0  0  0  0  0  0  0  0
   63.9717   34.0738   48.8538 H   0  0  0  0  0  0  0  0  0  0  0  0
   64.1558   34.4154   46.8645 H   0  0  0  0  0  0  0  0  0  0  0  0
   63.8263   33.0170   45.7863 H   0  0  0  0  0  0  0  0  0  0  0  0
   62.7192   34.4315   45.7863 H   0  0  0  0  0  0  0  0  0  0  0  0
   61.5171   34.9482   48.1892 H   0  0  0  0  0  0  0  0  0  0  0  0
   60.7719   34.1489   46.7450 H   0  0  0  0  0  0  0  0  0  0  0  0
   58.8795   31.7010   48.2026 H   0  0  0  0  0  0  0  0  0  0  0  0
   60.8870   31.5774   50.3447 H   0  0  0  0  0  0  0  0  0  0  0  0
   59.2362   30.8002   50.1486 H   0  0  0  0  0  0  0  0  0  0  0  0
   61.9593   29.7386   49.4761 H   0  0  0  0  0  0  0  0  0  0  0  0
   60.5053   28.9436   50.2389 H   0  0  0  0  0  0  0  0  0  0  0  0
   60.5770   26.9928   47.3953 H   0  0  0  0  0  0  0  0  0  0  0  0
   60.1670   27.1581   49.1468 H   0  0  0  0  0  0  0  0  0  0  0  0
   58.3430   22.1963   45.6522 H   0  0  0  0  0  0  0  0  0  0  0  0
   58.0558   21.6464   43.2438 H   0  0  0  0  0  0  0  0  0  0  0  0
   56.1871   22.6589   41.9438 H   0  0  0  0  0  0  0  0  0  0  0  0
   54.5791   24.1946   43.0571 H   0  0  0  0  0  0  0  0  0  0  0  0
   56.8969   29.4697   45.3460 H   0  0  0  0  0  0  0  0  0  0  0  0
   57.8788   29.7954   46.8181 H   0  0  0  0  0  0  0  0  0  0  0  0
   57.5840   32.0380   47.3846 H   0  0  0  0  0  0  0  0  0  0  0  0
   57.6707   34.4560   46.7731 H   0  0  0  0  0  0  0  0  0  0  0  0
   58.0228   35.1331   44.3955 H   0  0  0  0  0  0  0  0  0  0  0  0
   58.2896   33.3907   42.6252 H   0  0  0  0  0  0  0  0  0  0  0  0
   58.2157   30.9691   43.2307 H   0  0  0  0  0  0  0  0  0  0  0  0
   60.2515   31.7943   46.2861 H   0  0  0  0  0  0  0  0  0  0  0  0
   62.7258   30.9863   47.8247 H   0  0  0  0  0  0  0  0  0  0  0  0
   62.5244   31.5301   46.0815 H   0  0  0  0  0  0  0  0  0  0  0  0
  1  2  1  0
  2  3  1  0
  2  4  1  0
  4  5  1  0
  5  6  2  0
  5  7  1  0
  7  8  1  0
  8  9  1  0
  9 10  1  0
 10 11  1  0
 11 12  1  0
 12 13  1  0
 13 14  2  0
 13 15  1  0
 15 16  1  0
 16 17  2  0
 16 18  2  0
 16 19  1  0
 19 20  2  0
 20 21  1  0
 21 22  2  0
 22 23  1  0
 23 24  2  0
 24 25  1  0
 25 26  2  0
 25 27  1  0
 10 28  2  0
 28 29  1  0
 29 30  2  0
 29 31  1  0
 31 32  1  0
 32 33  1  0
 33 34  2  0
 34 35  1  0
 35 36  2  0
 36 37  1  0
 37 38  2  0
 28 39  1  0
 39 40  1  0
 40  2  1  0
 39  7  1  0
 24 19  1  0
 38 33  1  0
  1 41  1  0
  1 42  1  0
  1 43  1  0
  3 44  1  0
  3 45  1  0
  3 46  1  0
  4 47  1  0
  4 48  1  0
  7 49  1  6
  8 50  1  0
  8 51  1  0
  9 52  1  0
  9 53  1  0
 11 54  1  0
 11 55  1  0
 20 56  1  0
 21 57  1  0
 22 58  1  0
 23 59  1  0
 32 60  1  0
 32 61  1  0
 34 62  1  0
 35 63  1  0
 36 64  1  0
 37 65  1  0
 38 66  1  0
 39 67  1  6
 40 68  1  0
 40 69  1  0
M  CHG  2  15  -1  27  -1
M  END
>  <UniqueID>  (39) 
33

>  <SMILES>  (39) 
CC1(C)CC(=O)[C@@H]2CCC(COC(=O)[N-]S(=O)(=O)c3ccccc3C(=O)[O-])=C(C(=O)OCc3ccccc3)[C@@H]2C1

>  <Energy>  (39) 
91.39981095092229

>  <Genealogy>  (39) 
CC1(C)CC(=O)C2CCC(COC(=O)[N-]S(=O)(=O)c3ccccc3C(=O)[O-])=C(C(=O)OCc3ccccc3)C2C1 (protonated)
CC1(C)CC(=O)[C@@H]2CCC(COC(=O)[N-]S(=O)(=O)c3ccccc3C(=O)[O-])=C(C(=O)OCc3ccccc3)[C@@H]2C1 (chirality)
CC1(C)CC(=O)[C@@H]2CCC(COC(=O)[N-]S(=O)(=O)c3ccccc3C(=O)[O-])=C(C(=O)OCc3ccccc3)[C@@H]2C1 (3D coordinates assigned)
CC1(C)CC(=O)[C@@H]2CCC(COC(=O)[N-]S(=O)(=O)c3ccccc3C(=O)[O-])=C(C(=O)OCc3ccccc3)[C@@H]2C1 (nonaromatic ring conformer: 91.39981095092229 kcal/mol)

>  <smiles>  (39) 
CC1(C)CC(=O)C2CCC(COC(=O)NS(=O)(=O)c3ccccc3C(=O)O)=C(C(=O)OCc3ccccc3)C2C1

>  <score_type>  (39) 
oracle

>  <origin>  (39) 
adg

>  <m_score__min__energy>  (39) 
-15.67

>  <m_primary>  (39) 
energy

$$$$
39:0
     RDKit          3D

 58 61  0  0  0  0  0  0  0  0999 V2000
   61.8540   30.7870   47.4040 C   0  0  0  0  0  0  0  0  0  0  0  0
   60.4530   30.9150   47.6260 O   0  0  0  0  0  0  0  0  0  0  0  0
   59.8450   30.9300   48.8930 C   0  0  0  0  0  0  0  0  0  0  0  0
   58.9260   31.9300   49.2720 C   0  0  0  0  0  0  0  0  0  0  0  0
   58.3180   31.8880   50.5290 C   0  0  0  0  0  0  0  0  0  0  0  0
   58.6250   30.8610   51.4220 C   0  0  0  0  0  0  0  0  0  0  0  0
   59.5410   29.8700   51.0610 C   0  0  0  0  0  0  0  0  0  0  0  0
   60.1480   29.8950   49.7930 C   0  0  0  0  0  0  0  0  0  0  0  0
   61.0690   28.8710   49.3920 N   0  0  0  0  0  0  0  0  0  0  0  0
   60.7570   27.4830   49.2090 C   0  0  0  0  0  0  0  0  0  0  0  0
   60.8900   26.6960   50.1830 O   0  0  0  0  0  0  0  0  0  0  0  0
   60.3020   26.9580   47.9520 N   0  0  0  0  0  0  0  0  0  0  0  0
   59.1380   27.3560   47.2110 C   0  0  0  0  0  0  0  0  0  0  0  0
   58.1260   26.4180   47.0060 C   0  0  0  0  0  0  0  0  0  0  0  0
   56.9860   26.7470   46.2610 C   0  0  0  0  0  0  0  0  0  0  0  0
   55.9060   25.7120   46.0610 C   0  0  0  0  0  0  0  0  0  0  0  0
   54.6550   26.3380   45.9400 O   0  0  0  0  0  0  0  0  0  0  0  0
   56.8390   28.0510   45.7480 C   0  0  0  0  0  0  0  0  0  0  0  0
   55.7060   28.3570   45.0010 O   0  0  0  0  0  0  0  0  0  0  0  0
   57.8450   29.0230   45.9660 C   0  0  0  0  0  0  0  0  0  0  0  0
   57.7110   30.4300   45.4830 C   0  0  0  0  0  0  0  0  0  0  0  0
   56.8290   30.8960   44.5140 C   0  0  0  0  0  0  0  0  0  0  0  0
   57.0660   32.2490   44.3760 C   0  0  0  0  0  0  0  0  0  0  0  0
   58.0540   32.5620   45.2850 C   0  0  0  0  0  0  0  0  0  0  0  0
   58.6680   33.8850   45.4660 C   0  0  0  0  0  0  0  0  0  0  0  0
   58.0980   34.9160   45.0210 O   0  0  0  0  0  0  0  0  0  0  0  0
   59.9260   33.9990   46.1320 N   0  0  0  0  0  0  0  0  0  0  0  0
   60.0270   34.3190   47.5470 C   0  0  0  0  0  0  0  0  0  0  0  0
   61.4370   34.0710   48.0040 C   0  0  0  0  0  0  0  0  0  0  0  0
   61.7170   33.9550   49.3760 C   0  0  0  0  0  0  0  0  0  0  0  0
   63.0030   33.6140   49.8070 C   0  0  0  0  0  0  0  0  0  0  0  0
   64.0150   33.3780   48.8720 C   0  0  0  0  0  0  0  0  0  0  0  0
   65.2580   33.0340   49.2910 F   0  0  0  0  0  0  0  0  0  0  0  0
   63.7430   33.4840   47.5040 C   0  0  0  0  0  0  0  0  0  0  0  0
   62.4570   33.8230   47.0700 C   0  0  0  0  0  0  0  0  0  0  0  0
   58.4370   31.4630   45.9600 N   0  0  0  0  0  0  0  0  0  0  0  0
   59.0120   28.6380   46.6550 C   0  0  0  0  0  0  0  0  0  0  0  0
   62.3757   30.7393   48.3713 H   0  0  0  0  0  0  0  0  0  0  0  0
   62.0525   29.8670   46.8346 H   0  0  0  0  0  0  0  0  0  0  0  0
   62.2159   31.6558   46.8346 H   0  0  0  0  0  0  0  0  0  0  0  0
   58.6868   32.7466   48.5749 H   0  0  0  0  0  0  0  0  0  0  0  0
   57.5955   32.6665   50.8154 H   0  0  0  0  0  0  0  0  0  0  0  0
   58.1452   30.8316   52.4114 H   0  0  0  0  0  0  0  0  0  0  0  0
   59.7883   29.0673   51.7713 H   0  0  0  0  0  0  0  0  0  0  0  0
   58.2241   25.4094   47.4338 H   0  0  0  0  0  0  0  0  0  0  0  0
   56.1162   25.1388   45.1459 H   0  0  0  0  0  0  0  0  0  0  0  0
   55.8886   25.0370   46.9294 H   0  0  0  0  0  0  0  0  0  0  0  0
   54.7790   27.0850   45.2900 H   0  0  0  0  0  0  0  0  0  0  0  0
   56.0855   30.3010   43.9634 H   0  0  0  0  0  0  0  0  0  0  0  0
   56.5665   32.9391   43.6801 H   0  0  0  0  0  0  0  0  0  0  0  0
   59.7682   35.3763   47.7056 H   0  0  0  0  0  0  0  0  0  0  0  0
   59.3331   33.6880   48.1217 H   0  0  0  0  0  0  0  0  0  0  0  0
   60.9213   34.1332   50.1143 H   0  0  0  0  0  0  0  0  0  0  0  0
   63.2183   33.5314   50.8826 H   0  0  0  0  0  0  0  0  0  0  0  0
   64.5407   33.3007   46.7691 H   0  0  0  0  0  0  0  0  0  0  0  0
   62.2435   33.8957   45.9934 H   0  0  0  0  0  0  0  0  0  0  0  0
   59.1910   31.4280   46.6750 H   0  0  0  0  0  0  0  0  0  0  0  0
   59.8393   29.3554   46.7589 H   0  0  0  0  0  0  0  0  0  0  0  0
  1  2  1  0
  2  3  1  0
  3  4  2  0
  4  5  1  0
  5  6  2  0
  6  7  1  0
  7  8  2  0
  8  9  1  0
  9 10  1  0
 10 11  2  0
 10 12  1  0
 12 13  1  0
 13 14  2  0
 14 15  1  0
 15 16  1  0
 16 17  1  0
 15 18  2  0
 18 19  1  0
 18 20  1  0
 20 21  1  0
 21 22  2  0
 22 23  1  0
 23 24  2  0
 24 25  1  0
 25 26  2  0
 25 27  1  0
 27 28  1  0
 28 29  1  0
 29 30  2  0
 30 31  1  0
 31 32  2  0
 32 33  1  0
 32 34  1  0
 34 35  2  0
 24 36  1  0
 20 37  2  0
  8  3  1  0
 37 13  1  0
 36 21  1  0
 35 29  1  0
  1 38  1  0
  1 39  1  0
  1 40  1  0
  4 41  1  0
  5 42  1  0
  6 43  1  0
  7 44  1  0
 14 45  1  0
 16 46  1  0
 16 47  1  0
 17 48  1  0
 22 49  1  0
 23 50  1  0
 28 51  1  0
 28 52  1  0
 30 53  1  0
 31 54  1  0
 34 55  1  0
 35 56  1  0
 36 57  1  0
 37 58  1  0
M  CHG  4   9  -1  12  -1  19  -1  27  -1
M  END
>  <UniqueID>  (40) 
34

>  <SMILES>  (40) 
COc1ccccc1[N-]C(=O)[N-]c1cc(CO)c([O-])c(-c2ccc(C(=O)[N-]Cc3ccc(F)cc3)[nH]2)c1

>  <Energy>  (40) 
99.6042278589725

>  <Genealogy>  (40) 
COc1ccccc1[N-]C(=O)[N-]c1cc(CO)c([O-])c(-c2ccc(C(=O)[N-]Cc3ccc(F)cc3)[nH]2)c1 (protonated)
COc1ccccc1[N-]C(=O)[N-]c1cc(CO)c([O-])c(-c2ccc(C(=O)[N-]Cc3ccc(F)cc3)[nH]2)c1 (3D coordinates assigned)
COc1ccccc1[N-]C(=O)[N-]c1cc(CO)c([O-])c(-c2ccc(C(=O)[N-]Cc3ccc(F)cc3)[nH]2)c1 (optimized conformer: 99.6042278589725 kcal/mol)

>  <smiles>  (40) 
COc1ccccc1NC(=O)Nc1cc(CO)c(O)c(-c2ccc(C(=O)NCc3ccc(F)cc3)[nH]2)c1

>  <score_type>  (40) 
oracle

>  <origin>  (40) 
adg

>  <m_score__min__energy>  (40) 
-14.73

>  <m_primary>  (40) 
energy

$$$$
40:0
     RDKit          3D

 43 46  0  0  0  0  0  0  0  0999 V2000
   55.8920   28.8640   45.1840 O   0  0  0  0  0  0  0  0  0  0  0  0
   57.0060   28.2860   45.0560 C   0  0  0  0  0  0  0  0  0  0  0  0
   58.0810   28.9550   44.3790 N   0  0  0  0  0  0  0  0  0  0  0  0
   58.0000   30.3760   44.0450 C   0  0  0  0  0  0  0  0  0  0  0  0
   58.2050   31.2200   45.2750 C   0  0  0  0  0  0  0  0  0  0  0  0
   58.9640   30.7280   46.3490 C   0  0  0  0  0  0  0  0  0  0  0  0
   59.1880   31.5260   47.4770 C   0  0  0  0  0  0  0  0  0  0  0  0
   58.6640   32.8210   47.5320 C   0  0  0  0  0  0  0  0  0  0  0  0
   58.8830   33.5940   48.6250 F   0  0  0  0  0  0  0  0  0  0  0  0
   57.9210   33.3230   46.4590 C   0  0  0  0  0  0  0  0  0  0  0  0
   57.6960   32.5280   45.3310 C   0  0  0  0  0  0  0  0  0  0  0  0
   57.1580   26.9080   45.5630 C   0  0  0  0  0  0  0  0  0  0  0  0
   58.3970   26.3430   45.5390 N   0  0  0  0  0  0  0  0  0  0  0  0
   58.6350   25.0830   45.9870 C   0  0  0  0  0  0  0  0  0  0  0  0
   59.8050   24.6200   45.9430 O   0  0  0  0  0  0  0  0  0  0  0  0
   57.5830   24.3130   46.4940 C   0  0  0  0  0  0  0  0  0  0  0  0
   57.8070   23.0530   46.9540 N   0  0  0  0  0  0  0  0  0  0  0  0
   56.8070   22.2740   47.4440 C   0  0  0  0  0  0  0  0  0  0  0  0
   57.0840   21.1240   47.8790 O   0  0  0  0  0  0  0  0  0  0  0  0
   55.4840   22.7600   47.4810 C   0  0  0  0  0  0  0  0  0  0  0  0
   54.3640   21.9340   47.9990 C   0  0  0  0  0  0  0  0  0  0  0  0
   53.8170   20.8980   47.2200 C   0  0  0  0  0  0  0  0  0  0  0  0
   52.7560   20.1310   47.7100 C   0  0  0  0  0  0  0  0  0  0  0  0
   52.2270   20.3930   48.9760 C   0  0  0  0  0  0  0  0  0  0  0  0
   52.7570   21.4250   49.7540 C   0  0  0  0  0  0  0  0  0  0  0  0
   53.8190   22.1950   49.2690 C   0  0  0  0  0  0  0  0  0  0  0  0
   55.2360   24.0620   47.0180 C   0  0  0  0  0  0  0  0  0  0  0  0
   56.2820   24.8530   46.5200 C   0  0  0  0  0  0  0  0  0  0  0  0
   56.0630   26.1570   46.0380 C   0  0  0  0  0  0  0  0  0  0  0  0
   54.7740   26.6810   46.0010 O   0  0  0  0  0  0  0  0  0  0  0  0
   58.9080   28.3980   44.0640 H   0  0  0  0  0  0  0  0  0  0  0  0
   58.7775   30.6189   43.3058 H   0  0  0  0  0  0  0  0  0  0  0  0
   57.0032   30.5876   43.6308 H   0  0  0  0  0  0  0  0  0  0  0  0
   59.3839   29.7123   46.3038 H   0  0  0  0  0  0  0  0  0  0  0  0
   59.7762   31.1343   48.3200 H   0  0  0  0  0  0  0  0  0  0  0  0
   57.5134   34.3438   46.5024 H   0  0  0  0  0  0  0  0  0  0  0  0
   57.1185   32.9282   44.4846 H   0  0  0  0  0  0  0  0  0  0  0  0
   54.2263   20.6905   46.2203 H   0  0  0  0  0  0  0  0  0  0  0  0
   52.3367   19.3193   47.0973 H   0  0  0  0  0  0  0  0  0  0  0  0
   51.3933   19.7868   49.3602 H   0  0  0  0  0  0  0  0  0  0  0  0
   52.3384   21.6324   50.7498 H   0  0  0  0  0  0  0  0  0  0  0  0
   54.2302   23.0090   49.8841 H   0  0  0  0  0  0  0  0  0  0  0  0
   54.2129   24.4652   47.0460 H   0  0  0  0  0  0  0  0  0  0  0  0
  1  2  2  0
  2  3  1  0
  3  4  1  0
  4  5  1  0
  5  6  2  0
  6  7  1  0
  7  8  2  0
  8  9  1  0
  8 10  1  0
 10 11  2  0
  2 12  1  0
 12 13  1  0
 13 14  1  0
 14 15  2  0
 14 16  1  0
 16 17  1  0
 17 18  1  0
 18 19  2  0
 18 20  1  0
 20 21  1  0
 21 22  2  0
 22 23  1  0
 23 24  2  0
 24 25  1  0
 25 26  2  0
 20 27  2  0
 27 28  1  0
 28 29  1  0
 29 30  1  0
 11  5  1  0
 29 12  2  0
 28 16  2  0
 26 21  1  0
  3 31  1  0
  4 32  1  0
  4 33  1  0
  6 34  1  0
  7 35  1  0
 10 36  1  0
 11 37  1  0
 22 38  1  0
 23 39  1  0
 24 40  1  0
 25 41  1  0
 26 42  1  0
 27 43  1  0
M  CHG  3  13  -1  17  -1  30  -1
M  END
>  <UniqueID>  (41) 
35

>  <SMILES>  (41) 
O=C(NCc1ccc(F)cc1)c1[n-]c(=O)c2[n-]c(=O)c(-c3ccccc3)cc2c1[O-]

>  <Energy>  (41) 
62.257264109601074

>  <Genealogy>  (41) 
O=C(NCc1ccc(F)cc1)c1[n-]c(=O)c2[n-]c(=O)c(-c3ccccc3)cc2c1[O-] (protonated)
O=C(NCc1ccc(F)cc1)c1[n-]c(=O)c2[n-]c(=O)c(-c3ccccc3)cc2c1[O-] (3D coordinates assigned)
O=C(NCc1ccc(F)cc1)c1[n-]c(=O)c2[n-]c(=O)c(-c3ccccc3)cc2c1[O-] (optimized conformer: 62.257264109601074 kcal/mol)

>  <smiles>  (41) 
O=C(NCc1ccc(F)cc1)c1[nH]c(=O)c2[nH]c(=O)c(-c3ccccc3)cc2c1O

>  <score_type>  (41) 
oracle

>  <origin>  (41) 
adg

>  <m_score__min__energy>  (41) 
-13.949999999999999

>  <m_primary>  (41) 
energy

$$$$
41:0
     RDKit          3D

 40 41  0  0  0  0  0  0  0  0999 V2000
   64.4900   32.2830   49.4160 C   0  0  0  0  0  0  0  0  0  0  0  0
   64.1250   33.2880   48.4760 O   0  0  0  0  0  0  0  0  0  0  0  0
   62.8040   33.5870   48.1110 C   0  0  0  0  0  0  0  0  0  0  0  0
   61.8120   33.9110   49.0580 C   0  0  0  0  0  0  0  0  0  0  0  0
   60.5090   34.2010   48.6420 C   0  0  0  0  0  0  0  0  0  0  0  0
   60.1820   34.1700   47.2820 C   0  0  0  0  0  0  0  0  0  0  0  0
   58.5470   34.5360   46.7670 S   0  0  0  0  0  0  0  0  0  0  0  0
   57.4590   33.4410   47.4280 O   0  0  0  0  0  0  0  0  0  0  0  0
   58.4180   34.5950   44.9930 C   0  0  0  0  0  0  0  0  0  0  0  0
   58.3970   33.2040   44.4450 C   0  0  0  0  0  0  0  0  0  0  0  0
   58.3680   33.0320   43.1960 O   0  0  0  0  0  0  0  0  0  0  0  0
   58.4050   32.0810   45.3390 N   0  0  0  0  0  0  0  0  0  0  0  0
   58.1320   30.7300   44.9280 C   0  0  0  0  0  0  0  0  0  0  0  0
   57.3150   30.4690   43.8130 C   0  0  0  0  0  0  0  0  0  0  0  0
   57.0310   29.1550   43.4360 C   0  0  0  0  0  0  0  0  0  0  0  0
   57.5480   28.0890   44.1700 C   0  0  0  0  0  0  0  0  0  0  0  0
   58.3440   28.3320   45.2920 C   0  0  0  0  0  0  0  0  0  0  0  0
   58.6400   29.6530   45.6840 C   0  0  0  0  0  0  0  0  0  0  0  0
   59.4370   29.9320   46.8070 O   0  0  0  0  0  0  0  0  0  0  0  0
   60.8260   30.2450   46.7530 C   0  0  0  0  0  0  0  0  0  0  0  0
   61.1620   33.8490   46.3380 C   0  0  0  0  0  0  0  0  0  0  0  0
   62.4660   33.5590   46.7520 C   0  0  0  0  0  0  0  0  0  0  0  0
   64.3502   32.6678   50.4370 H   0  0  0  0  0  0  0  0  0  0  0  0
   63.8567   31.3958   49.2687 H   0  0  0  0  0  0  0  0  0  0  0  0
   65.5451   32.0089   49.2687 H   0  0  0  0  0  0  0  0  0  0  0  0
   62.0637   33.9358   50.1285 H   0  0  0  0  0  0  0  0  0  0  0  0
   59.7391   34.4541   49.3858 H   0  0  0  0  0  0  0  0  0  0  0  0
   56.6100   33.9460   47.4950 H   0  0  0  0  0  0  0  0  0  0  0  0
   57.4901   35.1138   44.7105 H   0  0  0  0  0  0  0  0  0  0  0  0
   59.2826   35.1366   44.5817 H   0  0  0  0  0  0  0  0  0  0  0  0
   58.6770   32.2510   46.3340 H   0  0  0  0  0  0  0  0  0  0  0  0
   56.8970   31.3058   43.2342 H   0  0  0  0  0  0  0  0  0  0  0  0
   56.3978   28.9607   42.5577 H   0  0  0  0  0  0  0  0  0  0  0  0
   57.3290   27.0549   43.8654 H   0  0  0  0  0  0  0  0  0  0  0  0
   58.7422   27.4871   45.8731 H   0  0  0  0  0  0  0  0  0  0  0  0
   61.2218   30.3342   47.7754 H   0  0  0  0  0  0  0  0  0  0  0  0
   61.3617   29.4451   46.2209 H   0  0  0  0  0  0  0  0  0  0  0  0
   60.9668   31.1974   46.2209 H   0  0  0  0  0  0  0  0  0  0  0  0
   60.9071   33.8245   45.2682 H   0  0  0  0  0  0  0  0  0  0  0  0
   63.2324   33.3069   46.0043 H   0  0  0  0  0  0  0  0  0  0  0  0
  1  2  1  0
  2  3  1  0
  3  4  2  0
  4  5  1  0
  5  6  2  0
  6  7  1  0
  7  8  1  6
  7  9  1  0
  9 10  1  0
 10 11  2  0
 10 12  1  0
 12 13  1  0
 13 14  2  0
 14 15  1  0
 15 16  2  0
 16 17  1  0
 17 18  2  0
 18 19  1  0
 19 20  1  0
  6 21  1  0
 21 22  2  0
 22  3  1  0
 18 13  1  0
  1 23  1  0
  1 24  1  0
  1 25  1  0
  4 26  1  0
  5 27  1  0
  8 28  1  0
  9 29  1  0
  9 30  1  0
 12 31  1  0
 14 32  1  0
 15 33  1  0
 16 34  1  0
 17 35  1  0
 20 36  1  0
 20 37  1  0
 20 38  1  0
 21 39  1  0
 22 40  1  0
M  CHG  1   7   1
M  END
>  <UniqueID>  (42) 
36

>  <SMILES>  (42) 
COc1ccc([S@+](O)CC(=O)Nc2ccccc2OC)cc1

>  <Energy>  (42) 
36.66573098756194

>  <Genealogy>  (42) 
COc1ccc([S+](O)CC(=O)Nc2ccccc2OC)cc1 (protonated)
COc1ccc([S@+](O)CC(=O)Nc2ccccc2OC)cc1 (chirality)
COc1ccc([S@+](O)CC(=O)Nc2ccccc2OC)cc1 (3D coordinates assigned)
COc1ccc([S@+](O)CC(=O)Nc2ccccc2OC)cc1 (optimized conformer: 36.66573098756194 kcal/mol)

>  <smiles>  (42) 
COc1ccc([S+]([O-])CC(=O)Nc2ccccc2OC)cc1

>  <score_type>  (42) 
oracle

>  <origin>  (42) 
adg

>  <m_score__min__energy>  (42) 
-5.9500000000000002

>  <m_primary>  (42) 
energy

$$$$
42:0
     RDKit          3D

 39 41  0  0  0  0  0  0  0  0999 V2000
   57.5930   25.8670   44.6150 C   0  0  0  0  0  0  0  0  0  0  0  0
   56.6170   26.7610   45.8060 S   0  0  0  0  0  0  0  0  0  0  0  0
   55.3320   26.0160   46.0320 O   0  0  0  0  0  0  0  0  0  0  0  0
   57.3500   26.8640   47.1150 O   0  0  0  0  0  0  0  0  0  0  0  0
   56.2400   28.3460   45.2130 N   0  0  0  0  0  0  0  0  0  0  0  0
   57.0790   29.5120   45.3020 C   0  0  0  0  0  0  0  0  0  0  0  0
   57.7760   29.8160   46.4820 C   0  0  0  0  0  0  0  0  0  0  0  0
   58.5910   30.9430   46.5600 C   0  0  0  0  0  0  0  0  0  0  0  0
   58.7300   31.8090   45.4640 C   0  0  0  0  0  0  0  0  0  0  0  0
   59.5550   32.9830   45.5460 N   0  0  0  0  0  0  0  0  0  0  0  0
   59.6960   34.0270   46.9230 S   0  0  0  0  0  0  0  0  0  0  0  0
   59.6330   35.4570   46.4630 O   0  0  0  0  0  0  0  0  0  0  0  0
   58.5490   33.7630   47.8590 O   0  0  0  0  0  0  0  0  0  0  0  0
   61.2060   33.7110   47.7690 C   0  0  0  0  0  0  0  0  0  0  0  0
   62.3370   33.2950   47.0520 C   0  0  0  0  0  0  0  0  0  0  0  0
   63.5470   33.0710   47.7170 C   0  0  0  0  0  0  0  0  0  0  0  0
   63.6310   33.2550   49.1010 C   0  0  0  0  0  0  0  0  0  0  0  0
   65.2840   32.9500   50.0080 Br  0  0  0  0  0  0  0  0  0  0  0  0
   62.5030   33.6620   49.8210 C   0  0  0  0  0  0  0  0  0  0  0  0
   61.2920   33.8880   49.1570 C   0  0  0  0  0  0  0  0  0  0  0  0
   58.0390   31.5210   44.2670 C   0  0  0  0  0  0  0  0  0  0  0  0
   58.1550   32.3650   43.1430 C   0  0  0  0  0  0  0  0  0  0  0  0
   57.4640   32.0770   41.9650 C   0  0  0  0  0  0  0  0  0  0  0  0
   56.6510   30.9490   41.8860 C   0  0  0  0  0  0  0  0  0  0  0  0
   56.5220   30.0980   42.9840 C   0  0  0  0  0  0  0  0  0  0  0  0
   57.2090   30.3670   44.1860 C   0  0  0  0  0  0  0  0  0  0  0  0
   58.3055   25.2143   45.1407 H   0  0  0  0  0  0  0  0  0  0  0  0
   56.9316   25.2549   43.9843 H   0  0  0  0  0  0  0  0  0  0  0  0
   58.1449   26.5795   43.9843 H   0  0  0  0  0  0  0  0  0  0  0  0
   57.6773   29.1558   47.3563 H   0  0  0  0  0  0  0  0  0  0  0  0
   59.1329   31.1572   47.4930 H   0  0  0  0  0  0  0  0  0  0  0  0
   62.2725   33.1445   45.9643 H   0  0  0  0  0  0  0  0  0  0  0  0
   64.4337   32.7497   47.1508 H   0  0  0  0  0  0  0  0  0  0  0  0
   62.5678   33.8045   50.9098 H   0  0  0  0  0  0  0  0  0  0  0  0
   60.4054   34.2053   49.7256 H   0  0  0  0  0  0  0  0  0  0  0  0
   58.7955   33.2578   43.1952 H   0  0  0  0  0  0  0  0  0  0  0  0
   57.5619   32.7436   41.0955 H   0  0  0  0  0  0  0  0  0  0  0  0
   56.1087   30.7283   40.9547 H   0  0  0  0  0  0  0  0  0  0  0  0
   55.8784   29.2089   42.9115 H   0  0  0  0  0  0  0  0  0  0  0  0
  1  2  1  0
  2  3  2  0
  2  4  2  0
  2  5  1  0
  5  6  1  0
  6  7  2  0
  7  8  1  0
  8  9  2  0
  9 10  1  0
 10 11  1  0
 11 12  2  0
 11 13  2  0
 11 14  1  0
 14 15  2  0
 15 16  1  0
 16 17  2  0
 17 18  1  0
 17 19  1  0
 19 20  2  0
  9 21  1  0
 21 22  2  0
 22 23  1  0
 23 24  2  0
 24 25  1  0
 25 26  2  0
 26  6  1  0
 20 14  1  0
 26 21  1  0
  1 27  1  0
  1 28  1  0
  1 29  1  0
  7 30  1  0
  8 31  1  0
 15 32  1  0
 16 33  1  0
 19 34  1  0
 20 35  1  0
 22 36  1  0
 23 37  1  0
 24 38  1  0
 25 39  1  0
M  CHG  2   5  -1  10  -1
M  END
>  <UniqueID>  (43) 
37

>  <SMILES>  (43) 
CS(=O)(=O)[N-]c1ccc([N-]S(=O)(=O)c2ccc(Br)cc2)c2ccccc12

>  <Energy>  (43) 
49.39140143986888

>  <Genealogy>  (43) 
CS(=O)(=O)[N-]c1ccc([N-]S(=O)(=O)c2ccc(Br)cc2)c2ccccc12 (protonated)
CS(=O)(=O)[N-]c1ccc([N-]S(=O)(=O)c2ccc(Br)cc2)c2ccccc12 (3D coordinates assigned)
CS(=O)(=O)[N-]c1ccc([N-]S(=O)(=O)c2ccc(Br)cc2)c2ccccc12 (optimized conformer: 49.39140143986888 kcal/mol)

>  <smiles>  (43) 
CS(=O)(=O)Nc1ccc(NS(=O)(=O)c2ccc(Br)cc2)c2ccccc12

>  <score_type>  (43) 
oracle

>  <origin>  (43) 
adg

>  <m_score__min__energy>  (43) 
-12.09

>  <m_primary>  (43) 
energy

$$$$
43:0
     RDKit          3D

 47 49  0  0  0  0  0  0  0  0999 V2000
   63.9460   33.1580   48.9460 C   0  0  0  0  0  0  0  0  0  0  0  0
   62.8410   34.0460   49.0640 O   0  0  0  0  0  0  0  0  0  0  0  0
   61.7320   34.0460   48.2060 C   0  0  0  0  0  0  0  0  0  0  0  0
   61.8420   33.7670   46.8290 C   0  0  0  0  0  0  0  0  0  0  0  0
   60.7040   33.7750   46.0170 C   0  0  0  0  0  0  0  0  0  0  0  0
   59.4480   34.0520   46.5670 C   0  0  0  0  0  0  0  0  0  0  0  0
   57.9910   34.0880   45.5200 S   0  0  0  0  0  0  0  0  0  0  0  0
   57.4940   32.3520   45.8220 C   0  0  0  0  0  0  0  0  0  0  0  0
   58.0980   31.3970   44.7880 C   0  0  0  0  0  0  0  0  0  0  0  0
   57.7730   29.9750   45.0570 N   0  0  0  0  0  0  0  0  0  0  0  0
   58.6960   29.1320   45.6480 C   0  0  0  0  0  0  0  0  0  0  0  0
   60.4270   29.6690   45.8470 S   0  0  0  0  0  0  0  0  0  0  0  0
   60.2940   30.3150   47.5260 C   0  0  0  0  0  0  0  0  0  0  0  0
   59.0520   30.5870   48.1160 C   0  0  0  0  0  0  0  0  0  0  0  0
   58.9840   31.0440   49.4360 C   0  0  0  0  0  0  0  0  0  0  0  0
   60.1540   31.2280   50.1760 C   0  0  0  0  0  0  0  0  0  0  0  0
   61.3950   30.9430   49.6010 C   0  0  0  0  0  0  0  0  0  0  0  0
   61.4630   30.4780   48.2840 C   0  0  0  0  0  0  0  0  0  0  0  0
   58.2680   27.8850   46.1660 C   0  0  0  0  0  0  0  0  0  0  0  0
   59.1640   26.9950   46.9940 C   0  0  0  0  0  0  0  0  0  0  0  0
   56.9660   27.4600   45.8710 C   0  0  0  0  0  0  0  0  0  0  0  0
   56.5660   26.3190   46.2310 O   0  0  0  0  0  0  0  0  0  0  0  0
   56.1210   28.2770   45.2000 N   0  0  0  0  0  0  0  0  0  0  0  0
   56.4910   29.5300   44.8330 C   0  0  0  0  0  0  0  0  0  0  0  0
   55.6330   30.2810   44.2920 O   0  0  0  0  0  0  0  0  0  0  0  0
   59.3340   34.3330   47.9320 C   0  0  0  0  0  0  0  0  0  0  0  0
   60.4710   34.3290   48.7470 C   0  0  0  0  0  0  0  0  0  0  0  0
   64.2979   32.8752   49.9491 H   0  0  0  0  0  0  0  0  0  0  0  0
   63.6347   32.2560   48.3988 H   0  0  0  0  0  0  0  0  0  0  0  0
   64.7599   33.6561   48.3988 H   0  0  0  0  0  0  0  0  0  0  0  0
   62.8261   33.5423   46.3919 H   0  0  0  0  0  0  0  0  0  0  0  0
   60.7966   33.5627   44.9417 H   0  0  0  0  0  0  0  0  0  0  0  0
   57.8356   32.0535   46.8241 H   0  0  0  0  0  0  0  0  0  0  0  0
   56.3985   32.2922   45.7424 H   0  0  0  0  0  0  0  0  0  0  0  0
   57.7092   31.6640   43.7942 H   0  0  0  0  0  0  0  0  0  0  0  0
   59.1917   31.5016   44.8411 H   0  0  0  0  0  0  0  0  0  0  0  0
   58.1273   30.4405   47.5386 H   0  0  0  0  0  0  0  0  0  0  0  0
   58.0066   31.2590   49.8925 H   0  0  0  0  0  0  0  0  0  0  0  0
   60.0985   31.5970   51.2108 H   0  0  0  0  0  0  0  0  0  0  0  0
   62.3174   31.0842   50.1835 H   0  0  0  0  0  0  0  0  0  0  0  0
   62.4401   30.2383   47.8392 H   0  0  0  0  0  0  0  0  0  0  0  0
   58.9781   27.1796   48.0623 H   0  0  0  0  0  0  0  0  0  0  0  0
   58.9503   25.9413   46.7614 H   0  0  0  0  0  0  0  0  0  0  0  0
   60.2162   27.2158   46.7614 H   0  0  0  0  0  0  0  0  0  0  0  0
   55.1480   27.9520   44.9990 H   0  0  0  0  0  0  0  0  0  0  0  0
   58.3484   34.5576   48.3658 H   0  0  0  0  0  0  0  0  0  0  0  0
   60.3743   34.5496   49.8203 H   0  0  0  0  0  0  0  0  0  0  0  0
  1  2  1  0
  2  3  1  0
  3  4  2  0
  4  5  1  0
  5  6  2  0
  6  7  1  0
  7  8  1  0
  8  9  1  0
  9 10  1  0
 10 11  1  0
 11 12  1  0
 12 13  1  0
 13 14  2  0
 14 15  1  0
 15 16  2  0
 16 17  1  0
 17 18  2  0
 11 19  2  0
 19 20  1  0
 19 21  1  0
 21 22  2  0
 21 23  1  0
 23 24  1  0
 24 25  2  0
  6 26  1  0
 26 27  2  0
 27  3  1  0
 24 10  1  0
 18 13  1  0
  1 28  1  0
  1 29  1  0
  1 30  1  0
  4 31  1  0
  5 32  1  0
  8 33  1  0
  8 34  1  0
  9 35  1  0
  9 36  1  0
 14 37  1  0
 15 38  1  0
 16 39  1  0
 17 40  1  0
 18 41  1  0
 20 42  1  0
 20 43  1  0
 20 44  1  0
 23 45  1  0
 26 46  1  0
 27 47  1  0
M  END
>  <UniqueID>  (44) 
38

>  <SMILES>  (44) 
COc1ccc(SCCn2c(Sc3ccccc3)c(C)c(=O)[nH]c2=O)cc1

>  <Energy>  (44) 
51.16743264079802

>  <Genealogy>  (44) 
COc1ccc(SCCn2c(Sc3ccccc3)c(C)c(=O)[nH]c2=O)cc1 (3D coordinates assigned)
COc1ccc(SCCn2c(Sc3ccccc3)c(C)c(=O)[nH]c2=O)cc1 (optimized conformer: 51.16743264079802 kcal/mol)

>  <smiles>  (44) 
COc1ccc(SCCn2c(Sc3ccccc3)c(C)c(=O)[nH]c2=O)cc1

>  <score_type>  (44) 
oracle

>  <origin>  (44) 
adg

>  <m_score__min__energy>  (44) 
-8.2699999999999996

>  <m_primary>  (44) 
energy

$$$$
44:0
     RDKit          3D

 54 56  0  0  0  0  0  0  0  0999 V2000
   60.3400   27.6330   48.5430 C   0  0  0  0  0  0  0  0  0  0  0  0
   59.6910   27.8820   47.3030 O   0  0  0  0  0  0  0  0  0  0  0  0
   59.4020   29.1570   46.7900 C   0  0  0  0  0  0  0  0  0  0  0  0
   59.3520   30.2940   47.6220 C   0  0  0  0  0  0  0  0  0  0  0  0
   59.0620   31.5630   47.0920 C   0  0  0  0  0  0  0  0  0  0  0  0
   58.9920   32.7560   47.9690 C   0  0  0  0  0  0  0  0  0  0  0  0
   58.1240   33.6420   47.7420 O   0  0  0  0  0  0  0  0  0  0  0  0
   59.9070   32.9200   49.0640 N   0  0  0  0  0  0  0  0  0  0  0  0
   59.6760   33.8880   50.1330 C   0  0  0  0  0  0  0  0  0  0  0  0
   58.9890   33.2200   51.2920 C   0  0  0  0  0  0  0  0  0  0  0  0
   59.1870   33.6800   52.6050 C   0  0  0  0  0  0  0  0  0  0  0  0
   58.5140   33.0750   53.6720 C   0  0  0  0  0  0  0  0  0  0  0  0
   57.6360   32.0130   53.4340 C   0  0  0  0  0  0  0  0  0  0  0  0
   56.9810   31.4300   54.4690 F   0  0  0  0  0  0  0  0  0  0  0  0
   57.4270   31.5550   52.1300 C   0  0  0  0  0  0  0  0  0  0  0  0
   58.0990   32.1580   51.0610 C   0  0  0  0  0  0  0  0  0  0  0  0
   58.8050   31.6840   45.7190 C   0  0  0  0  0  0  0  0  0  0  0  0
   58.8550   30.5660   44.8870 C   0  0  0  0  0  0  0  0  0  0  0  0
   59.1540   29.2990   45.4100 C   0  0  0  0  0  0  0  0  0  0  0  0
   59.1630   28.0970   44.4930 C   0  0  0  0  0  0  0  0  0  0  0  0
   58.2560   27.0510   45.0000 N   0  0  0  0  0  0  0  0  0  0  0  0
   58.7270   25.7770   45.1500 C   0  0  0  0  0  0  0  0  0  0  0  0
   57.9180   24.7510   45.6640 C   0  0  0  0  0  0  0  0  0  0  0  0
   58.5150   23.3710   45.8270 C   0  0  0  0  0  0  0  0  0  0  0  0
   59.9030   23.4110   45.6350 O   0  0  0  0  0  0  0  0  0  0  0  0
   56.5830   25.0530   46.0290 C   0  0  0  0  0  0  0  0  0  0  0  0
   55.6540   24.0250   46.6430 C   0  0  0  0  0  0  0  0  0  0  0  0
   54.3350   24.2620   46.2300 O   0  0  0  0  0  0  0  0  0  0  0  0
   56.1190   26.3690   45.8670 C   0  0  0  0  0  0  0  0  0  0  0  0
   54.8170   26.7050   46.2270 O   0  0  0  0  0  0  0  0  0  0  0  0
   56.9650   27.3540   45.3470 C   0  0  0  0  0  0  0  0  0  0  0  0
   56.5210   28.5270   45.2040 O   0  0  0  0  0  0  0  0  0  0  0  0
   59.6628   27.8928   49.3700 H   0  0  0  0  0  0  0  0  0  0  0  0
   60.6080   26.5682   48.6093 H   0  0  0  0  0  0  0  0  0  0  0  0
   61.2514   28.2453   48.6093 H   0  0  0  0  0  0  0  0  0  0  0  0
   59.5424   30.1866   48.7001 H   0  0  0  0  0  0  0  0  0  0  0  0
   60.7800   32.3470   49.1010 H   0  0  0  0  0  0  0  0  0  0  0  0
   60.6403   34.2977   50.4681 H   0  0  0  0  0  0  0  0  0  0  0  0
   59.0375   34.6994   49.7536 H   0  0  0  0  0  0  0  0  0  0  0  0
   59.8733   34.5185   52.7945 H   0  0  0  0  0  0  0  0  0  0  0  0
   58.6756   33.4350   54.6988 H   0  0  0  0  0  0  0  0  0  0  0  0
   56.7345   30.7208   51.9442 H   0  0  0  0  0  0  0  0  0  0  0  0
   57.9296   31.7988   50.0352 H   0  0  0  0  0  0  0  0  0  0  0  0
   58.5619   32.6692   45.2945 H   0  0  0  0  0  0  0  0  0  0  0  0
   58.6582   30.6786   43.8106 H   0  0  0  0  0  0  0  0  0  0  0  0
   58.8343   28.4053   43.4896 H   0  0  0  0  0  0  0  0  0  0  0  0
   60.1844   27.6908   44.4506 H   0  0  0  0  0  0  0  0  0  0  0  0
   59.7639   25.5501   44.8614 H   0  0  0  0  0  0  0  0  0  0  0  0
   58.3002   23.0010   46.8404 H   0  0  0  0  0  0  0  0  0  0  0  0
   58.0711   22.7003   45.0766 H   0  0  0  0  0  0  0  0  0  0  0  0
   60.1110   22.7350   44.9390 H   0  0  0  0  0  0  0  0  0  0  0  0
   55.9610   23.0188   46.3215 H   0  0  0  0  0  0  0  0  0  0  0  0
   55.7076   24.0995   47.7392 H   0  0  0  0  0  0  0  0  0  0  0  0
   54.1660   25.2320   46.3610 H   0  0  0  0  0  0  0  0  0  0  0  0
  1  2  1  0
  2  3  1  0
  3  4  2  0
  4  5  1  0
  5  6  1  0
  6  7  2  0
  6  8  1  0
  8  9  1  0
  9 10  1  0
 10 11  2  0
 11 12  1  0
 12 13  2  0
 13 14  1  0
 13 15  1  0
 15 16  2  0
  5 17  2  0
 17 18  1  0
 18 19  2  0
 19 20  1  0
 20 21  1  0
 21 22  1  0
 22 23  2  0
 23 24  1  0
 24 25  1  0
 23 26  1  0
 26 27  1  0
 27 28  1  0
 26 29  2  0
 29 30  1  0
 29 31  1  0
 31 32  2  0
 19  3  1  0
 31 21  1  0
 16 10  1  0
  1 33  1  0
  1 34  1  0
  1 35  1  0
  4 36  1  0
  8 37  1  0
  9 38  1  0
  9 39  1  0
 11 40  1  0
 12 41  1  0
 15 42  1  0
 16 43  1  0
 17 44  1  0
 18 45  1  0
 20 46  1  0
 20 47  1  0
 22 48  1  0
 24 49  1  0
 24 50  1  0
 25 51  1  0
 27 52  1  0
 27 53  1  0
 28 54  1  0
M  CHG  1  30  -1
M  END
>  <UniqueID>  (45) 
39

>  <SMILES>  (45) 
COc1cc(C(=O)NCc2ccc(F)cc2)ccc1Cn1cc(CO)c(CO)c([O-])c1=O

>  <Energy>  (45) 
60.300169445311795

>  <Genealogy>  (45) 
COc1cc(C(=O)NCc2ccc(F)cc2)ccc1Cn1cc(CO)c(CO)c([O-])c1=O (protonated)
COc1cc(C(=O)NCc2ccc(F)cc2)ccc1Cn1cc(CO)c(CO)c([O-])c1=O (3D coordinates assigned)
COc1cc(C(=O)NCc2ccc(F)cc2)ccc1Cn1cc(CO)c(CO)c([O-])c1=O (optimized conformer: 60.300169445311795 kcal/mol)

>  <smiles>  (45) 
COc1cc(C(=O)NCc2ccc(F)cc2)ccc1Cn1cc(CO)c(CO)c(O)c1=O

>  <score_type>  (45) 
oracle

>  <origin>  (45) 
adg

>  <m_score__min__energy>  (45) 
-11.4

>  <m_primary>  (45) 
energy

$$$$
45:0
     RDKit          3D

 45 48  0  0  0  0  0  0  0  0999 V2000
   62.6760   33.7767   47.0979 H   0  0  0  0  0  0  0  0  0  0  0  0
   61.5880   33.8890   47.2150 C   0  0  0  0  0  0  0  0  0  0  0  0
   60.7490   33.7430   46.1060 C   0  0  0  0  0  0  0  0  0  0  0  0
   61.1814   33.5199   45.1194 H   0  0  0  0  0  0  0  0  0  0  0  0
   59.3510   33.8800   46.2440 C   0  0  0  0  0  0  0  0  0  0  0  0
   58.3880   33.7590   45.0740 C   0  0  1  0  0  0  0  0  0  0  0  0
   58.7799   34.4519   44.3148 H   0  0  0  0  0  0  0  0  0  0  0  0
   58.3780   32.3930   44.5460 N   0  0  0  0  0  0  0  0  0  0  0  0
   58.2890   31.1930   45.3220 C   0  0  0  0  0  0  0  0  0  0  0  0
   57.7770   31.2560   46.4700 O   0  0  0  0  0  0  0  0  0  0  0  0
   58.7070   29.9380   44.7610 N   0  0  0  0  0  0  0  0  0  0  0  0
   58.1960   28.7440   44.8890 C   0  0  0  0  0  0  0  0  0  0  0  0
   58.8910   27.6910   44.3500 N   0  0  0  0  0  0  0  0  0  0  0  0
   58.4620   26.3980   44.4260 C   0  0  0  0  0  0  0  0  0  0  0  0
   59.0457   25.5802   43.9782 H   0  0  0  0  0  0  0  0  0  0  0  0
   57.2640   26.1450   45.0870 C   0  0  0  0  0  0  0  0  0  0  0  0
   56.5110   25.0140   45.3550 C   0  0  0  0  0  0  0  0  0  0  0  0
   56.7970   23.6500   45.0020 N   0  0  0  0  0  0  0  0  0  0  0  0
   57.8030   22.8650   45.6980 C   0  0  0  0  0  0  0  0  0  0  0  0
   58.8030   23.2947   45.5386 H   0  0  0  0  0  0  0  0  0  0  0  0
   57.6278   22.8507   46.7839 H   0  0  0  0  0  0  0  0  0  0  0  0
   57.7230   21.4690   45.0970 C   0  0  0  0  0  0  0  0  0  0  0  0
   58.7317   21.0596   44.9395 H   0  0  0  0  0  0  0  0  0  0  0  0
   57.1935   20.7685   45.7595 H   0  0  0  0  0  0  0  0  0  0  0  0
   57.0030   21.6420   43.7630 C   0  0  1  0  0  0  0  0  0  0  0  0
   57.7139   21.6965   42.9254 H   0  0  0  0  0  0  0  0  0  0  0  0
   56.1790   20.5610   43.4970 F   0  0  0  0  0  0  0  0  0  0  0  0
   56.1960   22.9280   43.8950 C   0  0  0  0  0  0  0  0  0  0  0  0
   56.2607   23.5194   42.9697 H   0  0  0  0  0  0  0  0  0  0  0  0
   55.1294   22.7247   44.0709 H   0  0  0  0  0  0  0  0  0  0  0  0
   55.4000   25.3860   46.0360 N   0  0  0  0  0  0  0  0  0  0  0  0
   55.4230   26.7040   46.2120 N   0  0  0  0  0  0  0  0  0  0  0  0
   56.5480   27.1670   45.6390 C   0  0  0  0  0  0  0  0  0  0  0  0
   56.9800   28.4870   45.5750 C   0  0  0  0  0  0  0  0  0  0  0  0
   56.4021   29.3005   46.0379 H   0  0  0  0  0  0  0  0  0  0  0  0
   56.9570   34.2400   45.3540 C   0  0  0  0  0  0  0  0  0  0  0  0
   56.7945   34.2946   46.4406 H   0  0  0  0  0  0  0  0  0  0  0  0
   56.8118   35.2363   44.9110 H   0  0  0  0  0  0  0  0  0  0  0  0
   56.2395   33.5337   44.9110 H   0  0  0  0  0  0  0  0  0  0  0  0
   58.8250   34.1840   47.5130 C   0  0  0  0  0  0  0  0  0  0  0  0
   57.7392   34.3097   47.6362 H   0  0  0  0  0  0  0  0  0  0  0  0
   59.6680   34.3280   48.6190 C   0  0  0  0  0  0  0  0  0  0  0  0
   59.2435   34.5604   49.6068 H   0  0  0  0  0  0  0  0  0  0  0  0
   61.0490   34.1770   48.4710 C   0  0  0  0  0  0  0  0  0  0  0  0
   61.8660   34.3190   49.5440 F   0  0  0  0  0  0  0  0  0  0  0  0
  1  2  1  0
  2  3  2  0
  3  4  1  0
  3  5  1  0
  5  6  1  0
  6  7  1  6
  6  8  1  0
  8  9  1  0
  9 10  2  0
  9 11  1  0
 11 12  2  0
 12 13  1  0
 13 14  1  0
 14 15  1  0
 14 16  2  0
 16 17  1  0
 17 18  1  0
 18 19  1  0
 19 20  1  0
 19 21  1  0
 19 22  1  0
 22 23  1  0
 22 24  1  0
 22 25  1  0
 25 26  1  6
 25 27  1  0
 25 28  1  0
 28 29  1  0
 28 30  1  0
 17 31  2  0
 31 32  1  0
 32 33  1  0
 33 34  2  0
 34 35  1  0
  6 36  1  0
 36 37  1  0
 36 38  1  0
 36 39  1  0
  5 40  2  0
 40 41  1  0
 40 42  1  0
 42 43  1  0
 42 44  2  0
 44 45  1  0
 44  2  1  0
 34 12  1  0
 33 16  1  0
 28 18  1  0
M  CHG  3   8  -1  13  -1  32  -1
M  END
>  <UniqueID>  (46) 
40

>  <SMILES>  (46) 
C[C@H]([N-]C(=O)/N=c1\cc2[n-]nc(N3CC[C@@H](F)C3)c2c[n-]1)c1ccc(F)cc1

>  <Energy>  (46) 
96.19836351236535

>  <Genealogy>  (46) 
CC([N-]C(=O)N=c1cc2[n-]nc(N3CCC(F)C3)c2c[n-]1)c1ccc(F)cc1 (protonated)
C[C@H]([N-]C(=O)N=c1cc2[n-]nc(N3CC[C@@H](F)C3)c2c[n-]1)c1ccc(F)cc1 (chirality)
C[C@H]([N-]C(=O)/N=c1\cc2[n-]nc(N3CC[C@@H](F)C3)c2c[n-]1)c1ccc(F)cc1 (cis-trans isomerization)
C[C@H]([N-]C(=O)/N=c1\cc2[n-]nc(N3CC[C@@H](F)C3)c2c[n-]1)c1ccc(F)cc1 (3D coordinates assigned)
C[C@H]([N-]C(=O)/N=c1\cc2[n-]nc(N3CC[C@@H](F)C3)c2c[n-]1)c1ccc(F)cc1 (nonaromatic ring conformer: 96.19836351236535 kcal/mol)

>  <smiles>  (46) 
CC(NC(=O)N=c1cc2[nH]nc(N3CCC(F)C3)c2c[nH]1)c1ccc(F)cc1

>  <score_type>  (46) 
oracle

>  <origin>  (46) 
adg

>  <m_score__min__energy>  (46) 
-12.02

>  <m_primary>  (46) 
energy

$$$$
46:0
     RDKit          3D

 27 28  0  0  0  0  0  0  0  0999 V2000
   58.3630   32.0250   50.9450 N   0  0  0  0  0  0  0  0  0  0  0  0
   57.5760   32.3580   52.4480 S   0  0  0  0  0  0  0  0  0  0  0  0
   56.9780   33.7360   52.4040 O   0  0  0  0  0  0  0  0  0  0  0  0
   58.5950   32.2900   53.5520 O   0  0  0  0  0  0  0  0  0  0  0  0
   56.3030   31.1760   52.7320 C   0  0  0  0  0  0  0  0  0  0  0  0
   56.1780   30.5550   53.9830 C   0  0  0  0  0  0  0  0  0  0  0  0
   55.1630   29.6210   54.2020 C   0  0  0  0  0  0  0  0  0  0  0  0
   54.2760   29.2930   53.1730 C   0  0  0  0  0  0  0  0  0  0  0  0
   54.4020   29.8920   51.9140 C   0  0  0  0  0  0  0  0  0  0  0  0
   53.4780   29.5270   50.8770 N   0  0  0  0  0  0  0  0  0  0  0  0
   52.1640   30.0690   50.6820 C   0  0  0  0  0  0  0  0  0  0  0  0
   51.5310   29.7580   49.6400 O   0  0  0  0  0  0  0  0  0  0  0  0
   51.5510   31.0140   51.6470 C   0  0  0  0  0  0  0  0  0  0  0  0
   51.2020   32.3230   51.2680 C   0  0  0  0  0  0  0  0  0  0  0  0
   51.3770   32.7580   49.9590 O   0  0  0  0  0  0  0  0  0  0  0  0
   50.6680   33.1750   52.1810 N   0  0  0  0  0  0  0  0  0  0  0  0
   50.4500   32.7850   53.4620 C   0  0  0  0  0  0  0  0  0  0  0  0
   49.9570   33.5940   54.2900 O   0  0  0  0  0  0  0  0  0  0  0  0
   50.7600   31.5230   53.8500 N   0  0  0  0  0  0  0  0  0  0  0  0
   51.2990   30.6320   52.9780 C   0  0  0  0  0  0  0  0  0  0  0  0
   51.5850   29.4720   53.3820 O   0  0  0  0  0  0  0  0  0  0  0  0
   55.4010   30.8600   51.7080 C   0  0  0  0  0  0  0  0  0  0  0  0
   58.1250   32.8080   50.2950 H   0  0  0  0  0  0  0  0  0  0  0  0
   56.8800   30.8037   54.7926 H   0  0  0  0  0  0  0  0  0  0  0  0
   55.0614   29.1422   55.1871 H   0  0  0  0  0  0  0  0  0  0  0  0
   53.4751   28.5608   53.3532 H   0  0  0  0  0  0  0  0  0  0  0  0
   55.4745   31.3720   50.7372 H   0  0  0  0  0  0  0  0  0  0  0  0
  1  2  1  0
  2  3  2  0
  2  4  2  0
  2  5  1  0
  5  6  2  0
  6  7  1  0
  7  8  2  0
  8  9  1  0
  9 10  1  0
 10 11  1  0
 11 12  2  0
 11 13  1  0
 13 14  2  0
 14 15  1  0
 14 16  1  0
 16 17  1  0
 17 18  2  0
 17 19  1  0
 19 20  1  0
 20 21  2  0
  9 22  2  0
 22  5  1  0
 20 13  1  0
  1 23  1  0
  6 24  1  0
  7 25  1  0
  8 26  1  0
 22 27  1  0
M  CHG  5   1  -1  10  -1  15  -1  16  -1  19  -1
M  END
>  <UniqueID>  (47) 
41

>  <SMILES>  (47) 
[NH-]S(=O)(=O)c1cccc([N-]C(=O)c2c([O-])[n-]c(=O)[n-]c2=O)c1

>  <Energy>  (47) 
37.762788089599034

>  <Genealogy>  (47) 
[NH-]S(=O)(=O)c1cccc([N-]C(=O)c2c([O-])[n-]c(=O)[n-]c2=O)c1 (protonated)
[NH-]S(=O)(=O)c1cccc([N-]C(=O)c2c([O-])[n-]c(=O)[n-]c2=O)c1 (3D coordinates assigned)
[NH-]S(=O)(=O)c1cccc([N-]C(=O)c2c([O-])[n-]c(=O)[n-]c2=O)c1 (optimized conformer: 37.762788089599034 kcal/mol)

>  <smiles>  (47) 
NS(=O)(=O)c1cccc(NC(=O)c2c(O)[nH]c(=O)[nH]c2=O)c1

>  <score_type>  (47) 
oracle

>  <origin>  (47) 
adg

>  <m_score__min__energy>  (47) 
-18.670000000000002

>  <m_primary>  (47) 
energy

$$$$
47:0
     RDKit          3D

 34 35  0  0  0  0  0  0  0  0999 V2000
   56.6610   30.7900   43.8600 C   0  0  0  0  0  0  0  0  0  0  0  0
   57.2640   31.0140   45.1300 O   0  0  0  0  0  0  0  0  0  0  0  0
   57.9690   32.1760   45.4850 C   0  0  0  0  0  0  0  0  0  0  0  0
   57.8040   33.3870   44.7830 C   0  0  0  0  0  0  0  0  0  0  0  0
   58.5150   34.5280   45.1630 C   0  0  0  0  0  0  0  0  0  0  0  0
   59.3940   34.4770   46.2440 C   0  0  0  0  0  0  0  0  0  0  0  0
   59.5690   33.2850   46.9480 C   0  0  0  0  0  0  0  0  0  0  0  0
   58.8650   32.1270   46.5750 C   0  0  0  0  0  0  0  0  0  0  0  0
   59.0480   30.8550   47.3680 C   0  0  0  0  0  0  0  0  0  0  0  0
   59.6230   29.7160   46.5100 C   0  0  0  0  0  0  0  0  0  0  0  0
   58.5660   29.0080   45.7660 N   0  0  0  0  0  0  0  0  0  0  0  0
   58.7480   27.5470   45.8120 C   0  0  0  0  0  0  0  0  0  0  0  0
   57.4380   26.8240   45.9680 C   0  0  0  0  0  0  0  0  0  0  0  0
   57.2240   25.5670   46.4920 C   0  0  0  0  0  0  0  0  0  0  0  0
   55.9280   25.3340   46.4850 O   0  0  0  0  0  0  0  0  0  0  0  0
   55.2600   26.3450   46.0020 N   0  0  0  0  0  0  0  0  0  0  0  0
   56.1730   27.2760   45.6800 C   0  0  0  0  0  0  0  0  0  0  0  0
   55.8850   28.3990   45.1890 O   0  0  0  0  0  0  0  0  0  0  0  0
   55.6384   30.4101   44.0015 H   0  0  0  0  0  0  0  0  0  0  0  0
   56.6266   31.7353   43.2986 H   0  0  0  0  0  0  0  0  0  0  0  0
   57.2521   30.0515   43.2986 H   0  0  0  0  0  0  0  0  0  0  0  0
   57.1108   33.4341   43.9302 H   0  0  0  0  0  0  0  0  0  0  0  0
   58.3810   35.4684   44.6083 H   0  0  0  0  0  0  0  0  0  0  0  0
   59.9504   35.3778   46.5424 H   0  0  0  0  0  0  0  0  0  0  0  0
   60.2628   33.2513   47.8009 H   0  0  0  0  0  0  0  0  0  0  0  0
   59.7370   31.0532   48.2022 H   0  0  0  0  0  0  0  0  0  0  0  0
   58.0598   30.5383   47.7330 H   0  0  0  0  0  0  0  0  0  0  0  0
   60.3424   30.1380   45.7928 H   0  0  0  0  0  0  0  0  0  0  0  0
   60.1127   28.9946   47.1807 H   0  0  0  0  0  0  0  0  0  0  0  0
   58.6030   29.2980   44.7610 H   0  0  0  0  0  0  0  0  0  0  0  0
   57.6250   29.2600   46.1490 H   0  0  0  0  0  0  0  0  0  0  0  0
   59.2266   27.2185   44.8776 H   0  0  0  0  0  0  0  0  0  0  0  0
   59.3753   27.3085   46.6835 H   0  0  0  0  0  0  0  0  0  0  0  0
   58.0014   24.8778   46.8535 H   0  0  0  0  0  0  0  0  0  0  0  0
  1  2  1  0
  2  3  1  0
  3  4  2  0
  4  5  1  0
  5  6  2  0
  6  7  1  0
  7  8  2  0
  8  9  1  0
  9 10  1  0
 10 11  1  0
 11 12  1  0
 12 13  1  0
 13 14  2  0
 14 15  1  0
 15 16  1  0
 16 17  1  0
 17 18  2  0
  8  3  1  0
 17 13  1  0
  1 19  1  0
  1 20  1  0
  1 21  1  0
  4 22  1  0
  5 23  1  0
  6 24  1  0
  7 25  1  0
  9 26  1  0
  9 27  1  0
 10 28  1  0
 10 29  1  0
 11 30  1  0
 11 31  1  0
 12 32  1  0
 12 33  1  0
 14 34  1  0
M  CHG  2  11   1  16  -1
M  END
>  <UniqueID>  (48) 
42

>  <SMILES>  (48) 
COc1ccccc1CC[NH2+]Cc1co[n-]c1=O

>  <Energy>  (48) 
63.17626882240898

>  <Genealogy>  (48) 
COc1ccccc1CC[NH2+]Cc1co[n-]c1=O (protonated)
COc1ccccc1CC[NH2+]Cc1co[n-]c1=O (3D coordinates assigned)
COc1ccccc1CC[NH2+]Cc1co[n-]c1=O (optimized conformer: 63.17626882240898 kcal/mol)

>  <smiles>  (48) 
COc1ccccc1CCNCc1co[nH]c1=O

>  <score_type>  (48) 
oracle

>  <origin>  (48) 
adg

>  <m_score__min__energy>  (48) 
-7.0700000000000003

>  <m_primary>  (48) 
energy

$$$$
48:0
     RDKit          3D

 70 74  0  0  1  0  0  0  0  0999 V2000
   53.8460   30.8320   51.6190 C   0  0  0  0  0  0  0  0  0  0  0  0
   54.4820   30.1090   52.7590 C   0  0  0  0  0  0  0  0  0  0  0  0
   55.9750   30.3530   52.8380 C   0  0  1  0  0  0  0  0  0  0  0  0
   56.6990   29.0480   53.1220 C   0  0  0  0  0  0  0  0  0  0  0  0
   56.5090   30.9250   51.5390 C   0  0  0  0  0  0  0  0  0  0  0  0
   57.9330   31.1360   51.5510 N   0  0  0  0  0  0  0  0  0  0  0  0
   58.8690   30.4030   50.8780 C   0  0  0  0  0  0  0  0  0  0  0  0
   58.5750   29.3920   50.1370 N   0  0  0  0  0  0  0  0  0  0  0  0
   59.7300   28.7840   49.0470 S   0  0  0  0  0  0  0  0  0  0  0  0
   60.3670   27.4990   49.5270 O   0  0  0  0  0  0  0  0  0  0  0  0
   60.8750   29.7830   48.9330 O   0  0  0  0  0  0  0  0  0  0  0  0
   59.1140   28.5460   47.4270 C   0  0  0  0  0  0  0  0  0  0  0  0
   58.5380   27.3280   47.0710 C   0  0  0  0  0  0  0  0  0  0  0  0
   58.0430   27.1180   45.7980 C   0  0  0  0  0  0  0  0  0  0  0  0
   58.0900   28.0940   44.8180 C   0  0  0  0  0  0  0  0  0  0  0  0
   58.6610   29.2970   45.1740 C   0  0  0  0  0  0  0  0  0  0  0  0
   58.7790   30.4000   44.2730 N   0  0  0  0  0  0  0  0  0  0  0  0
   57.8050   31.4080   44.3580 C   0  0  0  0  0  0  0  0  0  0  0  0
   56.8910   31.2630   45.2250 O   0  0  0  0  0  0  0  0  0  0  0  0
   57.7730   32.6270   43.5080 C   0  0  0  0  0  0  0  0  0  0  0  0
   57.5830   33.7850   44.4990 C   0  0  0  0  0  0  0  0  0  0  0  0
   58.5310   33.6090   45.6290 C   0  0  0  0  0  0  0  0  0  0  0  0
   57.9710   33.2290   46.8140 N   0  0  0  0  0  0  0  0  0  0  0  0
   58.7480   33.0420   47.8970 C   0  0  0  0  0  0  0  0  0  0  0  0
   58.1890   32.6900   48.9730 O   0  0  0  0  0  0  0  0  0  0  0  0
   60.1120   33.2330   47.8150 C   0  0  0  0  0  0  0  0  0  0  0  0
   60.8800   33.0320   48.9430 C   0  0  0  0  0  0  0  0  0  0  0  0
   62.2450   33.2290   48.8390 C   0  0  0  0  0  0  0  0  0  0  0  0
   62.8280   33.6160   47.6370 C   0  0  0  0  0  0  0  0  0  0  0  0
   62.0490   33.8190   46.4950 C   0  0  0  0  0  0  0  0  0  0  0  0
   60.6690   33.6210   46.5970 C   0  0  0  0  0  0  0  0  0  0  0  0
   59.8560   33.8010   45.5210 N   0  0  0  0  0  0  0  0  0  0  0  0
   59.1640   29.5180   46.4570 C   0  0  0  0  0  0  0  0  0  0  0  0
   60.0610   30.9530   51.1680 N   0  0  0  0  0  0  0  0  0  0  0  0
   59.9230   32.0020   51.9960 C   0  0  0  0  0  0  0  0  0  0  0  0
   60.8330   32.8700   52.5640 C   0  0  0  0  0  0  0  0  0  0  0  0
   60.3870   33.8670   53.3860 C   0  0  0  0  0  0  0  0  0  0  0  0
   59.0470   34.0210   53.6570 C   0  0  0  0  0  0  0  0  0  0  0  0
   58.1570   33.1400   53.0770 C   0  0  0  0  0  0  0  0  0  0  0  0
   58.5530   32.1130   52.2370 C   0  0  0  0  0  0  0  0  0  0  0  0
   53.1664   31.6045   52.0081 H   0  0  0  0  0  0  0  0  0  0  0  0
   54.6257   31.3054   51.0043 H   0  0  0  0  0  0  0  0  0  0  0  0
   53.2770   30.1190   51.0043 H   0  0  0  0  0  0  0  0  0  0  0  0
   54.0184   30.4503   53.6963 H   0  0  0  0  0  0  0  0  0  0  0  0
   54.3266   29.0316   52.6009 H   0  0  0  0  0  0  0  0  0  0  0  0
   56.1512   31.0752   53.6488 H   0  0  0  0  0  0  0  0  0  0  0  0
   56.7797   28.9026   54.2094 H   0  0  0  0  0  0  0  0  0  0  0  0
   56.1354   28.2125   52.6811 H   0  0  0  0  0  0  0  0  0  0  0  0
   57.7062   29.0840   52.6811 H   0  0  0  0  0  0  0  0  0  0  0  0
   56.2667   30.2265   50.7245 H   0  0  0  0  0  0  0  0  0  0  0  0
   56.0358   31.9079   51.3977 H   0  0  0  0  0  0  0  0  0  0  0  0
   58.4764   26.5206   47.8155 H   0  0  0  0  0  0  0  0  0  0  0  0
   57.5966   26.1423   45.5555 H   0  0  0  0  0  0  0  0  0  0  0  0
   57.6923   27.9189   43.8075 H   0  0  0  0  0  0  0  0  0  0  0  0
   59.5440   30.4840   43.5700 H   0  0  0  0  0  0  0  0  0  0  0  0
   58.7173   32.7399   42.9552 H   0  0  0  0  0  0  0  0  0  0  0  0
   56.9739   32.5885   42.7531 H   0  0  0  0  0  0  0  0  0  0  0  0
   57.7840   34.7410   43.9933 H   0  0  0  0  0  0  0  0  0  0  0  0
   56.5495   33.7887   44.8756 H   0  0  0  0  0  0  0  0  0  0  0  0
   60.4216   32.7249   49.8946 H   0  0  0  0  0  0  0  0  0  0  0  0
   62.8813   33.0768   49.7233 H   0  0  0  0  0  0  0  0  0  0  0  0
   63.9167   33.7642   47.5847 H   0  0  0  0  0  0  0  0  0  0  0  0
   62.5082   34.1256   45.5436 H   0  0  0  0  0  0  0  0  0  0  0  0
   60.2550   34.0890   44.6160 H   0  0  0  0  0  0  0  0  0  0  0  0
   59.6112   30.4938   46.6975 H   0  0  0  0  0  0  0  0  0  0  0  0
   60.9750   30.6110   50.7990 H   0  0  0  0  0  0  0  0  0  0  0  0
   61.9078   32.7606   52.3571 H   0  0  0  0  0  0  0  0  0  0  0  0
   61.1126   34.5586   53.8390 H   0  0  0  0  0  0  0  0  0  0  0  0
   58.6941   34.8256   54.3189 H   0  0  0  0  0  0  0  0  0  0  0  0
   57.0848   33.2591   53.2917 H   0  0  0  0  0  0  0  0  0  0  0  0
  1  2  1  0
  2  3  1  0
  3  4  1  0
  3  5  1  0
  5  6  1  0
  6  7  1  0
  7  8  2  0
  8  9  1  0
  9 10  2  0
  9 11  2  0
  9 12  1  0
 12 13  2  0
 13 14  1  0
 14 15  2  0
 15 16  1  0
 16 17  1  0
 17 18  1  0
 18 19  2  0
 18 20  1  0
 20 21  1  0
 21 22  1  0
 22 23  2  0
 23 24  1  0
 24 25  2  0
 24 26  1  0
 26 27  2  0
 27 28  1  0
 28 29  2  0
 29 30  1  0
 30 31  2  0
 31 32  1  0
 16 33  2  0
  7 34  1  0
 34 35  1  0
 35 36  2  0
 36 37  1  0
 37 38  2  0
 38 39  1  0
 39 40  2  0
 40  6  1  0
 33 12  1  0
 40 35  1  0
 32 22  1  0
 31 26  1  0
  1 41  1  0
  1 42  1  0
  1 43  1  0
  2 44  1  0
  2 45  1  0
  3 46  1  1
  4 47  1  0
  4 48  1  0
  4 49  1  0
  5 50  1  0
  5 51  1  0
 13 52  1  0
 14 53  1  0
 15 54  1  0
 17 55  1  0
 20 56  1  0
 20 57  1  0
 21 58  1  0
 21 59  1  0
 27 60  1  0
 28 61  1  0
 29 62  1  0
 30 63  1  0
 32 64  1  0
 33 65  1  0
 34 66  1  0
 36 67  1  0
 37 68  1  0
 38 69  1  0
 39 70  1  0
M  END
>  <smiles>  (49) 
CCC(C)Cn1c(=NS(=O)(=O)c2cccc(NC(=O)CCc3nc(=O)c4ccccc4[nH]3)c2)[nH]c2ccccc21

>  <score_type>  (49) 
oracle

>  <origin>  (49) 
adg

>  <m_score__min__energy>  (49) 
-11.34

>  <m_primary>  (49) 
energy

$$$$
49:0
     RDKit          3D

 42 44  0  0  0  0  0  0  0  0999 V2000
   54.7570   26.3040   45.9870 N   0  0  0  0  0  0  0  0  0  0  0  0
   56.3310   25.6270   46.2210 S   0  0  0  0  0  0  0  0  0  0  0  0
   56.7390   24.8700   44.9890 O   0  0  0  0  0  0  0  0  0  0  0  0
   56.2920   24.6790   47.3860 O   0  0  0  0  0  0  0  0  0  0  0  0
   57.4830   26.9240   46.5230 C   0  0  0  0  0  0  0  0  0  0  0  0
   58.3940   26.8060   47.5810 C   0  0  0  0  0  0  0  0  0  0  0  0
   59.3690   27.7890   47.7800 C   0  0  0  0  0  0  0  0  0  0  0  0
   59.4390   28.8910   46.9250 C   0  0  0  0  0  0  0  0  0  0  0  0
   58.5140   29.0360   45.8850 C   0  0  0  0  0  0  0  0  0  0  0  0
   58.6440   30.1390   44.9770 N   0  0  0  0  0  0  0  0  0  0  0  0
   58.3670   31.3780   45.2520 C   0  0  0  0  0  0  0  0  0  0  0  0
   59.3270   32.2300   45.7130 N   0  0  0  0  0  0  0  0  0  0  0  0
   59.0490   33.5390   45.9680 C   0  0  0  0  0  0  0  0  0  0  0  0
   60.0870   34.4460   46.3750 N   0  0  0  0  0  0  0  0  0  0  0  0
   61.1170   34.1070   47.3150 C   0  0  0  0  0  0  0  0  0  0  0  0
   60.9130   34.2380   48.6980 C   0  0  0  0  0  0  0  0  0  0  0  0
   61.9370   33.9190   49.5950 C   0  0  0  0  0  0  0  0  0  0  0  0
   63.1760   33.4690   49.1210 C   0  0  0  0  0  0  0  0  0  0  0  0
   64.4630   33.0740   50.2560 S   0  0  0  0  0  0  0  0  0  0  0  0
   65.9250   32.7720   49.3850 N   0  0  0  0  0  0  0  0  0  0  0  0
   64.6710   34.2200   51.2050 O   0  0  0  0  0  0  0  0  0  0  0  0
   64.0870   31.8530   51.0490 O   0  0  0  0  0  0  0  0  0  0  0  0
   63.3940   33.3680   47.7420 C   0  0  0  0  0  0  0  0  0  0  0  0
   62.3720   33.6930   46.8440 C   0  0  0  0  0  0  0  0  0  0  0  0
   57.7520   34.0170   45.7530 C   0  0  0  0  0  0  0  0  0  0  0  0
   56.7840   33.1360   45.2760 C   0  0  0  0  0  0  0  0  0  0  0  0
   57.1100   31.8420   45.0270 N   0  0  0  0  0  0  0  0  0  0  0  0
   57.5420   28.0420   45.6780 C   0  0  0  0  0  0  0  0  0  0  0  0
   54.6550   27.0830   46.6750 H   0  0  0  0  0  0  0  0  0  0  0  0
   58.3424   25.9391   48.2561 H   0  0  0  0  0  0  0  0  0  0  0  0
   60.0823   27.6938   48.6119 H   0  0  0  0  0  0  0  0  0  0  0  0
   60.2241   29.6478   47.0696 H   0  0  0  0  0  0  0  0  0  0  0  0
   60.1970   35.3380   45.8390 H   0  0  0  0  0  0  0  0  0  0  0  0
   59.9435   34.5931   49.0774 H   0  0  0  0  0  0  0  0  0  0  0  0
   61.7690   34.0218   50.6772 H   0  0  0  0  0  0  0  0  0  0  0  0
   65.7660   33.0900   48.4030 H   0  0  0  0  0  0  0  0  0  0  0  0
   66.6560   33.3970   49.7910 H   0  0  0  0  0  0  0  0  0  0  0  0
   64.3709   33.0324   47.3638 H   0  0  0  0  0  0  0  0  0  0  0  0
   62.5535   33.6235   45.7613 H   0  0  0  0  0  0  0  0  0  0  0  0
   57.5012   35.0685   45.9567 H   0  0  0  0  0  0  0  0  0  0  0  0
   55.7568   33.4885   45.1013 H   0  0  0  0  0  0  0  0  0  0  0  0
   56.8247   28.1413   44.8500 H   0  0  0  0  0  0  0  0  0  0  0  0
  1  2  1  0
  2  3  2  0
  2  4  2  0
  2  5  1  0
  5  6  2  0
  6  7  1  0
  7  8  2  0
  8  9  1  0
  9 10  1  0
 10 11  2  3
 11 12  1  0
 12 13  2  0
 13 14  1  0
 14 15  1  0
 15 16  2  0
 16 17  1  0
 17 18  2  0
 18 19  1  0
 19 20  1  0
 19 21  2  0
 19 22  2  0
 18 23  1  0
 23 24  2  0
 13 25  1  0
 25 26  2  0
 26 27  1  0
  9 28  2  0
 28  5  1  0
 27 11  1  0
 24 15  1  0
  1 29  1  0
  6 30  1  0
  7 31  1  0
  8 32  1  0
 14 33  1  0
 16 34  1  0
 17 35  1  0
 20 36  1  0
 20 37  1  0
 23 38  1  0
 24 39  1  0
 25 40  1  0
 26 41  1  0
 28 42  1  0
M  CHG  2   1  -1  27  -1
M  END
>  <UniqueID>  (50) 
43

>  <SMILES>  (50) 
[NH-]S(=O)(=O)c1cccc(N=c2nc(Nc3ccc(S(N)(=O)=O)cc3)cc[n-]2)c1

>  <Energy>  (50) 
52.152801375904794

>  <Genealogy>  (50) 
[NH-]S(=O)(=O)c1cccc(N=c2nc(Nc3ccc(S(N)(=O)=O)cc3)cc[n-]2)c1 (protonated)
[NH-]S(=O)(=O)c1cccc(N=c2nc(Nc3ccc(S(N)(=O)=O)cc3)cc[n-]2)c1 (3D coordinates assigned)
[NH-]S(=O)(=O)c1cccc(N=c2nc(Nc3ccc(S(N)(=O)=O)cc3)cc[n-]2)c1 (optimized conformer: 52.152801375904794 kcal/mol)

>  <smiles>  (50) 
NS(=O)(=O)c1ccc(Nc2cc[nH]c(=Nc3cccc(S(N)(=O)=O)c3)n2)cc1

>  <score_type>  (50) 
oracle

>  <origin>  (50) 
adg

>  <m_score__min__energy>  (50) 
-12.56

>  <m_primary>  (50) 
energy

$$$$
50:0
     RDKit          3D

 31 33  0  0  0  0  0  0  0  0999 V2000
   56.8473   21.4973   41.7973 H   0  0  0  0  0  0  0  0  0  0  0  0
   56.6290   21.9180   42.7900 C   0  0  0  0  0  0  0  0  0  0  0  0
   55.5240   22.5460   43.1190 O   0  0  0  0  0  0  0  0  0  0  0  0
   55.6070   22.9150   44.3760 C   0  0  0  0  0  0  0  0  0  0  0  0
   54.5370   23.6330   45.0890 C   0  0  0  0  0  0  0  0  0  0  0  0
   53.3370   23.3380   44.8480 O   0  0  0  0  0  0  0  0  0  0  0  0
   54.8240   24.6040   46.1040 N   0  0  0  0  0  0  0  0  0  0  0  0
   55.7640   25.4990   46.0430 C   0  0  0  0  0  0  0  0  0  0  0  0
   55.5270   26.7630   45.6380 N   0  0  0  0  0  0  0  0  0  0  0  0
   56.6660   27.5090   45.6120 C   0  0  0  0  0  0  0  0  0  0  0  0
   56.6380   28.9340   45.2280 C   0  0  0  0  0  0  0  0  0  0  0  0
   55.5300   29.4810   44.9900 O   0  0  0  0  0  0  0  0  0  0  0  0
   57.8270   29.7330   45.1690 N   0  0  0  0  0  0  0  0  0  0  0  0
   57.8920   31.1610   45.3010 C   0  0  0  0  0  0  0  0  0  0  0  0
   57.3510   32.0180   44.3250 C   0  0  0  0  0  0  0  0  0  0  0  0
   56.8760   31.5956   43.4273 H   0  0  0  0  0  0  0  0  0  0  0  0
   57.4150   33.4030   44.4920 C   0  0  0  0  0  0  0  0  0  0  0  0
   57.0016   34.0691   43.7204 H   0  0  0  0  0  0  0  0  0  0  0  0
   58.0040   33.9440   45.6390 C   0  0  0  0  0  0  0  0  0  0  0  0
   58.0591   35.0352   45.7665 H   0  0  0  0  0  0  0  0  0  0  0  0
   58.5230   33.0980   46.6240 C   0  0  0  0  0  0  0  0  0  0  0  0
   59.2510   33.7760   48.0680 Cl  0  0  0  0  0  0  0  0  0  0  0  0
   58.4600   31.7090   46.4570 C   0  0  0  0  0  0  0  0  0  0  0  0
   58.8589   31.0453   47.2382 H   0  0  0  0  0  0  0  0  0  0  0  0
   57.8210   26.8320   46.0080 C   0  0  0  0  0  0  0  0  0  0  0  0
   58.8322   27.2608   46.0671 H   0  0  0  0  0  0  0  0  0  0  0  0
   57.3980   25.2470   46.3790 S   0  0  0  0  0  0  0  0  0  0  0  0
   56.8170   22.5080   44.9060 C   0  0  0  0  0  0  0  0  0  0  0  0
   57.1792   22.6639   45.9329 H   0  0  0  0  0  0  0  0  0  0  0  0
   57.4750   21.8660   43.8790 C   0  0  0  0  0  0  0  0  0  0  0  0
   58.4730   21.4052   43.9193 H   0  0  0  0  0  0  0  0  0  0  0  0
  1  2  1  0
  2  3  1  0
  3  4  1  0
  4  5  1  0
  5  6  2  0
  5  7  1  0
  7  8  2  0
  8  9  1  0
  9 10  1  0
 10 11  1  0
 11 12  2  0
 11 13  1  0
 13 14  1  0
 14 15  2  0
 15 16  1  0
 15 17  1  0
 17 18  1  0
 17 19  2  0
 19 20  1  0
 19 21  1  0
 21 22  1  0
 21 23  2  0
 23 24  1  0
 10 25  2  0
 25 26  1  0
 25 27  1  0
  4 28  2  0
 28 29  1  0
 28 30  1  0
 30 31  1  0
 30  2  2  0
 27  8  1  0
 23 14  1  0
M  CHG  2   9  -1  13  -1
M  END
>  <UniqueID>  (51) 
44

>  <SMILES>  (51) 
O=C([N-]c1cccc(Cl)c1)c1cs/c(=N\C(=O)c2ccco2)[n-]1

>  <Energy>  (51) 
101.68175395127133

>  <Genealogy>  (51) 
O=C([N-]c1cccc(Cl)c1)c1csc(=NC(=O)c2ccco2)[n-]1 (protonated)
O=C([N-]c1cccc(Cl)c1)c1cs/c(=N\C(=O)c2ccco2)[n-]1 (cis-trans isomerization)
O=C([N-]c1cccc(Cl)c1)c1cs/c(=N\C(=O)c2ccco2)[n-]1 (3D coordinates assigned)
O=C([N-]c1cccc(Cl)c1)c1cs/c(=N\C(=O)c2ccco2)[n-]1 (optimized conformer: 101.68175395127133 kcal/mol)

>  <smiles>  (51) 
O=C(Nc1cccc(Cl)c1)c1csc(=NC(=O)c2ccco2)[nH]1

>  <score_type>  (51) 
oracle

>  <origin>  (51) 
adg

>  <m_score__min__energy>  (51) 
-12.06

>  <m_primary>  (51) 
energy

$$$$
51:0
     RDKit          3D

 42 44  0  0  0  0  0  0  0  0999 V2000
   57.9750   21.8240   44.1080 C   0  0  0  0  0  0  0  0  0  0  0  0
   59.1970   22.2940   44.8840 C   0  0  0  0  0  0  0  0  0  0  0  0
   58.7810   23.1080   45.9780 O   0  0  0  0  0  0  0  0  0  0  0  0
   58.2590   24.4030   45.8500 C   0  0  0  0  0  0  0  0  0  0  0  0
   56.8970   24.6460   45.5960 C   0  0  0  0  0  0  0  0  0  0  0  0
   56.4220   25.9530   45.4770 C   0  0  0  0  0  0  0  0  0  0  0  0
   57.2970   27.0440   45.6090 C   0  0  0  0  0  0  0  0  0  0  0  0
   58.6650   26.8070   45.8640 C   0  0  0  0  0  0  0  0  0  0  0  0
   59.1340   25.4870   45.9840 C   0  0  0  0  0  0  0  0  0  0  0  0
   59.5020   27.8760   45.9910 N   0  0  0  0  0  0  0  0  0  0  0  0
   60.8430   27.6940   46.2440 O   0  0  0  0  0  0  0  0  0  0  0  0
   59.0370   29.1180   45.8750 N   0  0  0  0  0  0  0  0  0  0  0  0
   57.7250   29.3730   45.6230 C   0  0  0  0  0  0  0  0  0  0  0  0
   57.2630   30.7320   45.5270 N   0  0  0  0  0  0  0  0  0  0  0  0
   58.0900   31.8590   45.8610 C   0  0  0  0  0  0  0  0  0  0  0  0
   58.6740   31.9400   47.1380 C   0  0  0  0  0  0  0  0  0  0  0  0
   59.4870   33.0210   47.4810 C   0  0  0  0  0  0  0  0  0  0  0  0
   59.7300   34.0330   46.5550 C   0  0  0  0  0  0  0  0  0  0  0  0
   59.1650   33.9660   45.2790 C   0  0  0  0  0  0  0  0  0  0  0  0
   58.3540   32.8770   44.9100 C   0  0  0  0  0  0  0  0  0  0  0  0
   57.7170   32.8720   43.5400 C   0  0  0  0  0  0  0  0  0  0  0  0
   58.0680   31.5960   42.7790 C   0  0  0  0  0  0  0  0  0  0  0  0
   56.8520   28.3310   45.4950 N   0  0  0  0  0  0  0  0  0  0  0  0
   55.5210   28.5850   45.2410 O   0  0  0  0  0  0  0  0  0  0  0  0
   57.1871   21.5209   44.8132 H   0  0  0  0  0  0  0  0  0  0  0  0
   57.6049   22.6440   43.4750 H   0  0  0  0  0  0  0  0  0  0  0  0
   58.2498   20.9674   43.4750 H   0  0  0  0  0  0  0  0  0  0  0  0
   59.7475   21.4212   45.2649 H   0  0  0  0  0  0  0  0  0  0  0  0
   59.8507   22.8785   44.2198 H   0  0  0  0  0  0  0  0  0  0  0  0
   56.2016   23.8003   45.4904 H   0  0  0  0  0  0  0  0  0  0  0  0
   55.3547   26.1301   45.2784 H   0  0  0  0  0  0  0  0  0  0  0  0
   60.1999   25.3044   46.1853 H   0  0  0  0  0  0  0  0  0  0  0  0
   56.2750   30.9080   45.2450 H   0  0  0  0  0  0  0  0  0  0  0  0
   58.4880   31.1434   47.8735 H   0  0  0  0  0  0  0  0  0  0  0  0
   59.9365   33.0741   48.4836 H   0  0  0  0  0  0  0  0  0  0  0  0
   60.3678   34.8863   46.8289 H   0  0  0  0  0  0  0  0  0  0  0  0
   59.3560   34.7725   44.5558 H   0  0  0  0  0  0  0  0  0  0  0  0
   56.6245   32.9359   43.6509 H   0  0  0  0  0  0  0  0  0  0  0  0
   58.0975   33.7345   42.9731 H   0  0  0  0  0  0  0  0  0  0  0  0
   58.2894   30.7911   43.4953 H   0  0  0  0  0  0  0  0  0  0  0  0
   57.2178   31.3005   42.1467 H   0  0  0  0  0  0  0  0  0  0  0  0
   58.9497   31.7770   42.1467 H   0  0  0  0  0  0  0  0  0  0  0  0
  1  2  1  0
  2  3  1  0
  3  4  1  0
  4  5  2  0
  5  6  1  0
  6  7  2  0
  7  8  1  0
  8  9  2  0
  8 10  1  0
 10 11  1  0
 10 12  2  0
 12 13  1  0
 13 14  1  0
 14 15  1  0
 15 16  2  0
 16 17  1  0
 17 18  2  0
 18 19  1  0
 19 20  2  0
 20 21  1  0
 21 22  1  0
 13 23  2  0
 23 24  1  0
  9  4  1  0
 20 15  1  0
 23  7  1  0
  1 25  1  0
  1 26  1  0
  1 27  1  0
  2 28  1  0
  2 29  1  0
  5 30  1  0
  6 31  1  0
  9 32  1  0
 14 33  1  0
 16 34  1  0
 17 35  1  0
 18 36  1  0
 19 37  1  0
 21 38  1  0
 21 39  1  0
 22 40  1  0
 22 41  1  0
 22 42  1  0
M  CHG  4  10   1  11  -1  23   1  24  -1
M  END
>  <UniqueID>  (52) 
45

>  <SMILES>  (52) 
CCOc1ccc2c(c1)[n+]([O-])nc(Nc1ccccc1CC)[n+]2[O-]

>  <Energy>  (52) 
49.73551342070196

>  <Genealogy>  (52) 
CCOc1ccc2c(c1)[n+]([O-])nc(Nc1ccccc1CC)[n+]2[O-] (3D coordinates assigned)
CCOc1ccc2c(c1)[n+]([O-])nc(Nc1ccccc1CC)[n+]2[O-] (optimized conformer: 49.73551342070196 kcal/mol)

>  <smiles>  (52) 
CCOc1ccc2c(c1)[n+]([O-])nc(Nc1ccccc1CC)[n+]2[O-]

>  <score_type>  (52) 
oracle

>  <origin>  (52) 
adg

>  <m_score__min__energy>  (52) 
-8.0899999999999999

>  <m_primary>  (52) 
energy

$$$$
52:0
     RDKit          3D

 44 46  0  0  0  0  0  0  0  0999 V2000
   64.1240   32.4420   46.9020 N   0  0  0  0  0  0  0  0  0  0  0  0
   63.7610   32.6690   48.5770 S   0  0  0  0  0  0  0  0  0  0  0  0
   63.7920   31.3380   49.2740 O   0  0  0  0  0  0  0  0  0  0  0  0
   64.7940   33.5670   49.2000 O   0  0  0  0  0  0  0  0  0  0  0  0
   62.1680   33.4030   48.7430 C   0  0  0  0  0  0  0  0  0  0  0  0
   61.6070   33.6160   50.0090 C   0  0  0  0  0  0  0  0  0  0  0  0
   60.3470   34.2050   50.1270 C   0  0  0  0  0  0  0  0  0  0  0  0
   59.6320   34.5720   48.9820 C   0  0  0  0  0  0  0  0  0  0  0  0
   60.1680   34.3250   47.7050 C   0  0  0  0  0  0  0  0  0  0  0  0
   59.4570   34.6750   46.5070 N   0  0  0  0  0  0  0  0  0  0  0  0
   58.5350   33.8360   45.7970 C   0  0  0  0  0  0  0  0  0  0  0  0
   57.6450   34.3790   45.0910 O   0  0  0  0  0  0  0  0  0  0  0  0
   58.6280   32.3600   45.8390 C   0  0  0  0  0  0  0  0  0  0  0  0
   59.6720   31.7230   46.5330 C   0  0  0  0  0  0  0  0  0  0  0  0
   59.7280   30.3300   46.6000 C   0  0  0  0  0  0  0  0  0  0  0  0
   58.7470   29.5580   45.9750 C   0  0  0  0  0  0  0  0  0  0  0  0
   57.7110   30.1780   45.2660 C   0  0  0  0  0  0  0  0  0  0  0  0
   56.4480   29.1930   44.5350 S   0  0  0  0  0  0  0  0  0  0  0  0
   56.9590   28.6250   43.2410 O   0  0  0  0  0  0  0  0  0  0  0  0
   55.2200   30.0130   44.2530 O   0  0  0  0  0  0  0  0  0  0  0  0
   56.0330   27.8960   45.6070 N   0  0  0  0  0  0  0  0  0  0  0  0
   56.6460   26.5980   45.6070 C   0  0  0  0  0  0  0  0  0  0  0  0
   55.8240   25.4700   45.7160 C   0  0  0  0  0  0  0  0  0  0  0  0
   56.3770   24.1860   45.7090 C   0  0  0  0  0  0  0  0  0  0  0  0
   57.7600   24.0180   45.5930 C   0  0  0  0  0  0  0  0  0  0  0  0
   58.4500   22.4030   45.5760 Cl  0  0  0  0  0  0  0  0  0  0  0  0
   58.5890   25.1370   45.4850 C   0  0  0  0  0  0  0  0  0  0  0  0
   58.0380   26.4230   45.4920 C   0  0  0  0  0  0  0  0  0  0  0  0
   57.6610   31.5780   45.1850 C   0  0  0  0  0  0  0  0  0  0  0  0
   61.4440   33.7610   47.5940 C   0  0  0  0  0  0  0  0  0  0  0  0
   64.9030   33.0960   46.6670 H   0  0  0  0  0  0  0  0  0  0  0  0
   64.5010   31.4740   46.7990 H   0  0  0  0  0  0  0  0  0  0  0  0
   62.1606   33.3185   50.9118 H   0  0  0  0  0  0  0  0  0  0  0  0
   59.9151   34.3811   51.1232 H   0  0  0  0  0  0  0  0  0  0  0  0
   58.6485   35.0548   49.0804 H   0  0  0  0  0  0  0  0  0  0  0  0
   60.4489   32.3259   47.0259 H   0  0  0  0  0  0  0  0  0  0  0  0
   60.5469   29.8393   47.1465 H   0  0  0  0  0  0  0  0  0  0  0  0
   58.7880   28.4607   46.0397 H   0  0  0  0  0  0  0  0  0  0  0  0
   54.7350   25.5949   45.8078 H   0  0  0  0  0  0  0  0  0  0  0  0
   55.7225   23.3061   45.7949 H   0  0  0  0  0  0  0  0  0  0  0  0
   59.6775   25.0068   45.3942 H   0  0  0  0  0  0  0  0  0  0  0  0
   58.6953   27.3010   45.4073 H   0  0  0  0  0  0  0  0  0  0  0  0
   56.8617   32.0652   44.6073 H   0  0  0  0  0  0  0  0  0  0  0  0
   61.8833   33.5968   46.5990 H   0  0  0  0  0  0  0  0  0  0  0  0
  1  2  1  0
  2  3  2  0
  2  4  2  0
  2  5  1  0
  5  6  2  0
  6  7  1  0
  7  8  2  0
  8  9  1  0
  9 10  1  0
 10 11  1  0
 11 12  2  0
 11 13  1  0
 13 14  2  0
 14 15  1  0
 15 16  2  0
 16 17  1  0
 17 18  1  0
 18 19  2  0
 18 20  2  0
 18 21  1  0
 21 22  1  0
 22 23  2  0
 23 24  1  0
 24 25  2  0
 25 26  1  0
 25 27  1  0
 27 28  2  0
 17 29  2  0
  9 30  2  0
 30  5  1  0
 29 13  1  0
 28 22  1  0
  1 31  1  0
  1 32  1  0
  6 33  1  0
  7 34  1  0
  8 35  1  0
 14 36  1  0
 15 37  1  0
 16 38  1  0
 23 39  1  0
 24 40  1  0
 27 41  1  0
 28 42  1  0
 29 43  1  0
 30 44  1  0
M  CHG  2  10  -1  21  -1
M  END
>  <UniqueID>  (53) 
46

>  <SMILES>  (53) 
NS(=O)(=O)c1cccc([N-]C(=O)c2cccc(S(=O)(=O)[N-]c3ccc(Cl)cc3)c2)c1

>  <Energy>  (53) 
54.438103849444175

>  <Genealogy>  (53) 
NS(=O)(=O)c1cccc([N-]C(=O)c2cccc(S(=O)(=O)[N-]c3ccc(Cl)cc3)c2)c1 (protonated)
NS(=O)(=O)c1cccc([N-]C(=O)c2cccc(S(=O)(=O)[N-]c3ccc(Cl)cc3)c2)c1 (3D coordinates assigned)
NS(=O)(=O)c1cccc([N-]C(=O)c2cccc(S(=O)(=O)[N-]c3ccc(Cl)cc3)c2)c1 (optimized conformer: 54.438103849444175 kcal/mol)

>  <smiles>  (53) 
NS(=O)(=O)c1cccc(NC(=O)c2cccc(S(=O)(=O)Nc3ccc(Cl)cc3)c2)c1

>  <score_type>  (53) 
oracle

>  <origin>  (53) 
adg

>  <m_score__min__energy>  (53) 
-13.130000000000001

>  <m_primary>  (53) 
energy

$$$$
53:0
     RDKit          3D

 33 35  0  0  0  0  0  0  0  0999 V2000
   57.4300   33.9470   45.6740 O   0  0  0  0  0  0  0  0  0  0  0  0
   58.2040   33.0580   46.1240 C   0  0  0  0  0  0  0  0  0  0  0  0
   59.3880   33.4530   46.9250 C   0  0  0  0  0  0  0  0  0  0  0  0
   59.2490   33.8560   48.2670 C   0  0  0  0  0  0  0  0  0  0  0  0
   60.3690   34.2360   49.0120 C   0  0  0  0  0  0  0  0  0  0  0  0
   61.6380   34.2220   48.4280 C   0  0  0  0  0  0  0  0  0  0  0  0
   62.7220   34.5950   49.1520 F   0  0  0  0  0  0  0  0  0  0  0  0
   61.7870   33.8290   47.0960 C   0  0  0  0  0  0  0  0  0  0  0  0
   60.6700   33.4500   46.3460 C   0  0  0  0  0  0  0  0  0  0  0  0
   57.8960   31.6750   45.8770 N   0  0  0  0  0  0  0  0  0  0  0  0
   58.2370   30.6840   46.9020 C   0  0  0  0  0  0  0  0  0  0  0  0
   58.7810   29.4500   46.2540 C   0  0  0  0  0  0  0  0  0  0  0  0
   60.0680   29.2920   45.7560 C   0  0  0  0  0  0  0  0  0  0  0  0
   60.3290   27.9920   45.3090 C   0  0  0  0  0  0  0  0  0  0  0  0
   59.2560   27.1230   45.4670 C   0  0  0  0  0  0  0  0  0  0  0  0
   57.9860   27.9720   46.1670 S   0  0  0  0  0  0  0  0  0  0  0  0
   57.3430   31.2580   44.6120 C   0  0  0  0  0  0  0  0  0  0  0  0
   57.8070   31.6240   43.3600 C   0  0  0  0  0  0  0  0  0  0  0  0
   56.9470   30.9940   42.4860 C   0  0  0  0  0  0  0  0  0  0  0  0
   56.0340   30.3070   43.1960 N   0  0  0  0  0  0  0  0  0  0  0  0
   56.2620   30.4620   44.4900 N   0  0  0  0  0  0  0  0  0  0  0  0
   58.2523   33.8719   48.7322 H   0  0  0  0  0  0  0  0  0  0  0  0
   60.2509   34.5468   50.0606 H   0  0  0  0  0  0  0  0  0  0  0  0
   62.7861   33.8177   46.6359 H   0  0  0  0  0  0  0  0  0  0  0  0
   60.7943   33.1473   45.2958 H   0  0  0  0  0  0  0  0  0  0  0  0
   58.9948   31.1051   47.5791 H   0  0  0  0  0  0  0  0  0  0  0  0
   57.3324   30.4258   47.4722 H   0  0  0  0  0  0  0  0  0  0  0  0
   60.8068   30.1060   45.7170 H   0  0  0  0  0  0  0  0  0  0  0  0
   61.2921   27.6868   44.8738 H   0  0  0  0  0  0  0  0  0  0  0  0
   59.2407   26.0606   45.1824 H   0  0  0  0  0  0  0  0  0  0  0  0
   58.6646   32.2691   43.1183 H   0  0  0  0  0  0  0  0  0  0  0  0
   56.9988   31.0447   41.3884 H   0  0  0  0  0  0  0  0  0  0  0  0
   55.2540   29.7350   42.8030 H   0  0  0  0  0  0  0  0  0  0  0  0
  1  2  2  0
  2  3  1  0
  3  4  2  0
  4  5  1  0
  5  6  2  0
  6  7  1  0
  6  8  1  0
  8  9  2  0
  2 10  1  0
 10 11  1  0
 11 12  1  0
 12 13  2  0
 13 14  1  0
 14 15  2  0
 15 16  1  0
 10 17  1  0
 17 18  1  0
 18 19  2  0
 19 20  1  0
 20 21  1  0
  9  3  1  0
 16 12  1  0
 21 17  2  0
  4 22  1  0
  5 23  1  0
  8 24  1  0
  9 25  1  0
 11 26  1  0
 11 27  1  0
 13 28  1  0
 14 29  1  0
 15 30  1  0
 18 31  1  0
 19 32  1  0
 20 33  1  0
M  END
>  <UniqueID>  (54) 
47

>  <SMILES>  (54) 
O=C(c1ccc(F)cc1)N(Cc1cccs1)c1cc[nH]n1

>  <Energy>  (54) 
94.50933367562784

>  <Genealogy>  (54) 
O=C(c1ccc(F)cc1)N(Cc1cccs1)c1cc[nH]n1 (3D coordinates assigned)
O=C(c1ccc(F)cc1)N(Cc1cccs1)c1cc[nH]n1 (optimized conformer: 94.50933367562784 kcal/mol)

>  <smiles>  (54) 
O=C(c1ccc(F)cc1)N(Cc1cccs1)c1cc[nH]n1

>  <score_type>  (54) 
oracle

>  <origin>  (54) 
adg

>  <m_score__min__energy>  (54) 
-7.54

>  <m_primary>  (54) 
energy

$$$$
54:0
     RDKit          3D

112115  0  0  0  0  0  0  0  0999 V2000
   60.0740   22.0790   44.6070 N   0  0  0  0  0  0  0  0  0  0  0  0
   59.1580   22.8790   45.3550 C   0  0  0  0  0  0  0  0  0  0  0  0
   58.1000   22.2360   46.0880 N   0  0  0  0  0  0  0  0  0  0  0  0
   59.3050   24.1740   45.3450 N   0  0  0  0  0  0  0  0  0  0  0  0
   60.3840   24.9280   45.9950 C   0  0  0  0  0  0  0  0  0  0  0  0
   59.9960   26.4010   46.1760 C   0  0  0  0  0  0  0  0  0  0  0  0
   58.8880   26.8270   45.1920 C   0  0  0  0  0  0  0  0  0  0  0  0
   58.0480   27.9840   45.7480 C   0  0  1  0  0  0  0  0  0  0  0  0
   58.3840   29.2250   45.0460 N   0  0  0  0  0  0  0  0  0  0  0  0
   57.8400   30.5170   45.3450 C   0  0  0  0  0  0  0  0  0  0  0  0
   56.7060   30.8210   44.8840 O   0  0  0  0  0  0  0  0  0  0  0  0
   58.5660   31.5060   46.2130 C   0  0  0  0  0  0  0  0  0  0  0  0
   59.5410   30.8370   47.1100 N   0  0  0  0  0  0  0  0  0  0  0  0
   60.8190   31.5900   47.1050 C   0  0  0  0  0  0  0  0  0  0  0  0
   60.5970   33.0990   46.8890 C   0  0  0  0  0  0  0  0  0  0  0  0
   61.8800   33.8230   46.4420 C   0  0  0  0  0  0  0  0  0  0  0  0
   63.0960   33.3490   47.2060 C   0  0  0  0  0  0  0  0  0  0  0  0
   63.8850   32.5160   46.6780 O   0  0  0  0  0  0  0  0  0  0  0  0
   63.2920   33.6890   48.5840 N   0  0  0  0  0  0  0  0  0  0  0  0
   63.3970   32.7990   49.6980 C   0  0  0  0  0  0  0  0  0  0  0  0
   64.5250   31.9760   49.7950 C   0  0  0  0  0  0  0  0  0  0  0  0
   64.7120   31.1610   50.9060 C   0  0  0  0  0  0  0  0  0  0  0  0
   63.7720   31.1340   51.9400 C   0  0  0  0  0  0  0  0  0  0  0  0
   63.9990   30.2550   53.0110 O   0  0  0  0  0  0  0  0  0  0  0  0
   65.1750   29.4750   53.2140 C   0  0  0  0  0  0  0  0  0  0  0  0
   64.9610   28.0330   52.7540 C   0  0  0  0  0  0  0  0  0  0  0  0
   66.0060   27.6290   51.7430 C   0  0  0  0  0  0  0  0  0  0  0  0
   66.0790   26.3030   51.2820 C   0  0  0  0  0  0  0  0  0  0  0  0
   67.0790   25.9250   50.3780 C   0  0  0  0  0  0  0  0  0  0  0  0
   68.0130   26.8660   49.9380 C   0  0  0  0  0  0  0  0  0  0  0  0
   67.9310   28.1930   50.3790 C   0  0  0  0  0  0  0  0  0  0  0  0
   66.9330   28.5720   51.2730 C   0  0  0  0  0  0  0  0  0  0  0  0
   62.6430   31.9750   51.8550 C   0  0  0  0  0  0  0  0  0  0  0  0
   62.4650   32.8140   50.7480 C   0  0  0  0  0  0  0  0  0  0  0  0
   59.0200   30.7260   48.5010 C   0  0  0  0  0  0  0  0  0  0  0  0
   59.7800   29.6790   49.2690 C   0  0  0  0  0  0  0  0  0  0  0  0
   60.2400   29.9500   50.5690 C   0  0  0  0  0  0  0  0  0  0  0  0
   60.9740   28.9860   51.2710 C   0  0  0  0  0  0  0  0  0  0  0  0
   61.2270   27.7380   50.6950 C   0  0  0  0  0  0  0  0  0  0  0  0
   60.7480   27.4540   49.4100 C   0  0  0  0  0  0  0  0  0  0  0  0
   60.0250   28.4170   48.7020 C   0  0  0  0  0  0  0  0  0  0  0  0
   56.5750   27.7040   45.6240 C   0  0  0  0  0  0  0  0  0  0  0  0
   55.8550   28.5630   45.0530 O   0  0  0  0  0  0  0  0  0  0  0  0
   55.9520   26.4590   46.1090 C   0  0  0  0  0  0  0  0  0  0  0  0
   54.7830   26.1480   45.7590 O   0  0  0  0  0  0  0  0  0  0  0  0
   56.7050   25.5900   46.9630 N   0  0  0  0  0  0  0  0  0  0  0  0
   56.1800   24.3460   47.5090 C   0  0  0  0  0  0  0  0  0  0  0  0
   57.2160   23.6800   48.2880 N   0  0  0  0  0  0  0  0  0  0  0  0
   57.0000   22.4000   48.8770 C   0  0  0  0  0  0  0  0  0  0  0  0
   56.5640   22.3300   50.0580 O   0  0  0  0  0  0  0  0  0  0  0  0
   57.2960   21.2370   48.1600 O   0  0  0  0  0  0  0  0  0  0  0  0
   56.4050   20.1320   48.0570 C   0  0  0  0  0  0  0  0  0  0  0  0
   56.5580   19.4290   46.7000 C   0  0  0  0  0  0  0  0  0  0  0  0
   55.4410   19.7800   45.7010 C   0  0  0  0  0  0  0  0  0  0  0  0
   55.7950   20.9730   44.8470 C   0  0  0  0  0  0  0  0  0  0  0  0
   56.6470   20.8310   43.7360 C   0  0  0  0  0  0  0  0  0  0  0  0
   56.9360   21.9380   42.9300 C   0  0  0  0  0  0  0  0  0  0  0  0
   56.3590   23.1810   43.2100 C   0  0  0  0  0  0  0  0  0  0  0  0
   55.5160   23.3310   44.3140 C   0  0  0  0  0  0  0  0  0  0  0  0
   55.2380   22.2330   45.1360 C   0  0  0  0  0  0  0  0  0  0  0  0
   60.8630   22.5190   44.0850 H   0  0  0  0  0  0  0  0  0  0  0  0
   59.9870   21.0370   44.5970 H   0  0  0  0  0  0  0  0  0  0  0  0
   57.3980   22.7590   46.6540 H   0  0  0  0  0  0  0  0  0  0  0  0
   58.0220   21.1950   46.0790 H   0  0  0  0  0  0  0  0  0  0  0  0
   60.5875   24.4861   46.9816 H   0  0  0  0  0  0  0  0  0  0  0  0
   61.2789   24.8779   45.3573 H   0  0  0  0  0  0  0  0  0  0  0  0
   59.6354   26.5503   47.2044 H   0  0  0  0  0  0  0  0  0  0  0  0
   60.8858   27.0158   45.9755 H   0  0  0  0  0  0  0  0  0  0  0  0
   59.3534   27.1462   44.2478 H   0  0  0  0  0  0  0  0  0  0  0  0
   58.2221   25.9661   45.0325 H   0  0  0  0  0  0  0  0  0  0  0  0
   58.2819   28.0918   46.8174 H   0  0  0  0  0  0  0  0  0  0  0  0
   59.1038   32.2178   45.5695 H   0  0  0  0  0  0  0  0  0  0  0  0
   57.8235   32.0233   46.8384 H   0  0  0  0  0  0  0  0  0  0  0  0
   61.3239   31.4397   48.0707 H   0  0  0  0  0  0  0  0  0  0  0  0
   61.4326   31.2137   46.2732 H   0  0  0  0  0  0  0  0  0  0  0  0
   59.8267   33.2356   46.1157 H   0  0  0  0  0  0  0  0  0  0  0  0
   60.2846   33.5330   47.8503 H   0  0  0  0  0  0  0  0  0  0  0  0
   62.0387   33.6342   45.3700 H   0  0  0  0  0  0  0  0  0  0  0  0
   61.7508   34.8967   46.6432 H   0  0  0  0  0  0  0  0  0  0  0  0
   65.2698   31.9739   48.9855 H   0  0  0  0  0  0  0  0  0  0  0  0
   65.6105   30.5299   50.9719 H   0  0  0  0  0  0  0  0  0  0  0  0
   66.0032   29.9166   52.6404 H   0  0  0  0  0  0  0  0  0  0  0  0
   65.4110   29.4692   54.2884 H   0  0  0  0  0  0  0  0  0  0  0  0
   65.0249   27.3640   53.6249 H   0  0  0  0  0  0  0  0  0  0  0  0
   63.9696   27.9579   52.2835 H   0  0  0  0  0  0  0  0  0  0  0  0
   65.3479   25.5598   51.6328 H   0  0  0  0  0  0  0  0  0  0  0  0
   67.1292   24.8880   50.0145 H   0  0  0  0  0  0  0  0  0  0  0  0
   68.8127   26.5649   49.2453 H   0  0  0  0  0  0  0  0  0  0  0  0
   68.6564   28.9371   50.0184 H   0  0  0  0  0  0  0  0  0  0  0  0
   66.8709   29.6164   51.6127 H   0  0  0  0  0  0  0  0  0  0  0  0
   61.8973   31.9719   52.6637 H   0  0  0  0  0  0  0  0  0  0  0  0
   61.5947   33.4851   50.7011 H   0  0  0  0  0  0  0  0  0  0  0  0
   59.1302   31.6966   49.0069 H   0  0  0  0  0  0  0  0  0  0  0  0
   57.9596   30.4363   48.4605 H   0  0  0  0  0  0  0  0  0  0  0  0
   60.0229   30.9219   51.0363 H   0  0  0  0  0  0  0  0  0  0  0  0
   61.3526   29.2117   52.2788 H   0  0  0  0  0  0  0  0  0  0  0  0
   61.8008   26.9808   51.2495 H   0  0  0  0  0  0  0  0  0  0  0  0
   60.9415   26.4704   48.9572 H   0  0  0  0  0  0  0  0  0  0  0  0
   59.6456   28.1862   47.6956 H   0  0  0  0  0  0  0  0  0  0  0  0
   55.3184   24.5650   48.1568 H   0  0  0  0  0  0  0  0  0  0  0  0
   55.8629   23.6898   46.6851 H   0  0  0  0  0  0  0  0  0  0  0  0
   56.6263   19.4148   48.8611 H   0  0  0  0  0  0  0  0  0  0  0  0
   55.3733   20.5030   48.1462 H   0  0  0  0  0  0  0  0  0  0  0  0
   57.5231   19.7231   46.2617 H   0  0  0  0  0  0  0  0  0  0  0  0
   56.4990   18.3465   46.8863 H   0  0  0  0  0  0  0  0  0  0  0  0
   55.2669   18.9140   45.0454 H   0  0  0  0  0  0  0  0  0  0  0  0
   54.5390   20.0329   46.2776 H   0  0  0  0  0  0  0  0  0  0  0  0
   57.0858   19.8500   43.5011 H   0  0  0  0  0  0  0  0  0  0  0  0
   57.6186   21.8303   42.0742 H   0  0  0  0  0  0  0  0  0  0  0  0
   56.5695   24.0426   42.5594 H   0  0  0  0  0  0  0  0  0  0  0  0
   55.0709   24.3119   44.5371 H   0  0  0  0  0  0  0  0  0  0  0  0
   54.5822   22.3550   46.0107 H   0  0  0  0  0  0  0  0  0  0  0  0
  1  2  1  0
  2  3  1  0
  2  4  2  3
  4  5  1  0
  5  6  1  0
  6  7  1  0
  7  8  1  0
  8  9  1  0
  9 10  1  0
 10 11  2  0
 10 12  1  0
 12 13  1  0
 13 14  1  0
 14 15  1  0
 15 16  1  0
 16 17  1  0
 17 18  2  0
 17 19  1  0
 19 20  1  0
 20 21  2  0
 21 22  1  0
 22 23  2  0
 23 24  1  0
 24 25  1  0
 25 26  1  0
 26 27  1  0
 27 28  2  0
 28 29  1  0
 29 30  2  0
 30 31  1  0
 31 32  2  0
 23 33  1  0
 33 34  2  0
 13 35  1  0
 35 36  1  0
 36 37  2  0
 37 38  1  0
 38 39  2  0
 39 40  1  0
 40 41  2  0
  8 42  1  0
 42 43  2  0
 42 44  1  0
 44 45  2  0
 44 46  1  0
 46 47  1  0
 47 48  1  0
 48 49  1  0
 49 50  2  0
 49 51  1  0
 51 52  1  0
 52 53  1  0
 53 54  1  0
 54 55  1  0
 55 56  2  0
 56 57  1  0
 57 58  2  0
 58 59  1  0
 59 60  2  0
 34 20  1  0
 41 36  1  0
 60 55  1  0
 32 27  1  0
  1 61  1  0
  1 62  1  0
  3 63  1  0
  3 64  1  0
  5 65  1  0
  5 66  1  0
  6 67  1  0
  6 68  1  0
  7 69  1  0
  7 70  1  0
  8 71  1  1
 12 72  1  0
 12 73  1  0
 14 74  1  0
 14 75  1  0
 15 76  1  0
 15 77  1  0
 16 78  1  0
 16 79  1  0
 21 80  1  0
 22 81  1  0
 25 82  1  0
 25 83  1  0
 26 84  1  0
 26 85  1  0
 28 86  1  0
 29 87  1  0
 30 88  1  0
 31 89  1  0
 32 90  1  0
 33 91  1  0
 34 92  1  0
 35 93  1  0
 35 94  1  0
 37 95  1  0
 38 96  1  0
 39 97  1  0
 40 98  1  0
 41 99  1  0
 47100  1  0
 47101  1  0
 52102  1  0
 52103  1  0
 53104  1  0
 53105  1  0
 54106  1  0
 54107  1  0
 56108  1  0
 57109  1  0
 58110  1  0
 59111  1  0
 60112  1  0
M  CHG  4   9  -1  19  -1  46  -1  48  -1
M  END
>  <UniqueID>  (55) 
48

>  <SMILES>  (55) 
NC(N)=NCCC[C@@H]([N-]C(=O)CN(CCCC(=O)[N-]c1ccc(OCCc2ccccc2)cc1)Cc1ccccc1)C(=O)C(=O)[N-]C[N-]C(=O)OCCCc1ccccc1

>  <Energy>  (55) 
88.84846075856314

>  <Genealogy>  (55) 
NC(N)=NCCCC([N-]C(=O)CN(CCCC(=O)[N-]c1ccc(OCCc2ccccc2)cc1)Cc1ccccc1)C(=O)C(=O)[N-]C[N-]C(=O)OCCCc1ccccc1 (protonated)
NC(N)=NCCC[C@@H]([N-]C(=O)CN(CCCC(=O)[N-]c1ccc(OCCc2ccccc2)cc1)Cc1ccccc1)C(=O)C(=O)[N-]C[N-]C(=O)OCCCc1ccccc1 (chirality)
NC(N)=NCCC[C@@H]([N-]C(=O)CN(CCCC(=O)[N-]c1ccc(OCCc2ccccc2)cc1)Cc1ccccc1)C(=O)C(=O)[N-]C[N-]C(=O)OCCCc1ccccc1 (3D coordinates assigned)
NC(N)=NCCC[C@@H]([N-]C(=O)CN(CCCC(=O)[N-]c1ccc(OCCc2ccccc2)cc1)Cc1ccccc1)C(=O)C(=O)[N-]C[N-]C(=O)OCCCc1ccccc1 (optimized conformer: 88.84846075856314 kcal/mol)

>  <smiles>  (55) 
NC(N)=NCCCC(NC(=O)CN(CCCC(=O)Nc1ccc(OCCc2ccccc2)cc1)Cc1ccccc1)C(=O)C(=O)NCNC(=O)OCCCc1ccccc1

>  <score_type>  (55) 
oracle

>  <origin>  (55) 
adg

>  <m_score__min__energy>  (55) 
-14.32

>  <m_primary>  (55) 
energy

$$$$
55:0
     RDKit          3D

 60 63  0  0  0  0  0  0  0  0999 V2000
   62.4260   33.8420   46.3800 C   0  0  0  0  0  0  0  0  0  0  0  0
   61.2970   33.8140   47.3120 N   0  0  0  0  0  0  0  0  0  0  0  0
   61.5040   33.4770   48.7020 C   0  0  0  0  0  0  0  0  0  0  0  0
   62.6560   32.7740   49.1060 C   0  0  0  0  0  0  0  0  0  0  0  0
   62.8490   32.4380   50.4500 C   0  0  0  0  0  0  0  0  0  0  0  0
   61.8970   32.7950   51.4040 C   0  0  0  0  0  0  0  0  0  0  0  0
   60.7480   33.4870   51.0190 C   0  0  0  0  0  0  0  0  0  0  0  0
   60.5500   33.8260   49.6780 C   0  0  0  0  0  0  0  0  0  0  0  0
   59.7010   34.1660   46.7080 S   0  0  0  0  0  0  0  0  0  0  0  0
   59.8000   35.0520   45.4970 O   0  0  0  0  0  0  0  0  0  0  0  0
   58.9240   34.8920   47.7710 O   0  0  0  0  0  0  0  0  0  0  0  0
   58.8650   32.6780   46.2720 C   0  0  0  0  0  0  0  0  0  0  0  0
   58.2340   32.5520   45.0290 C   0  0  0  0  0  0  0  0  0  0  0  0
   57.5800   31.3660   44.6880 C   0  0  0  0  0  0  0  0  0  0  0  0
   57.5320   30.2920   45.5920 C   0  0  0  0  0  0  0  0  0  0  0  0
   56.8390   29.0250   45.2470 C   0  0  0  0  0  0  0  0  0  0  0  0
   55.5920   29.0380   45.0760 O   0  0  0  0  0  0  0  0  0  0  0  0
   57.5270   27.7720   45.1310 N   0  0  0  0  0  0  0  0  0  0  0  0
   57.8580   26.8620   46.1890 C   0  0  0  0  0  0  0  0  0  0  0  0
   57.1210   25.7970   46.6890 C   0  0  0  0  0  0  0  0  0  0  0  0
   55.7470   25.3770   46.3680 C   0  0  0  0  0  0  0  0  0  0  0  0
   54.8150   26.3010   45.8120 N   0  0  0  0  0  0  0  0  0  0  0  0
   55.3730   24.2050   46.6370 O   0  0  0  0  0  0  0  0  0  0  0  0
   57.8910   25.2700   47.7130 C   0  0  0  0  0  0  0  0  0  0  0  0
   58.9930   25.9730   47.8540 O   0  0  0  0  0  0  0  0  0  0  0  0
   58.9960   26.9370   46.9620 C   0  0  0  0  0  0  0  0  0  0  0  0
   60.2860   28.1760   46.8250 S   0  0  0  0  0  0  0  0  0  0  0  0
   60.6710   28.2290   48.6110 C   0  0  0  0  0  0  0  0  0  0  0  0
   60.0400   29.4040   49.3110 C   0  0  0  0  0  0  0  0  0  0  0  0
   60.6890   30.4820   49.3810 O   0  0  0  0  0  0  0  0  0  0  0  0
   58.7200   29.3590   49.8730 N   0  0  0  0  0  0  0  0  0  0  0  0
   58.1880   30.2160   50.8910 C   0  0  0  0  0  0  0  0  0  0  0  0
   58.1520   31.5970   50.6620 C   0  0  0  0  0  0  0  0  0  0  0  0
   57.6510   32.4620   51.6400 C   0  0  0  0  0  0  0  0  0  0  0  0
   57.2030   31.9520   52.8610 C   0  0  0  0  0  0  0  0  0  0  0  0
   57.2700   30.5780   53.1110 C   0  0  0  0  0  0  0  0  0  0  0  0
   57.7710   29.7110   52.1340 C   0  0  0  0  0  0  0  0  0  0  0  0
   58.1780   30.4210   46.8340 C   0  0  0  0  0  0  0  0  0  0  0  0
   58.8340   31.6080   47.1740 C   0  0  0  0  0  0  0  0  0  0  0  0
   63.3686   33.8654   46.9465 H   0  0  0  0  0  0  0  0  0  0  0  0
   62.4010   32.9430   45.7467 H   0  0  0  0  0  0  0  0  0  0  0  0
   62.3565   34.7387   45.7467 H   0  0  0  0  0  0  0  0  0  0  0  0
   63.4100   32.4869   48.3583 H   0  0  0  0  0  0  0  0  0  0  0  0
   63.7535   31.8911   50.7548 H   0  0  0  0  0  0  0  0  0  0  0  0
   62.0517   32.5311   52.4606 H   0  0  0  0  0  0  0  0  0  0  0  0
   59.9968   33.7661   51.7725 H   0  0  0  0  0  0  0  0  0  0  0  0
   59.6411   34.3702   49.3818 H   0  0  0  0  0  0  0  0  0  0  0  0
   58.2533   33.3908   44.3176 H   0  0  0  0  0  0  0  0  0  0  0  0
   57.0986   31.2722   43.7034 H   0  0  0  0  0  0  0  0  0  0  0  0
   55.1380   27.0960   45.2180 H   0  0  0  0  0  0  0  0  0  0  0  0
   57.6203   24.3927   48.3188 H   0  0  0  0  0  0  0  0  0  0  0  0
   60.3027   27.3033   49.0773 H   0  0  0  0  0  0  0  0  0  0  0  0
   61.7616   28.3313   48.7111 H   0  0  0  0  0  0  0  0  0  0  0  0
   58.5196   32.0034   49.7082 H   0  0  0  0  0  0  0  0  0  0  0  0
   57.6097   33.5443   51.4478 H   0  0  0  0  0  0  0  0  0  0  0  0
   56.7977   32.6312   53.6255 H   0  0  0  0  0  0  0  0  0  0  0  0
   56.9283   30.1782   54.0771 H   0  0  0  0  0  0  0  0  0  0  0  0
   57.8385   28.6324   52.3393 H   0  0  0  0  0  0  0  0  0  0  0  0
   58.1673   29.5811   47.5442 H   0  0  0  0  0  0  0  0  0  0  0  0
   59.3270   31.7013   48.1529 H   0  0  0  0  0  0  0  0  0  0  0  0
  1  2  1  0
  2  3  1  0
  3  4  2  0
  4  5  1  0
  5  6  2  0
  6  7  1  0
  7  8  2  0
  2  9  1  0
  9 10  2  0
  9 11  2  0
  9 12  1  0
 12 13  2  0
 13 14  1  0
 14 15  2  0
 15 16  1  0
 16 17  2  0
 16 18  1  0
 18 19  1  0
 19 20  1  0
 20 21  1  0
 21 22  1  0
 21 23  2  0
 20 24  2  0
 24 25  1  0
 25 26  1  0
 26 27  1  0
 27 28  1  0
 28 29  1  0
 29 30  2  0
 29 31  1  0
 31 32  1  0
 32 33  2  0
 33 34  1  0
 34 35  2  0
 35 36  1  0
 36 37  2  0
 15 38  1  0
 38 39  2  0
  8  3  1  0
 39 12  1  0
 26 19  2  0
 37 32  1  0
  1 40  1  0
  1 41  1  0
  1 42  1  0
  4 43  1  0
  5 44  1  0
  6 45  1  0
  7 46  1  0
  8 47  1  0
 13 48  1  0
 14 49  1  0
 22 50  1  0
 24 51  1  0
 28 52  1  0
 28 53  1  0
 33 54  1  0
 34 55  1  0
 35 56  1  0
 36 57  1  0
 37 58  1  0
 38 59  1  0
 39 60  1  0
M  CHG  3  18  -1  22  -1  31  -1
M  END
>  <UniqueID>  (56) 
49

>  <SMILES>  (56) 
CN(c1ccccc1)S(=O)(=O)c1ccc(C(=O)[N-]c2c(C([NH-])=O)coc2SCC(=O)[N-]c2ccccc2)cc1

>  <Energy>  (56) 
104.88623511286809

>  <Genealogy>  (56) 
CN(c1ccccc1)S(=O)(=O)c1ccc(C(=O)[N-]c2c(C([NH-])=O)coc2SCC(=O)[N-]c2ccccc2)cc1 (protonated)
CN(c1ccccc1)S(=O)(=O)c1ccc(C(=O)[N-]c2c(C([NH-])=O)coc2SCC(=O)[N-]c2ccccc2)cc1 (3D coordinates assigned)
CN(c1ccccc1)S(=O)(=O)c1ccc(C(=O)[N-]c2c(C([NH-])=O)coc2SCC(=O)[N-]c2ccccc2)cc1 (optimized conformer: 104.88623511286809 kcal/mol)

>  <smiles>  (56) 
CN(c1ccccc1)S(=O)(=O)c1ccc(C(=O)Nc2c(C(N)=O)coc2SCC(=O)Nc2ccccc2)cc1

>  <score_type>  (56) 
oracle

>  <origin>  (56) 
adg

>  <m_score__min__energy>  (56) 
-14.92

>  <m_primary>  (56) 
energy

$$$$
56:0
     RDKit          3D

 42 44  0  0  0  0  0  0  0  0999 V2000
   53.6280   26.6070   46.2920 H   0  0  0  0  0  0  0  0  0  0  0  0
   54.2610   25.9630   45.7670 N   0  0  0  0  0  0  0  0  0  0  0  0
   55.5260   25.8980   46.0280 C   0  0  0  0  0  0  0  0  0  0  0  0
   56.0130   24.8980   46.8350 N   0  0  0  0  0  0  0  0  0  0  0  0
   57.3440   24.8060   47.1280 C   0  0  0  0  0  0  0  0  0  0  0  0
   57.7750   23.8860   47.8730 O   0  0  0  0  0  0  0  0  0  0  0  0
   58.1930   25.7550   46.5820 C   0  0  0  0  0  0  0  0  0  0  0  0
   57.6940   26.7330   45.7830 C   0  0  0  0  0  0  0  0  0  0  0  0
   56.3730   26.8320   45.4970 N   0  0  0  0  0  0  0  0  0  0  0  0
   58.6870   27.5440   45.3780 N   0  0  0  0  0  0  0  0  0  0  0  0
   58.6060   28.7090   44.4950 C   0  0  0  0  0  0  0  0  0  0  0  0
   59.6142   29.1293   44.3652 H   0  0  0  0  0  0  0  0  0  0  0  0
   58.1897   28.3817   43.5308 H   0  0  0  0  0  0  0  0  0  0  0  0
   57.6780   29.8010   45.0770 C   0  0  1  0  0  0  0  0  0  0  0  0
   56.7430   29.2830   45.9920 O   0  0  0  0  0  0  0  0  0  0  0  0
   56.3540   28.4660   45.5830 H   0  0  0  0  0  0  0  0  0  0  0  0
   58.3980   31.0520   45.6070 C   0  0  0  0  0  0  0  0  0  0  0  0
   58.1340   31.3160   46.6417 H   0  0  0  0  0  0  0  0  0  0  0  0
   59.4942   31.0635   45.6974 H   0  0  0  0  0  0  0  0  0  0  0  0
   57.7050   31.9090   44.5510 C   0  0  2  0  0  0  0  0  0  0  0  0
   58.2749   32.5500   43.8623 H   0  0  0  0  0  0  0  0  0  0  0  0
   56.8270   32.8390   45.1540 O   0  0  0  0  0  0  0  0  0  0  0  0
   57.4160   34.1270   45.2060 C   0  0  0  0  0  0  0  0  0  0  0  0
   58.0431   34.2765   44.3147 H   0  0  0  0  0  0  0  0  0  0  0  0
   56.6201   34.8858   45.2354 H   0  0  0  0  0  0  0  0  0  0  0  0
   58.2820   34.2600   46.4630 C   0  0  0  0  0  0  0  0  0  0  0  0
   57.7429   34.8805   47.1940 H   0  0  0  0  0  0  0  0  0  0  0  0
   58.4682   33.2430   46.8387 H   0  0  0  0  0  0  0  0  0  0  0  0
   59.6520   34.9030   46.1940 C   0  0  0  0  0  0  0  0  0  0  0  0
   59.6958   35.2096   45.1385 H   0  0  0  0  0  0  0  0  0  0  0  0
   59.7544   35.7633   46.8718 H   0  0  0  0  0  0  0  0  0  0  0  0
   60.8160   33.9510   46.4760 C   0  0  0  0  0  0  0  0  0  0  0  0
   60.9470   33.8439   47.5629 H   0  0  0  0  0  0  0  0  0  0  0  0
   60.6003   32.9671   46.0339 H   0  0  0  0  0  0  0  0  0  0  0  0
   61.7376   34.3576   46.0339 H   0  0  0  0  0  0  0  0  0  0  0  0
   56.9880   30.6680   44.0150 C   0  0  0  0  0  0  0  0  0  0  0  0
   55.6090   30.7230   44.1590 F   0  0  0  0  0  0  0  0  0  0  0  0
   57.3570   30.3800   42.7090 F   0  0  0  0  0  0  0  0  0  0  0  0
   59.7890   27.0090   45.9670 C   0  0  0  0  0  0  0  0  0  0  0  0
   60.9480   27.4860   45.8370 O   0  0  0  0  0  0  0  0  0  0  0  0
   59.5220   25.9080   46.7150 N   0  0  0  0  0  0  0  0  0  0  0  0
   60.1900   25.3220   47.2650 H   0  0  0  0  0  0  0  0  0  0  0  0
  1  2  1  0
  2  3  2  0
  3  4  1  0
  4  5  1  0
  5  6  2  0
  5  7  1  0
  7  8  2  0
  8  9  1  0
  8 10  1  0
 10 11  1  0
 11 12  1  0
 11 13  1  0
 11 14  1  0
 14 15  1  1
 15 16  1  0
 14 17  1  0
 17 18  1  0
 17 19  1  0
 17 20  1  0
 20 21  1  6
 20 22  1  0
 22 23  1  0
 23 24  1  0
 23 25  1  0
 23 26  1  0
 26 27  1  0
 26 28  1  0
 26 29  1  0
 29 30  1  0
 29 31  1  0
 29 32  1  0
 32 33  1  0
 32 34  1  0
 32 35  1  0
 20 36  1  0
 36 37  1  0
 36 38  1  0
 10 39  1  0
 39 40  2  0
 39 41  1  0
 41 42  1  0
  9  3  1  0
 36 14  1  0
 41  7  1  0
M  CHG  2   4  -1   9  -1
M  END
>  <UniqueID>  (57) 
50

>  <SMILES>  (57) 
[H]/N=c1\[n-]c(=O)c2[nH]c(=O)n(C[C@@]3(O)C[C@H](OCCCC)C3(F)F)c2[n-]1

>  <Energy>  (57) 
146.3621772621873

>  <Genealogy>  (57) 
CCCCOC1CC(O)(Cn2c(=O)[nH]c3c(=O)[n-]c(=N)[n-]c32)C1(F)F (protonated)
CCCCO[C@H]1C[C@](O)(Cn2c(=O)[nH]c3c(=O)[n-]c(=N)[n-]c32)C1(F)F (chirality)
[H]/N=c1\[n-]c(=O)c2[nH]c(=O)n(C[C@@]3(O)C[C@H](OCCCC)C3(F)F)c2[n-]1 (cis-trans isomerization)
[H]/N=c1\[n-]c(=O)c2[nH]c(=O)n(C[C@@]3(O)C[C@H](OCCCC)C3(F)F)c2[n-]1 (3D coordinates assigned)
[H]/N=c1\[n-]c(=O)c2[nH]c(=O)n(C[C@@]3(O)C[C@H](OCCCC)C3(F)F)c2[n-]1 (nonaromatic ring conformer: 146.3621772621873 kcal/mol)

>  <smiles>  (57) 
CCCCOC1CC(O)(Cn2c(=O)[nH]c3c(=O)[nH]c(=N)[nH]c32)C1(F)F

>  <score_type>  (57) 
oracle

>  <origin>  (57) 
adg

>  <m_score__min__energy>  (57) 
-11.32

>  <m_primary>  (57) 
energy

$$$$
57:0
     RDKit          3D

 35 37  0  0  0  0  0  0  0  0999 V2000
   55.9280   20.0370   43.3740 N   0  0  0  0  0  0  0  0  0  0  0  0
   56.2780   21.2270   43.7450 C   0  0  0  0  0  0  0  0  0  0  0  0
   57.0680   21.4300   44.8830 C   0  0  0  0  0  0  0  0  0  0  0  0
   57.4110   22.6940   45.2400 N   0  0  0  0  0  0  0  0  0  0  0  0
   57.0050   23.7790   44.5230 C   0  0  0  0  0  0  0  0  0  0  0  0
   57.4150   25.1390   44.9590 C   0  0  0  0  0  0  0  0  0  0  0  0
   57.1350   25.5660   46.2700 C   0  0  0  0  0  0  0  0  0  0  0  0
   57.5050   26.8450   46.6960 C   0  0  0  0  0  0  0  0  0  0  0  0
   58.1420   27.7260   45.8140 C   0  0  0  0  0  0  0  0  0  0  0  0
   58.5270   29.0740   46.2750 C   0  0  0  0  0  0  0  0  0  0  0  0
   59.5190   29.1840   47.2630 C   0  0  0  0  0  0  0  0  0  0  0  0
   59.9270   30.4380   47.7180 C   0  0  0  0  0  0  0  0  0  0  0  0
   59.3480   31.5940   47.1930 C   0  0  0  0  0  0  0  0  0  0  0  0
   58.3550   31.4990   46.2170 C   0  0  0  0  0  0  0  0  0  0  0  0
   57.9270   30.2450   45.7510 C   0  0  0  0  0  0  0  0  0  0  0  0
   56.6360   30.1710   44.5400 S   0  0  0  0  0  0  0  0  0  0  0  0
   55.5160   28.9170   44.9390 N   0  0  0  0  0  0  0  0  0  0  0  0
   55.8920   31.4760   44.4970 O   0  0  0  0  0  0  0  0  0  0  0  0
   57.2280   29.9050   43.1860 O   0  0  0  0  0  0  0  0  0  0  0  0
   58.4300   27.3090   44.5070 C   0  0  0  0  0  0  0  0  0  0  0  0
   59.0720   28.1390   43.6450 F   0  0  0  0  0  0  0  0  0  0  0  0
   58.0630   26.0290   44.0800 C   0  0  0  0  0  0  0  0  0  0  0  0
   56.2200   23.5680   43.3750 C   0  0  0  0  0  0  0  0  0  0  0  0
   55.8770   22.3020   43.0190 N   0  0  0  0  0  0  0  0  0  0  0  0
   56.5600   19.2100   43.4770 H   0  0  0  0  0  0  0  0  0  0  0  0
   57.4078   20.5727   45.4826 H   0  0  0  0  0  0  0  0  0  0  0  0
   56.6203   24.8873   46.9661 H   0  0  0  0  0  0  0  0  0  0  0  0
   57.2947   27.1605   47.7286 H   0  0  0  0  0  0  0  0  0  0  0  0
   59.9772   28.2754   47.6808 H   0  0  0  0  0  0  0  0  0  0  0  0
   60.7056   30.5156   48.4911 H   0  0  0  0  0  0  0  0  0  0  0  0
   59.6749   32.5821   47.5491 H   0  0  0  0  0  0  0  0  0  0  0  0
   57.9031   32.4150   45.8087 H   0  0  0  0  0  0  0  0  0  0  0  0
   54.6220   29.3830   45.2140 H   0  0  0  0  0  0  0  0  0  0  0  0
   58.2821   25.7144   43.0490 H   0  0  0  0  0  0  0  0  0  0  0  0
   55.8856   24.4228   42.7688 H   0  0  0  0  0  0  0  0  0  0  0  0
  1  2  2  3
  2  3  1  0
  3  4  2  0
  4  5  1  0
  5  6  1  0
  6  7  2  0
  7  8  1  0
  8  9  2  0
  9 10  1  0
 10 11  2  0
 11 12  1  0
 12 13  2  0
 13 14  1  0
 14 15  2  0
 15 16  1  0
 16 17  1  0
 16 18  2  0
 16 19  2  0
  9 20  1  0
 20 21  1  0
 20 22  2  0
  5 23  2  0
 23 24  1  0
 24  2  1  0
 22  6  1  0
 15 10  1  0
  1 25  1  0
  3 26  1  0
  7 27  1  0
  8 28  1  0
 11 29  1  0
 12 30  1  0
 13 31  1  0
 14 32  1  0
 17 33  1  0
 22 34  1  0
 23 35  1  0
M  CHG  2  17  -1  24  -1
M  END
>  <UniqueID>  (58) 
51

>  <SMILES>  (58) 
N=c1cnc(-c2ccc(-c3ccccc3S([NH-])(=O)=O)c(F)c2)c[n-]1

>  <Energy>  (58) 
52.681950143488024

>  <Genealogy>  (58) 
N=c1cnc(-c2ccc(-c3ccccc3S([NH-])(=O)=O)c(F)c2)c[n-]1 (protonated)
N=c1cnc(-c2ccc(-c3ccccc3S([NH-])(=O)=O)c(F)c2)c[n-]1 (3D coordinates assigned)
N=c1cnc(-c2ccc(-c3ccccc3S([NH-])(=O)=O)c(F)c2)c[n-]1 (optimized conformer: 52.681950143488024 kcal/mol)

>  <smiles>  (58) 
N=c1cnc(-c2ccc(-c3ccccc3S(N)(=O)=O)c(F)c2)c[nH]1

>  <score_type>  (58) 
oracle

>  <origin>  (58) 
adg

>  <m_score__min__energy>  (58) 
-12.68

>  <m_primary>  (58) 
energy

$$$$
58:0
     RDKit          3D

 38 40  0  0  0  0  0  0  0  0999 V2000
   59.5064   25.4874   48.0826 H   0  0  0  0  0  0  0  0  0  0  0  0
   58.9620   26.2490   47.5050 C   0  0  0  0  0  0  0  0  0  0  0  0
   57.4850   25.9750   46.6760 S   0  0  0  0  0  0  0  0  0  0  0  0
   57.4240   27.5600   46.1480 C   0  0  0  0  0  0  0  0  0  0  0  0
   56.5910   28.2670   45.3810 N   0  0  0  0  0  0  0  0  0  0  0  0
   57.2070   29.4880   45.3680 C   0  0  0  0  0  0  0  0  0  0  0  0
   56.6370   30.4880   44.7560 N   0  0  0  0  0  0  0  0  0  0  0  0
   56.6430   30.8500   43.3490 C   0  0  0  0  0  0  0  0  0  0  0  0
   56.6612   31.9456   43.2523 H   0  0  0  0  0  0  0  0  0  0  0  0
   57.5342   30.4244   42.8647 H   0  0  0  0  0  0  0  0  0  0  0  0
   55.7382   30.4541   42.8647 H   0  0  0  0  0  0  0  0  0  0  0  0
   58.3900   29.5250   46.0890 N   0  0  0  0  0  0  0  0  0  0  0  0
   59.4510   30.5310   46.2710 C   0  0  0  0  0  0  0  0  0  0  0  0
   59.7404   30.5590   47.3319 H   0  0  0  0  0  0  0  0  0  0  0  0
   60.3084   30.2500   45.6418 H   0  0  0  0  0  0  0  0  0  0  0  0
   58.9660   31.9480   45.8390 C   0  0  2  0  0  0  0  0  0  0  0  0
   58.7463   31.8475   44.7659 H   0  0  0  0  0  0  0  0  0  0  0  0
   60.0620   33.0230   46.0000 C   0  0  0  0  0  0  0  0  0  0  0  0
   60.4707   32.9625   47.0194 H   0  0  0  0  0  0  0  0  0  0  0  0
   60.8388   32.8295   45.2455 H   0  0  0  0  0  0  0  0  0  0  0  0
   59.5180   34.4490   45.7660 C   0  0  0  0  0  0  0  0  0  0  0  0
   59.4226   34.9520   46.7396 H   0  0  0  0  0  0  0  0  0  0  0  0
   60.2273   34.9673   45.1040 H   0  0  0  0  0  0  0  0  0  0  0  0
   58.1480   34.4620   45.0720 C   0  0  0  0  0  0  0  0  0  0  0  0
   57.7628   35.4923   45.0789 H   0  0  0  0  0  0  0  0  0  0  0  0
   58.2965   34.0821   44.0504 H   0  0  0  0  0  0  0  0  0  0  0  0
   57.1040   33.5410   45.7580 C   0  0  0  0  0  0  0  0  0  0  0  0
   56.5351   34.1439   46.4811 H   0  0  0  0  0  0  0  0  0  0  0  0
   56.4740   33.1275   44.9567 H   0  0  0  0  0  0  0  0  0  0  0  0
   57.6930   32.3780   46.4810 N   0  0  2  0  0  0  0  0  0  0  0  0
   57.0140   31.5840   46.3930 H   0  0  0  0  0  0  0  0  0  0  0  0
   57.8190   32.6860   47.9270 C   0  0  0  0  0  0  0  0  0  0  0  0
   57.4675   31.8267   48.5169 H   0  0  0  0  0  0  0  0  0  0  0  0
   58.8727   32.8898   48.1680 H   0  0  0  0  0  0  0  0  0  0  0  0
   57.2102   33.5699   48.1680 H   0  0  0  0  0  0  0  0  0  0  0  0
   58.4570   28.2710   46.5660 C   0  0  0  0  0  0  0  0  0  0  0  0
   59.3800   27.5810   47.3440 C   0  0  0  0  0  0  0  0  0  0  0  0
   60.2983   28.0124   47.7691 H   0  0  0  0  0  0  0  0  0  0  0  0
  1  2  1  0
  2  3  1  0
  3  4  1  0
  4  5  1  0
  5  6  1  0
  6  7  2  0
  7  8  1  0
  8  9  1  0
  8 10  1  0
  8 11  1  0
  6 12  1  0
 12 13  1  0
 13 14  1  0
 13 15  1  0
 13 16  1  0
 16 17  1  6
 16 18  1  0
 18 19  1  0
 18 20  1  0
 18 21  1  0
 21 22  1  0
 21 23  1  0
 21 24  1  0
 24 25  1  0
 24 26  1  0
 24 27  1  0
 27 28  1  0
 27 29  1  0
 27 30  1  0
 30 31  1  1
 30 32  1  0
 32 33  1  0
 32 34  1  0
 32 35  1  0
 12 36  1  0
 36 37  1  0
 37 38  1  0
 37  2  2  0
 36  4  2  0
 30 16  1  0
M  CHG  2   5  -1  30   1
M  END
>  <UniqueID>  (59) 
52

>  <SMILES>  (59) 
C/N=c1/[n-]c2sccc2n1C[C@@H]1CCCC[N@@H+]1C

>  <Energy>  (59) 
139.36700508424232

>  <Genealogy>  (59) 
CN=c1[n-]c2sccc2n1CC1CCCC[NH+]1C (protonated)
CN=c1[n-]c2sccc2n1C[C@@H]1CCCC[N@@H+]1C (chirality)
C/N=c1/[n-]c2sccc2n1C[C@@H]1CCCC[N@@H+]1C (cis-trans isomerization)
C/N=c1/[n-]c2sccc2n1C[C@@H]1CCCC[N@@H+]1C (3D coordinates assigned)
C/N=c1/[n-]c2sccc2n1C[C@@H]1CCCC[N@@H+]1C (nonaromatic ring conformer: 139.36700508424232 kcal/mol)

>  <smiles>  (59) 
CN=c1[nH]c2sccc2n1CC1CCCCN1C

>  <score_type>  (59) 
oracle

>  <origin>  (59) 
adg

>  <m_score__min__energy>  (59) 
-6.3300000000000001

>  <m_primary>  (59) 
energy

$$$$
59:0
     RDKit          3D

 67 71  0  0  0  0  0  0  0  0999 V2000
   60.8490   34.5600   46.3620 C   0  0  0  0  0  0  0  0  0  0  0  0
   59.3910   34.2870   46.1200 C   0  0  0  0  0  0  0  0  0  0  0  0
   58.8440   34.5840   44.8590 C   0  0  0  0  0  0  0  0  0  0  0  0
   57.5030   34.3170   44.5830 C   0  0  0  0  0  0  0  0  0  0  0  0
   56.6890   33.7460   45.5580 C   0  0  0  0  0  0  0  0  0  0  0  0
   57.2120   33.4430   46.8150 C   0  0  0  0  0  0  0  0  0  0  0  0
   58.5610   33.7150   47.1210 C   0  0  0  0  0  0  0  0  0  0  0  0
   59.0700   33.3800   48.5120 C   0  0  0  0  0  0  0  0  0  0  0  0
   60.1290   32.3470   48.5020 N   0  0  0  0  0  0  0  0  0  0  0  0
   59.9090   31.1120   47.7760 C   0  0  0  0  0  0  0  0  0  0  0  0
   58.7440   30.7430   47.4650 O   0  0  0  0  0  0  0  0  0  0  0  0
   61.0740   30.2190   47.4460 C   0  0  1  0  0  0  0  0  0  0  0  0
   60.7670   29.2700   46.3630 N   0  0  0  0  0  0  0  0  0  0  0  0
   59.8280   27.8800   46.8500 S   0  0  0  0  0  0  0  0  0  0  0  0
   59.0010   28.2320   48.0540 O   0  0  0  0  0  0  0  0  0  0  0  0
   60.7080   26.7060   47.1780 O   0  0  0  0  0  0  0  0  0  0  0  0
   58.7420   27.4170   45.5140 C   0  0  0  0  0  0  0  0  0  0  0  0
   58.0090   28.6210   44.9950 C   0  0  0  0  0  0  0  0  0  0  0  0
   56.6040   28.6470   44.9870 C   0  0  0  0  0  0  0  0  0  0  0  0
   55.9230   29.7510   44.4640 C   0  0  0  0  0  0  0  0  0  0  0  0
   56.6380   30.8320   43.9400 C   0  0  0  0  0  0  0  0  0  0  0  0
   58.0360   30.8090   43.9360 C   0  0  0  0  0  0  0  0  0  0  0  0
   58.7210   29.7070   44.4570 C   0  0  0  0  0  0  0  0  0  0  0  0
   62.3410   31.0440   47.1750 C   0  0  0  0  0  0  0  0  0  0  0  0
   62.5820   32.0100   48.3020 C   0  0  0  0  0  0  0  0  0  0  0  0
   63.8970   32.3160   48.6820 C   0  0  0  0  0  0  0  0  0  0  0  0
   64.1500   33.2350   49.7020 C   0  0  0  0  0  0  0  0  0  0  0  0
   65.4840   33.4970   50.0440 O   0  0  0  0  0  0  0  0  0  0  0  0
   66.0830   33.1520   51.2910 C   0  0  0  0  0  0  0  0  0  0  0  0
   66.0490   31.6610   51.4560 C   0  0  0  0  0  0  0  0  0  0  0  0
   67.1510   30.8810   51.0680 C   0  0  0  0  0  0  0  0  0  0  0  0
   67.1020   29.4880   51.1810 C   0  0  0  0  0  0  0  0  0  0  0  0
   65.9500   28.8640   51.6690 C   0  0  0  0  0  0  0  0  0  0  0  0
   64.8430   29.6330   52.0400 C   0  0  0  0  0  0  0  0  0  0  0  0
   64.8880   31.0260   51.9290 C   0  0  0  0  0  0  0  0  0  0  0  0
   63.0700   33.8570   50.3460 C   0  0  0  0  0  0  0  0  0  0  0  0
   61.7560   33.5710   49.9620 C   0  0  0  0  0  0  0  0  0  0  0  0
   61.4890   32.6620   48.9190 C   0  0  0  0  0  0  0  0  0  0  0  0
   61.0406   34.5959   47.4446 H   0  0  0  0  0  0  0  0  0  0  0  0
   61.4521   33.7592   45.9093 H   0  0  0  0  0  0  0  0  0  0  0  0
   61.1215   35.5248   45.9093 H   0  0  0  0  0  0  0  0  0  0  0  0
   59.4806   35.0318   44.0817 H   0  0  0  0  0  0  0  0  0  0  0  0
   57.0877   34.5579   43.5933 H   0  0  0  0  0  0  0  0  0  0  0  0
   55.6326   33.5337   45.3366 H   0  0  0  0  0  0  0  0  0  0  0  0
   56.5637   32.9860   47.5772 H   0  0  0  0  0  0  0  0  0  0  0  0
   59.4762   34.2952   48.9674 H   0  0  0  0  0  0  0  0  0  0  0  0
   58.2222   32.9794   49.0871 H   0  0  0  0  0  0  0  0  0  0  0  0
   61.2759   29.5979   48.3311 H   0  0  0  0  0  0  0  0  0  0  0  0
   59.3360   26.9755   44.7002 H   0  0  0  0  0  0  0  0  0  0  0  0
   58.0094   26.6858   45.8863 H   0  0  0  0  0  0  0  0  0  0  0  0
   56.0378   27.7960   45.3935 H   0  0  0  0  0  0  0  0  0  0  0  0
   54.8231   29.7687   44.4650 H   0  0  0  0  0  0  0  0  0  0  0  0
   56.1009   31.7004   43.5309 H   0  0  0  0  0  0  0  0  0  0  0  0
   58.5979   31.6593   43.5223 H   0  0  0  0  0  0  0  0  0  0  0  0
   59.8208   29.6899   44.4458 H   0  0  0  0  0  0  0  0  0  0  0  0
   63.2034   30.3670   47.0859 H   0  0  0  0  0  0  0  0  0  0  0  0
   62.2089   31.6085   46.2402 H   0  0  0  0  0  0  0  0  0  0  0  0
   64.7387   31.8262   48.1704 H   0  0  0  0  0  0  0  0  0  0  0  0
   67.1261   33.5008   51.3076 H   0  0  0  0  0  0  0  0  0  0  0  0
   65.5287   33.6286   52.1129 H   0  0  0  0  0  0  0  0  0  0  0  0
   68.0555   31.3675   50.6740 H   0  0  0  0  0  0  0  0  0  0  0  0
   67.9713   28.8822   50.8854 H   0  0  0  0  0  0  0  0  0  0  0  0
   65.9146   27.7684   51.7610 H   0  0  0  0  0  0  0  0  0  0  0  0
   63.9352   29.1414   52.4198 H   0  0  0  0  0  0  0  0  0  0  0  0
   64.0115   31.6270   52.2129 H   0  0  0  0  0  0  0  0  0  0  0  0
   63.2579   34.5744   51.1584 H   0  0  0  0  0  0  0  0  0  0  0  0
   60.9198   34.0622   50.4811 H   0  0  0  0  0  0  0  0  0  0  0  0
  1  2  1  0
  2  3  2  0
  3  4  1  0
  4  5  2  0
  5  6  1  0
  6  7  2  0
  7  8  1  0
  8  9  1  0
  9 10  1  0
 10 11  2  0
 10 12  1  0
 12 13  1  0
 13 14  1  0
 14 15  2  0
 14 16  2  0
 14 17  1  0
 17 18  1  0
 18 19  2  0
 19 20  1  0
 20 21  2  0
 21 22  1  0
 22 23  2  0
 12 24  1  0
 24 25  1  0
 25 26  2  0
 26 27  1  0
 27 28  1  0
 28 29  1  0
 29 30  1  0
 30 31  2  0
 31 32  1  0
 32 33  2  0
 33 34  1  0
 34 35  2  0
 27 36  2  0
 36 37  1  0
 37 38  2  0
  7  2  1  0
 38  9  1  0
 23 18  1  0
 38 25  1  0
 35 30  1  0
  1 39  1  0
  1 40  1  0
  1 41  1  0
  3 42  1  0
  4 43  1  0
  5 44  1  0
  6 45  1  0
  8 46  1  0
  8 47  1  0
 12 48  1  1
 17 49  1  0
 17 50  1  0
 19 51  1  0
 20 52  1  0
 21 53  1  0
 22 54  1  0
 23 55  1  0
 24 56  1  0
 24 57  1  0
 26 58  1  0
 29 59  1  0
 29 60  1  0
 31 61  1  0
 32 62  1  0
 33 63  1  0
 34 64  1  0
 35 65  1  0
 36 66  1  0
 37 67  1  0
M  CHG  1  13  -1
M  END
>  <UniqueID>  (60) 
53

>  <SMILES>  (60) 
Cc1ccccc1CN1C(=O)[C@@H]([N-]S(=O)(=O)Cc2ccccc2)Cc2cc(OCc3ccccc3)ccc21

>  <Energy>  (60) 
79.12511179420397

>  <Genealogy>  (60) 
Cc1ccccc1CN1C(=O)C([N-]S(=O)(=O)Cc2ccccc2)Cc2cc(OCc3ccccc3)ccc21 (protonated)
Cc1ccccc1CN1C(=O)[C@@H]([N-]S(=O)(=O)Cc2ccccc2)Cc2cc(OCc3ccccc3)ccc21 (chirality)
Cc1ccccc1CN1C(=O)[C@@H]([N-]S(=O)(=O)Cc2ccccc2)Cc2cc(OCc3ccccc3)ccc21 (3D coordinates assigned)
Cc1ccccc1CN1C(=O)[C@@H]([N-]S(=O)(=O)Cc2ccccc2)Cc2cc(OCc3ccccc3)ccc21 (nonaromatic ring conformer: 79.12511179420397 kcal/mol)

>  <smiles>  (60) 
Cc1ccccc1CN1C(=O)C(NS(=O)(=O)Cc2ccccc2)Cc2cc(OCc3ccccc3)ccc21

>  <score_type>  (60) 
oracle

>  <origin>  (60) 
adg

>  <m_score__min__energy>  (60) 
-11.81

>  <m_primary>  (60) 
energy

$$$$
60:0
     RDKit          3D

 81 85  0  0  0  0  0  0  0  0999 V2000
   55.0950   25.9320   45.9070 N   0  0  0  0  0  0  0  0  0  0  0  0
   55.6790   24.5860   45.9370 C   0  0  2  0  0  0  0  0  0  0  0  0
   54.6900   23.5380   46.4880 C   0  0  0  0  0  0  0  0  0  0  0  0
   53.2560   23.3080   45.4430 S   0  0  0  0  0  0  0  0  0  0  0  0
   56.9780   24.5790   46.6970 C   0  0  0  0  0  0  0  0  0  0  0  0
   57.1110   23.8520   47.7190 O   0  0  0  0  0  0  0  0  0  0  0  0
   58.0560   25.4120   46.2500 N   0  0  0  0  0  0  0  0  0  0  0  0
   57.9330   26.7820   45.8420 C   0  0  0  0  0  0  0  0  0  0  0  0
   57.9370   27.8370   46.7720 C   0  0  0  0  0  0  0  0  0  0  0  0
   57.7260   29.1510   46.3420 C   0  0  0  0  0  0  0  0  0  0  0  0
   57.4930   29.4230   44.9850 C   0  0  0  0  0  0  0  0  0  0  0  0
   57.0280   30.7580   44.5500 C   0  0  0  0  0  0  0  0  0  0  0  0
   55.7920   30.9800   44.4760 O   0  0  0  0  0  0  0  0  0  0  0  0
   57.9400   31.8210   44.2180 N   0  0  0  0  0  0  0  0  0  0  0  0
   58.4180   32.8730   45.0760 C   0  0  0  0  0  0  0  0  0  0  0  0
   58.8490   34.0710   44.4960 C   0  0  0  0  0  0  0  0  0  0  0  0
   59.3630   35.0970   45.2940 C   0  0  0  0  0  0  0  0  0  0  0  0
   59.4740   34.9240   46.6760 C   0  0  0  0  0  0  0  0  0  0  0  0
   59.0380   33.7320   47.2840 C   0  0  0  0  0  0  0  0  0  0  0  0
   59.2720   33.4760   48.7350 C   0  0  0  0  0  0  0  0  0  0  0  0
   58.5340   32.4930   49.4270 C   0  0  0  0  0  0  0  0  0  0  0  0
   58.8440   32.1680   50.7480 C   0  0  0  0  0  0  0  0  0  0  0  0
   59.8710   32.8420   51.4200 C   0  0  0  0  0  0  0  0  0  0  0  0
   60.2640   32.4290   53.0860 S   0  0  0  0  0  0  0  0  0  0  0  0
   60.6540   33.6690   53.8420 O   0  0  0  0  0  0  0  0  0  0  0  0
   59.0510   31.8360   53.7490 O   0  0  0  0  0  0  0  0  0  0  0  0
   61.5530   31.2600   53.1340 N   0  0  0  0  0  0  0  0  0  0  0  0
   62.2790   31.1830   51.8600 C   0  0  2  0  0  0  0  0  0  0  0  0
   61.7100   30.0510   50.9830 C   0  0  0  0  0  0  0  0  0  0  0  0
   61.6020   30.4240   49.5250 C   0  0  0  0  0  0  0  0  0  0  0  0
   62.4180   31.4340   48.9870 C   0  0  0  0  0  0  0  0  0  0  0  0
   62.3100   31.7860   47.6380 C   0  0  0  0  0  0  0  0  0  0  0  0
   61.3860   31.1350   46.8170 C   0  0  0  0  0  0  0  0  0  0  0  0
   60.5670   30.1330   47.3450 C   0  0  0  0  0  0  0  0  0  0  0  0
   60.6710   29.7780   48.6940 C   0  0  0  0  0  0  0  0  0  0  0  0
   63.7520   30.9660   52.1320 C   0  0  0  0  0  0  0  0  0  0  0  0
   64.0950   30.0570   52.9380 O   0  0  0  0  0  0  0  0  0  0  0  0
   64.7720   31.7070   51.4310 N   0  0  0  0  0  0  0  0  0  0  0  0
   64.5290   33.0710   50.9470 C   0  0  0  0  0  0  0  0  0  0  0  0
   65.8500   33.8490   50.8630 C   0  0  0  0  0  0  0  0  0  0  0  0
   66.8360   33.1150   50.1600 O   0  0  0  0  0  0  0  0  0  0  0  0
   67.1530   31.9410   50.8810 C   0  0  0  0  0  0  0  0  0  0  0  0
   65.9510   30.9930   50.9260 C   0  0  0  0  0  0  0  0  0  0  0  0
   60.5860   33.8440   50.7540 C   0  0  0  0  0  0  0  0  0  0  0  0
   60.2990   34.1510   49.4230 C   0  0  0  0  0  0  0  0  0  0  0  0
   58.4510   32.7400   46.4750 C   0  0  0  0  0  0  0  0  0  0  0  0
   57.5920   28.3830   44.0490 C   0  0  0  0  0  0  0  0  0  0  0  0
   57.8160   27.0710   44.4780 C   0  0  0  0  0  0  0  0  0  0  0  0
   55.1520   26.3430   46.8680 H   0  0  0  0  0  0  0  0  0  0  0  0
   55.6470   26.5520   45.2690 H   0  0  0  0  0  0  0  0  0  0  0  0
   55.8962   24.2981   44.8978 H   0  0  0  0  0  0  0  0  0  0  0  0
   55.2147   22.5755   46.5791 H   0  0  0  0  0  0  0  0  0  0  0  0
   54.3312   23.9054   47.4608 H   0  0  0  0  0  0  0  0  0  0  0  0
   58.1063   27.6285   47.8387 H   0  0  0  0  0  0  0  0  0  0  0  0
   57.7427   29.9749   47.0706 H   0  0  0  0  0  0  0  0  0  0  0  0
   58.7830   34.2062   43.4063 H   0  0  0  0  0  0  0  0  0  0  0  0
   59.6811   36.0435   44.8326 H   0  0  0  0  0  0  0  0  0  0  0  0
   59.9055   35.7256   47.2935 H   0  0  0  0  0  0  0  0  0  0  0  0
   57.7053   31.9772   48.9198 H   0  0  0  0  0  0  0  0  0  0  0  0
   58.2786   31.3781   51.2642 H   0  0  0  0  0  0  0  0  0  0  0  0
   62.1536   32.1286   51.3123 H   0  0  0  0  0  0  0  0  0  0  0  0
   62.3697   29.1752   51.0716 H   0  0  0  0  0  0  0  0  0  0  0  0
   60.6919   29.8403   51.3422 H   0  0  0  0  0  0  0  0  0  0  0  0
   63.1455   31.9503   49.6306 H   0  0  0  0  0  0  0  0  0  0  0  0
   62.9531   32.5761   47.2230 H   0  0  0  0  0  0  0  0  0  0  0  0
   61.3030   31.4109   45.7554 H   0  0  0  0  0  0  0  0  0  0  0  0
   59.8387   29.6222   46.6980 H   0  0  0  0  0  0  0  0  0  0  0  0
   60.0221   28.9909   49.1055 H   0  0  0  0  0  0  0  0  0  0  0  0
   64.0704   33.0255   49.9482 H   0  0  0  0  0  0  0  0  0  0  0  0
   63.8546   33.5849   51.6478 H   0  0  0  0  0  0  0  0  0  0  0  0
   65.6725   34.8011   50.3415 H   0  0  0  0  0  0  0  0  0  0  0  0
   66.2135   34.0271   51.8858 H   0  0  0  0  0  0  0  0  0  0  0  0
   67.9960   31.4324   50.3904 H   0  0  0  0  0  0  0  0  0  0  0  0
   67.4226   32.2198   51.9104 H   0  0  0  0  0  0  0  0  0  0  0  0
   65.7441   30.6175   49.9130 H   0  0  0  0  0  0  0  0  0  0  0  0
   66.1787   30.1500   51.5950 H   0  0  0  0  0  0  0  0  0  0  0  0
   61.3791   34.3930   51.2828 H   0  0  0  0  0  0  0  0  0  0  0  0
   60.8810   34.9282   48.9060 H   0  0  0  0  0  0  0  0  0  0  0  0
   58.0117   31.8477   46.9449 H   0  0  0  0  0  0  0  0  0  0  0  0
   57.4932   28.5999   42.9751 H   0  0  0  0  0  0  0  0  0  0  0  0
   57.9008   26.2611   43.7385 H   0  0  0  0  0  0  0  0  0  0  0  0
  1  2  1  0
  2  3  1  0
  3  4  1  0
  2  5  1  0
  5  6  2  0
  5  7  1  0
  7  8  1  0
  8  9  2  0
  9 10  1  0
 10 11  2  0
 11 12  1  0
 12 13  2  0
 12 14  1  0
 14 15  1  0
 15 16  2  0
 16 17  1  0
 17 18  2  0
 18 19  1  0
 19 20  1  0
 20 21  2  0
 21 22  1  0
 22 23  2  0
 23 24  1  0
 24 25  2  0
 24 26  2  0
 24 27  1  0
 27 28  1  0
 28 29  1  0
 29 30  1  0
 30 31  2  0
 31 32  1  0
 32 33  2  0
 33 34  1  0
 34 35  2  0
 28 36  1  0
 36 37  2  0
 36 38  1  0
 38 39  1  0
 39 40  1  0
 40 41  1  0
 41 42  1  0
 42 43  1  0
 23 44  1  0
 44 45  2  0
 19 46  2  0
 11 47  1  0
 47 48  2  0
 48  8  1  0
 46 15  1  0
 45 20  1  0
 35 30  1  0
 43 38  1  0
  1 49  1  0
  1 50  1  0
  2 51  1  6
  3 52  1  0
  3 53  1  0
  9 54  1  0
 10 55  1  0
 16 56  1  0
 17 57  1  0
 18 58  1  0
 21 59  1  0
 22 60  1  0
 28 61  1  6
 29 62  1  0
 29 63  1  0
 31 64  1  0
 32 65  1  0
 33 66  1  0
 34 67  1  0
 35 68  1  0
 39 69  1  0
 39 70  1  0
 40 71  1  0
 40 72  1  0
 42 73  1  0
 42 74  1  0
 43 75  1  0
 43 76  1  0
 44 77  1  0
 45 78  1  0
 46 79  1  0
 47 80  1  0
 48 81  1  0
M  CHG  4   4  -1   7  -1  14  -1  27  -1
M  END
>  <UniqueID>  (61) 
54

>  <SMILES>  (61) 
N[C@H](C[S-])C(=O)[N-]c1ccc(C(=O)[N-]c2cccc(-c3ccc(S(=O)(=O)[N-][C@H](Cc4ccccc4)C(=O)N4CCOCC4)cc3)c2)cc1

>  <Energy>  (61) 
100.9836822740637

>  <Genealogy>  (61) 
NC(C[S-])C(=O)[N-]c1ccc(C(=O)[N-]c2cccc(-c3ccc(S(=O)(=O)[N-]C(Cc4ccccc4)C(=O)N4CCOCC4)cc3)c2)cc1 (protonated)
N[C@H](C[S-])C(=O)[N-]c1ccc(C(=O)[N-]c2cccc(-c3ccc(S(=O)(=O)[N-][C@H](Cc4ccccc4)C(=O)N4CCOCC4)cc3)c2)cc1 (chirality)
N[C@H](C[S-])C(=O)[N-]c1ccc(C(=O)[N-]c2cccc(-c3ccc(S(=O)(=O)[N-][C@H](Cc4ccccc4)C(=O)N4CCOCC4)cc3)c2)cc1 (3D coordinates assigned)
N[C@H](C[S-])C(=O)[N-]c1ccc(C(=O)[N-]c2cccc(-c3ccc(S(=O)(=O)[N-][C@H](Cc4ccccc4)C(=O)N4CCOCC4)cc3)c2)cc1 (nonaromatic ring conformer: 100.9836822740637 kcal/mol)

>  <smiles>  (61) 
NC(CS)C(=O)Nc1ccc(C(=O)Nc2cccc(-c3ccc(S(=O)(=O)NC(Cc4ccccc4)C(=O)N4CCOCC4)cc3)c2)cc1

>  <score_type>  (61) 
oracle

>  <origin>  (61) 
adg

>  <m_score__min__energy>  (61) 
-17.699999999999999

>  <m_primary>  (61) 
energy

$$$$
61:0
     RDKit          3D

 56 62  0  0  0  0  0  0  0  0999 V2000
   55.1470   27.4600   45.2620 H   0  0  0  0  0  0  0  0  0  0  0  0
   55.1550   26.7640   45.9960 O   0  0  0  0  0  0  0  0  0  0  0  0
   55.1610   25.3990   45.7200 C   0  0  0  0  0  0  0  0  0  0  0  0
   54.0830   24.6150   45.8850 N   0  0  0  0  0  0  0  0  0  0  0  0
   54.5340   23.4000   45.5080 C   0  0  0  0  0  0  0  0  0  0  0  0
   53.8070   22.3730   45.5190 O   0  0  0  0  0  0  0  0  0  0  0  0
   55.8250   23.3740   45.1180 N   0  0  0  0  0  0  0  0  0  0  0  0
   56.2280   24.6510   45.2580 C   0  0  0  0  0  0  0  0  0  0  0  0
   57.5770   25.1590   44.9270 C   0  0  0  0  0  0  0  0  0  0  0  0
   58.0486   24.7835   44.0069 H   0  0  0  0  0  0  0  0  0  0  0  0
   58.2720   26.0440   45.6630 C   0  0  0  0  0  0  0  0  0  0  0  0
   59.3280   25.8440   46.5490 C   0  0  0  0  0  0  0  0  0  0  0  0
   59.7827   24.8704   46.7844 H   0  0  0  0  0  0  0  0  0  0  0  0
   59.7090   27.0310   47.0760 N   0  0  0  0  0  0  0  0  0  0  0  0
   58.9420   27.9730   46.5610 N   0  0  0  0  0  0  0  0  0  0  0  0
   58.9320   29.3240   46.7830 C   0  0  0  0  0  0  0  0  0  0  0  0
   59.7350   29.9780   47.5850 N   0  0  0  0  0  0  0  0  0  0  0  0
   60.5240   31.2170   47.7480 C   0  0  2  0  0  0  0  0  0  0  0  0
   61.9340   31.2310   47.1050 C   0  0  0  0  0  0  0  0  0  0  0  0
   61.8378   31.0793   46.0198 H   0  0  0  0  0  0  0  0  0  0  0  0
   62.5347   30.4243   47.5505 H   0  0  0  0  0  0  0  0  0  0  0  0
   62.6430   32.5880   47.3700 C   0  0  2  0  0  0  0  0  0  0  0  0
   63.9130   32.6040   46.7650 O   0  0  0  0  0  0  0  0  0  0  0  0
   64.4260   31.8300   47.1190 H   0  0  0  0  0  0  0  0  0  0  0  0
   62.7720   32.8170   48.8970 C   0  0  0  0  0  0  0  0  0  0  0  0
   63.3734   32.0090   49.3391 H   0  0  0  0  0  0  0  0  0  0  0  0
   63.2630   33.7838   49.0819 H   0  0  0  0  0  0  0  0  0  0  0  0
   61.3690   32.8230   49.5380 C   0  0  2  0  0  0  0  0  0  0  0  0
   61.4628   32.9830   50.6223 H   0  0  0  0  0  0  0  0  0  0  0  0
   60.6780   31.4670   49.2720 C   0  0  0  0  0  0  0  0  0  0  0  0
   59.6822   31.4718   49.7392 H   0  0  0  0  0  0  0  0  0  0  0  0
   61.2977   30.6653   49.7002 H   0  0  0  0  0  0  0  0  0  0  0  0
   60.5240   33.9590   48.9240 C   0  0  0  0  0  0  0  0  0  0  0  0
   59.5245   33.9622   49.3833 H   0  0  0  0  0  0  0  0  0  0  0  0
   61.0159   34.9249   49.1112 H   0  0  0  0  0  0  0  0  0  0  0  0
   60.3910   33.7350   47.4040 C   0  0  2  0  0  0  0  0  0  0  0  0
   59.7902   34.5456   46.9659 H   0  0  0  0  0  0  0  0  0  0  0  0
   59.6980   32.3810   47.1410 C   0  0  0  0  0  0  0  0  0  0  0  0
   58.6980   32.3918   47.5992 H   0  0  0  0  0  0  0  0  0  0  0  0
   59.6175   32.2294   46.0545 H   0  0  0  0  0  0  0  0  0  0  0  0
   61.7930   33.7270   46.7610 C   0  0  0  0  0  0  0  0  0  0  0  0
   61.6963   33.5705   45.6765 H   0  0  0  0  0  0  0  0  0  0  0  0
   62.2863   34.6910   46.9543 H   0  0  0  0  0  0  0  0  0  0  0  0
   58.0020   30.0570   46.1090 N   0  0  0  0  0  0  0  0  0  0  0  0
   57.1140   29.4760   45.2460 C   0  0  0  0  0  0  0  0  0  0  0  0
   56.2340   30.1930   44.6150 N   0  0  0  0  0  0  0  0  0  0  0  0
   56.5820   31.2060   43.6240 C   0  0  0  0  0  0  0  0  0  0  0  0
   55.6566   31.1567   43.0315 H   0  0  0  0  0  0  0  0  0  0  0  0
   58.0620   31.2550   43.2930 C   0  0  0  0  0  0  0  0  0  0  0  0
   58.7457   30.5041   43.7158 H   0  0  0  0  0  0  0  0  0  0  0  0
   58.6523   31.2691   42.3649 H   0  0  0  0  0  0  0  0  0  0  0  0
   57.4450   32.3150   44.1930 C   0  0  0  0  0  0  0  0  0  0  0  0
   57.6827   32.3311   45.2669 H   0  0  0  0  0  0  0  0  0  0  0  0
   57.4042   33.4142   44.1857 H   0  0  0  0  0  0  0  0  0  0  0  0
   57.1470   28.1330   45.0430 N   0  0  0  0  0  0  0  0  0  0  0  0
   58.0710   27.4060   45.7130 C   0  0  0  0  0  0  0  0  0  0  0  0
  1  2  1  0
  2  3  1  0
  3  4  1  0
  4  5  1  0
  5  6  2  0
  5  7  1  0
  7  8  1  0
  8  9  1  0
  9 10  1  0
  9 11  2  3
 11 12  1  0
 12 13  1  0
 12 14  2  0
 14 15  1  0
 15 16  1  0
 16 17  2  0
 18 17  1  1
 18 19  1  0
 19 20  1  0
 19 21  1  0
 19 22  1  0
 22 23  1  6
 23 24  1  0
 22 25  1  0
 25 26  1  0
 25 27  1  0
 25 28  1  0
 28 29  1  1
 28 30  1  0
 30 31  1  0
 30 32  1  0
 28 33  1  0
 33 34  1  0
 33 35  1  0
 33 36  1  0
 36 37  1  6
 36 38  1  0
 38 39  1  0
 38 40  1  0
 36 41  1  0
 41 42  1  0
 41 43  1  0
 16 44  1  0
 44 45  1  0
 45 46  2  0
 46 47  1  0
 47 48  1  0
 47 49  1  0
 49 50  1  0
 49 51  1  0
 49 52  1  0
 52 53  1  0
 52 54  1  0
 45 55  1  0
 55 56  2  0
  8  3  2  0
 56 11  1  0
 56 15  1  0
 30 18  1  0
 52 47  1  0
 38 18  1  0
 41 22  1  0
M  CHG  3   4  -1   7  -1  44  -1
M  END
>  <UniqueID>  (62) 
55

>  <SMILES>  (62) 
O=c1[n-]c(O)c(C=c2cnn3/c(=N\C45C[C@@H]6C[C@@H](CC(O)(C6)C4)C5)[n-]/c(=N\C4CC4)nc23)[n-]1

>  <Energy>  (62) 
423.62004466383723

>  <Genealogy>  (62) 
O=c1[n-]c(O)c(C=c2cnn3c(=NC45CC6CC(CC(O)(C6)C4)C5)[n-]c(=NC4CC4)nc23)[n-]1 (protonated)
O=c1[n-]c(O)c(C=c2cnn3c(=NC45C[C@@H]6C[C@@H](CC(O)(C6)C4)C5)[n-]c(=NC4CC4)nc23)[n-]1 (chirality)
O=c1[n-]c(O)c(C=c2cnn3/c(=N\C45C[C@@H]6C[C@@H](CC(O)(C6)C4)C5)[n-]/c(=N\C4CC4)nc23)[n-]1 (cis-trans isomerization)
O=c1[n-]c(O)c(C=c2cnn3/c(=N\C45C[C@@H]6C[C@@H](CC(O)(C6)C4)C5)[n-]/c(=N\C4CC4)nc23)[n-]1 (3D coordinates assigned)
O=c1[n-]c(O)c(C=c2cnn3/c(=N\C45C[C@@H]6C[C@@H](CC(O)(C6)C4)C5)[n-]/c(=N\C4CC4)nc23)[n-]1 (nonaromatic ring conformer: 423.62004466383723 kcal/mol)

>  <smiles>  (62) 
O=c1[nH]c(O)c(C=c2cnn3c(=NC45CC6CC(CC(O)(C6)C4)C5)[nH]c(=NC4CC4)nc23)[nH]1

>  <score_type>  (62) 
oracle

>  <origin>  (62) 
adg

>  <m_score__min__energy>  (62) 
-16.219999999999999

>  <m_primary>  (62) 
energy

$$$$
62:0
     RDKit          3D

 35 36  0  0  0  0  0  0  0  0999 V2000
   55.2230   26.4310   46.0030 N   0  0  0  0  0  0  0  0  0  0  0  0
   56.8900   26.0000   45.8360 S   0  0  0  0  0  0  0  0  0  0  0  0
   57.2090   25.8510   44.3740 O   0  0  0  0  0  0  0  0  0  0  0  0
   57.1430   24.6910   46.5270 O   0  0  0  0  0  0  0  0  0  0  0  0
   57.9000   27.2530   46.5630 C   0  0  0  0  0  0  0  0  0  0  0  0
   58.9250   26.8960   47.4530 C   0  0  0  0  0  0  0  0  0  0  0  0
   59.7290   27.8770   48.0340 C   0  0  0  0  0  0  0  0  0  0  0  0
   59.5130   29.2240   47.7390 C   0  0  0  0  0  0  0  0  0  0  0  0
   58.5030   29.5910   46.8470 C   0  0  0  0  0  0  0  0  0  0  0  0
   57.6980   28.6100   46.2390 C   0  0  0  0  0  0  0  0  0  0  0  0
   56.6440   28.9750   45.3350 N   0  0  0  0  0  0  0  0  0  0  0  0
   56.8110   29.6400   44.0750 C   0  0  0  0  0  0  0  0  0  0  0  0
   56.4090   29.1020   43.0070 O   0  0  0  0  0  0  0  0  0  0  0  0
   57.3590   31.0340   44.0520 C   0  0  0  0  0  0  0  0  0  0  0  0
   56.7550   31.8470   45.0560 O   0  0  0  0  0  0  0  0  0  0  0  0
   57.1960   33.1400   45.3730 C   0  0  0  0  0  0  0  0  0  0  0  0
   56.6500   34.1400   44.8290 O   0  0  0  0  0  0  0  0  0  0  0  0
   58.3010   33.3360   46.3420 C   0  0  0  0  0  0  0  0  0  0  0  0
   58.1940   32.8100   47.6450 C   0  0  0  0  0  0  0  0  0  0  0  0
   59.2310   32.9820   48.5710 C   0  0  0  0  0  0  0  0  0  0  0  0
   59.1190   32.4590   49.8200 F   0  0  0  0  0  0  0  0  0  0  0  0
   60.3850   33.6810   48.2100 C   0  0  0  0  0  0  0  0  0  0  0  0
   60.5030   34.2150   46.9230 C   0  0  0  0  0  0  0  0  0  0  0  0
   59.4730   34.0430   45.9890 C   0  0  0  0  0  0  0  0  0  0  0  0
   59.6280   34.5760   44.7490 F   0  0  0  0  0  0  0  0  0  0  0  0
   55.1790   27.4750   45.9990 H   0  0  0  0  0  0  0  0  0  0  0  0
   59.0954   25.8363   47.6938 H   0  0  0  0  0  0  0  0  0  0  0  0
   60.5343   27.5885   48.7256 H   0  0  0  0  0  0  0  0  0  0  0  0
   60.1386   29.9969   48.2093 H   0  0  0  0  0  0  0  0  0  0  0  0
   58.3357   30.6539   46.6182 H   0  0  0  0  0  0  0  0  0  0  0  0
   58.4441   30.9950   44.2280 H   0  0  0  0  0  0  0  0  0  0  0  0
   57.1387   31.4765   43.0693 H   0  0  0  0  0  0  0  0  0  0  0  0
   57.2879   32.2593   47.9377 H   0  0  0  0  0  0  0  0  0  0  0  0
   61.2000   33.8113   48.9371 H   0  0  0  0  0  0  0  0  0  0  0  0
   61.4087   34.7727   46.6426 H   0  0  0  0  0  0  0  0  0  0  0  0
  1  2  1  0
  2  3  2  0
  2  4  2  0
  2  5  1  0
  5  6  2  0
  6  7  1  0
  7  8  2  0
  8  9  1  0
  9 10  2  0
 10 11  1  0
 11 12  1  0
 12 13  2  0
 12 14  1  0
 14 15  1  0
 15 16  1  0
 16 17  2  0
 16 18  1  0
 18 19  2  0
 19 20  1  0
 20 21  1  0
 20 22  2  0
 22 23  1  0
 23 24  2  0
 24 25  1  0
 10  5  1  0
 24 18  1  0
  1 26  1  0
  6 27  1  0
  7 28  1  0
  8 29  1  0
  9 30  1  0
 14 31  1  0
 14 32  1  0
 19 33  1  0
 22 34  1  0
 23 35  1  0
M  CHG  2   1  -1  11  -1
M  END
>  <UniqueID>  (63) 
56

>  <SMILES>  (63) 
[NH-]S(=O)(=O)c1ccccc1[N-]C(=O)COC(=O)c1cc(F)ccc1F

>  <Energy>  (63) 
39.44700940789873

>  <Genealogy>  (63) 
[NH-]S(=O)(=O)c1ccccc1[N-]C(=O)COC(=O)c1cc(F)ccc1F (protonated)
[NH-]S(=O)(=O)c1ccccc1[N-]C(=O)COC(=O)c1cc(F)ccc1F (3D coordinates assigned)
[NH-]S(=O)(=O)c1ccccc1[N-]C(=O)COC(=O)c1cc(F)ccc1F (optimized conformer: 39.44700940789873 kcal/mol)

>  <smiles>  (63) 
NS(=O)(=O)c1ccccc1NC(=O)COC(=O)c1cc(F)ccc1F

>  <score_type>  (63) 
oracle

>  <origin>  (63) 
adg

>  <m_score__min__energy>  (63) 
-12.880000000000001

>  <m_primary>  (63) 
energy

$$$$
63:0
     RDKit          3D

 63 67  0  0  0  0  0  0  0  0999 V2000
   59.0670   28.3570   45.3830 O   0  0  0  0  0  0  0  0  0  0  0  0
   58.0370   28.7010   46.0230 C   0  0  0  0  0  0  0  0  0  0  0  0
   57.4270   27.7590   47.0090 C   0  0  0  0  0  0  0  0  0  0  0  0
   57.1810   26.4670   46.3700 N   0  0  0  0  0  0  0  0  0  0  0  0
   55.9890   26.0180   45.9180 C   0  0  0  0  0  0  0  0  0  0  0  0
   54.7870   26.7060   46.0640 O   0  0  0  0  0  0  0  0  0  0  0  0
   56.1390   24.8070   45.2740 C   0  0  0  0  0  0  0  0  0  0  0  0
   57.4860   24.5280   45.2820 C   0  0  0  0  0  0  0  0  0  0  0  0
   58.0990   25.5550   45.9690 C   0  0  0  0  0  0  0  0  0  0  0  0
   59.4710   25.6470   46.1900 O   0  0  0  0  0  0  0  0  0  0  0  0
   58.0860   23.2890   44.6950 C   0  0  0  0  0  0  0  0  0  0  0  0
   57.1320   22.6780   43.6500 C   0  0  0  0  0  0  0  0  0  0  0  0
   55.6790   22.6130   44.1690 C   0  0  0  0  0  0  0  0  0  0  0  0
   55.1260   24.0130   44.5030 C   0  0  0  0  0  0  0  0  0  0  0  0
   57.4470   29.9910   45.8270 N   0  0  0  0  0  0  0  0  0  0  0  0
   57.4700   30.7670   44.6220 C   0  0  0  0  0  0  0  0  0  0  0  0
   56.9650   30.2330   43.4230 C   0  0  0  0  0  0  0  0  0  0  0  0
   57.0100   30.9720   42.2420 C   0  0  0  0  0  0  0  0  0  0  0  0
   57.5370   32.2630   42.2450 C   0  0  0  0  0  0  0  0  0  0  0  0
   58.0100   32.8230   43.4330 C   0  0  0  0  0  0  0  0  0  0  0  0
   57.9760   32.0930   44.6370 C   0  0  0  0  0  0  0  0  0  0  0  0
   58.5430   32.7120   45.8670 C   0  0  0  0  0  0  0  0  0  0  0  0
   57.8870   32.6890   46.9430 O   0  0  0  0  0  0  0  0  0  0  0  0
   59.8240   33.3470   45.8550 N   0  0  0  0  0  0  0  0  0  0  0  0
   60.8850   33.0240   46.7620 C   0  0  0  0  0  0  0  0  0  0  0  0
   62.0490   33.8010   46.7480 C   0  0  0  0  0  0  0  0  0  0  0  0
   63.0580   33.5810   47.6910 C   0  0  0  0  0  0  0  0  0  0  0  0
   62.9180   32.5710   48.6590 C   0  0  0  0  0  0  0  0  0  0  0  0
   63.9300   32.3720   49.6640 N   0  0  0  0  0  0  0  0  0  0  0  0
   64.9930   33.3650   49.8710 C   0  0  0  0  0  0  0  0  0  0  0  0
   66.3540   32.6740   50.1160 C   0  0  0  0  0  0  0  0  0  0  0  0
   66.2590   31.2750   50.3380 O   0  0  0  0  0  0  0  0  0  0  0  0
   65.2140   30.9940   51.2440 C   0  0  0  0  0  0  0  0  0  0  0  0
   63.8690   31.2020   50.5450 C   0  0  0  0  0  0  0  0  0  0  0  0
   61.7530   31.7890   48.6650 C   0  0  0  0  0  0  0  0  0  0  0  0
   60.7450   32.0100   47.7240 C   0  0  0  0  0  0  0  0  0  0  0  0
   58.1139   27.6224   47.8573 H   0  0  0  0  0  0  0  0  0  0  0  0
   56.4741   28.1748   47.3682 H   0  0  0  0  0  0  0  0  0  0  0  0
   59.9910   26.4980   46.0020 H   0  0  0  0  0  0  0  0  0  0  0  0
   59.0408   23.5420   44.2110 H   0  0  0  0  0  0  0  0  0  0  0  0
   58.2541   22.5567   45.4984 H   0  0  0  0  0  0  0  0  0  0  0  0
   57.1578   23.2956   42.7401 H   0  0  0  0  0  0  0  0  0  0  0  0
   57.4666   21.6513   43.4404 H   0  0  0  0  0  0  0  0  0  0  0  0
   55.0450   22.1552   43.3954 H   0  0  0  0  0  0  0  0  0  0  0  0
   55.6725   22.0142   45.0917 H   0  0  0  0  0  0  0  0  0  0  0  0
   54.8877   24.5408   43.5678 H   0  0  0  0  0  0  0  0  0  0  0  0
   54.2197   23.9009   45.1162 H   0  0  0  0  0  0  0  0  0  0  0  0
   56.5304   29.2225   43.4171 H   0  0  0  0  0  0  0  0  0  0  0  0
   56.6293   30.5362   41.3065 H   0  0  0  0  0  0  0  0  0  0  0  0
   57.5801   32.8409   41.3100 H   0  0  0  0  0  0  0  0  0  0  0  0
   58.4139   33.8462   43.4287 H   0  0  0  0  0  0  0  0  0  0  0  0
   62.1709   34.5895   45.9907 H   0  0  0  0  0  0  0  0  0  0  0  0
   63.9661   34.2015   47.6753 H   0  0  0  0  0  0  0  0  0  0  0  0
   65.0686   34.0029   48.9781 H   0  0  0  0  0  0  0  0  0  0  0  0
   64.7417   33.9694   50.7551 H   0  0  0  0  0  0  0  0  0  0  0  0
   66.9909   32.8421   49.2351 H   0  0  0  0  0  0  0  0  0  0  0  0
   66.7743   33.1141   51.0323 H   0  0  0  0  0  0  0  0  0  0  0  0
   65.2936   29.9511   51.5847 H   0  0  0  0  0  0  0  0  0  0  0  0
   65.2868   31.6674   52.1108 H   0  0  0  0  0  0  0  0  0  0  0  0
   63.6284   30.3101   49.9478 H   0  0  0  0  0  0  0  0  0  0  0  0
   63.0917   31.3666   51.3057 H   0  0  0  0  0  0  0  0  0  0  0  0
   61.6326   30.9953   49.4171 H   0  0  0  0  0  0  0  0  0  0  0  0
   59.8380   31.3877   47.7362 H   0  0  0  0  0  0  0  0  0  0  0  0
  1  2  2  0
  2  3  1  0
  3  4  1  0
  4  5  1  0
  5  6  1  0
  5  7  2  0
  7  8  1  0
  8  9  2  0
  9 10  1  0
  8 11  1  0
 11 12  1  0
 12 13  1  0
 13 14  1  0
  2 15  1  0
 15 16  1  0
 16 17  2  0
 17 18  1  0
 18 19  2  0
 19 20  1  0
 20 21  2  0
 21 22  1  0
 22 23  2  0
 22 24  1  0
 24 25  1  0
 25 26  2  0
 26 27  1  0
 27 28  2  0
 28 29  1  0
 29 30  1  0
 30 31  1  0
 31 32  1  0
 32 33  1  0
 33 34  1  0
 28 35  1  0
 35 36  2  0
  9  4  1  0
 21 16  1  0
 36 25  1  0
 14  7  1  0
 34 29  1  0
  3 37  1  0
  3 38  1  0
 10 39  1  0
 11 40  1  0
 11 41  1  0
 12 42  1  0
 12 43  1  0
 13 44  1  0
 13 45  1  0
 14 46  1  0
 14 47  1  0
 17 48  1  0
 18 49  1  0
 19 50  1  0
 20 51  1  0
 26 52  1  0
 27 53  1  0
 30 54  1  0
 30 55  1  0
 31 56  1  0
 31 57  1  0
 33 58  1  0
 33 59  1  0
 34 60  1  0
 34 61  1  0
 35 62  1  0
 36 63  1  0
M  CHG  3   6  -1  15  -1  24  -1
M  END
>  <UniqueID>  (64) 
57

>  <SMILES>  (64) 
O=C(Cn1c([O-])c2c(c1O)CCCC2)[N-]c1ccccc1C(=O)[N-]c1ccc(N2CCOCC2)cc1

>  <Energy>  (64) 
117.99812052624948

>  <Genealogy>  (64) 
O=C(Cn1c([O-])c2c(c1O)CCCC2)[N-]c1ccccc1C(=O)[N-]c1ccc(N2CCOCC2)cc1 (protonated)
O=C(Cn1c([O-])c2c(c1O)CCCC2)[N-]c1ccccc1C(=O)[N-]c1ccc(N2CCOCC2)cc1 (3D coordinates assigned)
O=C(Cn1c([O-])c2c(c1O)CCCC2)[N-]c1ccccc1C(=O)[N-]c1ccc(N2CCOCC2)cc1 (nonaromatic ring conformer: 117.99812052624948 kcal/mol)

>  <smiles>  (64) 
O=C(Cn1c(O)c2c(c1O)CCCC2)Nc1ccccc1C(=O)Nc1ccc(N2CCOCC2)cc1

>  <score_type>  (64) 
oracle

>  <origin>  (64) 
adg

>  <m_score__min__energy>  (64) 
-14.710000000000001

>  <m_primary>  (64) 
energy

$$$$
64:0
     RDKit          3D

 36 38  0  0  0  0  0  0  0  0999 V2000
   55.1450   26.6770   45.9960 N   0  0  0  0  0  0  0  0  0  0  0  0
   56.4880   26.2040   46.0950 C   0  0  0  0  0  0  0  0  0  0  0  0
   56.6850   25.0130   46.4580 O   0  0  0  0  0  0  0  0  0  0  0  0
   57.6300   27.1070   45.7880 C   0  0  0  0  0  0  0  0  0  0  0  0
   57.9520   27.3770   44.4450 C   0  0  0  0  0  0  0  0  0  0  0  0
   59.0160   28.2190   44.1240 C   0  0  0  0  0  0  0  0  0  0  0  0
   59.7530   28.8310   45.1320 C   0  0  0  0  0  0  0  0  0  0  0  0
   59.4290   28.6190   46.4760 C   0  0  0  0  0  0  0  0  0  0  0  0
   60.1490   29.3590   47.4700 N   0  0  0  0  0  0  0  0  0  0  0  0
   59.6090   29.8900   48.6920 C   0  0  0  0  0  0  0  0  0  0  0  0
   59.9150   29.3340   49.7770 O   0  0  0  0  0  0  0  0  0  0  0  0
   58.7400   31.0330   48.7220 N   0  0  0  0  0  0  0  0  0  0  0  0
   58.9790   32.3030   48.0980 C   0  0  0  0  0  0  0  0  0  0  0  0
   59.6010   33.3000   48.8590 C   0  0  0  0  0  0  0  0  0  0  0  0
   59.7590   34.5900   48.3510 C   0  0  0  0  0  0  0  0  0  0  0  0
   59.3150   34.8970   47.0650 C   0  0  0  0  0  0  0  0  0  0  0  0
   58.7390   33.9030   46.2610 C   0  0  0  0  0  0  0  0  0  0  0  0
   58.3150   34.2100   44.9590 C   0  0  0  0  0  0  0  0  0  0  0  0
   57.7670   33.2170   44.1460 C   0  0  0  0  0  0  0  0  0  0  0  0
   57.6530   31.9090   44.6180 C   0  0  0  0  0  0  0  0  0  0  0  0
   58.0670   31.5870   45.9130 C   0  0  0  0  0  0  0  0  0  0  0  0
   58.5890   32.5830   46.7630 C   0  0  0  0  0  0  0  0  0  0  0  0
   58.4010   27.7080   46.8130 C   0  0  0  0  0  0  0  0  0  0  0  0
   58.1520   27.3790   48.1490 O   0  0  0  0  0  0  0  0  0  0  0  0
   54.6580   27.0890   46.8230 H   0  0  0  0  0  0  0  0  0  0  0  0
   57.3582   26.9191   43.6402 H   0  0  0  0  0  0  0  0  0  0  0  0
   59.2733   28.3998   43.0699 H   0  0  0  0  0  0  0  0  0  0  0  0
   60.5968   29.4865   44.8705 H   0  0  0  0  0  0  0  0  0  0  0  0
   59.9692   33.0639   49.8683 H   0  0  0  0  0  0  0  0  0  0  0  0
   60.2352   35.3672   48.9667 H   0  0  0  0  0  0  0  0  0  0  0  0
   59.4170   35.9224   46.6801 H   0  0  0  0  0  0  0  0  0  0  0  0
   58.4150   35.2370   44.5779 H   0  0  0  0  0  0  0  0  0  0  0  0
   57.4242   33.4660   43.1309 H   0  0  0  0  0  0  0  0  0  0  0  0
   57.2349   31.1270   43.9670 H   0  0  0  0  0  0  0  0  0  0  0  0
   57.9851   30.5502   46.2713 H   0  0  0  0  0  0  0  0  0  0  0  0
   58.5710   27.8730   48.9250 H   0  0  0  0  0  0  0  0  0  0  0  0
  1  2  1  0
  2  3  2  0
  2  4  1  0
  4  5  2  0
  5  6  1  0
  6  7  2  0
  7  8  1  0
  8  9  1  0
  9 10  1  0
 10 11  2  0
 10 12  1  0
 12 13  1  0
 13 14  2  0
 14 15  1  0
 15 16  2  0
 16 17  1  0
 17 18  2  0
 18 19  1  0
 19 20  2  0
 20 21  1  0
 21 22  2  0
  8 23  2  0
 23 24  1  0
 23  4  1  0
 22 13  1  0
 22 17  1  0
  1 25  1  0
  5 26  1  0
  6 27  1  0
  7 28  1  0
 14 29  1  0
 15 30  1  0
 16 31  1  0
 18 32  1  0
 19 33  1  0
 20 34  1  0
 21 35  1  0
 24 36  1  0
M  CHG  3   1  -1   9  -1  12  -1
M  END
>  <UniqueID>  (65) 
58

>  <SMILES>  (65) 
[NH-]C(=O)c1cccc([N-]C(=O)[N-]c2cccc3ccccc23)c1O

>  <Energy>  (65) 
56.2883930652581

>  <Genealogy>  (65) 
[NH-]C(=O)c1cccc([N-]C(=O)[N-]c2cccc3ccccc23)c1O (protonated)
[NH-]C(=O)c1cccc([N-]C(=O)[N-]c2cccc3ccccc23)c1O (3D coordinates assigned)
[NH-]C(=O)c1cccc([N-]C(=O)[N-]c2cccc3ccccc23)c1O (optimized conformer: 56.2883930652581 kcal/mol)

>  <smiles>  (65) 
NC(=O)c1cccc(NC(=O)Nc2cccc3ccccc23)c1O

>  <score_type>  (65) 
oracle

>  <origin>  (65) 
adg

>  <m_score__min__energy>  (65) 
-14.960000000000001

>  <m_primary>  (65) 
energy

$$$$
65:0
     RDKit          3D

 55 57  0  0  0  0  0  0  0  0999 V2000
   65.3170   31.1680   50.9210 C   0  0  0  0  0  0  0  0  0  0  0  0
   65.1390   32.4980   50.3250 N   0  0  0  0  0  0  0  0  0  0  0  0
   66.2310   33.4740   50.4630 C   0  0  0  0  0  0  0  0  0  0  0  0
   66.8220   33.4230   51.8900 C   0  0  0  0  0  0  0  0  0  0  0  0
   66.0170   34.1320   52.9160 N   0  0  0  0  0  0  0  0  0  0  0  0
   65.2230   33.2120   53.7490 C   0  0  0  0  0  0  0  0  0  0  0  0
   65.1650   35.1860   52.3370 C   0  0  0  0  0  0  0  0  0  0  0  0
   63.9330   32.8110   49.5810 C   0  0  0  0  0  0  0  0  0  0  0  0
   63.9540   32.9310   48.1760 C   0  0  0  0  0  0  0  0  0  0  0  0
   62.7890   33.2290   47.4650 C   0  0  0  0  0  0  0  0  0  0  0  0
   61.5680   33.4110   48.1340 C   0  0  0  0  0  0  0  0  0  0  0  0
   60.3350   33.7430   47.3750 C   0  0  0  0  0  0  0  0  0  0  0  0
   60.3940   34.5600   46.3100 C   0  0  0  0  0  0  0  0  0  0  0  0
   59.1980   34.8720   45.5090 C   0  0  0  0  0  0  0  0  0  0  0  0
   59.2870   35.7000   44.5640 O   0  0  0  0  0  0  0  0  0  0  0  0
   57.8690   34.2320   45.8060 C   0  0  0  0  0  0  0  0  0  0  0  0
   57.9860   33.0060   46.7390 C   0  0  1  0  0  0  0  0  0  0  0  0
   58.2760   31.6940   46.0170 C   0  0  0  0  0  0  0  0  0  0  0  0
   59.2120   30.8030   46.5750 C   0  0  0  0  0  0  0  0  0  0  0  0
   59.5390   29.6110   45.9210 C   0  0  0  0  0  0  0  0  0  0  0  0
   58.9460   29.2980   44.6980 C   0  0  0  0  0  0  0  0  0  0  0  0
   59.2660   28.1420   44.0640 F   0  0  0  0  0  0  0  0  0  0  0  0
   58.0290   30.1780   44.1230 C   0  0  0  0  0  0  0  0  0  0  0  0
   57.6980   31.3720   44.7720 C   0  0  0  0  0  0  0  0  0  0  0  0
   58.9930   33.2560   47.8780 C   0  0  0  0  0  0  0  0  0  0  0  0
   61.5410   33.2970   49.5340 C   0  0  0  0  0  0  0  0  0  0  0  0
   62.7050   32.9990   50.2460 C   0  0  0  0  0  0  0  0  0  0  0  0
   65.3056   31.2531   52.0176 H   0  0  0  0  0  0  0  0  0  0  0  0
   64.4992   30.5081   50.5959 H   0  0  0  0  0  0  0  0  0  0  0  0
   66.2796   30.7464   50.5959 H   0  0  0  0  0  0  0  0  0  0  0  0
   67.0213   33.2391   49.7348 H   0  0  0  0  0  0  0  0  0  0  0  0
   65.8336   34.4827   50.2772 H   0  0  0  0  0  0  0  0  0  0  0  0
   66.9071   32.3678   52.1890 H   0  0  0  0  0  0  0  0  0  0  0  0
   67.7934   33.9372   51.8446 H   0  0  0  0  0  0  0  0  0  0  0  0
   66.6990   34.6090   53.5520 H   0  0  0  0  0  0  0  0  0  0  0  0
   65.4085   33.4269   54.8117 H   0  0  0  0  0  0  0  0  0  0  0  0
   64.1539   33.3479   53.5286 H   0  0  0  0  0  0  0  0  0  0  0  0
   65.5138   32.1743   53.5286 H   0  0  0  0  0  0  0  0  0  0  0  0
   64.6969   35.7651   53.1467 H   0  0  0  0  0  0  0  0  0  0  0  0
   65.7796   35.8544   51.7161 H   0  0  0  0  0  0  0  0  0  0  0  0
   64.3826   34.7252   51.7161 H   0  0  0  0  0  0  0  0  0  0  0  0
   64.8999   32.7881   47.6330 H   0  0  0  0  0  0  0  0  0  0  0  0
   62.8286   33.3220   46.3697 H   0  0  0  0  0  0  0  0  0  0  0  0
   61.3592   35.0068   46.0294 H   0  0  0  0  0  0  0  0  0  0  0  0
   57.2199   34.9784   46.2873 H   0  0  0  0  0  0  0  0  0  0  0  0
   57.4515   33.8807   44.8509 H   0  0  0  0  0  0  0  0  0  0  0  0
   56.9856   32.8814   47.1792 H   0  0  0  0  0  0  0  0  0  0  0  0
   59.6909   31.0467   47.5348 H   0  0  0  0  0  0  0  0  0  0  0  0
   60.2653   28.9189   46.3720 H   0  0  0  0  0  0  0  0  0  0  0  0
   57.5649   29.9322   43.1565 H   0  0  0  0  0  0  0  0  0  0  0  0
   56.9812   32.0651   44.3075 H   0  0  0  0  0  0  0  0  0  0  0  0
   58.5754   34.0142   48.5568 H   0  0  0  0  0  0  0  0  0  0  0  0
   59.1586   32.2973   48.3913 H   0  0  0  0  0  0  0  0  0  0  0  0
   60.5942   33.4438   50.0745 H   0  0  0  0  0  0  0  0  0  0  0  0
   62.6625   32.9098   51.3416 H   0  0  0  0  0  0  0  0  0  0  0  0
  1  2  1  0
  2  3  1  0
  3  4  1  0
  4  5  1  0
  5  6  1  0
  5  7  1  0
  2  8  1  0
  8  9  2  0
  9 10  1  0
 10 11  2  0
 11 12  1  0
 12 13  2  0
 13 14  1  0
 14 15  2  0
 14 16  1  0
 16 17  1  0
 17 18  1  0
 18 19  2  0
 19 20  1  0
 20 21  2  0
 21 22  1  0
 21 23  1  0
 23 24  2  0
 17 25  1  0
 11 26  1  0
 26 27  2  0
 27  8  1  0
 25 12  1  0
 24 18  1  0
  1 28  1  0
  1 29  1  0
  1 30  1  0
  3 31  1  0
  3 32  1  0
  4 33  1  0
  4 34  1  0
  5 35  1  0
  6 36  1  0
  6 37  1  0
  6 38  1  0
  7 39  1  0
  7 40  1  0
  7 41  1  0
  9 42  1  0
 10 43  1  0
 13 44  1  0
 16 45  1  0
 16 46  1  0
 17 47  1  1
 19 48  1  0
 20 49  1  0
 23 50  1  0
 24 51  1  0
 25 52  1  0
 25 53  1  0
 26 54  1  0
 27 55  1  0
M  CHG  1   5   1
M  END
>  <UniqueID>  (66) 
59

>  <SMILES>  (66) 
CN(CC[NH+](C)C)c1ccc(C2=CC(=O)C[C@@H](c3ccc(F)cc3)C2)cc1

>  <Energy>  (66) 
66.01707489095762

>  <Genealogy>  (66) 
CN(CC[NH+](C)C)c1ccc(C2=CC(=O)CC(c3ccc(F)cc3)C2)cc1 (protonated)
CN(CC[NH+](C)C)c1ccc(C2=CC(=O)C[C@@H](c3ccc(F)cc3)C2)cc1 (chirality)
CN(CC[NH+](C)C)c1ccc(C2=CC(=O)C[C@@H](c3ccc(F)cc3)C2)cc1 (3D coordinates assigned)
CN(CC[NH+](C)C)c1ccc(C2=CC(=O)C[C@@H](c3ccc(F)cc3)C2)cc1 (nonaromatic ring conformer: 66.01707489095762 kcal/mol)

>  <smiles>  (66) 
CN(C)CCN(C)c1ccc(C2=CC(=O)CC(c3ccc(F)cc3)C2)cc1

>  <score_type>  (66) 
oracle

>  <origin>  (66) 
adg

>  <m_score__min__energy>  (66) 
-6.7800000000000002

>  <m_primary>  (66) 
energy

$$$$
66:0
     RDKit          3D

 64 67  0  0  0  0  0  0  0  0999 V2000
   63.0690   34.1910   51.5290 C   0  0  0  0  0  0  0  0  0  0  0  0
   62.0890   33.9230   50.3780 C   0  0  2  0  0  0  0  0  0  0  0  0
   60.7910   33.2560   50.8110 C   0  0  0  0  0  0  0  0  0  0  0  0
   60.6050   32.7130   52.1000 C   0  0  0  0  0  0  0  0  0  0  0  0
   59.4090   32.0670   52.4340 C   0  0  0  0  0  0  0  0  0  0  0  0
   58.3760   31.9420   51.4870 C   0  0  0  0  0  0  0  0  0  0  0  0
   57.1200   31.2360   51.8290 C   0  0  0  0  0  0  0  0  0  0  0  0
   57.0080   29.9980   51.6350 O   0  0  0  0  0  0  0  0  0  0  0  0
   56.0390   31.9350   52.3580 O   0  0  0  0  0  0  0  0  0  0  0  0
   58.5730   32.4560   50.1920 C   0  0  0  0  0  0  0  0  0  0  0  0
   59.7610   33.1120   49.8640 C   0  0  0  0  0  0  0  0  0  0  0  0
   62.7530   33.1830   49.2820 N   0  0  0  0  0  0  0  0  0  0  0  0
   63.7010   32.1080   49.5960 C   0  0  0  0  0  0  0  0  0  0  0  0
   62.9760   30.9160   50.1590 C   0  0  0  0  0  0  0  0  0  0  0  0
   63.4880   30.2430   51.2820 C   0  0  0  0  0  0  0  0  0  0  0  0
   62.8330   29.1090   51.7820 C   0  0  0  0  0  0  0  0  0  0  0  0
   61.6520   28.6450   51.1760 C   0  0  0  0  0  0  0  0  0  0  0  0
   61.1290   29.3180   50.0670 C   0  0  0  0  0  0  0  0  0  0  0  0
   59.9720   28.8830   49.4970 F   0  0  0  0  0  0  0  0  0  0  0  0
   61.7880   30.4470   49.5590 C   0  0  0  0  0  0  0  0  0  0  0  0
   62.6400   33.6200   47.9120 C   0  0  0  0  0  0  0  0  0  0  0  0
   63.6300   34.1640   47.3530 O   0  0  0  0  0  0  0  0  0  0  0  0
   61.3870   33.4390   47.1530 C   0  0  0  0  0  0  0  0  0  0  0  0
   60.7490   34.5430   46.5650 C   0  0  0  0  0  0  0  0  0  0  0  0
   59.5650   34.3670   45.8430 C   0  0  0  0  0  0  0  0  0  0  0  0
   59.0180   33.0870   45.6830 C   0  0  0  0  0  0  0  0  0  0  0  0
   57.5660   32.8720   44.7050 S   0  0  0  0  0  0  0  0  0  0  0  0
   56.6410   34.0490   44.8600 O   0  0  0  0  0  0  0  0  0  0  0  0
   57.9610   32.7550   43.2570 O   0  0  0  0  0  0  0  0  0  0  0  0
   56.7480   31.4190   45.2000 N   0  0  0  0  0  0  0  0  0  0  0  0
   57.1070   30.3110   44.3160 C   0  0  0  0  0  0  0  0  0  0  0  0
   58.1100   29.4430   45.0130 C   0  0  0  0  0  0  0  0  0  0  0  0
   57.7750   28.8170   46.2260 C   0  0  0  0  0  0  0  0  0  0  0  0
   58.7250   28.0540   46.9140 C   0  0  0  0  0  0  0  0  0  0  0  0
   60.0090   27.9060   46.3890 C   0  0  0  0  0  0  0  0  0  0  0  0
   60.3510   28.5340   45.1880 C   0  0  0  0  0  0  0  0  0  0  0  0
   59.4120   29.3130   44.5080 C   0  0  0  0  0  0  0  0  0  0  0  0
   59.6620   31.9830   46.2580 C   0  0  0  0  0  0  0  0  0  0  0  0
   60.8350   32.1580   46.9920 C   0  0  0  0  0  0  0  0  0  0  0  0
   62.5531   34.0499   52.4902 H   0  0  0  0  0  0  0  0  0  0  0  0
   63.9150   33.4912   51.4607 H   0  0  0  0  0  0  0  0  0  0  0  0
   63.4411   35.2239   51.4607 H   0  0  0  0  0  0  0  0  0  0  0  0
   61.7861   34.9101   49.9986 H   0  0  0  0  0  0  0  0  0  0  0  0
   61.4065   32.7981   52.8486 H   0  0  0  0  0  0  0  0  0  0  0  0
   59.2757   31.6539   53.4447 H   0  0  0  0  0  0  0  0  0  0  0  0
   57.7855   32.3402   49.4328 H   0  0  0  0  0  0  0  0  0  0  0  0
   59.8932   33.5216   48.8517 H   0  0  0  0  0  0  0  0  0  0  0  0
   64.2286   31.8106   48.6778 H   0  0  0  0  0  0  0  0  0  0  0  0
   64.4198   32.4739   50.3439 H   0  0  0  0  0  0  0  0  0  0  0  0
   64.4045   30.6070   51.7694 H   0  0  0  0  0  0  0  0  0  0  0  0
   63.2452   28.5791   52.6534 H   0  0  0  0  0  0  0  0  0  0  0  0
   61.1410   27.7554   51.5729 H   0  0  0  0  0  0  0  0  0  0  0  0
   61.3750   30.9717   48.6849 H   0  0  0  0  0  0  0  0  0  0  0  0
   61.1818   35.5485   46.6727 H   0  0  0  0  0  0  0  0  0  0  0  0
   59.0604   35.2375   45.3984 H   0  0  0  0  0  0  0  0  0  0  0  0
   56.2092   29.7214   44.0788 H   0  0  0  0  0  0  0  0  0  0  0  0
   57.5362   30.7021   43.3817 H   0  0  0  0  0  0  0  0  0  0  0  0
   56.7605   28.9275   46.6367 H   0  0  0  0  0  0  0  0  0  0  0  0
   58.4600   27.5720   47.8666 H   0  0  0  0  0  0  0  0  0  0  0  0
   60.7529   27.2945   46.9207 H   0  0  0  0  0  0  0  0  0  0  0  0
   61.3641   28.4142   44.7766 H   0  0  0  0  0  0  0  0  0  0  0  0
   59.6938   29.8248   43.5760 H   0  0  0  0  0  0  0  0  0  0  0  0
   59.2409   30.9749   46.1300 H   0  0  0  0  0  0  0  0  0  0  0  0
   61.3304   31.2877   47.4472 H   0  0  0  0  0  0  0  0  0  0  0  0
  1  2  1  0
  2  3  1  0
  3  4  2  0
  4  5  1  0
  5  6  2  0
  6  7  1  0
  7  8  2  0
  7  9  1  0
  6 10  1  0
 10 11  2  0
  2 12  1  0
 12 13  1  0
 13 14  1  0
 14 15  2  0
 15 16  1  0
 16 17  2  0
 17 18  1  0
 18 19  1  0
 18 20  2  0
 12 21  1  0
 21 22  2  0
 21 23  1  0
 23 24  2  0
 24 25  1  0
 25 26  2  0
 26 27  1  0
 27 28  2  0
 27 29  2  0
 27 30  1  0
 30 31  1  0
 31 32  1  0
 32 33  2  0
 33 34  1  0
 34 35  2  0
 35 36  1  0
 36 37  2  0
 26 38  1  0
 38 39  2  0
 11  3  1  0
 20 14  1  0
 39 23  1  0
 37 32  1  0
  1 40  1  0
  1 41  1  0
  1 42  1  0
  2 43  1  6
  4 44  1  0
  5 45  1  0
 10 46  1  0
 11 47  1  0
 13 48  1  0
 13 49  1  0
 15 50  1  0
 16 51  1  0
 17 52  1  0
 20 53  1  0
 24 54  1  0
 25 55  1  0
 31 56  1  0
 31 57  1  0
 33 58  1  0
 34 59  1  0
 35 60  1  0
 36 61  1  0
 37 62  1  0
 38 63  1  0
 39 64  1  0
M  CHG  2   9  -1  30  -1
M  END
>  <UniqueID>  (67) 
60

>  <SMILES>  (67) 
C[C@H](c1ccc(C(=O)[O-])cc1)N(Cc1cccc(F)c1)C(=O)c1ccc(S(=O)(=O)[N-]Cc2ccccc2)cc1

>  <Energy>  (67) 
72.86354392552627

>  <Genealogy>  (67) 
CC(c1ccc(C(=O)[O-])cc1)N(Cc1cccc(F)c1)C(=O)c1ccc(S(=O)(=O)[N-]Cc2ccccc2)cc1 (protonated)
C[C@H](c1ccc(C(=O)[O-])cc1)N(Cc1cccc(F)c1)C(=O)c1ccc(S(=O)(=O)[N-]Cc2ccccc2)cc1 (chirality)
C[C@H](c1ccc(C(=O)[O-])cc1)N(Cc1cccc(F)c1)C(=O)c1ccc(S(=O)(=O)[N-]Cc2ccccc2)cc1 (3D coordinates assigned)
C[C@H](c1ccc(C(=O)[O-])cc1)N(Cc1cccc(F)c1)C(=O)c1ccc(S(=O)(=O)[N-]Cc2ccccc2)cc1 (optimized conformer: 72.86354392552627 kcal/mol)

>  <smiles>  (67) 
CC(c1ccc(C(=O)O)cc1)N(Cc1cccc(F)c1)C(=O)c1ccc(S(=O)(=O)NCc2ccccc2)cc1

>  <score_type>  (67) 
oracle

>  <origin>  (67) 
adg

>  <m_score__min__energy>  (67) 
-13.1

>  <m_primary>  (67) 
energy

$$$$
67:0
     RDKit          3D

 56 58  0  0  0  0  0  0  0  0999 V2000
   62.3660   33.3880   50.4550 C   0  0  0  0  0  0  0  0  0  0  0  0
   62.3000   34.2570   49.3280 O   0  0  0  0  0  0  0  0  0  0  0  0
   61.2860   34.1480   48.3740 C   0  0  0  0  0  0  0  0  0  0  0  0
   59.9530   34.2450   48.7880 C   0  0  0  0  0  0  0  0  0  0  0  0
   58.9170   34.2000   47.8530 C   0  0  0  0  0  0  0  0  0  0  0  0
   59.1990   34.0450   46.4870 C   0  0  0  0  0  0  0  0  0  0  0  0
   58.0660   33.9570   45.4920 C   0  0  0  0  0  0  0  0  0  0  0  0
   57.6680   32.5350   45.2210 C   0  0  0  0  0  0  0  0  0  0  0  0
   56.4750   32.2860   44.8990 O   0  0  0  0  0  0  0  0  0  0  0  0
   58.6510   31.4850   45.2790 N   0  0  0  0  0  0  0  0  0  0  0  0
   58.3860   30.1060   44.9680 C   0  0  0  0  0  0  0  0  0  0  0  0
   57.7450   29.7870   43.7610 C   0  0  0  0  0  0  0  0  0  0  0  0
   57.4340   28.4600   43.4540 C   0  0  0  0  0  0  0  0  0  0  0  0
   57.7500   27.4400   44.3540 C   0  0  0  0  0  0  0  0  0  0  0  0
   58.4050   27.7420   45.5550 C   0  0  0  0  0  0  0  0  0  0  0  0
   58.6610   26.4980   46.7790 S   0  0  0  0  0  0  0  0  0  0  0  0
   59.6930   25.5070   46.3170 O   0  0  0  0  0  0  0  0  0  0  0  0
   59.1380   27.1530   48.0430 O   0  0  0  0  0  0  0  0  0  0  0  0
   57.1710   25.6580   47.0920 N   0  0  0  0  0  0  0  0  0  0  0  0
   56.5150   24.9760   46.2010 C   0  0  0  0  0  0  0  0  0  0  0  0
   57.1980   24.0850   45.3680 C   0  0  0  0  0  0  0  0  0  0  0  0
   56.4770   23.3040   44.4500 C   0  0  0  0  0  0  0  0  0  0  0  0
   57.1860   22.2950   43.5940 C   0  0  0  0  0  0  0  0  0  0  0  0
   55.0820   23.4180   44.3970 C   0  0  0  0  0  0  0  0  0  0  0  0
   54.4340   24.3480   45.2210 C   0  0  0  0  0  0  0  0  0  0  0  0
   52.9440   24.4620   45.2330 C   0  0  0  0  0  0  0  0  0  0  0  0
   55.1620   25.0870   46.0980 N   0  0  0  0  0  0  0  0  0  0  0  0
   58.7580   29.0680   45.8390 C   0  0  0  0  0  0  0  0  0  0  0  0
   60.5350   33.8810   46.0790 C   0  0  0  0  0  0  0  0  0  0  0  0
   61.5860   33.9400   47.0160 C   0  0  0  0  0  0  0  0  0  0  0  0
   62.9270   33.7800   46.6360 O   0  0  0  0  0  0  0  0  0  0  0  0
   63.7700   32.7180   47.0760 C   0  0  0  0  0  0  0  0  0  0  0  0
   62.3209   33.9824   51.3795 H   0  0  0  0  0  0  0  0  0  0  0  0
   61.5185   32.6873   50.4279 H   0  0  0  0  0  0  0  0  0  0  0  0
   63.3096   32.8233   50.4279 H   0  0  0  0  0  0  0  0  0  0  0  0
   59.7197   34.3574   49.8571 H   0  0  0  0  0  0  0  0  0  0  0  0
   57.8732   34.2866   48.1892 H   0  0  0  0  0  0  0  0  0  0  0  0
   57.1972   34.4991   45.8936 H   0  0  0  0  0  0  0  0  0  0  0  0
   58.4081   34.4015   44.5457 H   0  0  0  0  0  0  0  0  0  0  0  0
   59.6490   31.7670   45.4070 H   0  0  0  0  0  0  0  0  0  0  0  0
   57.4857   30.5870   43.0520 H   0  0  0  0  0  0  0  0  0  0  0  0
   56.9394   28.2182   42.5017 H   0  0  0  0  0  0  0  0  0  0  0  0
   57.4844   26.3986   44.1197 H   0  0  0  0  0  0  0  0  0  0  0  0
   58.2926   23.9962   45.4311 H   0  0  0  0  0  0  0  0  0  0  0  0
   57.6992   21.5647   44.2369 H   0  0  0  0  0  0  0  0  0  0  0  0
   56.4543   21.7741   42.9589 H   0  0  0  0  0  0  0  0  0  0  0  0
   57.9240   22.8068   42.9589 H   0  0  0  0  0  0  0  0  0  0  0  0
   54.4996   22.7824   43.7138 H   0  0  0  0  0  0  0  0  0  0  0  0
   52.5867   24.4893   46.2730 H   0  0  0  0  0  0  0  0  0  0  0  0
   52.6428   25.3858   44.7174 H   0  0  0  0  0  0  0  0  0  0  0  0
   52.5057   23.5948   44.7174 H   0  0  0  0  0  0  0  0  0  0  0  0
   59.3302   29.2979   46.7499 H   0  0  0  0  0  0  0  0  0  0  0  0
   60.7619   33.7048   45.0172 H   0  0  0  0  0  0  0  0  0  0  0  0
   63.7878   32.6956   48.1756 H   0  0  0  0  0  0  0  0  0  0  0  0
   63.3829   31.7611   46.6959 H   0  0  0  0  0  0  0  0  0  0  0  0
   64.7898   32.8779   46.6959 H   0  0  0  0  0  0  0  0  0  0  0  0
  1  2  1  0
  2  3  1  0
  3  4  2  0
  4  5  1  0
  5  6  2  0
  6  7  1  0
  7  8  1  0
  8  9  2  0
  8 10  1  0
 10 11  1  0
 11 12  2  0
 12 13  1  0
 13 14  2  0
 14 15  1  0
 15 16  1  0
 16 17  2  0
 16 18  2  0
 16 19  1  0
 19 20  2  3
 20 21  1  0
 21 22  2  0
 22 23  1  0
 22 24  1  0
 24 25  2  0
 25 26  1  0
 25 27  1  0
 15 28  2  0
  6 29  1  0
 29 30  2  0
 30 31  1  0
 31 32  1  0
 30  3  1  0
 28 11  1  0
 27 20  1  0
  1 33  1  0
  1 34  1  0
  1 35  1  0
  4 36  1  0
  5 37  1  0
  7 38  1  0
  7 39  1  0
 10 40  1  0
 12 41  1  0
 13 42  1  0
 14 43  1  0
 21 44  1  0
 23 45  1  0
 23 46  1  0
 23 47  1  0
 24 48  1  0
 26 49  1  0
 26 50  1  0
 26 51  1  0
 28 52  1  0
 29 53  1  0
 32 54  1  0
 32 55  1  0
 32 56  1  0
M  CHG  1  27  -1
M  END
>  <UniqueID>  (68) 
61

>  <SMILES>  (68) 
COc1ccc(CC(=O)Nc2cccc(S(=O)(=O)N=c3cc(C)cc(C)[n-]3)c2)cc1OC

>  <Energy>  (68) 
65.63633756464306

>  <Genealogy>  (68) 
COc1ccc(CC(=O)Nc2cccc(S(=O)(=O)N=c3cc(C)cc(C)[n-]3)c2)cc1OC (protonated)
COc1ccc(CC(=O)Nc2cccc(S(=O)(=O)N=c3cc(C)cc(C)[n-]3)c2)cc1OC (3D coordinates assigned)
COc1ccc(CC(=O)Nc2cccc(S(=O)(=O)N=c3cc(C)cc(C)[n-]3)c2)cc1OC (optimized conformer: 65.63633756464306 kcal/mol)

>  <smiles>  (68) 
COc1ccc(CC(=O)Nc2cccc(S(=O)(=O)N=c3cc(C)cc(C)[nH]3)c2)cc1OC

>  <score_type>  (68) 
oracle

>  <origin>  (68) 
adg

>  <m_score__min__energy>  (68) 
-11.32

>  <m_primary>  (68) 
energy

$$$$
68:0
     RDKit          3D

 56 59  0  0  0  0  0  0  0  0999 V2000
   58.0340   27.0460   42.5030 C   0  0  0  0  0  0  0  0  0  0  0  0
   58.1410   28.1070   43.5210 N   0  0  1  0  0  0  0  0  0  0  0  0
   56.9280   28.9630   43.5820 C   0  0  0  0  0  0  0  0  0  0  0  0
   57.0110   30.3150   42.8340 C   0  0  0  0  0  0  0  0  0  0  0  0
   57.3480   31.4270   43.7240 N   0  0  0  0  0  0  0  0  0  0  0  0
   57.4360   31.3910   45.1540 C   0  0  0  0  0  0  0  0  0  0  0  0
   57.0280   30.4360   45.8690 O   0  0  0  0  0  0  0  0  0  0  0  0
   58.1400   32.5700   45.6440 C   0  0  0  0  0  0  0  0  0  0  0  0
   58.4400   32.9800   46.9460 C   0  0  0  0  0  0  0  0  0  0  0  0
   59.1620   34.1770   47.1120 C   0  0  0  0  0  0  0  0  0  0  0  0
   59.5640   34.9290   45.9840 C   0  0  0  0  0  0  0  0  0  0  0  0
   59.2570   34.4900   44.6840 C   0  0  0  0  0  0  0  0  0  0  0  0
   58.5370   33.3030   44.5470 C   0  0  0  0  0  0  0  0  0  0  0  0
   58.0870   32.5970   43.3550 C   0  0  0  0  0  0  0  0  0  0  0  0
   58.3290   32.9390   42.1650 O   0  0  0  0  0  0  0  0  0  0  0  0
   58.5380   27.5610   44.8040 C   0  0  0  0  0  0  0  0  0  0  0  0
   58.4080   26.3290   45.0450 O   0  0  0  0  0  0  0  0  0  0  0  0
   59.1990   28.4050   45.8180 C   0  0  0  0  0  0  0  0  0  0  0  0
   60.1590   29.3420   45.4140 C   0  0  0  0  0  0  0  0  0  0  0  0
   60.7880   30.1590   46.3610 C   0  0  0  0  0  0  0  0  0  0  0  0
   60.4840   30.0250   47.7220 C   0  0  0  0  0  0  0  0  0  0  0  0
   61.2600   31.0660   48.9160 S   0  0  0  0  0  0  0  0  0  0  0  0
   60.4220   32.3000   49.1000 O   0  0  0  0  0  0  0  0  0  0  0  0
   61.2940   30.3420   50.2340 O   0  0  0  0  0  0  0  0  0  0  0  0
   62.8940   31.5250   48.4890 N   0  0  0  0  0  0  0  0  0  0  0  0
   63.5700   32.3420   49.5160 C   0  0  0  0  0  0  0  0  0  0  0  0
   63.3630   33.8480   49.3020 C   0  0  0  0  0  0  0  0  0  0  0  0
   63.7270   34.2200   47.9920 O   0  0  0  0  0  0  0  0  0  0  0  0
   62.8520   33.5980   47.0780 C   0  0  0  0  0  0  0  0  0  0  0  0
   63.0090   32.0690   47.1240 C   0  0  0  0  0  0  0  0  0  0  0  0
   59.5280   29.0830   48.1250 C   0  0  0  0  0  0  0  0  0  0  0  0
   58.8850   28.2820   47.1780 C   0  0  0  0  0  0  0  0  0  0  0  0
   57.9355   26.0696   43.0000 H   0  0  0  0  0  0  0  0  0  0  0  0
   57.1497   27.2285   41.8747 H   0  0  0  0  0  0  0  0  0  0  0  0
   58.9369   27.0483   41.8747 H   0  0  0  0  0  0  0  0  0  0  0  0
   58.9190   28.7300   43.1930 H   0  0  0  0  0  0  0  0  0  0  0  0
   56.0917   28.3920   43.1525 H   0  0  0  0  0  0  0  0  0  0  0  0
   56.8007   29.2200   44.6439 H   0  0  0  0  0  0  0  0  0  0  0  0
   57.7835   30.2402   42.0544 H   0  0  0  0  0  0  0  0  0  0  0  0
   56.0202   30.5201   42.4024 H   0  0  0  0  0  0  0  0  0  0  0  0
   58.1215   32.3853   47.8148 H   0  0  0  0  0  0  0  0  0  0  0  0
   59.4145   34.5287   48.1232 H   0  0  0  0  0  0  0  0  0  0  0  0
   60.1222   35.8663   46.1249 H   0  0  0  0  0  0  0  0  0  0  0  0
   59.5749   35.0650   43.8018 H   0  0  0  0  0  0  0  0  0  0  0  0
   60.4193   29.4360   44.3494 H   0  0  0  0  0  0  0  0  0  0  0  0
   61.5237   30.9090   46.0352 H   0  0  0  0  0  0  0  0  0  0  0  0
   63.1702   32.0682   50.5035 H   0  0  0  0  0  0  0  0  0  0  0  0
   64.6491   32.1404   49.4453 H   0  0  0  0  0  0  0  0  0  0  0  0
   62.3034   34.0937   49.4658 H   0  0  0  0  0  0  0  0  0  0  0  0
   63.9967   34.3967   50.0143 H   0  0  0  0  0  0  0  0  0  0  0  0
   61.8154   33.8618   47.3349 H   0  0  0  0  0  0  0  0  0  0  0  0
   63.0963   33.9466   46.0637 H   0  0  0  0  0  0  0  0  0  0  0  0
   62.2262   31.6161   46.4978 H   0  0  0  0  0  0  0  0  0  0  0  0
   64.0166   31.8278   46.7546 H   0  0  0  0  0  0  0  0  0  0  0  0
   59.2827   28.9737   49.1917 H   0  0  0  0  0  0  0  0  0  0  0  0
   58.1289   27.5515   47.5015 H   0  0  0  0  0  0  0  0  0  0  0  0
  1  2  1  0
  2  3  1  0
  3  4  1  0
  4  5  1  0
  5  6  1  0
  6  7  2  0
  6  8  1  0
  8  9  2  0
  9 10  1  0
 10 11  2  0
 11 12  1  0
 12 13  2  0
 13 14  1  0
 14 15  2  0
  2 16  1  0
 16 17  2  0
 16 18  1  0
 18 19  2  0
 19 20  1  0
 20 21  2  0
 21 22  1  0
 22 23  2  0
 22 24  2  0
 22 25  1  0
 25 26  1  0
 26 27  1  0
 27 28  1  0
 28 29  1  0
 29 30  1  0
 21 31  1  0
 31 32  2  0
 14  5  1  0
 32 18  1  0
 13  8  1  0
 30 25  1  0
  1 33  1  0
  1 34  1  0
  1 35  1  0
  2 36  1  6
  3 37  1  0
  3 38  1  0
  4 39  1  0
  4 40  1  0
  9 41  1  0
 10 42  1  0
 11 43  1  0
 12 44  1  0
 19 45  1  0
 20 46  1  0
 26 47  1  0
 26 48  1  0
 27 49  1  0
 27 50  1  0
 29 51  1  0
 29 52  1  0
 30 53  1  0
 30 54  1  0
 31 55  1  0
 32 56  1  0
M  CHG  1   2   1
M  END
>  <UniqueID>  (69) 
62

>  <SMILES>  (69) 
C[N@@H+](CCN1C(=O)c2ccccc2C1=O)C(=O)c1ccc(S(=O)(=O)N2CCOCC2)cc1

>  <Energy>  (69) 
107.06147307096793

>  <Genealogy>  (69) 
C[NH+](CCN1C(=O)c2ccccc2C1=O)C(=O)c1ccc(S(=O)(=O)N2CCOCC2)cc1 (protonated)
C[N@@H+](CCN1C(=O)c2ccccc2C1=O)C(=O)c1ccc(S(=O)(=O)N2CCOCC2)cc1 (chirality)
C[N@@H+](CCN1C(=O)c2ccccc2C1=O)C(=O)c1ccc(S(=O)(=O)N2CCOCC2)cc1 (3D coordinates assigned)
C[N@@H+](CCN1C(=O)c2ccccc2C1=O)C(=O)c1ccc(S(=O)(=O)N2CCOCC2)cc1 (nonaromatic ring conformer: 107.06147307096793 kcal/mol)

>  <smiles>  (69) 
CN(CCN1C(=O)c2ccccc2C1=O)C(=O)c1ccc(S(=O)(=O)N2CCOCC2)cc1

>  <score_type>  (69) 
oracle

>  <origin>  (69) 
adg

>  <m_score__min__energy>  (69) 
-7.9500000000000002

>  <m_primary>  (69) 
energy

$$$$
69:0
     RDKit          3D

 32 34  0  0  0  0  0  0  0  0999 V2000
   60.3578   31.0200   47.2651 H   0  0  0  0  0  0  0  0  0  0  0  0
   59.9940   30.1390   46.7160 C   0  0  0  0  0  0  0  0  0  0  0  0
   60.4443   29.1522   46.8990 H   0  0  0  0  0  0  0  0  0  0  0  0
   59.0010   30.2680   45.8230 C   0  0  0  0  0  0  0  0  0  0  0  0
   58.4240   29.2550   45.0440 C   0  0  0  0  0  0  0  0  0  0  0  0
   58.4960   27.9110   45.1440 C   0  0  0  0  0  0  0  0  0  0  0  0
   59.4620   27.4386   44.9121 H   0  0  0  0  0  0  0  0  0  0  0  0
   57.3880   27.0250   45.5380 C   0  0  0  0  0  0  0  0  0  0  0  0
   57.5390   25.7910   46.0540 N   0  0  0  0  0  0  0  0  0  0  0  0
   56.2790   25.4290   46.3770 C   0  0  0  0  0  0  0  0  0  0  0  0
   55.9200   23.9800   47.0410 S   0  0  0  0  0  0  0  0  0  0  0  0
   55.3420   26.3690   46.1270 N   0  0  0  0  0  0  0  0  0  0  0  0
   56.0640   27.3760   45.6080 C   0  0  0  0  0  0  0  0  0  0  0  0
   55.5220   28.5930   45.2140 O   0  0  0  0  0  0  0  0  0  0  0  0
   57.6980   29.9440   44.0790 C   0  0  0  0  0  0  0  0  0  0  0  0
   56.8760   29.3510   42.9790 C   0  0  0  0  0  0  0  0  0  0  0  0
   56.0560   28.7594   43.4121 H   0  0  0  0  0  0  0  0  0  0  0  0
   56.4583   30.1571   42.3580 H   0  0  0  0  0  0  0  0  0  0  0  0
   57.5092   28.7004   42.3580 H   0  0  0  0  0  0  0  0  0  0  0  0
   57.7730   31.2680   44.3070 N   0  0  0  0  0  0  0  0  0  0  0  0
   58.5430   31.4610   45.3660 N   0  0  0  0  0  0  0  0  0  0  0  0
   58.8290   32.7760   45.8750 C   0  0  0  0  0  0  0  0  0  0  0  0
   59.2700   33.7980   45.0180 C   0  0  0  0  0  0  0  0  0  0  0  0
   59.3744   33.6019   43.9407 H   0  0  0  0  0  0  0  0  0  0  0  0
   59.5770   35.0640   45.5280 C   0  0  0  0  0  0  0  0  0  0  0  0
   59.9113   35.8635   44.8505 H   0  0  0  0  0  0  0  0  0  0  0  0
   59.4590   35.3130   46.8980 C   0  0  0  0  0  0  0  0  0  0  0  0
   59.6953   36.3102   47.2976 H   0  0  0  0  0  0  0  0  0  0  0  0
   59.0410   34.2960   47.7610 C   0  0  0  0  0  0  0  0  0  0  0  0
   58.9536   34.4920   48.8399 H   0  0  0  0  0  0  0  0  0  0  0  0
   58.7340   33.0300   47.2540 C   0  0  0  0  0  0  0  0  0  0  0  0
   58.4166   32.2288   47.9376 H   0  0  0  0  0  0  0  0  0  0  0  0
  1  2  1  0
  2  3  1  0
  2  4  2  0
  4  5  1  0
  5  6  2  0
  6  7  1  0
  6  8  1  0
  8  9  1  0
  9 10  1  0
 10 11  2  0
 10 12  1  0
 12 13  1  0
 13 14  1  0
  5 15  1  0
 15 16  1  0
 16 17  1  0
 16 18  1  0
 16 19  1  0
 15 20  2  0
 20 21  1  0
 21 22  1  0
 22 23  2  0
 23 24  1  0
 23 25  1  0
 25 26  1  0
 25 27  2  0
 27 28  1  0
 27 29  1  0
 29 30  1  0
 29 31  2  0
 31 32  1  0
 21  4  1  0
 31 22  1  0
 13  8  2  0
M  CHG  3   9  -1  12  -1  14  -1
M  END
>  <UniqueID>  (70) 
63

>  <SMILES>  (70) 
C=c1/c(=C\c2[n-]c(=S)[n-]c2[O-])c(C)nn1-c1ccccc1

>  <Energy>  (70) 
111.61556677853136

>  <Genealogy>  (70) 
C=c1c(=Cc2[n-]c(=S)[n-]c2[O-])c(C)nn1-c1ccccc1 (protonated)
C=c1/c(=C\c2[n-]c(=S)[n-]c2[O-])c(C)nn1-c1ccccc1 (cis-trans isomerization)
C=c1/c(=C\c2[n-]c(=S)[n-]c2[O-])c(C)nn1-c1ccccc1 (3D coordinates assigned)
C=c1/c(=C\c2[n-]c(=S)[n-]c2[O-])c(C)nn1-c1ccccc1 (optimized conformer: 111.61556677853136 kcal/mol)

>  <smiles>  (70) 
C=c1c(=Cc2[nH]c(=S)[nH]c2O)c(C)nn1-c1ccccc1

>  <score_type>  (70) 
oracle

>  <origin>  (70) 
adg

>  <m_score__min__energy>  (70) 
-14.75

>  <m_primary>  (70) 
energy

$$$$
70:0
     RDKit          3D

 79 83  0  0  0  0  0  0  0  0999 V2000
   63.0210   33.8330   47.0740 C   0  0  0  0  0  0  0  0  0  0  0  0
   62.0370   32.7420   47.2060 N   0  0  0  0  0  0  0  0  0  0  0  0
   62.3580   31.9040   48.3850 C   0  0  0  0  0  0  0  0  0  0  0  0
   63.3130   32.5930   49.3420 C   0  0  0  0  0  0  0  0  0  0  0  0
   64.6980   32.3320   49.2770 C   0  0  0  0  0  0  0  0  0  0  0  0
   65.5800   32.9700   50.1500 C   0  0  0  0  0  0  0  0  0  0  0  0
   65.0910   33.8440   51.1200 C   0  0  0  0  0  0  0  0  0  0  0  0
   63.7150   34.0670   51.2400 C   0  0  0  0  0  0  0  0  0  0  0  0
   62.8090   33.4380   50.3590 C   0  0  0  0  0  0  0  0  0  0  0  0
   61.4170   33.6330   50.4490 O   0  0  0  0  0  0  0  0  0  0  0  0
   60.5610   33.1670   51.4930 C   0  0  0  0  0  0  0  0  0  0  0  0
   59.1860   33.8200   51.4010 C   0  0  0  0  0  0  0  0  0  0  0  0
   58.7480   34.2090   52.6540 F   0  0  0  0  0  0  0  0  0  0  0  0
   60.6760   33.3160   47.3050 C   0  0  0  0  0  0  0  0  0  0  0  0
   59.5760   32.2420   47.4750 C   0  0  2  0  0  0  0  0  0  0  0  0
   58.2040   32.7350   46.9780 C   0  0  0  0  0  0  0  0  0  0  0  0
   57.9620   32.2990   45.5520 C   0  0  0  0  0  0  0  0  0  0  0  0
   58.3140   33.1500   44.4900 C   0  0  0  0  0  0  0  0  0  0  0  0
   58.1490   32.7310   43.1660 C   0  0  0  0  0  0  0  0  0  0  0  0
   57.6360   31.4610   42.8900 C   0  0  0  0  0  0  0  0  0  0  0  0
   57.2900   30.6040   43.9400 C   0  0  0  0  0  0  0  0  0  0  0  0
   57.4520   31.0210   45.2680 C   0  0  0  0  0  0  0  0  0  0  0  0
   59.4750   31.8910   48.8900 N   0  0  0  0  0  0  0  0  0  0  0  0
   58.9160   30.6710   49.3840 C   0  0  0  0  0  0  0  0  0  0  0  0
   58.1860   30.6940   50.4120 O   0  0  0  0  0  0  0  0  0  0  0  0
   59.2100   29.3800   48.7060 C   0  0  0  0  0  0  0  0  0  0  0  0
   58.6650   29.1130   47.4360 C   0  0  0  0  0  0  0  0  0  0  0  0
   58.9490   27.9130   46.7670 C   0  0  0  0  0  0  0  0  0  0  0  0
   58.3250   27.6330   45.4260 C   0  0  0  0  0  0  0  0  0  0  0  0
   57.2140   26.6260   45.5670 C   0  0  0  0  0  0  0  0  0  0  0  0
   55.9590   27.0970   45.7890 N   0  0  0  0  0  0  0  0  0  0  0  0
   54.9240   26.2840   45.9950 N   0  0  0  0  0  0  0  0  0  0  0  0
   55.0690   24.9350   46.0010 C   0  0  0  0  0  0  0  0  0  0  0  0
   54.0630   24.2050   46.2050 O   0  0  0  0  0  0  0  0  0  0  0  0
   56.3320   24.3720   45.7770 C   0  0  0  0  0  0  0  0  0  0  0  0
   57.4310   25.2300   45.5700 C   0  0  0  0  0  0  0  0  0  0  0  0
   58.7330   24.6600   45.3290 N   0  0  0  0  0  0  0  0  0  0  0  0
   58.9900   23.2430   45.5680 C   0  0  0  0  0  0  0  0  0  0  0  0
   57.7940   22.4160   45.1040 C   0  0  0  0  0  0  0  0  0  0  0  0
   56.5230   22.8680   45.8340 C   0  0  0  0  0  0  0  0  0  0  0  0
   59.7840   26.9660   47.3800 C   0  0  0  0  0  0  0  0  0  0  0  0
   60.3270   27.2150   48.6410 C   0  0  0  0  0  0  0  0  0  0  0  0
   60.0430   28.4100   49.3070 C   0  0  0  0  0  0  0  0  0  0  0  0
   60.6060   28.6220   50.5230 F   0  0  0  0  0  0  0  0  0  0  0  0
   63.3277   34.1731   48.0741 H   0  0  0  0  0  0  0  0  0  0  0  0
   63.9015   33.4682   46.5247 H   0  0  0  0  0  0  0  0  0  0  0  0
   62.5676   34.6713   46.5247 H   0  0  0  0  0  0  0  0  0  0  0  0
   61.4248   31.6756   48.9206 H   0  0  0  0  0  0  0  0  0  0  0  0
   62.8490   30.9889   48.0223 H   0  0  0  0  0  0  0  0  0  0  0  0
   65.0853   31.6205   48.5328 H   0  0  0  0  0  0  0  0  0  0  0  0
   66.6613   32.7834   50.0729 H   0  0  0  0  0  0  0  0  0  0  0  0
   65.7902   34.3606   51.7940 H   0  0  0  0  0  0  0  0  0  0  0  0
   63.3366   34.7370   52.0261 H   0  0  0  0  0  0  0  0  0  0  0  0
   60.4483   32.0762   51.4065 H   0  0  0  0  0  0  0  0  0  0  0  0
   61.0115   33.4309   52.4612 H   0  0  0  0  0  0  0  0  0  0  0  0
   59.2482   34.7038   50.7491 H   0  0  0  0  0  0  0  0  0  0  0  0
   58.4739   33.0913   50.9864 H   0  0  0  0  0  0  0  0  0  0  0  0
   60.6431   33.9914   48.1726 H   0  0  0  0  0  0  0  0  0  0  0  0
   60.4741   33.8463   46.3627 H   0  0  0  0  0  0  0  0  0  0  0  0
   59.8569   31.3674   46.8699 H   0  0  0  0  0  0  0  0  0  0  0  0
   57.4158   32.3172   47.6216 H   0  0  0  0  0  0  0  0  0  0  0  0
   58.1884   33.8342   47.0182 H   0  0  0  0  0  0  0  0  0  0  0  0
   58.7210   34.1499   44.7013 H   0  0  0  0  0  0  0  0  0  0  0  0
   58.4238   33.4031   42.3397 H   0  0  0  0  0  0  0  0  0  0  0  0
   57.5043   31.1353   41.8476 H   0  0  0  0  0  0  0  0  0  0  0  0
   56.8906   29.6023   43.7232 H   0  0  0  0  0  0  0  0  0  0  0  0
   57.1787   30.3449   46.0916 H   0  0  0  0  0  0  0  0  0  0  0  0
   58.0070   29.8558   46.9613 H   0  0  0  0  0  0  0  0  0  0  0  0
   57.9175   28.5676   45.0130 H   0  0  0  0  0  0  0  0  0  0  0  0
   59.0931   27.2266   44.7516 H   0  0  0  0  0  0  0  0  0  0  0  0
   59.4870   25.2160   44.8730 H   0  0  0  0  0  0  0  0  0  0  0  0
   59.8860   22.9349   45.0092 H   0  0  0  0  0  0  0  0  0  0  0  0
   59.1500   23.0790   46.6439 H   0  0  0  0  0  0  0  0  0  0  0  0
   57.6580   22.5498   44.0207 H   0  0  0  0  0  0  0  0  0  0  0  0
   57.9807   21.3559   45.3307 H   0  0  0  0  0  0  0  0  0  0  0  0
   55.6541   22.3828   45.3654 H   0  0  0  0  0  0  0  0  0  0  0  0
   56.6211   22.5804   46.8912 H   0  0  0  0  0  0  0  0  0  0  0  0
   60.0117   26.0220   46.8633 H   0  0  0  0  0  0  0  0  0  0  0  0
   60.9815   26.4673   49.1128 H   0  0  0  0  0  0  0  0  0  0  0  0
  1  2  1  0
  2  3  1  0
  3  4  1  0
  4  5  2  0
  5  6  1  0
  6  7  2  0
  7  8  1  0
  8  9  2  0
  9 10  1  0
 10 11  1  0
 11 12  1  0
 12 13  1  0
  2 14  1  0
 14 15  1  0
 15 16  1  0
 16 17  1  0
 17 18  2  0
 18 19  1  0
 19 20  2  0
 20 21  1  0
 21 22  2  0
 15 23  1  0
 23 24  1  0
 24 25  2  0
 24 26  1  0
 26 27  2  0
 27 28  1  0
 28 29  1  0
 29 30  1  0
 30 31  2  0
 31 32  1  0
 32 33  1  0
 33 34  2  0
 33 35  1  0
 35 36  2  0
 36 37  1  0
 37 38  1  0
 38 39  1  0
 39 40  1  0
 28 41  2  0
 41 42  1  0
 42 43  2  0
 43 44  1  0
  9  4  1  0
 22 17  1  0
 43 26  1  0
 36 30  1  0
 40 35  1  0
  1 45  1  0
  1 46  1  0
  1 47  1  0
  3 48  1  0
  3 49  1  0
  5 50  1  0
  6 51  1  0
  7 52  1  0
  8 53  1  0
 11 54  1  0
 11 55  1  0
 12 56  1  0
 12 57  1  0
 14 58  1  0
 14 59  1  0
 15 60  1  6
 16 61  1  0
 16 62  1  0
 18 63  1  0
 19 64  1  0
 20 65  1  0
 21 66  1  0
 22 67  1  0
 27 68  1  0
 29 69  1  0
 29 70  1  0
 37 71  1  0
 38 72  1  0
 38 73  1  0
 39 74  1  0
 39 75  1  0
 40 76  1  0
 40 77  1  0
 41 78  1  0
 42 79  1  0
M  CHG  2  23  -1  32  -1
M  END
>  <UniqueID>  (71) 
64

>  <SMILES>  (71) 
CN(Cc1ccccc1OCCF)C[C@H](Cc1ccccc1)[N-]C(=O)c1cc(Cc2n[n-]c(=O)c3c2NCCC3)ccc1F

>  <Energy>  (71) 
85.96775716117808

>  <Genealogy>  (71) 
CN(Cc1ccccc1OCCF)CC(Cc1ccccc1)[N-]C(=O)c1cc(Cc2n[n-]c(=O)c3c2NCCC3)ccc1F (protonated)
CN(Cc1ccccc1OCCF)C[C@H](Cc1ccccc1)[N-]C(=O)c1cc(Cc2n[n-]c(=O)c3c2NCCC3)ccc1F (chirality)
CN(Cc1ccccc1OCCF)C[C@H](Cc1ccccc1)[N-]C(=O)c1cc(Cc2n[n-]c(=O)c3c2NCCC3)ccc1F (3D coordinates assigned)
CN(Cc1ccccc1OCCF)C[C@H](Cc1ccccc1)[N-]C(=O)c1cc(Cc2n[n-]c(=O)c3c2NCCC3)ccc1F (nonaromatic ring conformer: 85.96775716117808 kcal/mol)

>  <smiles>  (71) 
CN(Cc1ccccc1OCCF)CC(Cc1ccccc1)NC(=O)c1cc(Cc2n[nH]c(=O)c3c2NCCC3)ccc1F

>  <score_type>  (71) 
oracle

>  <origin>  (71) 
adg

>  <m_score__min__energy>  (71) 
-12.949999999999999

>  <m_primary>  (71) 
energy

$$$$
71:0
     RDKit          3D

 54 57  0  0  0  0  0  0  0  0999 V2000
   60.2040   29.4500   46.1460 N   0  0  0  0  0  0  0  0  0  0  0  0
   59.0310   30.0450   45.5600 C   0  0  0  0  0  0  0  0  0  0  0  0
   58.5970   31.3020   46.0310 C   0  0  0  0  0  0  0  0  0  0  0  0
   59.3430   32.0150   47.0340 N   0  0  0  0  0  0  0  0  0  0  0  0
   60.1380   33.1760   46.6050 C   0  0  0  0  0  0  0  0  0  0  0  0
   61.5970   32.9070   46.7990 C   0  0  0  0  0  0  0  0  0  0  0  0
   62.6110   33.8370   46.6850 C   0  0  0  0  0  0  0  0  0  0  0  0
   63.7720   33.1580   46.9840 C   0  0  0  0  0  0  0  0  0  0  0  0
   63.3950   31.8590   47.2620 C   0  0  0  0  0  0  0  0  0  0  0  0
   62.0930   31.7420   47.1440 O   0  0  0  0  0  0  0  0  0  0  0  0
   59.2160   31.6070   48.4160 C   0  0  0  0  0  0  0  0  0  0  0  0
   59.4690   30.4130   48.7360 O   0  0  0  0  0  0  0  0  0  0  0  0
   58.8140   32.5590   49.5120 C   0  0  0  0  0  0  0  0  0  0  0  0
   60.0700   33.8580   49.7820 S   0  0  0  0  0  0  0  0  0  0  0  0
   61.2670   32.7690   50.5600 C   0  0  0  0  0  0  0  0  0  0  0  0
   61.7370   33.0500   51.8470 C   0  0  0  0  0  0  0  0  0  0  0  0
   62.6710   32.1970   52.4360 C   0  0  0  0  0  0  0  0  0  0  0  0
   63.1260   31.0770   51.7360 C   0  0  0  0  0  0  0  0  0  0  0  0
   62.6310   30.8260   50.4540 C   0  0  0  0  0  0  0  0  0  0  0  0
   61.7150   31.6650   49.8980 N   0  0  0  0  0  0  0  0  0  0  0  0
   57.4340   31.8540   45.4940 C   0  0  0  0  0  0  0  0  0  0  0  0
   57.0070   32.9690   45.8950 O   0  0  0  0  0  0  0  0  0  0  0  0
   56.7580   31.1920   44.5300 N   0  0  0  0  0  0  0  0  0  0  0  0
   57.1780   29.9910   44.0640 C   0  0  0  0  0  0  0  0  0  0  0  0
   56.4980   29.4240   43.1660 O   0  0  0  0  0  0  0  0  0  0  0  0
   58.3160   29.4020   44.5680 N   0  0  0  0  0  0  0  0  0  0  0  0
   58.7340   28.0730   44.0660 C   0  0  0  0  0  0  0  0  0  0  0  0
   57.8780   26.9760   44.6530 C   0  0  0  0  0  0  0  0  0  0  0  0
   57.7560   25.7390   43.9920 C   0  0  0  0  0  0  0  0  0  0  0  0
   56.9480   24.7310   44.5250 C   0  0  0  0  0  0  0  0  0  0  0  0
   56.2420   24.9520   45.7110 C   0  0  0  0  0  0  0  0  0  0  0  0
   56.3410   26.1840   46.3640 C   0  0  0  0  0  0  0  0  0  0  0  0
   57.1490   27.1950   45.8350 C   0  0  0  0  0  0  0  0  0  0  0  0
   60.7200   29.9230   46.9210 H   0  0  0  0  0  0  0  0  0  0  0  0
   60.5980   28.5380   45.8360 H   0  0  0  0  0  0  0  0  0  0  0  0
   59.9442   33.3752   45.5407 H   0  0  0  0  0  0  0  0  0  0  0  0
   59.8517   34.0488   47.2101 H   0  0  0  0  0  0  0  0  0  0  0  0
   62.5126   34.8981   46.4125 H   0  0  0  0  0  0  0  0  0  0  0  0
   64.7927   33.5678   46.9984 H   0  0  0  0  0  0  0  0  0  0  0  0
   64.0816   31.0458   47.5401 H   0  0  0  0  0  0  0  0  0  0  0  0
   57.8622   33.0366   49.2366 H   0  0  0  0  0  0  0  0  0  0  0  0
   58.7141   31.9830   50.4438 H   0  0  0  0  0  0  0  0  0  0  0  0
   61.3737   33.9351   52.3897 H   0  0  0  0  0  0  0  0  0  0  0  0
   63.0478   32.4058   53.4482 H   0  0  0  0  0  0  0  0  0  0  0  0
   63.8656   30.4004   52.1891 H   0  0  0  0  0  0  0  0  0  0  0  0
   62.9825   29.9479   49.8924 H   0  0  0  0  0  0  0  0  0  0  0  0
   61.3560   31.4570   48.9390 H   0  0  0  0  0  0  0  0  0  0  0  0
   58.6378   28.0563   42.9703 H   0  0  0  0  0  0  0  0  0  0  0  0
   59.7782   27.8992   44.3652 H   0  0  0  0  0  0  0  0  0  0  0  0
   58.2993   25.5651   43.0515 H   0  0  0  0  0  0  0  0  0  0  0  0
   56.8675   23.7621   44.0104 H   0  0  0  0  0  0  0  0  0  0  0  0
   55.6086   24.1565   46.1304 H   0  0  0  0  0  0  0  0  0  0  0  0
   55.7824   26.3583   47.2954 H   0  0  0  0  0  0  0  0  0  0  0  0
   57.2146   28.1668   46.3463 H   0  0  0  0  0  0  0  0  0  0  0  0
  1  2  1  0
  2  3  2  0
  3  4  1  0
  4  5  1  0
  5  6  1  0
  6  7  2  0
  7  8  1  0
  8  9  2  0
  9 10  1  0
  4 11  1  0
 11 12  2  0
 11 13  1  0
 13 14  1  0
 14 15  1  0
 15 16  2  0
 16 17  1  0
 17 18  2  0
 18 19  1  0
 19 20  2  0
  3 21  1  0
 21 22  2  0
 21 23  1  0
 23 24  1  0
 24 25  2  0
 24 26  1  0
 26 27  1  0
 27 28  1  0
 28 29  2  0
 29 30  1  0
 30 31  2  0
 31 32  1  0
 32 33  2  0
 26  2  1  0
 33 28  1  0
 10  6  1  0
 20 15  1  0
  1 34  1  0
  1 35  1  0
  5 36  1  0
  5 37  1  0
  7 38  1  0
  8 39  1  0
  9 40  1  0
 13 41  1  0
 13 42  1  0
 16 43  1  0
 17 44  1  0
 18 45  1  0
 19 46  1  0
 20 47  1  0
 27 48  1  0
 27 49  1  0
 29 50  1  0
 30 51  1  0
 31 52  1  0
 32 53  1  0
 33 54  1  0
M  CHG  2  20   1  23  -1
M  END
>  <UniqueID>  (72) 
65

>  <SMILES>  (72) 
Nc1c(N(Cc2ccco2)C(=O)CSc2cccc[nH+]2)c(=O)[n-]c(=O)n1Cc1ccccc1

>  <Energy>  (72) 
91.44573354016116

>  <Genealogy>  (72) 
Nc1c(N(Cc2ccco2)C(=O)CSc2cccc[nH+]2)c(=O)[n-]c(=O)n1Cc1ccccc1 (protonated)
Nc1c(N(Cc2ccco2)C(=O)CSc2cccc[nH+]2)c(=O)[n-]c(=O)n1Cc1ccccc1 (3D coordinates assigned)
Nc1c(N(Cc2ccco2)C(=O)CSc2cccc[nH+]2)c(=O)[n-]c(=O)n1Cc1ccccc1 (optimized conformer: 91.44573354016116 kcal/mol)

>  <smiles>  (72) 
Nc1c(N(Cc2ccco2)C(=O)CSc2ccccn2)c(=O)[nH]c(=O)n1Cc1ccccc1

>  <score_type>  (72) 
oracle

>  <origin>  (72) 
adg

>  <m_score__min__energy>  (72) 
-8.2200000000000006

>  <m_primary>  (72) 
energy

$$$$
72:0
     RDKit          3D

 41 42  0  0  0  0  0  0  0  0999 V2000
   63.6220   34.0080   47.1670 C   0  0  0  0  0  0  0  0  0  0  0  0
   63.1580   32.7320   47.7230 N   0  0  0  0  0  0  0  0  0  0  0  0
   64.0170   31.9710   48.6360 C   0  0  0  0  0  0  0  0  0  0  0  0
   61.8710   32.2160   47.3250 C   0  0  0  0  0  0  0  0  0  0  0  0
   61.1900   32.8380   46.4630 O   0  0  0  0  0  0  0  0  0  0  0  0
   61.3390   31.0200   47.9220 N   0  0  0  0  0  0  0  0  0  0  0  0
   60.3070   30.2170   47.3220 C   0  0  0  0  0  0  0  0  0  0  0  0
   60.3440   29.9700   45.9420 C   0  0  0  0  0  0  0  0  0  0  0  0
   59.3240   29.2400   45.3260 C   0  0  0  0  0  0  0  0  0  0  0  0
   58.2430   28.7640   46.0790 C   0  0  0  0  0  0  0  0  0  0  0  0
   56.9170   27.9380   45.2650 S   0  0  0  0  0  0  0  0  0  0  0  0
   57.4350   27.3330   43.9920 O   0  0  0  0  0  0  0  0  0  0  0  0
   56.3720   26.8370   46.1320 O   0  0  0  0  0  0  0  0  0  0  0  0
   55.6470   29.0670   44.8820 N   0  0  0  0  0  0  0  0  0  0  0  0
   55.8350   29.6600   43.5550 C   0  0  0  0  0  0  0  0  0  0  0  0
   56.7490   30.8560   43.6200 C   0  0  0  0  0  0  0  0  0  0  0  0
   57.0300   31.4650   44.8540 C   0  0  0  0  0  0  0  0  0  0  0  0
   57.8450   32.6000   44.9100 C   0  0  0  0  0  0  0  0  0  0  0  0
   58.3920   33.1290   43.7370 C   0  0  0  0  0  0  0  0  0  0  0  0
   58.1340   32.5160   42.5080 C   0  0  0  0  0  0  0  0  0  0  0  0
   57.3210   31.3800   42.4480 C   0  0  0  0  0  0  0  0  0  0  0  0
   58.2000   29.0070   47.4570 C   0  0  0  0  0  0  0  0  0  0  0  0
   59.2210   29.7360   48.0750 C   0  0  0  0  0  0  0  0  0  0  0  0
   63.8723   34.6962   47.9878 H   0  0  0  0  0  0  0  0  0  0  0  0
   64.5149   33.8353   46.5482 H   0  0  0  0  0  0  0  0  0  0  0  0
   62.8267   34.4491   46.5482 H   0  0  0  0  0  0  0  0  0  0  0  0
   63.7485   32.2089   49.6759 H   0  0  0  0  0  0  0  0  0  0  0  0
   63.8778   30.8944   48.4585 H   0  0  0  0  0  0  0  0  0  0  0  0
   65.0690   32.2389   48.4585 H   0  0  0  0  0  0  0  0  0  0  0  0
   61.6580   30.7580   48.8800 H   0  0  0  0  0  0  0  0  0  0  0  0
   61.1814   30.3534   45.3406 H   0  0  0  0  0  0  0  0  0  0  0  0
   59.3702   29.0384   44.2456 H   0  0  0  0  0  0  0  0  0  0  0  0
   56.2752   28.9074   42.8843 H   0  0  0  0  0  0  0  0  0  0  0  0
   54.8556   29.9888   43.1773 H   0  0  0  0  0  0  0  0  0  0  0  0
   56.6074   31.0476   45.7799 H   0  0  0  0  0  0  0  0  0  0  0  0
   58.0561   33.0773   45.8783 H   0  0  0  0  0  0  0  0  0  0  0  0
   59.0252   34.0274   43.7816 H   0  0  0  0  0  0  0  0  0  0  0  0
   58.5712   32.9278   41.5864 H   0  0  0  0  0  0  0  0  0  0  0  0
   57.1284   30.8946   41.4799 H   0  0  0  0  0  0  0  0  0  0  0  0
   57.3606   28.6234   48.0555 H   0  0  0  0  0  0  0  0  0  0  0  0
   59.1744   29.9343   49.1560 H   0  0  0  0  0  0  0  0  0  0  0  0
  1  2  1  0
  2  3  1  0
  2  4  1  0
  4  5  2  0
  4  6  1  0
  6  7  1  0
  7  8  2  0
  8  9  1  0
  9 10  2  0
 10 11  1  0
 11 12  2  0
 11 13  2  0
 11 14  1  0
 14 15  1  0
 15 16  1  0
 16 17  2  0
 17 18  1  0
 18 19  2  0
 19 20  1  0
 20 21  2  0
 10 22  1  0
 22 23  2  0
 23  7  1  0
 21 16  1  0
  1 24  1  0
  1 25  1  0
  1 26  1  0
  3 27  1  0
  3 28  1  0
  3 29  1  0
  6 30  1  0
  8 31  1  0
  9 32  1  0
 15 33  1  0
 15 34  1  0
 17 35  1  0
 18 36  1  0
 19 37  1  0
 20 38  1  0
 21 39  1  0
 22 40  1  0
 23 41  1  0
M  CHG  1  14  -1
M  END
>  <UniqueID>  (73) 
66

>  <SMILES>  (73) 
CN(C)C(=O)Nc1ccc(S(=O)(=O)[N-]Cc2ccccc2)cc1

>  <Energy>  (73) 
37.703564719832336

>  <Genealogy>  (73) 
CN(C)C(=O)Nc1ccc(S(=O)(=O)[N-]Cc2ccccc2)cc1 (protonated)
CN(C)C(=O)Nc1ccc(S(=O)(=O)[N-]Cc2ccccc2)cc1 (3D coordinates assigned)
CN(C)C(=O)Nc1ccc(S(=O)(=O)[N-]Cc2ccccc2)cc1 (optimized conformer: 37.703564719832336 kcal/mol)

>  <smiles>  (73) 
CN(C)C(=O)Nc1ccc(S(=O)(=O)NCc2ccccc2)cc1

>  <score_type>  (73) 
oracle

>  <origin>  (73) 
adg

>  <m_score__min__energy>  (73) 
-8.8100000000000005

>  <m_primary>  (73) 
energy

$$$$
73:0
     RDKit          3D

 52 55  0  0  0  0  0  0  0  0999 V2000
   59.0590   34.1460   44.4570 O   0  0  0  0  0  0  0  0  0  0  0  0
   58.1380   33.4320   44.9530 C   0  0  0  0  0  0  0  0  0  0  0  0
   57.6940   33.6930   46.2910 N   0  0  0  0  0  0  0  0  0  0  0  0
   58.5510   33.5560   47.4390 C   0  0  0  0  0  0  0  0  0  0  0  0
   59.4880   34.5620   47.7140 C   0  0  0  0  0  0  0  0  0  0  0  0
   60.3000   34.4760   48.8520 C   0  0  0  0  0  0  0  0  0  0  0  0
   60.1710   33.3950   49.7300 C   0  0  0  0  0  0  0  0  0  0  0  0
   59.2310   32.3850   49.4710 C   0  0  0  0  0  0  0  0  0  0  0  0
   59.0290   31.0350   50.5900 S   0  0  0  0  0  0  0  0  0  0  0  0
   58.1400   30.0070   49.9430 O   0  0  0  0  0  0  0  0  0  0  0  0
   60.3660   30.3880   50.8390 O   0  0  0  0  0  0  0  0  0  0  0  0
   58.3300   31.5240   52.1240 N   0  0  0  0  0  0  0  0  0  0  0  0
   58.4790   30.5010   53.1840 C   0  0  0  0  0  0  0  0  0  0  0  0
   57.1760   29.7210   53.4510 C   0  0  0  0  0  0  0  0  0  0  0  0
   56.4250   29.6090   52.2640 O   0  0  0  0  0  0  0  0  0  0  0  0
   55.9050   30.8770   51.9080 C   0  0  0  0  0  0  0  0  0  0  0  0
   56.9500   32.0190   51.9820 C   0  0  0  0  0  0  0  0  0  0  0  0
   58.4350   32.4620   48.3170 C   0  0  0  0  0  0  0  0  0  0  0  0
   57.5740   32.2910   44.1910 C   0  0  0  0  0  0  0  0  0  0  0  0
   57.5730   32.3060   42.7830 C   0  0  0  0  0  0  0  0  0  0  0  0
   57.0800   31.2120   42.0680 C   0  0  0  0  0  0  0  0  0  0  0  0
   56.5630   30.1020   42.7420 C   0  0  0  0  0  0  0  0  0  0  0  0
   56.5650   30.0650   44.1470 C   0  0  0  0  0  0  0  0  0  0  0  0
   56.0360   28.9510   44.8830 N   0  0  0  0  0  0  0  0  0  0  0  0
   56.9600   27.6150   45.4910 S   0  0  0  0  0  0  0  0  0  0  0  0
   57.5070   26.7820   44.3630 O   0  0  0  0  0  0  0  0  0  0  0  0
   56.0500   26.7580   46.3210 O   0  0  0  0  0  0  0  0  0  0  0  0
   58.2580   28.2080   46.5170 C   0  0  0  0  0  0  0  0  0  0  0  0
   58.7140   27.6070   47.6880 C   0  0  0  0  0  0  0  0  0  0  0  0
   59.8010   28.2810   48.2610 C   0  0  0  0  0  0  0  0  0  0  0  0
   60.1910   29.4020   47.5420 C   0  0  0  0  0  0  0  0  0  0  0  0
   61.5200   30.4700   47.9570 Cl  0  0  0  0  0  0  0  0  0  0  0  0
   59.1880   29.5740   46.2050 S   0  0  0  0  0  0  0  0  0  0  0  0
   57.0520   31.1670   44.8620 C   0  0  0  0  0  0  0  0  0  0  0  0
   59.5857   35.4212   47.0341 H   0  0  0  0  0  0  0  0  0  0  0  0
   61.0422   35.2619   49.0560 H   0  0  0  0  0  0  0  0  0  0  0  0
   60.8074   33.3361   50.6253 H   0  0  0  0  0  0  0  0  0  0  0  0
   59.2584   29.7881   52.8770 H   0  0  0  0  0  0  0  0  0  0  0  0
   58.7472   31.0247   54.1134 H   0  0  0  0  0  0  0  0  0  0  0  0
   57.4238   28.7150   53.8207 H   0  0  0  0  0  0  0  0  0  0  0  0
   56.5816   30.2610   54.2027 H   0  0  0  0  0  0  0  0  0  0  0  0
   55.5245   30.8200   50.8775 H   0  0  0  0  0  0  0  0  0  0  0  0
   55.1136   31.1164   52.6335 H   0  0  0  0  0  0  0  0  0  0  0  0
   56.8841   32.6155   51.0601 H   0  0  0  0  0  0  0  0  0  0  0  0
   56.7208   32.6192   52.8749 H   0  0  0  0  0  0  0  0  0  0  0  0
   57.7145   31.6604   48.0971 H   0  0  0  0  0  0  0  0  0  0  0  0
   57.9619   33.1825   42.2441 H   0  0  0  0  0  0  0  0  0  0  0  0
   57.0987   31.2241   40.9682 H   0  0  0  0  0  0  0  0  0  0  0  0
   56.1536   29.2553   42.1714 H   0  0  0  0  0  0  0  0  0  0  0  0
   58.2676   26.6983   48.1181 H   0  0  0  0  0  0  0  0  0  0  0  0
   60.2954   27.9542   49.1877 H   0  0  0  0  0  0  0  0  0  0  0  0
   57.0266   31.1548   45.9616 H   0  0  0  0  0  0  0  0  0  0  0  0
  1  2  2  0
  2  3  1  0
  3  4  1  0
  4  5  2  0
  5  6  1  0
  6  7  2  0
  7  8  1  0
  8  9  1  0
  9 10  2  0
  9 11  2  0
  9 12  1  0
 12 13  1  0
 13 14  1  0
 14 15  1  0
 15 16  1  0
 16 17  1  0
  8 18  2  0
  2 19  1  0
 19 20  2  0
 20 21  1  0
 21 22  2  0
 22 23  1  0
 23 24  1  0
 24 25  1  0
 25 26  2  0
 25 27  2  0
 25 28  1  0
 28 29  2  0
 29 30  1  0
 30 31  2  0
 31 32  1  0
 31 33  1  0
 23 34  2  0
 18  4  1  0
 34 19  1  0
 17 12  1  0
 33 28  1  0
  5 35  1  0
  6 36  1  0
  7 37  1  0
 13 38  1  0
 13 39  1  0
 14 40  1  0
 14 41  1  0
 16 42  1  0
 16 43  1  0
 17 44  1  0
 17 45  1  0
 18 46  1  0
 20 47  1  0
 21 48  1  0
 22 49  1  0
 29 50  1  0
 30 51  1  0
 34 52  1  0
M  CHG  2   3  -1  24  -1
M  END
>  <UniqueID>  (74) 
67

>  <SMILES>  (74) 
O=C([N-]c1cccc(S(=O)(=O)N2CCOCC2)c1)c1cccc([N-]S(=O)(=O)c2ccc(Cl)s2)c1

>  <Energy>  (74) 
102.16137827187605

>  <Genealogy>  (74) 
O=C([N-]c1cccc(S(=O)(=O)N2CCOCC2)c1)c1cccc([N-]S(=O)(=O)c2ccc(Cl)s2)c1 (protonated)
O=C([N-]c1cccc(S(=O)(=O)N2CCOCC2)c1)c1cccc([N-]S(=O)(=O)c2ccc(Cl)s2)c1 (3D coordinates assigned)
O=C([N-]c1cccc(S(=O)(=O)N2CCOCC2)c1)c1cccc([N-]S(=O)(=O)c2ccc(Cl)s2)c1 (nonaromatic ring conformer: 102.16137827187605 kcal/mol)

>  <smiles>  (74) 
O=C(Nc1cccc(S(=O)(=O)N2CCOCC2)c1)c1cccc(NS(=O)(=O)c2ccc(Cl)s2)c1

>  <score_type>  (74) 
oracle

>  <origin>  (74) 
adg

>  <m_score__min__energy>  (74) 
-13.710000000000001

>  <m_primary>  (74) 
energy

$$$$
74:0
     RDKit          3D

 62 65  0  0  0  0  0  0  0  0999 V2000
   64.9150   33.0820   50.4870 C   0  0  0  0  0  0  0  0  0  0  0  0
   64.6910   32.8470   49.1000 O   0  0  0  0  0  0  0  0  0  0  0  0
   63.5030   33.1630   48.4240 C   0  0  0  0  0  0  0  0  0  0  0  0
   63.4900   33.5980   47.0920 C   0  0  0  0  0  0  0  0  0  0  0  0
   62.2810   33.8930   46.4620 C   0  0  0  0  0  0  0  0  0  0  0  0
   61.0560   33.7650   47.1400 C   0  0  0  0  0  0  0  0  0  0  0  0
   59.5800   34.1790   46.2360 S   0  0  0  0  0  0  0  0  0  0  0  0
   59.9360   34.9430   44.9920 O   0  0  0  0  0  0  0  0  0  0  0  0
   58.7110   35.0640   47.0830 O   0  0  0  0  0  0  0  0  0  0  0  0
   58.7120   32.7370   45.7220 C   0  0  0  0  0  0  0  0  0  0  0  0
   57.3840   32.8460   45.2980 C   0  0  0  0  0  0  0  0  0  0  0  0
   56.6850   31.7140   44.8680 C   0  0  0  0  0  0  0  0  0  0  0  0
   57.3080   30.4530   44.8610 C   0  0  0  0  0  0  0  0  0  0  0  0
   56.5980   29.2670   44.3310 C   0  0  0  0  0  0  0  0  0  0  0  0
   56.5300   29.0710   43.0870 O   0  0  0  0  0  0  0  0  0  0  0  0
   55.9600   28.3550   45.2300 N   0  0  0  0  0  0  0  0  0  0  0  0
   56.7000   26.8770   45.7450 S   0  0  0  0  0  0  0  0  0  0  0  0
   55.7040   26.0970   46.5590 O   0  0  0  0  0  0  0  0  0  0  0  0
   57.1110   26.0870   44.5350 O   0  0  0  0  0  0  0  0  0  0  0  0
   58.1270   27.2250   46.7360 C   0  0  0  0  0  0  0  0  0  0  0  0
   58.1600   28.4100   47.4900 C   0  0  0  0  0  0  0  0  0  0  0  0
   59.2660   28.7180   48.2840 C   0  0  0  0  0  0  0  0  0  0  0  0
   60.3520   27.8470   48.3370 C   0  0  0  0  0  0  0  0  0  0  0  0
   60.3390   26.6660   47.5930 C   0  0  0  0  0  0  0  0  0  0  0  0
   59.2380   26.3450   46.7790 C   0  0  0  0  0  0  0  0  0  0  0  0
   59.2580   25.0520   46.0050 C   0  0  0  0  0  0  0  0  0  0  0  0
   58.6310   30.3430   45.3250 C   0  0  0  0  0  0  0  0  0  0  0  0
   59.3250   31.4770   45.7590 C   0  0  0  0  0  0  0  0  0  0  0  0
   61.0650   33.3320   48.4980 C   0  0  0  0  0  0  0  0  0  0  0  0
   59.6040   33.0790   49.4830 S   0  0  0  0  0  0  0  0  0  0  0  0
   59.5030   34.1910   50.4900 O   0  0  0  0  0  0  0  0  0  0  0  0
   58.3830   33.1370   48.6130 O   0  0  0  0  0  0  0  0  0  0  0  0
   59.6700   31.5430   50.3660 C   0  0  0  0  0  0  0  0  0  0  0  0
   60.9130   30.9090   50.5520 C   0  0  0  0  0  0  0  0  0  0  0  0
   60.9980   29.6950   51.2370 C   0  0  0  0  0  0  0  0  0  0  0  0
   59.8460   29.0990   51.7480 C   0  0  0  0  0  0  0  0  0  0  0  0
   58.6090   29.7240   51.5910 C   0  0  0  0  0  0  0  0  0  0  0  0
   58.5100   30.9510   50.9220 C   0  0  0  0  0  0  0  0  0  0  0  0
   57.2510   31.5500   50.8450 O   0  0  0  0  0  0  0  0  0  0  0  0
   62.2950   33.0340   49.1100 C   0  0  0  0  0  0  0  0  0  0  0  0
   64.2759   32.4116   51.0804 H   0  0  0  0  0  0  0  0  0  0  0  0
   65.9711   32.8883   50.7258 H   0  0  0  0  0  0  0  0  0  0  0  0
   64.6709   34.1276   50.7258 H   0  0  0  0  0  0  0  0  0  0  0  0
   64.4361   33.7072   46.5416 H   0  0  0  0  0  0  0  0  0  0  0  0
   62.2861   34.2320   45.4156 H   0  0  0  0  0  0  0  0  0  0  0  0
   56.8868   33.8272   45.3028 H   0  0  0  0  0  0  0  0  0  0  0  0
   55.6416   31.8102   44.5332 H   0  0  0  0  0  0  0  0  0  0  0  0
   57.3057   29.1020   47.4543 H   0  0  0  0  0  0  0  0  0  0  0  0
   59.2801   29.6497   48.8686 H   0  0  0  0  0  0  0  0  0  0  0  0
   61.2210   28.0903   48.9660 H   0  0  0  0  0  0  0  0  0  0  0  0
   61.1976   25.9803   47.6438 H   0  0  0  0  0  0  0  0  0  0  0  0
   59.2711   24.2049   46.7066 H   0  0  0  0  0  0  0  0  0  0  0  0
   58.3607   24.9898   45.3718 H   0  0  0  0  0  0  0  0  0  0  0  0
   60.1568   25.0176   45.3718 H   0  0  0  0  0  0  0  0  0  0  0  0
   59.1228   29.3593   45.3467 H   0  0  0  0  0  0  0  0  0  0  0  0
   60.3557   31.3798   46.1308 H   0  0  0  0  0  0  0  0  0  0  0  0
   61.8266   31.3745   50.1537 H   0  0  0  0  0  0  0  0  0  0  0  0
   61.9751   29.2085   51.3735 H   0  0  0  0  0  0  0  0  0  0  0  0
   59.9126   28.1358   52.2750 H   0  0  0  0  0  0  0  0  0  0  0  0
   57.7031   29.2493   51.9960 H   0  0  0  0  0  0  0  0  0  0  0  0
   57.0320   32.3110   50.2170 H   0  0  0  0  0  0  0  0  0  0  0  0
   62.3053   32.6908   50.1550 H   0  0  0  0  0  0  0  0  0  0  0  0
  1  2  1  0
  2  3  1  0
  3  4  2  0
  4  5  1  0
  5  6  2  0
  6  7  1  0
  7  8  2  0
  7  9  2  0
  7 10  1  0
 10 11  2  0
 11 12  1  0
 12 13  2  0
 13 14  1  0
 14 15  2  0
 14 16  1  0
 16 17  1  0
 17 18  2  0
 17 19  2  0
 17 20  1  0
 20 21  2  0
 21 22  1  0
 22 23  2  0
 23 24  1  0
 24 25  2  0
 25 26  1  0
 13 27  1  0
 27 28  2  0
  6 29  1  0
 29 30  1  0
 30 31  2  0
 30 32  2  0
 30 33  1  0
 33 34  2  0
 34 35  1  0
 35 36  2  0
 36 37  1  0
 37 38  2  0
 38 39  1  0
 29 40  2  0
 40  3  1  0
 28 10  1  0
 38 33  1  0
 25 20  1  0
  1 41  1  0
  1 42  1  0
  1 43  1  0
  4 44  1  0
  5 45  1  0
 11 46  1  0
 12 47  1  0
 21 48  1  0
 22 49  1  0
 23 50  1  0
 24 51  1  0
 26 52  1  0
 26 53  1  0
 26 54  1  0
 27 55  1  0
 28 56  1  0
 34 57  1  0
 35 58  1  0
 36 59  1  0
 37 60  1  0
 39 61  1  0
 40 62  1  0
M  CHG  1  16  -1
M  END
>  <UniqueID>  (75) 
68

>  <SMILES>  (75) 
COc1ccc(S(=O)(=O)c2ccc(C(=O)[N-]S(=O)(=O)c3ccccc3C)cc2)c(S(=O)(=O)c2ccccc2O)c1

>  <Energy>  (75) 
76.1745647309411

>  <Genealogy>  (75) 
COc1ccc(S(=O)(=O)c2ccc(C(=O)[N-]S(=O)(=O)c3ccccc3C)cc2)c(S(=O)(=O)c2ccccc2O)c1 (protonated)
COc1ccc(S(=O)(=O)c2ccc(C(=O)[N-]S(=O)(=O)c3ccccc3C)cc2)c(S(=O)(=O)c2ccccc2O)c1 (3D coordinates assigned)
COc1ccc(S(=O)(=O)c2ccc(C(=O)[N-]S(=O)(=O)c3ccccc3C)cc2)c(S(=O)(=O)c2ccccc2O)c1 (optimized conformer: 76.1745647309411 kcal/mol)

>  <smiles>  (75) 
COc1ccc(S(=O)(=O)c2ccc(C(=O)NS(=O)(=O)c3ccccc3C)cc2)c(S(=O)(=O)c2ccccc2O)c1

>  <score_type>  (75) 
oracle

>  <origin>  (75) 
adg

>  <m_score__min__energy>  (75) 
-12.77

>  <m_primary>  (75) 
energy

$$$$
75:0
     RDKit          3D

 62 63  0  0  0  0  0  0  0  0999 V2000
   63.9830   33.0750   48.6170 C   0  0  0  0  0  0  0  0  0  0  0  0
   63.6950   32.9550   47.1220 C   0  0  0  0  0  0  0  0  0  0  0  0
   62.2640   32.6440   46.8960 N   0  0  0  0  0  0  0  0  0  0  0  0
   61.4550   33.8800   46.7760 C   0  0  0  0  0  0  0  0  0  0  0  0
   60.7290   34.1620   48.0890 C   0  0  0  0  0  0  0  0  0  0  0  0
   61.7320   31.7500   47.9530 C   0  0  0  0  0  0  0  0  0  0  0  0
   61.0110   30.5450   47.3310 C   0  0  0  0  0  0  0  0  0  0  0  0
   59.9190   29.9930   48.2640 C   0  0  0  0  0  0  0  0  0  0  0  0
   59.7550   28.4640   48.1460 C   0  0  2  0  0  0  0  0  0  0  0  0
   60.4220   27.7260   49.3100 C   0  0  0  0  0  0  0  0  0  0  0  0
   60.3580   27.9980   46.9000 N   0  0  0  0  0  0  0  0  0  0  0  0
   59.6140   27.6440   45.7270 C   0  0  0  0  0  0  0  0  0  0  0  0
   59.8740   28.2030   44.6260 O   0  0  0  0  0  0  0  0  0  0  0  0
   58.5430   26.6200   45.8000 C   0  0  0  0  0  0  0  0  0  0  0  0
   58.8940   25.2610   45.7010 C   0  0  0  0  0  0  0  0  0  0  0  0
   57.9160   24.2660   45.7810 C   0  0  0  0  0  0  0  0  0  0  0  0
   56.5770   24.6160   45.9430 C   0  0  0  0  0  0  0  0  0  0  0  0
   56.2080   25.9600   46.0260 C   0  0  0  0  0  0  0  0  0  0  0  0
   57.1830   26.9750   45.9750 C   0  0  0  0  0  0  0  0  0  0  0  0
   56.8100   28.3630   45.9900 N   0  0  0  0  0  0  0  0  0  0  0  0
   56.3720   29.1680   44.8890 C   0  0  0  0  0  0  0  0  0  0  0  0
   55.1420   29.3280   44.6540 O   0  0  0  0  0  0  0  0  0  0  0  0
   57.4100   29.8380   44.0380 C   0  0  0  0  0  0  0  0  0  0  0  0
   57.7700   31.2230   44.5280 C   0  0  0  0  0  0  0  0  0  0  0  0
   57.9800   31.4090   45.9070 C   0  0  0  0  0  0  0  0  0  0  0  0
   58.2440   32.6800   46.4220 C   0  0  0  0  0  0  0  0  0  0  0  0
   58.3010   33.7840   45.5690 C   0  0  0  0  0  0  0  0  0  0  0  0
   58.1230   33.6140   44.1970 C   0  0  0  0  0  0  0  0  0  0  0  0
   57.8690   32.3390   43.6540 C   0  0  0  0  0  0  0  0  0  0  0  0
   57.7000   32.2060   42.2310 N   0  0  0  0  0  0  0  0  0  0  0  0
   58.5280   32.7210   41.4510 O   0  0  0  0  0  0  0  0  0  0  0  0
   56.7440   31.3620   41.7140 O   0  0  0  0  0  0  0  0  0  0  0  0
   63.1150   32.7133   49.1878 H   0  0  0  0  0  0  0  0  0  0  0  0
   64.8661   32.4700   48.8700 H   0  0  0  0  0  0  0  0  0  0  0  0
   64.1753   34.1281   48.8700 H   0  0  0  0  0  0  0  0  0  0  0  0
   63.9419   33.9062   46.6277 H   0  0  0  0  0  0  0  0  0  0  0  0
   64.3075   32.1424   46.7043 H   0  0  0  0  0  0  0  0  0  0  0  0
   62.1164   34.7259   46.5371 H   0  0  0  0  0  0  0  0  0  0  0  0
   60.7123   33.7476   45.9754 H   0  0  0  0  0  0  0  0  0  0  0  0
   61.3861   33.9068   48.9335 H   0  0  0  0  0  0  0  0  0  0  0  0
   60.4641   35.2284   48.1398 H   0  0  0  0  0  0  0  0  0  0  0  0
   59.8137   33.5540   48.1398 H   0  0  0  0  0  0  0  0  0  0  0  0
   62.5649   31.3909   48.5754 H   0  0  0  0  0  0  0  0  0  0  0  0
   61.0140   32.3145   48.5660 H   0  0  0  0  0  0  0  0  0  0  0  0
   60.5467   30.8571   46.3839 H   0  0  0  0  0  0  0  0  0  0  0  0
   61.7528   29.7504   47.1626 H   0  0  0  0  0  0  0  0  0  0  0  0
   60.1852   30.2396   49.3024 H   0  0  0  0  0  0  0  0  0  0  0  0
   58.9648   30.4540   47.9692 H   0  0  0  0  0  0  0  0  0  0  0  0
   58.6764   28.2490   48.1645 H   0  0  0  0  0  0  0  0  0  0  0  0
   60.0531   28.1342   50.2625 H   0  0  0  0  0  0  0  0  0  0  0  0
   60.1797   26.6546   49.2519 H   0  0  0  0  0  0  0  0  0  0  0  0
   61.5124   27.8590   49.2519 H   0  0  0  0  0  0  0  0  0  0  0  0
   59.9478   24.9792   45.5593 H   0  0  0  0  0  0  0  0  0  0  0  0
   58.2033   23.2062   45.7161 H   0  0  0  0  0  0  0  0  0  0  0  0
   55.8086   23.8313   46.0057 H   0  0  0  0  0  0  0  0  0  0  0  0
   55.1465   26.2284   46.1321 H   0  0  0  0  0  0  0  0  0  0  0  0
   58.3187   29.2181   44.0399 H   0  0  0  0  0  0  0  0  0  0  0  0
   56.9888   29.9450   43.0275 H   0  0  0  0  0  0  0  0  0  0  0  0
   57.9358   30.5447   46.5860 H   0  0  0  0  0  0  0  0  0  0  0  0
   58.4074   32.8117   47.5018 H   0  0  0  0  0  0  0  0  0  0  0  0
   58.4863   34.7875   45.9796 H   0  0  0  0  0  0  0  0  0  0  0  0
   58.1816   34.4865   43.5297 H   0  0  0  0  0  0  0  0  0  0  0  0
  1  2  1  0
  2  3  1  0
  3  4  1  0
  4  5  1  0
  3  6  1  0
  6  7  1  0
  7  8  1  0
  8  9  1  0
  9 10  1  0
  9 11  1  0
 11 12  1  0
 12 13  2  0
 12 14  1  0
 14 15  2  0
 15 16  1  0
 16 17  2  0
 17 18  1  0
 18 19  2  0
 19 20  1  0
 20 21  1  0
 21 22  2  0
 21 23  1  0
 23 24  1  0
 24 25  2  0
 25 26  1  0
 26 27  2  0
 27 28  1  0
 28 29  2  0
 29 30  1  0
 30 31  2  0
 30 32  1  0
 19 14  1  0
 29 24  1  0
  1 33  1  0
  1 34  1  0
  1 35  1  0
  2 36  1  0
  2 37  1  0
  4 38  1  0
  4 39  1  0
  5 40  1  0
  5 41  1  0
  5 42  1  0
  6 43  1  0
  6 44  1  0
  7 45  1  0
  7 46  1  0
  8 47  1  0
  8 48  1  0
  9 49  1  6
 10 50  1  0
 10 51  1  0
 10 52  1  0
 15 53  1  0
 16 54  1  0
 17 55  1  0
 18 56  1  0
 23 57  1  0
 23 58  1  0
 25 59  1  0
 26 60  1  0
 27 61  1  0
 28 62  1  0
M  CHG  4  11  -1  20  -1  30   1  32  -1
M  END
>  <UniqueID>  (76) 
69

>  <SMILES>  (76) 
CCN(CC)CCC[C@H](C)[N-]C(=O)c1ccccc1[N-]C(=O)Cc1ccccc1[N+](=O)[O-]

>  <Energy>  (76) 
63.07569132011319

>  <Genealogy>  (76) 
CCN(CC)CCCC(C)[N-]C(=O)c1ccccc1[N-]C(=O)Cc1ccccc1[N+](=O)[O-] (protonated)
CCN(CC)CCC[C@H](C)[N-]C(=O)c1ccccc1[N-]C(=O)Cc1ccccc1[N+](=O)[O-] (chirality)
CCN(CC)CCC[C@H](C)[N-]C(=O)c1ccccc1[N-]C(=O)Cc1ccccc1[N+](=O)[O-] (3D coordinates assigned)
CCN(CC)CCC[C@H](C)[N-]C(=O)c1ccccc1[N-]C(=O)Cc1ccccc1[N+](=O)[O-] (optimized conformer: 63.07569132011319 kcal/mol)

>  <smiles>  (76) 
CCN(CC)CCCC(C)NC(=O)c1ccccc1NC(=O)Cc1ccccc1[N+](=O)[O-]

>  <score_type>  (76) 
oracle

>  <origin>  (76) 
adg

>  <m_score__min__energy>  (76) 
-13.210000000000001

>  <m_primary>  (76) 
energy

$$$$
76:0
     RDKit          3D

 80 85  0  0  0  0  0  0  0  0999 V2000
   56.6410   34.9640   44.7980 C   0  0  0  0  0  0  0  0  0  0  0  0
   57.5970   33.9600   45.3470 C   0  0  0  0  0  0  0  0  0  0  0  0
   57.4980   32.5900   45.2080 C   0  0  0  0  0  0  0  0  0  0  0  0
   58.6270   32.1000   45.8310 C   0  0  0  0  0  0  0  0  0  0  0  0
   58.9240   30.6670   46.0250 C   0  0  0  0  0  0  0  0  0  0  0  0
   60.1160   30.2590   46.0200 O   0  0  0  0  0  0  0  0  0  0  0  0
   57.8500   29.7600   46.3020 N   0  0  0  0  0  0  0  0  0  0  0  0
   57.9150   28.3270   46.3140 C   0  0  0  0  0  0  0  0  0  0  0  0
   57.2220   27.5540   45.3670 C   0  0  0  0  0  0  0  0  0  0  0  0
   57.2830   26.1600   45.4080 C   0  0  0  0  0  0  0  0  0  0  0  0
   58.0230   25.5050   46.4020 C   0  0  0  0  0  0  0  0  0  0  0  0
   58.0420   24.0640   46.4240 N   0  0  0  0  0  0  0  0  0  0  0  0
   56.6880   23.0670   46.8580 S   0  0  0  0  0  0  0  0  0  0  0  0
   56.2930   21.9500   45.5280 C   0  0  0  0  0  0  0  0  0  0  0  0
   55.4990   23.9500   47.1130 O   0  0  0  0  0  0  0  0  0  0  0  0
   56.9960   22.3000   48.1150 O   0  0  0  0  0  0  0  0  0  0  0  0
   58.7010   26.2770   47.3600 C   0  0  0  0  0  0  0  0  0  0  0  0
   58.6450   27.6770   47.3270 C   0  0  0  0  0  0  0  0  0  0  0  0
   59.3380   28.4290   48.3390 N   0  0  0  0  0  0  0  0  0  0  0  0
   58.6630   29.5340   49.0290 C   0  0  0  0  0  0  0  0  0  0  0  0
   59.3400   29.8030   50.3750 C   0  0  0  0  0  0  0  0  0  0  0  0
   59.7300   28.5780   50.9580 O   0  0  0  0  0  0  0  0  0  0  0  0
   60.8500   28.0420   50.2700 C   0  0  0  0  0  0  0  0  0  0  0  0
   60.7000   28.0560   48.7310 C   0  0  0  0  0  0  0  0  0  0  0  0
   59.3610   33.1470   46.2840 N   0  0  0  0  0  0  0  0  0  0  0  0
   60.6470   33.1220   46.9260 C   0  0  0  0  0  0  0  0  0  0  0  0
   61.7350   33.8170   46.3800 C   0  0  0  0  0  0  0  0  0  0  0  0
   62.9760   33.7960   47.0200 C   0  0  0  0  0  0  0  0  0  0  0  0
   63.1490   33.0940   48.2170 C   0  0  0  0  0  0  0  0  0  0  0  0
   64.4280   33.0740   48.7920 O   0  0  0  0  0  0  0  0  0  0  0  0
   64.7180   33.4330   50.1160 C   0  0  0  0  0  0  0  0  0  0  0  0
   65.8790   32.9270   50.7110 C   0  0  0  0  0  0  0  0  0  0  0  0
   66.2140   33.2830   52.0210 C   0  0  0  0  0  0  0  0  0  0  0  0
   65.3860   34.1410   52.7480 C   0  0  0  0  0  0  0  0  0  0  0  0
   64.2090   34.6300   52.1710 C   0  0  0  0  0  0  0  0  0  0  0  0
   63.8680   34.2700   50.8640 C   0  0  0  0  0  0  0  0  0  0  0  0
   62.0350   32.4600   48.8200 C   0  0  0  0  0  0  0  0  0  0  0  0
   62.1250   31.8140   50.1510 C   0  0  0  0  0  0  0  0  0  0  0  0
   62.9910   30.7180   50.3100 C   0  0  0  0  0  0  0  0  0  0  0  0
   63.1490   30.1120   51.5560 C   0  0  0  0  0  0  0  0  0  0  0  0
   62.4380   30.5860   52.6580 C   0  0  0  0  0  0  0  0  0  0  0  0
   61.5520   31.6540   52.5130 C   0  0  0  0  0  0  0  0  0  0  0  0
   61.3650   32.2630   51.2610 C   0  0  0  0  0  0  0  0  0  0  0  0
   60.3770   33.3950   51.1470 C   0  0  0  0  0  0  0  0  0  0  0  0
   60.7970   32.4680   48.1560 C   0  0  0  0  0  0  0  0  0  0  0  0
   58.7370   34.2780   45.9910 N   0  0  0  0  0  0  0  0  0  0  0  0
   56.1426   35.4874   45.6272 H   0  0  0  0  0  0  0  0  0  0  0  0
   57.1880   35.6920   44.1809 H   0  0  0  0  0  0  0  0  0  0  0  0
   55.8871   34.4533   44.1809 H   0  0  0  0  0  0  0  0  0  0  0  0
   56.6994   32.0184   44.7125 H   0  0  0  0  0  0  0  0  0  0  0  0
   56.6267   28.0514   44.5871 H   0  0  0  0  0  0  0  0  0  0  0  0
   56.7446   25.5693   44.6522 H   0  0  0  0  0  0  0  0  0  0  0  0
   58.9290   23.5690   46.1800 H   0  0  0  0  0  0  0  0  0  0  0  0
   55.9535   20.9900   45.9441 H   0  0  0  0  0  0  0  0  0  0  0  0
   55.4940   22.3845   44.9093 H   0  0  0  0  0  0  0  0  0  0  0  0
   57.1875   21.7857   44.9093 H   0  0  0  0  0  0  0  0  0  0  0  0
   59.2838   25.7758   48.1468 H   0  0  0  0  0  0  0  0  0  0  0  0
   58.7174   30.4394   48.4066 H   0  0  0  0  0  0  0  0  0  0  0  0
   57.6112   29.2625   49.2021 H   0  0  0  0  0  0  0  0  0  0  0  0
   60.2274   30.4342   50.2196 H   0  0  0  0  0  0  0  0  0  0  0  0
   58.6354   30.3196   51.0434 H   0  0  0  0  0  0  0  0  0  0  0  0
   61.7377   28.6339   50.5377 H   0  0  0  0  0  0  0  0  0  0  0  0
   60.9400   26.9888   50.5744 H   0  0  0  0  0  0  0  0  0  0  0  0
   61.4081   28.7833   48.3072 H   0  0  0  0  0  0  0  0  0  0  0  0
   60.9101   27.0459   48.3494 H   0  0  0  0  0  0  0  0  0  0  0  0
   61.6108   34.3811   45.4438 H   0  0  0  0  0  0  0  0  0  0  0  0
   63.8258   34.3370   46.5782 H   0  0  0  0  0  0  0  0  0  0  0  0
   66.5315   32.2457   50.1453 H   0  0  0  0  0  0  0  0  0  0  0  0
   67.1317   32.8864   52.4799 H   0  0  0  0  0  0  0  0  0  0  0  0
   65.6589   34.4320   53.7731 H   0  0  0  0  0  0  0  0  0  0  0  0
   63.5514   35.2983   52.7463 H   0  0  0  0  0  0  0  0  0  0  0  0
   62.9333   34.6415   50.4188 H   0  0  0  0  0  0  0  0  0  0  0  0
   63.5494   30.3348   49.4432 H   0  0  0  0  0  0  0  0  0  0  0  0
   63.8349   29.2596   51.6696 H   0  0  0  0  0  0  0  0  0  0  0  0
   62.5759   30.1170   53.6434 H   0  0  0  0  0  0  0  0  0  0  0  0
   60.9949   32.0225   53.3870 H   0  0  0  0  0  0  0  0  0  0  0  0
   60.0850   33.7296   52.1534 H   0  0  0  0  0  0  0  0  0  0  0  0
   60.8390   34.2315   50.6022 H   0  0  0  0  0  0  0  0  0  0  0  0
   59.4857   33.0503   50.6022 H   0  0  0  0  0  0  0  0  0  0  0  0
   59.9351   31.9547   48.6072 H   0  0  0  0  0  0  0  0  0  0  0  0
  1  2  1  0
  2  3  1  0
  3  4  2  0
  4  5  1  0
  5  6  2  0
  5  7  1  0
  7  8  1  0
  8  9  2  0
  9 10  1  0
 10 11  2  0
 11 12  1  0
 12 13  1  0
 13 14  1  0
 13 15  2  0
 13 16  2  0
 11 17  1  0
 17 18  2  0
 18 19  1  0
 19 20  1  0
 20 21  1  0
 21 22  1  0
 22 23  1  0
 23 24  1  0
  4 25  1  0
 25 26  1  0
 26 27  2  0
 27 28  1  0
 28 29  2  0
 29 30  1  0
 30 31  1  0
 31 32  2  0
 32 33  1  0
 33 34  2  0
 34 35  1  0
 35 36  2  0
 29 37  1  0
 37 38  1  0
 38 39  2  0
 39 40  1  0
 40 41  2  0
 41 42  1  0
 42 43  2  0
 43 44  1  0
 37 45  2  0
 25 46  1  0
 46  2  2  0
 18  8  1  0
 24 19  1  0
 45 26  1  0
 36 31  1  0
 43 38  1  0
  1 47  1  0
  1 48  1  0
  1 49  1  0
  3 50  1  0
  9 51  1  0
 10 52  1  0
 12 53  1  0
 14 54  1  0
 14 55  1  0
 14 56  1  0
 17 57  1  0
 20 58  1  0
 20 59  1  0
 21 60  1  0
 21 61  1  0
 23 62  1  0
 23 63  1  0
 24 64  1  0
 24 65  1  0
 27 66  1  0
 28 67  1  0
 32 68  1  0
 33 69  1  0
 34 70  1  0
 35 71  1  0
 36 72  1  0
 39 73  1  0
 40 74  1  0
 41 75  1  0
 42 76  1  0
 44 77  1  0
 44 78  1  0
 44 79  1  0
 45 80  1  0
M  CHG  1   7  -1
M  END
>  <UniqueID>  (77) 
70

>  <SMILES>  (77) 
Cc1cc(C(=O)[N-]c2ccc(NS(C)(=O)=O)cc2N2CCOCC2)n(-c2ccc(Oc3ccccc3)c(-c3ccccc3C)c2)n1

>  <Energy>  (77) 
149.04401457519694

>  <Genealogy>  (77) 
Cc1cc(C(=O)[N-]c2ccc(NS(C)(=O)=O)cc2N2CCOCC2)n(-c2ccc(Oc3ccccc3)c(-c3ccccc3C)c2)n1 (protonated)
Cc1cc(C(=O)[N-]c2ccc(NS(C)(=O)=O)cc2N2CCOCC2)n(-c2ccc(Oc3ccccc3)c(-c3ccccc3C)c2)n1 (3D coordinates assigned)
Cc1cc(C(=O)[N-]c2ccc(NS(C)(=O)=O)cc2N2CCOCC2)n(-c2ccc(Oc3ccccc3)c(-c3ccccc3C)c2)n1 (nonaromatic ring conformer: 149.04401457519694 kcal/mol)

>  <smiles>  (77) 
Cc1cc(C(=O)Nc2ccc(NS(C)(=O)=O)cc2N2CCOCC2)n(-c2ccc(Oc3ccccc3)c(-c3ccccc3C)c2)n1

>  <score_type>  (77) 
oracle

>  <origin>  (77) 
adg

>  <m_score__min__energy>  (77) 
-12.09

>  <m_primary>  (77) 
energy

$$$$
77:0
     RDKit          3D

 68 73  0  0  0  0  0  0  0  0999 V2000
   61.1550   33.2540   52.2310 H   0  0  0  0  0  0  0  0  0  0  0  0
   60.2590   33.2670   51.6940 N   0  0  0  0  0  0  0  0  0  0  0  0
   59.9430   32.3120   50.8790 C   0  0  0  0  0  0  0  0  0  0  0  0
   60.0250   31.0210   51.2800 N   0  0  0  0  0  0  0  0  0  0  0  0
   59.6970   30.0260   50.4620 N   0  0  0  0  0  0  0  0  0  0  0  0
   59.2740   30.2500   49.1910 C   0  0  0  0  0  0  0  0  0  0  0  0
   58.9450   29.1870   48.4260 N   0  0  0  0  0  0  0  0  0  0  0  0
   58.5090   29.3070   47.1520 C   0  0  0  0  0  0  0  0  0  0  0  0
   58.2130   28.0640   46.4040 C   0  0  0  0  0  0  0  0  0  0  0  0
   57.3860   27.0890   46.9730 C   0  0  0  0  0  0  0  0  0  0  0  0
   56.9557   27.2542   47.9718 H   0  0  0  0  0  0  0  0  0  0  0  0
   57.1020   25.9070   46.2830 C   0  0  0  0  0  0  0  0  0  0  0  0
   56.4416   25.1557   46.7407 H   0  0  0  0  0  0  0  0  0  0  0  0
   57.6530   25.6660   45.0050 C   0  0  0  0  0  0  0  0  0  0  0  0
   57.3610   24.3720   44.2240 C   0  0  0  0  0  0  0  0  0  0  0  0
   57.1680   24.5530   42.7810 N   0  0  0  0  0  0  0  0  0  0  0  0
   56.5920   23.7640   42.4050 H   0  0  0  0  0  0  0  0  0  0  0  0
   56.6660   25.4540   42.6070 H   0  0  0  0  0  0  0  0  0  0  0  0
   58.3520   23.2340   44.5000 C   0  0  0  0  0  0  0  0  0  0  0  0
   58.8010   22.8002   43.5943 H   0  0  0  0  0  0  0  0  0  0  0  0
   59.2706   23.4233   45.0748 H   0  0  0  0  0  0  0  0  0  0  0  0
   57.2270   22.3980   45.0980 C   0  0  0  0  0  0  0  0  0  0  0  0
   57.0185   21.4689   44.5473 H   0  0  0  0  0  0  0  0  0  0  0  0
   57.3249   21.9831   46.1121 H   0  0  0  0  0  0  0  0  0  0  0  0
   56.2320   23.5200   44.8210 C   0  0  0  0  0  0  0  0  0  0  0  0
   55.4426   23.2533   44.1029 H   0  0  0  0  0  0  0  0  0  0  0  0
   55.6017   23.9180   45.6299 H   0  0  0  0  0  0  0  0  0  0  0  0
   58.5030   26.6490   44.4530 C   0  0  0  0  0  0  0  0  0  0  0  0
   58.9504   26.4837   43.4618 H   0  0  0  0  0  0  0  0  0  0  0  0
   58.7840   27.8270   45.1460 C   0  0  0  0  0  0  0  0  0  0  0  0
   59.4580   28.5745   44.7022 H   0  0  0  0  0  0  0  0  0  0  0  0
   58.3730   30.5910   46.5800 C   0  0  0  0  0  0  0  0  0  0  0  0
   57.8210   30.7310   45.2030 C   0  0  0  0  0  0  0  0  0  0  0  0
   58.5030   31.4890   44.2360 C   0  0  0  0  0  0  0  0  0  0  0  0
   59.4436   31.9950   44.4992 H   0  0  0  0  0  0  0  0  0  0  0  0
   57.9900   31.6020   42.9410 C   0  0  0  0  0  0  0  0  0  0  0  0
   58.5279   32.1952   42.1868 H   0  0  0  0  0  0  0  0  0  0  0  0
   56.7940   30.9620   42.6030 C   0  0  0  0  0  0  0  0  0  0  0  0
   56.3915   31.0524   41.5833 H   0  0  0  0  0  0  0  0  0  0  0  0
   56.1090   30.2070   43.5600 C   0  0  0  0  0  0  0  0  0  0  0  0
   55.1684   29.7032   43.2925 H   0  0  0  0  0  0  0  0  0  0  0  0
   56.6190   30.0920   44.8570 C   0  0  0  0  0  0  0  0  0  0  0  0
   56.0771   29.4992   45.6086 H   0  0  0  0  0  0  0  0  0  0  0  0
   58.7290   31.7470   47.3270 C   0  0  0  0  0  0  0  0  0  0  0  0
   58.6110   32.8870   46.6830 N   0  0  0  0  0  0  0  0  0  0  0  0
   59.3480   34.1360   46.4490 C   0  0  2  0  0  0  0  0  0  0  0  0
   58.8847   34.6595   45.5997 H   0  0  0  0  0  0  0  0  0  0  0  0
   60.7990   33.8700   45.9710 C   0  0  0  0  0  0  0  0  0  0  0  0
   60.7746   33.1272   45.1601 H   0  0  0  0  0  0  0  0  0  0  0  0
   61.2219   34.8249   45.6255 H   0  0  0  0  0  0  0  0  0  0  0  0
   61.6760   33.3490   47.0810 C   0  0  0  0  0  0  0  0  0  0  0  0
   62.1100   34.2070   48.1060 C   0  0  0  0  0  0  0  0  0  0  0  0
   61.8187   35.2676   48.0921 H   0  0  0  0  0  0  0  0  0  0  0  0
   62.9100   33.7190   49.1430 C   0  0  0  0  0  0  0  0  0  0  0  0
   63.2466   34.3958   49.9421 H   0  0  0  0  0  0  0  0  0  0  0  0
   63.2830   32.3720   49.1660 C   0  0  0  0  0  0  0  0  0  0  0  0
   63.9116   31.9890   49.9835 H   0  0  0  0  0  0  0  0  0  0  0  0
   62.8570   31.5120   48.1500 C   0  0  0  0  0  0  0  0  0  0  0  0
   63.1527   30.4526   48.1679 H   0  0  0  0  0  0  0  0  0  0  0  0
   62.0560   31.9950   47.1110 C   0  0  0  0  0  0  0  0  0  0  0  0
   61.7218   31.3140   46.3144 H   0  0  0  0  0  0  0  0  0  0  0  0
   59.1940   35.0950   47.5620 N   0  0  0  0  0  0  0  0  0  0  0  0
   59.8640   34.9090   48.3420 H   0  0  0  0  0  0  0  0  0  0  0  0
   59.3890   36.0640   47.2190 H   0  0  0  0  0  0  0  0  0  0  0  0
   58.2170   35.0960   47.9340 H   0  0  0  0  0  0  0  0  0  0  0  0
   59.1790   31.5720   48.6830 C   0  0  0  0  0  0  0  0  0  0  0  0
   59.5120   32.6050   49.5840 C   0  0  0  0  0  0  0  0  0  0  0  0
   59.4311   33.6538   49.2624 H   0  0  0  0  0  0  0  0  0  0  0  0
  1  2  1  0
  2  3  2  0
  3  4  1  0
  4  5  1  0
  5  6  2  0
  6  7  1  0
  7  8  1  0
  8  9  1  0
  9 10  2  0
 10 11  1  0
 10 12  1  0
 12 13  1  0
 12 14  2  0
 14 15  1  0
 15 16  1  0
 16 17  1  0
 16 18  1  0
 15 19  1  0
 19 20  1  0
 19 21  1  0
 19 22  1  0
 22 23  1  0
 22 24  1  0
 22 25  1  0
 25 26  1  0
 25 27  1  0
 14 28  1  0
 28 29  1  0
 28 30  2  0
 30 31  1  0
  8 32  2  0
 32 33  1  0
 33 34  2  0
 34 35  1  0
 34 36  1  0
 36 37  1  0
 36 38  2  0
 38 39  1  0
 38 40  1  0
 40 41  1  0
 40 42  2  0
 42 43  1  0
 32 44  1  0
 44 45  2  0
 45 46  1  0
 46 47  1  6
 46 48  1  0
 48 49  1  0
 48 50  1  0
 48 51  1  0
 51 52  2  0
 52 53  1  0
 52 54  1  0
 54 55  1  0
 54 56  2  0
 56 57  1  0
 56 58  1  0
 58 59  1  0
 58 60  2  0
 60 61  1  0
 46 62  1  0
 62 63  1  0
 62 64  1  0
 62 65  1  0
 44 66  1  0
 66 67  2  0
 67 68  1  0
 67  3  1  0
 66  6  1  0
 30  9  1  0
 42 33  1  0
 60 51  1  0
 25 15  1  0
M  CHG  3   4  -1   7  -1  62   1
M  END
>  <UniqueID>  (78) 
71

>  <SMILES>  (78) 
[H]/N=c1/cc2/c(=N\[C@@H]([NH3+])Cc3ccccc3)c(-c3ccccc3)c(-c3ccc(C4(N)CCC4)cc3)[n-]c2n[n-]1

>  <Energy>  (78) 
185.20516385279552

>  <Genealogy>  (78) 
N=c1cc2c(=NC([NH3+])Cc3ccccc3)c(-c3ccccc3)c(-c3ccc(C4(N)CCC4)cc3)[n-]c2n[n-]1 (protonated)
N=c1cc2c(=N[C@@H]([NH3+])Cc3ccccc3)c(-c3ccccc3)c(-c3ccc(C4(N)CCC4)cc3)[n-]c2n[n-]1 (chirality)
[H]/N=c1/cc2/c(=N\[C@@H]([NH3+])Cc3ccccc3)c(-c3ccccc3)c(-c3ccc(C4(N)CCC4)cc3)[n-]c2n[n-]1 (cis-trans isomerization)
[H]/N=c1/cc2/c(=N\[C@@H]([NH3+])Cc3ccccc3)c(-c3ccccc3)c(-c3ccc(C4(N)CCC4)cc3)[n-]c2n[n-]1 (3D coordinates assigned)
[H]/N=c1/cc2/c(=N\[C@@H]([NH3+])Cc3ccccc3)c(-c3ccccc3)c(-c3ccc(C4(N)CCC4)cc3)[n-]c2n[n-]1 (nonaromatic ring conformer: 185.20516385279552 kcal/mol)

>  <smiles>  (78) 
N=c1cc2c(=NC(N)Cc3ccccc3)c(-c3ccccc3)c(-c3ccc(C4(N)CCC4)cc3)[nH]c2n[nH]1

>  <score_type>  (78) 
oracle

>  <origin>  (78) 
adg

>  <m_score__min__energy>  (78) 
-9.6300000000000008

>  <m_primary>  (78) 
energy

$$$$
78:0
     RDKit          3D

 37 38  0  0  0  0  0  0  0  0999 V2000
   55.1490   26.5880   45.9950 N   0  0  0  0  0  0  0  0  0  0  0  0
   56.8510   26.8930   45.9940 S   0  0  0  0  0  0  0  0  0  0  0  0
   57.5270   25.8860   45.1050 O   0  0  0  0  0  0  0  0  0  0  0  0
   57.3920   26.7520   47.3890 O   0  0  0  0  0  0  0  0  0  0  0  0
   57.1600   28.5270   45.4100 C   0  0  0  0  0  0  0  0  0  0  0  0
   56.1720   29.2390   44.7160 C   0  0  0  0  0  0  0  0  0  0  0  0
   56.4280   30.5370   44.2650 C   0  0  0  0  0  0  0  0  0  0  0  0
   57.6760   31.1360   44.4980 C   0  0  0  0  0  0  0  0  0  0  0  0
   57.9270   32.5600   44.0700 C   0  0  0  0  0  0  0  0  0  0  0  0
   57.2440   33.5420   45.0220 C   0  0  0  0  0  0  0  0  0  0  0  0
   57.9160   33.5210   46.3270 N   0  0  0  0  0  0  0  0  0  0  0  0
   59.3940   34.4310   46.2620 S   0  0  0  0  0  0  0  0  0  0  0  0
   59.2750   35.6500   47.1360 O   0  0  0  0  0  0  0  0  0  0  0  0
   59.6550   34.8670   44.8480 O   0  0  0  0  0  0  0  0  0  0  0  0
   60.7200   33.4060   46.8040 C   0  0  0  0  0  0  0  0  0  0  0  0
   62.0380   33.8760   46.7150 C   0  0  0  0  0  0  0  0  0  0  0  0
   63.1030   33.0600   47.1090 C   0  0  0  0  0  0  0  0  0  0  0  0
   62.8570   31.7720   47.5920 C   0  0  0  0  0  0  0  0  0  0  0  0
   61.5450   31.2980   47.6840 C   0  0  0  0  0  0  0  0  0  0  0  0
   60.4770   32.1120   47.2910 C   0  0  0  0  0  0  0  0  0  0  0  0
   58.6590   30.4220   45.2030 C   0  0  0  0  0  0  0  0  0  0  0  0
   58.4030   29.1240   45.6510 C   0  0  0  0  0  0  0  0  0  0  0  0
   54.7500   27.0740   46.8300 H   0  0  0  0  0  0  0  0  0  0  0  0
   55.1929   28.7752   44.5258 H   0  0  0  0  0  0  0  0  0  0  0  0
   55.6472   31.0922   43.7245 H   0  0  0  0  0  0  0  0  0  0  0  0
   59.0103   32.7512   44.0710 H   0  0  0  0  0  0  0  0  0  0  0  0
   57.5137   32.7026   43.0606 H   0  0  0  0  0  0  0  0  0  0  0  0
   57.2979   34.5565   44.6001 H   0  0  0  0  0  0  0  0  0  0  0  0
   56.1917   33.2489   45.1514 H   0  0  0  0  0  0  0  0  0  0  0  0
   58.1640   32.5310   46.5590 H   0  0  0  0  0  0  0  0  0  0  0  0
   62.2347   34.8891   46.3343 H   0  0  0  0  0  0  0  0  0  0  0  0
   64.1356   33.4324   47.0387 H   0  0  0  0  0  0  0  0  0  0  0  0
   63.6960   31.1308   47.9000 H   0  0  0  0  0  0  0  0  0  0  0  0
   61.3522   30.2845   48.0656 H   0  0  0  0  0  0  0  0  0  0  0  0
   59.4453   31.7374   47.3638 H   0  0  0  0  0  0  0  0  0  0  0  0
   59.6354   30.8874   45.4033 H   0  0  0  0  0  0  0  0  0  0  0  0
   59.1811   28.5688   46.1953 H   0  0  0  0  0  0  0  0  0  0  0  0
  1  2  1  0
  2  3  2  0
  2  4  2  0
  2  5  1  0
  5  6  2  0
  6  7  1  0
  7  8  2  0
  8  9  1  0
  9 10  1  0
 10 11  1  0
 11 12  1  0
 12 13  2  0
 12 14  2  0
 12 15  1  0
 15 16  2  0
 16 17  1  0
 17 18  2  0
 18 19  1  0
 19 20  2  0
  8 21  1  0
 21 22  2  0
 22  5  1  0
 20 15  1  0
  1 23  1  0
  6 24  1  0
  7 25  1  0
  9 26  1  0
  9 27  1  0
 10 28  1  0
 10 29  1  0
 11 30  1  0
 16 31  1  0
 17 32  1  0
 18 33  1  0
 19 34  1  0
 20 35  1  0
 21 36  1  0
 22 37  1  0
M  CHG  1   1  -1
M  END
>  <UniqueID>  (79) 
72

>  <SMILES>  (79) 
[NH-]S(=O)(=O)c1ccc(CCNS(=O)(=O)c2ccccc2)cc1

>  <Energy>  (79) 
29.208797626061955

>  <Genealogy>  (79) 
[NH-]S(=O)(=O)c1ccc(CCNS(=O)(=O)c2ccccc2)cc1 (protonated)
[NH-]S(=O)(=O)c1ccc(CCNS(=O)(=O)c2ccccc2)cc1 (3D coordinates assigned)
[NH-]S(=O)(=O)c1ccc(CCNS(=O)(=O)c2ccccc2)cc1 (optimized conformer: 29.208797626061955 kcal/mol)

>  <smiles>  (79) 
NS(=O)(=O)c1ccc(CCNS(=O)(=O)c2ccccc2)cc1

>  <score_type>  (79) 
oracle

>  <origin>  (79) 
adg

>  <m_score__min__energy>  (79) 
-11.26

>  <m_primary>  (79) 
energy

$$$$
79:0
     RDKit          3D

 31 32  0  0  0  0  0  0  0  0999 V2000
   56.9440   22.2730   45.1860 C   0  0  0  0  0  0  0  0  0  0  0  0
   56.1340   23.5330   45.3620 C   0  0  0  0  0  0  0  0  0  0  0  0
   56.7760   24.7880   45.4970 C   0  0  0  0  0  0  0  0  0  0  0  0
   58.1700   24.8900   45.4680 O   0  0  0  0  0  0  0  0  0  0  0  0
   55.9900   25.9510   45.6610 C   0  0  0  0  0  0  0  0  0  0  0  0
   56.5740   27.3040   45.8090 C   0  0  0  0  0  0  0  0  0  0  0  0
   57.6540   27.4410   46.4460 O   0  0  0  0  0  0  0  0  0  0  0  0
   55.9370   28.4540   45.2450 N   0  0  0  0  0  0  0  0  0  0  0  0
   56.6100   29.3340   43.9150 S   0  0  0  0  0  0  0  0  0  0  0  0
   55.5090   29.7170   42.9680 O   0  0  0  0  0  0  0  0  0  0  0  0
   57.5940   28.4540   43.1970 O   0  0  0  0  0  0  0  0  0  0  0  0
   57.4000   30.7940   44.5000 C   0  0  0  0  0  0  0  0  0  0  0  0
   57.4050   31.9600   43.7210 C   0  0  0  0  0  0  0  0  0  0  0  0
   58.0340   33.1170   44.1910 C   0  0  0  0  0  0  0  0  0  0  0  0
   58.6580   33.1170   45.4440 C   0  0  0  0  0  0  0  0  0  0  0  0
   59.5160   34.6970   46.0850 Br  0  0  0  0  0  0  0  0  0  0  0  0
   58.6500   31.9580   46.2260 C   0  0  0  0  0  0  0  0  0  0  0  0
   58.0210   30.8000   45.7580 C   0  0  0  0  0  0  0  0  0  0  0  0
   54.6330   25.8400   45.6820 N   0  0  0  0  0  0  0  0  0  0  0  0
   53.9940   24.6510   45.5540 C   0  0  0  0  0  0  0  0  0  0  0  0
   52.7350   24.6160   45.5820 O   0  0  0  0  0  0  0  0  0  0  0  0
   54.7270   23.4750   45.3910 C   0  0  0  0  0  0  0  0  0  0  0  0
   54.0560   22.2620   45.2610 O   0  0  0  0  0  0  0  0  0  0  0  0
   57.2064   21.8649   46.1732 H   0  0  0  0  0  0  0  0  0  0  0  0
   56.3527   21.5319   44.6282 H   0  0  0  0  0  0  0  0  0  0  0  0
   57.8637   22.5033   44.6282 H   0  0  0  0  0  0  0  0  0  0  0  0
   58.6700   25.7640   45.5680 H   0  0  0  0  0  0  0  0  0  0  0  0
   56.9127   31.9645   42.7373 H   0  0  0  0  0  0  0  0  0  0  0  0
   58.0385   34.0285   43.5752 H   0  0  0  0  0  0  0  0  0  0  0  0
   59.1394   31.9570   47.2112 H   0  0  0  0  0  0  0  0  0  0  0  0
   58.0131   29.8914   46.3779 H   0  0  0  0  0  0  0  0  0  0  0  0
  1  2  1  0
  2  3  1  0
  3  4  1  0
  3  5  2  0
  5  6  1  0
  6  7  2  0
  6  8  1  0
  8  9  1  0
  9 10  2  0
  9 11  2  0
  9 12  1  0
 12 13  2  0
 13 14  1  0
 14 15  2  0
 15 16  1  0
 15 17  1  0
 17 18  2  0
  5 19  1  0
 19 20  1  0
 20 21  2  0
 20 22  1  0
 22 23  1  0
 22  2  2  0
 18 12  1  0
  1 24  1  0
  1 25  1  0
  1 26  1  0
  4 27  1  0
 13 28  1  0
 14 29  1  0
 17 30  1  0
 18 31  1  0
M  CHG  3   8  -1  19  -1  23  -1
M  END
>  <UniqueID>  (80) 
73

>  <SMILES>  (80) 
Cc1c(O)c(C(=O)[N-]S(=O)(=O)c2ccc(Br)cc2)[n-]c(=O)c1[O-]

>  <Energy>  (80) 
38.204365308053255

>  <Genealogy>  (80) 
Cc1c(O)c(C(=O)[N-]S(=O)(=O)c2ccc(Br)cc2)[n-]c(=O)c1[O-] (protonated)
Cc1c(O)c(C(=O)[N-]S(=O)(=O)c2ccc(Br)cc2)[n-]c(=O)c1[O-] (3D coordinates assigned)
Cc1c(O)c(C(=O)[N-]S(=O)(=O)c2ccc(Br)cc2)[n-]c(=O)c1[O-] (optimized conformer: 38.204365308053255 kcal/mol)

>  <smiles>  (80) 
Cc1c(O)c(C(=O)NS(=O)(=O)c2ccc(Br)cc2)[nH]c(=O)c1O

>  <score_type>  (80) 
oracle

>  <origin>  (80) 
adg

>  <m_score__min__energy>  (80) 
-13.539999999999999

>  <m_primary>  (80) 
energy

$$$$
80:0
     RDKit          3D

 32 33  0  0  0  0  0  0  0  0999 V2000
   55.1400   26.6980   46.0060 N   0  0  0  0  0  0  0  0  0  0  0  0
   56.2550   25.9180   46.4350 C   0  0  0  0  0  0  0  0  0  0  0  0
   56.0470   24.7900   46.9570 O   0  0  0  0  0  0  0  0  0  0  0  0
   57.6390   26.4210   46.2390 C   0  0  0  0  0  0  0  0  0  0  0  0
   58.7130   25.6900   46.7830 C   0  0  0  0  0  0  0  0  0  0  0  0
   60.0250   26.1510   46.6620 C   0  0  0  0  0  0  0  0  0  0  0  0
   60.2880   27.3440   45.9910 C   0  0  0  0  0  0  0  0  0  0  0  0
   59.2400   28.0770   45.4340 C   0  0  0  0  0  0  0  0  0  0  0  0
   57.9110   27.6330   45.5530 C   0  0  0  0  0  0  0  0  0  0  0  0
   56.8650   28.3630   44.8910 N   0  0  0  0  0  0  0  0  0  0  0  0
   57.0330   29.6820   44.3400 C   0  0  0  0  0  0  0  0  0  0  0  0
   56.8290   29.9350   42.9710 C   0  0  0  0  0  0  0  0  0  0  0  0
   57.0230   31.2190   42.4560 C   0  0  0  0  0  0  0  0  0  0  0  0
   57.4290   32.2590   43.2940 C   0  0  0  0  0  0  0  0  0  0  0  0
   57.6450   32.0190   44.6580 C   0  0  0  0  0  0  0  0  0  0  0  0
   58.1820   33.3220   45.7120 S   0  0  0  0  0  0  0  0  0  0  0  0
   57.3320   33.2400   47.2150 N   0  0  0  0  0  0  0  0  0  0  0  0
   57.9170   34.6480   45.0580 O   0  0  0  0  0  0  0  0  0  0  0  0
   59.6600   33.1980   45.9650 O   0  0  0  0  0  0  0  0  0  0  0  0
   57.4580   30.7280   45.1730 C   0  0  0  0  0  0  0  0  0  0  0  0
   54.4790   27.1170   46.6980 H   0  0  0  0  0  0  0  0  0  0  0  0
   58.5155   24.7446   47.3095 H   0  0  0  0  0  0  0  0  0  0  0  0
   60.8528   25.5717   47.0970 H   0  0  0  0  0  0  0  0  0  0  0  0
   61.3222   27.7076   45.9007 H   0  0  0  0  0  0  0  0  0  0  0  0
   59.4554   29.0120   44.8961 H   0  0  0  0  0  0  0  0  0  0  0  0
   55.9450   27.8830   44.7580 H   0  0  0  0  0  0  0  0  0  0  0  0
   56.5156   29.1186   42.3037 H   0  0  0  0  0  0  0  0  0  0  0  0
   56.8552   31.4113   41.3860 H   0  0  0  0  0  0  0  0  0  0  0  0
   57.5796   33.2683   42.8833 H   0  0  0  0  0  0  0  0  0  0  0  0
   57.9690   33.6260   47.9470 H   0  0  0  0  0  0  0  0  0  0  0  0
   56.5220   33.8960   47.1430 H   0  0  0  0  0  0  0  0  0  0  0  0
   57.6462   30.5338   46.2392 H   0  0  0  0  0  0  0  0  0  0  0  0
  1  2  1  0
  2  3  2  0
  2  4  1  0
  4  5  2  0
  5  6  1  0
  6  7  2  0
  7  8  1  0
  8  9  2  0
  9 10  1  0
 10 11  1  0
 11 12  2  0
 12 13  1  0
 13 14  2  0
 14 15  1  0
 15 16  1  0
 16 17  1  0
 16 18  2  0
 16 19  2  0
 15 20  2  0
  9  4  1  0
 20 11  1  0
  1 21  1  0
  5 22  1  0
  6 23  1  0
  7 24  1  0
  8 25  1  0
 10 26  1  0
 12 27  1  0
 13 28  1  0
 14 29  1  0
 17 30  1  0
 17 31  1  0
 20 32  1  0
M  CHG  1   1  -1
M  END
>  <UniqueID>  (81) 
74

>  <SMILES>  (81) 
[NH-]C(=O)c1ccccc1Nc1cccc(S(N)(=O)=O)c1

>  <Energy>  (81) 
40.13017219393848

>  <Genealogy>  (81) 
[NH-]C(=O)c1ccccc1Nc1cccc(S(N)(=O)=O)c1 (protonated)
[NH-]C(=O)c1ccccc1Nc1cccc(S(N)(=O)=O)c1 (3D coordinates assigned)
[NH-]C(=O)c1ccccc1Nc1cccc(S(N)(=O)=O)c1 (optimized conformer: 40.13017219393848 kcal/mol)

>  <smiles>  (81) 
NC(=O)c1ccccc1Nc1cccc(S(N)(=O)=O)c1

>  <score_type>  (81) 
oracle

>  <origin>  (81) 
adg

>  <m_score__min__energy>  (81) 
-11.109999999999999

>  <m_primary>  (81) 
energy

$$$$
81:0
     RDKit          3D

 41 42  0  0  0  0  0  0  0  0999 V2000
   55.6590   29.5120   44.9220 N   0  0  0  0  0  0  0  0  0  0  0  0
   56.7000   29.6050   43.5440 S   0  0  0  0  0  0  0  0  0  0  0  0
   55.8700   29.5760   42.2930 O   0  0  0  0  0  0  0  0  0  0  0  0
   57.6360   28.4300   43.5460 O   0  0  0  0  0  0  0  0  0  0  0  0
   57.6360   31.1240   43.5960 C   0  0  0  0  0  0  0  0  0  0  0  0
   57.1170   32.0430   44.7020 C   0  0  0  0  0  0  0  0  0  0  0  0
   58.1360   33.0180   45.0730 N   0  0  0  0  0  0  0  0  0  0  0  0
   58.3720   33.5190   46.3970 C   0  0  0  0  0  0  0  0  0  0  0  0
   58.7510   34.7110   46.5310 O   0  0  0  0  0  0  0  0  0  0  0  0
   58.2420   32.6540   47.6230 C   0  0  0  0  0  0  0  0  0  0  0  0
   58.8790   31.3060   47.4050 C   0  0  0  0  0  0  0  0  0  0  0  0
   60.2340   31.0980   47.7150 C   0  0  0  0  0  0  0  0  0  0  0  0
   60.8260   29.8550   47.4880 C   0  0  0  0  0  0  0  0  0  0  0  0
   60.0750   28.8060   46.9530 C   0  0  0  0  0  0  0  0  0  0  0  0
   58.7180   28.9890   46.6490 C   0  0  0  0  0  0  0  0  0  0  0  0
   57.9740   27.9020   46.0730 N   0  0  0  0  0  0  0  0  0  0  0  0
   58.1400   26.5240   46.4600 C   0  0  0  0  0  0  0  0  0  0  0  0
   59.0520   26.2050   47.2720 O   0  0  0  0  0  0  0  0  0  0  0  0
   57.2630   25.4590   45.9170 C   0  0  0  0  0  0  0  0  0  0  0  0
   55.8620   25.5440   46.0000 C   0  0  0  0  0  0  0  0  0  0  0  0
   55.0740   24.5190   45.4700 C   0  0  0  0  0  0  0  0  0  0  0  0
   55.6560   23.4490   44.8700 N   0  0  0  0  0  0  0  0  0  0  0  0
   57.0070   23.3410   44.7640 C   0  0  0  0  0  0  0  0  0  0  0  0
   57.7050   21.9390   43.9790 Cl  0  0  0  0  0  0  0  0  0  0  0  0
   57.8330   24.3440   45.2800 C   0  0  0  0  0  0  0  0  0  0  0  0
   58.1320   30.2510   46.8540 C   0  0  0  0  0  0  0  0  0  0  0  0
   55.1500   28.6010   44.8590 H   0  0  0  0  0  0  0  0  0  0  0  0
   58.6935   30.8898   43.7882 H   0  0  0  0  0  0  0  0  0  0  0  0
   57.5277   31.6385   42.6298 H   0  0  0  0  0  0  0  0  0  0  0  0
   56.2223   32.5727   44.3430 H   0  0  0  0  0  0  0  0  0  0  0  0
   56.8677   31.4344   45.5838 H   0  0  0  0  0  0  0  0  0  0  0  0
   58.7373   33.1529   48.4690 H   0  0  0  0  0  0  0  0  0  0  0  0
   57.1728   32.5054   47.8343 H   0  0  0  0  0  0  0  0  0  0  0  0
   60.8308   31.9192   48.1387 H   0  0  0  0  0  0  0  0  0  0  0  0
   61.8876   29.7008   47.7312 H   0  0  0  0  0  0  0  0  0  0  0  0
   60.5502   27.8312   46.7691 H   0  0  0  0  0  0  0  0  0  0  0  0
   57.3170   28.1390   45.2980 H   0  0  0  0  0  0  0  0  0  0  0  0
   55.3885   26.4132   46.4799 H   0  0  0  0  0  0  0  0  0  0  0  0
   53.9778   24.5792   45.5391 H   0  0  0  0  0  0  0  0  0  0  0  0
   58.9259   24.2604   45.1875 H   0  0  0  0  0  0  0  0  0  0  0  0
   57.0791   30.4137   46.5805 H   0  0  0  0  0  0  0  0  0  0  0  0
  1  2  1  0
  2  3  2  0
  2  4  2  0
  2  5  1  0
  5  6  1  0
  6  7  1  0
  7  8  1  0
  8  9  2  0
  8 10  1  0
 10 11  1  0
 11 12  2  0
 12 13  1  0
 13 14  2  0
 14 15  1  0
 15 16  1  0
 16 17  1  0
 17 18  2  0
 17 19  1  0
 19 20  2  0
 20 21  1  0
 21 22  2  0
 22 23  1  0
 23 24  1  0
 23 25  2  0
 15 26  2  0
 26 11  1  0
 25 19  1  0
  1 27  1  0
  5 28  1  0
  5 29  1  0
  6 30  1  0
  6 31  1  0
 10 32  1  0
 10 33  1  0
 12 34  1  0
 13 35  1  0
 14 36  1  0
 16 37  1  0
 20 38  1  0
 21 39  1  0
 25 40  1  0
 26 41  1  0
M  CHG  2   1  -1   7  -1
M  END
>  <UniqueID>  (82) 
75

>  <SMILES>  (82) 
[NH-]S(=O)(=O)CC[N-]C(=O)Cc1cccc(NC(=O)c2ccnc(Cl)c2)c1

>  <Energy>  (82) 
38.718287726205

>  <Genealogy>  (82) 
[NH-]S(=O)(=O)CC[N-]C(=O)Cc1cccc(NC(=O)c2ccnc(Cl)c2)c1 (protonated)
[NH-]S(=O)(=O)CC[N-]C(=O)Cc1cccc(NC(=O)c2ccnc(Cl)c2)c1 (3D coordinates assigned)
[NH-]S(=O)(=O)CC[N-]C(=O)Cc1cccc(NC(=O)c2ccnc(Cl)c2)c1 (optimized conformer: 38.718287726205 kcal/mol)

>  <smiles>  (82) 
NS(=O)(=O)CCNC(=O)Cc1cccc(NC(=O)c2ccnc(Cl)c2)c1

>  <score_type>  (82) 
oracle

>  <origin>  (82) 
adg

>  <m_score__min__energy>  (82) 
-12.94

>  <m_primary>  (82) 
energy

$$$$
82:0
     RDKit          3D

 36 38  0  0  1  0  0  0  0  0999 V2000
   60.8330   33.6920   51.0220 C   0  0  0  0  0  0  0  0  0  0  0  0
   62.1170   33.4900   50.3540 N   0  0  0  0  0  0  0  0  0  0  0  0
   63.2270   33.2200   51.0940 C   0  0  0  0  0  0  0  0  0  0  0  0
   63.1220   33.1490   52.3590 O   0  0  0  0  0  0  0  0  0  0  0  0
   64.4390   33.0310   50.4640 C   0  0  0  0  0  0  0  0  0  0  0  0
   64.5270   33.1140   49.0710 C   0  0  0  0  0  0  0  0  0  0  0  0
   63.4120   33.3840   48.3440 C   0  0  0  0  0  0  0  0  0  0  0  0
   63.3850   33.4900   46.9640 C   0  0  0  0  0  0  0  0  0  0  0  0
   62.2280   33.7610   46.3210 N   0  0  0  0  0  0  0  0  0  0  0  0
   61.0800   33.9350   47.0040 C   0  0  0  0  0  0  0  0  0  0  0  0
   59.9500   34.1960   46.4360 N   0  0  0  0  0  0  0  0  0  0  0  0
   59.1660   33.1350   45.9050 C   0  0  0  0  0  0  0  0  0  0  0  0
   59.0280   31.9100   46.5260 C   0  0  0  0  0  0  0  0  0  0  0  0
   58.2580   30.9110   45.9730 C   0  0  0  0  0  0  0  0  0  0  0  0
   57.6210   31.1850   44.7610 C   0  0  0  0  0  0  0  0  0  0  0  0
   56.6150   29.9860   43.9670 S   0  0  0  0  0  0  0  0  0  0  0  0
   57.5950   28.5540   43.8020 N   0  0  0  0  0  0  0  0  0  0  0  0
   56.2460   30.4940   42.6070 O   0  0  0  0  0  0  0  0  0  0  0  0
   55.4210   29.6380   44.7730 O   0  0  0  0  0  0  0  0  0  0  0  0
   57.7510   32.4070   44.1280 C   0  0  0  0  0  0  0  0  0  0  0  0
   58.5250   33.4010   44.6910 C   0  0  0  0  0  0  0  0  0  0  0  0
   61.0620   33.8410   48.3500 N   0  0  0  0  0  0  0  0  0  0  0  0
   62.2110   33.5710   48.9980 C   0  0  0  0  0  0  0  0  0  0  0  0
   60.9791   33.6690   52.1120 H   0  0  0  0  0  0  0  0  0  0  0  0
   60.4163   34.6668   50.7284 H   0  0  0  0  0  0  0  0  0  0  0  0
   60.1371   32.8923   50.7284 H   0  0  0  0  0  0  0  0  0  0  0  0
   65.3387   32.8144   51.0587 H   0  0  0  0  0  0  0  0  0  0  0  0
   65.4929   32.9616   48.5672 H   0  0  0  0  0  0  0  0  0  0  0  0
   64.3115   33.3527   46.3872 H   0  0  0  0  0  0  0  0  0  0  0  0
   62.2060   33.8420   45.2800 H   0  0  0  0  0  0  0  0  0  0  0  0
   59.5429   31.7282   47.4809 H   0  0  0  0  0  0  0  0  0  0  0  0
   58.1489   29.9344   46.4673 H   0  0  0  0  0  0  0  0  0  0  0  0
   56.9850   27.7690   43.4290 H   0  0  0  0  0  0  0  0  0  0  0  0
   58.2350   28.7570   42.9860 H   0  0  0  0  0  0  0  0  0  0  0  0
   57.2360   32.5875   43.1729 H   0  0  0  0  0  0  0  0  0  0  0  0
   58.6350   34.3778   44.1974 H   0  0  0  0  0  0  0  0  0  0  0  0
  1  2  1  0
  2  3  1  0
  3  4  2  0
  3  5  1  0
  5  6  2  0
  6  7  1  0
  7  8  2  0
  8  9  1  0
  9 10  1  0
 10 11  2  0
 11 12  1  0
 12 13  2  0
 13 14  1  0
 14 15  2  0
 15 16  1  0
 16 17  1  0
 16 18  2  0
 16 19  2  0
 15 20  1  0
 20 21  2  0
 10 22  1  0
 22 23  2  0
 23  2  1  0
 23  7  1  0
 21 12  1  0
  1 24  1  0
  1 25  1  0
  1 26  1  0
  5 27  1  0
  6 28  1  0
  8 29  1  0
  9 30  1  0
 13 31  1  0
 14 32  1  0
 17 33  1  0
 17 34  1  0
 20 35  1  0
 21 36  1  0
M  END
>  <smiles>  (83) 
Cn1c(=O)ccc2c[nH]c(=Nc3ccc(S(N)(=O)=O)cc3)nc21

>  <score_type>  (83) 
oracle

>  <origin>  (83) 
adg

>  <m_score__min__energy>  (83) 
-8.6500000000000004

>  <m_primary>  (83) 
energy

$$$$
83:0
     RDKit          3D

 53 56  0  0  0  0  0  0  0  0999 V2000
   61.5791   25.9969   51.3309 H   0  0  0  0  0  0  0  0  0  0  0  0
   61.0870   26.9190   50.9880 C   0  0  0  0  0  0  0  0  0  0  0  0
   60.7530   27.0730   49.6400 C   0  0  0  0  0  0  0  0  0  0  0  0
   60.9829   26.2715   48.9226 H   0  0  0  0  0  0  0  0  0  0  0  0
   60.1270   28.2440   49.2010 C   0  0  0  0  0  0  0  0  0  0  0  0
   59.8642   28.3608   48.1393 H   0  0  0  0  0  0  0  0  0  0  0  0
   59.8320   29.2750   50.1160 C   0  0  0  0  0  0  0  0  0  0  0  0
   59.2140   30.4730   49.7340 O   0  0  0  0  0  0  0  0  0  0  0  0
   59.7580   32.0390   50.1630 S   0  0  0  0  0  0  0  0  0  0  0  0
   59.4470   32.2770   51.6140 O   0  0  0  0  0  0  0  0  0  0  0  0
   59.0660   33.0790   49.3270 O   0  0  0  0  0  0  0  0  0  0  0  0
   61.5040   32.1360   49.8910 C   0  0  0  0  0  0  0  0  0  0  0  0
   62.3680   31.9010   50.9740 C   0  0  0  0  0  0  0  0  0  0  0  0
   61.9497   31.7192   51.9750 H   0  0  0  0  0  0  0  0  0  0  0  0
   63.7520   31.8960   50.7920 C   0  0  0  0  0  0  0  0  0  0  0  0
   64.4180   31.7134   51.6482 H   0  0  0  0  0  0  0  0  0  0  0  0
   64.2910   32.1220   49.5270 C   0  0  0  0  0  0  0  0  0  0  0  0
   65.3815   32.1059   49.3835 H   0  0  0  0  0  0  0  0  0  0  0  0
   63.4480   32.3690   48.4410 C   0  0  0  0  0  0  0  0  0  0  0  0
   63.8808   32.5458   47.4453 H   0  0  0  0  0  0  0  0  0  0  0  0
   62.0530   32.3940   48.6070 C   0  0  0  0  0  0  0  0  0  0  0  0
   61.2080   32.6990   47.4320 C   0  0  0  0  0  0  0  0  0  0  0  0
   61.5690   33.5890   46.6160 O   0  0  0  0  0  0  0  0  0  0  0  0
   59.9780   31.9910   47.2190 N   0  0  0  0  0  0  0  0  0  0  0  0
   59.6080   31.3910   47.9910 H   0  0  0  0  0  0  0  0  0  0  0  0
   59.0720   32.3670   46.1750 C   0  0  0  0  0  0  0  0  0  0  0  0
   58.7710   33.7250   46.0040 C   0  0  0  0  0  0  0  0  0  0  0  0
   59.1898   34.4690   46.6976 H   0  0  0  0  0  0  0  0  0  0  0  0
   57.9430   34.1400   44.9590 C   0  0  0  0  0  0  0  0  0  0  0  0
   57.7166   35.2084   44.8274 H   0  0  0  0  0  0  0  0  0  0  0  0
   57.4030   33.1990   44.0820 C   0  0  0  0  0  0  0  0  0  0  0  0
   56.7649   33.5282   43.2486 H   0  0  0  0  0  0  0  0  0  0  0  0
   57.6710   31.8390   44.2600 C   0  0  0  0  0  0  0  0  0  0  0  0
   57.2371   31.1018   43.5684 H   0  0  0  0  0  0  0  0  0  0  0  0
   58.4900   31.4070   45.3150 C   0  0  0  0  0  0  0  0  0  0  0  0
   58.7140   29.6670   45.5580 S   0  0  0  0  0  0  0  0  0  0  0  0
   59.9390   29.1810   44.8370 O   0  0  0  0  0  0  0  0  0  0  0  0
   58.8980   29.4110   47.0270 O   0  0  0  0  0  0  0  0  0  0  0  0
   57.3400   28.7620   45.0070 N   0  0  0  0  0  0  0  0  0  0  0  0
   56.8200   27.6880   45.5290 C   0  0  0  0  0  0  0  0  0  0  0  0
   55.5230   27.5180   45.6210 O   0  0  0  0  0  0  0  0  0  0  0  0
   55.2320   26.3730   46.1670 N   0  0  0  0  0  0  0  0  0  0  0  0
   56.3990   25.7590   46.4380 C   0  0  0  0  0  0  0  0  0  0  0  0
   56.5000   24.4380   47.1270 C   0  0  0  0  0  0  0  0  0  0  0  0
   56.4883   24.5908   48.2163 H   0  0  0  0  0  0  0  0  0  0  0  0
   55.6475   23.8066   46.8361 H   0  0  0  0  0  0  0  0  0  0  0  0
   57.4386   23.9436   46.8361 H   0  0  0  0  0  0  0  0  0  0  0  0
   57.4540   26.5680   46.0590 C   0  0  0  0  0  0  0  0  0  0  0  0
   59.1550   26.1910   46.2940 Cl  0  0  0  0  0  0  0  0  0  0  0  0
   60.1710   29.1080   51.4650 C   0  0  0  0  0  0  0  0  0  0  0  0
   59.9435   29.9056   52.1876 H   0  0  0  0  0  0  0  0  0  0  0  0
   60.7960   27.9360   51.9000 C   0  0  0  0  0  0  0  0  0  0  0  0
   61.0589   27.8145   52.9612 H   0  0  0  0  0  0  0  0  0  0  0  0
  1  2  1  0
  2  3  2  0
  3  4  1  0
  3  5  1  0
  5  6  1  0
  5  7  2  0
  7  8  1  0
  8  9  1  0
  9 10  2  0
  9 11  2  0
  9 12  1  0
 12 13  2  0
 13 14  1  0
 13 15  1  0
 15 16  1  0
 15 17  2  0
 17 18  1  0
 17 19  1  0
 19 20  1  0
 19 21  2  0
 21 22  1  0
 22 23  2  0
 22 24  1  0
 24 25  1  0
 24 26  1  0
 26 27  2  0
 27 28  1  0
 27 29  1  0
 29 30  1  0
 29 31  2  0
 31 32  1  0
 31 33  1  0
 33 34  1  0
 33 35  2  0
 35 36  1  0
 36 37  2  0
 36 38  2  0
 36 39  1  0
 39 40  2  0
 40 41  1  0
 41 42  1  0
 42 43  1  0
 43 44  1  0
 44 45  1  0
 44 46  1  0
 44 47  1  0
 43 48  2  0
 48 49  1  0
  7 50  1  0
 50 51  1  0
 50 52  2  0
 52 53  1  0
 52  2  1  0
 21 12  1  0
 35 26  1  0
 48 40  1  0
M  CHG  1  42  -1
M  END
>  <UniqueID>  (84) 
76

>  <SMILES>  (84) 
Cc1[n-]o/c(=N/S(=O)(=O)c2ccccc2NC(=O)c2ccccc2S(=O)(=O)Oc2ccccc2)c1Cl

>  <Energy>  (84) 
107.66607790620095

>  <Genealogy>  (84) 
Cc1[n-]oc(=NS(=O)(=O)c2ccccc2NC(=O)c2ccccc2S(=O)(=O)Oc2ccccc2)c1Cl (protonated)
Cc1[n-]o/c(=N/S(=O)(=O)c2ccccc2NC(=O)c2ccccc2S(=O)(=O)Oc2ccccc2)c1Cl (cis-trans isomerization)
Cc1[n-]o/c(=N/S(=O)(=O)c2ccccc2NC(=O)c2ccccc2S(=O)(=O)Oc2ccccc2)c1Cl (3D coordinates assigned)
Cc1[n-]o/c(=N/S(=O)(=O)c2ccccc2NC(=O)c2ccccc2S(=O)(=O)Oc2ccccc2)c1Cl (optimized conformer: 107.66607790620095 kcal/mol)

>  <smiles>  (84) 
Cc1[nH]oc(=NS(=O)(=O)c2ccccc2NC(=O)c2ccccc2S(=O)(=O)Oc2ccccc2)c1Cl

>  <score_type>  (84) 
oracle

>  <origin>  (84) 
adg

>  <m_score__min__energy>  (84) 
-13.32

>  <m_primary>  (84) 
energy

$$$$
84:0
     RDKit          3D

 38 39  0  0  0  0  0  0  0  0999 V2000
   55.7221   31.2838   43.3564 H   0  0  0  0  0  0  0  0  0  0  0  0
   56.6410   31.0070   43.8940 C   0  0  0  0  0  0  0  0  0  0  0  0
   56.6500   29.7710   44.6990 C   0  0  0  0  0  0  0  0  0  0  0  0
   55.5680   29.2820   45.1280 O   0  0  0  0  0  0  0  0  0  0  0  0
   57.9020   29.1540   45.0320 N   0  0  0  0  0  0  0  0  0  0  0  0
   58.7720   29.7290   44.9490 H   0  0  0  0  0  0  0  0  0  0  0  0
   58.0170   27.8380   45.5930 C   0  0  0  0  0  0  0  0  0  0  0  0
   59.1950   27.5660   46.7060 S   0  0  0  0  0  0  0  0  0  0  0  0
   57.1260   26.7850   45.1740 N   0  0  0  0  0  0  0  0  0  0  0  0
   56.3360   27.0180   44.5330 H   0  0  0  0  0  0  0  0  0  0  0  0
   57.2220   25.4180   45.6080 C   0  0  0  0  0  0  0  0  0  0  0  0
   58.4550   24.7460   45.5770 C   0  0  0  0  0  0  0  0  0  0  0  0
   59.3595   25.2777   45.2467 H   0  0  0  0  0  0  0  0  0  0  0  0
   58.5390   23.4070   45.9630 C   0  0  0  0  0  0  0  0  0  0  0  0
   59.5104   22.8910   45.9503 H   0  0  0  0  0  0  0  0  0  0  0  0
   57.3910   22.7230   46.3650 C   0  0  0  0  0  0  0  0  0  0  0  0
   57.4594   21.6692   46.6730 H   0  0  0  0  0  0  0  0  0  0  0  0
   56.1550   23.3740   46.3770 C   0  0  0  0  0  0  0  0  0  0  0  0
   55.2525   22.8286   46.6902 H   0  0  0  0  0  0  0  0  0  0  0  0
   56.0580   24.7260   45.9900 C   0  0  0  0  0  0  0  0  0  0  0  0
   54.8330   25.4130   45.9840 O   0  0  0  0  0  0  0  0  0  0  0  0
   53.5880   24.8380   45.6010 C   0  0  0  0  0  0  0  0  0  0  0  0
   53.0141   24.5730   46.5012 H   0  0  0  0  0  0  0  0  0  0  0  0
   53.0174   25.5638   45.0029 H   0  0  0  0  0  0  0  0  0  0  0  0
   53.7706   23.9330   45.0029 H   0  0  0  0  0  0  0  0  0  0  0  0
   57.7130   31.8040   43.7950 C   0  0  0  0  0  0  0  0  0  0  0  0
   58.3074   31.7608   42.8704 H   0  0  0  0  0  0  0  0  0  0  0  0
   58.1450   32.7420   44.8610 C   0  0  0  0  0  0  0  0  0  0  0  0
   57.8350   32.5390   46.2230 C   0  0  0  0  0  0  0  0  0  0  0  0
   57.2597   31.6520   46.5267 H   0  0  0  0  0  0  0  0  0  0  0  0
   58.2550   33.4590   47.1880 C   0  0  0  0  0  0  0  0  0  0  0  0
   58.0155   33.2895   48.2482 H   0  0  0  0  0  0  0  0  0  0  0  0
   58.9780   34.5930   46.8100 C   0  0  0  0  0  0  0  0  0  0  0  0
   59.3116   35.3123   47.5724 H   0  0  0  0  0  0  0  0  0  0  0  0
   59.2770   34.8130   45.4640 C   0  0  0  0  0  0  0  0  0  0  0  0
   59.8426   35.7082   45.1662 H   0  0  0  0  0  0  0  0  0  0  0  0
   58.8580   33.8960   44.4930 C   0  0  0  0  0  0  0  0  0  0  0  0
   59.0886   34.0800   43.4333 H   0  0  0  0  0  0  0  0  0  0  0  0
  1  2  1  0
  2  3  1  0
  3  4  2  0
  3  5  1  0
  5  6  1  0
  5  7  1  0
  7  8  2  0
  7  9  1  0
  9 10  1  0
  9 11  1  0
 11 12  2  0
 12 13  1  0
 12 14  1  0
 14 15  1  0
 14 16  2  0
 16 17  1  0
 16 18  1  0
 18 19  1  0
 18 20  2  0
 20 21  1  0
 21 22  1  0
 22 23  1  0
 22 24  1  0
 22 25  1  0
  2 26  2  0
 26 27  1  0
 26 28  1  0
 28 29  2  0
 29 30  1  0
 29 31  1  0
 31 32  1  0
 31 33  2  0
 33 34  1  0
 33 35  1  0
 35 36  1  0
 35 37  2  0
 37 38  1  0
 20 11  1  0
 37 28  1  0
M  END
>  <UniqueID>  (85) 
77

>  <SMILES>  (85) 
COc1ccccc1NC(=S)NC(=O)/C=C/c1ccccc1

>  <Energy>  (85) 
48.22477913000757

>  <Genealogy>  (85) 
COc1ccccc1NC(=S)NC(=O)/C=C/c1ccccc1 (cis-trans isomerization)
COc1ccccc1NC(=S)NC(=O)/C=C/c1ccccc1 (3D coordinates assigned)
COc1ccccc1NC(=S)NC(=O)/C=C/c1ccccc1 (optimized conformer: 48.22477913000757 kcal/mol)

>  <smiles>  (85) 
COc1ccccc1NC(=S)NC(=O)C=Cc1ccccc1

>  <score_type>  (85) 
oracle

>  <origin>  (85) 
adg

>  <m_score__min__energy>  (85) 
-8.25

>  <m_primary>  (85) 
energy

$$$$
85:0
     RDKit          3D

 36 37  0  0  0  0  0  0  0  0999 V2000
   59.7080   29.0120   44.5130 C   0  0  0  0  0  0  0  0  0  0  0  0
   59.2280   30.0950   45.3610 N   0  0  0  0  0  0  0  0  0  0  0  0
   59.3820   30.0660   46.7860 C   0  0  0  0  0  0  0  0  0  0  0  0
   59.9300   29.0770   47.3450 O   0  0  0  0  0  0  0  0  0  0  0  0
   58.8560   31.1940   47.6260 C   0  0  0  0  0  0  0  0  0  0  0  0
   59.9090   32.1850   48.1060 C   0  0  0  0  0  0  0  0  0  0  0  0
   60.5810   31.9960   49.3370 C   0  0  0  0  0  0  0  0  0  0  0  0
   61.5610   32.8910   49.7640 C   0  0  0  0  0  0  0  0  0  0  0  0
   61.9060   33.9820   48.9730 C   0  0  0  0  0  0  0  0  0  0  0  0
   61.2730   34.1840   47.7500 C   0  0  0  0  0  0  0  0  0  0  0  0
   60.2740   33.3020   47.2980 C   0  0  0  0  0  0  0  0  0  0  0  0
   59.6390   33.5940   45.9540 C   0  0  0  0  0  0  0  0  0  0  0  0
   57.8250   33.7840   46.1000 S   0  0  0  0  0  0  0  0  0  0  0  0
   57.4390   32.5630   44.8510 C   0  0  0  0  0  0  0  0  0  0  0  0
   57.9200   32.7090   43.5880 N   0  0  0  0  0  0  0  0  0  0  0  0
   57.6330   31.7980   42.6230 C   0  0  0  0  0  0  0  0  0  0  0  0
   58.0860   31.9550   41.4590 O   0  0  0  0  0  0  0  0  0  0  0  0
   56.8360   30.6930   42.9240 C   0  0  0  0  0  0  0  0  0  0  0  0
   56.3510   30.5560   44.2290 C   0  0  0  0  0  0  0  0  0  0  0  0
   55.5280   29.4450   44.5840 N   0  0  0  0  0  0  0  0  0  0  0  0
   56.6640   31.4910   45.1640 N   0  0  0  0  0  0  0  0  0  0  0  0
   60.0734   28.1875   45.1429 H   0  0  0  0  0  0  0  0  0  0  0  0
   58.8854   28.6514   43.8779 H   0  0  0  0  0  0  0  0  0  0  0  0
   60.5276   29.3793   43.8779 H   0  0  0  0  0  0  0  0  0  0  0  0
   58.7460   30.9070   44.9160 H   0  0  0  0  0  0  0  0  0  0  0  0
   58.1144   31.7461   47.0301 H   0  0  0  0  0  0  0  0  0  0  0  0
   58.4334   30.7324   48.5306 H   0  0  0  0  0  0  0  0  0  0  0  0
   60.3264   31.1303   49.9661 H   0  0  0  0  0  0  0  0  0  0  0  0
   62.0632   32.7338   50.7299 H   0  0  0  0  0  0  0  0  0  0  0  0
   62.6796   34.6856   49.3143 H   0  0  0  0  0  0  0  0  0  0  0  0
   61.5577   35.0454   47.1279 H   0  0  0  0  0  0  0  0  0  0  0  0
   60.0651   34.5248   45.5515 H   0  0  0  0  0  0  0  0  0  0  0  0
   59.8455   32.7477   45.2823 H   0  0  0  0  0  0  0  0  0  0  0  0
   56.5946   29.9467   42.1528 H   0  0  0  0  0  0  0  0  0  0  0  0
   55.8140   28.4680   44.3490 H   0  0  0  0  0  0  0  0  0  0  0  0
   54.6240   29.5990   45.0820 H   0  0  0  0  0  0  0  0  0  0  0  0
  1  2  1  0
  2  3  1  0
  3  4  2  0
  3  5  1  0
  5  6  1  0
  6  7  2  0
  7  8  1  0
  8  9  2  0
  9 10  1  0
 10 11  2  0
 11 12  1  0
 12 13  1  0
 13 14  1  0
 14 15  2  0
 15 16  1  0
 16 17  2  0
 16 18  1  0
 18 19  2  0
 19 20  1  0
 19 21  1  0
 11  6  1  0
 21 14  1  0
  1 22  1  0
  1 23  1  0
  1 24  1  0
  2 25  1  0
  5 26  1  0
  5 27  1  0
  7 28  1  0
  8 29  1  0
  9 30  1  0
 10 31  1  0
 12 32  1  0
 12 33  1  0
 18 34  1  0
 20 35  1  0
 20 36  1  0
M  CHG  1  21  -1
M  END
>  <UniqueID>  (86) 
78

>  <SMILES>  (86) 
CNC(=O)Cc1ccccc1CSc1nc(=O)cc(N)[n-]1

>  <Energy>  (86) 
30.715201286392308

>  <Genealogy>  (86) 
CNC(=O)Cc1ccccc1CSc1nc(=O)cc(N)[n-]1 (protonated)
CNC(=O)Cc1ccccc1CSc1nc(=O)cc(N)[n-]1 (3D coordinates assigned)
CNC(=O)Cc1ccccc1CSc1nc(=O)cc(N)[n-]1 (optimized conformer: 30.715201286392308 kcal/mol)

>  <smiles>  (86) 
CNC(=O)Cc1ccccc1CSc1nc(=O)cc(N)[nH]1

>  <score_type>  (86) 
oracle

>  <origin>  (86) 
adg

>  <m_score__min__energy>  (86) 
-8.7599999999999998

>  <m_primary>  (86) 
energy

$$$$
86:0
     RDKit          3D

 28 29  0  0  0  0  0  0  0  0999 V2000
   53.0000   22.6720   45.2350 O   0  0  0  0  0  0  0  0  0  0  0  0
   53.9030   23.5480   45.2880 C   0  0  0  0  0  0  0  0  0  0  0  0
   53.6820   24.7910   45.7640 N   0  0  0  0  0  0  0  0  0  0  0  0
   54.8840   25.3760   45.6370 C   0  0  0  0  0  0  0  0  0  0  0  0
   55.1330   26.6980   45.9970 O   0  0  0  0  0  0  0  0  0  0  0  0
   55.7910   24.4830   45.1060 C   0  0  0  0  0  0  0  0  0  0  0  0
   57.2170   24.7500   44.7390 C   0  0  0  0  0  0  0  0  0  0  0  0
   57.5340   26.1550   44.9680 N   0  0  0  0  0  0  0  0  0  0  0  0
   57.8180   27.0800   44.0360 C   0  0  0  0  0  0  0  0  0  0  0  0
   58.1110   28.2350   44.7270 C   0  0  0  0  0  0  0  0  0  0  0  0
   58.4450   29.5710   44.1390 C   0  0  0  0  0  0  0  0  0  0  0  0
   57.2220   30.4940   44.0850 C   0  0  0  0  0  0  0  0  0  0  0  0
   55.9270   29.7290   43.7820 C   0  0  0  0  0  0  0  0  0  0  0  0
   55.5250   28.9960   44.9070 O   0  0  0  0  0  0  0  0  0  0  0  0
   57.9960   27.9850   46.0470 N   0  0  0  0  0  0  0  0  0  0  0  0
   57.6530   26.7090   46.1640 N   0  0  0  0  0  0  0  0  0  0  0  0
   55.1660   23.3160   44.8700 N   0  0  0  0  0  0  0  0  0  0  0  0
   56.0540   27.1060   45.9140 H   0  0  0  0  0  0  0  0  0  0  0  0
   57.8762   24.1221   45.3564 H   0  0  0  0  0  0  0  0  0  0  0  0
   57.3674   24.5136   43.6753 H   0  0  0  0  0  0  0  0  0  0  0  0
   57.8168   26.9431   42.9446 H   0  0  0  0  0  0  0  0  0  0  0  0
   59.2223   30.0464   44.7552 H   0  0  0  0  0  0  0  0  0  0  0  0
   58.7974   29.4117   43.1092 H   0  0  0  0  0  0  0  0  0  0  0  0
   57.1159   30.9977   45.0572 H   0  0  0  0  0  0  0  0  0  0  0  0
   57.3828   31.2178   43.2725 H   0  0  0  0  0  0  0  0  0  0  0  0
   55.1363   30.4448   43.5128 H   0  0  0  0  0  0  0  0  0  0  0  0
   56.1057   29.0362   42.9465 H   0  0  0  0  0  0  0  0  0  0  0  0
   56.0590   28.1590   44.9070 H   0  0  0  0  0  0  0  0  0  0  0  0
  1  2  2  0
  2  3  1  0
  3  4  1  0
  4  5  1  0
  4  6  2  0
  6  7  1  0
  7  8  1  0
  8  9  1  0
  9 10  2  0
 10 11  1  0
 11 12  1  0
 12 13  1  0
 13 14  1  0
 10 15  1  0
 15 16  2  0
  6 17  1  0
 17  2  1  0
 16  8  1  0
  5 18  1  0
  7 19  1  0
  7 20  1  0
  9 21  1  0
 11 22  1  0
 11 23  1  0
 12 24  1  0
 12 25  1  0
 13 26  1  0
 13 27  1  0
 14 28  1  0
M  CHG  2   3  -1  17  -1
M  END
>  <UniqueID>  (87) 
79

>  <SMILES>  (87) 
O=c1[n-]c(O)c(Cn2cc(CCCO)nn2)[n-]1

>  <Energy>  (87) 
84.51761281172413

>  <Genealogy>  (87) 
O=c1[n-]c(O)c(Cn2cc(CCCO)nn2)[n-]1 (protonated)
O=c1[n-]c(O)c(Cn2cc(CCCO)nn2)[n-]1 (3D coordinates assigned)
O=c1[n-]c(O)c(Cn2cc(CCCO)nn2)[n-]1 (optimized conformer: 84.51761281172413 kcal/mol)

>  <smiles>  (87) 
O=c1[nH]c(O)c(Cn2cc(CCCO)nn2)[nH]1

>  <score_type>  (87) 
oracle

>  <origin>  (87) 
adg

>  <m_score__min__energy>  (87) 
-10.31

>  <m_primary>  (87) 
energy

$$$$
87:0
     RDKit          3D

 46 47  0  0  0  0  0  0  0  0999 V2000
   56.9630   32.1250   52.3870 C   0  0  0  0  0  0  0  0  0  0  0  0
   57.9810   31.9350   51.3070 C   0  0  0  0  0  0  0  0  0  0  0  0
   57.8710   31.0010   50.5290 O   0  0  0  0  0  0  0  0  0  0  0  0
   59.3310   33.0520   51.1440 S   0  0  0  0  0  0  0  0  0  0  0  0
   60.5010   32.5690   51.9560 O   0  0  0  0  0  0  0  0  0  0  0  0
   58.9040   34.4020   51.6480 O   0  0  0  0  0  0  0  0  0  0  0  0
   59.8020   33.1800   49.4790 N   0  0  0  0  0  0  0  0  0  0  0  0
   61.0220   32.6090   48.9780 C   0  0  0  0  0  0  0  0  0  0  0  0
   62.2540   33.0310   49.5100 C   0  0  0  0  0  0  0  0  0  0  0  0
   63.4570   32.5500   48.9900 C   0  0  0  0  0  0  0  0  0  0  0  0
   64.9830   33.0920   49.6650 Cl  0  0  0  0  0  0  0  0  0  0  0  0
   63.4460   31.6510   47.9250 C   0  0  0  0  0  0  0  0  0  0  0  0
   62.2330   31.2180   47.3870 C   0  0  0  0  0  0  0  0  0  0  0  0
   61.0100   31.6750   47.9100 C   0  0  0  0  0  0  0  0  0  0  0  0
   59.7540   31.1220   47.3480 C   0  0  0  0  0  0  0  0  0  0  0  0
   59.7840   30.2620   46.4270 O   0  0  0  0  0  0  0  0  0  0  0  0
   58.5260   31.5930   47.8120 O   0  0  0  0  0  0  0  0  0  0  0  0
   58.1190   32.8870   47.5640 N   0  0  0  0  0  0  0  0  0  0  0  0
   58.2410   33.4480   46.3980 C   0  0  0  0  0  0  0  0  0  0  0  0
   57.7190   32.7830   45.1770 C   0  0  0  0  0  0  0  0  0  0  0  0
   57.4940   33.4720   44.1450 O   0  0  0  0  0  0  0  0  0  0  0  0
   57.4820   31.3650   45.1660 N   0  0  0  0  0  0  0  0  0  0  0  0
   56.9660   30.6450   44.0340 C   0  0  0  0  0  0  0  0  0  0  0  0
   56.8010   31.2180   42.9250 O   0  0  0  0  0  0  0  0  0  0  0  0
   56.7510   29.2330   44.1230 N   0  0  0  0  0  0  0  0  0  0  0  0
   57.3770   28.3510   44.8540 C   0  0  0  0  0  0  0  0  0  0  0  0
   57.4960   28.6190   46.1840 N   0  0  0  0  0  0  0  0  0  0  0  0
   58.0910   27.7670   47.0590 C   0  0  0  0  0  0  0  0  0  0  0  0
   58.6150   26.5610   46.6060 C   0  0  0  0  0  0  0  0  0  0  0  0
   58.5530   26.2590   45.2470 C   0  0  0  0  0  0  0  0  0  0  0  0
   57.9520   27.1490   44.3470 C   0  0  0  0  0  0  0  0  0  0  0  0
   58.1430   26.7680   42.6370 Cl  0  0  0  0  0  0  0  0  0  0  0  0
   58.8920   34.7230   46.3130 N   0  0  0  0  0  0  0  0  0  0  0  0
   59.3000   35.1610   45.2180 O   0  0  0  0  0  0  0  0  0  0  0  0
   59.1990   35.4140   47.4630 O   0  0  0  0  0  0  0  0  0  0  0  0
   57.4494   32.0342   53.3694 H   0  0  0  0  0  0  0  0  0  0  0  0
   56.5104   33.1231   52.2928 H   0  0  0  0  0  0  0  0  0  0  0  0
   56.1808   31.3573   52.2928 H   0  0  0  0  0  0  0  0  0  0  0  0
   59.1410   33.6550   48.8250 H   0  0  0  0  0  0  0  0  0  0  0  0
   62.2696   33.7475   50.3445 H   0  0  0  0  0  0  0  0  0  0  0  0
   64.3946   31.2822   47.5078 H   0  0  0  0  0  0  0  0  0  0  0  0
   62.2336   30.5111   46.5442 H   0  0  0  0  0  0  0  0  0  0  0  0
   57.7440   30.8070   46.0090 H   0  0  0  0  0  0  0  0  0  0  0  0
   58.1583   28.0307   48.1248 H   0  0  0  0  0  0  0  0  0  0  0  0
   59.0733   25.8534   47.3126 H   0  0  0  0  0  0  0  0  0  0  0  0
   58.9792   25.3145   44.8779 H   0  0  0  0  0  0  0  0  0  0  0  0
  1  2  1  0
  2  3  2  0
  2  4  1  0
  4  5  2  0
  4  6  2  0
  4  7  1  0
  7  8  1  0
  8  9  2  0
  9 10  1  0
 10 11  1  0
 10 12  2  0
 12 13  1  0
 13 14  2  0
 14 15  1  0
 15 16  2  0
 15 17  1  0
 17 18  1  0
 18 19  2  3
 19 20  1  0
 20 21  2  0
 20 22  1  0
 22 23  1  0
 23 24  2  0
 23 25  1  0
 25 26  2  3
 26 27  1  0
 27 28  1  0
 28 29  2  0
 29 30  1  0
 30 31  2  0
 31 32  1  0
 19 33  1  0
 33 34  2  0
 33 35  1  0
 14  8  1  0
 31 26  1  0
  1 36  1  0
  1 37  1  0
  1 38  1  0
  7 39  1  0
  9 40  1  0
 12 41  1  0
 13 42  1  0
 22 43  1  0
 28 44  1  0
 29 45  1  0
 30 46  1  0
M  CHG  3  27  -1  33   1  35  -1
M  END
>  <UniqueID>  (88) 
80

>  <SMILES>  (88) 
CC(=O)S(=O)(=O)Nc1cc(Cl)ccc1C(=O)ON=C(C(=O)NC(=O)N=c1[n-]cccc1Cl)[N+](=O)[O-]

>  <Energy>  (88) 
69.28791741501414

>  <Genealogy>  (88) 
CC(=O)S(=O)(=O)Nc1cc(Cl)ccc1C(=O)ON=C(C(=O)NC(=O)N=c1[n-]cccc1Cl)[N+](=O)[O-] (protonated)
CC(=O)S(=O)(=O)Nc1cc(Cl)ccc1C(=O)ON=C(C(=O)NC(=O)N=c1[n-]cccc1Cl)[N+](=O)[O-] (3D coordinates assigned)
CC(=O)S(=O)(=O)Nc1cc(Cl)ccc1C(=O)ON=C(C(=O)NC(=O)N=c1[n-]cccc1Cl)[N+](=O)[O-] (optimized conformer: 69.28791741501414 kcal/mol)

>  <smiles>  (88) 
CC(=O)S(=O)(=O)Nc1cc(Cl)ccc1C(=O)ON=C(C(=O)NC(=O)N=c1[nH]cccc1Cl)[N+](=O)[O-]

>  <score_type>  (88) 
oracle

>  <origin>  (88) 
adg

>  <m_score__min__energy>  (88) 
-11.380000000000001

>  <m_primary>  (88) 
energy

$$$$
88:0
     RDKit          3D

 54 57  0  0  0  0  0  0  0  0999 V2000
   54.7710   26.7120   45.0130 H   0  0  0  0  0  0  0  0  0  0  0  0
   54.7700   26.3100   45.9760 N   0  0  0  0  0  0  0  0  0  0  0  0
   56.2470   25.4300   46.1590 S   0  0  0  0  0  0  0  0  0  0  0  0
   56.2140   24.6490   47.4420 O   0  0  0  0  0  0  0  0  0  0  0  0
   56.3960   24.4720   45.0100 O   0  0  0  0  0  0  0  0  0  0  0  0
   57.6000   26.5570   46.1920 C   0  0  0  0  0  0  0  0  0  0  0  0
   58.3070   26.8610   45.0200 C   0  0  0  0  0  0  0  0  0  0  0  0
   58.0108   26.4030   44.0648 H   0  0  0  0  0  0  0  0  0  0  0  0
   59.3870   27.7450   45.0650 C   0  0  0  0  0  0  0  0  0  0  0  0
   59.9485   27.9711   44.1465 H   0  0  0  0  0  0  0  0  0  0  0  0
   59.7570   28.3430   46.2710 C   0  0  0  0  0  0  0  0  0  0  0  0
   60.6200   29.0244   46.3015 H   0  0  0  0  0  0  0  0  0  0  0  0
   59.0350   28.0800   47.4430 C   0  0  0  0  0  0  0  0  0  0  0  0
   59.4580   28.7000   48.6700 N   0  0  0  0  0  0  0  0  0  0  0  0
   58.9740   29.7860   49.2010 C   0  0  0  0  0  0  0  0  0  0  0  0
   58.2590   29.7430   50.3590 N   0  0  0  0  0  0  0  0  0  0  0  0
   57.7370   30.8750   50.8910 C   0  0  0  0  0  0  0  0  0  0  0  0
   57.0990   30.8160   52.0240 N   0  0  0  0  0  0  0  0  0  0  0  0
   55.7950   30.2460   52.2370 C   0  0  0  0  0  0  0  0  0  0  0  0
   54.6800   30.8860   51.6800 C   0  0  0  0  0  0  0  0  0  0  0  0
   54.8149   31.8067   51.0934 H   0  0  0  0  0  0  0  0  0  0  0  0
   53.3970   30.3620   51.8650 C   0  0  0  0  0  0  0  0  0  0  0  0
   52.5285   30.8622   51.4116 H   0  0  0  0  0  0  0  0  0  0  0  0
   53.2170   29.2040   52.6250 C   0  0  0  0  0  0  0  0  0  0  0  0
   52.2086   28.7857   52.7598 H   0  0  0  0  0  0  0  0  0  0  0  0
   54.3180   28.5770   53.2140 C   0  0  0  0  0  0  0  0  0  0  0  0
   54.1741   27.6721   53.8226 H   0  0  0  0  0  0  0  0  0  0  0  0
   55.6020   29.0980   53.0310 C   0  0  0  0  0  0  0  0  0  0  0  0
   56.4647   28.6103   53.5084 H   0  0  0  0  0  0  0  0  0  0  0  0
   57.9340   32.0590   50.2590 N   0  0  0  0  0  0  0  0  0  0  0  0
   58.6370   32.1190   49.0990 C   0  0  0  0  0  0  0  0  0  0  0  0
   58.8150   33.2580   48.4930 N   0  0  0  0  0  0  0  0  0  0  0  0
   58.1580   33.6320   47.2380 C   0  0  0  0  0  0  0  0  0  0  0  0
   57.1816   33.1288   47.1797 H   0  0  0  0  0  0  0  0  0  0  0  0
   58.0313   34.7246   47.2219 H   0  0  0  0  0  0  0  0  0  0  0  0
   59.0120   33.2190   46.0190 C   0  0  1  0  0  0  0  0  0  0  0  0
   59.2200   34.1307   45.4398 H   0  0  0  0  0  0  0  0  0  0  0  0
   60.2460   32.6740   46.4170 O   0  0  0  0  0  0  0  0  0  0  0  0
   60.2150   32.5170   47.3950 H   0  0  0  0  0  0  0  0  0  0  0  0
   58.2590   32.2580   45.1190 C   0  0  0  0  0  0  0  0  0  0  0  0
   58.0730   32.5390   43.7520 C   0  0  0  0  0  0  0  0  0  0  0  0
   58.4595   33.4777   43.3285 H   0  0  0  0  0  0  0  0  0  0  0  0
   57.3990   31.6300   42.9300 C   0  0  0  0  0  0  0  0  0  0  0  0
   57.2538   31.8580   41.8637 H   0  0  0  0  0  0  0  0  0  0  0  0
   56.9100   30.4340   43.4590 C   0  0  0  0  0  0  0  0  0  0  0  0
   56.3808   29.7210   42.8097 H   0  0  0  0  0  0  0  0  0  0  0  0
   57.0930   30.1430   44.8130 C   0  0  0  0  0  0  0  0  0  0  0  0
   56.7089   29.1998   45.2287 H   0  0  0  0  0  0  0  0  0  0  0  0
   57.7630   31.0480   45.6400 C   0  0  0  0  0  0  0  0  0  0  0  0
   57.9039   30.8134   46.7054 H   0  0  0  0  0  0  0  0  0  0  0  0
   59.1530   30.9780   48.5680 N   0  0  0  0  0  0  0  0  0  0  0  0
   59.6910   31.0180   47.6720 H   0  0  0  0  0  0  0  0  0  0  0  0
   57.9700   27.1600   47.4020 C   0  0  0  0  0  0  0  0  0  0  0  0
   57.4251   26.9130   48.3251 H   0  0  0  0  0  0  0  0  0  0  0  0
  1  2  1  0
  2  3  1  0
  3  4  2  0
  3  5  2  0
  3  6  1  0
  6  7  2  0
  7  8  1  0
  7  9  1  0
  9 10  1  0
  9 11  2  0
 11 12  1  0
 11 13  1  0
 13 14  1  0
 14 15  2  0
 15 16  1  0
 16 17  1  0
 17 18  2  0
 18 19  1  0
 19 20  2  0
 20 21  1  0
 20 22  1  0
 22 23  1  0
 22 24  2  0
 24 25  1  0
 24 26  1  0
 26 27  1  0
 26 28  2  0
 28 29  1  0
 17 30  1  0
 30 31  1  0
 31 32  2  3
 32 33  1  0
 33 34  1  0
 33 35  1  0
 33 36  1  0
 36 37  1  6
 36 38  1  0
 38 39  1  0
 36 40  1  0
 40 41  2  0
 41 42  1  0
 41 43  1  0
 43 44  1  0
 43 45  2  0
 45 46  1  0
 45 47  1  0
 47 48  1  0
 47 49  2  0
 49 50  1  0
 31 51  1  0
 51 52  1  0
 13 53  2  0
 53 54  1  0
 53  6  1  0
 51 15  1  0
 28 19  1  0
 49 40  1  0
M  CHG  3   2  -1  16  -1  30  -1
M  END
>  <UniqueID>  (89) 
81

>  <SMILES>  (89) 
[NH-]S(=O)(=O)c1cccc(/N=c2\[n-]/c(=N/c3ccccc3)[n-]c(=NC[C@@H](O)c3ccccc3)[nH]2)c1

>  <Energy>  (89) 
68.58774374144848

>  <Genealogy>  (89) 
[NH-]S(=O)(=O)c1cccc(N=c2[n-]c(=Nc3ccccc3)[n-]c(=NCC(O)c3ccccc3)[nH]2)c1 (protonated)
[NH-]S(=O)(=O)c1cccc(N=c2[n-]c(=Nc3ccccc3)[n-]c(=NC[C@@H](O)c3ccccc3)[nH]2)c1 (chirality)
[NH-]S(=O)(=O)c1cccc(/N=c2\[n-]/c(=N/c3ccccc3)[n-]c(=NC[C@@H](O)c3ccccc3)[nH]2)c1 (cis-trans isomerization)
[NH-]S(=O)(=O)c1cccc(/N=c2\[n-]/c(=N/c3ccccc3)[n-]c(=NC[C@@H](O)c3ccccc3)[nH]2)c1 (3D coordinates assigned)
[NH-]S(=O)(=O)c1cccc(/N=c2\[n-]/c(=N/c3ccccc3)[n-]c(=NC[C@@H](O)c3ccccc3)[nH]2)c1 (optimized conformer: 68.58774374144848 kcal/mol)

>  <smiles>  (89) 
NS(=O)(=O)c1cccc(N=c2[nH]c(=NCC(O)c3ccccc3)[nH]c(=Nc3ccccc3)[nH]2)c1

>  <score_type>  (89) 
oracle

>  <origin>  (89) 
adg

>  <m_score__min__energy>  (89) 
-14.06

>  <m_primary>  (89) 
energy

$$$$
89:0
     RDKit          3D

 46 48  0  0  0  0  0  0  0  0999 V2000
   62.7160   31.6400   47.5630 C   0  0  0  0  0  0  0  0  0  0  0  0
   61.4460   30.8330   47.6230 C   0  0  0  0  0  0  0  0  0  0  0  0
   60.9450   30.2480   46.4490 C   0  0  0  0  0  0  0  0  0  0  0  0
   59.7610   29.5000   46.4690 C   0  0  0  0  0  0  0  0  0  0  0  0
   59.2160   28.8970   45.2000 C   0  0  0  0  0  0  0  0  0  0  0  0
   57.7510   29.2050   45.0440 C   0  0  0  0  0  0  0  0  0  0  0  0
   56.6610   28.4060   45.3550 C   0  0  0  0  0  0  0  0  0  0  0  0
   56.6810   27.0650   45.9690 C   0  0  0  0  0  0  0  0  0  0  0  0
   57.7440   26.6360   46.4870 O   0  0  0  0  0  0  0  0  0  0  0  0
   55.5170   26.2260   45.9980 N   0  0  0  0  0  0  0  0  0  0  0  0
   55.4980   24.8130   46.3650 C   0  0  0  0  0  0  0  0  0  0  0  0
   55.9260   23.9530   45.2040 C   0  0  0  0  0  0  0  0  0  0  0  0
   57.2200   23.4140   45.1590 C   0  0  0  0  0  0  0  0  0  0  0  0
   57.6140   22.6310   44.0720 C   0  0  0  0  0  0  0  0  0  0  0  0
   56.7070   22.3910   43.0400 C   0  0  0  0  0  0  0  0  0  0  0  0
   55.4530   22.9100   43.1000 N   0  0  0  0  0  0  0  0  0  0  0  0
   55.0450   23.6740   44.1480 C   0  0  0  0  0  0  0  0  0  0  0  0
   55.5270   29.0530   45.0200 N   0  0  0  0  0  0  0  0  0  0  0  0
   55.8460   30.2290   44.4990 N   0  0  0  0  0  0  0  0  0  0  0  0
   57.1870   30.3410   44.4910 C   0  0  0  0  0  0  0  0  0  0  0  0
   57.9120   31.5490   43.9930 C   0  0  0  0  0  0  0  0  0  0  0  0
   59.0740   29.3310   47.6790 C   0  0  0  0  0  0  0  0  0  0  0  0
   59.5620   29.9010   48.8640 C   0  0  0  0  0  0  0  0  0  0  0  0
   58.8070   29.7200   50.1510 C   0  0  0  0  0  0  0  0  0  0  0  0
   60.7480   30.6590   48.8400 C   0  0  0  0  0  0  0  0  0  0  0  0
   61.2080   31.2280   50.0320 O   0  0  0  0  0  0  0  0  0  0  0  0
   63.0601   31.8587   48.5847 H   0  0  0  0  0  0  0  0  0  0  0  0
   63.4895   31.0674   47.0303 H   0  0  0  0  0  0  0  0  0  0  0  0
   62.5261   32.5835   47.0303 H   0  0  0  0  0  0  0  0  0  0  0  0
   61.4890   30.3788   45.5019 H   0  0  0  0  0  0  0  0  0  0  0  0
   59.7643   29.3104   44.3406 H   0  0  0  0  0  0  0  0  0  0  0  0
   59.3421   27.8053   45.2477 H   0  0  0  0  0  0  0  0  0  0  0  0
   56.1861   24.6499   47.2076 H   0  0  0  0  0  0  0  0  0  0  0  0
   54.4721   24.5363   46.6495 H   0  0  0  0  0  0  0  0  0  0  0  0
   57.9251   23.6082   45.9807 H   0  0  0  0  0  0  0  0  0  0  0  0
   58.6286   22.2081   44.0301 H   0  0  0  0  0  0  0  0  0  0  0  0
   57.0076   21.7803   42.1759 H   0  0  0  0  0  0  0  0  0  0  0  0
   54.0208   24.0748   44.1682 H   0  0  0  0  0  0  0  0  0  0  0  0
   58.2678   32.1418   44.8486 H   0  0  0  0  0  0  0  0  0  0  0  0
   58.7711   31.2351   43.3819 H   0  0  0  0  0  0  0  0  0  0  0  0
   57.2309   32.1594   43.3819 H   0  0  0  0  0  0  0  0  0  0  0  0
   58.1430   28.7456   47.6994 H   0  0  0  0  0  0  0  0  0  0  0  0
   59.4864   29.8829   51.0007 H   0  0  0  0  0  0  0  0  0  0  0  0
   57.9817   30.4457   50.1971 H   0  0  0  0  0  0  0  0  0  0  0  0
   58.4004   28.6989   50.1971 H   0  0  0  0  0  0  0  0  0  0  0  0
   60.5910   31.5550   50.7650 H   0  0  0  0  0  0  0  0  0  0  0  0
  1  2  1  0
  2  3  2  0
  3  4  1  0
  4  5  1  0
  5  6  1  0
  6  7  1  0
  7  8  1  0
  8  9  2  0
  8 10  1  0
 10 11  1  0
 11 12  1  0
 12 13  2  0
 13 14  1  0
 14 15  2  0
 15 16  1  0
 16 17  2  0
  7 18  2  0
 18 19  1  0
 19 20  1  0
 20 21  1  0
  4 22  2  0
 22 23  1  0
 23 24  1  0
 23 25  2  0
 25 26  1  0
 25  2  1  0
 20  6  2  0
 17 12  1  0
  1 27  1  0
  1 28  1  0
  1 29  1  0
  3 30  1  0
  5 31  1  0
  5 32  1  0
 11 33  1  0
 11 34  1  0
 13 35  1  0
 14 36  1  0
 15 37  1  0
 17 38  1  0
 21 39  1  0
 21 40  1  0
 21 41  1  0
 22 42  1  0
 24 43  1  0
 24 44  1  0
 24 45  1  0
 26 46  1  0
M  CHG  2  10  -1  19  -1
M  END
>  <UniqueID>  (90) 
82

>  <SMILES>  (90) 
Cc1cc(Cc2c(C(=O)[N-]Cc3cccnc3)n[n-]c2C)cc(C)c1O

>  <Energy>  (90) 
77.17943304299392

>  <Genealogy>  (90) 
Cc1cc(Cc2c(C(=O)[N-]Cc3cccnc3)n[n-]c2C)cc(C)c1O (protonated)
Cc1cc(Cc2c(C(=O)[N-]Cc3cccnc3)n[n-]c2C)cc(C)c1O (3D coordinates assigned)
Cc1cc(Cc2c(C(=O)[N-]Cc3cccnc3)n[n-]c2C)cc(C)c1O (optimized conformer: 77.17943304299392 kcal/mol)

>  <smiles>  (90) 
Cc1cc(Cc2c(C(=O)NCc3cccnc3)n[nH]c2C)cc(C)c1O

>  <score_type>  (90) 
oracle

>  <origin>  (90) 
adg

>  <m_score__min__energy>  (90) 
-11.27

>  <m_primary>  (90) 
energy

$$$$
90:0
     RDKit          3D

 44 46  0  0  0  0  0  0  0  0999 V2000
   61.8380   30.7520   46.8750 O   0  0  0  0  0  0  0  0  0  0  0  0
   60.7010   30.2490   46.6670 C   0  0  0  0  0  0  0  0  0  0  0  0
   60.4990   29.3520   45.4850 C   0  0  0  0  0  0  0  0  0  0  0  0
   59.3040   28.4660   45.7050 C   0  0  0  0  0  0  0  0  0  0  0  0
   59.4100   27.3230   46.5110 C   0  0  0  0  0  0  0  0  0  0  0  0
   58.2940   26.5120   46.7400 C   0  0  0  0  0  0  0  0  0  0  0  0
   57.0470   26.8370   46.1720 C   0  0  0  0  0  0  0  0  0  0  0  0
   55.8950   26.0040   46.4020 N   0  0  0  0  0  0  0  0  0  0  0  0
   54.7710   26.3390   45.9730 O   0  0  0  0  0  0  0  0  0  0  0  0
   56.0090   24.8380   47.1240 O   0  0  0  0  0  0  0  0  0  0  0  0
   56.9440   27.9930   45.3760 C   0  0  0  0  0  0  0  0  0  0  0  0
   58.0600   28.8010   45.1480 C   0  0  0  0  0  0  0  0  0  0  0  0
   59.6250   30.4800   47.5850 N   0  0  0  0  0  0  0  0  0  0  0  0
   59.6580   31.5060   48.5890 C   0  0  0  0  0  0  0  0  0  0  0  0
   59.9390   31.1450   49.9160 C   0  0  0  0  0  0  0  0  0  0  0  0
   60.0060   32.1170   50.9170 C   0  0  0  0  0  0  0  0  0  0  0  0
   59.7830   33.4590   50.6030 C   0  0  0  0  0  0  0  0  0  0  0  0
   59.4760   33.8300   49.2920 C   0  0  0  0  0  0  0  0  0  0  0  0
   59.3950   32.8620   48.2770 C   0  0  0  0  0  0  0  0  0  0  0  0
   58.9980   33.2590   46.9540 N   0  0  0  0  0  0  0  0  0  0  0  0
   57.9770   32.4810   46.2390 C   0  0  0  0  0  0  0  0  0  0  0  0
   57.2360   33.3430   45.1900 C   0  0  0  0  0  0  0  0  0  0  0  0
   57.7940   34.6350   45.0060 O   0  0  0  0  0  0  0  0  0  0  0  0
   59.1950   34.5410   44.8640 C   0  0  0  0  0  0  0  0  0  0  0  0
   59.8190   34.2330   46.2240 C   0  0  0  0  0  0  0  0  0  0  0  0
   60.3362   29.9655   44.5866 H   0  0  0  0  0  0  0  0  0  0  0  0
   61.3926   28.7241   45.3535 H   0  0  0  0  0  0  0  0  0  0  0  0
   60.3772   27.0629   46.9659 H   0  0  0  0  0  0  0  0  0  0  0  0
   58.3908   25.6141   47.3681 H   0  0  0  0  0  0  0  0  0  0  0  0
   55.9756   28.2626   44.9293 H   0  0  0  0  0  0  0  0  0  0  0  0
   57.9636   29.7049   44.5285 H   0  0  0  0  0  0  0  0  0  0  0  0
   58.8340   29.7980   47.6020 H   0  0  0  0  0  0  0  0  0  0  0  0
   60.1078   30.0881   50.1697 H   0  0  0  0  0  0  0  0  0  0  0  0
   60.2345   31.8251   51.9527 H   0  0  0  0  0  0  0  0  0  0  0  0
   59.8492   34.2253   51.3894 H   0  0  0  0  0  0  0  0  0  0  0  0
   59.2962   34.8884   49.0523 H   0  0  0  0  0  0  0  0  0  0  0  0
   58.4639   31.6372   45.7282 H   0  0  0  0  0  0  0  0  0  0  0  0
   57.2401   32.1232   46.9731 H   0  0  0  0  0  0  0  0  0  0  0  0
   57.2634   32.8140   44.2260 H   0  0  0  0  0  0  0  0  0  0  0  0
   56.2120   33.4890   45.5642 H   0  0  0  0  0  0  0  0  0  0  0  0
   59.4397   33.7353   44.1562 H   0  0  0  0  0  0  0  0  0  0  0  0
   59.5922   35.4933   44.4827 H   0  0  0  0  0  0  0  0  0  0  0  0
   60.8269   33.8184   46.0750 H   0  0  0  0  0  0  0  0  0  0  0  0
   59.8759   35.1624   46.8096 H   0  0  0  0  0  0  0  0  0  0  0  0
  1  2  2  0
  2  3  1  0
  3  4  1  0
  4  5  2  0
  5  6  1  0
  6  7  2  0
  7  8  1  0
  8  9  2  0
  8 10  1  0
  7 11  1  0
 11 12  2  0
  2 13  1  0
 13 14  1  0
 14 15  2  0
 15 16  1  0
 16 17  2  0
 17 18  1  0
 18 19  2  0
 19 20  1  0
 20 21  1  0
 21 22  1  0
 22 23  1  0
 23 24  1  0
 24 25  1  0
 12  4  1  0
 19 14  1  0
 25 20  1  0
  3 26  1  0
  3 27  1  0
  5 28  1  0
  6 29  1  0
 11 30  1  0
 12 31  1  0
 13 32  1  0
 15 33  1  0
 16 34  1  0
 17 35  1  0
 18 36  1  0
 21 37  1  0
 21 38  1  0
 22 39  1  0
 22 40  1  0
 24 41  1  0
 24 42  1  0
 25 43  1  0
 25 44  1  0
M  CHG  2   8   1  10  -1
M  END
>  <UniqueID>  (91) 
83

>  <SMILES>  (91) 
O=C(Cc1ccc([N+](=O)[O-])cc1)Nc1ccccc1N1CCOCC1

>  <Energy>  (91) 
59.01475484043305

>  <Genealogy>  (91) 
O=C(Cc1ccc([N+](=O)[O-])cc1)Nc1ccccc1N1CCOCC1 (3D coordinates assigned)
O=C(Cc1ccc([N+](=O)[O-])cc1)Nc1ccccc1N1CCOCC1 (nonaromatic ring conformer: 59.01475484043305 kcal/mol)

>  <smiles>  (91) 
O=C(Cc1ccc([N+](=O)[O-])cc1)Nc1ccccc1N1CCOCC1

>  <score_type>  (91) 
oracle

>  <origin>  (91) 
adg

>  <m_score__min__energy>  (91) 
-7.7000000000000002

>  <m_primary>  (91) 
energy

$$$$
91:0
     RDKit          3D

 43 46  0  0  0  0  0  0  0  0999 V2000
   58.7822   26.4325   47.0342 H   0  0  0  0  0  0  0  0  0  0  0  0
   58.3760   27.4010   46.7070 C   0  0  0  0  0  0  0  0  0  0  0  0
   57.3700   27.6540   45.3790 S   0  0  0  0  0  0  0  0  0  0  0  0
   57.2740   29.3090   45.6340 C   0  0  0  0  0  0  0  0  0  0  0  0
   56.5950   30.1150   44.8740 N   0  0  0  0  0  0  0  0  0  0  0  0
   57.1540   30.8470   43.7440 C   0  0  0  0  0  0  0  0  0  0  0  0
   57.7825   31.6700   44.1150 H   0  0  0  0  0  0  0  0  0  0  0  0
   57.7645   30.1666   43.1322 H   0  0  0  0  0  0  0  0  0  0  0  0
   56.3368   31.2568   43.1322 H   0  0  0  0  0  0  0  0  0  0  0  0
   57.9950   29.6910   46.7150 N   0  0  0  0  0  0  0  0  0  0  0  0
   58.0820   30.6740   47.0540 H   0  0  0  0  0  0  0  0  0  0  0  0
   58.6040   28.6330   47.3190 C   0  0  0  0  0  0  0  0  0  0  0  0
   59.5110   28.7990   48.5010 C   0  0  0  0  0  0  0  0  0  0  0  0
   59.2374   28.0681   49.2762 H   0  0  0  0  0  0  0  0  0  0  0  0
   60.5516   28.6339   48.1850 H   0  0  0  0  0  0  0  0  0  0  0  0
   59.3810   30.1510   49.0420 N   0  0  0  0  0  0  0  0  0  0  0  0
   59.6460   31.3220   48.4080 C   0  0  0  0  0  0  0  0  0  0  0  0
   60.1260   31.3870   47.2440 O   0  0  0  0  0  0  0  0  0  0  0  0
   59.3350   32.4140   49.1520 N   0  0  0  0  0  0  0  0  0  0  0  0
   59.5550   33.8190   48.8070 C   0  0  0  0  0  0  0  0  0  0  0  0
   59.0406   34.4581   49.5398 H   0  0  0  0  0  0  0  0  0  0  0  0
   60.6350   34.0274   48.8203 H   0  0  0  0  0  0  0  0  0  0  0  0
   59.0160   34.1060   47.4320 C   0  0  0  0  0  0  0  0  0  0  0  0
   59.7640   34.8630   46.5130 C   0  0  0  0  0  0  0  0  0  0  0  0
   60.7422   35.2712   46.8072 H   0  0  0  0  0  0  0  0  0  0  0  0
   59.2690   35.0990   45.2260 C   0  0  0  0  0  0  0  0  0  0  0  0
   59.8567   35.6945   44.5118 H   0  0  0  0  0  0  0  0  0  0  0  0
   58.0290   34.5790   44.8470 C   0  0  0  0  0  0  0  0  0  0  0  0
   57.6412   34.7646   43.8345 H   0  0  0  0  0  0  0  0  0  0  0  0
   57.2810   33.8230   45.7540 C   0  0  0  0  0  0  0  0  0  0  0  0
   56.3041   33.4155   45.4548 H   0  0  0  0  0  0  0  0  0  0  0  0
   57.7720   33.5840   47.0400 C   0  0  0  0  0  0  0  0  0  0  0  0
   57.1819   32.9844   47.7487 H   0  0  0  0  0  0  0  0  0  0  0  0
   58.8530   31.9010   50.3040 C   0  0  0  0  0  0  0  0  0  0  0  0
   58.3750   32.5710   51.4320 C   0  0  0  0  0  0  0  0  0  0  0  0
   58.3629   33.6700   51.4775 H   0  0  0  0  0  0  0  0  0  0  0  0
   57.9100   31.7950   52.5070 C   0  0  0  0  0  0  0  0  0  0  0  0
   57.5274   32.2898   53.4118 H   0  0  0  0  0  0  0  0  0  0  0  0
   57.9300   30.3850   52.4350 C   0  0  0  0  0  0  0  0  0  0  0  0
   57.5626   29.7901   53.2842 H   0  0  0  0  0  0  0  0  0  0  0  0
   58.4160   29.7350   51.2860 C   0  0  0  0  0  0  0  0  0  0  0  0
   58.4352   28.6372   51.2190 H   0  0  0  0  0  0  0  0  0  0  0  0
   58.8730   30.5300   50.2340 C   0  0  0  0  0  0  0  0  0  0  0  0
  1  2  1  0
  2  3  1  0
  3  4  1  0
  4  5  2  0
  5  6  1  0
  6  7  1  0
  6  8  1  0
  6  9  1  0
  4 10  1  0
 10 11  1  0
 10 12  1  0
 12 13  1  0
 13 14  1  0
 13 15  1  0
 13 16  1  0
 16 17  1  0
 17 18  2  0
 17 19  1  0
 19 20  1  0
 20 21  1  0
 20 22  1  0
 20 23  1  0
 23 24  2  0
 24 25  1  0
 24 26  1  0
 26 27  1  0
 26 28  2  0
 28 29  1  0
 28 30  1  0
 30 31  1  0
 30 32  2  0
 32 33  1  0
 19 34  1  0
 34 35  2  0
 35 36  1  0
 35 37  1  0
 37 38  1  0
 37 39  2  0
 39 40  1  0
 39 41  1  0
 41 42  1  0
 41 43  2  0
 12  2  2  0
 43 16  1  0
 32 23  1  0
 43 34  1  0
M  END
>  <UniqueID>  (92) 
84

>  <SMILES>  (92) 
C/N=c1\[nH]c(Cn2c(=O)n(Cc3ccccc3)c3ccccc32)cs1

>  <Energy>  (92) 
113.67373055265698

>  <Genealogy>  (92) 
C/N=c1\[nH]c(Cn2c(=O)n(Cc3ccccc3)c3ccccc32)cs1 (cis-trans isomerization)
C/N=c1\[nH]c(Cn2c(=O)n(Cc3ccccc3)c3ccccc32)cs1 (3D coordinates assigned)
C/N=c1\[nH]c(Cn2c(=O)n(Cc3ccccc3)c3ccccc32)cs1 (optimized conformer: 113.67373055265698 kcal/mol)

>  <smiles>  (92) 
CN=c1[nH]c(Cn2c(=O)n(Cc3ccccc3)c3ccccc32)cs1

>  <score_type>  (92) 
oracle

>  <origin>  (92) 
adg

>  <m_score__min__energy>  (92) 
-8.0800000000000001

>  <m_primary>  (92) 
energy

$$$$
92:0
     RDKit          3D

 41 43  0  0  0  0  0  0  0  0999 V2000
   55.2380   29.9020   44.5370 O   0  0  0  0  0  0  0  0  0  0  0  0
   56.1830   29.1560   44.9130 C   0  0  0  0  0  0  0  0  0  0  0  0
   57.5290   29.5630   44.6380 N   0  0  0  0  0  0  0  0  0  0  0  0
   58.2990   30.6030   45.2630 C   0  0  0  0  0  0  0  0  0  0  0  0
   57.9000   31.9310   45.0650 C   0  0  0  0  0  0  0  0  0  0  0  0
   58.5860   32.9800   45.6820 C   0  0  0  0  0  0  0  0  0  0  0  0
   59.6850   32.7190   46.5050 C   0  0  0  0  0  0  0  0  0  0  0  0
   60.3290   33.7920   47.1350 O   0  0  0  0  0  0  0  0  0  0  0  0
   61.5490   33.7130   47.8220 C   0  0  0  0  0  0  0  0  0  0  0  0
   62.6960   33.3350   47.1150 C   0  0  0  0  0  0  0  0  0  0  0  0
   63.9250   33.2100   47.7730 C   0  0  0  0  0  0  0  0  0  0  0  0
   64.0120   33.4520   49.1460 C   0  0  0  0  0  0  0  0  0  0  0  0
   62.8700   33.8230   49.8620 C   0  0  0  0  0  0  0  0  0  0  0  0
   61.6400   33.9510   49.2060 C   0  0  0  0  0  0  0  0  0  0  0  0
   60.0730   31.3880   46.7310 C   0  0  0  0  0  0  0  0  0  0  0  0
   59.3780   30.3360   46.1250 C   0  0  0  0  0  0  0  0  0  0  0  0
   55.8950   27.9240   45.5910 N   0  0  0  0  0  0  0  0  0  0  0  0
   56.8610   26.8920   45.8430 C   0  0  0  0  0  0  0  0  0  0  0  0
   58.1960   27.2420   46.1140 C   0  0  0  0  0  0  0  0  0  0  0  0
   59.1520   26.2620   46.4190 C   0  0  0  0  0  0  0  0  0  0  0  0
   60.5540   26.6460   46.6980 C   0  0  0  0  0  0  0  0  0  0  0  0
   60.8190   27.5190   47.5680 O   0  0  0  0  0  0  0  0  0  0  0  0
   61.6020   26.0390   46.0120 O   0  0  0  0  0  0  0  0  0  0  0  0
   58.7590   24.9160   46.4590 C   0  0  0  0  0  0  0  0  0  0  0  0
   57.4350   24.5580   46.1990 C   0  0  0  0  0  0  0  0  0  0  0  0
   56.4700   25.5310   45.8890 C   0  0  0  0  0  0  0  0  0  0  0  0
   55.0830   25.0910   45.5920 C   0  0  0  0  0  0  0  0  0  0  0  0
   54.8450   23.9230   45.1870 O   0  0  0  0  0  0  0  0  0  0  0  0
   54.0160   25.9620   45.7800 O   0  0  0  0  0  0  0  0  0  0  0  0
   57.0382   32.1500   44.4174 H   0  0  0  0  0  0  0  0  0  0  0  0
   58.2592   34.0176   45.5191 H   0  0  0  0  0  0  0  0  0  0  0  0
   62.6313   33.1348   46.0353 H   0  0  0  0  0  0  0  0  0  0  0  0
   64.8235   32.9208   47.2082 H   0  0  0  0  0  0  0  0  0  0  0  0
   64.9776   33.3508   49.6631 H   0  0  0  0  0  0  0  0  0  0  0  0
   62.9381   34.0147   50.9430 H   0  0  0  0  0  0  0  0  0  0  0  0
   60.7426   34.2383   49.7736 H   0  0  0  0  0  0  0  0  0  0  0  0
   60.9282   31.1717   47.3882 H   0  0  0  0  0  0  0  0  0  0  0  0
   59.6764   29.2960   46.3233 H   0  0  0  0  0  0  0  0  0  0  0  0
   58.4949   28.3003   46.0863 H   0  0  0  0  0  0  0  0  0  0  0  0
   59.4989   24.1376   46.6968 H   0  0  0  0  0  0  0  0  0  0  0  0
   57.1428   23.4982   46.2374 H   0  0  0  0  0  0  0  0  0  0  0  0
  1  2  2  0
  2  3  1  0
  3  4  1  0
  4  5  2  0
  5  6  1  0
  6  7  2  0
  7  8  1  0
  8  9  1  0
  9 10  2  0
 10 11  1  0
 11 12  2  0
 12 13  1  0
 13 14  2  0
  7 15  1  0
 15 16  2  0
  2 17  1  0
 17 18  1  0
 18 19  2  0
 19 20  1  0
 20 21  1  0
 21 22  2  0
 21 23  1  0
 20 24  2  0
 24 25  1  0
 25 26  2  0
 26 27  1  0
 27 28  2  0
 27 29  1  0
 16  4  1  0
 26 18  1  0
 14  9  1  0
  5 30  1  0
  6 31  1  0
 10 32  1  0
 11 33  1  0
 12 34  1  0
 13 35  1  0
 14 36  1  0
 15 37  1  0
 16 38  1  0
 19 39  1  0
 24 40  1  0
 25 41  1  0
M  CHG  4   3  -1  17  -1  23  -1  29  -1
M  END
>  <UniqueID>  (93) 
85

>  <SMILES>  (93) 
O=C([N-]c1ccc(Oc2ccccc2)cc1)[N-]c1cc(C(=O)[O-])ccc1C(=O)[O-]

>  <Energy>  (93) 
62.414438790994645

>  <Genealogy>  (93) 
O=C([N-]c1ccc(Oc2ccccc2)cc1)[N-]c1cc(C(=O)[O-])ccc1C(=O)[O-] (protonated)
O=C([N-]c1ccc(Oc2ccccc2)cc1)[N-]c1cc(C(=O)[O-])ccc1C(=O)[O-] (3D coordinates assigned)
O=C([N-]c1ccc(Oc2ccccc2)cc1)[N-]c1cc(C(=O)[O-])ccc1C(=O)[O-] (optimized conformer: 62.414438790994645 kcal/mol)

>  <smiles>  (93) 
O=C(Nc1ccc(Oc2ccccc2)cc1)Nc1cc(C(=O)O)ccc1C(=O)O

>  <score_type>  (93) 
oracle

>  <origin>  (93) 
adg

>  <m_score__min__energy>  (93) 
-15.619999999999999

>  <m_primary>  (93) 
energy

$$$$
93:0
     RDKit          3D

 63 66  0  0  0  0  0  0  0  0999 V2000
   59.2930   33.2350   50.0700 C   0  0  0  0  0  0  0  0  0  0  0  0
   58.7500   32.6780   48.8830 O   0  0  0  0  0  0  0  0  0  0  0  0
   58.7960   33.2860   47.6240 C   0  0  0  0  0  0  0  0  0  0  0  0
   57.7420   33.1360   46.6990 C   0  0  0  0  0  0  0  0  0  0  0  0
   57.7720   33.8030   45.4740 C   0  0  0  0  0  0  0  0  0  0  0  0
   58.8420   34.6410   45.1620 C   0  0  0  0  0  0  0  0  0  0  0  0
   59.8940   34.7880   46.0620 C   0  0  0  0  0  0  0  0  0  0  0  0
   59.9020   34.0920   47.2780 C   0  0  0  0  0  0  0  0  0  0  0  0
   61.0490   34.2530   48.1250 N   0  0  0  0  0  0  0  0  0  0  0  0
   62.5330   33.3710   48.0330 S   0  0  0  0  0  0  0  0  0  0  0  0
   62.8210   33.0220   46.6030 O   0  0  0  0  0  0  0  0  0  0  0  0
   63.6580   34.2040   48.5660 O   0  0  0  0  0  0  0  0  0  0  0  0
   62.4080   31.9290   49.0480 C   0  0  0  0  0  0  0  0  0  0  0  0
   61.4480   30.9700   48.7010 C   0  0  0  0  0  0  0  0  0  0  0  0
   61.2110   29.8550   49.5170 C   0  0  0  0  0  0  0  0  0  0  0  0
   60.1970   28.8890   49.1980 N   0  0  0  0  0  0  0  0  0  0  0  0
   60.1670   28.0470   48.0350 C   0  0  0  0  0  0  0  0  0  0  0  0
   60.8710   27.0090   48.0150 O   0  0  0  0  0  0  0  0  0  0  0  0
   59.2990   28.3430   46.8830 C   0  0  0  0  0  0  0  0  0  0  0  0
   59.7840   29.0860   45.7910 C   0  0  0  0  0  0  0  0  0  0  0  0
   58.9680   29.3210   44.6820 C   0  0  0  0  0  0  0  0  0  0  0  0
   57.6760   28.7900   44.6420 C   0  0  0  0  0  0  0  0  0  0  0  0
   57.1970   28.0220   45.7050 C   0  0  0  0  0  0  0  0  0  0  0  0
   55.9060   27.4190   45.6190 N   0  0  0  0  0  0  0  0  0  0  0  0
   55.6890   25.7070   45.7540 S   0  0  0  0  0  0  0  0  0  0  0  0
   56.5950   24.8280   44.5030 C   0  0  0  0  0  0  0  0  0  0  0  0
   54.2270   25.3850   45.6350 O   0  0  0  0  0  0  0  0  0  0  0  0
   56.1820   25.2650   47.0990 O   0  0  0  0  0  0  0  0  0  0  0  0
   57.9920   27.8340   46.8430 C   0  0  0  0  0  0  0  0  0  0  0  0
   61.9970   29.6670   50.6570 C   0  0  0  0  0  0  0  0  0  0  0  0
   62.9930   30.5900   50.9860 C   0  0  0  0  0  0  0  0  0  0  0  0
   63.2090   31.7230   50.1900 C   0  0  0  0  0  0  0  0  0  0  0  0
   64.2730   32.6210   50.5270 N   0  0  0  0  0  0  0  0  0  0  0  0
   65.6220   32.2930   50.0390 C   0  0  0  0  0  0  0  0  0  0  0  0
   66.6830   33.2890   50.5050 C   0  0  0  0  0  0  0  0  0  0  0  0
   66.4100   33.7830   51.7960 O   0  0  0  0  0  0  0  0  0  0  0  0
   65.2250   34.5410   51.7580 C   0  0  0  0  0  0  0  0  0  0  0  0
   64.0260   33.6260   51.5690 C   0  0  0  0  0  0  0  0  0  0  0  0
   58.8278   32.7578   50.9451 H   0  0  0  0  0  0  0  0  0  0  0  0
   60.3792   33.0625   50.0925 H   0  0  0  0  0  0  0  0  0  0  0  0
   59.0929   34.3164   50.0925 H   0  0  0  0  0  0  0  0  0  0  0  0
   56.8886   32.4873   46.9456 H   0  0  0  0  0  0  0  0  0  0  0  0
   56.9514   33.6678   44.7541 H   0  0  0  0  0  0  0  0  0  0  0  0
   58.8549   35.1852   44.2061 H   0  0  0  0  0  0  0  0  0  0  0  0
   60.7298   35.4593   45.8152 H   0  0  0  0  0  0  0  0  0  0  0  0
   60.8705   31.0938   47.7730 H   0  0  0  0  0  0  0  0  0  0  0  0
   60.8096   29.4833   45.8107 H   0  0  0  0  0  0  0  0  0  0  0  0
   59.3420   29.9234   43.8410 H   0  0  0  0  0  0  0  0  0  0  0  0
   57.0335   28.9779   43.7691 H   0  0  0  0  0  0  0  0  0  0  0  0
   57.3059   24.1383   44.9815 H   0  0  0  0  0  0  0  0  0  0  0  0
   55.8945   24.2562   43.8766 H   0  0  0  0  0  0  0  0  0  0  0  0
   57.1454   25.5454   43.8766 H   0  0  0  0  0  0  0  0  0  0  0  0
   57.5904   27.2857   47.7079 H   0  0  0  0  0  0  0  0  0  0  0  0
   61.8309   28.7887   51.2980 H   0  0  0  0  0  0  0  0  0  0  0  0
   63.6140   30.4257   51.8790 H   0  0  0  0  0  0  0  0  0  0  0  0
   65.8944   31.2927   50.4068 H   0  0  0  0  0  0  0  0  0  0  0  0
   65.5934   32.3322   48.9401 H   0  0  0  0  0  0  0  0  0  0  0  0
   67.6616   32.7867   50.5162 H   0  0  0  0  0  0  0  0  0  0  0  0
   66.6813   34.1396   49.8075 H   0  0  0  0  0  0  0  0  0  0  0  0
   65.1159   35.0933   52.7030 H   0  0  0  0  0  0  0  0  0  0  0  0
   65.2757   35.2469   50.9159 H   0  0  0  0  0  0  0  0  0  0  0  0
   63.8159   33.1118   52.5185 H   0  0  0  0  0  0  0  0  0  0  0  0
   63.1688   34.2412   51.2579 H   0  0  0  0  0  0  0  0  0  0  0  0
  1  2  1  0
  2  3  1  0
  3  4  2  0
  4  5  1  0
  5  6  2  0
  6  7  1  0
  7  8  2  0
  8  9  1  0
  9 10  1  0
 10 11  2  0
 10 12  2  0
 10 13  1  0
 13 14  2  0
 14 15  1  0
 15 16  1  0
 16 17  1  0
 17 18  2  0
 17 19  1  0
 19 20  2  0
 20 21  1  0
 21 22  2  0
 22 23  1  0
 23 24  1  0
 24 25  1  0
 25 26  1  0
 25 27  2  0
 25 28  2  0
 23 29  2  0
 15 30  2  0
 30 31  1  0
 31 32  2  0
 32 33  1  0
 33 34  1  0
 34 35  1  0
 35 36  1  0
 36 37  1  0
 37 38  1  0
  8  3  1  0
 32 13  1  0
 38 33  1  0
 29 19  1  0
  1 39  1  0
  1 40  1  0
  1 41  1  0
  4 42  1  0
  5 43  1  0
  6 44  1  0
  7 45  1  0
 14 46  1  0
 20 47  1  0
 21 48  1  0
 22 49  1  0
 26 50  1  0
 26 51  1  0
 26 52  1  0
 29 53  1  0
 30 54  1  0
 31 55  1  0
 34 56  1  0
 34 57  1  0
 35 58  1  0
 35 59  1  0
 37 60  1  0
 37 61  1  0
 38 62  1  0
 38 63  1  0
M  CHG  3   9  -1  16  -1  24  -1
M  END
>  <UniqueID>  (94) 
86

>  <SMILES>  (94) 
COc1ccccc1[N-]S(=O)(=O)c1cc([N-]C(=O)c2cccc([N-]S(C)(=O)=O)c2)ccc1N1CCOCC1

>  <Energy>  (94) 
90.604954406682

>  <Genealogy>  (94) 
COc1ccccc1[N-]S(=O)(=O)c1cc([N-]C(=O)c2cccc([N-]S(C)(=O)=O)c2)ccc1N1CCOCC1 (protonated)
COc1ccccc1[N-]S(=O)(=O)c1cc([N-]C(=O)c2cccc([N-]S(C)(=O)=O)c2)ccc1N1CCOCC1 (3D coordinates assigned)
COc1ccccc1[N-]S(=O)(=O)c1cc([N-]C(=O)c2cccc([N-]S(C)(=O)=O)c2)ccc1N1CCOCC1 (nonaromatic ring conformer: 90.604954406682 kcal/mol)

>  <smiles>  (94) 
COc1ccccc1NS(=O)(=O)c1cc(NC(=O)c2cccc(NS(C)(=O)=O)c2)ccc1N1CCOCC1

>  <score_type>  (94) 
oracle

>  <origin>  (94) 
adg

>  <m_score__min__energy>  (94) 
-14.789999999999999

>  <m_primary>  (94) 
energy

$$$$
94:0
     RDKit          3D

 46 49  0  0  0  0  0  0  0  0999 V2000
   55.5320   27.2980   45.2250 H   0  0  0  0  0  0  0  0  0  0  0  0
   55.1450   26.7100   45.9950 N   0  0  0  0  0  0  0  0  0  0  0  0
   55.5190   25.3400   46.1260 C   0  0  0  0  0  0  0  0  0  0  0  0
   54.7090   24.4320   45.7950 O   0  0  0  0  0  0  0  0  0  0  0  0
   56.8630   24.9830   46.6780 C   0  0  0  0  0  0  0  0  0  0  0  0
   56.7463   24.1893   47.4306 H   0  0  0  0  0  0  0  0  0  0  0  0
   57.5046   24.6336   45.8557 H   0  0  0  0  0  0  0  0  0  0  0  0
   57.4700   26.1210   47.2860 O   0  0  0  0  0  0  0  0  0  0  0  0
   58.6610   26.6940   46.8280 C   0  0  0  0  0  0  0  0  0  0  0  0
   59.7720   26.3420   47.3100 O   0  0  0  0  0  0  0  0  0  0  0  0
   58.6070   27.7140   45.7770 C   0  0  0  0  0  0  0  0  0  0  0  0
   57.6180   27.8250   44.9200 O   0  0  0  0  0  0  0  0  0  0  0  0
   57.8750   28.8370   44.1220 C   0  0  0  0  0  0  0  0  0  0  0  0
   56.9860   29.2960   43.0010 C   0  0  1  0  0  0  0  0  0  0  0  0
   57.3973   28.5850   42.2693 H   0  0  0  0  0  0  0  0  0  0  0  0
   55.5950   29.7540   43.4210 C   0  0  0  0  0  0  0  0  0  0  0  0
   54.7261   29.5226   42.7874 H   0  0  0  0  0  0  0  0  0  0  0  0
   54.9748   29.6263   44.3204 H   0  0  0  0  0  0  0  0  0  0  0  0
   56.6220   30.7840   42.9590 C   0  0  1  0  0  0  0  0  0  0  0  0
   56.6765   31.5625   42.1838 H   0  0  0  0  0  0  0  0  0  0  0  0
   57.1650   31.6650   44.0490 C   0  0  0  0  0  0  0  0  0  0  0  0
   57.0200   31.3290   45.2560 O   0  0  0  0  0  0  0  0  0  0  0  0
   57.8590   32.8700   43.6930 N   0  0  0  0  0  0  0  0  0  0  0  0
   58.2960   33.8060   44.4860 C   0  0  0  0  0  0  0  0  0  0  0  0
   58.1851   34.8499   44.1573 H   0  0  0  0  0  0  0  0  0  0  0  0
   58.9290   33.5610   45.7940 C   0  0  0  0  0  0  0  0  0  0  0  0
   60.2630   33.5600   45.9860 N   0  0  0  0  0  0  0  0  0  0  0  0
   60.3890   33.4100   47.3260 C   0  0  0  0  0  0  0  0  0  0  0  0
   61.6900   33.3300   48.0230 C   0  0  0  0  0  0  0  0  0  0  0  0
   61.8240   33.8340   49.3280 C   0  0  0  0  0  0  0  0  0  0  0  0
   60.9568   34.2858   49.8319 H   0  0  0  0  0  0  0  0  0  0  0  0
   63.0540   33.7640   49.9890 C   0  0  0  0  0  0  0  0  0  0  0  0
   63.1515   34.1603   51.0105 H   0  0  0  0  0  0  0  0  0  0  0  0
   64.1610   33.1910   49.3540 C   0  0  0  0  0  0  0  0  0  0  0  0
   65.7040   33.1040   50.1850 Cl  0  0  0  0  0  0  0  0  0  0  0  0
   64.0360   32.6850   48.0570 C   0  0  0  0  0  0  0  0  0  0  0  0
   64.9054   32.2318   47.5583 H   0  0  0  0  0  0  0  0  0  0  0  0
   62.8070   32.7540   47.3920 C   0  0  0  0  0  0  0  0  0  0  0  0
   62.7140   32.3558   46.3708 H   0  0  0  0  0  0  0  0  0  0  0  0
   59.2280   33.3480   47.9440 O   0  0  0  0  0  0  0  0  0  0  0  0
   58.3110   33.4530   47.0180 C   0  0  0  0  0  0  0  0  0  0  0  0
   56.9440   33.4890   47.2660 O   0  0  0  0  0  0  0  0  0  0  0  0
   59.0850   29.4100   44.4590 C   0  0  0  0  0  0  0  0  0  0  0  0
   59.5710   30.2680   43.9715 H   0  0  0  0  0  0  0  0  0  0  0  0
   59.5590   28.6860   45.5320 C   0  0  0  0  0  0  0  0  0  0  0  0
   60.4992   28.8480   46.0795 H   0  0  0  0  0  0  0  0  0  0  0  0
  1  2  1  0
  2  3  1  0
  3  4  2  0
  3  5  1  0
  5  6  1  0
  5  7  1  0
  5  8  1  0
  8  9  1  0
  9 10  2  0
  9 11  1  0
 11 12  1  0
 12 13  1  0
 13 14  1  0
 14 15  1  6
 14 16  1  0
 16 17  1  0
 16 18  1  0
 16 19  1  0
 19 20  1  6
 19 21  1  0
 21 22  2  0
 21 23  1  0
 23 24  2  0
 24 25  1  0
 24 26  1  0
 26 27  1  0
 27 28  2  0
 28 29  1  0
 29 30  2  0
 30 31  1  0
 30 32  1  0
 32 33  1  0
 32 34  2  0
 34 35  1  0
 34 36  1  0
 36 37  1  0
 36 38  2  0
 38 39  1  0
 28 40  1  0
 40 41  1  0
 41 42  1  0
 13 43  2  0
 43 44  1  0
 43 45  1  0
 45 46  1  0
 45 11  2  0
 19 14  1  0
 41 26  2  0
 38 29  1  0
M  CHG  2   2  -1  42  -1
M  END
>  <UniqueID>  (95) 
87

>  <SMILES>  (95) 
[NH-]C(=O)COC(=O)c1ccc([C@H]2C[C@H]2C(=O)/N=C\c2nc(-c3ccc(Cl)cc3)oc2[O-])o1

>  <Energy>  (95) 
377.94572407828116

>  <Genealogy>  (95) 
[NH-]C(=O)COC(=O)c1ccc(C2CC2C(=O)N=Cc2nc(-c3ccc(Cl)cc3)oc2[O-])o1 (protonated)
[NH-]C(=O)COC(=O)c1ccc([C@H]2C[C@H]2C(=O)N=Cc2nc(-c3ccc(Cl)cc3)oc2[O-])o1 (chirality)
[NH-]C(=O)COC(=O)c1ccc([C@H]2C[C@H]2C(=O)/N=C\c2nc(-c3ccc(Cl)cc3)oc2[O-])o1 (cis-trans isomerization)
[NH-]C(=O)COC(=O)c1ccc([C@H]2C[C@H]2C(=O)/N=C\c2nc(-c3ccc(Cl)cc3)oc2[O-])o1 (3D coordinates assigned)
[NH-]C(=O)COC(=O)c1ccc([C@H]2C[C@H]2C(=O)/N=C\c2nc(-c3ccc(Cl)cc3)oc2[O-])o1 (nonaromatic ring conformer: 377.94572407828116 kcal/mol)

>  <smiles>  (95) 
NC(=O)COC(=O)c1ccc(C2CC2C(=O)N=Cc2nc(-c3ccc(Cl)cc3)oc2O)o1

>  <score_type>  (95) 
oracle

>  <origin>  (95) 
adg

>  <m_score__min__energy>  (95) 
-13.41

>  <m_primary>  (95) 
energy

$$$$
95:0
     RDKit          3D

 49 52  0  0  1  0  0  0  0  0999 V2000
   66.2310   32.0000   50.1570 C   0  0  0  0  0  0  0  0  0  0  0  0
   65.7480   33.0940   49.4080 O   0  0  0  0  0  0  0  0  0  0  0  0
   64.3660   33.3400   49.3920 C   0  0  0  0  0  0  0  0  0  0  0  0
   63.6910   33.4140   48.1930 C   0  0  0  0  0  0  0  0  0  0  0  0
   62.3480   33.6520   48.1670 C   0  0  0  0  0  0  0  0  0  0  0  0
   61.6660   33.7290   47.0160 N   0  0  0  0  0  0  0  0  0  0  0  0
   60.3400   33.9640   46.9820 C   0  0  0  0  0  0  0  0  0  0  0  0
   59.7840   34.0190   45.8310 N   0  0  0  0  0  0  0  0  0  0  0  0
   58.9010   33.0150   45.3450 C   0  0  0  0  0  0  0  0  0  0  0  0
   58.6680   31.9090   46.1710 C   0  0  0  0  0  0  0  0  0  0  0  0
   57.8160   30.9090   45.7380 C   0  0  0  0  0  0  0  0  0  0  0  0
   57.1820   30.9600   44.5120 C   0  0  0  0  0  0  0  0  0  0  0  0
   56.2810   29.9070   44.0480 C   0  0  0  0  0  0  0  0  0  0  0  0
   56.4560   29.3920   42.7340 N   0  0  0  0  0  0  0  0  0  0  0  0
   55.3740   29.4730   44.8070 O   0  0  0  0  0  0  0  0  0  0  0  0
   57.4200   32.0650   43.6940 C   0  0  0  0  0  0  0  0  0  0  0  0
   58.2770   33.0860   44.1150 C   0  0  0  0  0  0  0  0  0  0  0  0
   59.6100   34.1370   48.0940 N   0  0  0  0  0  0  0  0  0  0  0  0
   60.2690   34.0650   49.2690 C   0  0  0  0  0  0  0  0  0  0  0  0
   59.6480   34.2170   50.3800 N   0  0  0  0  0  0  0  0  0  0  0  0
   58.9540   33.0960   50.9820 C   0  0  0  0  0  0  0  0  0  0  0  0
   58.1920   32.1820   50.0710 C   0  0  0  0  0  0  0  0  0  0  0  0
   59.5480   31.7560   50.5700 C   0  0  0  0  0  0  0  0  0  0  0  0
   61.6330   33.8240   49.3450 C   0  0  0  0  0  0  0  0  0  0  0  0
   62.3130   33.7490   50.5420 C   0  0  0  0  0  0  0  0  0  0  0  0
   63.6750   33.5080   50.5750 C   0  0  0  0  0  0  0  0  0  0  0  0
   64.3910   33.4260   51.7600 O   0  0  0  0  0  0  0  0  0  0  0  0
   65.0120   34.5590   52.2960 C   0  0  0  0  0  0  0  0  0  0  0  0
   66.1342   32.2193   51.2306 H   0  0  0  0  0  0  0  0  0  0  0  0
   65.6460   31.1012   49.9122 H   0  0  0  0  0  0  0  0  0  0  0  0
   67.2893   31.8267   49.9122 H   0  0  0  0  0  0  0  0  0  0  0  0
   64.2396   33.2801   47.2490 H   0  0  0  0  0  0  0  0  0  0  0  0
   62.1980   33.6000   46.1170 H   0  0  0  0  0  0  0  0  0  0  0  0
   59.1571   31.8360   47.1536 H   0  0  0  0  0  0  0  0  0  0  0  0
   57.6372   30.0433   46.3927 H   0  0  0  0  0  0  0  0  0  0  0  0
   55.6310   29.0160   42.1870 H   0  0  0  0  0  0  0  0  0  0  0  0
   57.3770   29.3540   42.2450 H   0  0  0  0  0  0  0  0  0  0  0  0
   56.9301   32.1332   42.7115 H   0  0  0  0  0  0  0  0  0  0  0  0
   58.4557   33.9526   43.4616 H   0  0  0  0  0  0  0  0  0  0  0  0
   58.5940   34.3160   48.0270 H   0  0  0  0  0  0  0  0  0  0  0  0
   58.6935   33.6138   51.9169 H   0  0  0  0  0  0  0  0  0  0  0  0
   57.2888   31.6721   50.4373 H   0  0  0  0  0  0  0  0  0  0  0  0
   57.7330   32.2886   49.0770 H   0  0  0  0  0  0  0  0  0  0  0  0
   59.6351   30.9417   51.3044 H   0  0  0  0  0  0  0  0  0  0  0  0
   60.4868   31.4284   50.0995 H   0  0  0  0  0  0  0  0  0  0  0  0
   61.7640   33.8829   51.4857 H   0  0  0  0  0  0  0  0  0  0  0  0
   64.9838   34.5075   53.3944 H   0  0  0  0  0  0  0  0  0  0  0  0
   66.0579   34.5986   51.9575 H   0  0  0  0  0  0  0  0  0  0  0  0
   64.4827   35.4619   51.9575 H   0  0  0  0  0  0  0  0  0  0  0  0
  1  2  1  0
  2  3  1  0
  3  4  2  0
  4  5  1  0
  5  6  1  0
  6  7  1  0
  7  8  2  0
  8  9  1  0
  9 10  2  0
 10 11  1  0
 11 12  2  0
 12 13  1  0
 13 14  1  0
 13 15  2  0
 12 16  1  0
 16 17  2  0
  7 18  1  0
 18 19  1  0
 19 20  2  0
 20 21  1  0
 21 22  1  0
 22 23  1  0
 19 24  1  0
 24 25  1  0
 25 26  2  0
 26 27  1  0
 27 28  1  0
 26  3  1  0
 24  5  2  0
 17  9  1  0
 23 21  1  0
  1 29  1  0
  1 30  1  0
  1 31  1  0
  4 32  1  0
  6 33  1  0
 10 34  1  0
 11 35  1  0
 14 36  1  0
 14 37  1  0
 16 38  1  0
 17 39  1  0
 18 40  1  0
 21 41  1  0
 22 42  1  0
 22 43  1  0
 23 44  1  0
 23 45  1  0
 25 46  1  0
 28 47  1  0
 28 48  1  0
 28 49  1  0
M  END
>  <smiles>  (96) 
COc1cc2[nH]c(=Nc3ccc(C(N)=O)cc3)[nH]c(=NC3CC3)c2cc1OC

>  <score_type>  (96) 
oracle

>  <origin>  (96) 
adg

>  <m_score__min__energy>  (96) 
-7.9900000000000002

>  <m_primary>  (96) 
energy

$$$$
