0:0
     RDKit          3D

 56 59  0  0  0  0  0  0  0  0999 V2000
   49.7856   29.3148   53.8224 H   0  0  0  0  0  0  0  0  0  0  0  0
   50.7000   29.7240   53.3680 C   0  0  0  0  0  0  0  0  0  0  0  0
   51.8970   29.0070   53.4360 C   0  0  0  0  0  0  0  0  0  0  0  0
   51.9225   28.0299   53.9405 H   0  0  0  0  0  0  0  0  0  0  0  0
   53.0610   29.5260   52.8660 C   0  0  0  0  0  0  0  0  0  0  0  0
   53.9954   28.9471   52.9068 H   0  0  0  0  0  0  0  0  0  0  0  0
   53.0450   30.7830   52.2410 C   0  0  0  0  0  0  0  0  0  0  0  0
   54.2520   31.2820   51.6430 N   0  0  0  0  0  0  0  0  0  0  0  0
   54.2210   31.5670   50.6370 H   0  0  0  0  0  0  0  0  0  0  0  0
   55.5410   31.2060   52.2680 C   0  0  0  0  0  0  0  0  0  0  0  0
   55.6750   30.6370   53.3850 O   0  0  0  0  0  0  0  0  0  0  0  0
   56.6800   31.7390   51.5740 N   0  0  0  0  0  0  0  0  0  0  0  0
   57.6820   31.0590   51.1000 C   0  0  0  0  0  0  0  0  0  0  0  0
   57.7310   29.7090   51.0300 N   0  0  0  0  0  0  0  0  0  0  0  0
   58.8750   29.2570   50.5150 N   0  0  0  0  0  0  0  0  0  0  0  0
   59.7340   30.2460   50.1720 C   0  0  0  0  0  0  0  0  0  0  0  0
   61.0780   30.0160   49.5530 C   0  0  0  0  0  0  0  0  0  0  0  0
   60.9429   29.4938   48.5943 H   0  0  0  0  0  0  0  0  0  0  0  0
   61.6761   29.4140   50.2530 H   0  0  0  0  0  0  0  0  0  0  0  0
   61.8280   31.3340   49.2990 C   0  0  0  0  0  0  0  0  0  0  0  0
   62.8746   31.1080   49.0468 H   0  0  0  0  0  0  0  0  0  0  0  0
   61.7714   31.9472   50.2104 H   0  0  0  0  0  0  0  0  0  0  0  0
   61.0710   32.2750   47.9200 S   0  0  0  0  0  0  0  0  0  0  0  0
   61.2620   33.9260   48.6890 C   0  0  0  0  0  0  0  0  0  0  0  0
   62.2530   34.3314   48.4368 H   0  0  0  0  0  0  0  0  0  0  0  0
   61.1622   33.8265   49.7799 H   0  0  0  0  0  0  0  0  0  0  0  0
   60.1810   34.8790   48.1750 C   0  0  0  0  0  0  0  0  0  0  0  0
   60.6549   35.6709   47.5764 H   0  0  0  0  0  0  0  0  0  0  0  0
   59.6554   35.3109   49.0394 H   0  0  0  0  0  0  0  0  0  0  0  0
   59.1850   34.1540   47.3260 C   0  0  0  0  0  0  0  0  0  0  0  0
   58.1430   33.4540   47.8290 N   0  0  0  0  0  0  0  0  0  0  0  0
   57.4100   32.8480   46.8950 N   0  0  0  0  0  0  0  0  0  0  0  0
   57.8630   33.0610   45.6400 C   0  0  0  0  0  0  0  0  0  0  0  0
   57.2950   32.5180   44.5990 N   0  0  0  0  0  0  0  0  0  0  0  0
   56.9710   31.1310   44.4050 C   0  0  0  0  0  0  0  0  0  0  0  0
   55.7750   30.7270   44.4010 O   0  0  0  0  0  0  0  0  0  0  0  0
   58.0810   30.1480   44.1990 C   0  0  0  0  0  0  0  0  0  0  0  0
   58.1199   29.8603   43.1380 H   0  0  0  0  0  0  0  0  0  0  0  0
   59.0329   30.6124   44.4961 H   0  0  0  0  0  0  0  0  0  0  0  0
   57.8480   28.9200   45.0400 C   0  0  0  0  0  0  0  0  0  0  0  0
   58.8960   28.3580   45.7910 C   0  0  0  0  0  0  0  0  0  0  0  0
   59.9011   28.8027   45.7473 H   0  0  0  0  0  0  0  0  0  0  0  0
   58.6650   27.2360   46.5930 C   0  0  0  0  0  0  0  0  0  0  0  0
   59.4893   26.7987   47.1755 H   0  0  0  0  0  0  0  0  0  0  0  0
   57.3890   26.6690   46.6560 C   0  0  0  0  0  0  0  0  0  0  0  0
   57.2099   25.7850   47.2857 H   0  0  0  0  0  0  0  0  0  0  0  0
   56.3390   27.2270   45.9170 C   0  0  0  0  0  0  0  0  0  0  0  0
   55.0670   26.6700   45.9890 O   0  0  0  0  0  0  0  0  0  0  0  0
   56.5680   28.3480   45.1110 C   0  0  0  0  0  0  0  0  0  0  0  0
   55.7411   28.7829   44.5304 H   0  0  0  0  0  0  0  0  0  0  0  0
   59.2410   34.0460   45.6400 S   0  0  0  0  0  0  0  0  0  0  0  0
   59.0880   31.7690   50.5120 S   0  0  0  0  0  0  0  0  0  0  0  0
   51.8320   31.4930   52.1500 C   0  0  0  0  0  0  0  0  0  0  0  0
   51.7600   32.6650   51.4730 F   0  0  0  0  0  0  0  0  0  0  0  0
   50.6670   30.9630   52.7210 C   0  0  0  0  0  0  0  0  0  0  0  0
   49.7228   31.5241   52.6599 H   0  0  0  0  0  0  0  0  0  0  0  0
  1  2  1  0
  2  3  2  0
  3  4  1  0
  3  5  1  0
  5  6  1  0
  5  7  2  0
  7  8  1  0
  8  9  1  0
  8 10  1  0
 10 11  2  0
 10 12  1  0
 12 13  2  0
 13 14  1  0
 14 15  1  0
 15 16  2  0
 16 17  1  0
 17 18  1  0
 17 19  1  0
 17 20  1  0
 20 21  1  0
 20 22  1  0
 20 23  1  0
 23 24  1  0
 24 25  1  0
 24 26  1  0
 24 27  1  0
 27 28  1  0
 27 29  1  0
 27 30  1  0
 30 31  2  0
 31 32  1  0
 32 33  1  0
 33 34  2  3
 34 35  1  0
 35 36  2  0
 35 37  1  0
 37 38  1  0
 37 39  1  0
 37 40  1  0
 40 41  2  0
 41 42  1  0
 41 43  1  0
 43 44  1  0
 43 45  2  0
 45 46  1  0
 45 47  1  0
 47 48  1  0
 47 49  2  0
 49 50  1  0
 33 51  1  0
 16 52  1  0
  7 53  1  0
 53 54  1  0
 53 55  2  0
 55 56  1  0
 55  2  1  0
 52 13  1  0
 51 30  1  0
 49 40  1  0
M  CHG  3  14  -1  32  -1  48  -1
M  END
>  <UniqueID>  (1) 
1

>  <SMILES>  (1) 
O=C(Cc1cccc([O-])c1)N=c1[n-]nc(CCSCCc2n[n-]/c(=N\C(=O)Nc3ccccc3F)s2)s1

>  <Energy>  (1) 
131.69083934443307

>  <Genealogy>  (1) 
O=C(Cc1cccc([O-])c1)N=c1[n-]nc(CCSCCc2n[n-]c(=NC(=O)Nc3ccccc3F)s2)s1 (protonated)
O=C(Cc1cccc([O-])c1)N=c1[n-]nc(CCSCCc2n[n-]/c(=N\C(=O)Nc3ccccc3F)s2)s1 (cis-trans isomerization)
O=C(Cc1cccc([O-])c1)N=c1[n-]nc(CCSCCc2n[n-]/c(=N\C(=O)Nc3ccccc3F)s2)s1 (3D coordinates assigned)
O=C(Cc1cccc([O-])c1)N=c1[n-]nc(CCSCCc2n[n-]/c(=N\C(=O)Nc3ccccc3F)s2)s1 (optimized conformer: 131.69083934443307 kcal/mol)

>  <smiles>  (1) 
O=C(Cc1cccc(O)c1)N=c1[nH]nc(CCSCCc2n[nH]c(=NC(=O)Nc3ccccc3F)s2)s1

>  <score_type>  (1) 
oracle

>  <origin>  (1) 
adg

>  <m_score__min__energy>  (1) 
-17.199999999999999

>  <m_primary>  (1) 
energy

$$$$
1:0
     RDKit          3D

 37 39  0  0  0  0  0  0  0  0999 V2000
   60.3040   34.2640   46.2730 O   0  0  0  0  0  0  0  0  0  0  0  0
   59.9390   33.0640   46.3910 C   0  0  0  0  0  0  0  0  0  0  0  0
   60.7610   32.1240   47.1040 N   0  0  0  0  0  0  0  0  0  0  0  0
   61.8140   32.5100   48.0060 C   0  0  0  0  0  0  0  0  0  0  0  0
   63.1080   31.9690   47.8900 C   0  0  0  0  0  0  0  0  0  0  0  0
   64.1240   32.3750   48.7610 C   0  0  0  0  0  0  0  0  0  0  0  0
   63.8630   33.3310   49.7450 C   0  0  0  0  0  0  0  0  0  0  0  0
   62.5870   33.8870   49.8570 C   0  0  0  0  0  0  0  0  0  0  0  0
   61.5660   33.4870   48.9870 C   0  0  0  0  0  0  0  0  0  0  0  0
   60.3330   34.0380   49.1130 F   0  0  0  0  0  0  0  0  0  0  0  0
   58.6830   32.6380   45.7510 C   0  0  0  0  0  0  0  0  0  0  0  0
   57.5830   33.4330   45.4770 C   0  0  0  0  0  0  0  0  0  0  0  0
   56.6640   32.6060   44.8690 C   0  0  0  0  0  0  0  0  0  0  0  0
   57.2620   31.3630   44.8080 C   0  0  0  0  0  0  0  0  0  0  0  0
   56.6550   30.1280   44.2210 C   0  0  0  0  0  0  0  0  0  0  0  0
   56.3000   29.2050   45.2500 O   0  0  0  0  0  0  0  0  0  0  0  0
   57.1220   28.1740   45.7360 C   0  0  0  0  0  0  0  0  0  0  0  0
   58.5190   28.3170   45.8660 C   0  0  0  0  0  0  0  0  0  0  0  0
   59.2930   27.2590   46.3520 C   0  0  0  0  0  0  0  0  0  0  0  0
   58.6870   26.0550   46.7140 C   0  0  0  0  0  0  0  0  0  0  0  0
   57.3030   25.9060   46.5930 C   0  0  0  0  0  0  0  0  0  0  0  0
   56.5230   26.9600   46.1070 C   0  0  0  0  0  0  0  0  0  0  0  0
   55.1480   26.7990   45.9890 O   0  0  0  0  0  0  0  0  0  0  0  0
   58.4610   31.4110   45.3410 O   0  0  0  0  0  0  0  0  0  0  0  0
   60.6520   31.1080   46.8880 H   0  0  0  0  0  0  0  0  0  0  0  0
   63.3214   31.2230   47.1103 H   0  0  0  0  0  0  0  0  0  0  0  0
   65.1305   31.9406   48.6709 H   0  0  0  0  0  0  0  0  0  0  0  0
   64.6625   33.6460   50.4317 H   0  0  0  0  0  0  0  0  0  0  0  0
   62.3836   34.6415   50.6312 H   0  0  0  0  0  0  0  0  0  0  0  0
   57.4668   34.5041   45.6990 H   0  0  0  0  0  0  0  0  0  0  0  0
   55.6618   32.8793   44.5072 H   0  0  0  0  0  0  0  0  0  0  0  0
   55.7529   30.4026   43.6547 H   0  0  0  0  0  0  0  0  0  0  0  0
   57.3913   29.6523   43.5565 H   0  0  0  0  0  0  0  0  0  0  0  0
   59.0014   29.2645   45.5840 H   0  0  0  0  0  0  0  0  0  0  0  0
   60.3824   27.3758   46.4493 H   0  0  0  0  0  0  0  0  0  0  0  0
   59.2987   25.2237   47.0944 H   0  0  0  0  0  0  0  0  0  0  0  0
   56.8259   24.9575   46.8807 H   0  0  0  0  0  0  0  0  0  0  0  0
  1  2  2  0
  2  3  1  0
  3  4  1  0
  4  5  2  0
  5  6  1  0
  6  7  2  0
  7  8  1  0
  8  9  2  0
  9 10  1  0
  2 11  1  0
 11 12  2  0
 12 13  1  0
 13 14  2  0
 14 15  1  0
 15 16  1  0
 16 17  1  0
 17 18  2  0
 18 19  1  0
 19 20  2  0
 20 21  1  0
 21 22  2  0
 22 23  1  0
 14 24  1  0
  9  4  1  0
 24 11  1  0
 22 17  1  0
  3 25  1  0
  5 26  1  0
  6 27  1  0
  7 28  1  0
  8 29  1  0
 12 30  1  0
 13 31  1  0
 15 32  1  0
 15 33  1  0
 18 34  1  0
 19 35  1  0
 20 36  1  0
 21 37  1  0
M  CHG  1  23  -1
M  END
>  <UniqueID>  (2) 
2

>  <SMILES>  (2) 
O=C(Nc1ccccc1F)c1ccc(COc2ccccc2[O-])o1

>  <Energy>  (2) 
68.38792899174136

>  <Genealogy>  (2) 
O=C(Nc1ccccc1F)c1ccc(COc2ccccc2[O-])o1 (protonated)
O=C(Nc1ccccc1F)c1ccc(COc2ccccc2[O-])o1 (3D coordinates assigned)
O=C(Nc1ccccc1F)c1ccc(COc2ccccc2[O-])o1 (optimized conformer: 68.38792899174136 kcal/mol)

>  <smiles>  (2) 
O=C(Nc1ccccc1F)c1ccc(COc2ccccc2O)o1

>  <score_type>  (2) 
oracle

>  <origin>  (2) 
adg

>  <m_score__min__energy>  (2) 
-12.470000000000001

>  <m_primary>  (2) 
energy

$$$$
2:0
     RDKit          3D

 63 66  0  0  0  0  0  0  0  0999 V2000
   56.9300   30.0950   44.2290 C   0  0  0  0  0  0  0  0  0  0  0  0
   58.4330   30.2540   44.4210 C   0  0  0  0  0  0  0  0  0  0  0  0
   58.7660   30.2420   45.8080 O   0  0  0  0  0  0  0  0  0  0  0  0
   59.1140   29.1120   46.5690 C   0  0  0  0  0  0  0  0  0  0  0  0
   58.3530   27.9250   46.5160 C   0  0  0  0  0  0  0  0  0  0  0  0
   58.6620   26.8370   47.3430 C   0  0  0  0  0  0  0  0  0  0  0  0
   57.7390   25.3400   47.2200 S   0  0  0  0  0  0  0  0  0  0  0  0
   57.5370   24.7200   48.5730 O   0  0  0  0  0  0  0  0  0  0  0  0
   56.3850   25.6370   46.6440 O   0  0  0  0  0  0  0  0  0  0  0  0
   58.5570   24.2460   46.1500 N   0  0  0  0  0  0  0  0  0  0  0  0
   57.9490   23.4520   45.1220 C   0  0  0  0  0  0  0  0  0  0  0  0
   58.6210   22.3190   44.6690 C   0  0  0  0  0  0  0  0  0  0  0  0
   58.0450   21.5050   43.6960 C   0  0  0  0  0  0  0  0  0  0  0  0
   56.8010   21.8460   43.1600 C   0  0  0  0  0  0  0  0  0  0  0  0
   56.2770   21.0850   42.3010 O   0  0  0  0  0  0  0  0  0  0  0  0
   56.1640   22.9920   43.5660 N   0  0  0  0  0  0  0  0  0  0  0  0
   54.8590   23.3570   43.0040 C   0  0  0  0  0  0  0  0  0  0  0  0
   56.7120   23.7800   44.5430 C   0  0  0  0  0  0  0  0  0  0  0  0
   59.7310   26.9360   48.2380 C   0  0  0  0  0  0  0  0  0  0  0  0
   60.5080   28.0920   48.2800 C   0  0  0  0  0  0  0  0  0  0  0  0
   60.2370   29.1710   47.4330 C   0  0  0  0  0  0  0  0  0  0  0  0
   61.1240   30.2630   47.4890 O   0  0  0  0  0  0  0  0  0  0  0  0
   60.7760   31.6430   47.3270 C   0  0  2  0  0  0  0  0  0  0  0  0
   62.0170   32.5300   47.2000 C   0  0  0  0  0  0  0  0  0  0  0  0
   61.9120   33.5590   48.3150 C   0  0  0  0  0  0  0  0  0  0  0  0
   60.5380   33.5180   48.8380 N   0  0  1  0  0  0  0  0  0  0  0  0
   59.6620   34.5950   48.2980 C   0  0  0  0  0  0  0  0  0  0  0  0
   58.9890   34.2680   46.9780 C   0  0  0  0  0  0  0  0  0  0  0  0
   59.6120   34.5860   45.7580 C   0  0  0  0  0  0  0  0  0  0  0  0
   59.0090   34.2410   44.5450 C   0  0  0  0  0  0  0  0  0  0  0  0
   57.7650   33.6050   44.5350 C   0  0  0  0  0  0  0  0  0  0  0  0
   57.1170   33.3230   45.7400 C   0  0  0  0  0  0  0  0  0  0  0  0
   57.7200   33.6610   46.9560 C   0  0  0  0  0  0  0  0  0  0  0  0
   60.0490   32.1560   48.5680 C   0  0  0  0  0  0  0  0  0  0  0  0
   56.4383   30.0430   45.2116 H   0  0  0  0  0  0  0  0  0  0  0  0
   56.5388   30.9568   43.6684 H   0  0  0  0  0  0  0  0  0  0  0  0
   56.7277   29.1704   43.6684 H   0  0  0  0  0  0  0  0  0  0  0  0
   58.9515   29.4247   43.9175 H   0  0  0  0  0  0  0  0  0  0  0  0
   58.7458   31.2163   43.9895 H   0  0  0  0  0  0  0  0  0  0  0  0
   57.5068   27.8529   45.8169 H   0  0  0  0  0  0  0  0  0  0  0  0
   59.6093   22.0663   45.0807 H   0  0  0  0  0  0  0  0  0  0  0  0
   58.5665   20.5996   43.3521 H   0  0  0  0  0  0  0  0  0  0  0  0
   54.1502   23.5552   43.8215 H   0  0  0  0  0  0  0  0  0  0  0  0
   54.9661   24.2597   42.3845 H   0  0  0  0  0  0  0  0  0  0  0  0
   54.4822   22.5298   42.3845 H   0  0  0  0  0  0  0  0  0  0  0  0
   56.1769   24.6807   44.8783 H   0  0  0  0  0  0  0  0  0  0  0  0
   59.9600   26.0976   48.9123 H   0  0  0  0  0  0  0  0  0  0  0  0
   61.3462   28.1566   48.9894 H   0  0  0  0  0  0  0  0  0  0  0  0
   60.1548   31.6946   46.4206 H   0  0  0  0  0  0  0  0  0  0  0  0
   62.9304   31.9288   47.3193 H   0  0  0  0  0  0  0  0  0  0  0  0
   62.0698   33.0103   46.2118 H   0  0  0  0  0  0  0  0  0  0  0  0
   62.6248   33.3158   49.1167 H   0  0  0  0  0  0  0  0  0  0  0  0
   62.1477   34.5635   47.9337 H   0  0  0  0  0  0  0  0  0  0  0  0
   60.5750   33.6550   49.8770 H   0  0  0  0  0  0  0  0  0  0  0  0
   58.8768   34.8013   49.0402 H   0  0  0  0  0  0  0  0  0  0  0  0
   60.3163   35.4581   48.1057 H   0  0  0  0  0  0  0  0  0  0  0  0
   60.5795   35.1093   45.7583 H   0  0  0  0  0  0  0  0  0  0  0  0
   59.5152   34.4708   43.5958 H   0  0  0  0  0  0  0  0  0  0  0  0
   57.2965   33.3267   43.5795 H   0  0  0  0  0  0  0  0  0  0  0  0
   56.1314   32.8346   45.7326 H   0  0  0  0  0  0  0  0  0  0  0  0
   57.1985   33.4508   47.9014 H   0  0  0  0  0  0  0  0  0  0  0  0
   60.2649   31.5027   49.4263 H   0  0  0  0  0  0  0  0  0  0  0  0
   58.9612   32.1610   48.4045 H   0  0  0  0  0  0  0  0  0  0  0  0
  1  2  1  0
  2  3  1  0
  3  4  1  0
  4  5  2  0
  5  6  1  0
  6  7  1  0
  7  8  2  0
  7  9  2  0
  7 10  1  0
 10 11  1  0
 11 12  1  0
 12 13  2  0
 13 14  1  0
 14 15  2  0
 14 16  1  0
 16 17  1  0
 16 18  1  0
  6 19  2  0
 19 20  1  0
 20 21  2  0
 21 22  1  0
 22 23  1  0
 23 24  1  0
 24 25  1  0
 25 26  1  0
 26 27  1  0
 27 28  1  0
 28 29  2  0
 29 30  1  0
 30 31  2  0
 31 32  1  0
 32 33  2  0
 26 34  1  0
 21  4  1  0
 34 23  1  0
 18 11  2  0
 33 28  1  0
  1 35  1  0
  1 36  1  0
  1 37  1  0
  2 38  1  0
  2 39  1  0
  5 40  1  0
 12 41  1  0
 13 42  1  0
 17 43  1  0
 17 44  1  0
 17 45  1  0
 18 46  1  0
 19 47  1  0
 20 48  1  0
 23 49  1  6
 24 50  1  0
 24 51  1  0
 25 52  1  0
 25 53  1  0
 26 54  1  1
 27 55  1  0
 27 56  1  0
 29 57  1  0
 30 58  1  0
 31 59  1  0
 32 60  1  0
 33 61  1  0
 34 62  1  0
 34 63  1  0
M  CHG  2  10  -1  26   1
M  END
>  <UniqueID>  (3) 
3

>  <SMILES>  (3) 
CCOc1cc(S(=O)(=O)[N-]c2ccc(=O)n(C)c2)ccc1O[C@@H]1CC[N@@H+](Cc2ccccc2)C1

>  <Energy>  (3) 
79.9550453055057

>  <Genealogy>  (3) 
CCOc1cc(S(=O)(=O)[N-]c2ccc(=O)n(C)c2)ccc1OC1CC[NH+](Cc2ccccc2)C1 (protonated)
CCOc1cc(S(=O)(=O)[N-]c2ccc(=O)n(C)c2)ccc1O[C@@H]1CC[N@@H+](Cc2ccccc2)C1 (chirality)
CCOc1cc(S(=O)(=O)[N-]c2ccc(=O)n(C)c2)ccc1O[C@@H]1CC[N@@H+](Cc2ccccc2)C1 (3D coordinates assigned)
CCOc1cc(S(=O)(=O)[N-]c2ccc(=O)n(C)c2)ccc1O[C@@H]1CC[N@@H+](Cc2ccccc2)C1 (nonaromatic ring conformer: 79.9550453055057 kcal/mol)

>  <smiles>  (3) 
CCOc1cc(S(=O)(=O)Nc2ccc(=O)n(C)c2)ccc1OC1CCN(Cc2ccccc2)C1

>  <score_type>  (3) 
oracle

>  <origin>  (3) 
adg

>  <m_score__min__energy>  (3) 
-9.8499999999999996

>  <m_primary>  (3) 
energy

$$$$
3:0
     RDKit          3D

 62 64  0  0  0  0  0  0  0  0999 V2000
   58.4490   21.6360   45.5570 C   0  0  0  0  0  0  0  0  0  0  0  0
   58.6490   21.9820   44.0810 C   0  0  0  0  0  0  0  0  0  0  0  0
   57.4000   21.7020   43.2330 C   0  0  0  0  0  0  0  0  0  0  0  0
   56.3700   22.8440   43.3070 C   0  0  0  0  0  0  0  0  0  0  0  0
   55.4350   22.7100   44.5210 C   0  0  0  0  0  0  0  0  0  0  0  0
   54.8520   24.0610   44.9630 C   0  0  0  0  0  0  0  0  0  0  0  0
   55.1670   24.3330   46.3750 N   0  0  0  0  0  0  0  0  0  0  0  0
   56.6130   24.4120   46.6510 C   0  0  0  0  0  0  0  0  0  0  0  0
   57.2310   25.6970   46.1340 C   0  0  0  0  0  0  0  0  0  0  0  0
   58.6260   25.8050   45.9700 C   0  0  0  0  0  0  0  0  0  0  0  0
   59.4690   24.7550   46.3190 O   0  0  0  0  0  0  0  0  0  0  0  0
   59.1830   26.9740   45.4500 C   0  0  0  0  0  0  0  0  0  0  0  0
   58.3690   28.0490   45.0890 C   0  0  0  0  0  0  0  0  0  0  0  0
   56.9720   27.9550   45.2310 C   0  0  0  0  0  0  0  0  0  0  0  0
   56.4090   26.7860   45.7760 C   0  0  0  0  0  0  0  0  0  0  0  0
   55.0330   26.7130   45.9740 O   0  0  0  0  0  0  0  0  0  0  0  0
   56.0950   29.1320   44.8810 C   0  0  0  0  0  0  0  0  0  0  0  0
   56.7770   30.1040   43.9080 C   0  0  0  0  0  0  0  0  0  0  0  0
   58.2430   30.4050   44.2830 C   0  0  1  0  0  0  0  0  0  0  0  0
   58.4150   31.4510   45.4040 C   0  0  0  0  0  0  0  0  0  0  0  0
   57.6200   32.7170   45.2010 C   0  0  0  0  0  0  0  0  0  0  0  0
   56.3640   32.6680   45.2580 O   0  0  0  0  0  0  0  0  0  0  0  0
   58.2480   33.9870   44.9770 N   0  0  0  0  0  0  0  0  0  0  0  0
   59.6870   34.2180   44.9870 C   0  0  0  0  0  0  0  0  0  0  0  0
   60.1980   34.1500   46.3970 C   0  0  0  0  0  0  0  0  0  0  0  0
   59.3210   34.3680   47.4720 C   0  0  0  0  0  0  0  0  0  0  0  0
   59.7890   34.2950   48.7880 C   0  0  0  0  0  0  0  0  0  0  0  0
   61.1340   34.0130   49.0390 C   0  0  0  0  0  0  0  0  0  0  0  0
   62.0180   33.8130   47.9740 C   0  0  0  0  0  0  0  0  0  0  0  0
   61.5540   33.8890   46.6560 C   0  0  0  0  0  0  0  0  0  0  0  0
   58.9640   29.2080   44.5790 O   0  0  0  0  0  0  0  0  0  0  0  0
   58.9020   22.4197   46.1820 H   0  0  0  0  0  0  0  0  0  0  0  0
   57.3730   21.5692   45.7754 H   0  0  0  0  0  0  0  0  0  0  0  0
   58.9282   20.6702   45.7754 H   0  0  0  0  0  0  0  0  0  0  0  0
   58.8969   23.0507   44.0004 H   0  0  0  0  0  0  0  0  0  0  0  0
   59.4607   21.3464   43.6975 H   0  0  0  0  0  0  0  0  0  0  0  0
   57.7071   21.5711   42.1849 H   0  0  0  0  0  0  0  0  0  0  0  0
   56.9223   20.7943   43.6304 H   0  0  0  0  0  0  0  0  0  0  0  0
   56.9076   23.8010   43.3787 H   0  0  0  0  0  0  0  0  0  0  0  0
   55.7508   22.7977   42.3990 H   0  0  0  0  0  0  0  0  0  0  0  0
   54.6061   22.0372   44.2559 H   0  0  0  0  0  0  0  0  0  0  0  0
   56.0267   22.3102   45.3576 H   0  0  0  0  0  0  0  0  0  0  0  0
   55.2795   24.8593   44.3385 H   0  0  0  0  0  0  0  0  0  0  0  0
   53.7586   24.0264   44.8475 H   0  0  0  0  0  0  0  0  0  0  0  0
   54.7210   25.2420   46.6440 H   0  0  0  0  0  0  0  0  0  0  0  0
   56.7685   24.3578   47.7386 H   0  0  0  0  0  0  0  0  0  0  0  0
   57.0998   23.5732   46.1319 H   0  0  0  0  0  0  0  0  0  0  0  0
   60.2731   27.0491   45.3235 H   0  0  0  0  0  0  0  0  0  0  0  0
   55.1710   28.7576   44.4161 H   0  0  0  0  0  0  0  0  0  0  0  0
   55.8858   29.6813   45.8108 H   0  0  0  0  0  0  0  0  0  0  0  0
   56.7566   29.6630   42.9005 H   0  0  0  0  0  0  0  0  0  0  0  0
   56.2249   31.0544   43.9522 H   0  0  0  0  0  0  0  0  0  0  0  0
   58.6775   30.8671   43.3843 H   0  0  0  0  0  0  0  0  0  0  0  0
   58.0980   30.9939   46.3530 H   0  0  0  0  0  0  0  0  0  0  0  0
   59.4758   31.7422   45.4022 H   0  0  0  0  0  0  0  0  0  0  0  0
   60.1856   33.4484   44.3794 H   0  0  0  0  0  0  0  0  0  0  0  0
   59.9003   35.2127   44.5686 H   0  0  0  0  0  0  0  0  0  0  0  0
   58.2626   34.5969   47.2784 H   0  0  0  0  0  0  0  0  0  0  0  0
   59.0968   34.4599   49.6268 H   0  0  0  0  0  0  0  0  0  0  0  0
   61.4980   33.9482   50.0750 H   0  0  0  0  0  0  0  0  0  0  0  0
   63.0780   33.5960   48.1723 H   0  0  0  0  0  0  0  0  0  0  0  0
   62.2535   33.7439   45.8196 H   0  0  0  0  0  0  0  0  0  0  0  0
  1  2  1  0
  2  3  1  0
  3  4  1  0
  4  5  1  0
  5  6  1  0
  6  7  1  0
  7  8  1  0
  8  9  1  0
  9 10  2  0
 10 11  1  0
 10 12  1  0
 12 13  2  0
 13 14  1  0
 14 15  2  0
 15 16  1  0
 14 17  1  0
 17 18  1  0
 18 19  1  0
 19 20  1  0
 20 21  1  0
 21 22  2  0
 21 23  1  0
 23 24  1  0
 24 25  1  0
 25 26  2  0
 26 27  1  0
 27 28  2  0
 28 29  1  0
 29 30  2  0
 19 31  1  0
 15  9  1  0
 30 25  1  0
 31 13  1  0
  1 32  1  0
  1 33  1  0
  1 34  1  0
  2 35  1  0
  2 36  1  0
  3 37  1  0
  3 38  1  0
  4 39  1  0
  4 40  1  0
  5 41  1  0
  5 42  1  0
  6 43  1  0
  6 44  1  0
  7 45  1  0
  8 46  1  0
  8 47  1  0
 12 48  1  0
 17 49  1  0
 17 50  1  0
 18 51  1  0
 18 52  1  0
 19 53  1  6
 20 54  1  0
 20 55  1  0
 24 56  1  0
 24 57  1  0
 26 58  1  0
 27 59  1  0
 28 60  1  0
 29 61  1  0
 30 62  1  0
M  CHG  3  11  -1  16  -1  23  -1
M  END
>  <UniqueID>  (4) 
4

>  <SMILES>  (4) 
CCCCCCNCc1c([O-])cc2c(c1[O-])CC[C@@H](CC(=O)[N-]Cc1ccccc1)O2

>  <Energy>  (4) 
54.75268938675455

>  <Genealogy>  (4) 
CCCCCCNCc1c([O-])cc2c(c1[O-])CCC(CC(=O)[N-]Cc1ccccc1)O2 (protonated)
CCCCCCNCc1c([O-])cc2c(c1[O-])CC[C@@H](CC(=O)[N-]Cc1ccccc1)O2 (chirality)
CCCCCCNCc1c([O-])cc2c(c1[O-])CC[C@@H](CC(=O)[N-]Cc1ccccc1)O2 (3D coordinates assigned)
CCCCCCNCc1c([O-])cc2c(c1[O-])CC[C@@H](CC(=O)[N-]Cc1ccccc1)O2 (nonaromatic ring conformer: 54.75268938675455 kcal/mol)

>  <smiles>  (4) 
CCCCCCNCc1c(O)cc2c(c1O)CCC(CC(=O)NCc1ccccc1)O2

>  <score_type>  (4) 
oracle

>  <origin>  (4) 
adg

>  <m_score__min__energy>  (4) 
-14.859999999999999

>  <m_primary>  (4) 
energy

$$$$
4:0
     RDKit          3D

 46 48  0  0  0  0  0  0  0  0999 V2000
   49.9850   33.7050   51.9950 H   0  0  0  0  0  0  0  0  0  0  0  0
   50.3640   32.7360   52.0850 N   0  0  0  0  0  0  0  0  0  0  0  0
   51.3830   32.2630   51.2060 C   0  0  0  0  0  0  0  0  0  0  0  0
   51.4370   32.7130   50.0300 O   0  0  0  0  0  0  0  0  0  0  0  0
   52.3670   31.2540   51.6670 C   0  0  0  0  0  0  0  0  0  0  0  0
   51.9590   29.9430   51.9730 C   0  0  0  0  0  0  0  0  0  0  0  0
   50.8994   29.6639   51.8763 H   0  0  0  0  0  0  0  0  0  0  0  0
   52.8910   28.9930   52.3990 C   0  0  0  0  0  0  0  0  0  0  0  0
   52.5627   27.9695   52.6326 H   0  0  0  0  0  0  0  0  0  0  0  0
   54.2360   29.3380   52.5290 C   0  0  0  0  0  0  0  0  0  0  0  0
   54.9663   28.5827   52.8548 H   0  0  0  0  0  0  0  0  0  0  0  0
   54.6610   30.6440   52.2460 C   0  0  0  0  0  0  0  0  0  0  0  0
   56.1160   31.0050   52.3480 C   0  0  0  0  0  0  0  0  0  0  0  0
   56.4169   31.0249   53.4058 H   0  0  0  0  0  0  0  0  0  0  0  0
   56.2827   31.9976   51.9043 H   0  0  0  0  0  0  0  0  0  0  0  0
   56.9090   30.0080   51.6330 N   0  0  0  0  0  0  0  0  0  0  0  0
   58.0230   30.2240   50.9940 C   0  0  0  0  0  0  0  0  0  0  0  0
   58.1500   29.7380   49.7300 N   0  0  0  0  0  0  0  0  0  0  0  0
   59.2760   29.9090   48.9790 C   0  0  0  0  0  0  0  0  0  0  0  0
   59.3230   29.3460   47.6050 C   0  0  0  0  0  0  0  0  0  0  0  0
   60.4900   29.4220   46.8240 C   0  0  0  0  0  0  0  0  0  0  0  0
   61.3876   29.9119   47.2293 H   0  0  0  0  0  0  0  0  0  0  0  0
   60.5170   28.8800   45.5380 C   0  0  0  0  0  0  0  0  0  0  0  0
   61.4318   28.9519   44.9313 H   0  0  0  0  0  0  0  0  0  0  0  0
   59.3860   28.2470   45.0200 C   0  0  0  0  0  0  0  0  0  0  0  0
   59.4135   27.8289   44.0029 H   0  0  0  0  0  0  0  0  0  0  0  0
   58.2150   28.1390   45.7840 C   0  0  0  0  0  0  0  0  0  0  0  0
   57.0710   27.4740   45.2180 N   0  0  0  0  0  0  0  0  0  0  0  0
   56.6770   27.8290   44.3180 H   0  0  0  0  0  0  0  0  0  0  0  0
   56.3610   26.0230   45.8570 S   0  0  0  0  0  0  0  0  0  0  0  0
   54.8780   26.2250   45.9840 O   0  0  0  0  0  0  0  0  0  0  0  0
   56.9270   25.7280   47.2160 O   0  0  0  0  0  0  0  0  0  0  0  0
   56.6510   24.6570   44.7510 C   0  0  0  0  0  0  0  0  0  0  0  0
   56.8444   23.7460   45.3363 H   0  0  0  0  0  0  0  0  0  0  0  0
   55.7653   24.5042   44.1169 H   0  0  0  0  0  0  0  0  0  0  0  0
   57.5224   24.8773   44.1169 H   0  0  0  0  0  0  0  0  0  0  0  0
   58.1910   28.6990   47.0760 C   0  0  0  0  0  0  0  0  0  0  0  0
   57.2744   28.6296   47.6801 H   0  0  0  0  0  0  0  0  0  0  0  0
   60.3520   30.6310   49.5220 C   0  0  0  0  0  0  0  0  0  0  0  0
   61.2658   30.7909   48.9309 H   0  0  0  0  0  0  0  0  0  0  0  0
   60.2540   31.1440   50.8160 C   0  0  0  0  0  0  0  0  0  0  0  0
   61.0938   31.7074   51.2489 H   0  0  0  0  0  0  0  0  0  0  0  0
   59.0920   30.9430   51.5610 C   0  0  0  0  0  0  0  0  0  0  0  0
   59.0118   31.3429   52.5826 H   0  0  0  0  0  0  0  0  0  0  0  0
   53.7260   31.5940   51.8030 C   0  0  0  0  0  0  0  0  0  0  0  0
   54.0592   32.6138   51.5600 H   0  0  0  0  0  0  0  0  0  0  0  0
  1  2  1  0
  2  3  1  0
  3  4  2  0
  3  5  1  0
  5  6  2  0
  6  7  1  0
  6  8  1  0
  8  9  1  0
  8 10  2  0
 10 11  1  0
 10 12  1  0
 12 13  1  0
 13 14  1  0
 13 15  1  0
 13 16  1  0
 16 17  2  0
 17 18  1  0
 18 19  1  0
 19 20  1  0
 20 21  2  0
 21 22  1  0
 21 23  1  0
 23 24  1  0
 23 25  2  0
 25 26  1  0
 25 27  1  0
 27 28  1  0
 28 29  1  0
 28 30  1  0
 30 31  2  0
 30 32  2  0
 30 33  1  0
 33 34  1  0
 33 35  1  0
 33 36  1  0
 27 37  2  0
 37 38  1  0
 19 39  2  0
 39 40  1  0
 39 41  1  0
 41 42  1  0
 41 43  2  0
 43 44  1  0
 12 45  2  0
 45 46  1  0
 45  5  1  0
 43 17  1  0
 37 20  1  0
M  CHG  2   2  -1  18  -1
M  END
>  <UniqueID>  (5) 
5

>  <SMILES>  (5) 
CS(=O)(=O)Nc1cccc(-c2ccc/c(=N\Cc3cccc(C([NH-])=O)c3)[n-]2)c1

>  <Energy>  (5) 
52.50923607300798

>  <Genealogy>  (5) 
CS(=O)(=O)Nc1cccc(-c2cccc(=NCc3cccc(C([NH-])=O)c3)[n-]2)c1 (protonated)
CS(=O)(=O)Nc1cccc(-c2ccc/c(=N\Cc3cccc(C([NH-])=O)c3)[n-]2)c1 (cis-trans isomerization)
CS(=O)(=O)Nc1cccc(-c2ccc/c(=N\Cc3cccc(C([NH-])=O)c3)[n-]2)c1 (3D coordinates assigned)
CS(=O)(=O)Nc1cccc(-c2ccc/c(=N\Cc3cccc(C([NH-])=O)c3)[n-]2)c1 (optimized conformer: 52.50923607300798 kcal/mol)

>  <smiles>  (5) 
CS(=O)(=O)Nc1cccc(-c2cccc(=NCc3cccc(C(N)=O)c3)[nH]2)c1

>  <score_type>  (5) 
oracle

>  <origin>  (5) 
adg

>  <m_score__min__energy>  (5) 
-15

>  <m_primary>  (5) 
energy

$$$$
5:0
     RDKit          3D

 29 30  0  0  0  0  0  0  0  0999 V2000
   59.2800   35.4600   46.7160 O   0  0  0  0  0  0  0  0  0  0  0  0
   58.7950   34.2680   46.1910 C   0  0  0  0  0  0  0  0  0  0  0  0
   58.6280   33.1550   47.0200 C   0  0  0  0  0  0  0  0  0  0  0  0
   58.1390   31.9550   46.4930 C   0  0  0  0  0  0  0  0  0  0  0  0
   57.7990   31.8630   45.1340 C   0  0  0  0  0  0  0  0  0  0  0  0
   57.3250   30.6110   44.6090 N   0  0  0  0  0  0  0  0  0  0  0  0
   57.7880   29.3210   45.0420 C   0  0  0  0  0  0  0  0  0  0  0  0
   59.3720   29.1130   45.4390 S   0  0  0  0  0  0  0  0  0  0  0  0
   56.9510   28.1760   44.8150 N   0  0  0  0  0  0  0  0  0  0  0  0
   57.1470   26.9000   45.4450 C   0  0  0  0  0  0  0  0  0  0  0  0
   58.4240   26.3160   45.4260 C   0  0  0  0  0  0  0  0  0  0  0  0
   58.6440   25.0700   46.0220 C   0  0  0  0  0  0  0  0  0  0  0  0
   59.9220   24.5160   46.0060 O   0  0  0  0  0  0  0  0  0  0  0  0
   57.5790   24.3900   46.6290 C   0  0  0  0  0  0  0  0  0  0  0  0
   56.2990   24.9510   46.6270 C   0  0  0  0  0  0  0  0  0  0  0  0
   56.0750   26.1950   46.0270 C   0  0  0  0  0  0  0  0  0  0  0  0
   54.7840   26.7090   45.9930 O   0  0  0  0  0  0  0  0  0  0  0  0
   57.9910   32.9810   44.3020 C   0  0  0  0  0  0  0  0  0  0  0  0
   58.4800   34.1790   44.8320 C   0  0  0  0  0  0  0  0  0  0  0  0
   58.8815   33.2228   48.0883 H   0  0  0  0  0  0  0  0  0  0  0  0
   58.0202   31.0786   47.1471 H   0  0  0  0  0  0  0  0  0  0  0  0
   56.5930   30.6390   43.8640 H   0  0  0  0  0  0  0  0  0  0  0  0
   56.1940   28.2560   44.1000 H   0  0  0  0  0  0  0  0  0  0  0  0
   59.2577   26.8426   44.9386 H   0  0  0  0  0  0  0  0  0  0  0  0
   60.7480   25.0930   45.8930 H   0  0  0  0  0  0  0  0  0  0  0  0
   57.7509   23.4144   47.1071 H   0  0  0  0  0  0  0  0  0  0  0  0
   55.4642   24.4123   47.0991 H   0  0  0  0  0  0  0  0  0  0  0  0
   57.7554   32.9125   43.2297 H   0  0  0  0  0  0  0  0  0  0  0  0
   58.6171   35.0530   44.1783 H   0  0  0  0  0  0  0  0  0  0  0  0
  1  2  1  0
  2  3  2  0
  3  4  1  0
  4  5  2  0
  5  6  1  0
  6  7  1  0
  7  8  2  0
  7  9  1  0
  9 10  1  0
 10 11  2  0
 11 12  1  0
 12 13  1  0
 12 14  2  0
 14 15  1  0
 15 16  2  0
 16 17  1  0
  5 18  1  0
 18 19  2  0
 19  2  1  0
 16 10  1  0
  3 20  1  0
  4 21  1  0
  6 22  1  0
  9 23  1  0
 11 24  1  0
 13 25  1  0
 14 26  1  0
 15 27  1  0
 18 28  1  0
 19 29  1  0
M  CHG  2   1  -1  17  -1
M  END
>  <UniqueID>  (6) 
6

>  <SMILES>  (6) 
[O-]c1ccc(NC(=S)Nc2cc(O)ccc2[O-])cc1

>  <Energy>  (6) 
40.78817174539288

>  <Genealogy>  (6) 
[O-]c1ccc(NC(=S)Nc2cc(O)ccc2[O-])cc1 (protonated)
[O-]c1ccc(NC(=S)Nc2cc(O)ccc2[O-])cc1 (3D coordinates assigned)
[O-]c1ccc(NC(=S)Nc2cc(O)ccc2[O-])cc1 (optimized conformer: 40.78817174539288 kcal/mol)

>  <smiles>  (6) 
Oc1ccc(NC(=S)Nc2cc(O)ccc2O)cc1

>  <score_type>  (6) 
oracle

>  <origin>  (6) 
adg

>  <m_score__min__energy>  (6) 
-11.1

>  <m_primary>  (6) 
energy

$$$$
6:0
     RDKit          3D

 33 34  0  0  0  0  0  0  0  0999 V2000
   57.2160   33.1110   45.5960 C   0  0  0  0  0  0  0  0  0  0  0  0
   57.0810   31.9230   44.6930 C   0  0  0  0  0  0  0  0  0  0  0  0
   57.3860   32.0430   43.4780 O   0  0  0  0  0  0  0  0  0  0  0  0
   56.6510   30.6420   45.1770 N   0  0  0  0  0  0  0  0  0  0  0  0
   57.3970   29.4180   45.1340 C   0  0  0  0  0  0  0  0  0  0  0  0
   58.7850   29.4770   44.9660 C   0  0  0  0  0  0  0  0  0  0  0  0
   59.5390   28.3030   44.9040 C   0  0  0  0  0  0  0  0  0  0  0  0
   58.9080   27.0590   44.9900 C   0  0  0  0  0  0  0  0  0  0  0  0
   57.5120   26.9790   45.1180 C   0  0  0  0  0  0  0  0  0  0  0  0
   56.8340   25.6630   45.2050 C   0  0  0  0  0  0  0  0  0  0  0  0
   57.5410   24.4940   44.8710 C   0  0  0  0  0  0  0  0  0  0  0  0
   56.9230   23.2360   44.9430 C   0  0  0  0  0  0  0  0  0  0  0  0
   57.6780   21.9970   44.5460 C   0  0  0  0  0  0  0  0  0  0  0  0
   58.6310   21.6070   45.6290 C   0  0  0  0  0  0  0  0  0  0  0  0
   58.2410   20.8960   46.5920 O   0  0  0  0  0  0  0  0  0  0  0  0
   59.9410   22.0700   45.6010 O   0  0  0  0  0  0  0  0  0  0  0  0
   55.5800   23.1500   45.3350 C   0  0  0  0  0  0  0  0  0  0  0  0
   54.8720   24.3040   45.6780 C   0  0  0  0  0  0  0  0  0  0  0  0
   55.4920   25.5560   45.6240 C   0  0  0  0  0  0  0  0  0  0  0  0
   54.7700   26.6830   46.0050 O   0  0  0  0  0  0  0  0  0  0  0  0
   56.7610   28.1660   45.1840 C   0  0  0  0  0  0  0  0  0  0  0  0
   57.1785   32.7807   46.6446 H   0  0  0  0  0  0  0  0  0  0  0  0
   58.1767   33.6108   45.4032 H   0  0  0  0  0  0  0  0  0  0  0  0
   56.3919   33.8136   45.4032 H   0  0  0  0  0  0  0  0  0  0  0  0
   59.2849   30.4533   44.8823 H   0  0  0  0  0  0  0  0  0  0  0  0
   60.6314   28.3576   44.7873 H   0  0  0  0  0  0  0  0  0  0  0  0
   59.5081   26.1377   44.9572 H   0  0  0  0  0  0  0  0  0  0  0  0
   58.5905   24.5665   44.5496 H   0  0  0  0  0  0  0  0  0  0  0  0
   56.9659   21.1762   44.3751 H   0  0  0  0  0  0  0  0  0  0  0  0
   58.2436   22.1999   43.6247 H   0  0  0  0  0  0  0  0  0  0  0  0
   55.0818   22.1700   45.3726 H   0  0  0  0  0  0  0  0  0  0  0  0
   53.8207   24.2274   45.9924 H   0  0  0  0  0  0  0  0  0  0  0  0
   55.6661   28.1140   45.2756 H   0  0  0  0  0  0  0  0  0  0  0  0
  1  2  1  0
  2  3  2  0
  2  4  1  0
  4  5  1  0
  5  6  2  0
  6  7  1  0
  7  8  2  0
  8  9  1  0
  9 10  1  0
 10 11  2  0
 11 12  1  0
 12 13  1  0
 13 14  1  0
 14 15  2  0
 14 16  1  0
 12 17  2  0
 17 18  1  0
 18 19  2  0
 19 20  1  0
  9 21  2  0
 21  5  1  0
 19 10  1  0
  1 22  1  0
  1 23  1  0
  1 24  1  0
  6 25  1  0
  7 26  1  0
  8 27  1  0
 11 28  1  0
 13 29  1  0
 13 30  1  0
 17 31  1  0
 18 32  1  0
 21 33  1  0
M  CHG  3   4  -1  16  -1  20  -1
M  END
>  <UniqueID>  (7) 
7

>  <SMILES>  (7) 
CC(=O)[N-]c1cccc(-c2cc(CC(=O)[O-])ccc2[O-])c1

>  <Energy>  (7) 
41.2626267057956

>  <Genealogy>  (7) 
CC(=O)[N-]c1cccc(-c2cc(CC(=O)[O-])ccc2[O-])c1 (protonated)
CC(=O)[N-]c1cccc(-c2cc(CC(=O)[O-])ccc2[O-])c1 (3D coordinates assigned)
CC(=O)[N-]c1cccc(-c2cc(CC(=O)[O-])ccc2[O-])c1 (optimized conformer: 41.2626267057956 kcal/mol)

>  <smiles>  (7) 
CC(=O)Nc1cccc(-c2cc(CC(=O)O)ccc2O)c1

>  <score_type>  (7) 
oracle

>  <origin>  (7) 
adg

>  <m_score__min__energy>  (7) 
-14.07

>  <m_primary>  (7) 
energy

$$$$
7:0
     RDKit          3D

 41 43  0  0  0  0  0  0  0  0999 V2000
   54.4820   29.3430   45.2470 H   0  0  0  0  0  0  0  0  0  0  0  0
   55.3560   29.8150   44.9240 N   0  0  0  0  0  0  0  0  0  0  0  0
   56.6160   28.6330   44.9760 S   0  0  0  0  0  0  0  0  0  0  0  0
   56.1060   27.3830   45.6360 O   0  0  0  0  0  0  0  0  0  0  0  0
   57.0440   28.2980   43.5740 O   0  0  0  0  0  0  0  0  0  0  0  0
   57.9840   29.2710   45.8810 C   0  0  0  0  0  0  0  0  0  0  0  0
   58.2710   28.7850   47.1640 C   0  0  0  0  0  0  0  0  0  0  0  0
   57.6332   28.0086   47.6117 H   0  0  0  0  0  0  0  0  0  0  0  0
   59.3650   29.2840   47.8760 C   0  0  0  0  0  0  0  0  0  0  0  0
   59.5880   28.8941   48.8801 H   0  0  0  0  0  0  0  0  0  0  0  0
   60.1810   30.2800   47.3170 C   0  0  0  0  0  0  0  0  0  0  0  0
   61.3740   30.7950   48.0670 C   0  0  0  0  0  0  0  0  0  0  0  0
   61.0593   31.5945   48.7539 H   0  0  0  0  0  0  0  0  0  0  0  0
   61.8281   29.9764   48.6446 H   0  0  0  0  0  0  0  0  0  0  0  0
   62.3480   31.3230   47.1180 N   0  0  0  0  0  0  0  0  0  0  0  0
   62.7730   32.9540   47.5420 S   0  0  0  0  0  0  0  0  0  0  0  0
   64.2270   33.2050   47.2560 O   0  0  0  0  0  0  0  0  0  0  0  0
   61.9620   33.8950   46.6970 O   0  0  0  0  0  0  0  0  0  0  0  0
   62.4050   33.2590   49.2420 C   0  0  0  0  0  0  0  0  0  0  0  0
   61.1420   33.5770   49.7480 C   0  0  0  0  0  0  0  0  0  0  0  0
   59.8680   33.5840   49.0070 C   0  0  0  0  0  0  0  0  0  0  0  0
   59.1317   32.8047   49.2530 H   0  0  0  0  0  0  0  0  0  0  0  0
   59.5400   34.4690   48.0560 C   0  0  0  0  0  0  0  0  0  0  0  0
   59.8945   35.5020   48.1874 H   0  0  0  0  0  0  0  0  0  0  0  0
   58.7440   34.1780   46.8470 C   0  0  0  0  0  0  0  0  0  0  0  0
   59.1300   34.5750   45.2530 S   0  0  0  0  0  0  0  0  0  0  0  0
   57.8510   33.7560   44.5360 C   0  0  0  0  0  0  0  0  0  0  0  0
   57.6327   33.7168   43.4586 H   0  0  0  0  0  0  0  0  0  0  0  0
   57.1170   33.1370   45.5390 C   0  0  0  0  0  0  0  0  0  0  0  0
   56.2218   32.5291   45.3413 H   0  0  0  0  0  0  0  0  0  0  0  0
   57.6230   33.3590   46.8260 C   0  0  0  0  0  0  0  0  0  0  0  0
   57.1754   32.9262   47.7328 H   0  0  0  0  0  0  0  0  0  0  0  0
   61.2800   33.7680   51.4170 S   0  0  0  0  0  0  0  0  0  0  0  0
   62.9370   33.5080   51.5050 C   0  0  0  0  0  0  0  0  0  0  0  0
   63.5471   33.5427   52.4196 H   0  0  0  0  0  0  0  0  0  0  0  0
   63.4040   33.2420   50.2260 C   0  0  0  0  0  0  0  0  0  0  0  0
   64.4616   33.0365   50.0040 H   0  0  0  0  0  0  0  0  0  0  0  0
   59.9050   30.7470   46.0220 C   0  0  0  0  0  0  0  0  0  0  0  0
   60.5537   31.5089   45.5652 H   0  0  0  0  0  0  0  0  0  0  0  0
   58.8110   30.2490   45.3110 C   0  0  0  0  0  0  0  0  0  0  0  0
   58.5974   30.6256   44.2998 H   0  0  0  0  0  0  0  0  0  0  0  0
  1  2  1  0
  2  3  1  0
  3  4  2  0
  3  5  2  0
  3  6  1  0
  6  7  2  0
  7  8  1  0
  7  9  1  0
  9 10  1  0
  9 11  2  0
 11 12  1  0
 12 13  1  0
 12 14  1  0
 12 15  1  0
 15 16  1  0
 16 17  2  0
 16 18  2  0
 16 19  1  0
 19 20  2  0
 20 21  1  0
 21 22  1  0
 21 23  2  0
 23 24  1  0
 23 25  1  0
 25 26  1  0
 26 27  1  0
 27 28  1  0
 27 29  2  0
 29 30  1  0
 29 31  1  0
 31 32  1  0
 20 33  1  0
 33 34  1  0
 34 35  1  0
 34 36  2  0
 36 37  1  0
 11 38  1  0
 38 39  1  0
 38 40  2  0
 40 41  1  0
 40  6  1  0
 36 19  1  0
 31 25  2  0
M  CHG  2   2  -1  15  -1
M  END
>  <UniqueID>  (8) 
8

>  <SMILES>  (8) 
[NH-]S(=O)(=O)c1ccc(C[N-]S(=O)(=O)c2ccsc2/C=C\c2cccs2)cc1

>  <Energy>  (8) 
99.84851729762151

>  <Genealogy>  (8) 
[NH-]S(=O)(=O)c1ccc(C[N-]S(=O)(=O)c2ccsc2C=Cc2cccs2)cc1 (protonated)
[NH-]S(=O)(=O)c1ccc(C[N-]S(=O)(=O)c2ccsc2/C=C\c2cccs2)cc1 (cis-trans isomerization)
[NH-]S(=O)(=O)c1ccc(C[N-]S(=O)(=O)c2ccsc2/C=C\c2cccs2)cc1 (3D coordinates assigned)
[NH-]S(=O)(=O)c1ccc(C[N-]S(=O)(=O)c2ccsc2/C=C\c2cccs2)cc1 (optimized conformer: 99.84851729762151 kcal/mol)

>  <smiles>  (8) 
NS(=O)(=O)c1ccc(CNS(=O)(=O)c2ccsc2C=Cc2cccs2)cc1

>  <score_type>  (8) 
oracle

>  <origin>  (8) 
adg

>  <m_score__min__energy>  (8) 
-12.52

>  <m_primary>  (8) 
energy

$$$$
8:0
     RDKit          3D

 64 63  0  0  0  0  0  0  0  0999 V2000
   63.5041   30.7860   46.9065 H   0  0  0  0  0  0  0  0  0  0  0  0
   62.8490   31.6010   47.2480 C   0  0  0  0  0  0  0  0  0  0  0  0
   63.4100   32.8140   47.4390 C   0  0  0  0  0  0  0  0  0  0  0  0
   63.2870   33.8400   46.3450 C   0  0  0  0  0  0  0  0  0  0  0  0
   63.1673   34.8386   46.7906 H   0  0  0  0  0  0  0  0  0  0  0  0
   64.1937   33.8226   45.7224 H   0  0  0  0  0  0  0  0  0  0  0  0
   62.4101   33.6088   45.7224 H   0  0  0  0  0  0  0  0  0  0  0  0
   64.1370   33.1750   48.7140 C   0  0  0  0  0  0  0  0  0  0  0  0
   63.5298   32.8735   49.5803 H   0  0  0  0  0  0  0  0  0  0  0  0
   65.1046   32.6527   48.7448 H   0  0  0  0  0  0  0  0  0  0  0  0
   64.3057   34.2615   48.7448 H   0  0  0  0  0  0  0  0  0  0  0  0
   61.3880   31.2780   47.4680 C   0  0  0  0  0  0  0  0  0  0  0  0
   61.0181   30.7122   46.6002 H   0  0  0  0  0  0  0  0  0  0  0  0
   60.8519   32.2306   47.5910 H   0  0  0  0  0  0  0  0  0  0  0  0
   61.1500   30.4450   48.7350 C   0  0  0  0  0  0  0  0  0  0  0  0
   61.5302   31.0012   49.6045 H   0  0  0  0  0  0  0  0  0  0  0  0
   61.6773   29.4864   48.6205 H   0  0  0  0  0  0  0  0  0  0  0  0
   59.6780   30.1540   48.9430 C   0  0  0  0  0  0  0  0  0  0  0  0
   58.9100   29.8350   47.8740 C   0  0  0  0  0  0  0  0  0  0  0  0
   58.3749   30.6509   47.3661 H   0  0  0  0  0  0  0  0  0  0  0  0
   58.7380   28.4380   47.3320 C   0  0  0  0  0  0  0  0  0  0  0  0
   58.0837   27.8659   48.0062 H   0  0  0  0  0  0  0  0  0  0  0  0
   59.7254   27.9579   47.2650 H   0  0  0  0  0  0  0  0  0  0  0  0
   58.1110   28.4790   45.9360 C   0  0  0  0  0  0  0  0  0  0  0  0
   57.1246   28.9618   45.9987 H   0  0  0  0  0  0  0  0  0  0  0  0
   58.0125   27.4479   45.5656 H   0  0  0  0  0  0  0  0  0  0  0  0
   58.9830   29.2570   44.9720 C   0  0  0  0  0  0  0  0  0  0  0  0
   58.5020   30.2140   44.1450 C   0  0  0  0  0  0  0  0  0  0  0  0
   58.8330   30.1851   43.0964 H   0  0  0  0  0  0  0  0  0  0  0  0
   57.5500   31.3180   44.5380 C   0  0  0  0  0  0  0  0  0  0  0  0
   56.6037   30.8701   44.8754 H   0  0  0  0  0  0  0  0  0  0  0  0
   57.3891   31.9620   43.6609 H   0  0  0  0  0  0  0  0  0  0  0  0
   59.6460   33.6920   49.8630 C   0  0  0  0  0  0  0  0  0  0  0  0
   59.3161   32.6756   50.1241 H   0  0  0  0  0  0  0  0  0  0  0  0
   59.1046   34.4453   50.4541 H   0  0  0  0  0  0  0  0  0  0  0  0
   59.3770   34.3380   45.2610 C   0  0  0  0  0  0  0  0  0  0  0  0
   60.2640   34.4930   47.5910 C   0  0  0  0  0  0  0  0  0  0  0  0
   61.3357   34.3875   47.8153 H   0  0  0  0  0  0  0  0  0  0  0  0
   59.8300   35.2560   46.3710 C   0  0  0  0  0  0  0  0  0  0  0  0
   58.9968   35.9198   46.6451 H   0  0  0  0  0  0  0  0  0  0  0  0
   60.6933   35.8312   46.0051 H   0  0  0  0  0  0  0  0  0  0  0  0
   59.3570   33.9400   48.4080 C   0  0  0  0  0  0  0  0  0  0  0  0
   60.0318   34.2231   44.3846 H   0  0  0  0  0  0  0  0  0  0  0  0
   58.2140   33.6490   45.2810 C   0  0  0  0  0  0  0  0  0  0  0  0
   58.3734   33.6596   48.0030 H   0  0  0  0  0  0  0  0  0  0  0  0
   58.1230   32.1820   45.6690 C   0  0  0  0  0  0  0  0  0  0  0  0
   59.1309   31.8180   45.9170 H   0  0  0  0  0  0  0  0  0  0  0  0
   57.4451   32.1022   46.5316 H   0  0  0  0  0  0  0  0  0  0  0  0
   61.1370   33.8240   50.1720 C   0  0  0  0  0  0  0  0  0  0  0  0
   61.2858   33.8372   51.2618 H   0  0  0  0  0  0  0  0  0  0  0  0
   61.6783   32.9703   49.7383 H   0  0  0  0  0  0  0  0  0  0  0  0
   61.5199   34.7596   49.7383 H   0  0  0  0  0  0  0  0  0  0  0  0
   56.9480   34.3770   44.9030 C   0  0  0  0  0  0  0  0  0  0  0  0
   56.4150   34.6835   45.8151 H   0  0  0  0  0  0  0  0  0  0  0  0
   57.2006   35.2678   44.3091 H   0  0  0  0  0  0  0  0  0  0  0  0
   56.3052   33.7106   44.3091 H   0  0  0  0  0  0  0  0  0  0  0  0
   60.4540   28.9410   44.9100 C   0  0  0  0  0  0  0  0  0  0  0  0
   60.8539   28.8551   45.9311 H   0  0  0  0  0  0  0  0  0  0  0  0
   60.6027   27.9904   44.3768 H   0  0  0  0  0  0  0  0  0  0  0  0
   60.9799   29.7467   44.3768 H   0  0  0  0  0  0  0  0  0  0  0  0
   59.1010   30.2970   50.3280 C   0  0  0  0  0  0  0  0  0  0  0  0
   59.8857   30.1025   51.0740 H   0  0  0  0  0  0  0  0  0  0  0  0
   58.7142   31.3182   50.4604 H   0  0  0  0  0  0  0  0  0  0  0  0
   58.2821   29.5746   50.4604 H   0  0  0  0  0  0  0  0  0  0  0  0
  1  2  1  0
  2  3  2  3
  3  4  1  0
  4  5  1  0
  4  6  1  0
  4  7  1  0
  3  8  1  0
  8  9  1  0
  8 10  1  0
  8 11  1  0
  2 12  1  0
 12 13  1  0
 12 14  1  0
 12 15  1  0
 15 16  1  0
 15 17  1  0
 15 18  1  0
 18 19  2  3
 19 20  1  0
 19 21  1  0
 21 22  1  0
 21 23  1  0
 21 24  1  0
 24 25  1  0
 24 26  1  0
 24 27  1  0
 27 28  2  3
 28 29  1  0
 28 30  1  0
 30 31  1  0
 30 32  1  0
 30 33  1  0
 33 34  1  0
 33 35  1  0
 33 36  1  0
 36 37  2  0
 37 38  1  0
 37 39  1  0
 39 40  1  0
 39 41  1  0
 39 42  1  0
 42 43  1  0
 42 44  2  0
 44 45  1  0
 44 46  1  0
 46 47  1  0
 46 48  1  0
 46 49  1  0
 49 50  1  0
 49 51  1  0
 49 52  1  0
 36 53  1  0
 53 54  1  0
 53 55  1  0
 53 56  1  0
 27 57  1  0
 57 58  1  0
 57 59  1  0
 57 60  1  0
 18 61  1  0
 61 62  1  0
 61 63  1  0
 61 64  1  0
M  END
>  <UniqueID>  (9) 
9

>  <SMILES>  (9) 
CC/C=C/C/C=C(/C)CCC=C(C)CCC=C(C)CCC=C(C)C

>  <Energy>  (9) 
29.311838124256415

>  <Genealogy>  (9) 
CC/C=C/C/C=C(/C)CCC=C(C)CCC=C(C)CCC=C(C)C (cis-trans isomerization)
CC/C=C/C/C=C(/C)CCC=C(C)CCC=C(C)CCC=C(C)C (3D coordinates assigned)
CC/C=C/C/C=C(/C)CCC=C(C)CCC=C(C)CCC=C(C)C (optimized conformer: 29.311838124256415 kcal/mol)

>  <smiles>  (9) 
CCC=CCC=C(C)CCC=C(C)CCC=C(C)CCC=C(C)C

>  <score_type>  (9) 
oracle

>  <origin>  (9) 
adg

>  <m_score__min__energy>  (9) 
-6.5300000000000002

>  <m_primary>  (9) 
energy

$$$$
9:0
     RDKit          3D

 43 46  0  0  1  0  0  0  0  0999 V2000
   56.7630   29.1980   42.7890 O   0  0  0  0  0  0  0  0  0  0  0  0
   56.9770   30.0740   43.9830 S   0  0  0  0  0  0  0  0  0  0  0  0
   55.7260   29.8660   44.8410 O   0  0  0  0  0  0  0  0  0  0  0  0
   57.0360   31.7390   43.6480 N   0  0  0  0  0  0  0  0  0  0  0  0
   57.4750   32.6370   44.4510 C   0  0  0  0  0  0  0  0  0  0  0  0
   58.5390   33.4180   44.1050 C   0  0  0  0  0  0  0  0  0  0  0  0
   59.0640   34.4010   44.9150 C   0  0  0  0  0  0  0  0  0  0  0  0
   58.4710   34.5780   46.1130 N   0  0  0  0  0  0  0  0  0  0  0  0
   57.4160   33.8100   46.4670 C   0  0  0  0  0  0  0  0  0  0  0  0
   56.9120   32.8510   45.6650 N   0  0  0  0  0  0  0  0  0  0  0  0
   58.2980   29.5150   45.0040 C   0  0  0  0  0  0  0  0  0  0  0  0
   58.5920   28.1840   45.1700 C   0  0  0  0  0  0  0  0  0  0  0  0
   59.6410   27.7570   45.9750 C   0  0  0  0  0  0  0  0  0  0  0  0
   60.4040   28.7310   46.6230 C   0  0  0  0  0  0  0  0  0  0  0  0
   60.1460   30.0780   46.4860 C   0  0  0  0  0  0  0  0  0  0  0  0
   60.9340   31.1140   47.1530 C   0  0  0  0  0  0  0  0  0  0  0  0
   62.2600   31.1590   47.1350 C   0  0  0  0  0  0  0  0  0  0  0  0
   62.7590   32.3270   47.9010 C   0  0  0  0  0  0  0  0  0  0  0  0
   61.5310   33.2300   47.8840 C   0  0  2  0  0  0  0  0  0  0  0  0
   61.5240   34.1980   49.0110 C   0  0  0  0  0  0  0  0  0  0  0  0
   60.2390   34.5910   49.3070 O   0  0  0  0  0  0  0  0  0  0  0  0
   59.5780   33.4680   49.8060 C   0  0  0  0  0  0  0  0  0  0  0  0
   59.2850   32.4870   48.6540 C   0  0  0  0  0  0  0  0  0  0  0  0
   60.4850   32.2270   47.9220 N   0  0  0  0  0  0  0  0  0  0  0  0
   59.0900   30.4270   45.6720 C   0  0  0  0  0  0  0  0  0  0  0  0
   59.0047   33.2532   43.1222 H   0  0  0  0  0  0  0  0  0  0  0  0
   59.9237   35.0108   44.6003 H   0  0  0  0  0  0  0  0  0  0  0  0
   58.8550   35.3190   46.7420 H   0  0  0  0  0  0  0  0  0  0  0  0
   56.9499   33.9745   47.4497 H   0  0  0  0  0  0  0  0  0  0  0  0
   57.9787   27.4333   44.6501 H   0  0  0  0  0  0  0  0  0  0  0  0
   59.8633   26.6867   46.0979 H   0  0  0  0  0  0  0  0  0  0  0  0
   61.2390   28.4123   47.2643 H   0  0  0  0  0  0  0  0  0  0  0  0
   62.9025   30.4287   46.6213 H   0  0  0  0  0  0  0  0  0  0  0  0
   63.0408   32.0472   48.9268 H   0  0  0  0  0  0  0  0  0  0  0  0
   63.6674   32.7879   47.4857 H   0  0  0  0  0  0  0  0  0  0  0  0
   61.4454   33.9124   47.0255 H   0  0  0  0  0  0  0  0  0  0  0  0
   61.9696   33.7231   49.8976 H   0  0  0  0  0  0  0  0  0  0  0  0
   62.1064   35.0844   48.7193 H   0  0  0  0  0  0  0  0  0  0  0  0
   60.2122   32.9730   50.5561 H   0  0  0  0  0  0  0  0  0  0  0  0
   58.6310   33.7781   50.2718 H   0  0  0  0  0  0  0  0  0  0  0  0
   58.8977   31.5439   49.0671 H   0  0  0  0  0  0  0  0  0  0  0  0
   58.5377   32.9312   47.9801 H   0  0  0  0  0  0  0  0  0  0  0  0
   58.8649   31.4965   45.5472 H   0  0  0  0  0  0  0  0  0  0  0  0
  1  2  2  0
  2  3  2  0
  2  4  1  0
  4  5  2  0
  5  6  1  0
  6  7  2  0
  7  8  1  0
  8  9  1  0
  9 10  2  0
  2 11  1  0
 11 12  2  0
 12 13  1  0
 13 14  2  0
 14 15  1  0
 15 16  1  0
 16 17  2  0
 17 18  1  0
 18 19  1  0
 19 20  1  0
 20 21  1  0
 21 22  1  0
 22 23  1  0
 23 24  1  0
 15 25  2  0
 10  5  1  0
 25 11  1  0
 24 16  1  0
 24 19  1  0
  6 26  1  0
  7 27  1  0
  8 28  1  0
  9 29  1  0
 12 30  1  0
 13 31  1  0
 14 32  1  0
 17 33  1  0
 18 34  1  0
 18 35  1  0
 19 36  1  6
 20 37  1  0
 20 38  1  0
 22 39  1  0
 22 40  1  0
 23 41  1  0
 23 42  1  0
 25 43  1  0
M  END
>  <smiles>  (10) 
O=S(=O)(N=c1cc[nH]cn1)c1cccc(C2=CCC3COCCN23)c1

>  <score_type>  (10) 
oracle

>  <origin>  (10) 
adg

>  <m_score__min__energy>  (10) 
-9.3100000000000005

>  <m_primary>  (10) 
energy

$$$$
10:0
     RDKit          3D

 50 53  0  0  0  0  0  0  0  0999 V2000
   55.5210   28.6770   45.1250 O   0  0  0  0  0  0  0  0  0  0  0  0
   56.7560   28.6580   45.3630 C   0  0  0  0  0  0  0  0  0  0  0  0
   57.5410   27.3970   45.1080 C   0  0  0  0  0  0  0  0  0  0  0  0
   57.1100   26.2840   46.0150 C   0  0  0  0  0  0  0  0  0  0  0  0
   57.9600   25.5520   46.7610 N   0  0  0  0  0  0  0  0  0  0  0  0
   57.1460   24.6800   47.3920 C   0  0  0  0  0  0  0  0  0  0  0  0
   57.5740   23.8140   48.1980 O   0  0  0  0  0  0  0  0  0  0  0  0
   55.8360   24.8120   47.0930 N   0  0  0  0  0  0  0  0  0  0  0  0
   55.8290   25.8300   46.2180 C   0  0  0  0  0  0  0  0  0  0  0  0
   54.6790   26.3360   45.6210 O   0  0  0  0  0  0  0  0  0  0  0  0
   57.3590   29.8200   45.9520 N   0  0  0  0  0  0  0  0  0  0  0  0
   57.7300   31.0440   45.2440 C   0  0  0  0  0  0  0  0  0  0  0  0
   58.6320   31.8970   46.0960 C   0  0  0  0  0  0  0  0  0  0  0  0
   58.1690   33.1270   46.5920 C   0  0  0  0  0  0  0  0  0  0  0  0
   58.9600   33.8780   47.4680 C   0  0  0  0  0  0  0  0  0  0  0  0
   60.2310   33.4150   47.8450 C   0  0  0  0  0  0  0  0  0  0  0  0
   61.0410   34.1540   48.8740 C   0  0  0  0  0  0  0  0  0  0  0  0
   61.6580   33.2000   49.7900 N   0  0  0  0  0  0  0  0  0  0  0  0
   61.2480   33.0460   51.1530 C   0  0  0  0  0  0  0  0  0  0  0  0
   62.1040   33.0670   52.0770 O   0  0  0  0  0  0  0  0  0  0  0  0
   59.8270   32.8530   51.4700 C   0  0  0  0  0  0  0  0  0  0  0  0
   58.8960   33.9490   52.3440 S   0  0  0  0  0  0  0  0  0  0  0  0
   57.4390   33.1250   52.2010 C   0  0  0  0  0  0  0  0  0  0  0  0
   57.6620   31.9690   51.4680 C   0  0  0  0  0  0  0  0  0  0  0  0
   58.9970   31.8000   51.0650 C   0  0  0  0  0  0  0  0  0  0  0  0
   59.4520   30.5900   50.3520 C   0  0  0  0  0  0  0  0  0  0  0  0
   58.7500   30.1110   49.2330 C   0  0  0  0  0  0  0  0  0  0  0  0
   59.1980   28.9760   48.5510 C   0  0  0  0  0  0  0  0  0  0  0  0
   60.3520   28.3140   48.9760 C   0  0  0  0  0  0  0  0  0  0  0  0
   61.0570   28.7830   50.0870 C   0  0  0  0  0  0  0  0  0  0  0  0
   60.6180   29.9230   50.7680 C   0  0  0  0  0  0  0  0  0  0  0  0
   60.7060   32.2000   47.3260 C   0  0  0  0  0  0  0  0  0  0  0  0
   59.9150   31.4490   46.4520 C   0  0  0  0  0  0  0  0  0  0  0  0
   57.3874   27.0862   44.0641 H   0  0  0  0  0  0  0  0  0  0  0  0
   58.6027   27.6079   45.3038 H   0  0  0  0  0  0  0  0  0  0  0  0
   58.2553   30.7788   44.3146 H   0  0  0  0  0  0  0  0  0  0  0  0
   56.8162   31.6124   45.0160 H   0  0  0  0  0  0  0  0  0  0  0  0
   57.1797   33.5015   46.2901 H   0  0  0  0  0  0  0  0  0  0  0  0
   58.5853   34.8340   47.8626 H   0  0  0  0  0  0  0  0  0  0  0  0
   61.8256   34.7386   48.3713 H   0  0  0  0  0  0  0  0  0  0  0  0
   60.3830   34.8300   49.4398 H   0  0  0  0  0  0  0  0  0  0  0  0
   56.4733   33.4473   52.6175 H   0  0  0  0  0  0  0  0  0  0  0  0
   56.8660   31.2500   51.2244 H   0  0  0  0  0  0  0  0  0  0  0  0
   57.8432   30.6319   48.8919 H   0  0  0  0  0  0  0  0  0  0  0  0
   58.6410   28.6038   47.6785 H   0  0  0  0  0  0  0  0  0  0  0  0
   60.7057   27.4234   48.4359 H   0  0  0  0  0  0  0  0  0  0  0  0
   61.9597   28.2544   50.4271 H   0  0  0  0  0  0  0  0  0  0  0  0
   61.1864   30.2989   51.6315 H   0  0  0  0  0  0  0  0  0  0  0  0
   61.7054   31.8374   47.6085 H   0  0  0  0  0  0  0  0  0  0  0  0
   60.2986   30.5034   46.0413 H   0  0  0  0  0  0  0  0  0  0  0  0
  1  2  2  0
  2  3  1  0
  3  4  1  0
  4  5  1  0
  5  6  1  0
  6  7  2  0
  6  8  1  0
  8  9  1  0
  9 10  1  0
  2 11  1  0
 11 12  1  0
 12 13  1  0
 13 14  2  0
 14 15  1  0
 15 16  2  0
 16 17  1  0
 17 18  1  0
 18 19  1  0
 19 20  2  0
 19 21  1  0
 21 22  1  0
 22 23  1  0
 23 24  2  0
 24 25  1  0
 25 26  1  0
 26 27  2  0
 27 28  1  0
 28 29  2  0
 29 30  1  0
 30 31  2  0
 16 32  1  0
 32 33  2  0
  9  4  2  0
 33 13  1  0
 25 21  2  0
 31 26  1  0
  3 34  1  0
  3 35  1  0
 12 36  1  0
 12 37  1  0
 14 38  1  0
 15 39  1  0
 17 40  1  0
 17 41  1  0
 23 42  1  0
 24 43  1  0
 27 44  1  0
 28 45  1  0
 29 46  1  0
 30 47  1  0
 31 48  1  0
 32 49  1  0
 33 50  1  0
M  CHG  5   5  -1   8  -1  10  -1  11  -1  18  -1
M  END
>  <UniqueID>  (11) 
10

>  <SMILES>  (11) 
O=C(Cc1[n-]c(=O)[n-]c1[O-])[N-]Cc1ccc(C[N-]C(=O)c2sccc2-c2ccccc2)cc1

>  <Energy>  (11) 
108.23632698974097

>  <Genealogy>  (11) 
O=C(Cc1[n-]c(=O)[n-]c1[O-])[N-]Cc1ccc(C[N-]C(=O)c2sccc2-c2ccccc2)cc1 (protonated)
O=C(Cc1[n-]c(=O)[n-]c1[O-])[N-]Cc1ccc(C[N-]C(=O)c2sccc2-c2ccccc2)cc1 (3D coordinates assigned)
O=C(Cc1[n-]c(=O)[n-]c1[O-])[N-]Cc1ccc(C[N-]C(=O)c2sccc2-c2ccccc2)cc1 (optimized conformer: 108.23632698974097 kcal/mol)

>  <smiles>  (11) 
O=C(Cc1[nH]c(=O)[nH]c1O)NCc1ccc(CNC(=O)c2sccc2-c2ccccc2)cc1

>  <score_type>  (11) 
oracle

>  <origin>  (11) 
adg

>  <m_score__min__energy>  (11) 
-19.809999999999999

>  <m_primary>  (11) 
energy

$$$$
11:0
     RDKit          3D

 62 65  0  0  0  0  0  0  0  0999 V2000
   55.5450   29.7340   46.0040 H   0  0  0  0  0  0  0  0  0  0  0  0
   55.7250   29.3560   45.1040 O   0  0  0  0  0  0  0  0  0  0  0  0
   57.1030   29.1110   45.0540 C   0  0  0  0  0  0  0  0  0  0  0  0
   57.6447   29.9751   45.4661 H   0  0  0  0  0  0  0  0  0  0  0  0
   57.4105   28.9510   44.0100 H   0  0  0  0  0  0  0  0  0  0  0  0
   57.4220   27.8830   45.8670 C   0  0  0  0  0  0  0  0  0  0  0  0
   56.4790   26.8400   45.8820 C   0  0  0  0  0  0  0  0  0  0  0  0
   55.5282   26.9588   45.3418 H   0  0  0  0  0  0  0  0  0  0  0  0
   56.7360   25.6550   46.5750 C   0  0  0  0  0  0  0  0  0  0  0  0
   55.9859   24.8505   46.5852 H   0  0  0  0  0  0  0  0  0  0  0  0
   57.9430   25.4910   47.2540 C   0  0  0  0  0  0  0  0  0  0  0  0
   58.1490   24.5534   47.7911 H   0  0  0  0  0  0  0  0  0  0  0  0
   58.8900   26.5170   47.2520 C   0  0  0  0  0  0  0  0  0  0  0  0
   59.8468   26.3761   47.7761 H   0  0  0  0  0  0  0  0  0  0  0  0
   58.6330   27.7260   46.5880 C   0  0  0  0  0  0  0  0  0  0  0  0
   59.9010   29.0080   46.6510 S   0  0  0  0  0  0  0  0  0  0  0  0
   60.0450   28.9770   48.4490 C   0  0  0  0  0  0  0  0  0  0  0  0
   60.6990   27.8860   49.0400 C   0  0  0  0  0  0  0  0  0  0  0  0
   61.1728   27.1244   48.4033 H   0  0  0  0  0  0  0  0  0  0  0  0
   60.7540   27.7580   50.4290 C   0  0  0  0  0  0  0  0  0  0  0  0
   61.2725   26.9002   50.8820 H   0  0  0  0  0  0  0  0  0  0  0  0
   60.1520   28.7170   51.2420 C   0  0  0  0  0  0  0  0  0  0  0  0
   60.1714   28.6013   52.3357 H   0  0  0  0  0  0  0  0  0  0  0  0
   59.5240   29.8250   50.6680 C   0  0  0  0  0  0  0  0  0  0  0  0
   59.0376   30.5710   51.3137 H   0  0  0  0  0  0  0  0  0  0  0  0
   59.5080   29.9950   49.2740 C   0  0  0  0  0  0  0  0  0  0  0  0
   58.9110   31.2370   48.7370 C   0  0  0  0  0  0  0  0  0  0  0  0
   58.5292   31.2117   47.7057 H   0  0  0  0  0  0  0  0  0  0  0  0
   58.7990   32.3920   49.4100 C   0  0  0  0  0  0  0  0  0  0  0  0
   57.7875   32.7265   49.6838 H   0  0  0  0  0  0  0  0  0  0  0  0
   59.9340   33.2470   49.8100 C   0  0  0  0  0  0  0  0  0  0  0  0
   59.7650   34.0780   50.7410 O   0  0  0  0  0  0  0  0  0  0  0  0
   61.2240   33.1340   49.1880 N   0  0  0  0  0  0  0  0  0  0  0  0
   62.3530   32.4890   49.8340 C   0  0  0  0  0  0  0  0  0  0  0  0
   62.0920   31.4609   50.1253 H   0  0  0  0  0  0  0  0  0  0  0  0
   62.6526   33.0184   50.7505 H   0  0  0  0  0  0  0  0  0  0  0  0
   63.4730   32.4800   48.7980 C   0  0  0  0  0  0  0  0  0  0  0  0
   63.6199   31.4638   48.4033 H   0  0  0  0  0  0  0  0  0  0  0  0
   64.4290   32.8018   49.2367 H   0  0  0  0  0  0  0  0  0  0  0  0
   63.0250   33.4230   47.6820 C   0  0  0  0  0  0  0  0  0  0  0  0
   63.2911   33.0069   46.6991 H   0  0  0  0  0  0  0  0  0  0  0  0
   63.5140   34.4051   47.7613 H   0  0  0  0  0  0  0  0  0  0  0  0
   61.5070   33.5380   47.8180 C   0  0  1  0  0  0  0  0  0  0  0  0
   61.1531   34.5563   47.5995 H   0  0  0  0  0  0  0  0  0  0  0  0
   60.8000   32.6240   46.8380 C   0  0  0  0  0  0  0  0  0  0  0  0
   61.2740   31.4720   46.6390 O   0  0  0  0  0  0  0  0  0  0  0  0
   59.6390   33.0600   46.0950 N   0  0  0  0  0  0  0  0  0  0  0  0
   58.8980   32.0970   45.2650 C   0  0  0  0  0  0  0  0  0  0  0  0
   59.2514   32.1688   44.2258 H   0  0  0  0  0  0  0  0  0  0  0  0
   59.0715   31.0842   45.6575 H   0  0  0  0  0  0  0  0  0  0  0  0
   57.3920   32.3920   45.3070 C   0  0  0  0  0  0  0  0  0  0  0  0
   56.8930   31.7670   44.5518 H   0  0  0  0  0  0  0  0  0  0  0  0
   57.0453   32.1680   46.3266 H   0  0  0  0  0  0  0  0  0  0  0  0
   57.0490   33.8710   45.0230 C   0  0  0  0  0  0  0  0  0  0  0  0
   56.4966   33.9231   44.0732 H   0  0  0  0  0  0  0  0  0  0  0  0
   56.4543   34.2322   45.8749 H   0  0  0  0  0  0  0  0  0  0  0  0
   58.2790   34.7800   44.9180 C   0  0  0  0  0  0  0  0  0  0  0  0
   58.7688   34.6104   43.9478 H   0  0  0  0  0  0  0  0  0  0  0  0
   57.9485   35.8253   45.0079 H   0  0  0  0  0  0  0  0  0  0  0  0
   59.2800   34.4890   46.0410 C   0  0  0  0  0  0  0  0  0  0  0  0
   60.1918   35.0793   45.8675 H   0  0  0  0  0  0  0  0  0  0  0  0
   58.8104   34.7609   46.9978 H   0  0  0  0  0  0  0  0  0  0  0  0
  1  2  1  0
  2  3  1  0
  3  4  1  0
  3  5  1  0
  3  6  1  0
  6  7  2  0
  7  8  1  0
  7  9  1  0
  9 10  1  0
  9 11  2  0
 11 12  1  0
 11 13  1  0
 13 14  1  0
 13 15  2  0
 15 16  1  0
 16 17  1  0
 17 18  2  0
 18 19  1  0
 18 20  1  0
 20 21  1  0
 20 22  2  0
 22 23  1  0
 22 24  1  0
 24 25  1  0
 24 26  2  0
 26 27  1  0
 27 28  1  0
 27 29  2  0
 29 30  1  0
 29 31  1  0
 31 32  2  0
 31 33  1  0
 33 34  1  0
 34 35  1  0
 34 36  1  0
 34 37  1  0
 37 38  1  0
 37 39  1  0
 37 40  1  0
 40 41  1  0
 40 42  1  0
 40 43  1  0
 43 44  1  1
 43 45  1  0
 45 46  2  0
 45 47  1  0
 47 48  1  0
 48 49  1  0
 48 50  1  0
 48 51  1  0
 51 52  1  0
 51 53  1  0
 51 54  1  0
 54 55  1  0
 54 56  1  0
 54 57  1  0
 57 58  1  0
 57 59  1  0
 57 60  1  0
 60 61  1  0
 60 62  1  0
 15  6  1  0
 26 17  1  0
 43 33  1  0
 60 47  1  0
M  END
>  <UniqueID>  (12) 
11

>  <SMILES>  (12) 
O=C([C@@H]1CCCN1C(=O)/C=C\c1ccccc1Sc1ccccc1CO)N1CCCCC1

>  <Energy>  (12) 
72.03937930820989

>  <Genealogy>  (12) 
O=C([C@@H]1CCCN1C(=O)C=Cc1ccccc1Sc1ccccc1CO)N1CCCCC1 (chirality)
O=C([C@@H]1CCCN1C(=O)/C=C\c1ccccc1Sc1ccccc1CO)N1CCCCC1 (cis-trans isomerization)
O=C([C@@H]1CCCN1C(=O)/C=C\c1ccccc1Sc1ccccc1CO)N1CCCCC1 (3D coordinates assigned)
O=C([C@@H]1CCCN1C(=O)/C=C\c1ccccc1Sc1ccccc1CO)N1CCCCC1 (nonaromatic ring conformer: 72.03937930820989 kcal/mol)

>  <smiles>  (12) 
O=C(C1CCCN1C(=O)C=Cc1ccccc1Sc1ccccc1CO)N1CCCCC1

>  <score_type>  (12) 
oracle

>  <origin>  (12) 
adg

>  <m_score__min__energy>  (12) 
-10.48

>  <m_primary>  (12) 
energy

$$$$
12:0
     RDKit          3D

 48 50  0  0  0  0  0  0  0  0999 V2000
   57.9040   27.5800   43.0320 C   0  0  0  0  0  0  0  0  0  0  0  0
   58.0060   27.3180   44.3440 C   0  0  0  0  0  0  0  0  0  0  0  0
   57.6740   26.1320   45.0190 C   0  0  0  0  0  0  0  0  0  0  0  0
   57.0840   24.9970   44.5900 C   0  0  0  0  0  0  0  0  0  0  0  0
   55.7200   24.5600   44.9420 C   0  0  0  0  0  0  0  0  0  0  0  0
   54.8250   25.4260   45.5980 C   0  0  0  0  0  0  0  0  0  0  0  0
   55.2030   26.7100   45.9930 O   0  0  0  0  0  0  0  0  0  0  0  0
   53.5620   25.0060   45.8680 N   0  0  0  0  0  0  0  0  0  0  0  0
   53.1370   23.7690   45.5080 C   0  0  0  0  0  0  0  0  0  0  0  0
   51.6120   23.2980   45.8530 S   0  0  0  0  0  0  0  0  0  0  0  0
   53.9760   22.9240   44.8560 N   0  0  0  0  0  0  0  0  0  0  0  0
   55.2480   23.2910   44.5590 C   0  0  0  0  0  0  0  0  0  0  0  0
   55.9940   22.4870   43.9390 O   0  0  0  0  0  0  0  0  0  0  0  0
   58.0970   26.3600   46.3240 C   0  0  0  0  0  0  0  0  0  0  0  0
   57.9980   25.4150   47.4800 C   0  0  0  0  0  0  0  0  0  0  0  0
   58.6100   27.5980   46.4330 N   0  0  0  0  0  0  0  0  0  0  0  0
   58.5490   28.1770   45.2450 N   0  0  0  0  0  0  0  0  0  0  0  0
   59.1040   29.5100   44.9970 C   0  0  0  0  0  0  0  0  0  0  0  0
   58.1340   30.5670   45.4490 C   0  0  0  0  0  0  0  0  0  0  0  0
   57.0120   30.6460   44.8800 O   0  0  0  0  0  0  0  0  0  0  0  0
   58.4850   31.5160   46.4750 N   0  0  0  0  0  0  0  0  0  0  0  0
   59.3090   31.0880   47.6170 C   0  0  0  0  0  0  0  0  0  0  0  0
   59.4970   32.2170   48.6370 C   0  0  0  0  0  0  0  0  0  0  0  0
   59.9090   33.5110   47.9150 C   0  0  0  0  0  0  0  0  0  0  0  0
   60.1570   34.6370   48.9250 C   0  0  0  0  0  0  0  0  0  0  0  0
   58.8710   33.9390   46.8400 C   0  0  0  0  0  0  0  0  0  0  0  0
   57.8520   32.8420   46.4860 C   0  0  0  0  0  0  0  0  0  0  0  0
   58.2051   28.5637   42.6425 H   0  0  0  0  0  0  0  0  0  0  0  0
   57.5193   26.8111   42.3459 H   0  0  0  0  0  0  0  0  0  0  0  0
   57.6676   24.3447   43.9237 H   0  0  0  0  0  0  0  0  0  0  0  0
   55.1430   27.5120   45.3760 H   0  0  0  0  0  0  0  0  0  0  0  0
   58.0572   25.9803   48.4218 H   0  0  0  0  0  0  0  0  0  0  0  0
   57.0387   24.8786   47.4340 H   0  0  0  0  0  0  0  0  0  0  0  0
   58.8253   24.6915   47.4340 H   0  0  0  0  0  0  0  0  0  0  0  0
   60.0470   29.6204   45.5524 H   0  0  0  0  0  0  0  0  0  0  0  0
   59.2880   29.6281   43.9190 H   0  0  0  0  0  0  0  0  0  0  0  0
   58.8168   30.2383   48.1128 H   0  0  0  0  0  0  0  0  0  0  0  0
   60.3005   30.8025   47.2358 H   0  0  0  0  0  0  0  0  0  0  0  0
   58.5519   32.3842   49.1744 H   0  0  0  0  0  0  0  0  0  0  0  0
   60.2850   31.9334   49.3502 H   0  0  0  0  0  0  0  0  0  0  0  0
   60.8502   33.3060   47.3838 H   0  0  0  0  0  0  0  0  0  0  0  0
   60.0693   34.2390   49.9467 H   0  0  0  0  0  0  0  0  0  0  0  0
   61.1669   35.0469   48.7766 H   0  0  0  0  0  0  0  0  0  0  0  0
   59.4127   35.4332   48.7766 H   0  0  0  0  0  0  0  0  0  0  0  0
   58.3212   34.8135   47.2182 H   0  0  0  0  0  0  0  0  0  0  0  0
   59.4348   34.1596   45.9216 H   0  0  0  0  0  0  0  0  0  0  0  0
   57.0437   32.8481   47.2321 H   0  0  0  0  0  0  0  0  0  0  0  0
   57.4526   33.0469   45.4818 H   0  0  0  0  0  0  0  0  0  0  0  0
  1  2  2  0
  2  3  1  0
  3  4  2  3
  4  5  1  0
  5  6  2  0
  6  7  1  0
  6  8  1  0
  8  9  1  0
  9 10  2  0
  9 11  1  0
 11 12  1  0
 12 13  2  0
  3 14  1  0
 14 15  1  0
 14 16  2  0
 16 17  1  0
 17 18  1  0
 18 19  1  0
 19 20  2  0
 19 21  1  0
 21 22  1  0
 22 23  1  0
 23 24  1  0
 24 25  1  0
 24 26  1  0
 26 27  1  0
 17  2  1  0
 27 21  1  0
 12  5  1  0
  1 28  1  0
  1 29  1  0
  4 30  1  0
  7 31  1  0
 15 32  1  0
 15 33  1  0
 15 34  1  0
 18 35  1  0
 18 36  1  0
 22 37  1  0
 22 38  1  0
 23 39  1  0
 23 40  1  0
 24 41  1  0
 25 42  1  0
 25 43  1  0
 25 44  1  0
 26 45  1  0
 26 46  1  0
 27 47  1  0
 27 48  1  0
M  CHG  2   8  -1  11  -1
M  END
>  <UniqueID>  (13) 
12

>  <SMILES>  (13) 
C=c1c(=Cc2c(O)[n-]c(=S)[n-]c2=O)c(C)nn1CC(=O)N1CCC(C)CC1

>  <Energy>  (13) 
93.89909897041619

>  <Genealogy>  (13) 
C=c1c(=Cc2c(O)[n-]c(=S)[n-]c2=O)c(C)nn1CC(=O)N1CCC(C)CC1 (protonated)
C=c1c(=Cc2c(O)[n-]c(=S)[n-]c2=O)c(C)nn1CC(=O)N1CCC(C)CC1 (3D coordinates assigned)
C=c1c(=Cc2c(O)[n-]c(=S)[n-]c2=O)c(C)nn1CC(=O)N1CCC(C)CC1 (nonaromatic ring conformer: 93.89909897041619 kcal/mol)

>  <smiles>  (13) 
C=c1c(=Cc2c(O)[nH]c(=S)[nH]c2=O)c(C)nn1CC(=O)N1CCC(C)CC1

>  <score_type>  (13) 
oracle

>  <origin>  (13) 
adg

>  <m_score__min__energy>  (13) 
-13.99

>  <m_primary>  (13) 
energy

$$$$
13:0
     RDKit          3D

 63 66  0  0  0  0  0  0  0  0999 V2000
   58.4580   26.6710   43.7920 C   0  0  0  0  0  0  0  0  0  0  0  0
   57.4590   25.7480   43.0940 C   0  0  0  0  0  0  0  0  0  0  0  0
   57.4890   24.3290   43.6210 C   0  0  0  0  0  0  0  0  0  0  0  0
   58.1050   24.0720   44.6490 O   0  0  0  0  0  0  0  0  0  0  0  0
   56.8140   23.2690   42.8900 N   0  0  0  0  0  0  0  0  0  0  0  0
   55.3470   23.3710   43.0630 C   0  0  0  0  0  0  0  0  0  0  0  0
   54.9020   23.0300   44.4990 C   0  0  0  0  0  0  0  0  0  0  0  0
   55.7210   21.9470   45.0640 N   0  0  0  0  0  0  0  0  0  0  0  0
   55.9780   21.8840   46.4860 C   0  0  0  0  0  0  0  0  0  0  0  0
   56.3610   20.6630   47.0780 C   0  0  0  0  0  0  0  0  0  0  0  0
   56.6710   20.5950   48.4380 C   0  0  0  0  0  0  0  0  0  0  0  0
   56.6150   21.7440   49.2270 C   0  0  0  0  0  0  0  0  0  0  0  0
   56.2450   22.9630   48.6590 C   0  0  0  0  0  0  0  0  0  0  0  0
   55.9240   23.0430   47.2940 C   0  0  0  0  0  0  0  0  0  0  0  0
   55.5160   24.2980   46.7390 N   0  0  0  0  0  0  0  0  0  0  0  0
   56.3750   25.4390   46.6860 C   0  0  0  0  0  0  0  0  0  0  0  0
   57.5140   25.3750   47.2170 O   0  0  0  0  0  0  0  0  0  0  0  0
   55.9270   26.6510   46.0610 N   0  0  0  0  0  0  0  0  0  0  0  0
   56.6370   27.7300   45.9090 C   0  0  0  0  0  0  0  0  0  0  0  0
   56.2850   28.7040   45.0460 N   0  0  0  0  0  0  0  0  0  0  0  0
   57.1300   29.7700   45.1090 C   0  0  0  0  0  0  0  0  0  0  0  0
   58.1640   29.6540   46.0430 C   0  0  0  0  0  0  0  0  0  0  0  0
   59.2030   30.6690   46.3550 C   0  0  0  0  0  0  0  0  0  0  0  0
   60.4000   30.3080   46.9980 C   0  0  0  0  0  0  0  0  0  0  0  0
   61.3700   31.2710   47.2830 C   0  0  0  0  0  0  0  0  0  0  0  0
   61.1620   32.6100   46.9370 C   0  0  0  0  0  0  0  0  0  0  0  0
   62.4270   33.8260   47.3210 S   0  0  0  0  0  0  0  0  0  0  0  0
   63.7970   32.6500   47.0870 C   0  0  0  0  0  0  0  0  0  0  0  0
   59.9780   32.9930   46.2900 C   0  0  0  0  0  0  0  0  0  0  0  0
   59.8050   34.3430   45.9420 O   0  0  0  0  0  0  0  0  0  0  0  0
   58.8980   34.8130   44.9490 C   0  0  0  0  0  0  0  0  0  0  0  0
   59.0020   32.0180   46.0060 C   0  0  0  0  0  0  0  0  0  0  0  0
   58.0020   28.1540   46.8000 S   0  0  0  0  0  0  0  0  0  0  0  0
   56.4350   21.0790   44.1240 C   0  0  0  0  0  0  0  0  0  0  0  0
   57.3630   21.9210   43.2260 C   0  0  0  0  0  0  0  0  0  0  0  0
   58.3498   26.5710   44.8821 H   0  0  0  0  0  0  0  0  0  0  0  0
   59.4810   26.3934   43.4981 H   0  0  0  0  0  0  0  0  0  0  0  0
   58.2620   27.7127   43.4981 H   0  0  0  0  0  0  0  0  0  0  0  0
   56.4471   26.1538   43.2400 H   0  0  0  0  0  0  0  0  0  0  0  0
   57.7387   25.7078   42.0309 H   0  0  0  0  0  0  0  0  0  0  0  0
   56.9970   23.4280   41.8700 H   0  0  0  0  0  0  0  0  0  0  0  0
   55.0341   24.3996   42.8306 H   0  0  0  0  0  0  0  0  0  0  0  0
   54.8768   22.6448   42.3836 H   0  0  0  0  0  0  0  0  0  0  0  0
   55.0059   23.9254   45.1295 H   0  0  0  0  0  0  0  0  0  0  0  0
   53.8540   22.6969   44.4702 H   0  0  0  0  0  0  0  0  0  0  0  0
   56.4163   19.7536   46.4616 H   0  0  0  0  0  0  0  0  0  0  0  0
   56.9599   19.6336   48.8879 H   0  0  0  0  0  0  0  0  0  0  0  0
   56.8627   21.6887   50.2973 H   0  0  0  0  0  0  0  0  0  0  0  0
   56.2044   23.8673   49.2840 H   0  0  0  0  0  0  0  0  0  0  0  0
   57.0080   30.6580   44.4713 H   0  0  0  0  0  0  0  0  0  0  0  0
   60.5737   29.2587   47.2787 H   0  0  0  0  0  0  0  0  0  0  0  0
   62.3039   30.9746   47.7829 H   0  0  0  0  0  0  0  0  0  0  0  0
   64.1741   32.3263   48.0684 H   0  0  0  0  0  0  0  0  0  0  0  0
   63.4374   31.7751   46.5256 H   0  0  0  0  0  0  0  0  0  0  0  0
   64.6073   33.1381   46.5256 H   0  0  0  0  0  0  0  0  0  0  0  0
   58.0227   35.2665   45.4371 H   0  0  0  0  0  0  0  0  0  0  0  0
   59.3987   35.5651   44.3216 H   0  0  0  0  0  0  0  0  0  0  0  0
   58.5722   33.9702   44.3216 H   0  0  0  0  0  0  0  0  0  0  0  0
   58.0692   32.3149   45.5042 H   0  0  0  0  0  0  0  0  0  0  0  0
   57.0366   20.3501   44.6869 H   0  0  0  0  0  0  0  0  0  0  0  0
   55.7036   20.5528   43.4930 H   0  0  0  0  0  0  0  0  0  0  0  0
   58.3216   22.0569   43.7482 H   0  0  0  0  0  0  0  0  0  0  0  0
   57.4747   21.3745   42.2779 H   0  0  0  0  0  0  0  0  0  0  0  0
  1  2  1  0
  2  3  1  0
  3  4  2  0
  3  5  1  0
  5  6  1  0
  6  7  1  0
  7  8  1  0
  8  9  1  0
  9 10  2  0
 10 11  1  0
 11 12  2  0
 12 13  1  0
 13 14  2  0
 14 15  1  0
 15 16  1  0
 16 17  2  0
 16 18  1  0
 18 19  2  3
 19 20  1  0
 20 21  1  0
 21 22  2  0
 22 23  1  0
 23 24  2  0
 24 25  1  0
 25 26  2  0
 26 27  1  0
 27 28  1  0
 26 29  1  0
 29 30  1  0
 30 31  1  0
 29 32  2  0
 22 33  1  0
  8 34  1  0
 34 35  1  0
 35  5  1  0
 14  9  1  0
 33 19  1  0
 32 23  1  0
  1 36  1  0
  1 37  1  0
  1 38  1  0
  2 39  1  0
  2 40  1  0
  5 41  1  0
  6 42  1  0
  6 43  1  0
  7 44  1  0
  7 45  1  0
 10 46  1  0
 11 47  1  0
 12 48  1  0
 13 49  1  0
 21 50  1  0
 24 51  1  0
 25 52  1  0
 28 53  1  0
 28 54  1  0
 28 55  1  0
 31 56  1  0
 31 57  1  0
 31 58  1  0
 32 59  1  0
 34 60  1  0
 34 61  1  0
 35 62  1  0
 35 63  1  0
M  CHG  3   5   1  15  -1  20  -1
M  END
>  <UniqueID>  (14) 
13

>  <SMILES>  (14) 
CCC(=O)[NH+]1CCN(c2ccccc2[N-]C(=O)N=c2[n-]cc(-c3ccc(SC)c(OC)c3)s2)CC1

>  <Energy>  (14) 
116.14083909197193

>  <Genealogy>  (14) 
CCC(=O)[NH+]1CCN(c2ccccc2[N-]C(=O)N=c2[n-]cc(-c3ccc(SC)c(OC)c3)s2)CC1 (protonated)
CCC(=O)[NH+]1CCN(c2ccccc2[N-]C(=O)N=c2[n-]cc(-c3ccc(SC)c(OC)c3)s2)CC1 (3D coordinates assigned)
CCC(=O)[NH+]1CCN(c2ccccc2[N-]C(=O)N=c2[n-]cc(-c3ccc(SC)c(OC)c3)s2)CC1 (nonaromatic ring conformer: 116.14083909197193 kcal/mol)

>  <smiles>  (14) 
CCC(=O)N1CCN(c2ccccc2NC(=O)N=c2[nH]cc(-c3ccc(SC)c(OC)c3)s2)CC1

>  <score_type>  (14) 
oracle

>  <origin>  (14) 
adg

>  <m_score__min__energy>  (14) 
-9.4100000000000001

>  <m_primary>  (14) 
energy

$$$$
14:0
     RDKit          3D

 44 47  0  0  0  0  0  0  0  0999 V2000
   58.8530   27.7860   46.8150 O   0  0  0  0  0  0  0  0  0  0  0  0
   58.5190   29.0010   46.8200 C   0  0  0  0  0  0  0  0  0  0  0  0
   59.3960   30.0050   47.4950 C   0  0  0  0  0  0  0  0  0  0  0  0
   60.7020   30.6140   46.3690 S   0  0  0  0  0  0  0  0  0  0  0  0
   61.4040   31.7950   47.5400 C   0  0  0  0  0  0  0  0  0  0  0  0
   62.5220   31.4270   48.2160 N   0  0  0  0  0  0  0  0  0  0  0  0
   63.0680   32.2190   49.1690 C   0  0  0  0  0  0  0  0  0  0  0  0
   64.2140   31.8000   49.8560 C   0  0  0  0  0  0  0  0  0  0  0  0
   64.7680   32.6100   50.8510 C   0  0  0  0  0  0  0  0  0  0  0  0
   64.1790   33.8390   51.1640 C   0  0  0  0  0  0  0  0  0  0  0  0
   63.0360   34.2650   50.4810 C   0  0  0  0  0  0  0  0  0  0  0  0
   62.4710   33.4550   49.4780 C   0  0  0  0  0  0  0  0  0  0  0  0
   61.3270   33.8380   48.7570 C   0  0  0  0  0  0  0  0  0  0  0  0
   60.7840   34.9550   48.9920 O   0  0  0  0  0  0  0  0  0  0  0  0
   60.8070   33.0060   47.7950 N   0  0  0  0  0  0  0  0  0  0  0  0
   59.6500   33.4270   47.0420 C   0  0  0  0  0  0  0  0  0  0  0  0
   58.3600   33.0540   47.4570 C   0  0  0  0  0  0  0  0  0  0  0  0
   57.2400   33.4600   46.7250 C   0  0  0  0  0  0  0  0  0  0  0  0
   57.3990   34.2320   45.5710 C   0  0  0  0  0  0  0  0  0  0  0  0
   58.6790   34.5930   45.1420 C   0  0  0  0  0  0  0  0  0  0  0  0
   59.8010   34.1890   45.8710 C   0  0  0  0  0  0  0  0  0  0  0  0
   57.3670   29.4560   46.0990 N   0  0  0  0  0  0  0  0  0  0  0  0
   57.3430   30.1300   44.8340 C   0  0  0  0  0  0  0  0  0  0  0  0
   56.4870   29.7380   43.7880 C   0  0  0  0  0  0  0  0  0  0  0  0
   56.5090   30.4240   42.5700 C   0  0  0  0  0  0  0  0  0  0  0  0
   57.3730   31.5080   42.3880 C   0  0  0  0  0  0  0  0  0  0  0  0
   57.3970   32.3640   40.8570 Cl  0  0  0  0  0  0  0  0  0  0  0  0
   58.2080   31.9150   43.4320 C   0  0  0  0  0  0  0  0  0  0  0  0
   58.1880   31.2340   44.6520 C   0  0  0  0  0  0  0  0  0  0  0  0
   58.7801   30.8557   47.8221 H   0  0  0  0  0  0  0  0  0  0  0  0
   59.8795   29.5195   48.3555 H   0  0  0  0  0  0  0  0  0  0  0  0
   64.6783   30.8330   49.6124 H   0  0  0  0  0  0  0  0  0  0  0  0
   65.6690   32.2802   51.3889 H   0  0  0  0  0  0  0  0  0  0  0  0
   64.6163   34.4724   51.9499 H   0  0  0  0  0  0  0  0  0  0  0  0
   62.5777   35.2341   50.7276 H   0  0  0  0  0  0  0  0  0  0  0  0
   58.2311   32.4405   48.3609 H   0  0  0  0  0  0  0  0  0  0  0  0
   56.2322   33.1713   47.0580 H   0  0  0  0  0  0  0  0  0  0  0  0
   56.5162   34.5556   45.0001 H   0  0  0  0  0  0  0  0  0  0  0  0
   58.8036   35.1954   44.2301 H   0  0  0  0  0  0  0  0  0  0  0  0
   60.8074   34.4690   45.5263 H   0  0  0  0  0  0  0  0  0  0  0  0
   55.7997   28.8908   43.9289 H   0  0  0  0  0  0  0  0  0  0  0  0
   55.8441   30.1097   41.7519 H   0  0  0  0  0  0  0  0  0  0  0  0
   58.8822   32.7730   43.2932 H   0  0  0  0  0  0  0  0  0  0  0  0
   58.8389   31.5659   45.4743 H   0  0  0  0  0  0  0  0  0  0  0  0
  1  2  2  0
  2  3  1  0
  3  4  1  0
  4  5  1  0
  5  6  2  0
  6  7  1  0
  7  8  2  0
  8  9  1  0
  9 10  2  0
 10 11  1  0
 11 12  2  0
 12 13  1  0
 13 14  2  0
 13 15  1  0
 15 16  1  0
 16 17  2  0
 17 18  1  0
 18 19  2  0
 19 20  1  0
 20 21  2  0
  2 22  1  0
 22 23  1  0
 23 24  2  0
 24 25  1  0
 25 26  2  0
 26 27  1  0
 26 28  1  0
 28 29  2  0
 15  5  1  0
 21 16  1  0
 29 23  1  0
 12  7  1  0
  3 30  1  0
  3 31  1  0
  8 32  1  0
  9 33  1  0
 10 34  1  0
 11 35  1  0
 17 36  1  0
 18 37  1  0
 19 38  1  0
 20 39  1  0
 21 40  1  0
 24 41  1  0
 25 42  1  0
 28 43  1  0
 29 44  1  0
M  CHG  1  22  -1
M  END
>  <UniqueID>  (15) 
14

>  <SMILES>  (15) 
O=C(CSc1nc2ccccc2c(=O)n1-c1ccccc1)[N-]c1ccc(Cl)cc1

>  <Energy>  (15) 
58.632822403595

>  <Genealogy>  (15) 
O=C(CSc1nc2ccccc2c(=O)n1-c1ccccc1)[N-]c1ccc(Cl)cc1 (protonated)
O=C(CSc1nc2ccccc2c(=O)n1-c1ccccc1)[N-]c1ccc(Cl)cc1 (3D coordinates assigned)
O=C(CSc1nc2ccccc2c(=O)n1-c1ccccc1)[N-]c1ccc(Cl)cc1 (optimized conformer: 58.632822403595 kcal/mol)

>  <smiles>  (15) 
O=C(CSc1nc2ccccc2c(=O)n1-c1ccccc1)Nc1ccc(Cl)cc1

>  <score_type>  (15) 
oracle

>  <origin>  (15) 
adg

>  <m_score__min__energy>  (15) 
-10.48

>  <m_primary>  (15) 
energy

$$$$
15:0
     RDKit          3D

 37 38  0  0  0  0  0  0  0  0999 V2000
   56.2640   24.3880   44.4760 C   0  0  0  0  0  0  0  0  0  0  0  0
   55.3160   25.0030   45.8530 S   0  0  0  0  0  0  0  0  0  0  0  0
   55.8330   24.3510   47.1040 O   0  0  0  0  0  0  0  0  0  0  0  0
   53.8620   24.6590   45.6900 O   0  0  0  0  0  0  0  0  0  0  0  0
   55.5140   26.7200   46.0030 N   0  0  0  0  0  0  0  0  0  0  0  0
   56.6750   27.4770   45.6330 C   0  0  0  0  0  0  0  0  0  0  0  0
   56.4780   28.6860   44.9530 C   0  0  0  0  0  0  0  0  0  0  0  0
   57.5650   29.4840   44.5780 C   0  0  0  0  0  0  0  0  0  0  0  0
   57.2770   31.0240   43.7700 S   0  0  0  0  0  0  0  0  0  0  0  0
   56.2970   30.8040   42.6530 O   0  0  0  0  0  0  0  0  0  0  0  0
   58.5570   31.5510   43.1810 O   0  0  0  0  0  0  0  0  0  0  0  0
   56.6220   32.1990   44.8750 N   0  0  0  0  0  0  0  0  0  0  0  0
   57.3070   33.4890   44.7610 C   0  0  0  0  0  0  0  0  0  0  0  0
   58.2080   33.7360   45.9420 C   0  0  0  0  0  0  0  0  0  0  0  0
   58.0800   32.9650   47.1100 C   0  0  0  0  0  0  0  0  0  0  0  0
   58.9300   33.1900   48.1980 C   0  0  0  0  0  0  0  0  0  0  0  0
   59.9080   34.1860   48.1290 C   0  0  0  0  0  0  0  0  0  0  0  0
   60.0370   34.9600   46.9730 C   0  0  0  0  0  0  0  0  0  0  0  0
   59.1910   34.7380   45.8830 C   0  0  0  0  0  0  0  0  0  0  0  0
   58.8670   29.0620   44.8710 C   0  0  0  0  0  0  0  0  0  0  0  0
   59.0780   27.8450   45.5210 C   0  0  0  0  0  0  0  0  0  0  0  0
   57.9930   27.0390   45.8930 C   0  0  0  0  0  0  0  0  0  0  0  0
   58.2330   25.8030   46.4870 O   0  0  0  0  0  0  0  0  0  0  0  0
   57.1317   23.8251   44.8505 H   0  0  0  0  0  0  0  0  0  0  0  0
   55.6340   23.7261   43.8636 H   0  0  0  0  0  0  0  0  0  0  0  0
   56.6117   25.2330   43.8636 H   0  0  0  0  0  0  0  0  0  0  0  0
   55.4558   29.0123   44.7107 H   0  0  0  0  0  0  0  0  0  0  0  0
   57.9114   33.4938   43.8419 H   0  0  0  0  0  0  0  0  0  0  0  0
   56.5475   34.2841   44.7313 H   0  0  0  0  0  0  0  0  0  0  0  0
   57.3092   32.1824   47.1688 H   0  0  0  0  0  0  0  0  0  0  0  0
   58.8285   32.5821   49.1092 H   0  0  0  0  0  0  0  0  0  0  0  0
   60.5764   34.3606   48.9850 H   0  0  0  0  0  0  0  0  0  0  0  0
   60.8055   35.7452   46.9207 H   0  0  0  0  0  0  0  0  0  0  0  0
   59.2952   35.3503   44.9751 H   0  0  0  0  0  0  0  0  0  0  0  0
   59.7248   29.6901   44.5887 H   0  0  0  0  0  0  0  0  0  0  0  0
   60.1038   27.5157   45.7431 H   0  0  0  0  0  0  0  0  0  0  0  0
   57.4780   25.2200   46.8300 H   0  0  0  0  0  0  0  0  0  0  0  0
  1  2  1  0
  2  3  2  0
  2  4  2  0
  2  5  1  0
  5  6  1  0
  6  7  2  0
  7  8  1  0
  8  9  1  0
  9 10  2  0
  9 11  2  0
  9 12  1  0
 12 13  1  0
 13 14  1  0
 14 15  2  0
 15 16  1  0
 16 17  2  0
 17 18  1  0
 18 19  2  0
  8 20  2  0
 20 21  1  0
 21 22  2  0
 22 23  1  0
 22  6  1  0
 19 14  1  0
  1 24  1  0
  1 25  1  0
  1 26  1  0
  7 27  1  0
 13 28  1  0
 13 29  1  0
 15 30  1  0
 16 31  1  0
 17 32  1  0
 18 33  1  0
 19 34  1  0
 20 35  1  0
 21 36  1  0
 23 37  1  0
M  CHG  2   5  -1  12  -1
M  END
>  <UniqueID>  (16) 
15

>  <SMILES>  (16) 
CS(=O)(=O)[N-]c1cc(S(=O)(=O)[N-]Cc2ccccc2)ccc1O

>  <Energy>  (16) 
38.21730232743006

>  <Genealogy>  (16) 
CS(=O)(=O)[N-]c1cc(S(=O)(=O)[N-]Cc2ccccc2)ccc1O (protonated)
CS(=O)(=O)[N-]c1cc(S(=O)(=O)[N-]Cc2ccccc2)ccc1O (3D coordinates assigned)
CS(=O)(=O)[N-]c1cc(S(=O)(=O)[N-]Cc2ccccc2)ccc1O (optimized conformer: 38.21730232743006 kcal/mol)

>  <smiles>  (16) 
CS(=O)(=O)Nc1cc(S(=O)(=O)NCc2ccccc2)ccc1O

>  <score_type>  (16) 
oracle

>  <origin>  (16) 
adg

>  <m_score__min__energy>  (16) 
-11.289999999999999

>  <m_primary>  (16) 
energy

$$$$
16:0
     RDKit          3D

 43 46  0  0  0  0  0  0  0  0999 V2000
   55.1949   28.8266   44.0360 H   0  0  0  0  0  0  0  0  0  0  0  0
   55.8220   29.7070   43.8320 C   0  0  0  0  0  0  0  0  0  0  0  0
   56.1570   30.5500   44.8440 N   0  0  0  0  0  0  0  0  0  0  0  0
   56.9260   31.6580   44.6340 C   0  0  0  0  0  0  0  0  0  0  0  0
   57.2600   32.4500   45.6110 N   0  0  0  0  0  0  0  0  0  0  0  0
   58.4630   32.4280   46.3990 C   0  0  0  0  0  0  0  0  0  0  0  0
   59.1760   33.6240   46.5500 C   0  0  0  0  0  0  0  0  0  0  0  0
   58.8479   34.5261   46.0127 H   0  0  0  0  0  0  0  0  0  0  0  0
   60.3000   33.6810   47.3770 C   0  0  0  0  0  0  0  0  0  0  0  0
   60.8606   34.6221   47.4772 H   0  0  0  0  0  0  0  0  0  0  0  0
   60.7130   32.5470   48.0760 C   0  0  0  0  0  0  0  0  0  0  0  0
   61.5925   32.5998   48.7345 H   0  0  0  0  0  0  0  0  0  0  0  0
   60.0120   31.3400   47.9430 C   0  0  0  0  0  0  0  0  0  0  0  0
   60.4340   30.1600   48.7260 C   0  0  0  0  0  0  0  0  0  0  0  0
   61.2160   30.2480   49.8200 N   0  0  0  0  0  0  0  0  0  0  0  0
   61.3810   29.0180   50.2820 N   0  0  0  0  0  0  0  0  0  0  0  0
   60.7020   28.1940   49.4610 C   0  0  0  0  0  0  0  0  0  0  0  0
   60.6870   26.7070   49.6240 C   0  0  0  0  0  0  0  0  0  0  0  0
   60.6845   26.4555   50.6949 H   0  0  0  0  0  0  0  0  0  0  0  0
   59.7847   26.2951   49.1485 H   0  0  0  0  0  0  0  0  0  0  0  0
   61.5809   26.2770   49.1485 H   0  0  0  0  0  0  0  0  0  0  0  0
   60.0850   28.8790   48.4740 N   0  0  0  0  0  0  0  0  0  0  0  0
   59.4050   28.3430   47.3260 C   0  0  0  0  0  0  0  0  0  0  0  0
   59.9350   28.5300   46.0410 C   0  0  0  0  0  0  0  0  0  0  0  0
   60.8557   29.1172   45.9085 H   0  0  0  0  0  0  0  0  0  0  0  0
   59.2990   27.9740   44.9290 C   0  0  0  0  0  0  0  0  0  0  0  0
   59.7186   28.1266   43.9237 H   0  0  0  0  0  0  0  0  0  0  0  0
   58.1320   27.2250   45.0900 C   0  0  0  0  0  0  0  0  0  0  0  0
   57.6431   26.7796   44.2110 H   0  0  0  0  0  0  0  0  0  0  0  0
   57.5770   27.0360   46.3690 C   0  0  0  0  0  0  0  0  0  0  0  0
   56.3300   26.2600   46.5440 C   0  0  0  0  0  0  0  0  0  0  0  0
   56.3330   25.1810   47.1930 O   0  0  0  0  0  0  0  0  0  0  0  0
   55.1380   26.7100   45.9900 O   0  0  0  0  0  0  0  0  0  0  0  0
   58.2220   27.6030   47.4830 C   0  0  0  0  0  0  0  0  0  0  0  0
   57.7953   27.4653   48.4875 H   0  0  0  0  0  0  0  0  0  0  0  0
   58.8760   31.2870   47.1150 C   0  0  0  0  0  0  0  0  0  0  0  0
   58.3071   30.3497   47.0261 H   0  0  0  0  0  0  0  0  0  0  0  0
   57.4030   31.9290   43.3460 C   0  0  0  0  0  0  0  0  0  0  0  0
   58.0365   32.8098   43.1647 H   0  0  0  0  0  0  0  0  0  0  0  0
   57.0700   31.0750   42.2930 C   0  0  0  0  0  0  0  0  0  0  0  0
   57.4355   31.2836   41.2767 H   0  0  0  0  0  0  0  0  0  0  0  0
   56.2720   29.9560   42.5340 C   0  0  0  0  0  0  0  0  0  0  0  0
   56.0007   29.2782   41.7112 H   0  0  0  0  0  0  0  0  0  0  0  0
  1  2  1  0
  2  3  1  0
  3  4  1  0
  4  5  2  0
  5  6  1  0
  6  7  2  0
  7  8  1  0
  7  9  1  0
  9 10  1  0
  9 11  2  0
 11 12  1  0
 11 13  1  0
 13 14  1  0
 14 15  2  0
 15 16  1  0
 16 17  2  0
 17 18  1  0
 18 19  1  0
 18 20  1  0
 18 21  1  0
 17 22  1  0
 22 23  1  0
 23 24  2  0
 24 25  1  0
 24 26  1  0
 26 27  1  0
 26 28  2  0
 28 29  1  0
 28 30  1  0
 30 31  1  0
 31 32  2  0
 31 33  1  0
 30 34  2  0
 34 35  1  0
 13 36  2  0
 36 37  1  0
  4 38  1  0
 38 39  1  0
 38 40  2  0
 40 41  1  0
 40 42  1  0
 42 43  1  0
 42  2  2  0
 36  6  1  0
 22 14  1  0
 34 23  1  0
M  CHG  2   3  -1  33  -1
M  END
>  <UniqueID>  (17) 
16

>  <SMILES>  (17) 
Cc1nnc(-c2cccc(/N=c3/cccc[n-]3)c2)n1-c1cccc(C(=O)[O-])c1

>  <Energy>  (17) 
96.51794865000637

>  <Genealogy>  (17) 
Cc1nnc(-c2cccc(N=c3cccc[n-]3)c2)n1-c1cccc(C(=O)[O-])c1 (protonated)
Cc1nnc(-c2cccc(/N=c3/cccc[n-]3)c2)n1-c1cccc(C(=O)[O-])c1 (cis-trans isomerization)
Cc1nnc(-c2cccc(/N=c3/cccc[n-]3)c2)n1-c1cccc(C(=O)[O-])c1 (3D coordinates assigned)
Cc1nnc(-c2cccc(/N=c3/cccc[n-]3)c2)n1-c1cccc(C(=O)[O-])c1 (optimized conformer: 96.51794865000637 kcal/mol)

>  <smiles>  (17) 
Cc1nnc(-c2cccc(N=c3cccc[nH]3)c2)n1-c1cccc(C(=O)O)c1

>  <score_type>  (17) 
oracle

>  <origin>  (17) 
adg

>  <m_score__min__energy>  (17) 
-13.19

>  <m_primary>  (17) 
energy

$$$$
17:0
     RDKit          3D

 45 47  0  0  0  0  0  0  0  0999 V2000
   54.3430   29.3620   45.3350 H   0  0  0  0  0  0  0  0  0  0  0  0
   55.1490   29.3370   44.6740 N   0  0  0  0  0  0  0  0  0  0  0  0
   56.2740   29.9530   44.8750 C   0  0  0  0  0  0  0  0  0  0  0  0
   56.2900   31.3110   44.8010 N   0  0  0  0  0  0  0  0  0  0  0  0
   57.4210   32.0350   45.0040 C   0  0  0  0  0  0  0  0  0  0  0  0
   57.3620   33.7830   44.8980 Cl  0  0  0  0  0  0  0  0  0  0  0  0
   58.6210   31.3880   45.2940 C   0  0  0  0  0  0  0  0  0  0  0  0
   59.5367   31.9723   45.4676 H   0  0  0  0  0  0  0  0  0  0  0  0
   58.6540   29.9910   45.3630 C   0  0  0  0  0  0  0  0  0  0  0  0
   59.9350   29.3230   45.6610 C   0  0  0  0  0  0  0  0  0  0  0  0
   60.3820   28.4800   44.8380 O   0  0  0  0  0  0  0  0  0  0  0  0
   60.6630   29.6010   46.8770 N   0  0  0  0  0  0  0  0  0  0  0  0
   60.4640   28.7570   48.0600 C   0  0  0  0  0  0  0  0  0  0  0  0
   60.6062   29.3601   48.9688 H   0  0  0  0  0  0  0  0  0  0  0  0
   59.4441   28.3451   48.0492 H   0  0  0  0  0  0  0  0  0  0  0  0
   61.1925   27.9328   48.0492 H   0  0  0  0  0  0  0  0  0  0  0  0
   61.6420   30.6970   46.9100 C   0  0  0  0  0  0  0  0  0  0  0  0
   62.5096   30.3924   47.5137 H   0  0  0  0  0  0  0  0  0  0  0  0
   61.9636   30.9249   45.8830 H   0  0  0  0  0  0  0  0  0  0  0  0
   61.0200   31.9240   47.5160 C   0  0  0  0  0  0  0  0  0  0  0  0
   60.8520   33.0900   46.7530 C   0  0  0  0  0  0  0  0  0  0  0  0
   61.1958   33.1155   45.7084 H   0  0  0  0  0  0  0  0  0  0  0  0
   60.2500   34.2180   47.3150 C   0  0  0  0  0  0  0  0  0  0  0  0
   60.1306   35.1324   46.7153 H   0  0  0  0  0  0  0  0  0  0  0  0
   59.7990   34.1880   48.6370 C   0  0  0  0  0  0  0  0  0  0  0  0
   59.3355   35.0828   49.0781 H   0  0  0  0  0  0  0  0  0  0  0  0
   59.9350   33.0200   49.4050 C   0  0  0  0  0  0  0  0  0  0  0  0
   59.4680   32.9840   50.8110 C   0  0  0  0  0  0  0  0  0  0  0  0
   58.1380   32.6070   51.0670 C   0  0  0  0  0  0  0  0  0  0  0  0
   57.4684   32.3680   50.2276 H   0  0  0  0  0  0  0  0  0  0  0  0
   57.6590   32.5330   52.3760 C   0  0  0  0  0  0  0  0  0  0  0  0
   56.6164   32.2365   52.5631 H   0  0  0  0  0  0  0  0  0  0  0  0
   58.4990   32.8340   53.4460 C   0  0  0  0  0  0  0  0  0  0  0  0
   58.1219   32.7643   54.4770 H   0  0  0  0  0  0  0  0  0  0  0  0
   59.8190   33.2240   53.2110 C   0  0  0  0  0  0  0  0  0  0  0  0
   60.4779   33.4560   54.0607 H   0  0  0  0  0  0  0  0  0  0  0  0
   60.3140   33.3230   51.8990 C   0  0  0  0  0  0  0  0  0  0  0  0
   61.7390   33.7680   51.6980 C   0  0  0  0  0  0  0  0  0  0  0  0
   62.2180   33.9176   52.6769 H   0  0  0  0  0  0  0  0  0  0  0  0
   62.2875   32.9984   51.1352 H   0  0  0  0  0  0  0  0  0  0  0  0
   61.7521   34.7130   51.1352 H   0  0  0  0  0  0  0  0  0  0  0  0
   60.5520   31.8930   48.8400 C   0  0  0  0  0  0  0  0  0  0  0  0
   60.6700   30.9780   49.4390 H   0  0  0  0  0  0  0  0  0  0  0  0
   57.4670   29.2550   45.1680 C   0  0  0  0  0  0  0  0  0  0  0  0
   57.4770   27.4960   45.3450 Cl  0  0  0  0  0  0  0  0  0  0  0  0
  1  2  1  0
  2  3  2  0
  3  4  1  0
  4  5  1  0
  5  6  1  0
  5  7  2  0
  7  8  1  0
  7  9  1  0
  9 10  1  0
 10 11  2  0
 10 12  1  0
 12 13  1  0
 13 14  1  0
 13 15  1  0
 13 16  1  0
 12 17  1  0
 17 18  1  0
 17 19  1  0
 17 20  1  0
 20 21  2  0
 21 22  1  0
 21 23  1  0
 23 24  1  0
 23 25  2  0
 25 26  1  0
 25 27  1  0
 27 28  1  0
 28 29  2  0
 29 30  1  0
 29 31  1  0
 31 32  1  0
 31 33  2  0
 33 34  1  0
 33 35  1  0
 35 36  1  0
 35 37  2  0
 37 38  1  0
 38 39  1  0
 38 40  1  0
 38 41  1  0
 27 42  2  0
 42 43  1  0
  9 44  2  0
 44 45  1  0
 44  3  1  0
 42 20  1  0
 37 28  1  0
M  CHG  1   4  -1
M  END
>  <UniqueID>  (18) 
17

>  <SMILES>  (18) 
[H]/N=c1/[n-]c(Cl)cc(C(=O)N(C)Cc2cccc(-c3ccccc3C)c2)c1Cl

>  <Energy>  (18) 
60.64467911258352

>  <Genealogy>  (18) 
Cc1ccccc1-c1cccc(CN(C)C(=O)c2cc(Cl)[n-]c(=N)c2Cl)c1 (protonated)
[H]/N=c1/[n-]c(Cl)cc(C(=O)N(C)Cc2cccc(-c3ccccc3C)c2)c1Cl (cis-trans isomerization)
[H]/N=c1/[n-]c(Cl)cc(C(=O)N(C)Cc2cccc(-c3ccccc3C)c2)c1Cl (3D coordinates assigned)
[H]/N=c1/[n-]c(Cl)cc(C(=O)N(C)Cc2cccc(-c3ccccc3C)c2)c1Cl (optimized conformer: 60.64467911258352 kcal/mol)

>  <smiles>  (18) 
Cc1ccccc1-c1cccc(CN(C)C(=O)c2cc(Cl)[nH]c(=N)c2Cl)c1

>  <score_type>  (18) 
oracle

>  <origin>  (18) 
adg

>  <m_score__min__energy>  (18) 
-10.73

>  <m_primary>  (18) 
energy

$$$$
18:0
     RDKit          3D

 33 34  0  0  0  0  0  0  0  0999 V2000
   61.5220   33.4340   46.8850 C   0  0  0  0  0  0  0  0  0  0  0  0
   60.1150   33.1790   46.4150 C   0  0  0  0  0  0  0  0  0  0  0  0
   59.6270   31.8660   46.3500 C   0  0  0  0  0  0  0  0  0  0  0  0
   58.3180   31.6070   45.9110 C   0  0  0  0  0  0  0  0  0  0  0  0
   57.8000   30.2620   45.8280 N   0  0  0  0  0  0  0  0  0  0  0  0
   58.5660   29.1100   45.3470 C   0  0  0  0  0  0  0  0  0  0  0  0
   57.8890   27.8180   45.7330 C   0  0  0  0  0  0  0  0  0  0  0  0
   58.6590   26.7270   46.1750 C   0  0  0  0  0  0  0  0  0  0  0  0
   58.0430   25.5240   46.5260 C   0  0  0  0  0  0  0  0  0  0  0  0
   56.6550   25.3980   46.4470 C   0  0  0  0  0  0  0  0  0  0  0  0
   55.8760   26.4770   46.0200 C   0  0  0  0  0  0  0  0  0  0  0  0
   54.4940   26.3340   45.9510 O   0  0  0  0  0  0  0  0  0  0  0  0
   56.4860   27.6920   45.6640 C   0  0  0  0  0  0  0  0  0  0  0  0
   55.7140   28.7770   45.2440 O   0  0  0  0  0  0  0  0  0  0  0  0
   57.5060   32.6990   45.5570 C   0  0  0  0  0  0  0  0  0  0  0  0
   56.3250   32.5180   45.1610 O   0  0  0  0  0  0  0  0  0  0  0  0
   57.9930   33.9640   45.6330 N   0  0  0  0  0  0  0  0  0  0  0  0
   59.2600   34.2380   46.0460 C   0  0  0  0  0  0  0  0  0  0  0  0
   59.7080   35.6700   46.0920 C   0  0  0  0  0  0  0  0  0  0  0  0
   61.5461   33.4384   47.9847 H   0  0  0  0  0  0  0  0  0  0  0  0
   62.1842   32.6412   46.5069 H   0  0  0  0  0  0  0  0  0  0  0  0
   61.8639   34.4087   46.5069 H   0  0  0  0  0  0  0  0  0  0  0  0
   60.2767   31.0292   46.6462 H   0  0  0  0  0  0  0  0  0  0  0  0
   56.7960   30.0940   46.0610 H   0  0  0  0  0  0  0  0  0  0  0  0
   58.6458   29.1620   44.2511 H   0  0  0  0  0  0  0  0  0  0  0  0
   59.5658   29.1350   45.8051 H   0  0  0  0  0  0  0  0  0  0  0  0
   59.7527   26.8220   46.2445 H   0  0  0  0  0  0  0  0  0  0  0  0
   58.6528   24.6738   46.8655 H   0  0  0  0  0  0  0  0  0  0  0  0
   56.1735   24.4478   46.7213 H   0  0  0  0  0  0  0  0  0  0  0  0
   54.7740   28.9340   45.5840 H   0  0  0  0  0  0  0  0  0  0  0  0
   59.8079   35.9894   47.1398 H   0  0  0  0  0  0  0  0  0  0  0  0
   60.6793   35.7668   45.5849 H   0  0  0  0  0  0  0  0  0  0  0  0
   58.9650   36.3031   45.5849 H   0  0  0  0  0  0  0  0  0  0  0  0
  1  2  1  0
  2  3  1  0
  3  4  2  0
  4  5  1  0
  5  6  1  0
  6  7  1  0
  7  8  2  0
  8  9  1  0
  9 10  2  0
 10 11  1  0
 11 12  1  0
 11 13  2  0
 13 14  1  0
  4 15  1  0
 15 16  2  0
 15 17  1  0
 17 18  1  0
 18 19  1  0
 18  2  2  0
 13  7  1  0
  1 20  1  0
  1 21  1  0
  1 22  1  0
  3 23  1  0
  5 24  1  0
  6 25  1  0
  6 26  1  0
  8 27  1  0
  9 28  1  0
 10 29  1  0
 14 30  1  0
 19 31  1  0
 19 32  1  0
 19 33  1  0
M  CHG  2  12  -1  17  -1
M  END
>  <UniqueID>  (19) 
18

>  <SMILES>  (19) 
Cc1cc(NCc2cccc([O-])c2O)c(=O)[n-]c1C

>  <Energy>  (19) 
34.34432144604322

>  <Genealogy>  (19) 
Cc1cc(NCc2cccc([O-])c2O)c(=O)[n-]c1C (protonated)
Cc1cc(NCc2cccc([O-])c2O)c(=O)[n-]c1C (3D coordinates assigned)
Cc1cc(NCc2cccc([O-])c2O)c(=O)[n-]c1C (optimized conformer: 34.34432144604322 kcal/mol)

>  <smiles>  (19) 
Cc1cc(NCc2cccc(O)c2O)c(=O)[nH]c1C

>  <score_type>  (19) 
oracle

>  <origin>  (19) 
adg

>  <m_score__min__energy>  (19) 
-12.4

>  <m_primary>  (19) 
energy

$$$$
19:0
     RDKit          3D

 30 31  0  0  0  0  0  0  0  0999 V2000
   60.0600   33.4440   50.2610 C   0  0  0  0  0  0  0  0  0  0  0  0
   61.1560   33.1330   49.3380 N   0  0  0  0  0  0  0  0  0  0  0  0
   62.4810   33.6040   49.6320 C   0  0  0  0  0  0  0  0  0  0  0  0
   62.6930   34.3040   50.6600 O   0  0  0  0  0  0  0  0  0  0  0  0
   63.6050   33.2540   48.7500 C   0  0  0  0  0  0  0  0  0  0  0  0
   64.7700   33.6100   49.0740 O   0  0  0  0  0  0  0  0  0  0  0  0
   63.4010   32.5420   47.5110 N   0  0  2  0  0  0  0  0  0  0  0  0
   63.4910   33.4670   46.3730 C   0  0  0  0  0  0  0  0  0  0  0  0
   62.1450   31.8190   47.4810 C   0  0  0  0  0  0  0  0  0  0  0  0
   62.0780   30.7640   46.8640 O   0  0  0  0  0  0  0  0  0  0  0  0
   60.8780   32.3620   48.1160 C   0  0  2  0  0  0  0  0  0  0  0  0
   60.0820   33.1680   47.1070 C   0  0  0  0  0  0  0  0  0  0  0  0
   59.0340   32.5460   46.4040 C   0  0  0  0  0  0  0  0  0  0  0  0
   58.2970   33.2560   45.4520 C   0  0  0  0  0  0  0  0  0  0  0  0
   58.6020   34.5920   45.1840 C   0  0  0  0  0  0  0  0  0  0  0  0
   59.6460   35.2200   45.8670 C   0  0  0  0  0  0  0  0  0  0  0  0
   60.3850   34.5150   46.8210 C   0  0  0  0  0  0  0  0  0  0  0  0
   60.4140   33.3436   51.2976 H   0  0  0  0  0  0  0  0  0  0  0  0
   59.7171   34.4749   50.0889 H   0  0  0  0  0  0  0  0  0  0  0  0
   59.2267   32.7468   50.0889 H   0  0  0  0  0  0  0  0  0  0  0  0
   64.1770   31.8430   47.4200 H   0  0  0  0  0  0  0  0  0  0  0  0
   63.5912   34.4973   46.7450 H   0  0  0  0  0  0  0  0  0  0  0  0
   64.3685   33.2111   45.7610 H   0  0  0  0  0  0  0  0  0  0  0  0
   62.5806   33.3851   45.7610 H   0  0  0  0  0  0  0  0  0  0  0  0
   60.2641   31.5040   48.4273 H   0  0  0  0  0  0  0  0  0  0  0  0
   58.7926   31.4919   46.6053 H   0  0  0  0  0  0  0  0  0  0  0  0
   57.4754   32.7615   44.9130 H   0  0  0  0  0  0  0  0  0  0  0  0
   58.0203   35.1497   44.4353 H   0  0  0  0  0  0  0  0  0  0  0  0
   59.8871   36.2718   45.6536 H   0  0  0  0  0  0  0  0  0  0  0  0
   61.2086   35.0144   47.3523 H   0  0  0  0  0  0  0  0  0  0  0  0
  1  2  1  0
  2  3  1  0
  3  4  2  0
  3  5  1  0
  5  6  2  0
  5  7  1  0
  7  8  1  0
  7  9  1  0
  9 10  2  0
  9 11  1  0
 11 12  1  0
 12 13  2  0
 13 14  1  0
 14 15  2  0
 15 16  1  0
 16 17  2  0
 11  2  1  0
 17 12  1  0
  1 18  1  0
  1 19  1  0
  1 20  1  0
  7 21  1  6
  8 22  1  0
  8 23  1  0
  8 24  1  0
 11 25  1  1
 13 26  1  0
 14 27  1  0
 15 28  1  0
 16 29  1  0
 17 30  1  0
M  CHG  1   7   1
M  END
>  <UniqueID>  (20) 
19

>  <SMILES>  (20) 
CN1C(=O)C(=O)[N@H+](C)C(=O)[C@@H]1c1ccccc1

>  <Energy>  (20) 
33.056067399620176

>  <Genealogy>  (20) 
CN1C(=O)C(=O)[NH+](C)C(=O)C1c1ccccc1 (protonated)
CN1C(=O)C(=O)[N@H+](C)C(=O)[C@@H]1c1ccccc1 (chirality)
CN1C(=O)C(=O)[N@H+](C)C(=O)[C@@H]1c1ccccc1 (3D coordinates assigned)
CN1C(=O)C(=O)[N@H+](C)C(=O)[C@@H]1c1ccccc1 (nonaromatic ring conformer: 33.056067399620176 kcal/mol)

>  <smiles>  (20) 
CN1C(=O)C(=O)N(C)C(c2ccccc2)C1=O

>  <score_type>  (20) 
oracle

>  <origin>  (20) 
adg

>  <m_score__min__energy>  (20) 
-4.7999999999999998

>  <m_primary>  (20) 
energy

$$$$
20:0
     RDKit          3D

 59 62  0  0  0  0  0  0  0  0999 V2000
   54.4200   25.8100   45.6260 O   0  0  0  0  0  0  0  0  0  0  0  0
   55.8200   25.4040   45.9910 S   0  0  0  0  0  0  0  0  0  0  0  0
   55.7710   24.4710   47.1680 O   0  0  0  0  0  0  0  0  0  0  0  0
   56.7550   26.8110   46.4010 N   0  0  0  0  0  0  0  0  0  0  0  0
   58.1810   26.5140   46.2870 C   0  0  0  0  0  0  0  0  0  0  0  0
   58.9330   27.7490   45.7500 C   0  0  2  0  0  0  0  0  0  0  0  0
   60.2590   27.9640   46.4940 C   0  0  0  0  0  0  0  0  0  0  0  0
   60.0550   28.4660   47.9290 C   0  0  0  0  0  0  0  0  0  0  0  0
   58.8010   29.3470   48.0980 C   0  0  0  0  0  0  0  0  0  0  0  0
   58.3750   29.9980   46.8450 N   0  0  0  0  0  0  0  0  0  0  0  0
   59.2610   31.1070   46.4330 C   0  0  0  0  0  0  0  0  0  0  0  0
   58.5170   32.0460   45.5270 C   0  0  0  0  0  0  0  0  0  0  0  0
   58.1940   31.7940   44.2110 C   0  0  0  0  0  0  0  0  0  0  0  0
   57.5070   32.8410   43.7100 N   0  0  0  0  0  0  0  0  0  0  0  0
   57.4240   33.7100   44.7390 C   0  0  0  0  0  0  0  0  0  0  0  0
   58.0180   33.2530   45.8590 N   0  0  0  0  0  0  0  0  0  0  0  0
   58.1360   33.9770   47.1260 C   0  0  0  0  0  0  0  0  0  0  0  0
   59.5130   33.8000   47.7060 C   0  0  0  0  0  0  0  0  0  0  0  0
   59.6700   33.5680   49.0820 C   0  0  0  0  0  0  0  0  0  0  0  0
   60.9430   33.4270   49.6340 C   0  0  0  0  0  0  0  0  0  0  0  0
   62.0770   33.5140   48.8200 C   0  0  0  0  0  0  0  0  0  0  0  0
   63.6680   33.3270   49.5460 Cl  0  0  0  0  0  0  0  0  0  0  0  0
   61.9310   33.7390   47.4390 C   0  0  0  0  0  0  0  0  0  0  0  0
   63.3300   33.8550   46.3790 Cl  0  0  0  0  0  0  0  0  0  0  0  0
   60.6520   33.8780   46.8880 C   0  0  0  0  0  0  0  0  0  0  0  0
   58.0530   29.0330   45.7650 C   0  0  0  0  0  0  0  0  0  0  0  0
   56.5440   24.5800   44.6350 N   0  0  0  0  0  0  0  0  0  0  0  0
   57.5510   23.6180   45.0850 C   0  0  0  0  0  0  0  0  0  0  0  0
   57.6220   22.5420   44.0170 C   0  0  0  0  0  0  0  0  0  0  0  0
   56.2670   22.5790   43.3270 C   0  0  0  0  0  0  0  0  0  0  0  0
   55.5500   23.7990   43.8950 C   0  0  0  0  0  0  0  0  0  0  0  0
   58.5783   26.2472   47.2774 H   0  0  0  0  0  0  0  0  0  0  0  0
   58.3215   25.6736   45.5913 H   0  0  0  0  0  0  0  0  0  0  0  0
   59.1700   27.5435   44.6957 H   0  0  0  0  0  0  0  0  0  0  0  0
   60.8025   27.0083   46.5289 H   0  0  0  0  0  0  0  0  0  0  0  0
   60.8260   28.7332   45.9492 H   0  0  0  0  0  0  0  0  0  0  0  0
   59.9605   27.5942   48.5931 H   0  0  0  0  0  0  0  0  0  0  0  0
   60.9256   29.0891   48.1815 H   0  0  0  0  0  0  0  0  0  0  0  0
   57.9768   28.7159   48.4618 H   0  0  0  0  0  0  0  0  0  0  0  0
   59.0559   30.1451   48.8107 H   0  0  0  0  0  0  0  0  0  0  0  0
   59.6005   31.6534   47.3253 H   0  0  0  0  0  0  0  0  0  0  0  0
   60.1288   30.6968   45.8957 H   0  0  0  0  0  0  0  0  0  0  0  0
   58.4557   30.8812   43.6558 H   0  0  0  0  0  0  0  0  0  0  0  0
   56.9245   34.6877   44.6708 H   0  0  0  0  0  0  0  0  0  0  0  0
   57.9517   35.0471   46.9503 H   0  0  0  0  0  0  0  0  0  0  0  0
   57.3964   33.5771   47.8353 H   0  0  0  0  0  0  0  0  0  0  0  0
   58.7831   33.4970   49.7288 H   0  0  0  0  0  0  0  0  0  0  0  0
   61.0555   33.2467   50.7133 H   0  0  0  0  0  0  0  0  0  0  0  0
   60.5381   34.0494   45.8074 H   0  0  0  0  0  0  0  0  0  0  0  0
   57.0031   28.7264   45.8824 H   0  0  0  0  0  0  0  0  0  0  0  0
   58.2508   29.5539   44.8166 H   0  0  0  0  0  0  0  0  0  0  0  0
   58.5278   24.1121   45.1930 H   0  0  0  0  0  0  0  0  0  0  0  0
   57.2864   23.1918   46.0639 H   0  0  0  0  0  0  0  0  0  0  0  0
   58.4267   22.7620   43.3000 H   0  0  0  0  0  0  0  0  0  0  0  0
   57.8407   21.5518   44.4433 H   0  0  0  0  0  0  0  0  0  0  0  0
   56.3930   22.6799   42.2389 H   0  0  0  0  0  0  0  0  0  0  0  0
   55.6967   21.6546   43.5008 H   0  0  0  0  0  0  0  0  0  0  0  0
   55.1286   24.4028   43.0778 H   0  0  0  0  0  0  0  0  0  0  0  0
   54.7234   23.4945   44.5538 H   0  0  0  0  0  0  0  0  0  0  0  0
  1  2  2  0
  2  3  2  0
  2  4  1  0
  4  5  1  0
  5  6  1  0
  6  7  1  0
  7  8  1  0
  8  9  1  0
  9 10  1  0
 10 11  1  0
 11 12  1  0
 12 13  2  0
 13 14  1  0
 14 15  2  0
 15 16  1  0
 16 17  1  0
 17 18  1  0
 18 19  2  0
 19 20  1  0
 20 21  2  0
 21 22  1  0
 21 23  1  0
 23 24  1  0
 23 25  2  0
 10 26  1  0
  2 27  1  0
 27 28  1  0
 28 29  1  0
 29 30  1  0
 30 31  1  0
 26  6  1  0
 31 27  1  0
 16 12  1  0
 25 18  1  0
  5 32  1  0
  5 33  1  0
  6 34  1  6
  7 35  1  0
  7 36  1  0
  8 37  1  0
  8 38  1  0
  9 39  1  0
  9 40  1  0
 11 41  1  0
 11 42  1  0
 13 43  1  0
 15 44  1  0
 17 45  1  0
 17 46  1  0
 19 47  1  0
 20 48  1  0
 25 49  1  0
 26 50  1  0
 26 51  1  0
 28 52  1  0
 28 53  1  0
 29 54  1  0
 29 55  1  0
 30 56  1  0
 30 57  1  0
 31 58  1  0
 31 59  1  0
M  CHG  1   4  -1
M  END
>  <UniqueID>  (21) 
20

>  <SMILES>  (21) 
O=S(=O)([N-]C[C@@H]1CCCN(Cc2cncn2Cc2ccc(Cl)c(Cl)c2)C1)N1CCCC1

>  <Energy>  (21) 
95.56474253456079

>  <Genealogy>  (21) 
O=S(=O)([N-]CC1CCCN(Cc2cncn2Cc2ccc(Cl)c(Cl)c2)C1)N1CCCC1 (protonated)
O=S(=O)([N-]C[C@@H]1CCCN(Cc2cncn2Cc2ccc(Cl)c(Cl)c2)C1)N1CCCC1 (chirality)
O=S(=O)([N-]C[C@@H]1CCCN(Cc2cncn2Cc2ccc(Cl)c(Cl)c2)C1)N1CCCC1 (3D coordinates assigned)
O=S(=O)([N-]C[C@@H]1CCCN(Cc2cncn2Cc2ccc(Cl)c(Cl)c2)C1)N1CCCC1 (nonaromatic ring conformer: 95.56474253456079 kcal/mol)

>  <smiles>  (21) 
O=S(=O)(NCC1CCCN(Cc2cncn2Cc2ccc(Cl)c(Cl)c2)C1)N1CCCC1

>  <score_type>  (21) 
oracle

>  <origin>  (21) 
adg

>  <m_score__min__energy>  (21) 
-12.01

>  <m_primary>  (21) 
energy

$$$$
21:0
     RDKit          3D

 37 39  0  0  0  0  0  0  0  0999 V2000
   55.9100   23.7060   47.1790 C   0  0  0  0  0  0  0  0  0  0  0  0
   55.8500   24.8850   45.8500 S   0  0  0  0  0  0  0  0  0  0  0  0
   54.5680   25.6650   45.9340 O   0  0  0  0  0  0  0  0  0  0  0  0
   55.8940   24.1660   44.5320 O   0  0  0  0  0  0  0  0  0  0  0  0
   57.2090   25.9590   45.9740 N   0  0  0  0  0  0  0  0  0  0  0  0
   56.9900   27.3670   45.7730 C   0  0  0  0  0  0  0  0  0  0  0  0
   58.0140   28.2390   45.7310 C   0  0  0  0  0  0  0  0  0  0  0  0
   57.7630   29.6800   45.4950 C   0  0  0  0  0  0  0  0  0  0  0  0
   58.5950   30.6500   45.9290 N   0  0  0  0  0  0  0  0  0  0  0  0
   58.0160   31.7930   45.5150 C   0  0  0  0  0  0  0  0  0  0  0  0
   58.5820   33.1400   45.7670 C   0  0  0  0  0  0  0  0  0  0  0  0
   58.9760   33.5410   47.0600 C   0  0  0  0  0  0  0  0  0  0  0  0
   59.5060   34.8170   47.2750 C   0  0  0  0  0  0  0  0  0  0  0  0
   59.6510   35.7060   46.2080 C   0  0  0  0  0  0  0  0  0  0  0  0
   59.2660   35.3210   44.9230 C   0  0  0  0  0  0  0  0  0  0  0  0
   58.7340   34.0470   44.7020 C   0  0  0  0  0  0  0  0  0  0  0  0
   56.8490   31.4860   44.8430 C   0  0  0  0  0  0  0  0  0  0  0  0
   56.6870   30.1530   44.8290 N   0  0  0  0  0  0  0  0  0  0  0  0
   59.4400   27.7440   45.8140 C   0  0  0  0  0  0  0  0  0  0  0  0
   59.5430   26.4260   46.5870 C   0  0  0  0  0  0  0  0  0  0  0  0
   58.5630   25.4030   46.0170 C   0  0  0  0  0  0  0  0  0  0  0  0
   55.8830   24.2372   48.1419 H   0  0  0  0  0  0  0  0  0  0  0  0
   55.0451   23.0300   47.1088 H   0  0  0  0  0  0  0  0  0  0  0  0
   56.8391   23.1213   47.1088 H   0  0  0  0  0  0  0  0  0  0  0  0
   55.9620   27.7390   45.6509 H   0  0  0  0  0  0  0  0  0  0  0  0
   58.8658   32.8456   47.9051 H   0  0  0  0  0  0  0  0  0  0  0  0
   59.8096   35.1213   48.2875 H   0  0  0  0  0  0  0  0  0  0  0  0
   60.0684   36.7091   46.3802 H   0  0  0  0  0  0  0  0  0  0  0  0
   59.3813   36.0211   44.0825 H   0  0  0  0  0  0  0  0  0  0  0  0
   58.4316   33.7511   43.6866 H   0  0  0  0  0  0  0  0  0  0  0  0
   56.1620   32.2168   44.3914 H   0  0  0  0  0  0  0  0  0  0  0  0
   59.8226   27.5891   44.7944 H   0  0  0  0  0  0  0  0  0  0  0  0
   60.0327   28.5004   46.3493 H   0  0  0  0  0  0  0  0  0  0  0  0
   60.5674   26.0342   46.5026 H   0  0  0  0  0  0  0  0  0  0  0  0
   59.2971   26.6091   47.6434 H   0  0  0  0  0  0  0  0  0  0  0  0
   58.8753   25.1312   44.9979 H   0  0  0  0  0  0  0  0  0  0  0  0
   58.5618   24.5128   46.6632 H   0  0  0  0  0  0  0  0  0  0  0  0
  1  2  1  0
  2  3  2  0
  2  4  2  0
  2  5  1  0
  5  6  1  0
  6  7  2  0
  7  8  1  0
  8  9  2  0
  9 10  1  0
 10 11  1  0
 11 12  2  0
 12 13  1  0
 13 14  2  0
 14 15  1  0
 15 16  2  0
 10 17  2  0
 17 18  1  0
  7 19  1  0
 19 20  1  0
 20 21  1  0
 21  5  1  0
 18  8  1  0
 16 11  1  0
  1 22  1  0
  1 23  1  0
  1 24  1  0
  6 25  1  0
 12 26  1  0
 13 27  1  0
 14 28  1  0
 15 29  1  0
 16 30  1  0
 17 31  1  0
 19 32  1  0
 19 33  1  0
 20 34  1  0
 20 35  1  0
 21 36  1  0
 21 37  1  0
M  CHG  1  18  -1
M  END
>  <UniqueID>  (22) 
21

>  <SMILES>  (22) 
CS(=O)(=O)N1C=C(c2nc(-c3ccccc3)c[n-]2)CCC1

>  <Energy>  (22) 
62.13348012215074

>  <Genealogy>  (22) 
CS(=O)(=O)N1C=C(c2nc(-c3ccccc3)c[n-]2)CCC1 (protonated)
CS(=O)(=O)N1C=C(c2nc(-c3ccccc3)c[n-]2)CCC1 (3D coordinates assigned)
CS(=O)(=O)N1C=C(c2nc(-c3ccccc3)c[n-]2)CCC1 (nonaromatic ring conformer: 62.13348012215074 kcal/mol)

>  <smiles>  (22) 
CS(=O)(=O)N1C=C(c2nc(-c3ccccc3)c[nH]2)CCC1

>  <score_type>  (22) 
oracle

>  <origin>  (22) 
adg

>  <m_score__min__energy>  (22) 
-9.5399999999999991

>  <m_primary>  (22) 
energy

$$$$
22:0
     RDKit          3D

 51 54  0  0  0  0  0  0  0  0999 V2000
   51.8410   32.0450   49.5080 H   0  0  0  0  0  0  0  0  0  0  0  0
   51.4250   32.7120   50.1960 N   0  0  0  0  0  0  0  0  0  0  0  0
   51.1150   32.3420   51.3940 C   0  0  0  0  0  0  0  0  0  0  0  0
   51.2350   31.0370   51.7510 N   0  0  0  0  0  0  0  0  0  0  0  0
   50.9050   30.6080   53.0000 C   0  0  0  0  0  0  0  0  0  0  0  0
   51.0730   29.1910   53.3870 C   0  0  0  0  0  0  0  0  0  0  0  0
   50.1904   28.6679   53.7836 H   0  0  0  0  0  0  0  0  0  0  0  0
   52.2150   28.4900   53.2940 C   0  0  0  0  0  0  0  0  0  0  0  0
   52.1450   27.4567   52.9233 H   0  0  0  0  0  0  0  0  0  0  0  0
   53.5570   28.9940   53.6490 C   0  0  0  0  0  0  0  0  0  0  0  0
   54.1080   28.7640   54.9210 C   0  0  0  0  0  0  0  0  0  0  0  0
   53.5512   28.1689   55.6598 H   0  0  0  0  0  0  0  0  0  0  0  0
   55.3600   29.2880   55.2510 C   0  0  0  0  0  0  0  0  0  0  0  0
   55.7906   29.0957   56.2448 H   0  0  0  0  0  0  0  0  0  0  0  0
   56.0660   30.0550   54.3230 C   0  0  0  0  0  0  0  0  0  0  0  0
   57.0510   30.4661   54.5890 H   0  0  0  0  0  0  0  0  0  0  0  0
   55.5240   30.3050   53.0490 C   0  0  0  0  0  0  0  0  0  0  0  0
   56.2170   31.1230   52.0880 N   0  0  0  0  0  0  0  0  0  0  0  0
   55.7700   32.0220   51.8010 H   0  0  0  0  0  0  0  0  0  0  0  0
   57.3980   30.7020   51.3870 C   0  0  0  0  0  0  0  0  0  0  0  0
   57.6500   29.4710   51.2690 O   0  0  0  0  0  0  0  0  0  0  0  0
   58.3020   31.6940   50.7550 C   0  0  0  0  0  0  0  0  0  0  0  0
   58.8110   31.4870   49.4610 C   0  0  0  0  0  0  0  0  0  0  0  0
   58.5415   30.5750   48.9082 H   0  0  0  0  0  0  0  0  0  0  0  0
   59.6570   32.4310   48.8710 C   0  0  0  0  0  0  0  0  0  0  0  0
   60.0597   32.2505   47.8634 H   0  0  0  0  0  0  0  0  0  0  0  0
   59.9950   33.6070   49.5570 C   0  0  0  0  0  0  0  0  0  0  0  0
   60.9360   34.6050   48.9380 C   0  0  0  0  0  0  0  0  0  0  0  0
   60.5578   34.8978   47.9474 H   0  0  0  0  0  0  0  0  0  0  0  0
   61.0030   35.4912   49.5861 H   0  0  0  0  0  0  0  0  0  0  0  0
   62.2660   34.0100   48.7940 N   0  0  0  0  0  0  0  0  0  0  0  0
   62.3970   33.3140   49.5680 H   0  0  0  0  0  0  0  0  0  0  0  0
   62.3690   33.3630   47.4770 C   0  0  0  0  0  0  0  0  0  0  0  0
   61.3373   33.5743   47.1592 H   0  0  0  0  0  0  0  0  0  0  0  0
   63.2720   32.1390   47.4130 C   0  0  0  0  0  0  0  0  0  0  0  0
   63.7210   31.7377   48.3335 H   0  0  0  0  0  0  0  0  0  0  0  0
   63.1718   31.1176   47.0171 H   0  0  0  0  0  0  0  0  0  0  0  0
   63.7500   33.4710   46.8500 C   0  0  0  0  0  0  0  0  0  0  0  0
   64.5449   34.0317   47.3637 H   0  0  0  0  0  0  0  0  0  0  0  0
   64.1386   33.8101   45.8784 H   0  0  0  0  0  0  0  0  0  0  0  0
   59.4950   33.8150   50.8500 C   0  0  0  0  0  0  0  0  0  0  0  0
   59.7709   34.7250   51.4029 H   0  0  0  0  0  0  0  0  0  0  0  0
   58.6480   32.8730   51.4410 C   0  0  0  0  0  0  0  0  0  0  0  0
   58.2490   33.0547   52.4498 H   0  0  0  0  0  0  0  0  0  0  0  0
   54.2560   29.7930   52.7320 C   0  0  0  0  0  0  0  0  0  0  0  0
   53.8058   30.0206   51.7545 H   0  0  0  0  0  0  0  0  0  0  0  0
   50.4650   31.5410   53.9470 C   0  0  0  0  0  0  0  0  0  0  0  0
   50.2165   31.2259   54.9712 H   0  0  0  0  0  0  0  0  0  0  0  0
   50.3480   32.8780   53.5660 C   0  0  0  0  0  0  0  0  0  0  0  0
   49.9450   33.7380   54.3910 O   0  0  0  0  0  0  0  0  0  0  0  0
   50.6720   33.2540   52.3010 N   0  0  0  0  0  0  0  0  0  0  0  0
  1  2  1  0
  2  3  2  0
  3  4  1  0
  4  5  1  0
  5  6  1  0
  6  7  1  0
  6  8  2  3
  8  9  1  0
  8 10  1  0
 10 11  2  0
 11 12  1  0
 11 13  1  0
 13 14  1  0
 13 15  2  0
 15 16  1  0
 15 17  1  0
 17 18  1  0
 18 19  1  0
 18 20  1  0
 20 21  2  0
 20 22  1  0
 22 23  2  0
 23 24  1  0
 23 25  1  0
 25 26  1  0
 25 27  2  0
 27 28  1  0
 28 29  1  0
 28 30  1  0
 28 31  1  0
 31 32  1  0
 31 33  1  0
 33 34  1  0
 33 35  1  0
 35 36  1  0
 35 37  1  0
 35 38  1  0
 38 39  1  0
 38 40  1  0
 27 41  1  0
 41 42  1  0
 41 43  2  0
 43 44  1  0
 17 45  2  0
 45 46  1  0
  5 47  2  0
 47 48  1  0
 47 49  1  0
 49 50  2  0
 49 51  1  0
 51  3  1  0
 45 10  1  0
 43 22  1  0
 38 33  1  0
M  CHG  2   4  -1  51  -1
M  END
>  <UniqueID>  (23) 
22

>  <SMILES>  (23) 
[H]/N=c1/[n-]c(C=Cc2cccc(NC(=O)c3ccc(CNC4CC4)cc3)c2)cc(=O)[n-]1

>  <Energy>  (23) 
332.8802242675004

>  <Genealogy>  (23) 
N=c1[n-]c(C=Cc2cccc(NC(=O)c3ccc(CNC4CC4)cc3)c2)cc(=O)[n-]1 (protonated)
[H]/N=c1/[n-]c(C=Cc2cccc(NC(=O)c3ccc(CNC4CC4)cc3)c2)cc(=O)[n-]1 (cis-trans isomerization)
[H]/N=c1/[n-]c(C=Cc2cccc(NC(=O)c3ccc(CNC4CC4)cc3)c2)cc(=O)[n-]1 (3D coordinates assigned)
[H]/N=c1/[n-]c(C=Cc2cccc(NC(=O)c3ccc(CNC4CC4)cc3)c2)cc(=O)[n-]1 (nonaromatic ring conformer: 332.8802242675004 kcal/mol)

>  <smiles>  (23) 
N=c1[nH]c(C=Cc2cccc(NC(=O)c3ccc(CNC4CC4)cc3)c2)cc(=O)[nH]1

>  <score_type>  (23) 
oracle

>  <origin>  (23) 
adg

>  <m_score__min__energy>  (23) 
-14.220000000000001

>  <m_primary>  (23) 
energy

$$$$
23:0
     RDKit          3D

 37 39  0  0  0  0  0  0  0  0999 V2000
   55.1620   29.9050   45.1490 O   0  0  0  0  0  0  0  0  0  0  0  0
   55.9850   28.9940   44.8660 C   0  0  0  0  0  0  0  0  0  0  0  0
   57.0160   29.2540   43.7980 C   0  0  0  0  0  0  0  0  0  0  0  0
   56.9550   30.7040   43.2960 C   0  0  0  0  0  0  0  0  0  0  0  0
   57.4550   31.6620   44.3340 C   0  0  0  0  0  0  0  0  0  0  0  0
   57.6930   32.9590   44.0020 N   0  0  0  0  0  0  0  0  0  0  0  0
   58.2140   33.8360   44.8980 C   0  0  0  0  0  0  0  0  0  0  0  0
   58.4180   35.0310   44.5500 O   0  0  0  0  0  0  0  0  0  0  0  0
   58.5280   33.3990   46.1940 C   0  0  0  0  0  0  0  0  0  0  0  0
   59.0750   34.2530   47.1700 C   0  0  0  0  0  0  0  0  0  0  0  0
   59.3750   33.7590   48.4430 C   0  0  0  0  0  0  0  0  0  0  0  0
   59.1360   32.4160   48.7510 C   0  0  0  0  0  0  0  0  0  0  0  0
   58.5940   31.5600   47.7890 C   0  0  0  0  0  0  0  0  0  0  0  0
   58.2850   32.0450   46.5130 C   0  0  0  0  0  0  0  0  0  0  0  0
   57.7590   31.2130   45.5810 N   0  0  0  0  0  0  0  0  0  0  0  0
   55.9330   27.7640   45.6010 N   0  0  0  0  0  0  0  0  0  0  0  0
   57.0250   26.8070   45.7100 C   0  0  0  0  0  0  0  0  0  0  0  0
   58.2580   27.5080   46.2010 C   0  0  0  0  0  0  0  0  0  0  0  0
   59.3000   27.8300   45.3190 C   0  0  0  0  0  0  0  0  0  0  0  0
   60.4300   28.5020   45.7900 C   0  0  0  0  0  0  0  0  0  0  0  0
   60.5030   28.8570   47.1380 C   0  0  0  0  0  0  0  0  0  0  0  0
   59.4740   28.5600   47.9780 N   0  0  0  0  0  0  0  0  0  0  0  0
   58.3630   27.9040   47.5430 C   0  0  0  0  0  0  0  0  0  0  0  0
   58.0164   29.0614   44.2129 H   0  0  0  0  0  0  0  0  0  0  0  0
   56.8083   28.5864   42.9488 H   0  0  0  0  0  0  0  0  0  0  0  0
   57.5770   30.7970   42.3935 H   0  0  0  0  0  0  0  0  0  0  0  0
   55.9062   30.9501   43.0735 H   0  0  0  0  0  0  0  0  0  0  0  0
   59.2665   35.3095   46.9311 H   0  0  0  0  0  0  0  0  0  0  0  0
   59.8004   34.4289   49.2048 H   0  0  0  0  0  0  0  0  0  0  0  0
   59.3755   32.0324   49.7537 H   0  0  0  0  0  0  0  0  0  0  0  0
   58.4099   30.5037   48.0347 H   0  0  0  0  0  0  0  0  0  0  0  0
   56.7475   26.0134   46.4193 H   0  0  0  0  0  0  0  0  0  0  0  0
   57.2238   26.3639   44.7230 H   0  0  0  0  0  0  0  0  0  0  0  0
   59.2272   27.5534   44.2568 H   0  0  0  0  0  0  0  0  0  0  0  0
   61.2546   28.7492   45.1053 H   0  0  0  0  0  0  0  0  0  0  0  0
   61.3930   29.3773   47.5218 H   0  0  0  0  0  0  0  0  0  0  0  0
   57.5456   27.6839   48.2455 H   0  0  0  0  0  0  0  0  0  0  0  0
  1  2  2  0
  2  3  1  0
  3  4  1  0
  4  5  1  0
  5  6  2  0
  6  7  1  0
  7  8  2  0
  7  9  1  0
  9 10  2  0
 10 11  1  0
 11 12  2  0
 12 13  1  0
 13 14  2  0
 14 15  1  0
  2 16  1  0
 16 17  1  0
 17 18  1  0
 18 19  2  0
 19 20  1  0
 20 21  2  0
 21 22  1  0
 22 23  2  0
 15  5  1  0
 23 18  1  0
 14  9  1  0
  3 24  1  0
  3 25  1  0
  4 26  1  0
  4 27  1  0
 10 28  1  0
 11 29  1  0
 12 30  1  0
 13 31  1  0
 17 32  1  0
 17 33  1  0
 19 34  1  0
 20 35  1  0
 21 36  1  0
 23 37  1  0
M  CHG  2  15  -1  16  -1
M  END
>  <UniqueID>  (24) 
23

>  <SMILES>  (24) 
O=C(CCc1nc(=O)c2ccccc2[n-]1)[N-]Cc1cccnc1

>  <Energy>  (24) 
36.114299771844486

>  <Genealogy>  (24) 
O=C(CCc1nc(=O)c2ccccc2[n-]1)[N-]Cc1cccnc1 (protonated)
O=C(CCc1nc(=O)c2ccccc2[n-]1)[N-]Cc1cccnc1 (3D coordinates assigned)
O=C(CCc1nc(=O)c2ccccc2[n-]1)[N-]Cc1cccnc1 (optimized conformer: 36.114299771844486 kcal/mol)

>  <smiles>  (24) 
O=C(CCc1nc(=O)c2ccccc2[nH]1)NCc1cccnc1

>  <score_type>  (24) 
oracle

>  <origin>  (24) 
adg

>  <m_score__min__energy>  (24) 
-11.470000000000001

>  <m_primary>  (24) 
energy

$$$$
24:0
     RDKit          3D

 40 42  0  0  0  0  0  0  0  0999 V2000
   63.7570   31.9560   47.7940 O   0  0  0  0  0  0  0  0  0  0  0  0
   62.6750   32.4840   47.4270 C   0  0  0  0  0  0  0  0  0  0  0  0
   61.3230   31.8620   47.6130 C   0  0  0  0  0  0  0  0  0  0  0  0
   60.4390   32.8570   47.0200 N   0  0  0  0  0  0  0  0  0  0  0  0
   58.7080   32.7810   46.9980 S   0  0  0  0  0  0  0  0  0  0  0  0
   58.1370   34.1540   47.2190 O   0  0  0  0  0  0  0  0  0  0  0  0
   58.2430   31.8800   48.1080 O   0  0  0  0  0  0  0  0  0  0  0  0
   58.1710   32.1790   45.4330 C   0  0  0  0  0  0  0  0  0  0  0  0
   57.6240   30.8920   45.3170 C   0  0  0  0  0  0  0  0  0  0  0  0
   57.2120   30.4040   44.0660 C   0  0  0  0  0  0  0  0  0  0  0  0
   56.5940   29.0420   43.9520 C   0  0  0  0  0  0  0  0  0  0  0  0
   57.8980   27.8140   43.6110 S   0  0  0  0  0  0  0  0  0  0  0  0
   58.5670   27.8810   45.2820 C   0  0  0  0  0  0  0  0  0  0  0  0
   59.7910   28.5450   45.4520 C   0  0  0  0  0  0  0  0  0  0  0  0
   60.3630   28.6700   46.7170 C   0  0  0  0  0  0  0  0  0  0  0  0
   59.7150   28.1390   47.8300 C   0  0  0  0  0  0  0  0  0  0  0  0
   58.4920   27.4820   47.6810 C   0  0  0  0  0  0  0  0  0  0  0  0
   57.8960   27.3370   46.4110 C   0  0  0  0  0  0  0  0  0  0  0  0
   56.5890   26.6300   46.3200 C   0  0  0  0  0  0  0  0  0  0  0  0
   56.4400   25.5060   46.8710 O   0  0  0  0  0  0  0  0  0  0  0  0
   55.5190   27.1640   45.6140 O   0  0  0  0  0  0  0  0  0  0  0  0
   57.3310   31.2230   42.9330 C   0  0  0  0  0  0  0  0  0  0  0  0
   57.8780   32.5040   43.0450 C   0  0  0  0  0  0  0  0  0  0  0  0
   58.3010   32.9820   44.2880 C   0  0  0  0  0  0  0  0  0  0  0  0
   58.8320   34.2280   44.3770 F   0  0  0  0  0  0  0  0  0  0  0  0
   61.2270   33.9450   46.5600 C   0  0  0  0  0  0  0  0  0  0  0  0
   60.7510   34.9760   46.0140 O   0  0  0  0  0  0  0  0  0  0  0  0
   62.6090   33.7510   46.7870 N   0  0  0  0  0  0  0  0  0  0  0  0
   61.2511   30.8999   47.0846 H   0  0  0  0  0  0  0  0  0  0  0  0
   61.0851   31.6308   48.6618 H   0  0  0  0  0  0  0  0  0  0  0  0
   57.5171   30.2611   46.2117 H   0  0  0  0  0  0  0  0  0  0  0  0
   56.0880   28.7882   44.8952 H   0  0  0  0  0  0  0  0  0  0  0  0
   55.8609   29.0379   43.1319 H   0  0  0  0  0  0  0  0  0  0  0  0
   60.3048   28.9715   44.5779 H   0  0  0  0  0  0  0  0  0  0  0  0
   61.3261   29.1879   46.8364 H   0  0  0  0  0  0  0  0  0  0  0  0
   60.1675   28.2375   48.8278 H   0  0  0  0  0  0  0  0  0  0  0  0
   57.9859   27.0715   48.5672 H   0  0  0  0  0  0  0  0  0  0  0  0
   56.9925   30.8554   41.9531 H   0  0  0  0  0  0  0  0  0  0  0  0
   57.9759   33.1382   42.1516 H   0  0  0  0  0  0  0  0  0  0  0  0
   63.3970   34.3940   46.5480 H   0  0  0  0  0  0  0  0  0  0  0  0
  1  2  2  0
  2  3  1  0
  3  4  1  0
  4  5  1  0
  5  6  2  0
  5  7  2  0
  5  8  1  0
  8  9  2  0
  9 10  1  0
 10 11  1  0
 11 12  1  0
 12 13  1  0
 13 14  2  0
 14 15  1  0
 15 16  2  0
 16 17  1  0
 17 18  2  0
 18 19  1  0
 19 20  2  0
 19 21  1  0
 10 22  2  0
 22 23  1  0
 23 24  2  0
 24 25  1  0
  4 26  1  0
 26 27  2  0
 26 28  1  0
 28  2  1  0
 24  8  1  0
 18 13  1  0
  3 29  1  0
  3 30  1  0
  9 31  1  0
 11 32  1  0
 11 33  1  0
 14 34  1  0
 15 35  1  0
 16 36  1  0
 17 37  1  0
 22 38  1  0
 23 39  1  0
 28 40  1  0
M  CHG  1  21  -1
M  END
>  <UniqueID>  (25) 
24

>  <SMILES>  (25) 
O=C1CN(S(=O)(=O)c2cc(CSc3ccccc3C(=O)[O-])ccc2F)C(=O)N1

>  <Energy>  (25) 
62.82622777365158

>  <Genealogy>  (25) 
O=C1CN(S(=O)(=O)c2cc(CSc3ccccc3C(=O)[O-])ccc2F)C(=O)N1 (protonated)
O=C1CN(S(=O)(=O)c2cc(CSc3ccccc3C(=O)[O-])ccc2F)C(=O)N1 (3D coordinates assigned)
O=C1CN(S(=O)(=O)c2cc(CSc3ccccc3C(=O)[O-])ccc2F)C(=O)N1 (nonaromatic ring conformer: 62.82622777365158 kcal/mol)

>  <smiles>  (25) 
O=C1CN(S(=O)(=O)c2cc(CSc3ccccc3C(=O)O)ccc2F)C(=O)N1

>  <score_type>  (25) 
oracle

>  <origin>  (25) 
adg

>  <m_score__min__energy>  (25) 
-12.02

>  <m_primary>  (25) 
energy

$$$$
25:0
     RDKit          3D

 52 54  0  0  0  0  0  0  0  0999 V2000
   57.2240   24.0660   46.1950 C   0  0  0  0  0  0  0  0  0  0  0  0
   57.0400   25.1660   47.2330 C   0  0  0  0  0  0  0  0  0  0  0  0
   57.3790   26.4830   46.6600 N   0  0  0  0  0  0  0  0  0  0  0  0
   56.4200   27.2000   46.0010 C   0  0  0  0  0  0  0  0  0  0  0  0
   55.1210   26.7130   45.8760 O   0  0  0  0  0  0  0  0  0  0  0  0
   56.7300   28.4270   45.4340 C   0  0  0  0  0  0  0  0  0  0  0  0
   58.0210   28.9260   45.5640 C   0  0  0  0  0  0  0  0  0  0  0  0
   58.3100   30.0090   44.9860 O   0  0  0  0  0  0  0  0  0  0  0  0
   58.9580   28.2420   46.2950 N   0  0  0  0  0  0  0  0  0  0  0  0
   60.3220   28.8010   46.4710 C   0  0  0  0  0  0  0  0  0  0  0  0
   60.4230   29.8840   47.5810 C   0  0  1  0  0  0  0  0  0  0  0  0
   60.9790   29.3390   48.9090 C   0  0  0  0  0  0  0  0  0  0  0  0
   60.8650   30.3950   50.0210 C   0  0  0  0  0  0  0  0  0  0  0  0
   61.1260   31.8220   49.5010 C   0  0  0  0  0  0  0  0  0  0  0  0
   61.9370   31.7700   48.2710 N   0  0  0  0  0  0  0  0  0  0  0  0
   62.5090   33.0860   47.9200 C   0  0  0  0  0  0  0  0  0  0  0  0
   61.5030   34.1940   48.2470 C   0  0  0  0  0  0  0  0  0  0  0  0
   60.3000   34.1140   47.3400 C   0  0  0  0  0  0  0  0  0  0  0  0
   60.3760   34.5860   46.0190 C   0  0  0  0  0  0  0  0  0  0  0  0
   59.2460   34.5620   45.1970 C   0  0  0  0  0  0  0  0  0  0  0  0
   58.0260   34.0940   45.6940 C   0  0  0  0  0  0  0  0  0  0  0  0
   56.9270   34.0880   44.9010 F   0  0  0  0  0  0  0  0  0  0  0  0
   57.9390   33.6370   47.0120 C   0  0  0  0  0  0  0  0  0  0  0  0
   59.0700   33.6410   47.8310 C   0  0  0  0  0  0  0  0  0  0  0  0
   61.1800   31.1720   47.1500 C   0  0  0  0  0  0  0  0  0  0  0  0
   58.6390   27.0080   46.8170 C   0  0  0  0  0  0  0  0  0  0  0  0
   59.5130   26.3480   47.4500 O   0  0  0  0  0  0  0  0  0  0  0  0
   57.3848   23.1044   46.7044 H   0  0  0  0  0  0  0  0  0  0  0  0
   56.3242   24.0015   45.5656 H   0  0  0  0  0  0  0  0  0  0  0  0
   58.0958   24.2979   45.5656 H   0  0  0  0  0  0  0  0  0  0  0  0
   55.9920   25.1761   47.5671 H   0  0  0  0  0  0  0  0  0  0  0  0
   57.7087   24.9665   48.0833 H   0  0  0  0  0  0  0  0  0  0  0  0
   55.9643   28.9980   44.8885 H   0  0  0  0  0  0  0  0  0  0  0  0
   61.0030   27.9766   46.7291 H   0  0  0  0  0  0  0  0  0  0  0  0
   60.5899   29.2908   45.5232 H   0  0  0  0  0  0  0  0  0  0  0  0
   59.3779   30.1811   47.7528 H   0  0  0  0  0  0  0  0  0  0  0  0
   60.4075   28.4453   49.1999 H   0  0  0  0  0  0  0  0  0  0  0  0
   62.0403   29.0853   48.7701 H   0  0  0  0  0  0  0  0  0  0  0  0
   59.8513   30.3532   50.4460 H   0  0  0  0  0  0  0  0  0  0  0  0
   61.6283   30.1684   50.7800 H   0  0  0  0  0  0  0  0  0  0  0  0
   60.1654   32.3118   49.2835 H   0  0  0  0  0  0  0  0  0  0  0  0
   61.6701   32.3920   50.2684 H   0  0  0  0  0  0  0  0  0  0  0  0
   63.4314   33.2486   48.4968 H   0  0  0  0  0  0  0  0  0  0  0  0
   62.7356   33.1077   46.8438 H   0  0  0  0  0  0  0  0  0  0  0  0
   61.1746   34.0855   49.2912 H   0  0  0  0  0  0  0  0  0  0  0  0
   61.9919   35.1679   48.0971 H   0  0  0  0  0  0  0  0  0  0  0  0
   61.3283   34.9759   45.6303 H   0  0  0  0  0  0  0  0  0  0  0  0
   59.3167   34.9121   44.1566 H   0  0  0  0  0  0  0  0  0  0  0  0
   56.9779   33.2736   47.4048 H   0  0  0  0  0  0  0  0  0  0  0  0
   58.9985   33.2725   48.8650 H   0  0  0  0  0  0  0  0  0  0  0  0
   60.4492   31.9074   46.7824 H   0  0  0  0  0  0  0  0  0  0  0  0
   61.8978   30.8974   46.3630 H   0  0  0  0  0  0  0  0  0  0  0  0
  1  2  1  0
  2  3  1  0
  3  4  1  0
  4  5  1  0
  4  6  2  0
  6  7  1  0
  7  8  2  0
  7  9  1  0
  9 10  1  0
 10 11  1  0
 11 12  1  0
 12 13  1  0
 13 14  1  0
 14 15  1  0
 15 16  1  0
 16 17  1  0
 17 18  1  0
 18 19  2  0
 19 20  1  0
 20 21  2  0
 21 22  1  0
 21 23  1  0
 23 24  2  0
 15 25  1  0
  9 26  1  0
 26 27  2  0
 26  3  1  0
 25 11  1  0
 24 18  1  0
  1 28  1  0
  1 29  1  0
  1 30  1  0
  2 31  1  0
  2 32  1  0
  6 33  1  0
 10 34  1  0
 10 35  1  0
 11 36  1  1
 12 37  1  0
 12 38  1  0
 13 39  1  0
 13 40  1  0
 14 41  1  0
 14 42  1  0
 16 43  1  0
 16 44  1  0
 17 45  1  0
 17 46  1  0
 19 47  1  0
 20 48  1  0
 23 49  1  0
 24 50  1  0
 25 51  1  0
 25 52  1  0
M  CHG  1   5  -1
M  END
>  <UniqueID>  (26) 
25

>  <SMILES>  (26) 
CCn1c([O-])cc(=O)n(C[C@H]2CCCN(CCc3ccc(F)cc3)C2)c1=O

>  <Energy>  (26) 
59.385794215761656

>  <Genealogy>  (26) 
CCn1c([O-])cc(=O)n(CC2CCCN(CCc3ccc(F)cc3)C2)c1=O (protonated)
CCn1c([O-])cc(=O)n(C[C@H]2CCCN(CCc3ccc(F)cc3)C2)c1=O (chirality)
CCn1c([O-])cc(=O)n(C[C@H]2CCCN(CCc3ccc(F)cc3)C2)c1=O (3D coordinates assigned)
CCn1c([O-])cc(=O)n(C[C@H]2CCCN(CCc3ccc(F)cc3)C2)c1=O (nonaromatic ring conformer: 59.385794215761656 kcal/mol)

>  <smiles>  (26) 
CCn1c(O)cc(=O)n(CC2CCCN(CCc3ccc(F)cc3)C2)c1=O

>  <score_type>  (26) 
oracle

>  <origin>  (26) 
adg

>  <m_score__min__energy>  (26) 
-10.859999999999999

>  <m_primary>  (26) 
energy

$$$$
26:0
     RDKit          3D

 52 55  0  0  0  0  0  0  0  0999 V2000
   57.0831   30.5876   41.6454 H   0  0  0  0  0  0  0  0  0  0  0  0
   57.2080   31.1750   42.5670 C   0  0  0  0  0  0  0  0  0  0  0  0
   56.4930   30.8390   43.7230 C   0  0  0  0  0  0  0  0  0  0  0  0
   55.5160   29.6990   43.7170 C   0  0  0  0  0  0  0  0  0  0  0  0
   54.4996   30.0948   43.5744 H   0  0  0  0  0  0  0  0  0  0  0  0
   55.7762   29.0135   42.8970 H   0  0  0  0  0  0  0  0  0  0  0  0
   55.5730   28.9650   44.9810 N   0  0  0  0  0  0  0  0  0  0  0  0
   56.6770   28.6460   45.5890 C   0  0  0  0  0  0  0  0  0  0  0  0
   57.0780   27.3740   45.7490 N   0  0  0  0  0  0  0  0  0  0  0  0
   58.2160   27.4280   46.4200 N   0  0  0  0  0  0  0  0  0  0  0  0
   58.4700   28.7320   46.6450 C   0  0  0  0  0  0  0  0  0  0  0  0
   59.6250   29.2060   47.3630 N   0  0  0  0  0  0  0  0  0  0  0  0
   60.4310   30.2870   46.7730 C   0  0  0  0  0  0  0  0  0  0  0  0
   59.7584   31.1132   46.4991 H   0  0  0  0  0  0  0  0  0  0  0  0
   60.9496   29.8645   45.8998 H   0  0  0  0  0  0  0  0  0  0  0  0
   61.4940   30.8240   47.7050 C   0  0  0  0  0  0  0  0  0  0  0  0
   62.4190   31.7590   47.2150 C   0  0  0  0  0  0  0  0  0  0  0  0
   62.3782   32.0657   46.1594 H   0  0  0  0  0  0  0  0  0  0  0  0
   63.3910   32.3030   48.0580 C   0  0  0  0  0  0  0  0  0  0  0  0
   64.1175   33.0280   47.6623 H   0  0  0  0  0  0  0  0  0  0  0  0
   63.4420   31.9280   49.4020 C   0  0  0  0  0  0  0  0  0  0  0  0
   64.4010   32.4800   50.2410 O   0  0  0  0  0  0  0  0  0  0  0  0
   62.5260   30.9990   49.9030 C   0  0  0  0  0  0  0  0  0  0  0  0
   62.5639   30.7109   50.9639 H   0  0  0  0  0  0  0  0  0  0  0  0
   61.5570   30.4310   49.0590 C   0  0  0  0  0  0  0  0  0  0  0  0
   60.5530   29.4640   49.6180 C   0  0  0  0  0  0  0  0  0  0  0  0
   59.6773   30.0212   49.9823 H   0  0  0  0  0  0  0  0  0  0  0  0
   61.0174   28.9062   50.4446 H   0  0  0  0  0  0  0  0  0  0  0  0
   60.1090   28.4770   48.5440 C   0  0  0  0  0  0  0  0  0  0  0  0
   59.2994   27.8466   48.9404 H   0  0  0  0  0  0  0  0  0  0  0  0
   60.9637   27.8474   48.2555 H   0  0  0  0  0  0  0  0  0  0  0  0
   57.5220   29.5430   46.1350 N   0  0  0  0  0  0  0  0  0  0  0  0
   56.6390   31.5920   44.8470 N   0  0  0  0  0  0  0  0  0  0  0  0
   57.4640   32.6740   44.9060 C   0  0  0  0  0  0  0  0  0  0  0  0
   57.5340   33.3300   46.0320 N   0  0  0  0  0  0  0  0  0  0  0  0
   58.6580   34.0040   46.6180 C   0  0  0  0  0  0  0  0  0  0  0  0
   59.1270   35.0540   46.1030 O   0  0  0  0  0  0  0  0  0  0  0  0
   59.1830   33.5170   47.8560 N   0  0  0  0  0  0  0  0  0  0  0  0
   58.5700   32.4430   48.6300 C   0  0  0  0  0  0  0  0  0  0  0  0
   58.9065   31.4736   48.2337 H   0  0  0  0  0  0  0  0  0  0  0  0
   57.4761   32.5264   48.5498 H   0  0  0  0  0  0  0  0  0  0  0  0
   58.9680   32.5500   50.1050 C   0  0  0  0  0  0  0  0  0  0  0  0
   58.8390   33.5908   50.4368 H   0  0  0  0  0  0  0  0  0  0  0  0
   60.0180   32.2379   50.2059 H   0  0  0  0  0  0  0  0  0  0  0  0
   58.1080   31.6400   50.9760 C   0  0  0  0  0  0  0  0  0  0  0  0
   58.3080   31.8517   52.0367 H   0  0  0  0  0  0  0  0  0  0  0  0
   57.0451   31.8229   50.7597 H   0  0  0  0  0  0  0  0  0  0  0  0
   58.3506   30.5891   50.7597 H   0  0  0  0  0  0  0  0  0  0  0  0
   58.2200   33.0150   43.7640 C   0  0  0  0  0  0  0  0  0  0  0  0
   58.9145   33.8676   43.7929 H   0  0  0  0  0  0  0  0  0  0  0  0
   58.0790   32.2610   42.5970 C   0  0  0  0  0  0  0  0  0  0  0  0
   58.6573   32.5256   41.6995 H   0  0  0  0  0  0  0  0  0  0  0  0
  1  2  1  0
  2  3  2  0
  3  4  1  0
  4  5  1  0
  4  6  1  0
  4  7  1  0
  7  8  2  0
  8  9  1  0
  9 10  1  0
 10 11  2  0
 11 12  1  0
 12 13  1  0
 13 14  1  0
 13 15  1  0
 13 16  1  0
 16 17  2  0
 17 18  1  0
 17 19  1  0
 19 20  1  0
 19 21  2  0
 21 22  1  0
 21 23  1  0
 23 24  1  0
 23 25  2  0
 25 26  1  0
 26 27  1  0
 26 28  1  0
 26 29  1  0
 29 30  1  0
 29 31  1  0
 11 32  1  0
  3 33  1  0
 33 34  1  0
 34 35  2  3
 35 36  1  0
 36 37  2  0
 36 38  1  0
 38 39  1  0
 39 40  1  0
 39 41  1  0
 39 42  1  0
 42 43  1  0
 42 44  1  0
 42 45  1  0
 45 46  1  0
 45 47  1  0
 45 48  1  0
 34 49  1  0
 49 50  1  0
 49 51  2  0
 51 52  1  0
 51  2  1  0
 32  8  1  0
 29 12  1  0
 25 16  1  0
M  CHG  5   9  -1  22  -1  32  -1  33  -1  38  -1
M  END
>  <UniqueID>  (27) 
26

>  <SMILES>  (27) 
CCC[N-]C(=O)N=c1cccc(C/N=c2/[n-]nc(N3CCc4cc([O-])ccc4C3)[n-]2)[n-]1

>  <Energy>  (27) 
88.55723181119897

>  <Genealogy>  (27) 
CCC[N-]C(=O)N=c1cccc(CN=c2[n-]nc(N3CCc4cc([O-])ccc4C3)[n-]2)[n-]1 (protonated)
CCC[N-]C(=O)N=c1cccc(C/N=c2/[n-]nc(N3CCc4cc([O-])ccc4C3)[n-]2)[n-]1 (cis-trans isomerization)
CCC[N-]C(=O)N=c1cccc(C/N=c2/[n-]nc(N3CCc4cc([O-])ccc4C3)[n-]2)[n-]1 (3D coordinates assigned)
CCC[N-]C(=O)N=c1cccc(C/N=c2/[n-]nc(N3CCc4cc([O-])ccc4C3)[n-]2)[n-]1 (nonaromatic ring conformer: 88.55723181119897 kcal/mol)

>  <smiles>  (27) 
CCCNC(=O)N=c1cccc(CN=c2[nH]nc(N3CCc4cc(O)ccc4C3)[nH]2)[nH]1

>  <score_type>  (27) 
oracle

>  <origin>  (27) 
adg

>  <m_score__min__energy>  (27) 
-14.16

>  <m_primary>  (27) 
energy

$$$$
27:0
     RDKit          3D

 42 45  0  0  0  0  0  0  0  0999 V2000
   59.5560   26.1080   46.0650 O   0  0  0  0  0  0  0  0  0  0  0  0
   58.4020   25.7380   46.4090 C   0  0  0  0  0  0  0  0  0  0  0  0
   57.3690   26.7810   46.7350 C   0  0  0  0  0  0  0  0  0  0  0  0
   57.7040   28.0530   46.1000 N   0  0  0  0  0  0  0  0  0  0  0  0
   58.9160   28.5870   46.0720 N   0  0  0  0  0  0  0  0  0  0  0  0
   58.9040   29.7340   45.4010 N   0  0  0  0  0  0  0  0  0  0  0  0
   57.6380   29.9270   44.9740 C   0  0  0  0  0  0  0  0  0  0  0  0
   57.1600   31.1360   44.2370 C   0  0  0  0  0  0  0  0  0  0  0  0
   57.9720   32.3310   44.6320 C   0  0  0  0  0  0  0  0  0  0  0  0
   58.4220   33.3430   43.7880 C   0  0  0  0  0  0  0  0  0  0  0  0
   59.0540   34.3040   44.5010 N   0  0  0  0  0  0  0  0  0  0  0  0
   58.9950   33.9140   45.7850 C   0  0  0  0  0  0  0  0  0  0  0  0
   59.4920   34.5920   46.8980 C   0  0  0  0  0  0  0  0  0  0  0  0
   59.2990   34.0090   48.1640 C   0  0  0  0  0  0  0  0  0  0  0  0
   58.6160   32.7770   48.2870 C   0  0  0  0  0  0  0  0  0  0  0  0
   58.1230   32.1170   47.1480 C   0  0  0  0  0  0  0  0  0  0  0  0
   58.3360   32.7170   45.9060 C   0  0  0  0  0  0  0  0  0  0  0  0
   56.8830   28.8700   45.4240 C   0  0  0  0  0  0  0  0  0  0  0  0
   55.5210   28.6690   45.2350 O   0  0  0  0  0  0  0  0  0  0  0  0
   58.0810   24.3420   46.3460 N   0  0  0  0  0  0  0  0  0  0  0  0
   57.4390   23.6650   45.2570 C   0  0  0  0  0  0  0  0  0  0  0  0
   57.1240   24.3870   44.0990 C   0  0  0  0  0  0  0  0  0  0  0  0
   56.5250   23.7470   43.0100 C   0  0  0  0  0  0  0  0  0  0  0  0
   56.2530   22.3780   43.0650 C   0  0  0  0  0  0  0  0  0  0  0  0
   56.5910   21.6400   44.2040 C   0  0  0  0  0  0  0  0  0  0  0  0
   56.3330   20.2720   44.2410 O   0  0  0  0  0  0  0  0  0  0  0  0
   57.1930   22.2830   45.2960 C   0  0  0  0  0  0  0  0  0  0  0  0
   56.3872   26.4432   46.3718 H   0  0  0  0  0  0  0  0  0  0  0  0
   57.3426   26.9252   47.8252 H   0  0  0  0  0  0  0  0  0  0  0  0
   57.2628   30.9673   43.1549 H   0  0  0  0  0  0  0  0  0  0  0  0
   56.1045   31.3178   44.4876 H   0  0  0  0  0  0  0  0  0  0  0  0
   58.2835   33.3590   42.6969 H   0  0  0  0  0  0  0  0  0  0  0  0
   59.4840   35.1790   44.1250 H   0  0  0  0  0  0  0  0  0  0  0  0
   60.0181   35.5519   46.7895 H   0  0  0  0  0  0  0  0  0  0  0  0
   59.6816   34.5144   49.0630 H   0  0  0  0  0  0  0  0  0  0  0  0
   58.4693   32.3315   49.2820 H   0  0  0  0  0  0  0  0  0  0  0  0
   57.5874   31.1599   47.2327 H   0  0  0  0  0  0  0  0  0  0  0  0
   57.3489   25.4625   44.0461 H   0  0  0  0  0  0  0  0  0  0  0  0
   56.2675   24.3223   42.1085 H   0  0  0  0  0  0  0  0  0  0  0  0
   55.7719   21.8793   42.2107 H   0  0  0  0  0  0  0  0  0  0  0  0
   57.0810   19.5900   44.1990 H   0  0  0  0  0  0  0  0  0  0  0  0
   57.4736   21.7019   46.1868 H   0  0  0  0  0  0  0  0  0  0  0  0
  1  2  2  0
  2  3  1  0
  3  4  1  0
  4  5  1  0
  5  6  2  0
  6  7  1  0
  7  8  1  0
  8  9  1  0
  9 10  2  0
 10 11  1  0
 11 12  1  0
 12 13  2  0
 13 14  1  0
 14 15  2  0
 15 16  1  0
 16 17  2  0
  7 18  2  0
 18 19  1  0
  2 20  1  0
 20 21  1  0
 21 22  2  0
 22 23  1  0
 23 24  2  0
 24 25  1  0
 25 26  1  0
 25 27  2  0
 18  4  1  0
 27 21  1  0
 17  9  1  0
 17 12  1  0
  3 28  1  0
  3 29  1  0
  8 30  1  0
  8 31  1  0
 10 32  1  0
 11 33  1  0
 13 34  1  0
 14 35  1  0
 15 36  1  0
 16 37  1  0
 22 38  1  0
 23 39  1  0
 24 40  1  0
 26 41  1  0
 27 42  1  0
M  CHG  2  19  -1  20  -1
M  END
>  <UniqueID>  (28) 
27

>  <SMILES>  (28) 
O=C(Cn1nnc(Cc2c[nH]c3ccccc23)c1[O-])[N-]c1cccc(O)c1

>  <Energy>  (28) 
117.76037413360244

>  <Genealogy>  (28) 
O=C(Cn1nnc(Cc2c[nH]c3ccccc23)c1[O-])[N-]c1cccc(O)c1 (protonated)
O=C(Cn1nnc(Cc2c[nH]c3ccccc23)c1[O-])[N-]c1cccc(O)c1 (3D coordinates assigned)
O=C(Cn1nnc(Cc2c[nH]c3ccccc23)c1[O-])[N-]c1cccc(O)c1 (optimized conformer: 117.76037413360244 kcal/mol)

>  <smiles>  (28) 
O=C(Cn1nnc(Cc2c[nH]c3ccccc23)c1O)Nc1cccc(O)c1

>  <score_type>  (28) 
oracle

>  <origin>  (28) 
adg

>  <m_score__min__energy>  (28) 
-13.66

>  <m_primary>  (28) 
energy

$$$$
28:0
     RDKit          3D

 40 41  0  0  0  0  0  0  0  0999 V2000
   58.8430   32.7330   48.2430 C   0  0  0  0  0  0  0  0  0  0  0  0
   59.0060   33.8960   46.9050 S   0  0  0  0  0  0  0  0  0  0  0  0
   59.3560   35.2490   47.4580 O   0  0  0  0  0  0  0  0  0  0  0  0
   60.1030   33.4390   45.9860 O   0  0  0  0  0  0  0  0  0  0  0  0
   57.4800   33.9990   45.9880 C   0  0  0  0  0  0  0  0  0  0  0  0
   57.3970   32.8870   44.9940 C   0  0  0  0  0  0  0  0  0  0  0  0
   58.1240   32.7950   43.8210 C   0  0  0  0  0  0  0  0  0  0  0  0
   57.7520   31.5990   43.2450 C   0  0  0  0  0  0  0  0  0  0  0  0
   56.8250   31.0400   44.1050 C   0  0  0  0  0  0  0  0  0  0  0  0
   56.1410   29.7560   43.9210 C   0  0  0  0  0  0  0  0  0  0  0  0
   55.8540   29.3530   42.7610 O   0  0  0  0  0  0  0  0  0  0  0  0
   55.7980   28.9700   45.0670 N   0  0  0  0  0  0  0  0  0  0  0  0
   56.6190   27.8730   45.5690 C   0  0  0  0  0  0  0  0  0  0  0  0
   57.8990   27.7450   44.7340 C   0  0  0  0  0  0  0  0  0  0  0  0
   59.1400   27.9730   45.5050 N   0  0  0  0  0  0  0  0  0  0  0  0
   59.9730   29.1150   45.0700 C   0  0  0  0  0  0  0  0  0  0  0  0
   59.8260   30.3330   45.9920 C   0  0  0  0  0  0  0  0  0  0  0  0
   60.0160   29.9670   47.3400 O   0  0  0  0  0  0  0  0  0  0  0  0
   58.9720   29.1040   47.7350 C   0  0  0  0  0  0  0  0  0  0  0  0
   59.0400   27.7780   46.9660 C   0  0  0  0  0  0  0  0  0  0  0  0
   56.6350   31.8280   45.1380 O   0  0  0  0  0  0  0  0  0  0  0  0
   58.9176   33.2654   49.2027 H   0  0  0  0  0  0  0  0  0  0  0  0
   57.8659   32.2322   48.1765 H   0  0  0  0  0  0  0  0  0  0  0  0
   59.6448   31.9829   48.1765 H   0  0  0  0  0  0  0  0  0  0  0  0
   56.6321   33.9268   46.6850 H   0  0  0  0  0  0  0  0  0  0  0  0
   57.4475   34.9600   45.4537 H   0  0  0  0  0  0  0  0  0  0  0  0
   58.8483   33.5243   43.4292 H   0  0  0  0  0  0  0  0  0  0  0  0
   58.1172   31.1768   42.2972 H   0  0  0  0  0  0  0  0  0  0  0  0
   56.8872   28.0700   46.6174 H   0  0  0  0  0  0  0  0  0  0  0  0
   56.0483   26.9354   45.4975 H   0  0  0  0  0  0  0  0  0  0  0  0
   57.9360   26.7310   44.3092 H   0  0  0  0  0  0  0  0  0  0  0  0
   57.8554   28.5247   43.9593 H   0  0  0  0  0  0  0  0  0  0  0  0
   61.0273   28.8012   45.0651 H   0  0  0  0  0  0  0  0  0  0  0  0
   59.6355   29.4124   44.0662 H   0  0  0  0  0  0  0  0  0  0  0  0
   60.5762   31.0880   45.7143 H   0  0  0  0  0  0  0  0  0  0  0  0
   58.8109   30.7411   45.8775 H   0  0  0  0  0  0  0  0  0  0  0  0
   59.0604   28.9008   48.8125 H   0  0  0  0  0  0  0  0  0  0  0  0
   58.0103   29.5903   47.5144 H   0  0  0  0  0  0  0  0  0  0  0  0
   59.9225   27.2174   47.3078 H   0  0  0  0  0  0  0  0  0  0  0  0
   58.1081   27.2288   47.1658 H   0  0  0  0  0  0  0  0  0  0  0  0
  1  2  1  0
  2  3  2  0
  2  4  2  0
  2  5  1  0
  5  6  1  0
  6  7  2  0
  7  8  1  0
  8  9  2  0
  9 10  1  0
 10 11  2  0
 10 12  1  0
 12 13  1  0
 13 14  1  0
 14 15  1  0
 15 16  1  0
 16 17  1  0
 17 18  1  0
 18 19  1  0
 19 20  1  0
  9 21  1  0
 21  6  1  0
 20 15  1  0
  1 22  1  0
  1 23  1  0
  1 24  1  0
  5 25  1  0
  5 26  1  0
  7 27  1  0
  8 28  1  0
 13 29  1  0
 13 30  1  0
 14 31  1  0
 14 32  1  0
 16 33  1  0
 16 34  1  0
 17 35  1  0
 17 36  1  0
 19 37  1  0
 19 38  1  0
 20 39  1  0
 20 40  1  0
M  CHG  1  12  -1
M  END
>  <UniqueID>  (29) 
28

>  <SMILES>  (29) 
CS(=O)(=O)Cc1ccc(C(=O)[N-]CCN2CCOCC2)o1

>  <Energy>  (29) 
62.06265259860283

>  <Genealogy>  (29) 
CS(=O)(=O)Cc1ccc(C(=O)[N-]CCN2CCOCC2)o1 (protonated)
CS(=O)(=O)Cc1ccc(C(=O)[N-]CCN2CCOCC2)o1 (3D coordinates assigned)
CS(=O)(=O)Cc1ccc(C(=O)[N-]CCN2CCOCC2)o1 (nonaromatic ring conformer: 62.06265259860283 kcal/mol)

>  <smiles>  (29) 
CS(=O)(=O)Cc1ccc(C(=O)NCCN2CCOCC2)o1

>  <score_type>  (29) 
oracle

>  <origin>  (29) 
adg

>  <m_score__min__energy>  (29) 
-9.6699999999999999

>  <m_primary>  (29) 
energy

$$$$
29:0
     RDKit          3D

 50 52  0  0  0  0  0  0  0  0999 V2000
   56.9062   25.9811   44.2514 H   0  0  0  0  0  0  0  0  0  0  0  0
   57.7650   26.5580   44.6250 C   0  0  0  0  0  0  0  0  0  0  0  0
   58.2040   27.7190   43.8250 C   0  0  0  0  0  0  0  0  0  0  0  0
   59.3050   28.2680   44.1030 O   0  0  0  0  0  0  0  0  0  0  0  0
   57.3880   28.2460   42.8150 O   0  0  0  0  0  0  0  0  0  0  0  0
   56.6360   29.4500   42.9550 C   0  0  0  0  0  0  0  0  0  0  0  0
   55.7297   29.3783   42.3358 H   0  0  0  0  0  0  0  0  0  0  0  0
   57.2691   30.2893   42.6314 H   0  0  0  0  0  0  0  0  0  0  0  0
   56.2320   29.6910   44.3850 C   0  0  0  0  0  0  0  0  0  0  0  0
   55.1720   29.1840   44.8380 O   0  0  0  0  0  0  0  0  0  0  0  0
   57.0350   30.4950   45.2540 N   0  0  0  0  0  0  0  0  0  0  0  0
   58.3820   30.9470   44.9350 C   0  0  0  0  0  0  0  0  0  0  0  0
   58.5910   30.7569   43.8719 H   0  0  0  0  0  0  0  0  0  0  0  0
   59.1095   30.4010   45.5535 H   0  0  0  0  0  0  0  0  0  0  0  0
   58.4910   32.4130   45.2110 C   0  0  0  0  0  0  0  0  0  0  0  0
   58.1360   33.3600   44.3210 N   0  0  0  0  0  0  0  0  0  0  0  0
   58.4200   34.5350   44.8670 N   0  0  0  0  0  0  0  0  0  0  0  0
   58.9580   34.2860   46.0760 C   0  0  0  0  0  0  0  0  0  0  0  0
   59.3780   35.3620   47.0260 C   0  0  0  0  0  0  0  0  0  0  0  0
   59.2414   35.0121   48.0599 H   0  0  0  0  0  0  0  0  0  0  0  0
   60.4374   35.6061   46.8584 H   0  0  0  0  0  0  0  0  0  0  0  0
   58.7641   36.2592   46.8584 H   0  0  0  0  0  0  0  0  0  0  0  0
   59.0140   32.9610   46.3290 N   0  0  0  0  0  0  0  0  0  0  0  0
   59.5050   32.2900   47.5380 C   0  0  0  0  0  0  0  0  0  0  0  0
   59.0209   32.7338   48.4204 H   0  0  0  0  0  0  0  0  0  0  0  0
   59.2649   31.2185   47.4731 H   0  0  0  0  0  0  0  0  0  0  0  0
   60.9990   32.4490   47.6590 C   0  0  0  0  0  0  0  0  0  0  0  0
   61.8660   31.4830   47.1180 C   0  0  0  0  0  0  0  0  0  0  0  0
   61.4532   30.6032   46.6026 H   0  0  0  0  0  0  0  0  0  0  0  0
   63.2510   31.6370   47.2330 C   0  0  0  0  0  0  0  0  0  0  0  0
   63.9244   30.8798   46.8050 H   0  0  0  0  0  0  0  0  0  0  0  0
   63.7820   32.7500   47.8900 C   0  0  0  0  0  0  0  0  0  0  0  0
   64.8719   32.8675   47.9806 H   0  0  0  0  0  0  0  0  0  0  0  0
   62.9270   33.7140   48.4320 C   0  0  0  0  0  0  0  0  0  0  0  0
   63.3448   34.5915   48.9471 H   0  0  0  0  0  0  0  0  0  0  0  0
   61.5400   33.5640   48.3200 C   0  0  0  0  0  0  0  0  0  0  0  0
   60.8706   34.3227   48.7516 H   0  0  0  0  0  0  0  0  0  0  0  0
   58.3310   26.1510   45.7720 C   0  0  0  0  0  0  0  0  0  0  0  0
   58.3541   25.0694   45.9711 H   0  0  0  0  0  0  0  0  0  0  0  0
   58.9250   27.0440   46.7870 C   0  0  0  0  0  0  0  0  0  0  0  0
   60.1450   26.7230   47.4080 C   0  0  0  0  0  0  0  0  0  0  0  0
   60.6615   25.7867   47.1499 H   0  0  0  0  0  0  0  0  0  0  0  0
   60.7040   27.5890   48.3520 C   0  0  0  0  0  0  0  0  0  0  0  0
   61.6464   27.3224   48.8528 H   0  0  0  0  0  0  0  0  0  0  0  0
   60.0650   28.7950   48.6600 C   0  0  0  0  0  0  0  0  0  0  0  0
   60.5030   29.4744   49.4060 H   0  0  0  0  0  0  0  0  0  0  0  0
   58.8700   29.1370   48.0200 C   0  0  0  0  0  0  0  0  0  0  0  0
   58.3730   30.0893   48.2569 H   0  0  0  0  0  0  0  0  0  0  0  0
   58.3050   28.2690   47.0780 C   0  0  0  0  0  0  0  0  0  0  0  0
   57.3729   28.5478   46.5647 H   0  0  0  0  0  0  0  0  0  0  0  0
  1  2  1  0
  2  3  1  0
  3  4  2  0
  3  5  1  0
  5  6  1  0
  6  7  1  0
  6  8  1  0
  6  9  1  0
  9 10  2  0
  9 11  1  0
 11 12  1  0
 12 13  1  0
 12 14  1  0
 12 15  1  0
 15 16  2  0
 16 17  1  0
 17 18  2  0
 18 19  1  0
 19 20  1  0
 19 21  1  0
 19 22  1  0
 18 23  1  0
 23 24  1  0
 24 25  1  0
 24 26  1  0
 24 27  1  0
 27 28  2  0
 28 29  1  0
 28 30  1  0
 30 31  1  0
 30 32  2  0
 32 33  1  0
 32 34  1  0
 34 35  1  0
 34 36  2  0
 36 37  1  0
  2 38  2  0
 38 39  1  0
 38 40  1  0
 40 41  2  0
 41 42  1  0
 41 43  1  0
 43 44  1  0
 43 45  2  0
 45 46  1  0
 45 47  1  0
 47 48  1  0
 47 49  2  0
 49 50  1  0
 23 15  1  0
 36 27  1  0
 49 40  1  0
M  CHG  1  11  -1
M  END
>  <UniqueID>  (30) 
29

>  <SMILES>  (30) 
Cc1nnc(C[N-]C(=O)COC(=O)/C=C\c2ccccc2)n1Cc1ccccc1

>  <Energy>  (30) 
85.88789230347696

>  <Genealogy>  (30) 
Cc1nnc(C[N-]C(=O)COC(=O)C=Cc2ccccc2)n1Cc1ccccc1 (protonated)
Cc1nnc(C[N-]C(=O)COC(=O)/C=C\c2ccccc2)n1Cc1ccccc1 (cis-trans isomerization)
Cc1nnc(C[N-]C(=O)COC(=O)/C=C\c2ccccc2)n1Cc1ccccc1 (3D coordinates assigned)
Cc1nnc(C[N-]C(=O)COC(=O)/C=C\c2ccccc2)n1Cc1ccccc1 (optimized conformer: 85.88789230347696 kcal/mol)

>  <smiles>  (30) 
Cc1nnc(CNC(=O)COC(=O)C=Cc2ccccc2)n1Cc1ccccc1

>  <score_type>  (30) 
oracle

>  <origin>  (30) 
adg

>  <m_score__min__energy>  (30) 
-11.199999999999999

>  <m_primary>  (30) 
energy

$$$$
30:0
     RDKit          3D

 43 45  0  0  0  0  0  0  0  0999 V2000
   57.9760   22.5176   45.6820 H   0  0  0  0  0  0  0  0  0  0  0  0
   57.3230   23.4020   45.7200 C   0  0  0  0  0  0  0  0  0  0  0  0
   57.7760   24.5570   46.2730 N   0  0  0  0  0  0  0  0  0  0  0  0
   57.0170   25.6850   46.3450 C   0  0  0  0  0  0  0  0  0  0  0  0
   57.5550   26.7400   46.8930 N   0  0  0  0  0  0  0  0  0  0  0  0
   58.6830   27.5110   46.4550 C   0  0  0  0  0  0  0  0  0  0  0  0
   59.8250   27.2840   46.9390 O   0  0  0  0  0  0  0  0  0  0  0  0
   58.4820   28.6580   45.5440 C   0  0  0  0  0  0  0  0  0  0  0  0
   58.6930   30.0030   45.8340 C   0  0  0  0  0  0  0  0  0  0  0  0
   59.0380   30.5880   47.1450 C   0  0  0  0  0  0  0  0  0  0  0  0
   58.2780   30.3610   48.1250 O   0  0  0  0  0  0  0  0  0  0  0  0
   60.2400   31.4370   47.3300 C   0  0  0  0  0  0  0  0  0  0  0  0
   61.5210   30.8570   47.3250 C   0  0  0  0  0  0  0  0  0  0  0  0
   61.6285   29.7708   47.1888 H   0  0  0  0  0  0  0  0  0  0  0  0
   62.6590   31.6520   47.4920 C   0  0  0  0  0  0  0  0  0  0  0  0
   63.6561   31.1876   47.4844 H   0  0  0  0  0  0  0  0  0  0  0  0
   62.5370   33.0370   47.6690 C   0  0  0  0  0  0  0  0  0  0  0  0
   63.7610   33.8930   47.8080 C   0  0  0  0  0  0  0  0  0  0  0  0
   63.9814   34.0472   48.8746 H   0  0  0  0  0  0  0  0  0  0  0  0
   64.6143   33.3938   47.3257 H   0  0  0  0  0  0  0  0  0  0  0  0
   63.5848   34.8658   47.3257 H   0  0  0  0  0  0  0  0  0  0  0  0
   61.2640   33.6240   47.6450 C   0  0  0  0  0  0  0  0  0  0  0  0
   61.1611   34.7134   47.7573 H   0  0  0  0  0  0  0  0  0  0  0  0
   60.1250   32.8310   47.4790 C   0  0  0  0  0  0  0  0  0  0  0  0
   59.1305   33.3009   47.4648 H   0  0  0  0  0  0  0  0  0  0  0  0
   58.4080   30.7050   44.6700 C   0  0  0  0  0  0  0  0  0  0  0  0
   58.4720   32.1890   44.4860 C   0  0  0  0  0  0  0  0  0  0  0  0
   58.4932   32.6799   45.4701 H   0  0  0  0  0  0  0  0  0  0  0  0
   59.3822   32.4502   43.9263 H   0  0  0  0  0  0  0  0  0  0  0  0
   57.5876   32.5276   43.9263 H   0  0  0  0  0  0  0  0  0  0  0  0
   58.0610   29.8530   43.6880 N   0  0  0  0  0  0  0  0  0  0  0  0
   57.8050   30.1090   42.7080 H   0  0  0  0  0  0  0  0  0  0  0  0
   58.0970   28.6110   44.2080 C   0  0  0  0  0  0  0  0  0  0  0  0
   57.7770   27.3820   43.4160 C   0  0  0  0  0  0  0  0  0  0  0  0
   57.5603   26.5498   44.1020 H   0  0  0  0  0  0  0  0  0  0  0  0
   56.8986   27.5728   42.7820 H   0  0  0  0  0  0  0  0  0  0  0  0
   58.6369   27.1201   42.7820 H   0  0  0  0  0  0  0  0  0  0  0  0
   55.6810   25.6380   45.8660 C   0  0  0  0  0  0  0  0  0  0  0  0
   54.8000   26.7030   46.0020 O   0  0  0  0  0  0  0  0  0  0  0  0
   55.2110   24.4590   45.2790 C   0  0  0  0  0  0  0  0  0  0  0  0
   54.1879   24.4177   44.8770 H   0  0  0  0  0  0  0  0  0  0  0  0
   56.0320   23.3370   45.2010 C   0  0  0  0  0  0  0  0  0  0  0  0
   55.6654   22.4104   44.7351 H   0  0  0  0  0  0  0  0  0  0  0  0
  1  2  1  0
  2  3  1  0
  3  4  1  0
  4  5  2  0
  5  6  1  0
  6  7  2  0
  6  8  1  0
  8  9  1  0
  9 10  1  0
 10 11  2  0
 10 12  1  0
 12 13  2  0
 13 14  1  0
 13 15  1  0
 15 16  1  0
 15 17  2  0
 17 18  1  0
 18 19  1  0
 18 20  1  0
 18 21  1  0
 17 22  1  0
 22 23  1  0
 22 24  2  0
 24 25  1  0
  9 26  2  0
 26 27  1  0
 27 28  1  0
 27 29  1  0
 27 30  1  0
 26 31  1  0
 31 32  1  0
 31 33  1  0
 33 34  1  0
 34 35  1  0
 34 36  1  0
 34 37  1  0
  4 38  1  0
 38 39  1  0
 38 40  2  0
 40 41  1  0
 40 42  1  0
 42 43  1  0
 42  2  2  0
 33  8  2  0
 24 12  1  0
M  CHG  2   3  -1  39  -1
M  END
>  <UniqueID>  (31) 
30

>  <SMILES>  (31) 
Cc1ccc(C(=O)c2c(C)[nH]c(C)c2C(=O)/N=c2/[n-]cccc2[O-])cc1

>  <Energy>  (31) 
88.67771993579315

>  <Genealogy>  (31) 
Cc1ccc(C(=O)c2c(C)[nH]c(C)c2C(=O)N=c2[n-]cccc2[O-])cc1 (protonated)
Cc1ccc(C(=O)c2c(C)[nH]c(C)c2C(=O)/N=c2/[n-]cccc2[O-])cc1 (cis-trans isomerization)
Cc1ccc(C(=O)c2c(C)[nH]c(C)c2C(=O)/N=c2/[n-]cccc2[O-])cc1 (3D coordinates assigned)
Cc1ccc(C(=O)c2c(C)[nH]c(C)c2C(=O)/N=c2/[n-]cccc2[O-])cc1 (optimized conformer: 88.67771993579315 kcal/mol)

>  <smiles>  (31) 
Cc1ccc(C(=O)c2c(C)[nH]c(C)c2C(=O)N=c2[nH]cccc2O)cc1

>  <score_type>  (31) 
oracle

>  <origin>  (31) 
adg

>  <m_score__min__energy>  (31) 
-13.77

>  <m_primary>  (31) 
energy

$$$$
31:0
     RDKit          3D

 53 56  0  0  0  0  0  0  0  0999 V2000
   56.5330   30.5040   43.9520 C   0  0  0  0  0  0  0  0  0  0  0  0
   56.6730   31.5820   44.8720 O   0  0  0  0  0  0  0  0  0  0  0  0
   57.8340   31.8470   45.6130 C   0  0  0  0  0  0  0  0  0  0  0  0
   58.9670   31.0110   45.5660 C   0  0  0  0  0  0  0  0  0  0  0  0
   60.1010   31.3180   46.3240 C   0  0  0  0  0  0  0  0  0  0  0  0
   60.1270   32.4660   47.1280 C   0  0  0  0  0  0  0  0  0  0  0  0
   61.3290   32.7760   47.9700 C   0  0  0  0  0  0  0  0  0  0  0  0
   61.8110   31.5510   48.5950 N   0  0  0  0  0  0  0  0  0  0  0  0
   61.6440   31.2430   49.9830 C   0  0  0  0  0  0  0  0  0  0  0  0
   62.6250   31.3660   50.7610 O   0  0  0  0  0  0  0  0  0  0  0  0
   60.3390   30.8140   50.5260 C   0  0  0  0  0  0  0  0  0  0  0  0
   59.4540   30.0280   49.7570 C   0  0  0  0  0  0  0  0  0  0  0  0
   59.7820   29.5960   48.4720 O   0  0  0  0  0  0  0  0  0  0  0  0
   58.2520   29.6640   50.2750 N   0  0  0  0  0  0  0  0  0  0  0  0
   57.8640   30.0190   51.5260 C   0  0  0  0  0  0  0  0  0  0  0  0
   56.6520   29.6230   51.9910 N   0  0  0  0  0  0  0  0  0  0  0  0
   56.2040   29.9450   53.2360 C   0  0  0  0  0  0  0  0  0  0  0  0
   54.8540   29.4190   53.6570 C   0  0  0  0  0  0  0  0  0  0  0  0
   53.7410   30.2780   53.1170 C   0  0  0  0  0  0  0  0  0  0  0  0
   53.7880   30.7620   51.7980 C   0  0  0  0  0  0  0  0  0  0  0  0
   52.7510   31.5590   51.3020 C   0  0  0  0  0  0  0  0  0  0  0  0
   51.6570   31.8730   52.1140 C   0  0  0  0  0  0  0  0  0  0  0  0
   50.6280   32.6640   51.6210 O   0  0  0  0  0  0  0  0  0  0  0  0
   51.5980   31.3880   53.4250 C   0  0  0  0  0  0  0  0  0  0  0  0
   52.6340   30.5910   53.9250 C   0  0  0  0  0  0  0  0  0  0  0  0
   57.0260   30.7130   54.0950 C   0  0  0  0  0  0  0  0  0  0  0  0
   56.6020   31.0750   55.4940 C   0  0  0  0  0  0  0  0  0  0  0  0
   58.2860   31.1260   53.6320 C   0  0  0  0  0  0  0  0  0  0  0  0
   58.7160   30.7850   52.3400 C   0  0  0  0  0  0  0  0  0  0  0  0
   59.9670   31.1820   51.8320 C   0  0  0  0  0  0  0  0  0  0  0  0
   60.7510   31.8750   52.5390 O   0  0  0  0  0  0  0  0  0  0  0  0
   58.9920   33.2900   47.1870 C   0  0  0  0  0  0  0  0  0  0  0  0
   57.8590   32.9830   46.4300 C   0  0  0  0  0  0  0  0  0  0  0  0
   56.4107   29.5620   44.5068 H   0  0  0  0  0  0  0  0  0  0  0  0
   55.6494   30.6743   43.3193 H   0  0  0  0  0  0  0  0  0  0  0  0
   57.4308   30.4430   43.3193 H   0  0  0  0  0  0  0  0  0  0  0  0
   58.9594   30.1132   44.9305 H   0  0  0  0  0  0  0  0  0  0  0  0
   60.9779   30.6548   46.2893 H   0  0  0  0  0  0  0  0  0  0  0  0
   62.1213   33.2010   47.3363 H   0  0  0  0  0  0  0  0  0  0  0  0
   61.0545   33.5026   48.7490 H   0  0  0  0  0  0  0  0  0  0  0  0
   60.6580   29.8270   48.0210 H   0  0  0  0  0  0  0  0  0  0  0  0
   54.7335   28.3943   53.2755 H   0  0  0  0  0  0  0  0  0  0  0  0
   54.8024   29.4330   54.7557 H   0  0  0  0  0  0  0  0  0  0  0  0
   54.6438   30.5129   51.1533 H   0  0  0  0  0  0  0  0  0  0  0  0
   52.7963   31.9395   50.2709 H   0  0  0  0  0  0  0  0  0  0  0  0
   50.7364   31.6334   54.0634 H   0  0  0  0  0  0  0  0  0  0  0  0
   52.5819   30.2078   54.9548 H   0  0  0  0  0  0  0  0  0  0  0  0
   57.2315   30.5376   56.2185 H   0  0  0  0  0  0  0  0  0  0  0  0
   56.7156   32.1590   55.6427 H   0  0  0  0  0  0  0  0  0  0  0  0
   55.5492   30.7929   55.6427 H   0  0  0  0  0  0  0  0  0  0  0  0
   58.9404   31.7207   54.2863 H   0  0  0  0  0  0  0  0  0  0  0  0
   58.9949   34.1810   47.8320 H   0  0  0  0  0  0  0  0  0  0  0  0
   56.9782   33.6403   46.4764 H   0  0  0  0  0  0  0  0  0  0  0  0
  1  2  1  0
  2  3  1  0
  3  4  2  0
  4  5  1  0
  5  6  2  0
  6  7  1  0
  7  8  1  0
  8  9  1  0
  9 10  2  0
  9 11  1  0
 11 12  2  0
 12 13  1  0
 12 14  1  0
 14 15  1  0
 15 16  2  0
 16 17  1  0
 17 18  1  0
 18 19  1  0
 19 20  2  0
 20 21  1  0
 21 22  2  0
 22 23  1  0
 22 24  1  0
 24 25  2  0
 17 26  2  0
 26 27  1  0
 26 28  1  0
 28 29  2  0
 29 30  1  0
 30 31  2  0
  6 32  1  0
 32 33  2  0
 33  3  1  0
 30 11  1  0
 29 15  1  0
 25 19  1  0
  1 34  1  0
  1 35  1  0
  1 36  1  0
  4 37  1  0
  5 38  1  0
  7 39  1  0
  7 40  1  0
 13 41  1  0
 18 42  1  0
 18 43  1  0
 20 44  1  0
 21 45  1  0
 24 46  1  0
 25 47  1  0
 27 48  1  0
 27 49  1  0
 27 50  1  0
 28 51  1  0
 32 52  1  0
 33 53  1  0
M  CHG  3   8  -1  14  -1  23  -1
M  END
>  <UniqueID>  (32) 
31

>  <SMILES>  (32) 
COc1ccc(C[N-]C(=O)c2c(O)[n-]c3nc(Cc4ccc([O-])cc4)c(C)cc3c2=O)cc1

>  <Energy>  (32) 
67.47526611982505

>  <Genealogy>  (32) 
COc1ccc(C[N-]C(=O)c2c(O)[n-]c3nc(Cc4ccc([O-])cc4)c(C)cc3c2=O)cc1 (protonated)
COc1ccc(C[N-]C(=O)c2c(O)[n-]c3nc(Cc4ccc([O-])cc4)c(C)cc3c2=O)cc1 (3D coordinates assigned)
COc1ccc(C[N-]C(=O)c2c(O)[n-]c3nc(Cc4ccc([O-])cc4)c(C)cc3c2=O)cc1 (optimized conformer: 67.47526611982505 kcal/mol)

>  <smiles>  (32) 
COc1ccc(CNC(=O)c2c(O)[nH]c3nc(Cc4ccc(O)cc4)c(C)cc3c2=O)cc1

>  <score_type>  (32) 
oracle

>  <origin>  (32) 
adg

>  <m_score__min__energy>  (32) 
-13.640000000000001

>  <m_primary>  (32) 
energy

$$$$
32:0
     RDKit          3D

 50 53  0  0  0  0  0  0  0  0999 V2000
   60.0400   26.9040   45.5994 H   0  0  0  0  0  0  0  0  0  0  0  0
   58.9460   26.8640   45.7070 C   0  0  0  0  0  0  0  0  0  0  0  0
   58.3540   25.7470   46.1960 N   0  0  0  0  0  0  0  0  0  0  0  0
   57.0060   25.6500   46.3420 C   0  0  0  0  0  0  0  0  0  0  0  0
   56.4480   24.4380   46.8560 N   0  0  0  0  0  0  0  0  0  0  0  0
   56.7080   23.5350   47.9910 C   0  0  0  0  0  0  0  0  0  0  0  0
   57.7110   23.0848   47.9535 H   0  0  0  0  0  0  0  0  0  0  0  0
   56.6975   23.9807   48.9966 H   0  0  0  0  0  0  0  0  0  0  0  0
   55.6280   22.5590   47.6720 C   0  0  0  0  0  0  0  0  0  0  0  0
   55.9663   21.5483   47.3999 H   0  0  0  0  0  0  0  0  0  0  0  0
   54.8558   22.2406   48.3878 H   0  0  0  0  0  0  0  0  0  0  0  0
   55.3750   23.4830   46.5290 C   0  0  0  0  0  0  0  0  0  0  0  0
   55.5211   22.9991   45.5520 H   0  0  0  0  0  0  0  0  0  0  0  0
   54.3574   23.8889   46.4301 H   0  0  0  0  0  0  0  0  0  0  0  0
   56.1810   26.7310   45.9830 C   0  0  0  0  0  0  0  0  0  0  0  0
   54.8040   26.6000   46.1170 O   0  0  0  0  0  0  0  0  0  0  0  0
   56.7760   27.9180   45.4810 C   0  0  0  0  0  0  0  0  0  0  0  0
   56.1050   28.9860   45.1340 N   0  0  0  0  0  0  0  0  0  0  0  0
   56.0780   29.7050   43.8590 C   0  0  0  0  0  0  0  0  0  0  0  0
   55.0493   30.0380   43.6565 H   0  0  0  0  0  0  0  0  0  0  0  0
   56.4283   29.0253   43.0683 H   0  0  0  0  0  0  0  0  0  0  0  0
   56.9870   30.9080   43.8920 C   0  0  0  0  0  0  0  0  0  0  0  0
   57.3030   31.5880   42.7060 C   0  0  0  0  0  0  0  0  0  0  0  0
   56.8889   31.2398   41.7483 H   0  0  0  0  0  0  0  0  0  0  0  0
   58.1410   32.7050   42.7360 C   0  0  0  0  0  0  0  0  0  0  0  0
   58.3976   33.2237   41.8005 H   0  0  0  0  0  0  0  0  0  0  0  0
   58.6540   33.1650   43.9510 C   0  0  0  0  0  0  0  0  0  0  0  0
   59.3282   34.0340   43.9667 H   0  0  0  0  0  0  0  0  0  0  0  0
   58.3130   32.5230   45.1530 C   0  0  0  0  0  0  0  0  0  0  0  0
   58.8560   32.9570   46.4130 N   0  0  0  0  0  0  0  0  0  0  0  0
   58.4050   32.6030   47.2870 H   0  0  0  0  0  0  0  0  0  0  0  0
   59.9400   33.8870   46.5400 C   0  0  0  0  0  0  0  0  0  0  0  0
   60.1540   34.7240   45.6250 O   0  0  0  0  0  0  0  0  0  0  0  0
   60.7750   33.8940   47.7610 C   0  0  0  0  0  0  0  0  0  0  0  0
   60.1650   33.9110   49.3340 S   0  0  0  0  0  0  0  0  0  0  0  0
   61.6850   33.8930   50.0470 C   0  0  0  0  0  0  0  0  0  0  0  0
   61.9380   33.8160   51.5130 C   0  0  0  0  0  0  0  0  0  0  0  0
   61.0239   34.0942   52.0580 H   0  0  0  0  0  0  0  0  0  0  0  0
   62.2270   32.7892   51.7818 H   0  0  0  0  0  0  0  0  0  0  0  0
   62.7500   34.5077   51.7818 H   0  0  0  0  0  0  0  0  0  0  0  0
   62.6660   33.8510   49.1200 N   0  0  0  0  0  0  0  0  0  0  0  0
   62.1750   33.8610   47.8490 C   0  0  0  0  0  0  0  0  0  0  0  0
   63.0980   33.8100   46.6720 C   0  0  0  0  0  0  0  0  0  0  0  0
   64.1385   33.7525   47.0242 H   0  0  0  0  0  0  0  0  0  0  0  0
   62.8674   32.9232   46.0633 H   0  0  0  0  0  0  0  0  0  0  0  0
   62.9665   34.7168   46.0633 H   0  0  0  0  0  0  0  0  0  0  0  0
   57.4820   31.3930   45.1140 C   0  0  0  0  0  0  0  0  0  0  0  0
   57.2152   30.8813   46.0505 H   0  0  0  0  0  0  0  0  0  0  0  0
   58.1690   27.9630   45.3400 C   0  0  0  0  0  0  0  0  0  0  0  0
   58.6512   28.8667   44.9391 H   0  0  0  0  0  0  0  0  0  0  0  0
  1  2  1  0
  2  3  1  0
  3  4  1  0
  4  5  1  0
  5  6  1  0
  6  7  1  0
  6  8  1  0
  6  9  1  0
  9 10  1  0
  9 11  1  0
  9 12  1  0
 12 13  1  0
 12 14  1  0
  4 15  2  0
 15 16  1  0
 15 17  1  0
 17 18  2  0
 18 19  1  0
 19 20  1  0
 19 21  1  0
 19 22  1  0
 22 23  2  0
 23 24  1  0
 23 25  1  0
 25 26  1  0
 25 27  2  0
 27 28  1  0
 27 29  1  0
 29 30  1  0
 30 31  1  0
 30 32  1  0
 32 33  2  0
 32 34  1  0
 34 35  1  0
 35 36  1  0
 36 37  1  0
 37 38  1  0
 37 39  1  0
 37 40  1  0
 36 41  2  0
 41 42  1  0
 42 43  1  0
 43 44  1  0
 43 45  1  0
 43 46  1  0
 29 47  2  0
 47 48  1  0
 17 49  1  0
 49 50  1  0
 49  2  2  0
 12  5  1  0
 47 22  1  0
 42 34  2  0
M  CHG  2   3  -1  16  -1
M  END
>  <UniqueID>  (33) 
32

>  <SMILES>  (33) 
Cc1nc(C)c(C(=O)Nc2cccc(C/N=c3/cc[n-]c(N4CCC4)c3[O-])c2)s1

>  <Energy>  (33) 
134.30423201011615

>  <Genealogy>  (33) 
Cc1nc(C)c(C(=O)Nc2cccc(CN=c3cc[n-]c(N4CCC4)c3[O-])c2)s1 (protonated)
Cc1nc(C)c(C(=O)Nc2cccc(C/N=c3/cc[n-]c(N4CCC4)c3[O-])c2)s1 (cis-trans isomerization)
Cc1nc(C)c(C(=O)Nc2cccc(C/N=c3/cc[n-]c(N4CCC4)c3[O-])c2)s1 (3D coordinates assigned)
Cc1nc(C)c(C(=O)Nc2cccc(C/N=c3/cc[n-]c(N4CCC4)c3[O-])c2)s1 (nonaromatic ring conformer: 134.30423201011615 kcal/mol)

>  <smiles>  (33) 
Cc1nc(C)c(C(=O)Nc2cccc(CN=c3cc[nH]c(N4CCC4)c3O)c2)s1

>  <score_type>  (33) 
oracle

>  <origin>  (33) 
adg

>  <m_score__min__energy>  (33) 
-14.15

>  <m_primary>  (33) 
energy

$$$$
33:0
     RDKit          3D

 35 36  0  0  0  0  0  0  0  0999 V2000
   60.3380   28.1860   47.3010 C   0  0  0  0  0  0  0  0  0  0  0  0
   59.4690   27.9110   46.2070 O   0  0  0  0  0  0  0  0  0  0  0  0
   58.4750   26.9200   46.2100 C   0  0  0  0  0  0  0  0  0  0  0  0
   58.7830   25.5550   46.3760 C   0  0  0  0  0  0  0  0  0  0  0  0
   57.7660   24.5980   46.3800 C   0  0  0  0  0  0  0  0  0  0  0  0
   56.4360   24.9900   46.2350 C   0  0  0  0  0  0  0  0  0  0  0  0
   56.1130   26.3400   46.0770 C   0  0  0  0  0  0  0  0  0  0  0  0
   54.7740   26.7060   46.0010 O   0  0  0  0  0  0  0  0  0  0  0  0
   57.1360   27.3110   46.0330 C   0  0  0  0  0  0  0  0  0  0  0  0
   56.8410   28.7070   45.8820 N   0  0  0  0  0  0  0  0  0  0  0  0
   56.2960   29.3170   44.7050 C   0  0  0  0  0  0  0  0  0  0  0  0
   55.0500   29.3550   44.5220 O   0  0  0  0  0  0  0  0  0  0  0  0
   57.2210   29.8790   43.6700 C   0  0  0  0  0  0  0  0  0  0  0  0
   58.4410   30.4890   44.3100 C   0  0  0  0  0  0  0  0  0  0  0  0
   59.5350   29.8680   44.2400 O   0  0  0  0  0  0  0  0  0  0  0  0
   58.3900   31.7840   45.0350 C   0  0  0  0  0  0  0  0  0  0  0  0
   58.2320   33.0050   44.3430 C   0  0  0  0  0  0  0  0  0  0  0  0
   58.1690   33.0390   42.9550 O   0  0  0  0  0  0  0  0  0  0  0  0
   58.1570   34.2100   45.0500 C   0  0  0  0  0  0  0  0  0  0  0  0
   58.2470   34.2160   46.4420 C   0  0  0  0  0  0  0  0  0  0  0  0
   58.4150   33.0170   47.1370 C   0  0  0  0  0  0  0  0  0  0  0  0
   58.4850   31.8010   46.4430 C   0  0  0  0  0  0  0  0  0  0  0  0
   58.6300   30.6090   47.1520 O   0  0  0  0  0  0  0  0  0  0  0  0
   59.8021   28.0164   48.2465 H   0  0  0  0  0  0  0  0  0  0  0  0
   61.2126   27.5207   47.2508 H   0  0  0  0  0  0  0  0  0  0  0  0
   60.6706   29.2333   47.2508 H   0  0  0  0  0  0  0  0  0  0  0  0
   59.8298   25.2417   46.5031 H   0  0  0  0  0  0  0  0  0  0  0  0
   58.0148   23.5330   46.4978 H   0  0  0  0  0  0  0  0  0  0  0  0
   55.6377   24.2333   46.2450 H   0  0  0  0  0  0  0  0  0  0  0  0
   57.5359   29.0716   42.9926 H   0  0  0  0  0  0  0  0  0  0  0  0
   56.6882   30.6637   43.1130 H   0  0  0  0  0  0  0  0  0  0  0  0
   58.0265   35.1569   44.5057 H   0  0  0  0  0  0  0  0  0  0  0  0
   58.1855   35.1663   46.9925 H   0  0  0  0  0  0  0  0  0  0  0  0
   58.4928   33.0264   48.2342 H   0  0  0  0  0  0  0  0  0  0  0  0
   58.5660   29.7070   46.6940 H   0  0  0  0  0  0  0  0  0  0  0  0
  1  2  1  0
  2  3  1  0
  3  4  2  0
  4  5  1  0
  5  6  2  0
  6  7  1  0
  7  8  1  0
  7  9  2  0
  9 10  1  0
 10 11  1  0
 11 12  2  0
 11 13  1  0
 13 14  1  0
 14 15  2  0
 14 16  1  0
 16 17  2  0
 17 18  1  0
 17 19  1  0
 19 20  2  0
 20 21  1  0
 21 22  2  0
 22 23  1  0
  9  3  1  0
 22 16  1  0
  1 24  1  0
  1 25  1  0
  1 26  1  0
  4 27  1  0
  5 28  1  0
  6 29  1  0
 13 30  1  0
 13 31  1  0
 19 32  1  0
 20 33  1  0
 21 34  1  0
 23 35  1  0
M  CHG  3   8  -1  10  -1  18  -1
M  END
>  <UniqueID>  (34) 
33

>  <SMILES>  (34) 
COc1cccc([O-])c1[N-]C(=O)CC(=O)c1c([O-])cccc1O

>  <Energy>  (34) 
44.096406597865226

>  <Genealogy>  (34) 
COc1cccc([O-])c1[N-]C(=O)CC(=O)c1c([O-])cccc1O (protonated)
COc1cccc([O-])c1[N-]C(=O)CC(=O)c1c([O-])cccc1O (3D coordinates assigned)
COc1cccc([O-])c1[N-]C(=O)CC(=O)c1c([O-])cccc1O (optimized conformer: 44.096406597865226 kcal/mol)

>  <smiles>  (34) 
COc1cccc(O)c1NC(=O)CC(=O)c1c(O)cccc1O

>  <score_type>  (34) 
oracle

>  <origin>  (34) 
adg

>  <m_score__min__energy>  (34) 
-13.15

>  <m_primary>  (34) 
energy

$$$$
34:0
     RDKit          3D

 35 36  0  0  0  0  0  0  0  0999 V2000
   58.9130   30.5200   48.1540 C   0  0  0  0  0  0  0  0  0  0  0  0
   60.3020   30.5370   47.5260 C   0  0  0  0  0  0  0  0  0  0  0  0
   60.7360   29.2130   47.2260 O   0  0  0  0  0  0  0  0  0  0  0  0
   60.1150   28.3960   46.2750 C   0  0  0  0  0  0  0  0  0  0  0  0
   59.7440   27.2260   46.5690 O   0  0  0  0  0  0  0  0  0  0  0  0
   59.9480   28.8960   44.8760 C   0  0  0  0  0  0  0  0  0  0  0  0
   58.6830   29.6910   44.7710 C   0  0  0  0  0  0  0  0  0  0  0  0
   57.4330   29.0650   44.8500 C   0  0  0  0  0  0  0  0  0  0  0  0
   56.2860   29.8590   44.7980 C   0  0  0  0  0  0  0  0  0  0  0  0
   55.1460   29.3300   44.8610 O   0  0  0  0  0  0  0  0  0  0  0  0
   56.4010   31.2070   44.6860 N   0  0  0  0  0  0  0  0  0  0  0  0
   57.6210   31.8020   44.6250 C   0  0  0  0  0  0  0  0  0  0  0  0
   57.7420   33.5850   44.5260 S   0  0  0  0  0  0  0  0  0  0  0  0
   57.7060   33.8400   46.3340 C   0  0  0  0  0  0  0  0  0  0  0  0
   59.0950   33.8790   46.8990 C   0  0  0  0  0  0  0  0  0  0  0  0
   60.2160   33.8400   46.0550 C   0  0  0  0  0  0  0  0  0  0  0  0
   61.4950   33.8400   46.6150 C   0  0  0  0  0  0  0  0  0  0  0  0
   61.6460   33.8790   48.0020 C   0  0  0  0  0  0  0  0  0  0  0  0
   60.5090   33.9160   48.8120 C   0  0  0  0  0  0  0  0  0  0  0  0
   59.2710   33.9110   48.2500 N   0  0  0  0  0  0  0  0  0  0  0  0
   58.7490   31.0460   44.6680 N   0  0  0  0  0  0  0  0  0  0  0  0
   59.0061   30.5211   49.2501 H   0  0  0  0  0  0  0  0  0  0  0  0
   58.3543   31.4114   47.8325 H   0  0  0  0  0  0  0  0  0  0  0  0
   58.3763   29.6152   47.8325 H   0  0  0  0  0  0  0  0  0  0  0  0
   60.2712   31.1259   46.5974 H   0  0  0  0  0  0  0  0  0  0  0  0
   61.0073   30.9868   48.2403 H   0  0  0  0  0  0  0  0  0  0  0  0
   60.8039   29.5343   44.6113 H   0  0  0  0  0  0  0  0  0  0  0  0
   59.8982   28.0400   44.1870 H   0  0  0  0  0  0  0  0  0  0  0  0
   57.3566   27.9723   44.9508 H   0  0  0  0  0  0  0  0  0  0  0  0
   57.2017   34.7927   46.5530 H   0  0  0  0  0  0  0  0  0  0  0  0
   57.1633   33.0018   46.7955 H   0  0  0  0  0  0  0  0  0  0  0  0
   60.0880   33.8097   44.9629 H   0  0  0  0  0  0  0  0  0  0  0  0
   62.3816   33.8093   45.9646 H   0  0  0  0  0  0  0  0  0  0  0  0
   62.6497   33.8806   48.4522 H   0  0  0  0  0  0  0  0  0  0  0  0
   60.6152   33.9492   49.9064 H   0  0  0  0  0  0  0  0  0  0  0  0
  1  2  1  0
  2  3  1  0
  3  4  1  0
  4  5  2  0
  4  6  1  0
  6  7  1  0
  7  8  2  0
  8  9  1  0
  9 10  2  0
  9 11  1  0
 11 12  1  0
 12 13  1  0
 13 14  1  0
 14 15  1  0
 15 16  2  0
 16 17  1  0
 17 18  2  0
 18 19  1  0
 19 20  2  0
 12 21  2  0
 21  7  1  0
 20 15  1  0
  1 22  1  0
  1 23  1  0
  1 24  1  0
  2 25  1  0
  2 26  1  0
  6 27  1  0
  6 28  1  0
  8 29  1  0
 14 30  1  0
 14 31  1  0
 16 32  1  0
 17 33  1  0
 18 34  1  0
 19 35  1  0
M  CHG  1  11  -1
M  END
>  <UniqueID>  (35) 
34

>  <SMILES>  (35) 
CCOC(=O)Cc1cc(=O)[n-]c(SCc2ccccn2)n1

>  <Energy>  (35) 
25.14730646794286

>  <Genealogy>  (35) 
CCOC(=O)Cc1cc(=O)[n-]c(SCc2ccccn2)n1 (protonated)
CCOC(=O)Cc1cc(=O)[n-]c(SCc2ccccn2)n1 (3D coordinates assigned)
CCOC(=O)Cc1cc(=O)[n-]c(SCc2ccccn2)n1 (optimized conformer: 25.14730646794286 kcal/mol)

>  <smiles>  (35) 
CCOC(=O)Cc1cc(=O)[nH]c(SCc2ccccn2)n1

>  <score_type>  (35) 
oracle

>  <origin>  (35) 
adg

>  <m_score__min__energy>  (35) 
-8.1400000000000006

>  <m_primary>  (35) 
energy

$$$$
35:0
     RDKit          3D

 31 33  0  0  0  0  0  0  0  0999 V2000
   57.3740   22.9940   47.7130 N   0  0  0  0  0  0  0  0  0  0  0  0
   57.2570   24.1830   47.2130 C   0  0  0  0  0  0  0  0  0  0  0  0
   58.3640   24.9510   47.0540 N   0  0  0  0  0  0  0  0  0  0  0  0
   58.2850   26.2030   46.5340 C   0  0  0  0  0  0  0  0  0  0  0  0
   59.4420   26.9710   46.3810 C   0  0  0  0  0  0  0  0  0  0  0  0
   59.3640   28.2590   45.8470 C   0  0  0  0  0  0  0  0  0  0  0  0
   58.1260   28.8010   45.4580 C   0  0  0  0  0  0  0  0  0  0  0  0
   58.0500   30.1690   44.8920 C   0  0  0  0  0  0  0  0  0  0  0  0
   58.5070   30.3970   43.7380 O   0  0  0  0  0  0  0  0  0  0  0  0
   57.5050   31.2420   45.6730 N   0  0  0  0  0  0  0  0  0  0  0  0
   58.1180   32.5150   45.9260 C   0  0  0  0  0  0  0  0  0  0  0  0
   58.3380   33.4540   44.9010 C   0  0  0  0  0  0  0  0  0  0  0  0
   58.9170   34.6930   45.1940 C   0  0  0  0  0  0  0  0  0  0  0  0
   59.2670   35.0100   46.5090 C   0  0  0  0  0  0  0  0  0  0  0  0
   59.0290   34.0930   47.5340 C   0  0  0  0  0  0  0  0  0  0  0  0
   58.4500   32.8530   47.2480 C   0  0  0  0  0  0  0  0  0  0  0  0
   58.2200   31.9730   48.2550 F   0  0  0  0  0  0  0  0  0  0  0  0
   56.9610   28.0250   45.6140 C   0  0  0  0  0  0  0  0  0  0  0  0
   57.0350   26.7270   46.1510 C   0  0  0  0  0  0  0  0  0  0  0  0
   55.9000   25.9160   46.3240 C   0  0  0  0  0  0  0  0  0  0  0  0
   54.7540   26.3330   45.9980 O   0  0  0  0  0  0  0  0  0  0  0  0
   56.0330   24.6670   46.8500 N   0  0  0  0  0  0  0  0  0  0  0  0
   56.5460   22.3860   47.8990 H   0  0  0  0  0  0  0  0  0  0  0  0
   60.4170   26.5601   46.6820 H   0  0  0  0  0  0  0  0  0  0  0  0
   60.2805   28.8558   45.7294 H   0  0  0  0  0  0  0  0  0  0  0  0
   58.0537   33.2127   43.8661 H   0  0  0  0  0  0  0  0  0  0  0  0
   59.0972   35.4192   44.3877 H   0  0  0  0  0  0  0  0  0  0  0  0
   59.7298   35.9817   46.7363 H   0  0  0  0  0  0  0  0  0  0  0  0
   59.2978   34.3467   48.5700 H   0  0  0  0  0  0  0  0  0  0  0  0
   55.9862   28.4369   45.3137 H   0  0  0  0  0  0  0  0  0  0  0  0
   55.1800   24.0750   46.9740 H   0  0  0  0  0  0  0  0  0  0  0  0
  1  2  2  3
  2  3  1  0
  3  4  1  0
  4  5  2  0
  5  6  1  0
  6  7  2  0
  7  8  1  0
  8  9  2  0
  8 10  1  0
 10 11  1  0
 11 12  2  0
 12 13  1  0
 13 14  2  0
 14 15  1  0
 15 16  2  0
 16 17  1  0
  7 18  1  0
 18 19  2  0
 19 20  1  0
 20 21  2  0
 20 22  1  0
 22  2  1  0
 19  4  1  0
 16 11  1  0
  1 23  1  0
  5 24  1  0
  6 25  1  0
 12 26  1  0
 13 27  1  0
 14 28  1  0
 15 29  1  0
 18 30  1  0
 22 31  1  0
M  CHG  2   3  -1  10  -1
M  END
>  <UniqueID>  (36) 
35

>  <SMILES>  (36) 
N=c1[n-]c2ccc(C(=O)[N-]c3ccccc3F)cc2c(=O)[nH]1

>  <Energy>  (36) 
43.23965864434645

>  <Genealogy>  (36) 
N=c1[n-]c2ccc(C(=O)[N-]c3ccccc3F)cc2c(=O)[nH]1 (protonated)
N=c1[n-]c2ccc(C(=O)[N-]c3ccccc3F)cc2c(=O)[nH]1 (3D coordinates assigned)
N=c1[n-]c2ccc(C(=O)[N-]c3ccccc3F)cc2c(=O)[nH]1 (optimized conformer: 43.23965864434645 kcal/mol)

>  <smiles>  (36) 
N=c1[nH]c(=O)c2cc(C(=O)Nc3ccccc3F)ccc2[nH]1

>  <score_type>  (36) 
oracle

>  <origin>  (36) 
adg

>  <m_score__min__energy>  (36) 
-10.17

>  <m_primary>  (36) 
energy

$$$$
36:0
     RDKit          3D

 37 38  0  0  0  0  0  0  0  0999 V2000
   55.1380   27.9950   44.9060 H   0  0  0  0  0  0  0  0  0  0  0  0
   55.1630   29.0060   44.9190 O   0  0  0  0  0  0  0  0  0  0  0  0
   56.3740   29.6940   44.9080 C   0  0  0  0  0  0  0  0  0  0  0  0
   56.4340   30.9360   44.3580 N   0  0  0  0  0  0  0  0  0  0  0  0
   57.5900   31.6440   44.3490 C   0  0  0  0  0  0  0  0  0  0  0  0
   57.6230   32.7880   43.8270 O   0  0  0  0  0  0  0  0  0  0  0  0
   58.7120   31.1230   44.9070 N   0  0  0  0  0  0  0  0  0  0  0  0
   58.7070   29.8900   45.4790 C   0  0  0  0  0  0  0  0  0  0  0  0
   59.9180   29.3720   46.0470 N   0  0  0  0  0  0  0  0  0  0  0  0
   60.5120   30.0640   47.1890 C   0  0  0  0  0  0  0  0  0  0  0  0
   60.1332   29.6227   48.1227 H   0  0  0  0  0  0  0  0  0  0  0  0
   61.6065   29.9601   47.1519 H   0  0  0  0  0  0  0  0  0  0  0  0
   60.2434   31.1301   47.1519 H   0  0  0  0  0  0  0  0  0  0  0  0
   60.7780   28.5360   45.2130 C   0  0  0  0  0  0  0  0  0  0  0  0
   61.4184   27.9135   45.8551 H   0  0  0  0  0  0  0  0  0  0  0  0
   60.1556   27.8885   44.5779 H   0  0  0  0  0  0  0  0  0  0  0  0
   61.4076   29.1765   44.5779 H   0  0  0  0  0  0  0  0  0  0  0  0
   57.5290   29.1220   45.4710 C   0  0  0  0  0  0  0  0  0  0  0  0
   57.5090   27.7600   46.0530 C   0  0  0  0  0  0  0  0  0  0  0  0
   57.8973   27.6282   47.0737 H   0  0  0  0  0  0  0  0  0  0  0  0
   57.0450   26.6760   45.4090 C   0  0  0  0  0  0  0  0  0  0  0  0
   57.5790   26.3680   44.1060 C   0  0  0  0  0  0  0  0  0  0  0  0
   58.0080   26.1210   43.0600 N   0  0  0  0  0  0  0  0  0  0  0  0
   55.9280   25.8560   45.9330 C   0  0  0  0  0  0  0  0  0  0  0  0
   54.7620   26.3320   45.9400 O   0  0  0  0  0  0  0  0  0  0  0  0
   56.1310   24.5330   46.4460 N   0  0  0  0  0  0  0  0  0  0  0  0
   55.4630   23.3380   45.9470 C   0  0  0  0  0  0  0  0  0  0  0  0
   55.3208   22.6248   46.7723 H   0  0  0  0  0  0  0  0  0  0  0  0
   54.4832   23.6113   45.5284 H   0  0  0  0  0  0  0  0  0  0  0  0
   56.3020   22.7110   44.8860 C   0  0  0  0  0  0  0  0  0  0  0  0
   55.8310   22.2510   43.7490 O   0  0  0  0  0  0  0  0  0  0  0  0
   56.8270   21.7430   43.0600 C   0  0  0  0  0  0  0  0  0  0  0  0
   56.7393   21.2862   42.0632 H   0  0  0  0  0  0  0  0  0  0  0  0
   58.0010   21.8690   43.7760 C   0  0  0  0  0  0  0  0  0  0  0  0
   59.0034   21.5391   43.4655 H   0  0  0  0  0  0  0  0  0  0  0  0
   57.6630   22.4920   44.9590 C   0  0  0  0  0  0  0  0  0  0  0  0
   58.3365   22.7585   45.7869 H   0  0  0  0  0  0  0  0  0  0  0  0
  1  2  1  0
  2  3  1  0
  3  4  1  0
  4  5  1  0
  5  6  2  0
  5  7  1  0
  7  8  2  0
  8  9  1  0
  9 10  1  0
 10 11  1  0
 10 12  1  0
 10 13  1  0
  9 14  1  0
 14 15  1  0
 14 16  1  0
 14 17  1  0
  8 18  1  0
 18 19  1  0
 19 20  1  0
 19 21  2  0
 21 22  1  0
 22 23  3  0
 21 24  1  0
 24 25  2  0
 24 26  1  0
 26 27  1  0
 27 28  1  0
 27 29  1  0
 27 30  1  0
 30 31  1  0
 31 32  1  0
 32 33  1  0
 32 34  2  0
 34 35  1  0
 34 36  1  0
 36 37  1  0
 18  3  2  0
 36 30  2  0
M  CHG  2   4  -1  26  -1
M  END
>  <UniqueID>  (37) 
36

>  <SMILES>  (37) 
CN(C)c1nc(=O)[n-]c(O)c1/C=C(/C#N)C(=O)[N-]Cc1ccco1

>  <Energy>  (37) 
75.19810962530717

>  <Genealogy>  (37) 
CN(C)c1nc(=O)[n-]c(O)c1C=C(C#N)C(=O)[N-]Cc1ccco1 (protonated)
CN(C)c1nc(=O)[n-]c(O)c1/C=C(/C#N)C(=O)[N-]Cc1ccco1 (cis-trans isomerization)
CN(C)c1nc(=O)[n-]c(O)c1/C=C(/C#N)C(=O)[N-]Cc1ccco1 (3D coordinates assigned)
CN(C)c1nc(=O)[n-]c(O)c1/C=C(/C#N)C(=O)[N-]Cc1ccco1 (optimized conformer: 75.19810962530717 kcal/mol)

>  <smiles>  (37) 
CN(C)c1nc(=O)[nH]c(O)c1C=C(C#N)C(=O)NCc1ccco1

>  <score_type>  (37) 
oracle

>  <origin>  (37) 
adg

>  <m_score__min__energy>  (37) 
-12.06

>  <m_primary>  (37) 
energy

$$$$
37:0
     RDKit          3D

 30 31  0  0  0  0  0  0  0  0999 V2000
   62.0900   34.2170   50.4460 N   0  0  0  0  0  0  0  0  0  0  0  0
   61.1880   33.5030   49.1580 S   0  0  0  0  0  0  0  0  0  0  0  0
   60.6080   34.5840   48.2900 O   0  0  0  0  0  0  0  0  0  0  0  0
   62.1000   32.6510   48.3200 O   0  0  0  0  0  0  0  0  0  0  0  0
   59.8920   32.5140   49.8240 C   0  0  0  0  0  0  0  0  0  0  0  0
   59.7500   31.1770   49.4280 C   0  0  0  0  0  0  0  0  0  0  0  0
   58.7320   30.3880   49.9680 C   0  0  0  0  0  0  0  0  0  0  0  0
   57.8550   30.9230   50.9300 C   0  0  0  0  0  0  0  0  0  0  0  0
   56.7940   30.1420   51.4990 N   0  0  0  0  0  0  0  0  0  0  0  0
   55.6440   30.6520   52.1890 C   0  0  0  0  0  0  0  0  0  0  0  0
   55.8120   31.5120   53.0920 O   0  0  0  0  0  0  0  0  0  0  0  0
   54.2710   30.1800   51.9080 C   0  0  0  0  0  0  0  0  0  0  0  0
   53.3660   30.9390   51.2780 C   0  0  0  0  0  0  0  0  0  0  0  0
   52.1250   31.4270   51.9140 C   0  0  0  0  0  0  0  0  0  0  0  0
   51.5930   31.1400   53.1570 C   0  0  0  0  0  0  0  0  0  0  0  0
   52.1230   30.2950   54.1250 O   0  0  0  0  0  0  0  0  0  0  0  0
   50.4340   31.8720   53.2930 C   0  0  0  0  0  0  0  0  0  0  0  0
   50.2190   32.6190   52.1910 N   0  0  0  0  0  0  0  0  0  0  0  0
   51.2500   32.3440   51.3650 C   0  0  0  0  0  0  0  0  0  0  0  0
   51.3940   32.9280   50.1140 O   0  0  0  0  0  0  0  0  0  0  0  0
   57.9900   32.2620   51.3100 C   0  0  0  0  0  0  0  0  0  0  0  0
   59.0090   33.0520   50.7690 C   0  0  0  0  0  0  0  0  0  0  0  0
   63.0850   33.9230   50.3200 H   0  0  0  0  0  0  0  0  0  0  0  0
   60.4428   30.7477   48.6893 H   0  0  0  0  0  0  0  0  0  0  0  0
   58.6152   29.3445   49.6402 H   0  0  0  0  0  0  0  0  0  0  0  0
   53.9827   29.1680   52.2285 H   0  0  0  0  0  0  0  0  0  0  0  0
   53.5566   31.2142   50.2302 H   0  0  0  0  0  0  0  0  0  0  0  0
   49.7772   31.8503   54.1751 H   0  0  0  0  0  0  0  0  0  0  0  0
   57.2902   32.6965   52.0390 H   0  0  0  0  0  0  0  0  0  0  0  0
   59.1176   34.0995   51.0866 H   0  0  0  0  0  0  0  0  0  0  0  0
  1  2  1  0
  2  3  2  0
  2  4  2  0
  2  5  1  0
  5  6  2  0
  6  7  1  0
  7  8  2  0
  8  9  1  0
  9 10  1  0
 10 11  2  0
 10 12  1  0
 12 13  2  3
 13 14  1  0
 14 15  1  0
 15 16  1  0
 15 17  2  0
 17 18  1  0
 18 19  1  0
 19 20  1  0
  8 21  1  0
 21 22  2  0
 22  5  1  0
 19 14  2  0
  1 23  1  0
  6 24  1  0
  7 25  1  0
 12 26  1  0
 13 27  1  0
 17 28  1  0
 21 29  1  0
 22 30  1  0
M  CHG  5   1  -1   9  -1  16  -1  18  -1  20  -1
M  END
>  <UniqueID>  (38) 
37

>  <SMILES>  (38) 
[NH-]S(=O)(=O)c1ccc([N-]C(=O)C=Cc2c([O-])c[n-]c2[O-])cc1

>  <Energy>  (38) 
64.4087467636256

>  <Genealogy>  (38) 
[NH-]S(=O)(=O)c1ccc([N-]C(=O)C=Cc2c([O-])c[n-]c2[O-])cc1 (protonated)
[NH-]S(=O)(=O)c1ccc([N-]C(=O)C=Cc2c([O-])c[n-]c2[O-])cc1 (3D coordinates assigned)
[NH-]S(=O)(=O)c1ccc([N-]C(=O)C=Cc2c([O-])c[n-]c2[O-])cc1 (optimized conformer: 64.4087467636256 kcal/mol)

>  <smiles>  (38) 
NS(=O)(=O)c1ccc(NC(=O)C=Cc2c(O)c[nH]c2O)cc1

>  <score_type>  (38) 
oracle

>  <origin>  (38) 
adg

>  <m_score__min__energy>  (38) 
-16.719999999999999

>  <m_primary>  (38) 
energy

$$$$
38:0
     RDKit          3D

 30 30  0  0  0  0  0  0  0  0999 V2000
   58.8460   31.3750   47.0970 C   0  0  0  0  0  0  0  0  0  0  0  0
   58.9680   31.1090   45.6020 C   0  0  0  0  0  0  0  0  0  0  0  0
   57.8620   31.7420   44.8670 N   0  0  0  0  0  0  0  0  0  0  0  0
   57.3320   33.0490   45.2860 C   0  0  0  0  0  0  0  0  0  0  0  0
   58.3260   34.1760   45.0160 C   0  0  0  0  0  0  0  0  0  0  0  0
   57.4730   31.1970   43.5940 C   0  0  0  0  0  0  0  0  0  0  0  0
   57.5760   32.1000   42.2350 S   0  0  0  0  0  0  0  0  0  0  0  0
   56.9880   29.4750   43.4510 S   0  0  0  0  0  0  0  0  0  0  0  0
   56.6400   29.2700   45.2320 C   0  0  0  0  0  0  0  0  0  0  0  0
   56.6810   27.8210   45.6210 C   0  0  0  0  0  0  0  0  0  0  0  0
   57.8980   27.1930   45.9160 C   0  0  0  0  0  0  0  0  0  0  0  0
   57.8880   25.8330   46.2300 C   0  0  0  0  0  0  0  0  0  0  0  0
   58.9630   25.2370   46.5020 O   0  0  0  0  0  0  0  0  0  0  0  0
   56.7150   25.1480   46.2370 N   0  0  0  0  0  0  0  0  0  0  0  0
   55.5430   25.7700   45.9410 C   0  0  0  0  0  0  0  0  0  0  0  0
   54.4670   25.1150   45.9450 O   0  0  0  0  0  0  0  0  0  0  0  0
   55.5320   27.0930   45.6350 N   0  0  0  0  0  0  0  0  0  0  0  0
   59.2409   30.5139   47.6561 H   0  0  0  0  0  0  0  0  0  0  0  0
   59.4209   32.2760   47.3572 H   0  0  0  0  0  0  0  0  0  0  0  0
   57.7881   31.5272   47.3572 H   0  0  0  0  0  0  0  0  0  0  0  0
   59.9227   31.5180   45.2396 H   0  0  0  0  0  0  0  0  0  0  0  0
   58.9280   30.0229   45.4326 H   0  0  0  0  0  0  0  0  0  0  0  0
   56.4042   33.2517   44.7309 H   0  0  0  0  0  0  0  0  0  0  0  0
   57.1439   33.0108   46.3691 H   0  0  0  0  0  0  0  0  0  0  0  0
   58.6860   34.5842   45.9719 H   0  0  0  0  0  0  0  0  0  0  0  0
   59.1776   33.7838   44.4408 H   0  0  0  0  0  0  0  0  0  0  0  0
   57.8305   34.9720   44.4408 H   0  0  0  0  0  0  0  0  0  0  0  0
   57.3950   29.8205   45.8124 H   0  0  0  0  0  0  0  0  0  0  0  0
   55.6340   29.6624   45.4416 H   0  0  0  0  0  0  0  0  0  0  0  0
   58.8409   27.7593   45.9005 H   0  0  0  0  0  0  0  0  0  0  0  0
  1  2  1  0
  2  3  1  0
  3  4  1  0
  4  5  1  0
  3  6  1  0
  6  7  2  0
  6  8  1  0
  8  9  1  0
  9 10  1  0
 10 11  2  0
 11 12  1  0
 12 13  2  0
 12 14  1  0
 14 15  1  0
 15 16  2  0
 15 17  1  0
 17 10  1  0
  1 18  1  0
  1 19  1  0
  1 20  1  0
  2 21  1  0
  2 22  1  0
  4 23  1  0
  4 24  1  0
  5 25  1  0
  5 26  1  0
  5 27  1  0
  9 28  1  0
  9 29  1  0
 11 30  1  0
M  CHG  2  14  -1  17  -1
M  END
>  <UniqueID>  (39) 
38

>  <SMILES>  (39) 
CCN(CC)C(=S)SCc1cc(=O)[n-]c(=O)[n-]1

>  <Energy>  (39) 
22.776837286679015

>  <Genealogy>  (39) 
CCN(CC)C(=S)SCc1cc(=O)[n-]c(=O)[n-]1 (protonated)
CCN(CC)C(=S)SCc1cc(=O)[n-]c(=O)[n-]1 (3D coordinates assigned)
CCN(CC)C(=S)SCc1cc(=O)[n-]c(=O)[n-]1 (optimized conformer: 22.776837286679015 kcal/mol)

>  <smiles>  (39) 
CCN(CC)C(=S)SCc1cc(=O)[nH]c(=O)[nH]1

>  <score_type>  (39) 
oracle

>  <origin>  (39) 
adg

>  <m_score__min__energy>  (39) 
-10.44

>  <m_primary>  (39) 
energy

$$$$
39:0
     RDKit          3D

 68 71  0  0  0  0  0  0  0  0999 V2000
   56.4240   20.1900   45.9350 C   0  0  0  0  0  0  0  0  0  0  0  0
   57.4190   20.3460   47.0820 C   0  0  0  0  0  0  0  0  0  0  0  0
   57.0360   21.4510   47.8590 O   0  0  0  0  0  0  0  0  0  0  0  0
   55.8960   21.1420   48.6550 C   0  0  0  0  0  0  0  0  0  0  0  0
   54.8880   22.3030   48.6490 C   0  0  0  0  0  0  0  0  0  0  0  0
   54.4500   22.6800   47.2230 C   0  0  0  0  0  0  0  0  0  0  0  0
   55.5320   23.3760   46.5310 N   0  0  0  0  0  0  0  0  0  0  0  0
   55.3060   24.5080   45.6820 C   0  0  0  0  0  0  0  0  0  0  0  0
   54.4100   25.3340   45.9710 O   0  0  0  0  0  0  0  0  0  0  0  0
   56.2770   24.8090   44.5620 C   0  0  0  0  0  0  0  0  0  0  0  0
   57.6370   25.0210   45.0980 N   0  0  0  0  0  0  0  0  0  0  0  0
   58.4800   23.8740   45.3320 C   0  0  0  0  0  0  0  0  0  0  0  0
   58.0300   22.7090   45.2240 O   0  0  0  0  0  0  0  0  0  0  0  0
   59.9420   24.0660   45.6410 C   0  0  0  0  0  0  0  0  0  0  0  0
   60.1550   25.2880   46.3220 O   0  0  0  0  0  0  0  0  0  0  0  0
   59.4450   26.4510   45.9980 C   0  0  0  0  0  0  0  0  0  0  0  0
   59.9800   27.7130   46.2900 C   0  0  0  0  0  0  0  0  0  0  0  0
   59.3270   28.8700   45.8530 C   0  0  0  0  0  0  0  0  0  0  0  0
   58.0930   28.7810   45.2210 C   0  0  0  0  0  0  0  0  0  0  0  0
   57.1750   30.1950   44.7300 S   0  0  0  0  0  0  0  0  0  0  0  0
   57.4850   30.6660   43.3260 O   0  0  0  0  0  0  0  0  0  0  0  0
   55.7060   29.8030   44.8180 O   0  0  0  0  0  0  0  0  0  0  0  0
   57.5720   31.4190   45.8660 N   0  0  0  0  0  0  0  0  0  0  0  0
   58.2980   32.6390   45.8130 C   0  0  0  0  0  0  0  0  0  0  0  0
   58.0140   33.6190   44.8340 C   0  0  0  0  0  0  0  0  0  0  0  0
   58.6650   34.8500   44.8670 C   0  0  0  0  0  0  0  0  0  0  0  0
   59.5960   35.1230   45.8690 C   0  0  0  0  0  0  0  0  0  0  0  0
   59.9090   34.1530   46.8240 C   0  0  0  0  0  0  0  0  0  0  0  0
   59.2530   32.9160   46.7990 C   0  0  0  0  0  0  0  0  0  0  0  0
   59.6340   31.9200   47.7620 N   0  0  0  0  0  0  0  0  0  0  0  0
   58.7500   31.6390   48.9130 C   0  0  0  0  0  0  0  0  0  0  0  0
   58.8970   30.1610   49.2340 C   0  0  0  0  0  0  0  0  0  0  0  0
   60.2490   29.8900   49.5870 O   0  0  0  0  0  0  0  0  0  0  0  0
   61.0870   30.0270   48.4470 C   0  0  0  0  0  0  0  0  0  0  0  0
   61.0240   31.4500   47.8390 C   0  0  0  0  0  0  0  0  0  0  0  0
   57.5220   27.5180   44.9990 C   0  0  0  0  0  0  0  0  0  0  0  0
   58.1970   26.3400   45.3340 C   0  0  0  0  0  0  0  0  0  0  0  0
   55.4151   20.0318   46.3438 H   0  0  0  0  0  0  0  0  0  0  0  0
   56.4308   21.1002   45.3173 H   0  0  0  0  0  0  0  0  0  0  0  0
   56.7091   19.3256   45.3173 H   0  0  0  0  0  0  0  0  0  0  0  0
   57.4152   19.4375   47.7022 H   0  0  0  0  0  0  0  0  0  0  0  0
   58.4323   20.5001   46.6826 H   0  0  0  0  0  0  0  0  0  0  0  0
   55.4096   20.2414   48.2522 H   0  0  0  0  0  0  0  0  0  0  0  0
   56.2273   20.9712   49.6899 H   0  0  0  0  0  0  0  0  0  0  0  0
   54.0001   22.0052   49.2260 H   0  0  0  0  0  0  0  0  0  0  0  0
   55.3781   23.1802   49.0965 H   0  0  0  0  0  0  0  0  0  0  0  0
   54.1925   21.7657   46.6682 H   0  0  0  0  0  0  0  0  0  0  0  0
   53.5745   23.3435   47.2798 H   0  0  0  0  0  0  0  0  0  0  0  0
   56.5350   23.1350   46.7920 H   0  0  0  0  0  0  0  0  0  0  0  0
   56.2928   23.9626   43.8596 H   0  0  0  0  0  0  0  0  0  0  0  0
   55.9517   25.7245   44.0462 H   0  0  0  0  0  0  0  0  0  0  0  0
   60.2892   23.2355   46.2732 H   0  0  0  0  0  0  0  0  0  0  0  0
   60.5027   24.0870   44.6949 H   0  0  0  0  0  0  0  0  0  0  0  0
   60.9150   27.7937   46.8638 H   0  0  0  0  0  0  0  0  0  0  0  0
   59.7923   29.8543   46.0103 H   0  0  0  0  0  0  0  0  0  0  0  0
   57.2773   33.4088   44.0446 H   0  0  0  0  0  0  0  0  0  0  0  0
   58.4444   35.6083   44.1013 H   0  0  0  0  0  0  0  0  0  0  0  0
   60.0861   36.1070   45.9073 H   0  0  0  0  0  0  0  0  0  0  0  0
   60.6679   34.3600   47.5929 H   0  0  0  0  0  0  0  0  0  0  0  0
   59.0527   32.2458   49.7791 H   0  0  0  0  0  0  0  0  0  0  0  0
   57.7050   31.8877   48.6760 H   0  0  0  0  0  0  0  0  0  0  0  0
   58.2379   29.9001   50.0752 H   0  0  0  0  0  0  0  0  0  0  0  0
   58.6182   29.5626   48.3541 H   0  0  0  0  0  0  0  0  0  0  0  0
   62.1248   29.8145   48.7432 H   0  0  0  0  0  0  0  0  0  0  0  0
   60.7343   29.3186   47.6829 H   0  0  0  0  0  0  0  0  0  0  0  0
   61.6037   32.1388   48.4710 H   0  0  0  0  0  0  0  0  0  0  0  0
   61.4442   31.4197   46.8229 H   0  0  0  0  0  0  0  0  0  0  0  0
   56.5195   27.4534   44.5508 H   0  0  0  0  0  0  0  0  0  0  0  0
  1  2  1  0
  2  3  1  0
  3  4  1  0
  4  5  1  0
  5  6  1  0
  6  7  1  0
  7  8  1  0
  8  9  2  0
  8 10  1  0
 10 11  1  0
 11 12  1  0
 12 13  2  0
 12 14  1  0
 14 15  1  0
 15 16  1  0
 16 17  2  0
 17 18  1  0
 18 19  2  0
 19 20  1  0
 20 21  2  0
 20 22  2  0
 20 23  1  0
 23 24  1  0
 24 25  2  0
 25 26  1  0
 26 27  2  0
 27 28  1  0
 28 29  2  0
 29 30  1  0
 30 31  1  0
 31 32  1  0
 32 33  1  0
 33 34  1  0
 34 35  1  0
 19 36  1  0
 36 37  2  0
 37 11  1  0
 37 16  1  0
 29 24  1  0
 35 30  1  0
  1 38  1  0
  1 39  1  0
  1 40  1  0
  2 41  1  0
  2 42  1  0
  4 43  1  0
  4 44  1  0
  5 45  1  0
  5 46  1  0
  6 47  1  0
  6 48  1  0
  7 49  1  0
 10 50  1  0
 10 51  1  0
 14 52  1  0
 14 53  1  0
 17 54  1  0
 18 55  1  0
 25 56  1  0
 26 57  1  0
 27 58  1  0
 28 59  1  0
 31 60  1  0
 31 61  1  0
 32 62  1  0
 32 63  1  0
 34 64  1  0
 34 65  1  0
 35 66  1  0
 35 67  1  0
 36 68  1  0
M  CHG  1  23  -1
M  END
>  <UniqueID>  (40) 
39

>  <SMILES>  (40) 
CCOCCCNC(=O)CN1C(=O)COc2ccc(S(=O)(=O)[N-]c3ccccc3N3CCOCC3)cc21

>  <Energy>  (40) 
92.55632838031326

>  <Genealogy>  (40) 
CCOCCCNC(=O)CN1C(=O)COc2ccc(S(=O)(=O)[N-]c3ccccc3N3CCOCC3)cc21 (protonated)
CCOCCCNC(=O)CN1C(=O)COc2ccc(S(=O)(=O)[N-]c3ccccc3N3CCOCC3)cc21 (3D coordinates assigned)
CCOCCCNC(=O)CN1C(=O)COc2ccc(S(=O)(=O)[N-]c3ccccc3N3CCOCC3)cc21 (nonaromatic ring conformer: 92.55632838031326 kcal/mol)

>  <smiles>  (40) 
CCOCCCNC(=O)CN1C(=O)COc2ccc(S(=O)(=O)Nc3ccccc3N3CCOCC3)cc21

>  <score_type>  (40) 
oracle

>  <origin>  (40) 
adg

>  <m_score__min__energy>  (40) 
-9.8599999999999994

>  <m_primary>  (40) 
energy

$$$$
40:0
     RDKit          3D

 50 53  0  0  0  0  0  0  0  0999 V2000
   65.7860   32.5110   50.1580 C   0  0  0  0  0  0  0  0  0  0  0  0
   65.1280   33.4060   49.2630 O   0  0  0  0  0  0  0  0  0  0  0  0
   63.7860   33.2890   48.8710 C   0  0  0  0  0  0  0  0  0  0  0  0
   63.3960   33.2520   47.5190 C   0  0  0  0  0  0  0  0  0  0  0  0
   62.0450   33.1420   47.1790 C   0  0  0  0  0  0  0  0  0  0  0  0
   61.0640   33.0510   48.1840 C   0  0  0  0  0  0  0  0  0  0  0  0
   59.6970   32.9490   47.8810 O   0  0  0  0  0  0  0  0  0  0  0  0
   59.1410   32.0810   46.9300 C   0  0  0  0  0  0  0  0  0  0  0  0
   59.6300   30.7750   46.7420 C   0  0  0  0  0  0  0  0  0  0  0  0
   59.0450   29.9330   45.7920 C   0  0  0  0  0  0  0  0  0  0  0  0
   57.9640   30.3820   45.0170 C   0  0  0  0  0  0  0  0  0  0  0  0
   57.3130   29.4580   44.0260 C   0  0  0  0  0  0  0  0  0  0  0  0
   56.8460   28.2520   44.7060 N   0  0  0  0  0  0  0  0  0  0  0  0
   57.7300   27.1710   45.0430 C   0  0  0  0  0  0  0  0  0  0  0  0
   58.9630   27.2680   44.7940 O   0  0  0  0  0  0  0  0  0  0  0  0
   57.2120   25.9360   45.6750 C   0  0  0  0  0  0  0  0  0  0  0  0
   55.8930   25.7180   46.0820 C   0  0  0  0  0  0  0  0  0  0  0  0
   54.8250   26.6020   45.9900 O   0  0  0  0  0  0  0  0  0  0  0  0
   55.8530   24.4600   46.6370 C   0  0  0  0  0  0  0  0  0  0  0  0
   54.8210   23.7260   47.2120 C   0  0  0  0  0  0  0  0  0  0  0  0
   55.1380   22.4480   47.7050 C   0  0  0  0  0  0  0  0  0  0  0  0
   56.4640   21.9620   47.6070 C   0  0  0  0  0  0  0  0  0  0  0  0
   57.4420   22.7280   47.0350 N   0  0  0  0  0  0  0  0  0  0  0  0
   57.1240   23.9610   46.5590 C   0  0  0  0  0  0  0  0  0  0  0  0
   57.9650   24.8380   45.9740 N   0  0  0  0  0  0  0  0  0  0  0  0
   59.3980   24.6420   45.7400 C   0  0  0  0  0  0  0  0  0  0  0  0
   57.4560   31.6730   45.2300 C   0  0  0  0  0  0  0  0  0  0  0  0
   58.0400   32.5130   46.1830 C   0  0  0  0  0  0  0  0  0  0  0  0
   61.4540   33.1060   49.5270 C   0  0  0  0  0  0  0  0  0  0  0  0
   62.8050   33.2150   49.8670 C   0  0  0  0  0  0  0  0  0  0  0  0
   65.5697   32.8052   51.1956 H   0  0  0  0  0  0  0  0  0  0  0  0
   65.4242   31.4868   49.9843 H   0  0  0  0  0  0  0  0  0  0  0  0
   66.8715   32.5509   49.9843 H   0  0  0  0  0  0  0  0  0  0  0  0
   64.1574   33.3099   46.7272 H   0  0  0  0  0  0  0  0  0  0  0  0
   61.7468   33.1265   46.1203 H   0  0  0  0  0  0  0  0  0  0  0  0
   60.4764   30.4151   47.3454 H   0  0  0  0  0  0  0  0  0  0  0  0
   59.4335   28.9136   45.6509 H   0  0  0  0  0  0  0  0  0  0  0  0
   56.4578   29.9679   43.5585 H   0  0  0  0  0  0  0  0  0  0  0  0
   58.0455   29.1790   43.2542 H   0  0  0  0  0  0  0  0  0  0  0  0
   55.8140   28.1090   44.7680 H   0  0  0  0  0  0  0  0  0  0  0  0
   53.7994   24.1285   47.2783 H   0  0  0  0  0  0  0  0  0  0  0  0
   54.3565   21.8264   48.1664 H   0  0  0  0  0  0  0  0  0  0  0  0
   56.7093   20.9618   47.9934 H   0  0  0  0  0  0  0  0  0  0  0  0
   59.9207   24.5705   46.7052 H   0  0  0  0  0  0  0  0  0  0  0  0
   59.5529   23.7143   45.1696 H   0  0  0  0  0  0  0  0  0  0  0  0
   59.7963   25.4940   45.1696 H   0  0  0  0  0  0  0  0  0  0  0  0
   56.5942   32.0256   44.6443 H   0  0  0  0  0  0  0  0  0  0  0  0
   57.6307   33.5208   46.3465 H   0  0  0  0  0  0  0  0  0  0  0  0
   60.6925   33.0632   50.3196 H   0  0  0  0  0  0  0  0  0  0  0  0
   63.1002   33.2429   50.9263 H   0  0  0  0  0  0  0  0  0  0  0  0
  1  2  1  0
  2  3  1  0
  3  4  2  0
  4  5  1  0
  5  6  2  0
  6  7  1  0
  7  8  1  0
  8  9  2  0
  9 10  1  0
 10 11  2  0
 11 12  1  0
 12 13  1  0
 13 14  1  0
 14 15  2  0
 14 16  1  0
 16 17  2  0
 17 18  1  0
 17 19  1  0
 19 20  2  0
 20 21  1  0
 21 22  2  0
 22 23  1  0
 23 24  2  0
 24 25  1  0
 25 26  1  0
 11 27  1  0
 27 28  2  0
  6 29  1  0
 29 30  2  0
 30  3  1  0
 28  8  1  0
 25 16  1  0
 24 19  1  0
  1 31  1  0
  1 32  1  0
  1 33  1  0
  4 34  1  0
  5 35  1  0
  9 36  1  0
 10 37  1  0
 12 38  1  0
 12 39  1  0
 13 40  1  0
 20 41  1  0
 21 42  1  0
 22 43  1  0
 26 44  1  0
 26 45  1  0
 26 46  1  0
 27 47  1  0
 28 48  1  0
 29 49  1  0
 30 50  1  0
M  CHG  1  18  -1
M  END
>  <UniqueID>  (41) 
40

>  <SMILES>  (41) 
COc1ccc(Oc2ccc(CNC(=O)c3c([O-])c4cccnc4n3C)cc2)cc1

>  <Energy>  (41) 
98.35326386349702

>  <Genealogy>  (41) 
COc1ccc(Oc2ccc(CNC(=O)c3c([O-])c4cccnc4n3C)cc2)cc1 (protonated)
COc1ccc(Oc2ccc(CNC(=O)c3c([O-])c4cccnc4n3C)cc2)cc1 (3D coordinates assigned)
COc1ccc(Oc2ccc(CNC(=O)c3c([O-])c4cccnc4n3C)cc2)cc1 (optimized conformer: 98.35326386349702 kcal/mol)

>  <smiles>  (41) 
COc1ccc(Oc2ccc(CNC(=O)c3c(O)c4cccnc4n3C)cc2)cc1

>  <score_type>  (41) 
oracle

>  <origin>  (41) 
adg

>  <m_score__min__energy>  (41) 
-12.35

>  <m_primary>  (41) 
energy

$$$$
41:0
     RDKit          3D

 26 27  0  0  0  0  0  0  0  0999 V2000
   64.1800   32.5080   48.1040 N   0  0  0  0  0  0  0  0  0  0  0  0
   62.8420   33.4610   47.5670 S   0  0  0  0  0  0  0  0  0  0  0  0
   62.3520   34.3210   48.6980 O   0  0  0  0  0  0  0  0  0  0  0  0
   63.2820   34.3530   46.4400 O   0  0  0  0  0  0  0  0  0  0  0  0
   61.5460   32.4030   47.0190 C   0  0  0  0  0  0  0  0  0  0  0  0
   60.3270   32.9440   46.5920 C   0  0  0  0  0  0  0  0  0  0  0  0
   59.2920   32.1050   46.1720 C   0  0  0  0  0  0  0  0  0  0  0  0
   59.4560   30.7090   46.1890 C   0  0  0  0  0  0  0  0  0  0  0  0
   58.3670   29.8110   45.7340 C   0  0  0  0  0  0  0  0  0  0  0  0
   57.2130   30.2840   45.5600 O   0  0  0  0  0  0  0  0  0  0  0  0
   58.5680   28.4030   45.5340 N   0  0  0  0  0  0  0  0  0  0  0  0
   57.7090   27.4690   45.8130 C   0  0  0  0  0  0  0  0  0  0  0  0
   56.3760   27.5780   45.6180 N   0  0  0  0  0  0  0  0  0  0  0  0
   55.7290   26.4570   46.0300 C   0  0  0  0  0  0  0  0  0  0  0  0
   54.3510   26.3290   45.9260 O   0  0  0  0  0  0  0  0  0  0  0  0
   56.5350   25.4560   46.5620 C   0  0  0  0  0  0  0  0  0  0  0  0
   58.1270   26.0010   46.5140 S   0  0  0  0  0  0  0  0  0  0  0  0
   60.6840   30.1710   46.6080 C   0  0  0  0  0  0  0  0  0  0  0  0
   61.7190   31.0120   47.0280 C   0  0  0  0  0  0  0  0  0  0  0  0
   64.2450   31.6860   47.4650 H   0  0  0  0  0  0  0  0  0  0  0  0
   65.0420   33.0780   47.9510 H   0  0  0  0  0  0  0  0  0  0  0  0
   60.1838   34.0346   46.5873 H   0  0  0  0  0  0  0  0  0  0  0  0
   58.3426   32.5395   45.8258 H   0  0  0  0  0  0  0  0  0  0  0  0
   56.1935   24.4831   46.9452 H   0  0  0  0  0  0  0  0  0  0  0  0
   60.8323   29.0811   46.6057 H   0  0  0  0  0  0  0  0  0  0  0  0
   62.6725   30.5805   47.3667 H   0  0  0  0  0  0  0  0  0  0  0  0
  1  2  1  0
  2  3  2  0
  2  4  2  0
  2  5  1  0
  5  6  2  0
  6  7  1  0
  7  8  2  0
  8  9  1  0
  9 10  2  0
  9 11  1  0
 11 12  2  3
 12 13  1  0
 13 14  1  0
 14 15  1  0
 14 16  2  0
 16 17  1  0
  8 18  1  0
 18 19  2  0
 19  5  1  0
 17 12  1  0
  1 20  1  0
  1 21  1  0
  6 22  1  0
  7 23  1  0
 16 24  1  0
 18 25  1  0
 19 26  1  0
M  CHG  2  13  -1  15  -1
M  END
>  <UniqueID>  (42) 
41

>  <SMILES>  (42) 
NS(=O)(=O)c1ccc(C(=O)N=c2[n-]c([O-])cs2)cc1

>  <Energy>  (42) 
62.75687016659991

>  <Genealogy>  (42) 
NS(=O)(=O)c1ccc(C(=O)N=c2[n-]c([O-])cs2)cc1 (protonated)
NS(=O)(=O)c1ccc(C(=O)N=c2[n-]c([O-])cs2)cc1 (3D coordinates assigned)
NS(=O)(=O)c1ccc(C(=O)N=c2[n-]c([O-])cs2)cc1 (optimized conformer: 62.75687016659991 kcal/mol)

>  <smiles>  (42) 
NS(=O)(=O)c1ccc(C(=O)N=c2[nH]c(O)cs2)cc1

>  <score_type>  (42) 
oracle

>  <origin>  (42) 
adg

>  <m_score__min__energy>  (42) 
-12.44

>  <m_primary>  (42) 
energy

$$$$
42:0
     RDKit          3D

 56 59  0  0  0  0  0  0  0  0999 V2000
   58.2880   33.0610   52.4280 C   0  0  0  0  0  0  0  0  0  0  0  0
   58.0810   31.8020   51.7170 N   0  0  0  0  0  0  0  0  0  0  0  0
   58.8450   31.2540   50.7480 C   0  0  0  0  0  0  0  0  0  0  0  0
   60.0180   31.9150   50.0800 C   0  0  0  0  0  0  0  0  0  0  0  0
   59.5950   32.7690   48.9060 C   0  0  0  0  0  0  0  0  0  0  0  0
   59.9270   34.1360   48.8930 C   0  0  0  0  0  0  0  0  0  0  0  0
   59.5520   34.9490   47.8230 C   0  0  0  0  0  0  0  0  0  0  0  0
   58.8450   34.4090   46.7500 C   0  0  0  0  0  0  0  0  0  0  0  0
   58.4980   33.0560   46.7490 C   0  0  0  0  0  0  0  0  0  0  0  0
   58.8450   32.2280   47.8350 C   0  0  0  0  0  0  0  0  0  0  0  0
   58.5150   30.8290   47.8410 N   0  0  0  0  0  0  0  0  0  0  0  0
   59.2210   29.7760   47.1730 C   0  0  0  0  0  0  0  0  0  0  0  0
   60.4800   29.7880   47.1020 O   0  0  0  0  0  0  0  0  0  0  0  0
   58.4490   28.6960   46.4860 C   0  0  0  0  0  0  0  0  0  0  0  0
   57.7580   29.2430   45.2720 C   0  0  0  0  0  0  0  0  0  0  0  0
   57.6500   28.4740   44.1020 C   0  0  0  0  0  0  0  0  0  0  0  0
   56.9710   28.9990   42.9990 C   0  0  0  0  0  0  0  0  0  0  0  0
   56.4040   30.2730   43.0740 C   0  0  0  0  0  0  0  0  0  0  0  0
   56.5250   31.0060   44.2580 C   0  0  0  0  0  0  0  0  0  0  0  0
   57.1880   30.4790   45.3220 N   0  0  0  0  0  0  0  0  0  0  0  0
   58.4230   30.0130   50.4360 N   0  0  0  0  0  0  0  0  0  0  0  0
   57.3900   29.7440   51.2220 N   0  0  0  0  0  0  0  0  0  0  0  0
   57.1930   30.8270   51.9960 C   0  0  0  0  0  0  0  0  0  0  0  0
   55.9230   30.9160   53.2620 S   0  0  0  0  0  0  0  0  0  0  0  0
   55.7620   29.1040   53.4490 C   0  0  0  0  0  0  0  0  0  0  0  0
   54.3560   28.7130   53.8090 C   0  0  0  0  0  0  0  0  0  0  0  0
   54.0680   27.4900   53.8960 O   0  0  0  0  0  0  0  0  0  0  0  0
   53.3090   29.6800   53.9710 N   0  0  0  0  0  0  0  0  0  0  0  0
   52.7360   30.4840   52.9340 C   0  0  0  0  0  0  0  0  0  0  0  0
   53.0720   30.2180   51.6000 C   0  0  0  0  0  0  0  0  0  0  0  0
   52.5050   30.9700   50.5670 C   0  0  0  0  0  0  0  0  0  0  0  0
   51.5800   31.9770   50.8590 C   0  0  0  0  0  0  0  0  0  0  0  0
   51.0210   32.7250   49.8310 O   0  0  0  0  0  0  0  0  0  0  0  0
   51.2180   32.2280   52.1870 C   0  0  0  0  0  0  0  0  0  0  0  0
   51.7850   31.4770   53.2220 C   0  0  0  0  0  0  0  0  0  0  0  0
   58.2581   32.8789   53.5124 H   0  0  0  0  0  0  0  0  0  0  0  0
   59.2672   33.4804   52.1535 H   0  0  0  0  0  0  0  0  0  0  0  0
   57.4947   33.7718   52.1535 H   0  0  0  0  0  0  0  0  0  0  0  0
   60.5326   32.5515   50.8148 H   0  0  0  0  0  0  0  0  0  0  0  0
   60.6834   31.1246   49.7025 H   0  0  0  0  0  0  0  0  0  0  0  0
   60.4878   34.5682   49.7348 H   0  0  0  0  0  0  0  0  0  0  0  0
   59.8145   36.0172   47.8262 H   0  0  0  0  0  0  0  0  0  0  0  0
   58.5598   35.0495   45.9024 H   0  0  0  0  0  0  0  0  0  0  0  0
   57.9497   32.6337   45.8940 H   0  0  0  0  0  0  0  0  0  0  0  0
   59.1382   27.8947   46.1813 H   0  0  0  0  0  0  0  0  0  0  0  0
   57.6934   28.2989   47.1798 H   0  0  0  0  0  0  0  0  0  0  0  0
   58.0950   27.4692   44.0541 H   0  0  0  0  0  0  0  0  0  0  0  0
   56.8834   28.4101   42.0740 H   0  0  0  0  0  0  0  0  0  0  0  0
   55.8681   30.6950   42.2110 H   0  0  0  0  0  0  0  0  0  0  0  0
   56.0832   32.0108   44.3292 H   0  0  0  0  0  0  0  0  0  0  0  0
   56.0361   28.6204   52.4998 H   0  0  0  0  0  0  0  0  0  0  0  0
   56.4304   28.7787   54.2599 H   0  0  0  0  0  0  0  0  0  0  0  0
   53.7849   29.4141   51.3646 H   0  0  0  0  0  0  0  0  0  0  0  0
   52.7870   30.7692   49.5229 H   0  0  0  0  0  0  0  0  0  0  0  0
   50.4867   33.0168   52.4174 H   0  0  0  0  0  0  0  0  0  0  0  0
   51.4855   31.6644   54.2637 H   0  0  0  0  0  0  0  0  0  0  0  0
  1  2  1  0
  2  3  1  0
  3  4  1  0
  4  5  1  0
  5  6  2  0
  6  7  1  0
  7  8  2  0
  8  9  1  0
  9 10  2  0
 10 11  1  0
 11 12  1  0
 12 13  2  0
 12 14  1  0
 14 15  1  0
 15 16  2  0
 16 17  1  0
 17 18  2  0
 18 19  1  0
 19 20  2  0
  3 21  2  0
 21 22  1  0
 22 23  2  0
 23 24  1  0
 24 25  1  0
 25 26  1  0
 26 27  2  0
 26 28  1  0
 28 29  1  0
 29 30  2  0
 30 31  1  0
 31 32  2  0
 32 33  1  0
 32 34  1  0
 34 35  2  0
 23  2  1  0
 35 29  1  0
 10  5  1  0
 20 15  1  0
  1 36  1  0
  1 37  1  0
  1 38  1  0
  4 39  1  0
  4 40  1  0
  6 41  1  0
  7 42  1  0
  8 43  1  0
  9 44  1  0
 14 45  1  0
 14 46  1  0
 16 47  1  0
 17 48  1  0
 18 49  1  0
 19 50  1  0
 25 51  1  0
 25 52  1  0
 30 53  1  0
 31 54  1  0
 34 55  1  0
 35 56  1  0
M  CHG  3  11  -1  28  -1  33  -1
M  END
>  <UniqueID>  (43) 
42

>  <SMILES>  (43) 
Cn1c(Cc2ccccc2[N-]C(=O)Cc2ccccn2)nnc1SCC(=O)[N-]c1ccc([O-])cc1

>  <Energy>  (43) 
96.03647264976493

>  <Genealogy>  (43) 
Cn1c(Cc2ccccc2[N-]C(=O)Cc2ccccn2)nnc1SCC(=O)[N-]c1ccc([O-])cc1 (protonated)
Cn1c(Cc2ccccc2[N-]C(=O)Cc2ccccn2)nnc1SCC(=O)[N-]c1ccc([O-])cc1 (3D coordinates assigned)
Cn1c(Cc2ccccc2[N-]C(=O)Cc2ccccn2)nnc1SCC(=O)[N-]c1ccc([O-])cc1 (optimized conformer: 96.03647264976493 kcal/mol)

>  <smiles>  (43) 
Cn1c(Cc2ccccc2NC(=O)Cc2ccccn2)nnc1SCC(=O)Nc1ccc(O)cc1

>  <score_type>  (43) 
oracle

>  <origin>  (43) 
adg

>  <m_score__min__energy>  (43) 
-16.289999999999999

>  <m_primary>  (43) 
energy

$$$$
43:0
     RDKit          3D

 52 54  0  0  0  0  0  0  0  0999 V2000
   50.0500   33.7440   52.0030 H   0  0  0  0  0  0  0  0  0  0  0  0
   50.2450   32.7240   52.1040 N   0  0  0  0  0  0  0  0  0  0  0  0
   51.2370   32.0840   51.3010 C   0  0  0  0  0  0  0  0  0  0  0  0
   51.1910   32.2160   50.0490 O   0  0  0  0  0  0  0  0  0  0  0  0
   52.3090   31.2760   51.9300 C   0  0  0  0  0  0  0  0  0  0  0  0
   52.0470   30.5090   53.0800 C   0  0  0  0  0  0  0  0  0  0  0  0
   51.0403   30.5155   53.5232 H   0  0  0  0  0  0  0  0  0  0  0  0
   53.0570   29.7390   53.6630 C   0  0  0  0  0  0  0  0  0  0  0  0
   52.8397   29.1338   54.5555 H   0  0  0  0  0  0  0  0  0  0  0  0
   54.3420   29.7360   53.1150 C   0  0  0  0  0  0  0  0  0  0  0  0
   55.1307   29.1200   53.5717 H   0  0  0  0  0  0  0  0  0  0  0  0
   54.6300   30.5130   51.9880 C   0  0  0  0  0  0  0  0  0  0  0  0
   55.9600   30.4860   51.4490 N   0  0  0  0  0  0  0  0  0  0  0  0
   56.9310   31.5350   51.5570 C   0  0  0  0  0  0  0  0  0  0  0  0
   56.5920   32.6200   52.1010 O   0  0  0  0  0  0  0  0  0  0  0  0
   58.2910   31.3960   50.9790 C   0  0  0  0  0  0  0  0  0  0  0  0
   58.9110   32.4620   50.4250 C   0  0  0  0  0  0  0  0  0  0  0  0
   59.3020   33.5340   51.2440 O   0  0  0  0  0  0  0  0  0  0  0  0
   59.4480   33.4400   52.6570 C   0  0  0  0  0  0  0  0  0  0  0  0
   58.6201   33.9730   53.1474 H   0  0  0  0  0  0  0  0  0  0  0  0
   59.4321   32.3820   52.9577 H   0  0  0  0  0  0  0  0  0  0  0  0
   60.4045   33.8923   52.9577 H   0  0  0  0  0  0  0  0  0  0  0  0
   59.2080   32.5010   48.9750 C   0  0  0  0  0  0  0  0  0  0  0  0
   60.5260   32.6760   48.5300 C   0  0  0  0  0  0  0  0  0  0  0  0
   61.3438   32.7709   49.2595 H   0  0  0  0  0  0  0  0  0  0  0  0
   60.8020   32.7300   47.1630 C   0  0  0  0  0  0  0  0  0  0  0  0
   61.8381   32.8603   46.8172 H   0  0  0  0  0  0  0  0  0  0  0  0
   59.7660   32.6190   46.2330 C   0  0  0  0  0  0  0  0  0  0  0  0
   59.9914   32.6562   45.1570 H   0  0  0  0  0  0  0  0  0  0  0  0
   58.4370   32.4600   46.6630 C   0  0  0  0  0  0  0  0  0  0  0  0
   57.3290   32.3510   45.6850 C   0  0  0  0  0  0  0  0  0  0  0  0
   56.4940   33.2900   45.5890 O   0  0  0  0  0  0  0  0  0  0  0  0
   57.1510   31.1860   44.8680 N   0  0  0  0  0  0  0  0  0  0  0  0
   57.4570   29.8360   45.2440 C   0  0  0  0  0  0  0  0  0  0  0  0
   58.7590   29.5350   45.6660 C   0  0  0  0  0  0  0  0  0  0  0  0
   59.5183   30.3299   45.7046 H   0  0  0  0  0  0  0  0  0  0  0  0
   59.0990   28.2320   46.0380 C   0  0  0  0  0  0  0  0  0  0  0  0
   60.1267   28.0020   46.3558 H   0  0  0  0  0  0  0  0  0  0  0  0
   58.1360   27.2210   46.0070 C   0  0  0  0  0  0  0  0  0  0  0  0
   58.4083   26.1932   46.2889 H   0  0  0  0  0  0  0  0  0  0  0  0
   56.8270   27.5150   45.6180 C   0  0  0  0  0  0  0  0  0  0  0  0
   56.0684   26.7186   45.6007 H   0  0  0  0  0  0  0  0  0  0  0  0
   56.4770   28.8200   45.2500 C   0  0  0  0  0  0  0  0  0  0  0  0
   55.1550   29.0970   44.9230 O   0  0  0  0  0  0  0  0  0  0  0  0
   58.1690   32.3880   48.0410 C   0  0  0  0  0  0  0  0  0  0  0  0
   57.1358   32.2418   48.3891 H   0  0  0  0  0  0  0  0  0  0  0  0
   58.9660   30.0470   51.0560 C   0  0  0  0  0  0  0  0  0  0  0  0
   59.1062   29.7668   52.1104 H   0  0  0  0  0  0  0  0  0  0  0  0
   58.3385   29.2940   50.5568 H   0  0  0  0  0  0  0  0  0  0  0  0
   59.9449   30.0978   50.5568 H   0  0  0  0  0  0  0  0  0  0  0  0
   53.6050   31.2610   51.3830 C   0  0  0  0  0  0  0  0  0  0  0  0
   53.8185   31.8404   50.4727 H   0  0  0  0  0  0  0  0  0  0  0  0
  1  2  1  0
  2  3  1  0
  3  4  2  0
  3  5  1  0
  5  6  2  0
  6  7  1  0
  6  8  1  0
  8  9  1  0
  8 10  2  0
 10 11  1  0
 10 12  1  0
 12 13  1  0
 13 14  1  0
 14 15  2  0
 14 16  1  0
 16 17  2  0
 17 18  1  0
 18 19  1  0
 19 20  1  0
 19 21  1  0
 19 22  1  0
 17 23  1  0
 23 24  2  0
 24 25  1  0
 24 26  1  0
 26 27  1  0
 26 28  2  0
 28 29  1  0
 28 30  1  0
 30 31  1  0
 31 32  2  0
 31 33  1  0
 33 34  1  0
 34 35  2  0
 35 36  1  0
 35 37  1  0
 37 38  1  0
 37 39  2  0
 39 40  1  0
 39 41  1  0
 41 42  1  0
 41 43  2  0
 43 44  1  0
 30 45  2  0
 45 46  1  0
 16 47  1  0
 47 48  1  0
 47 49  1  0
 47 50  1  0
 12 51  2  0
 51 52  1  0
 51  5  1  0
 45 23  1  0
 43 34  1  0
M  CHG  4   2  -1  13  -1  33  -1  44  -1
M  END
>  <UniqueID>  (44) 
43

>  <SMILES>  (44) 
CO/C(=C(/C)C(=O)[N-]c1cccc(C([NH-])=O)c1)c1cccc(C(=O)[N-]c2ccccc2[O-])c1

>  <Energy>  (44) 
75.40243157192143

>  <Genealogy>  (44) 
COC(=C(C)C(=O)[N-]c1cccc(C([NH-])=O)c1)c1cccc(C(=O)[N-]c2ccccc2[O-])c1 (protonated)
CO/C(=C(/C)C(=O)[N-]c1cccc(C([NH-])=O)c1)c1cccc(C(=O)[N-]c2ccccc2[O-])c1 (cis-trans isomerization)
CO/C(=C(/C)C(=O)[N-]c1cccc(C([NH-])=O)c1)c1cccc(C(=O)[N-]c2ccccc2[O-])c1 (3D coordinates assigned)
CO/C(=C(/C)C(=O)[N-]c1cccc(C([NH-])=O)c1)c1cccc(C(=O)[N-]c2ccccc2[O-])c1 (optimized conformer: 75.40243157192143 kcal/mol)

>  <smiles>  (44) 
COC(=C(C)C(=O)Nc1cccc(C(N)=O)c1)c1cccc(C(=O)Nc2ccccc2O)c1

>  <score_type>  (44) 
oracle

>  <origin>  (44) 
adg

>  <m_score__min__energy>  (44) 
-19.780000000000001

>  <m_primary>  (44) 
energy

$$$$
44:0
     RDKit          3D

 69 72  0  0  0  0  0  0  0  0999 V2000
   57.8980   32.7320   48.2250 C   0  0  0  0  0  0  0  0  0  0  0  0
   58.3910   33.4480   46.9980 C   0  0  0  0  0  0  0  0  0  0  0  0
   59.1020   34.6540   47.1290 C   0  0  0  0  0  0  0  0  0  0  0  0
   59.5600   35.3290   45.9950 C   0  0  0  0  0  0  0  0  0  0  0  0
   59.3070   34.8130   44.7240 C   0  0  0  0  0  0  0  0  0  0  0  0
   58.6030   33.6150   44.5810 C   0  0  0  0  0  0  0  0  0  0  0  0
   58.1560   32.9120   45.7150 C   0  0  0  0  0  0  0  0  0  0  0  0
   57.4060   31.6910   45.5870 N   0  0  0  0  0  0  0  0  0  0  0  0
   57.4830   30.7580   44.5020 C   0  0  0  0  0  0  0  0  0  0  0  0
   57.3810   31.1550   43.3110 O   0  0  0  0  0  0  0  0  0  0  0  0
   57.7220   29.3690   44.7740 N   0  0  0  0  0  0  0  0  0  0  0  0
   57.7520   28.3500   43.7400 C   0  0  0  0  0  0  0  0  0  0  0  0
   58.1640   27.0600   44.4520 C   0  0  2  0  0  0  0  0  0  0  0  0
   57.4220   25.9610   43.9930 O   0  0  0  0  0  0  0  0  0  0  0  0
   57.8910   27.3140   45.9330 C   0  0  0  0  0  0  0  0  0  0  0  0
   57.9610   28.8330   46.1080 C   0  0  1  0  0  0  0  0  0  0  0  0
   59.3110   29.2730   46.6150 C   0  0  0  0  0  0  0  0  0  0  0  0
   60.3490   28.6850   46.2080 O   0  0  0  0  0  0  0  0  0  0  0  0
   59.4400   30.4250   47.4570 N   0  0  0  0  0  0  0  0  0  0  0  0
   60.0600   30.4770   48.7890 C   0  0  2  0  0  0  0  0  0  0  0  0
   61.6110   30.4290   48.7340 C   0  0  0  0  0  0  0  0  0  0  0  0
   62.2910   31.6570   48.1670 C   0  0  0  0  0  0  0  0  0  0  0  0
   61.6960   32.3610   47.1040 C   0  0  0  0  0  0  0  0  0  0  0  0
   62.3110   33.5000   46.5750 C   0  0  0  0  0  0  0  0  0  0  0  0
   63.5160   33.9570   47.1110 C   0  0  0  0  0  0  0  0  0  0  0  0
   64.0980   33.2860   48.1890 C   0  0  0  0  0  0  0  0  0  0  0  0
   63.4820   32.1520   48.7270 C   0  0  0  0  0  0  0  0  0  0  0  0
   59.4360   29.5040   49.7590 C   0  0  0  0  0  0  0  0  0  0  0  0
   59.9790   28.3860   49.9690 O   0  0  0  0  0  0  0  0  0  0  0  0
   58.1430   29.7780   50.3120 N   0  0  0  0  0  0  0  0  0  0  0  0
   57.8880   30.7950   51.3250 C   0  0  0  0  0  0  0  0  0  0  0  0
   57.3110   30.1770   52.6040 C   0  0  0  0  0  0  0  0  0  0  0  0
   55.8130   30.0330   52.5220 C   0  0  0  0  0  0  0  0  0  0  0  0
   55.1610   28.9830   53.1930 C   0  0  0  0  0  0  0  0  0  0  0  0
   53.7760   28.8320   53.0880 C   0  0  0  0  0  0  0  0  0  0  0  0
   53.0320   29.7190   52.3070 C   0  0  0  0  0  0  0  0  0  0  0  0
   53.6730   30.7590   51.6270 C   0  0  0  0  0  0  0  0  0  0  0  0
   55.0590   30.9150   51.7290 C   0  0  0  0  0  0  0  0  0  0  0  0
   58.2577   33.2544   49.1237 H   0  0  0  0  0  0  0  0  0  0  0  0
   56.7981   32.7183   48.2244 H   0  0  0  0  0  0  0  0  0  0  0  0
   58.2776   31.6996   48.2244 H   0  0  0  0  0  0  0  0  0  0  0  0
   59.2985   35.0678   48.1291 H   0  0  0  0  0  0  0  0  0  0  0  0
   60.1210   36.2688   46.1045 H   0  0  0  0  0  0  0  0  0  0  0  0
   59.6626   35.3505   43.8326 H   0  0  0  0  0  0  0  0  0  0  0  0
   58.3968   33.2188   43.5758 H   0  0  0  0  0  0  0  0  0  0  0  0
   56.7580   28.2365   43.2827 H   0  0  0  0  0  0  0  0  0  0  0  0
   58.4488   28.6102   42.9296 H   0  0  0  0  0  0  0  0  0  0  0  0
   59.2193   26.8156   44.2605 H   0  0  0  0  0  0  0  0  0  0  0  0
   56.7290   26.3260   43.3810 H   0  0  0  0  0  0  0  0  0  0  0  0
   56.8938   26.9409   46.2095 H   0  0  0  0  0  0  0  0  0  0  0  0
   58.6173   26.7956   46.5763 H   0  0  0  0  0  0  0  0  0  0  0  0
   57.2290   29.1883   46.8482 H   0  0  0  0  0  0  0  0  0  0  0  0
   59.8317   31.4691   49.2057 H   0  0  0  0  0  0  0  0  0  0  0  0
   61.9802   30.2827   49.7598 H   0  0  0  0  0  0  0  0  0  0  0  0
   61.8591   29.6072   48.0462 H   0  0  0  0  0  0  0  0  0  0  0  0
   60.7400   32.0128   46.6860 H   0  0  0  0  0  0  0  0  0  0  0  0
   61.8446   34.0364   45.7355 H   0  0  0  0  0  0  0  0  0  0  0  0
   64.0067   34.8445   46.6850 H   0  0  0  0  0  0  0  0  0  0  0  0
   65.0438   33.6508   48.6160 H   0  0  0  0  0  0  0  0  0  0  0  0
   63.9315   31.6443   49.5931 H   0  0  0  0  0  0  0  0  0  0  0  0
   58.8328   31.3035   51.5677 H   0  0  0  0  0  0  0  0  0  0  0  0
   57.1535   31.5083   50.9228 H   0  0  0  0  0  0  0  0  0  0  0  0
   57.7578   29.1830   52.7535 H   0  0  0  0  0  0  0  0  0  0  0  0
   57.5476   30.8439   53.4462 H   0  0  0  0  0  0  0  0  0  0  0  0
   55.7440   28.2775   53.8032 H   0  0  0  0  0  0  0  0  0  0  0  0
   53.2708   28.0132   53.6213 H   0  0  0  0  0  0  0  0  0  0  0  0
   51.9415   29.5994   52.2268 H   0  0  0  0  0  0  0  0  0  0  0  0
   53.0860   31.4558   51.0106 H   0  0  0  0  0  0  0  0  0  0  0  0
   55.5605   31.7303   51.1870 H   0  0  0  0  0  0  0  0  0  0  0  0
  1  2  1  0
  2  3  2  0
  3  4  1  0
  4  5  2  0
  5  6  1  0
  6  7  2  0
  7  8  1  0
  8  9  1  0
  9 10  2  0
  9 11  1  0
 11 12  1  0
 12 13  1  0
 13 14  1  0
 13 15  1  0
 15 16  1  0
 16 17  1  0
 17 18  2  0
 17 19  1  0
 19 20  1  0
 20 21  1  0
 21 22  1  0
 22 23  2  0
 23 24  1  0
 24 25  2  0
 25 26  1  0
 26 27  2  0
 20 28  1  0
 28 29  2  0
 28 30  1  0
 30 31  1  0
 31 32  1  0
 32 33  1  0
 33 34  2  0
 34 35  1  0
 35 36  2  0
 36 37  1  0
 37 38  2  0
  7  2  1  0
 16 11  1  0
 27 22  1  0
 38 33  1  0
  1 39  1  0
  1 40  1  0
  1 41  1  0
  3 42  1  0
  4 43  1  0
  5 44  1  0
  6 45  1  0
 12 46  1  0
 12 47  1  0
 13 48  1  1
 14 49  1  0
 15 50  1  0
 15 51  1  0
 16 52  1  1
 20 53  1  1
 21 54  1  0
 21 55  1  0
 23 56  1  0
 24 57  1  0
 25 58  1  0
 26 59  1  0
 27 60  1  0
 31 61  1  0
 31 62  1  0
 32 63  1  0
 32 64  1  0
 34 65  1  0
 35 66  1  0
 36 67  1  0
 37 68  1  0
 38 69  1  0
M  CHG  3   8  -1  19  -1  30  -1
M  END
>  <UniqueID>  (45) 
44

>  <SMILES>  (45) 
Cc1ccccc1[N-]C(=O)N1C[C@H](O)C[C@H]1C(=O)[N-]C(Cc1ccccc1)C(=O)[N-]CCc1ccccc1

>  <Energy>  (45) 
79.94740435090566

>  <Genealogy>  (45) 
Cc1ccccc1[N-]C(=O)N1CC(O)CC1C(=O)[N-]C(Cc1ccccc1)C(=O)[N-]CCc1ccccc1 (protonated)
Cc1ccccc1[N-]C(=O)N1C[C@H](O)C[C@H]1C(=O)[N-]C(Cc1ccccc1)C(=O)[N-]CCc1ccccc1 (chirality)
Cc1ccccc1[N-]C(=O)N1C[C@H](O)C[C@H]1C(=O)[N-]C(Cc1ccccc1)C(=O)[N-]CCc1ccccc1 (3D coordinates assigned)
Cc1ccccc1[N-]C(=O)N1C[C@H](O)C[C@H]1C(=O)[N-]C(Cc1ccccc1)C(=O)[N-]CCc1ccccc1 (nonaromatic ring conformer: 79.94740435090566 kcal/mol)

>  <smiles>  (45) 
Cc1ccccc1NC(=O)N1CC(O)CC1C(=O)NC(Cc1ccccc1)C(=O)NCCc1ccccc1

>  <score_type>  (45) 
oracle

>  <origin>  (45) 
adg

>  <m_score__min__energy>  (45) 
-13.74

>  <m_primary>  (45) 
energy

$$$$
45:0
     RDKit          3D

 42 45  0  0  0  0  0  0  0  0999 V2000
   54.3810   26.7060   46.8470 H   0  0  0  0  0  0  0  0  0  0  0  0
   55.1330   26.5800   46.1810 O   0  0  0  0  0  0  0  0  0  0  0  0
   56.0440   25.5390   46.3290 C   0  0  0  0  0  0  0  0  0  0  0  0
   55.9190   24.5560   47.2360 N   0  0  0  0  0  0  0  0  0  0  0  0
   57.0400   23.8300   47.0420 C   0  0  0  0  0  0  0  0  0  0  0  0
   57.3070   22.8020   47.7170 O   0  0  0  0  0  0  0  0  0  0  0  0
   57.8590   24.2990   46.0760 N   0  0  0  0  0  0  0  0  0  0  0  0
   57.2030   25.3730   45.6060 C   0  0  0  0  0  0  0  0  0  0  0  0
   57.7650   26.2980   44.6100 C   0  0  0  0  0  0  0  0  0  0  0  0
   57.9178   25.9078   43.5929 H   0  0  0  0  0  0  0  0  0  0  0  0
   58.1090   27.5810   44.8340 C   0  0  0  0  0  0  0  0  0  0  0  0
   57.7270   28.6150   43.9940 C   0  0  0  0  0  0  0  0  0  0  0  0
   57.0843   28.5335   43.1050 H   0  0  0  0  0  0  0  0  0  0  0  0
   58.3070   29.7660   44.4860 C   0  0  0  0  0  0  0  0  0  0  0  0
   58.1810   31.1220   43.8620 C   0  0  0  0  0  0  0  0  0  0  0  0
   58.1102   31.8841   44.6521 H   0  0  0  0  0  0  0  0  0  0  0  0
   59.0644   31.3219   43.2378 H   0  0  0  0  0  0  0  0  0  0  0  0
   57.2759   31.1557   43.2378 H   0  0  0  0  0  0  0  0  0  0  0  0
   59.0160   29.4940   45.6020 N   0  0  0  0  0  0  0  0  0  0  0  0
   59.7080   30.4660   46.4040 C   0  0  0  0  0  0  0  0  0  0  0  0
   61.0490   30.2590   46.7560 C   0  0  0  0  0  0  0  0  0  0  0  0
   61.5735   29.3565   46.4091 H   0  0  0  0  0  0  0  0  0  0  0  0
   61.7220   31.1950   47.5460 C   0  0  0  0  0  0  0  0  0  0  0  0
   62.7751   31.0279   47.8164 H   0  0  0  0  0  0  0  0  0  0  0  0
   61.0570   32.3510   47.9970 C   0  0  0  0  0  0  0  0  0  0  0  0
   61.6900   33.3180   48.7880 O   0  0  0  0  0  0  0  0  0  0  0  0
   62.8090   34.0860   48.3570 C   0  0  0  0  0  0  0  0  0  0  0  0
   62.6187   34.9808   48.9678 H   0  0  0  0  0  0  0  0  0  0  0  0
   64.0350   33.2530   48.0360 C   0  0  0  0  0  0  0  0  0  0  0  0
   65.0403   33.6586   48.2228 H   0  0  0  0  0  0  0  0  0  0  0  0
   64.3889   32.2492   48.3138 H   0  0  0  0  0  0  0  0  0  0  0  0
   63.1820   33.8210   46.9120 C   0  0  0  0  0  0  0  0  0  0  0  0
   63.5702   34.6374   46.2853 H   0  0  0  0  0  0  0  0  0  0  0  0
   62.6629   33.3983   46.0391 H   0  0  0  0  0  0  0  0  0  0  0  0
   59.7170   32.5520   47.6440 C   0  0  0  0  0  0  0  0  0  0  0  0
   59.1903   33.4532   47.9911 H   0  0  0  0  0  0  0  0  0  0  0  0
   59.0430   31.6150   46.8530 C   0  0  0  0  0  0  0  0  0  0  0  0
   57.7470   31.8340   46.5130 F   0  0  0  0  0  0  0  0  0  0  0  0
   58.8790   28.1670   45.8530 C   0  0  0  0  0  0  0  0  0  0  0  0
   59.3400   27.5790   46.9680 C   0  0  0  0  0  0  0  0  0  0  0  0
   59.9358   28.1579   47.6890 H   0  0  0  0  0  0  0  0  0  0  0  0
   59.1220   26.5182   47.1608 H   0  0  0  0  0  0  0  0  0  0  0  0
  1  2  1  0
  2  3  1  0
  3  4  1  0
  4  5  1  0
  5  6  2  0
  5  7  1  0
  7  8  1  0
  8  9  1  0
  9 10  1  0
  9 11  2  0
 11 12  1  0
 12 13  1  0
 12 14  2  0
 14 15  1  0
 15 16  1  0
 15 17  1  0
 15 18  1  0
 14 19  1  0
 19 20  1  0
 20 21  2  0
 21 22  1  0
 21 23  1  0
 23 24  1  0
 23 25  2  0
 25 26  1  0
 26 27  1  0
 27 28  1  0
 27 29  1  0
 29 30  1  0
 29 31  1  0
 29 32  1  0
 32 33  1  0
 32 34  1  0
 25 35  1  0
 35 36  1  0
 35 37  2  0
 37 38  1  0
 19 39  1  0
 39 40  2  0
 40 41  1  0
 40 42  1  0
  8  3  2  0
 39 11  1  0
 37 20  1  0
 32 27  1  0
M  CHG  2   4  -1   7  -1
M  END
>  <UniqueID>  (46) 
45

>  <SMILES>  (46) 
C=c1/c(=C\c2[n-]c(=O)[n-]c2O)cc(C)n1-c1ccc(OC2CC2)cc1F

>  <Energy>  (46) 
384.4155822565277

>  <Genealogy>  (46) 
C=c1c(=Cc2[n-]c(=O)[n-]c2O)cc(C)n1-c1ccc(OC2CC2)cc1F (protonated)
C=c1/c(=C\c2[n-]c(=O)[n-]c2O)cc(C)n1-c1ccc(OC2CC2)cc1F (cis-trans isomerization)
C=c1/c(=C\c2[n-]c(=O)[n-]c2O)cc(C)n1-c1ccc(OC2CC2)cc1F (3D coordinates assigned)
C=c1/c(=C\c2[n-]c(=O)[n-]c2O)cc(C)n1-c1ccc(OC2CC2)cc1F (nonaromatic ring conformer: 384.4155822565277 kcal/mol)

>  <smiles>  (46) 
C=c1c(=Cc2[nH]c(=O)[nH]c2O)cc(C)n1-c1ccc(OC2CC2)cc1F

>  <score_type>  (46) 
oracle

>  <origin>  (46) 
adg

>  <m_score__min__energy>  (46) 
-12.289999999999999

>  <m_primary>  (46) 
energy

$$$$
46:0
     RDKit          3D

 58 61  0  0  0  0  0  0  0  0999 V2000
   62.0810   31.5970   48.7730 C   0  0  0  0  0  0  0  0  0  0  0  0
   62.0110   30.8530   50.0270 N   0  0  0  0  0  0  0  0  0  0  0  0
   62.4430   31.3260   51.1840 N   0  0  0  0  0  0  0  0  0  0  0  0
   62.1320   30.4400   52.1500 C   0  0  0  0  0  0  0  0  0  0  0  0
   62.2500   30.7210   53.6180 C   0  0  0  0  0  0  0  0  0  0  0  0
   61.0160   31.2250   54.1350 O   0  0  0  0  0  0  0  0  0  0  0  0
   59.9000   31.5870   53.3600 C   0  0  0  0  0  0  0  0  0  0  0  0
   59.8580   32.8760   52.8190 C   0  0  0  0  0  0  0  0  0  0  0  0
   58.8050   33.2640   51.9880 C   0  0  0  0  0  0  0  0  0  0  0  0
   57.7810   32.3630   51.6870 C   0  0  0  0  0  0  0  0  0  0  0  0
   57.7950   31.0670   52.2380 C   0  0  0  0  0  0  0  0  0  0  0  0
   56.7740   30.1000   51.9460 N   0  0  0  0  0  0  0  0  0  0  0  0
   55.5260   30.3530   51.9830 C   0  0  0  0  0  0  0  0  0  0  0  0
   53.9470   30.6700   52.0340 S   0  0  0  0  0  0  0  0  0  0  0  0
   58.8420   30.6960   53.0910 C   0  0  0  0  0  0  0  0  0  0  0  0
   61.4980   29.3470   51.5860 C   0  0  0  0  0  0  0  0  0  0  0  0
   61.4180   29.6570   50.2420 C   0  0  0  0  0  0  0  0  0  0  0  0
   60.6390   28.9000   49.2520 C   0  0  0  0  0  0  0  0  0  0  0  0
   60.8380   27.6610   49.1450 O   0  0  0  0  0  0  0  0  0  0  0  0
   59.6440   29.5460   48.4310 N   0  0  0  0  0  0  0  0  0  0  0  0
   59.2820   28.9350   47.1430 C   0  0  0  0  0  0  0  0  0  0  0  0
   58.0650   29.6200   46.5140 C   0  0  0  0  0  0  0  0  0  0  0  0
   58.2220   31.0800   46.5850 N   0  0  0  0  0  0  0  0  0  0  0  0
   57.9870   31.9420   45.4490 C   0  0  0  0  0  0  0  0  0  0  0  0
   57.6680   33.1470   45.6460 O   0  0  0  0  0  0  0  0  0  0  0  0
   58.1730   31.4650   44.0270 C   0  0  2  0  0  0  0  0  0  0  0  0
   58.0350   32.6110   43.0340 C   0  0  0  0  0  0  0  0  0  0  0  0
   57.4230   31.9480   41.8420 C   0  0  0  0  0  0  0  0  0  0  0  0
   56.6620   30.7910   42.4530 C   0  0  0  0  0  0  0  0  0  0  0  0
   57.2160   30.4730   43.7100 O   0  0  0  0  0  0  0  0  0  0  0  0
   58.5640   31.7010   47.8740 C   0  0  0  0  0  0  0  0  0  0  0  0
   58.8410   30.6570   48.9650 C   0  0  0  0  0  0  0  0  0  0  0  0
   62.1820   32.6709   48.9889 H   0  0  0  0  0  0  0  0  0  0  0  0
   62.9511   31.2563   48.1926 H   0  0  0  0  0  0  0  0  0  0  0  0
   61.1627   31.4245   48.1926 H   0  0  0  0  0  0  0  0  0  0  0  0
   62.8770   32.2660   51.3200 H   0  0  0  0  0  0  0  0  0  0  0  0
   62.5093   29.7906   54.1444 H   0  0  0  0  0  0  0  0  0  0  0  0
   63.0341   31.4769   53.7723 H   0  0  0  0  0  0  0  0  0  0  0  0
   60.6617   33.5906   53.0502 H   0  0  0  0  0  0  0  0  0  0  0  0
   58.7819   34.2811   51.5697 H   0  0  0  0  0  0  0  0  0  0  0  0
   56.9620   32.6663   51.0182 H   0  0  0  0  0  0  0  0  0  0  0  0
   58.8384   29.6990   53.5557 H   0  0  0  0  0  0  0  0  0  0  0  0
   61.1395   28.4386   52.0922 H   0  0  0  0  0  0  0  0  0  0  0  0
   60.1356   29.0220   46.4546 H   0  0  0  0  0  0  0  0  0  0  0  0
   59.0272   27.8802   47.3231 H   0  0  0  0  0  0  0  0  0  0  0  0
   57.9770   29.3131   45.4613 H   0  0  0  0  0  0  0  0  0  0  0  0
   57.1587   29.3255   47.0635 H   0  0  0  0  0  0  0  0  0  0  0  0
   59.1878   31.0469   43.9534 H   0  0  0  0  0  0  0  0  0  0  0  0
   57.3780   33.3999   43.4289 H   0  0  0  0  0  0  0  0  0  0  0  0
   58.9896   33.1101   42.8112 H   0  0  0  0  0  0  0  0  0  0  0  0
   56.7441   32.6331   41.3130 H   0  0  0  0  0  0  0  0  0  0  0  0
   58.1633   31.6335   41.0917 H   0  0  0  0  0  0  0  0  0  0  0  0
   55.6061   31.0727   42.5787 H   0  0  0  0  0  0  0  0  0  0  0  0
   56.7327   29.9160   41.7902 H   0  0  0  0  0  0  0  0  0  0  0  0
   59.4625   32.3215   47.7410 H   0  0  0  0  0  0  0  0  0  0  0  0
   57.7038   32.3062   48.1962 H   0  0  0  0  0  0  0  0  0  0  0  0
   59.3893   31.1344   49.7905 H   0  0  0  0  0  0  0  0  0  0  0  0
   57.8808   30.2581   49.3242 H   0  0  0  0  0  0  0  0  0  0  0  0
  1  2  1  0
  2  3  1  0
  3  4  2  0
  4  5  1  0
  5  6  1  0
  6  7  1  0
  7  8  2  0
  8  9  1  0
  9 10  2  0
 10 11  1  0
 11 12  1  0
 12 13  2  0
 13 14  2  0
 11 15  2  0
  4 16  1  0
 16 17  2  0
 17 18  1  0
 18 19  2  0
 18 20  1  0
 20 21  1  0
 21 22  1  0
 22 23  1  0
 23 24  1  0
 24 25  2  0
 24 26  1  0
 26 27  1  0
 27 28  1  0
 28 29  1  0
 29 30  1  0
 23 31  1  0
 31 32  1  0
 17  2  1  0
 32 20  1  0
 15  7  1  0
 30 26  1  0
  1 33  1  0
  1 34  1  0
  1 35  1  0
  3 36  1  0
  5 37  1  0
  5 38  1  0
  8 39  1  0
  9 40  1  0
 10 41  1  0
 15 42  1  0
 16 43  1  0
 21 44  1  0
 21 45  1  0
 22 46  1  0
 22 47  1  0
 26 48  1  1
 27 49  1  0
 27 50  1  0
 28 51  1  0
 28 52  1  0
 29 53  1  0
 29 54  1  0
 31 55  1  0
 31 56  1  0
 32 57  1  0
 32 58  1  0
M  CHG  1   3   1
M  END
>  <UniqueID>  (47) 
46

>  <SMILES>  (47) 
Cn1[nH+]c(COc2cccc(N=C=S)c2)cc1C(=O)N1CCN(C(=O)[C@@H]2CCCO2)CC1

>  <Energy>  (47) 
96.50611320490852

>  <Genealogy>  (47) 
Cn1[nH+]c(COc2cccc(N=C=S)c2)cc1C(=O)N1CCN(C(=O)C2CCCO2)CC1 (protonated)
Cn1[nH+]c(COc2cccc(N=C=S)c2)cc1C(=O)N1CCN(C(=O)[C@@H]2CCCO2)CC1 (chirality)
Cn1[nH+]c(COc2cccc(N=C=S)c2)cc1C(=O)N1CCN(C(=O)[C@@H]2CCCO2)CC1 (3D coordinates assigned)
Cn1[nH+]c(COc2cccc(N=C=S)c2)cc1C(=O)N1CCN(C(=O)[C@@H]2CCCO2)CC1 (nonaromatic ring conformer: 96.50611320490852 kcal/mol)

>  <smiles>  (47) 
Cn1nc(COc2cccc(N=C=S)c2)cc1C(=O)N1CCN(C(=O)C2CCCO2)CC1

>  <score_type>  (47) 
oracle

>  <origin>  (47) 
adg

>  <m_score__min__energy>  (47) 
-7.3399999999999999

>  <m_primary>  (47) 
energy

$$$$
47:0
     RDKit          3D

 25 26  0  0  0  0  0  0  0  0999 V2000
   59.1650   29.2560   46.2490 C   0  0  0  0  0  0  0  0  0  0  0  0
   57.9010   29.0860   45.8520 C   0  0  0  0  0  0  0  0  0  0  0  0
   57.2040   30.0840   45.2770 N   0  0  0  0  0  0  0  0  0  0  0  0
   56.0340   29.5090   44.9440 C   0  0  0  0  0  0  0  0  0  0  0  0
   55.1060   30.1370   44.3710 O   0  0  0  0  0  0  0  0  0  0  0  0
   55.9370   28.2070   45.2700 N   0  0  0  0  0  0  0  0  0  0  0  0
   57.1140   27.9270   45.8620 C   0  0  0  0  0  0  0  0  0  0  0  0
   57.3680   26.7010   46.3540 C   0  0  0  0  0  0  0  0  0  0  0  0
   56.9200   25.4270   45.7600 C   0  0  0  0  0  0  0  0  0  0  0  0
   55.5560   25.1660   45.5630 C   0  0  0  0  0  0  0  0  0  0  0  0
   54.5720   26.1040   45.8790 O   0  0  0  0  0  0  0  0  0  0  0  0
   55.1750   23.9770   45.0370 N   0  0  0  0  0  0  0  0  0  0  0  0
   56.0750   23.0160   44.7120 C   0  0  0  0  0  0  0  0  0  0  0  0
   55.6590   21.9390   44.2050 O   0  0  0  0  0  0  0  0  0  0  0  0
   57.4140   23.2170   44.9330 N   0  0  0  0  0  0  0  0  0  0  0  0
   58.3910   22.1800   44.5580 C   0  0  0  0  0  0  0  0  0  0  0  0
   57.8450   24.4170   45.4410 C   0  0  0  0  0  0  0  0  0  0  0  0
   59.0770   24.6240   45.6250 O   0  0  0  0  0  0  0  0  0  0  0  0
   59.7115   28.4234   46.7162 H   0  0  0  0  0  0  0  0  0  0  0  0
   59.6595   30.2286   46.1088 H   0  0  0  0  0  0  0  0  0  0  0  0
   57.9608   26.6434   47.2788 H   0  0  0  0  0  0  0  0  0  0  0  0
   54.7700   27.0920   45.9810 H   0  0  0  0  0  0  0  0  0  0  0  0
   58.8152   21.7298   45.4676 H   0  0  0  0  0  0  0  0  0  0  0  0
   57.8899   21.4021   43.9632 H   0  0  0  0  0  0  0  0  0  0  0  0
   59.1974   22.6339   43.9632 H   0  0  0  0  0  0  0  0  0  0  0  0
  1  2  2  0
  2  3  1  0
  3  4  1  0
  4  5  2  0
  4  6  1  0
  6  7  1  0
  7  8  2  3
  8  9  1  0
  9 10  2  0
 10 11  1  0
 10 12  1  0
 12 13  1  0
 13 14  2  0
 13 15  1  0
 15 16  1  0
 15 17  1  0
 17 18  2  0
  7  2  1  0
 17  9  1  0
  1 19  1  0
  1 20  1  0
  8 21  1  0
 11 22  1  0
 16 23  1  0
 16 24  1  0
 16 25  1  0
M  CHG  3   3  -1   6  -1  12  -1
M  END
>  <UniqueID>  (48) 
47

>  <SMILES>  (48) 
C=c1[n-]c(=O)[n-]c1=Cc1c(O)[n-]c(=O)n(C)c1=O

>  <Energy>  (48) 
72.45438209041028

>  <Genealogy>  (48) 
C=c1[n-]c(=O)[n-]c1=Cc1c(O)[n-]c(=O)n(C)c1=O (protonated)
C=c1[n-]c(=O)[n-]c1=Cc1c(O)[n-]c(=O)n(C)c1=O (3D coordinates assigned)
C=c1[n-]c(=O)[n-]c1=Cc1c(O)[n-]c(=O)n(C)c1=O (optimized conformer: 72.45438209041028 kcal/mol)

>  <smiles>  (48) 
C=c1[nH]c(=O)[nH]c1=Cc1c(O)[nH]c(=O)n(C)c1=O

>  <score_type>  (48) 
oracle

>  <origin>  (48) 
adg

>  <m_score__min__energy>  (48) 
-12.44

>  <m_primary>  (48) 
energy

$$$$
48:0
     RDKit          3D

 39 42  0  0  0  0  0  0  0  0999 V2000
   54.0380   21.6560   45.2560 H   0  0  0  0  0  0  0  0  0  0  0  0
   54.2070   22.6480   44.9710 N   0  0  0  0  0  0  0  0  0  0  0  0
   55.8530   22.7500   44.4540 S   0  0  0  0  0  0  0  0  0  0  0  0
   56.6920   21.7970   45.2580 O   0  0  0  0  0  0  0  0  0  0  0  0
   55.9490   22.3730   43.0030 O   0  0  0  0  0  0  0  0  0  0  0  0
   56.4340   24.3950   44.6840 C   0  0  0  0  0  0  0  0  0  0  0  0
   57.3560   24.9490   43.7860 C   0  0  0  0  0  0  0  0  0  0  0  0
   57.7111   24.3568   42.9297 H   0  0  0  0  0  0  0  0  0  0  0  0
   57.8260   26.2520   43.9750 C   0  0  0  0  0  0  0  0  0  0  0  0
   58.5385   26.6855   43.2578 H   0  0  0  0  0  0  0  0  0  0  0  0
   57.3940   27.0110   45.0750 C   0  0  0  0  0  0  0  0  0  0  0  0
   57.8640   28.3970   45.2700 C   0  0  0  0  0  0  0  0  0  0  0  0
   59.1010   28.5850   45.6310 N   0  0  0  0  0  0  0  0  0  0  0  0
   59.6380   29.8910   45.8630 C   0  0  0  0  0  0  0  0  0  0  0  0
   60.7950   30.0040   46.3440 O   0  0  0  0  0  0  0  0  0  0  0  0
   58.7660   31.0610   45.6040 C   0  0  0  0  0  0  0  0  0  0  0  0
   59.1400   32.3470   45.7170 C   0  0  0  0  0  0  0  0  0  0  0  0
   59.1445   32.9504   44.7973 H   0  0  0  0  0  0  0  0  0  0  0  0
   59.5450   33.0210   46.9650 C   0  0  0  0  0  0  0  0  0  0  0  0
   58.7350   33.3460   48.0560 C   0  0  0  0  0  0  0  0  0  0  0  0
   57.6400   33.2433   48.0762 H   0  0  0  0  0  0  0  0  0  0  0  0
   59.4860   33.8050   49.0850 N   0  0  0  0  0  0  0  0  0  0  0  0
   59.1470   34.1080   50.0250 H   0  0  0  0  0  0  0  0  0  0  0  0
   60.7570   33.7450   48.6590 C   0  0  0  0  0  0  0  0  0  0  0  0
   61.8580   34.0720   49.3800 N   0  0  0  0  0  0  0  0  0  0  0  0
   63.0920   33.9190   48.8110 C   0  0  0  0  0  0  0  0  0  0  0  0
   63.9929   34.1871   49.3824 H   0  0  0  0  0  0  0  0  0  0  0  0
   63.2200   33.4190   47.4940 C   0  0  0  0  0  0  0  0  0  0  0  0
   64.2164   33.2991   47.0436 H   0  0  0  0  0  0  0  0  0  0  0  0
   62.0700   33.0760   46.7630 C   0  0  0  0  0  0  0  0  0  0  0  0
   62.1408   32.6790   45.7396 H   0  0  0  0  0  0  0  0  0  0  0  0
   60.8380   33.2580   47.3840 C   0  0  0  0  0  0  0  0  0  0  0  0
   57.4100   30.7810   45.2310 N   0  0  0  0  0  0  0  0  0  0  0  0
   56.9620   29.5710   45.0680 C   0  0  0  0  0  0  0  0  0  0  0  0
   55.2610   29.3680   44.4960 S   0  0  0  0  0  0  0  0  0  0  0  0
   56.4590   26.4560   45.9650 C   0  0  0  0  0  0  0  0  0  0  0  0
   56.0936   27.0501   46.8156 H   0  0  0  0  0  0  0  0  0  0  0  0
   55.9910   25.1530   45.7750 C   0  0  0  0  0  0  0  0  0  0  0  0
   55.2713   24.7207   46.4857 H   0  0  0  0  0  0  0  0  0  0  0  0
  1  2  1  0
  2  3  1  0
  3  4  2  0
  3  5  2  0
  3  6  1  0
  6  7  2  0
  7  8  1  0
  7  9  1  0
  9 10  1  0
  9 11  2  0
 11 12  1  0
 12 13  2  0
 13 14  1  0
 14 15  2  0
 14 16  1  0
 16 17  2  0
 17 18  1  0
 17 19  1  0
 19 20  2  0
 20 21  1  0
 20 22  1  0
 22 23  1  0
 22 24  1  0
 24 25  2  0
 25 26  1  0
 26 27  1  0
 26 28  2  0
 28 29  1  0
 28 30  1  0
 30 31  1  0
 30 32  2  0
 16 33  1  0
 33 34  2  0
 34 35  1  0
 11 36  1  0
 36 37  1  0
 36 38  2  0
 38 39  1  0
 38  6  1  0
 34 12  1  0
 32 19  1  0
 32 24  1  0
M  CHG  2   2  -1  35  -1
M  END
>  <UniqueID>  (49) 
48

>  <SMILES>  (49) 
[NH-]S(=O)(=O)c1ccc(C2=NC(=O)/C(=C\c3c[nH]c4ncccc34)N=C2[S-])cc1

>  <Energy>  (49) 
94.2071247925418

>  <Genealogy>  (49) 
[NH-]S(=O)(=O)c1ccc(C2=NC(=O)C(=Cc3c[nH]c4ncccc34)N=C2[S-])cc1 (protonated)
[NH-]S(=O)(=O)c1ccc(C2=NC(=O)/C(=C\c3c[nH]c4ncccc34)N=C2[S-])cc1 (cis-trans isomerization)
[NH-]S(=O)(=O)c1ccc(C2=NC(=O)/C(=C\c3c[nH]c4ncccc34)N=C2[S-])cc1 (3D coordinates assigned)
[NH-]S(=O)(=O)c1ccc(C2=NC(=O)/C(=C\c3c[nH]c4ncccc34)N=C2[S-])cc1 (nonaromatic ring conformer: 94.2071247925418 kcal/mol)

>  <smiles>  (49) 
NS(=O)(=O)c1ccc(C2=NC(=O)C(=Cc3c[nH]c4ncccc34)N=C2S)cc1

>  <score_type>  (49) 
oracle

>  <origin>  (49) 
adg

>  <m_score__min__energy>  (49) 
-12.17

>  <m_primary>  (49) 
energy

$$$$
49:0
     RDKit          3D

 42 44  0  0  0  0  0  0  0  0999 V2000
   59.6340   35.3950   46.1720 C   0  0  0  0  0  0  0  0  0  0  0  0
   58.9000   34.1600   45.7710 C   0  0  0  0  0  0  0  0  0  0  0  0
   57.8490   34.0990   44.8650 C   0  0  0  0  0  0  0  0  0  0  0  0
   57.4050   32.7940   44.6210 C   0  0  0  0  0  0  0  0  0  0  0  0
   58.1230   31.8260   45.3200 C   0  0  0  0  0  0  0  0  0  0  0  0
   57.8820   30.3740   45.2650 C   0  0  0  0  0  0  0  0  0  0  0  0
   56.6960   29.9470   45.2180 O   0  0  0  0  0  0  0  0  0  0  0  0
   58.9830   29.4520   45.2290 N   0  0  0  0  0  0  0  0  0  0  0  0
   58.8570   28.0410   45.4810 C   0  0  0  0  0  0  0  0  0  0  0  0
   60.0080   27.2830   45.7410 C   0  0  0  0  0  0  0  0  0  0  0  0
   59.9090   25.9160   46.0100 C   0  0  0  0  0  0  0  0  0  0  0  0
   58.6580   25.2970   46.0410 C   0  0  0  0  0  0  0  0  0  0  0  0
   57.4950   26.0450   45.8140 C   0  0  0  0  0  0  0  0  0  0  0  0
   55.9090   25.2710   45.8960 S   0  0  0  0  0  0  0  0  0  0  0  0
   54.8460   26.3290   46.0130 O   0  0  0  0  0  0  0  0  0  0  0  0
   55.8440   24.4090   47.1270 O   0  0  0  0  0  0  0  0  0  0  0  0
   55.5940   24.2870   44.4850 N   0  0  0  0  0  0  0  0  0  0  0  0
   56.8560   23.9540   43.7960 C   0  0  0  0  0  0  0  0  0  0  0  0
   56.6750   22.7170   42.9020 C   0  0  0  0  0  0  0  0  0  0  0  0
   56.2840   21.5450   43.6080 O   0  0  0  0  0  0  0  0  0  0  0  0
   55.6300   21.8090   44.8410 C   0  0  0  0  0  0  0  0  0  0  0  0
   54.7840   23.0940   44.8180 C   0  0  0  0  0  0  0  0  0  0  0  0
   57.5980   27.4150   45.5330 C   0  0  0  0  0  0  0  0  0  0  0  0
   59.3040   32.5970   46.2420 S   0  0  0  0  0  0  0  0  0  0  0  0
   59.6720   35.4589   47.2695 H   0  0  0  0  0  0  0  0  0  0  0  0
   60.6577   35.3596   45.7711 H   0  0  0  0  0  0  0  0  0  0  0  0
   59.1136   36.2773   45.7711 H   0  0  0  0  0  0  0  0  0  0  0  0
   57.4096   34.9870   44.3872 H   0  0  0  0  0  0  0  0  0  0  0  0
   56.5713   32.5562   43.9440 H   0  0  0  0  0  0  0  0  0  0  0  0
   59.9150   29.8070   44.9170 H   0  0  0  0  0  0  0  0  0  0  0  0
   60.9952   27.7682   45.7330 H   0  0  0  0  0  0  0  0  0  0  0  0
   60.8183   25.3261   46.1977 H   0  0  0  0  0  0  0  0  0  0  0  0
   58.5850   24.2184   46.2443 H   0  0  0  0  0  0  0  0  0  0  0  0
   57.1643   24.8074   43.1741 H   0  0  0  0  0  0  0  0  0  0  0  0
   57.6252   23.7357   44.5514 H   0  0  0  0  0  0  0  0  0  0  0  0
   55.9030   22.9425   42.1516 H   0  0  0  0  0  0  0  0  0  0  0  0
   57.6553   22.5044   42.4505 H   0  0  0  0  0  0  0  0  0  0  0  0
   54.9701   20.9606   45.0749 H   0  0  0  0  0  0  0  0  0  0  0  0
   56.4123   21.9474   45.6018 H   0  0  0  0  0  0  0  0  0  0  0  0
   53.9900   22.9827   44.0649 H   0  0  0  0  0  0  0  0  0  0  0  0
   54.3622   23.2403   45.8233 H   0  0  0  0  0  0  0  0  0  0  0  0
   56.6874   28.0049   45.3518 H   0  0  0  0  0  0  0  0  0  0  0  0
  1  2  1  0
  2  3  2  0
  3  4  1  0
  4  5  2  0
  5  6  1  0
  6  7  2  0
  6  8  1  0
  8  9  1  0
  9 10  2  0
 10 11  1  0
 11 12  2  0
 12 13  1  0
 13 14  1  0
 14 15  2  0
 14 16  2  0
 14 17  1  0
 17 18  1  0
 18 19  1  0
 19 20  1  0
 20 21  1  0
 21 22  1  0
 13 23  2  0
  5 24  1  0
 24  2  1  0
 23  9  1  0
 22 17  1  0
  1 25  1  0
  1 26  1  0
  1 27  1  0
  3 28  1  0
  4 29  1  0
  8 30  1  0
 10 31  1  0
 11 32  1  0
 12 33  1  0
 18 34  1  0
 18 35  1  0
 19 36  1  0
 19 37  1  0
 21 38  1  0
 21 39  1  0
 22 40  1  0
 22 41  1  0
 23 42  1  0
M  END
>  <UniqueID>  (50) 
49

>  <SMILES>  (50) 
Cc1ccc(C(=O)Nc2cccc(S(=O)(=O)N3CCOCC3)c2)s1

>  <Energy>  (50) 
82.45676071057164

>  <Genealogy>  (50) 
Cc1ccc(C(=O)Nc2cccc(S(=O)(=O)N3CCOCC3)c2)s1 (3D coordinates assigned)
Cc1ccc(C(=O)Nc2cccc(S(=O)(=O)N3CCOCC3)c2)s1 (nonaromatic ring conformer: 82.45676071057164 kcal/mol)

>  <smiles>  (50) 
Cc1ccc(C(=O)Nc2cccc(S(=O)(=O)N3CCOCC3)c2)s1

>  <score_type>  (50) 
oracle

>  <origin>  (50) 
adg

>  <m_score__min__energy>  (50) 
-9.3599999999999994

>  <m_primary>  (50) 
energy

$$$$
50:0
     RDKit          3D

 46 49  0  0  0  0  0  0  0  0999 V2000
   59.0574   27.8435   44.3829 H   0  0  0  0  0  0  0  0  0  0  0  0
   58.5190   27.9210   45.3390 C   0  0  0  0  0  0  0  0  0  0  0  0
   58.8850   28.9020   46.1930 C   0  0  0  0  0  0  0  0  0  0  0  0
   59.4580   28.5990   47.5330 C   0  0  0  0  0  0  0  0  0  0  0  0
   60.2620   27.4610   47.7090 C   0  0  0  0  0  0  0  0  0  0  0  0
   60.4734   26.8021   46.8539 H   0  0  0  0  0  0  0  0  0  0  0  0
   60.7950   27.1620   48.9670 C   0  0  0  0  0  0  0  0  0  0  0  0
   61.4317   26.2744   49.0969 H   0  0  0  0  0  0  0  0  0  0  0  0
   60.5200   27.9890   50.0590 C   0  0  0  0  0  0  0  0  0  0  0  0
   60.9444   27.7552   51.0465 H   0  0  0  0  0  0  0  0  0  0  0  0
   59.7060   29.1130   49.8970 C   0  0  0  0  0  0  0  0  0  0  0  0
   59.4859   29.7604   50.7586 H   0  0  0  0  0  0  0  0  0  0  0  0
   59.1710   29.4160   48.6420 C   0  0  0  0  0  0  0  0  0  0  0  0
   58.5230   30.2966   48.5207 H   0  0  0  0  0  0  0  0  0  0  0  0
   58.7620   30.3250   45.7770 C   0  0  0  0  0  0  0  0  0  0  0  0
   57.8350   30.7130   44.7900 C   0  0  0  0  0  0  0  0  0  0  0  0
   57.1974   29.9553   44.3111 H   0  0  0  0  0  0  0  0  0  0  0  0
   57.7200   32.0550   44.4150 C   0  0  0  0  0  0  0  0  0  0  0  0
   56.9951   32.3482   43.6414 H   0  0  0  0  0  0  0  0  0  0  0  0
   58.5230   33.0240   45.0200 C   0  0  0  0  0  0  0  0  0  0  0  0
   58.4322   34.0788   44.7214 H   0  0  0  0  0  0  0  0  0  0  0  0
   59.4420   32.6530   46.0050 C   0  0  0  0  0  0  0  0  0  0  0  0
   60.2210   33.5950   46.5930 F   0  0  0  0  0  0  0  0  0  0  0  0
   59.5620   31.3130   46.3840 C   0  0  0  0  0  0  0  0  0  0  0  0
   60.2860   31.0280   47.1615 H   0  0  0  0  0  0  0  0  0  0  0  0
   57.4380   26.9420   45.6080 C   0  0  0  0  0  0  0  0  0  0  0  0
   56.0920   27.3280   45.6270 C   0  0  0  0  0  0  0  0  0  0  0  0
   55.7270   28.6460   45.3700 O   0  0  0  0  0  0  0  0  0  0  0  0
   55.1280   26.4070   45.8800 N   0  0  0  0  0  0  0  0  0  0  0  0
   54.1280   26.7110   45.9020 H   0  0  0  0  0  0  0  0  0  0  0  0
   55.4370   25.1020   46.1000 C   0  0  0  0  0  0  0  0  0  0  0  0
   54.5100   24.2830   46.3500 O   0  0  0  0  0  0  0  0  0  0  0  0
   56.7430   24.6840   46.0570 N   0  0  0  0  0  0  0  0  0  0  0  0
   57.0640   23.2960   46.2870 C   0  0  0  0  0  0  0  0  0  0  0  0
   56.6990   22.6750   47.4930 C   0  0  0  0  0  0  0  0  0  0  0  0
   56.1662   23.2485   48.2658 H   0  0  0  0  0  0  0  0  0  0  0  0
   57.0110   21.3300   47.7140 C   0  0  0  0  0  0  0  0  0  0  0  0
   56.7245   20.8478   48.6603 H   0  0  0  0  0  0  0  0  0  0  0  0
   57.6870   20.5970   46.7330 C   0  0  0  0  0  0  0  0  0  0  0  0
   57.9322   19.5391   46.9085 H   0  0  0  0  0  0  0  0  0  0  0  0
   58.0510   21.2080   45.5300 C   0  0  0  0  0  0  0  0  0  0  0  0
   58.5811   20.6302   44.7586 H   0  0  0  0  0  0  0  0  0  0  0  0
   57.7420   22.5530   45.3060 C   0  0  0  0  0  0  0  0  0  0  0  0
   58.0307   23.0312   44.3584 H   0  0  0  0  0  0  0  0  0  0  0  0
   57.7430   25.5870   45.8050 C   0  0  0  0  0  0  0  0  0  0  0  0
   58.9460   25.2050   45.7490 O   0  0  0  0  0  0  0  0  0  0  0  0
  1  2  1  0
  2  3  2  0
  3  4  1  0
  4  5  2  0
  5  6  1  0
  5  7  1  0
  7  8  1  0
  7  9  2  0
  9 10  1  0
  9 11  1  0
 11 12  1  0
 11 13  2  0
 13 14  1  0
  3 15  1  0
 15 16  2  0
 16 17  1  0
 16 18  1  0
 18 19  1  0
 18 20  2  0
 20 21  1  0
 20 22  1  0
 22 23  1  0
 22 24  2  0
 24 25  1  0
  2 26  1  0
 26 27  2  0
 27 28  1  0
 27 29  1  0
 29 30  1  0
 29 31  1  0
 31 32  2  0
 31 33  1  0
 33 34  1  0
 34 35  2  0
 35 36  1  0
 35 37  1  0
 37 38  1  0
 37 39  2  0
 39 40  1  0
 39 41  1  0
 41 42  1  0
 41 43  2  0
 43 44  1  0
 33 45  1  0
 45 46  2  0
 13  4  1  0
 24 15  1  0
 45 26  1  0
 43 34  1  0
M  CHG  1  28  -1
M  END
>  <UniqueID>  (51) 
50

>  <SMILES>  (51) 
O=c1[nH]c([O-])c(/C=C(\c2ccccc2)c2cccc(F)c2)c(=O)n1-c1ccccc1

>  <Energy>  (51) 
78.91076406428665

>  <Genealogy>  (51) 
O=c1[nH]c([O-])c(C=C(c2ccccc2)c2cccc(F)c2)c(=O)n1-c1ccccc1 (protonated)
O=c1[nH]c([O-])c(/C=C(\c2ccccc2)c2cccc(F)c2)c(=O)n1-c1ccccc1 (cis-trans isomerization)
O=c1[nH]c([O-])c(/C=C(\c2ccccc2)c2cccc(F)c2)c(=O)n1-c1ccccc1 (3D coordinates assigned)
O=c1[nH]c([O-])c(/C=C(\c2ccccc2)c2cccc(F)c2)c(=O)n1-c1ccccc1 (optimized conformer: 78.91076406428665 kcal/mol)

>  <smiles>  (51) 
O=c1[nH]c(O)c(C=C(c2ccccc2)c2cccc(F)c2)c(=O)n1-c1ccccc1

>  <score_type>  (51) 
oracle

>  <origin>  (51) 
adg

>  <m_score__min__energy>  (51) 
-10.06

>  <m_primary>  (51) 
energy

$$$$
51:0
     RDKit          3D

 60 63  0  0  0  0  0  0  0  0999 V2000
   54.1680   30.8960   52.5140 C   0  0  0  0  0  0  0  0  0  0  0  0
   55.6910   30.3910   53.2960 S   0  0  0  0  0  0  0  0  0  0  0  0
   56.2460   29.2030   52.5560 O   0  0  0  0  0  0  0  0  0  0  0  0
   55.4350   29.9980   54.7260 O   0  0  0  0  0  0  0  0  0  0  0  0
   56.8370   31.6630   53.2360 O   0  0  0  0  0  0  0  0  0  0  0  0
   57.6620   31.9560   52.1390 C   0  0  0  0  0  0  0  0  0  0  0  0
   58.4840   33.0870   52.2190 C   0  0  0  0  0  0  0  0  0  0  0  0
   59.3530   33.4090   51.1720 C   0  0  0  0  0  0  0  0  0  0  0  0
   59.4000   32.6100   50.0170 C   0  0  0  0  0  0  0  0  0  0  0  0
   60.3840   32.9120   48.9180 C   0  0  0  0  0  0  0  0  0  0  0  0
   60.0300   32.1690   47.6960 N   0  0  0  0  0  0  0  0  0  0  0  0
   58.9370   32.5630   46.9710 C   0  0  0  0  0  0  0  0  0  0  0  0
   58.5390   31.8540   45.8310 C   0  0  0  0  0  0  0  0  0  0  0  0
   57.3540   32.2670   45.0550 C   0  0  0  0  0  0  0  0  0  0  0  0
   57.3380   33.4110   44.5310 O   0  0  0  0  0  0  0  0  0  0  0  0
   56.2280   31.4010   44.8530 N   0  0  0  0  0  0  0  0  0  0  0  0
   56.0470   30.4750   43.7370 C   0  0  0  0  0  0  0  0  0  0  0  0
   56.7530   29.1730   44.0050 C   0  0  0  0  0  0  0  0  0  0  0  0
   57.3880   28.4910   42.9580 C   0  0  0  0  0  0  0  0  0  0  0  0
   58.0650   27.2960   43.2040 C   0  0  0  0  0  0  0  0  0  0  0  0
   58.1230   26.7760   44.4980 C   0  0  0  0  0  0  0  0  0  0  0  0
   57.5090   27.4560   45.5650 C   0  0  0  0  0  0  0  0  0  0  0  0
   57.5690   26.9170   46.9450 C   0  0  0  0  0  0  0  0  0  0  0  0
   58.2720   27.5070   47.8080 O   0  0  0  0  0  0  0  0  0  0  0  0
   56.8070   25.7700   47.3530 N   0  0  0  0  0  0  0  0  0  0  0  0
   56.3170   24.8570   46.5660 C   0  0  0  0  0  0  0  0  0  0  0  0
   56.9240   23.6410   46.4330 N   0  0  0  0  0  0  0  0  0  0  0  0
   56.4330   22.6720   45.6140 C   0  0  0  0  0  0  0  0  0  0  0  0
   55.2710   22.9100   44.8760 C   0  0  0  0  0  0  0  0  0  0  0  0
   54.6190   24.1370   45.0040 C   0  0  0  0  0  0  0  0  0  0  0  0
   55.1360   25.1160   45.8560 C   0  0  0  0  0  0  0  0  0  0  0  0
   54.4810   26.3380   45.9880 O   0  0  0  0  0  0  0  0  0  0  0  0
   56.8110   28.6450   45.3060 C   0  0  0  0  0  0  0  0  0  0  0  0
   59.2990   30.7590   45.4130 C   0  0  0  0  0  0  0  0  0  0  0  0
   60.4100   30.3630   46.1530 C   0  0  0  0  0  0  0  0  0  0  0  0
   61.1610   29.2680   45.7430 O   0  0  0  0  0  0  0  0  0  0  0  0
   60.7620   31.0740   47.3060 C   0  0  0  0  0  0  0  0  0  0  0  0
   61.7610   30.6970   47.9790 O   0  0  0  0  0  0  0  0  0  0  0  0
   58.5570   31.4930   49.9210 C   0  0  0  0  0  0  0  0  0  0  0  0
   57.6950   31.1640   50.9720 C   0  0  0  0  0  0  0  0  0  0  0  0
   53.4239   31.1427   53.2856 H   0  0  0  0  0  0  0  0  0  0  0  0
   54.3534   31.7807   51.8872 H   0  0  0  0  0  0  0  0  0  0  0  0
   53.7881   30.0757   51.8872 H   0  0  0  0  0  0  0  0  0  0  0  0
   58.4457   33.7272   53.1127 H   0  0  0  0  0  0  0  0  0  0  0  0
   60.0033   34.2925   51.2529 H   0  0  0  0  0  0  0  0  0  0  0  0
   60.3689   33.9908   48.7039 H   0  0  0  0  0  0  0  0  0  0  0  0
   61.3892   32.6064   49.2439 H   0  0  0  0  0  0  0  0  0  0  0  0
   58.3647   33.4473   47.2881 H   0  0  0  0  0  0  0  0  0  0  0  0
   54.9730   30.2815   43.5991 H   0  0  0  0  0  0  0  0  0  0  0  0
   56.4732   30.9277   42.8296 H   0  0  0  0  0  0  0  0  0  0  0  0
   57.3525   28.8998   41.9374 H   0  0  0  0  0  0  0  0  0  0  0  0
   58.5543   26.7623   42.3759 H   0  0  0  0  0  0  0  0  0  0  0  0
   58.6517   25.8295   44.6842 H   0  0  0  0  0  0  0  0  0  0  0  0
   56.9494   21.7041   45.5332 H   0  0  0  0  0  0  0  0  0  0  0  0
   54.8740   22.1378   44.2007 H   0  0  0  0  0  0  0  0  0  0  0  0
   53.6986   24.3333   44.4345 H   0  0  0  0  0  0  0  0  0  0  0  0
   56.3040   29.1692   46.1295 H   0  0  0  0  0  0  0  0  0  0  0  0
   59.0203   30.2107   44.5010 H   0  0  0  0  0  0  0  0  0  0  0  0
   58.5740   30.8719   49.0133 H   0  0  0  0  0  0  0  0  0  0  0  0
   57.0401   30.2842   50.8884 H   0  0  0  0  0  0  0  0  0  0  0  0
  1  2  1  0
  2  3  2  0
  2  4  2  0
  2  5  1  0
  5  6  1  0
  6  7  2  0
  7  8  1  0
  8  9  2  0
  9 10  1  0
 10 11  1  0
 11 12  1  0
 12 13  2  0
 13 14  1  0
 14 15  2  0
 14 16  1  0
 16 17  1  0
 17 18  1  0
 18 19  2  0
 19 20  1  0
 20 21  2  0
 21 22  1  0
 22 23  1  0
 23 24  2  0
 23 25  1  0
 25 26  2  3
 26 27  1  0
 27 28  1  0
 28 29  2  0
 29 30  1  0
 30 31  2  0
 31 32  1  0
 22 33  2  0
 13 34  1  0
 34 35  2  0
 35 36  1  0
 35 37  1  0
 37 38  2  0
  9 39  1  0
 39 40  2  0
 40  6  1  0
 37 11  1  0
 33 18  1  0
 31 26  1  0
  1 41  1  0
  1 42  1  0
  1 43  1  0
  7 44  1  0
  8 45  1  0
 10 46  1  0
 10 47  1  0
 12 48  1  0
 17 49  1  0
 17 50  1  0
 19 51  1  0
 20 52  1  0
 21 53  1  0
 28 54  1  0
 29 55  1  0
 30 56  1  0
 33 57  1  0
 34 58  1  0
 39 59  1  0
 40 60  1  0
M  CHG  4  16  -1  27  -1  32  -1  36  -1
M  END
>  <UniqueID>  (52) 
51

>  <SMILES>  (52) 
CS(=O)(=O)Oc1ccc(Cn2cc(C(=O)[N-]Cc3cccc(C(=O)N=c4[n-]cccc4[O-])c3)cc([O-])c2=O)cc1

>  <Energy>  (52) 
67.55734593226201

>  <Genealogy>  (52) 
CS(=O)(=O)Oc1ccc(Cn2cc(C(=O)[N-]Cc3cccc(C(=O)N=c4[n-]cccc4[O-])c3)cc([O-])c2=O)cc1 (protonated)
CS(=O)(=O)Oc1ccc(Cn2cc(C(=O)[N-]Cc3cccc(C(=O)N=c4[n-]cccc4[O-])c3)cc([O-])c2=O)cc1 (3D coordinates assigned)
CS(=O)(=O)Oc1ccc(Cn2cc(C(=O)[N-]Cc3cccc(C(=O)N=c4[n-]cccc4[O-])c3)cc([O-])c2=O)cc1 (optimized conformer: 67.55734593226201 kcal/mol)

>  <smiles>  (52) 
CS(=O)(=O)Oc1ccc(Cn2cc(C(=O)NCc3cccc(C(=O)N=c4[nH]cccc4O)c3)cc(O)c2=O)cc1

>  <score_type>  (52) 
oracle

>  <origin>  (52) 
adg

>  <m_score__min__energy>  (52) 
-16.140000000000001

>  <m_primary>  (52) 
energy

$$$$
52:0
     RDKit          3D

 47 50  0  0  1  0  0  0  0  0999 V2000
   58.9180   29.8870   47.9050 C   0  0  0  0  0  0  0  0  0  0  0  0
   58.3980   29.7570   46.6880 C   0  0  0  0  0  0  0  0  0  0  0  0
   63.3380   33.5610   49.0230 C   0  0  0  0  0  0  0  0  0  0  0  0
   57.7950   27.3930   46.8300 C   0  0  0  0  0  0  0  0  0  0  0  0
   57.4640   26.2160   46.0400 C   0  0  0  0  0  0  0  0  0  0  0  0
   56.1800   25.8940   45.6560 C   0  0  0  0  0  0  0  0  0  0  0  0
   55.1310   26.7120   46.0260 O   0  0  0  0  0  0  0  0  0  0  0  0
   55.9960   24.7610   44.9160 N   0  0  0  0  0  0  0  0  0  0  0  0
   57.0470   23.9900   44.5800 C   0  0  0  0  0  0  0  0  0  0  0  0
   56.8210   22.6290   43.6910 S   0  0  0  0  0  0  0  0  0  0  0  0
   58.3120   24.2710   44.9350 N   0  0  0  0  0  0  0  0  0  0  0  0
   58.5110   25.3800   45.6610 C   0  0  0  0  0  0  0  0  0  0  0  0
   59.7040   25.6660   46.0080 O   0  0  0  0  0  0  0  0  0  0  0  0
   57.4470   28.8500   44.9300 C   0  0  0  0  0  0  0  0  0  0  0  0
   57.7040   30.1880   44.6410 C   0  0  0  0  0  0  0  0  0  0  0  0
   57.4350   30.9570   43.4180 C   0  0  0  0  0  0  0  0  0  0  0  0
   58.2850   30.7000   45.7440 N   0  0  0  0  0  0  0  0  0  0  0  0
   58.7350   32.0410   45.9400 C   0  0  0  0  0  0  0  0  0  0  0  0
   57.9640   33.1420   45.6840 C   0  0  0  0  0  0  0  0  0  0  0  0
   58.5280   34.3880   45.9290 C   0  0  0  0  0  0  0  0  0  0  0  0
   59.8210   34.5300   46.4120 C   0  0  0  0  0  0  0  0  0  0  0  0
   60.5930   33.4200   46.6680 C   0  0  0  0  0  0  0  0  0  0  0  0
   61.9530   33.4770   47.1680 C   0  0  0  0  0  0  0  0  0  0  0  0
   62.8740   33.1190   46.3550 O   0  0  0  0  0  0  0  0  0  0  0  0
   62.2960   33.9010   48.4840 N   0  0  0  0  0  0  0  0  0  0  0  0
   57.8760   28.5730   46.2040 C   0  0  0  0  0  0  0  0  0  0  0  0
   64.4630   32.9740   48.5990 N   0  0  0  0  0  0  0  0  0  0  0  0
   65.3940   32.7420   49.4170 N   0  0  0  0  0  0  0  0  0  0  0  0
   65.4160   33.0020   50.6550 C   0  0  0  0  0  0  0  0  0  0  0  0
   63.7080   33.7960   50.8490 S   0  0  0  0  0  0  0  0  0  0  0  0
   60.0390   32.1670   46.4280 C   0  0  0  0  0  0  0  0  0  0  0  0
   59.3181   30.8583   48.2313 H   0  0  0  0  0  0  0  0  0  0  0  0
   58.9480   29.0232   48.5854 H   0  0  0  0  0  0  0  0  0  0  0  0
   57.9738   27.3146   47.9125 H   0  0  0  0  0  0  0  0  0  0  0  0
   54.2600   26.3310   46.3790 H   0  0  0  0  0  0  0  0  0  0  0  0
   55.0180   24.4910   44.6100 H   0  0  0  0  0  0  0  0  0  0  0  0
   59.1300   23.6750   44.6750 H   0  0  0  0  0  0  0  0  0  0  0  0
   56.9751   28.1295   44.2457 H   0  0  0  0  0  0  0  0  0  0  0  0
   57.0829   31.9636   43.6878 H   0  0  0  0  0  0  0  0  0  0  0  0
   58.3581   31.0381   42.8254 H   0  0  0  0  0  0  0  0  0  0  0  0
   56.6626   30.4450   42.8254 H   0  0  0  0  0  0  0  0  0  0  0  0
   56.9381   33.0445   45.2994 H   0  0  0  0  0  0  0  0  0  0  0  0
   57.9304   35.2906   45.7338 H   0  0  0  0  0  0  0  0  0  0  0  0
   60.2310   35.5349   46.5912 H   0  0  0  0  0  0  0  0  0  0  0  0
   64.5350   32.7170   47.5480 H   0  0  0  0  0  0  0  0  0  0  0  0
   66.2013   32.8194   51.4033 H   0  0  0  0  0  0  0  0  0  0  0  0
   60.6347   31.2634   46.6247 H   0  0  0  0  0  0  0  0  0  0  0  0
  1  2  2  0
  2  3  1  0
  3  4  2  0
  4  5  1  0
  5  6  2  0
  6  7  1  0
  6  8  1  0
  8  9  1  0
  9 10  2  0
  9 11  1  0
 11 12  1  0
 12 13  2  0
  3 14  1  0
 14 15  2  0
 15 16  1  0
 15 17  1  0
 17 18  1  0
 18 19  2  0
 19 20  1  0
 20 21  2  0
 21 22  1  0
 22 23  1  0
 23 24  2  0
 23 25  1  0
 25 26  2  0
 26 27  1  0
 27 28  1  0
 28 29  2  0
 29 30  1  0
 22 31  2  0
 17  2  1  0
 31 18  1  0
 12  5  1  0
 30 26  1  0
  1 32  1  0
  1 33  1  0
  4 34  1  0
  7 35  1  0
  8 36  1  0
 11 37  1  0
 14 38  1  0
 16 39  1  0
 16 40  1  0
 16 41  1  0
 19 42  1  0
 20 43  1  0
 21 44  1  0
 27 45  1  0
 29 46  1  0
 31 47  1  0
M  END
>  <smiles>  (53) 
C=c1c(=Cc2c(O)[nH]c(=S)[nH]c2=O)cc(C)n1-c1cccc(C(=O)N=c2[nH]ncs2)c1

>  <score_type>  (53) 
oracle

>  <origin>  (53) 
adg

>  <m_score__min__energy>  (53) 
-10.800000000000001

>  <m_primary>  (53) 
energy

$$$$
53:0
     RDKit          3D

 40 42  0  0  0  0  0  0  0  0999 V2000
   56.8320   21.0360   42.7640 C   0  0  0  0  0  0  0  0  0  0  0  0
   57.1540   22.0160   43.8540 C   0  0  0  0  0  0  0  0  0  0  0  0
   56.1770   22.9140   44.3080 C   0  0  0  0  0  0  0  0  0  0  0  0
   56.4670   23.8040   45.3470 C   0  0  0  0  0  0  0  0  0  0  0  0
   57.7220   23.7890   45.9660 C   0  0  0  0  0  0  0  0  0  0  0  0
   57.9830   24.7340   47.0130 N   0  0  0  0  0  0  0  0  0  0  0  0
   58.5740   26.0310   46.8690 C   0  0  0  0  0  0  0  0  0  0  0  0
   59.6840   26.2840   47.4120 O   0  0  0  0  0  0  0  0  0  0  0  0
   57.8670   27.1040   46.1440 C   0  0  0  0  0  0  0  0  0  0  0  0
   58.4840   28.1790   45.5150 C   0  0  0  0  0  0  0  0  0  0  0  0
   57.5570   28.9830   44.9540 N   0  0  0  0  0  0  0  0  0  0  0  0
   57.8180   30.2480   44.2700 C   0  0  0  0  0  0  0  0  0  0  0  0
   57.8550   31.3730   45.2660 C   0  0  0  0  0  0  0  0  0  0  0  0
   57.3270   32.6310   44.9310 C   0  0  0  0  0  0  0  0  0  0  0  0
   57.3970   33.6890   45.8410 C   0  0  0  0  0  0  0  0  0  0  0  0
   58.0020   33.5030   47.0880 C   0  0  0  0  0  0  0  0  0  0  0  0
   58.5410   32.2580   47.4230 C   0  0  0  0  0  0  0  0  0  0  0  0
   58.4740   31.1970   46.5150 C   0  0  0  0  0  0  0  0  0  0  0  0
   56.3530   28.4460   45.2280 C   0  0  0  0  0  0  0  0  0  0  0  0
   55.1410   29.0000   44.8340 O   0  0  0  0  0  0  0  0  0  0  0  0
   56.5000   27.2850   45.9500 C   0  0  0  0  0  0  0  0  0  0  0  0
   55.4450   26.4800   46.3790 O   0  0  0  0  0  0  0  0  0  0  0  0
   58.7050   22.8940   45.5060 C   0  0  0  0  0  0  0  0  0  0  0  0
   58.4170   22.0050   44.4660 C   0  0  0  0  0  0  0  0  0  0  0  0
   56.5182   20.0809   43.2105 H   0  0  0  0  0  0  0  0  0  0  0  0
   56.0176   21.4347   42.1413 H   0  0  0  0  0  0  0  0  0  0  0  0
   57.7242   20.8740   42.1413 H   0  0  0  0  0  0  0  0  0  0  0  0
   55.1791   22.9183   43.8452 H   0  0  0  0  0  0  0  0  0  0  0  0
   55.7027   24.5214   45.6803 H   0  0  0  0  0  0  0  0  0  0  0  0
   59.5701   28.3495   45.4797 H   0  0  0  0  0  0  0  0  0  0  0  0
   58.7863   30.1887   43.7514 H   0  0  0  0  0  0  0  0  0  0  0  0
   57.0156   30.4369   43.5417 H   0  0  0  0  0  0  0  0  0  0  0  0
   56.8566   32.7837   43.9484 H   0  0  0  0  0  0  0  0  0  0  0  0
   56.9755   34.6699   45.5761 H   0  0  0  0  0  0  0  0  0  0  0  0
   58.0536   34.3360   47.8046 H   0  0  0  0  0  0  0  0  0  0  0  0
   59.0189   32.1125   48.4030 H   0  0  0  0  0  0  0  0  0  0  0  0
   58.9074   30.2211   46.7793 H   0  0  0  0  0  0  0  0  0  0  0  0
   55.5160   25.8600   47.1720 H   0  0  0  0  0  0  0  0  0  0  0  0
   59.7041   22.8936   45.9663 H   0  0  0  0  0  0  0  0  0  0  0  0
   59.1839   21.2936   44.1258 H   0  0  0  0  0  0  0  0  0  0  0  0
  1  2  1  0
  2  3  2  0
  3  4  1  0
  4  5  2  0
  5  6  1  0
  6  7  1  0
  7  8  2  0
  7  9  1  0
  9 10  2  0
 10 11  1  0
 11 12  1  0
 12 13  1  0
 13 14  2  0
 14 15  1  0
 15 16  2  0
 16 17  1  0
 17 18  2  0
 11 19  1  0
 19 20  1  0
 19 21  2  0
 21 22  1  0
  5 23  1  0
 23 24  2  0
 24  2  1  0
 21  9  1  0
 18 13  1  0
  1 25  1  0
  1 26  1  0
  1 27  1  0
  3 28  1  0
  4 29  1  0
 10 30  1  0
 12 31  1  0
 12 32  1  0
 14 33  1  0
 15 34  1  0
 16 35  1  0
 17 36  1  0
 18 37  1  0
 22 38  1  0
 23 39  1  0
 24 40  1  0
M  CHG  2   6  -1  20  -1
M  END
>  <UniqueID>  (54) 
52

>  <SMILES>  (54) 
Cc1ccc([N-]C(=O)c2cn(Cc3ccccc3)c([O-])c2O)cc1

>  <Energy>  (54) 
73.20092049596568

>  <Genealogy>  (54) 
Cc1ccc([N-]C(=O)c2cn(Cc3ccccc3)c([O-])c2O)cc1 (protonated)
Cc1ccc([N-]C(=O)c2cn(Cc3ccccc3)c([O-])c2O)cc1 (3D coordinates assigned)
Cc1ccc([N-]C(=O)c2cn(Cc3ccccc3)c([O-])c2O)cc1 (optimized conformer: 73.20092049596568 kcal/mol)

>  <smiles>  (54) 
Cc1ccc(NC(=O)c2cn(Cc3ccccc3)c(O)c2O)cc1

>  <score_type>  (54) 
oracle

>  <origin>  (54) 
adg

>  <m_score__min__energy>  (54) 
-12.949999999999999

>  <m_primary>  (54) 
energy

$$$$
54:0
     RDKit          3D

 55 58  0  0  0  0  0  0  0  0999 V2000
   55.6400   23.5410   44.6070 C   0  0  0  0  0  0  0  0  0  0  0  0
   55.8450   24.8710   45.2500 C   0  0  0  0  0  0  0  0  0  0  0  0
   57.0330   25.5660   45.3260 C   0  0  0  0  0  0  0  0  0  0  0  0
   56.6650   26.7280   45.9660 C   0  0  0  0  0  0  0  0  0  0  0  0
   57.4810   27.6930   46.2730 N   0  0  0  0  0  0  0  0  0  0  0  0
   58.5710   27.5950   47.2030 C   0  0  0  0  0  0  0  0  0  0  0  0
   58.6980   26.5380   47.8770 O   0  0  0  0  0  0  0  0  0  0  0  0
   59.5750   28.6720   47.3520 C   0  0  0  0  0  0  0  0  0  0  0  0
   59.7700   29.2930   48.5970 C   0  0  0  0  0  0  0  0  0  0  0  0
   60.6830   30.3430   48.7270 C   0  0  0  0  0  0  0  0  0  0  0  0
   61.4230   30.7760   47.6170 C   0  0  0  0  0  0  0  0  0  0  0  0
   62.4860   32.1790   47.7470 S   0  0  0  0  0  0  0  0  0  0  0  0
   63.0550   32.2450   49.1390 O   0  0  0  0  0  0  0  0  0  0  0  0
   63.6300   32.0260   46.7830 O   0  0  0  0  0  0  0  0  0  0  0  0
   61.6240   33.6630   47.4020 N   0  0  0  0  0  0  0  0  0  0  0  0
   60.7800   33.5030   46.1970 C   0  0  0  0  0  0  0  0  0  0  0  0
   59.6550   34.5410   46.1490 C   0  0  0  0  0  0  0  0  0  0  0  0
   58.6870   34.3730   47.3500 C   0  0  0  0  0  0  0  0  0  0  0  0
   57.4800   33.4680   47.0070 C   0  0  0  0  0  0  0  0  0  0  0  0
   57.6710   32.6990   45.7240 C   0  0  0  0  0  0  0  0  0  0  0  0
   57.9540   31.3230   45.7600 C   0  0  0  0  0  0  0  0  0  0  0  0
   58.1360   30.6110   44.5710 C   0  0  0  0  0  0  0  0  0  0  0  0
   58.0380   31.2640   43.3400 C   0  0  0  0  0  0  0  0  0  0  0  0
   57.7580   32.6320   43.2950 C   0  0  0  0  0  0  0  0  0  0  0  0
   57.5750   33.3500   44.4820 C   0  0  0  0  0  0  0  0  0  0  0  0
   59.4150   33.8130   48.5970 C   0  0  0  0  0  0  0  0  0  0  0  0
   60.9080   34.1710   48.5990 C   0  0  0  0  0  0  0  0  0  0  0  0
   61.2720   30.1200   46.3890 C   0  0  0  0  0  0  0  0  0  0  0  0
   60.3530   29.0770   46.2560 C   0  0  0  0  0  0  0  0  0  0  0  0
   55.3490   26.7110   46.2580 N   0  0  0  0  0  0  0  0  0  0  0  0
   54.8900   25.5800   45.8060 O   0  0  0  0  0  0  0  0  0  0  0  0
   55.5215   22.7721   45.3847 H   0  0  0  0  0  0  0  0  0  0  0  0
   54.7360   23.5718   43.9810 H   0  0  0  0  0  0  0  0  0  0  0  0
   56.5113   23.2982   43.9810 H   0  0  0  0  0  0  0  0  0  0  0  0
   58.0280   25.2665   44.9649 H   0  0  0  0  0  0  0  0  0  0  0  0
   59.2010   28.9510   49.4741 H   0  0  0  0  0  0  0  0  0  0  0  0
   60.8217   30.8314   49.7028 H   0  0  0  0  0  0  0  0  0  0  0  0
   61.4101   33.6192   45.3029 H   0  0  0  0  0  0  0  0  0  0  0  0
   60.3219   32.5035   46.2305 H   0  0  0  0  0  0  0  0  0  0  0  0
   60.0947   35.5488   46.1804 H   0  0  0  0  0  0  0  0  0  0  0  0
   59.0857   34.3959   45.2190 H   0  0  0  0  0  0  0  0  0  0  0  0
   58.3099   35.3806   47.5790 H   0  0  0  0  0  0  0  0  0  0  0  0
   57.3342   32.7507   47.8281 H   0  0  0  0  0  0  0  0  0  0  0  0
   56.6045   34.1205   46.8743 H   0  0  0  0  0  0  0  0  0  0  0  0
   58.0325   30.8046   46.7270 H   0  0  0  0  0  0  0  0  0  0  0  0
   58.3569   29.5339   44.6047 H   0  0  0  0  0  0  0  0  0  0  0  0
   58.1813   30.7010   42.4059 H   0  0  0  0  0  0  0  0  0  0  0  0
   57.6813   33.1453   42.3252 H   0  0  0  0  0  0  0  0  0  0  0  0
   57.3554   34.4271   44.4430 H   0  0  0  0  0  0  0  0  0  0  0  0
   58.9476   34.2331   49.4998 H   0  0  0  0  0  0  0  0  0  0  0  0
   59.3280   32.7166   48.5780 H   0  0  0  0  0  0  0  0  0  0  0  0
   61.0066   35.2662   48.6288 H   0  0  0  0  0  0  0  0  0  0  0  0
   61.3609   33.6958   49.4817 H   0  0  0  0  0  0  0  0  0  0  0  0
   61.8799   30.4276   45.5254 H   0  0  0  0  0  0  0  0  0  0  0  0
   60.2381   28.5698   45.2867 H   0  0  0  0  0  0  0  0  0  0  0  0
  1  2  1  0
  2  3  2  0
  3  4  1  0
  4  5  2  3
  5  6  1  0
  6  7  2  0
  6  8  1  0
  8  9  2  0
  9 10  1  0
 10 11  2  0
 11 12  1  0
 12 13  2  0
 12 14  2  0
 12 15  1  0
 15 16  1  0
 16 17  1  0
 17 18  1  0
 18 19  1  0
 19 20  1  0
 20 21  2  0
 21 22  1  0
 22 23  2  0
 23 24  1  0
 24 25  2  0
 18 26  1  0
 26 27  1  0
 11 28  1  0
 28 29  2  0
  4 30  1  0
 30 31  1  0
 31  2  1  0
 29  8  1  0
 27 15  1  0
 25 20  1  0
  1 32  1  0
  1 33  1  0
  1 34  1  0
  3 35  1  0
  9 36  1  0
 10 37  1  0
 16 38  1  0
 16 39  1  0
 17 40  1  0
 17 41  1  0
 18 42  1  0
 19 43  1  0
 19 44  1  0
 21 45  1  0
 22 46  1  0
 23 47  1  0
 24 48  1  0
 25 49  1  0
 26 50  1  0
 26 51  1  0
 27 52  1  0
 27 53  1  0
 28 54  1  0
 29 55  1  0
M  CHG  1  30  -1
M  END
>  <UniqueID>  (55) 
53

>  <SMILES>  (55) 
Cc1cc(=NC(=O)c2ccc(S(=O)(=O)N3CCC(Cc4ccccc4)CC3)cc2)[n-]o1

>  <Energy>  (55) 
97.61945677177366

>  <Genealogy>  (55) 
Cc1cc(=NC(=O)c2ccc(S(=O)(=O)N3CCC(Cc4ccccc4)CC3)cc2)[n-]o1 (protonated)
Cc1cc(=NC(=O)c2ccc(S(=O)(=O)N3CCC(Cc4ccccc4)CC3)cc2)[n-]o1 (3D coordinates assigned)
Cc1cc(=NC(=O)c2ccc(S(=O)(=O)N3CCC(Cc4ccccc4)CC3)cc2)[n-]o1 (nonaromatic ring conformer: 97.61945677177366 kcal/mol)

>  <smiles>  (55) 
Cc1cc(=NC(=O)c2ccc(S(=O)(=O)N3CCC(Cc4ccccc4)CC3)cc2)[nH]o1

>  <score_type>  (55) 
oracle

>  <origin>  (55) 
adg

>  <m_score__min__energy>  (55) 
-12.25

>  <m_primary>  (55) 
energy

$$$$
55:0
     RDKit          3D

 45 48  0  0  0  0  0  0  0  0999 V2000
   62.7030   34.1630   46.6070 O   0  0  0  0  0  0  0  0  0  0  0  0
   62.2650   33.7970   47.7310 C   0  0  0  0  0  0  0  0  0  0  0  0
   60.8490   33.7950   47.9810 N   0  0  0  0  0  0  0  0  0  0  0  0
   59.8740   33.9410   46.9340 C   0  0  0  0  0  0  0  0  0  0  0  0
   60.0180   34.9800   45.9980 C   0  0  0  0  0  0  0  0  0  0  0  0
   59.1410   35.0920   44.9190 C   0  0  0  0  0  0  0  0  0  0  0  0
   58.1180   34.1610   44.7510 C   0  0  0  0  0  0  0  0  0  0  0  0
   57.9620   33.1190   45.6680 C   0  0  0  0  0  0  0  0  0  0  0  0
   58.8260   32.9970   46.7720 C   0  0  0  0  0  0  0  0  0  0  0  0
   58.5820   31.9090   47.7510 C   0  0  0  0  0  0  0  0  0  0  0  0
   58.7800   32.1030   48.9810 O   0  0  0  0  0  0  0  0  0  0  0  0
   58.1370   30.6260   47.2880 N   0  0  0  0  0  0  0  0  0  0  0  0
   58.7410   29.8290   46.2570 C   0  0  0  0  0  0  0  0  0  0  0  0
   60.1060   29.4890   46.3290 C   0  0  0  0  0  0  0  0  0  0  0  0
   60.6930   28.6940   45.3450 C   0  0  0  0  0  0  0  0  0  0  0  0
   59.9280   28.2140   44.2860 C   0  0  0  0  0  0  0  0  0  0  0  0
   58.5690   28.5180   44.2110 C   0  0  0  0  0  0  0  0  0  0  0  0
   57.9520   29.3210   45.1930 C   0  0  0  0  0  0  0  0  0  0  0  0
   56.4970   29.6170   45.0710 C   0  0  0  0  0  0  0  0  0  0  0  0
   56.1070   30.7860   44.8120 O   0  0  0  0  0  0  0  0  0  0  0  0
   55.5400   28.6230   45.2410 O   0  0  0  0  0  0  0  0  0  0  0  0
   63.2240   33.4100   48.7850 C   0  0  0  0  0  0  0  0  0  0  0  0
   62.9240   33.3600   50.1470 C   0  0  0  0  0  0  0  0  0  0  0  0
   64.0960   32.9680   50.7560 C   0  0  0  0  0  0  0  0  0  0  0  0
   64.3900   32.7500   52.1000 C   0  0  0  0  0  0  0  0  0  0  0  0
   65.6990   32.3520   52.4280 C   0  0  0  0  0  0  0  0  0  0  0  0
   66.6710   32.1840   51.4160 C   0  0  0  0  0  0  0  0  0  0  0  0
   66.3420   32.4130   50.0670 C   0  0  0  0  0  0  0  0  0  0  0  0
   65.0360   32.8050   49.7730 C   0  0  0  0  0  0  0  0  0  0  0  0
   64.5180   33.0730   48.5630 N   0  0  0  0  0  0  0  0  0  0  0  0
   60.5070   33.7290   48.9640 H   0  0  0  0  0  0  0  0  0  0  0  0
   60.8303   35.7120   46.1177 H   0  0  0  0  0  0  0  0  0  0  0  0
   59.2572   35.9163   44.1999 H   0  0  0  0  0  0  0  0  0  0  0  0
   57.4324   34.2467   43.8951 H   0  0  0  0  0  0  0  0  0  0  0  0
   57.1547   32.3855   45.5256 H   0  0  0  0  0  0  0  0  0  0  0  0
   60.7148   29.8540   47.1693 H   0  0  0  0  0  0  0  0  0  0  0  0
   61.7629   28.4458   45.4060 H   0  0  0  0  0  0  0  0  0  0  0  0
   60.3959   27.5940   43.5071 H   0  0  0  0  0  0  0  0  0  0  0  0
   57.9705   28.1265   43.3752 H   0  0  0  0  0  0  0  0  0  0  0  0
   61.9613   33.5847   50.6294 H   0  0  0  0  0  0  0  0  0  0  0  0
   63.6246   32.8845   52.8786 H   0  0  0  0  0  0  0  0  0  0  0  0
   65.9676   32.1704   53.4791 H   0  0  0  0  0  0  0  0  0  0  0  0
   67.6912   31.8723   51.6844 H   0  0  0  0  0  0  0  0  0  0  0  0
   67.0902   32.2870   49.2705 H   0  0  0  0  0  0  0  0  0  0  0  0
   65.0290   33.0400   47.6530 H   0  0  0  0  0  0  0  0  0  0  0  0
  1  2  2  0
  2  3  1  0
  3  4  1  0
  4  5  2  0
  5  6  1  0
  6  7  2  0
  7  8  1  0
  8  9  2  0
  9 10  1  0
 10 11  2  0
 10 12  1  0
 12 13  1  0
 13 14  2  0
 14 15  1  0
 15 16  2  0
 16 17  1  0
 17 18  2  0
 18 19  1  0
 19 20  2  0
 19 21  1  0
  2 22  1  0
 22 23  2  0
 23 24  1  0
 24 25  2  0
 25 26  1  0
 26 27  2  0
 27 28  1  0
 28 29  2  0
 29 30  1  0
  9  4  1  0
 18 13  1  0
 30 22  1  0
 29 24  1  0
  3 31  1  0
  5 32  1  0
  6 33  1  0
  7 34  1  0
  8 35  1  0
 14 36  1  0
 15 37  1  0
 16 38  1  0
 17 39  1  0
 23 40  1  0
 25 41  1  0
 26 42  1  0
 27 43  1  0
 28 44  1  0
 30 45  1  0
M  CHG  2  12  -1  21  -1
M  END
>  <UniqueID>  (56) 
54

>  <SMILES>  (56) 
O=C(Nc1ccccc1C(=O)[N-]c1ccccc1C(=O)[O-])c1cc2ccccc2[nH]1

>  <Energy>  (56) 
97.420192464867

>  <Genealogy>  (56) 
O=C(Nc1ccccc1C(=O)[N-]c1ccccc1C(=O)[O-])c1cc2ccccc2[nH]1 (protonated)
O=C(Nc1ccccc1C(=O)[N-]c1ccccc1C(=O)[O-])c1cc2ccccc2[nH]1 (3D coordinates assigned)
O=C(Nc1ccccc1C(=O)[N-]c1ccccc1C(=O)[O-])c1cc2ccccc2[nH]1 (optimized conformer: 97.420192464867 kcal/mol)

>  <smiles>  (56) 
O=C(Nc1ccccc1C(=O)Nc1ccccc1C(=O)O)c1cc2ccccc2[nH]1

>  <score_type>  (56) 
oracle

>  <origin>  (56) 
adg

>  <m_score__min__energy>  (56) 
-13.76

>  <m_primary>  (56) 
energy

$$$$
56:0
     RDKit          3D

 43 44  0  0  0  0  0  0  0  0999 V2000
   50.5420   33.7540   51.6070 H   0  0  0  0  0  0  0  0  0  0  0  0
   51.1610   33.2090   52.1960 O   0  0  0  0  0  0  0  0  0  0  0  0
   51.7610   32.0380   51.7340 C   0  0  0  0  0  0  0  0  0  0  0  0
   52.6680   31.3380   52.5400 C   0  0  0  0  0  0  0  0  0  0  0  0
   52.8900   31.6996   53.5549 H   0  0  0  0  0  0  0  0  0  0  0  0
   53.2960   30.1760   52.0590 C   0  0  0  0  0  0  0  0  0  0  0  0
   54.2630   29.4300   52.8890 C   0  0  0  0  0  0  0  0  0  0  0  0
   54.1185   28.3433   52.9800 H   0  0  0  0  0  0  0  0  0  0  0  0
   55.3050   29.9710   53.5420 C   0  0  0  0  0  0  0  0  0  0  0  0
   55.1050   30.4027   54.5338 H   0  0  0  0  0  0  0  0  0  0  0  0
   56.6960   30.0380   53.0470 C   0  0  0  0  0  0  0  0  0  0  0  0
   57.6320   30.1800   53.8770 O   0  0  0  0  0  0  0  0  0  0  0  0
   56.9940   29.8960   51.6560 N   0  0  0  0  0  0  0  0  0  0  0  0
   57.8680   30.8010   50.9230 C   0  0  0  0  0  0  0  0  0  0  0  0
   58.1898   31.6169   51.5868 H   0  0  0  0  0  0  0  0  0  0  0  0
   57.3233   31.2188   50.0635 H   0  0  0  0  0  0  0  0  0  0  0  0
   59.0900   30.0400   50.4260 C   0  0  0  0  0  0  0  0  0  0  0  0
   58.9272   28.9606   50.5613 H   0  0  0  0  0  0  0  0  0  0  0  0
   59.9727   30.3582   51.0002 H   0  0  0  0  0  0  0  0  0  0  0  0
   59.3100   30.3220   49.0130 N   0  0  0  0  0  0  0  0  0  0  0  0
   59.8620   29.3670   48.1010 C   0  0  0  0  0  0  0  0  0  0  0  0
   60.8020   28.6160   48.4730 O   0  0  0  0  0  0  0  0  0  0  0  0
   59.3130   29.1980   46.7390 C   0  0  0  0  0  0  0  0  0  0  0  0
   60.0252   28.9447   45.9399 H   0  0  0  0  0  0  0  0  0  0  0  0
   58.0230   29.3260   46.3900 C   0  0  0  0  0  0  0  0  0  0  0  0
   57.2651   28.9756   47.1061 H   0  0  0  0  0  0  0  0  0  0  0  0
   57.5460   29.9010   45.1190 C   0  0  0  0  0  0  0  0  0  0  0  0
   58.3270   30.8470   44.4340 C   0  0  0  0  0  0  0  0  0  0  0  0
   59.2828   31.1821   44.8633 H   0  0  0  0  0  0  0  0  0  0  0  0
   57.8950   31.3640   43.2100 C   0  0  0  0  0  0  0  0  0  0  0  0
   58.5113   32.1035   42.6776 H   0  0  0  0  0  0  0  0  0  0  0  0
   56.6820   30.9430   42.6620 C   0  0  0  0  0  0  0  0  0  0  0  0
   56.3366   31.3616   41.7052 H   0  0  0  0  0  0  0  0  0  0  0  0
   55.9060   29.9900   43.3280 C   0  0  0  0  0  0  0  0  0  0  0  0
   54.9525   29.6568   42.8924 H   0  0  0  0  0  0  0  0  0  0  0  0
   56.3400   29.4590   44.5480 C   0  0  0  0  0  0  0  0  0  0  0  0
   55.5620   28.5020   45.1930 O   0  0  0  0  0  0  0  0  0  0  0  0
   52.9510   29.6830   50.7920 C   0  0  0  0  0  0  0  0  0  0  0  0
   53.3954   28.7443   50.4294 H   0  0  0  0  0  0  0  0  0  0  0  0
   52.0450   30.3800   49.9890 C   0  0  0  0  0  0  0  0  0  0  0  0
   51.7941   29.9991   48.9880 H   0  0  0  0  0  0  0  0  0  0  0  0
   51.4560   31.5600   50.4530 C   0  0  0  0  0  0  0  0  0  0  0  0
   50.5650   32.2520   49.6430 O   0  0  0  0  0  0  0  0  0  0  0  0
  1  2  1  0
  2  3  1  0
  3  4  2  0
  4  5  1  0
  4  6  1  0
  6  7  1  0
  7  8  1  0
  7  9  2  0
  9 10  1  0
  9 11  1  0
 11 12  2  0
 11 13  1  0
 13 14  1  0
 14 15  1  0
 14 16  1  0
 14 17  1  0
 17 18  1  0
 17 19  1  0
 17 20  1  0
 20 21  1  0
 21 22  2  0
 21 23  1  0
 23 24  1  0
 23 25  2  3
 25 26  1  0
 25 27  1  0
 27 28  2  0
 28 29  1  0
 28 30  1  0
 30 31  1  0
 30 32  2  0
 32 33  1  0
 32 34  1  0
 34 35  1  0
 34 36  2  0
 36 37  1  0
  6 38  2  0
 38 39  1  0
 38 40  1  0
 40 41  1  0
 40 42  2  0
 42 43  1  0
 42  3  1  0
 36 27  1  0
M  CHG  4  13  -1  20  -1  37  -1  43  -1
M  END
>  <UniqueID>  (57) 
55

>  <SMILES>  (57) 
O=C(C=Cc1ccccc1[O-])[N-]CC[N-]C(=O)/C=C\c1ccc([O-])c(O)c1

>  <Energy>  (57) 
46.41598203843296

>  <Genealogy>  (57) 
O=C(C=Cc1ccc([O-])c(O)c1)[N-]CC[N-]C(=O)C=Cc1ccccc1[O-] (protonated)
O=C(C=Cc1ccccc1[O-])[N-]CC[N-]C(=O)/C=C\c1ccc([O-])c(O)c1 (cis-trans isomerization)
O=C(C=Cc1ccccc1[O-])[N-]CC[N-]C(=O)/C=C\c1ccc([O-])c(O)c1 (3D coordinates assigned)
O=C(C=Cc1ccccc1[O-])[N-]CC[N-]C(=O)/C=C\c1ccc([O-])c(O)c1 (optimized conformer: 46.41598203843296 kcal/mol)

>  <smiles>  (57) 
O=C(C=Cc1ccc(O)c(O)c1)NCCNC(=O)C=Cc1ccccc1O

>  <score_type>  (57) 
oracle

>  <origin>  (57) 
adg

>  <m_score__min__energy>  (57) 
-18.260000000000002

>  <m_primary>  (57) 
energy

$$$$
57:0
     RDKit          3D

 36 38  0  0  0  0  0  0  0  0999 V2000
   55.3140   29.0810   52.3360 O   0  0  0  0  0  0  0  0  0  0  0  0
   55.5710   30.3160   52.4100 C   0  0  0  0  0  0  0  0  0  0  0  0
   56.8010   30.7800   53.1280 C   0  0  0  0  0  0  0  0  0  0  0  0
   57.6540   31.6140   52.2120 C   0  0  0  0  0  0  0  0  0  0  0  0
   57.8620   31.2290   50.8800 C   0  0  0  0  0  0  0  0  0  0  0  0
   58.6150   32.0340   50.0220 C   0  0  0  0  0  0  0  0  0  0  0  0
   59.1690   33.2410   50.4770 C   0  0  0  0  0  0  0  0  0  0  0  0
   59.9170   34.1380   49.5130 C   0  0  2  0  0  0  0  0  0  0  0  0
   59.2680   34.1900   48.1030 C   0  0  0  0  0  0  0  0  0  0  0  0
   60.1910   33.5080   47.1300 C   0  0  0  0  0  0  0  0  0  0  0  0
   59.8450   33.2730   45.9430 O   0  0  0  0  0  0  0  0  0  0  0  0
   61.4770   33.1390   47.6050 N   0  0  0  0  0  0  0  0  0  0  0  0
   61.5850   33.5530   49.2600 S   0  0  0  0  0  0  0  0  0  0  0  0
   62.5860   34.6530   49.4760 O   0  0  0  0  0  0  0  0  0  0  0  0
   61.9160   32.3520   50.0980 O   0  0  0  0  0  0  0  0  0  0  0  0
   58.9490   33.6290   51.8100 C   0  0  0  0  0  0  0  0  0  0  0  0
   58.2120   32.8160   52.6730 C   0  0  0  0  0  0  0  0  0  0  0  0
   54.6750   31.2810   51.8440 N   0  0  0  0  0  0  0  0  0  0  0  0
   53.3950   31.3700   52.0620 C   0  0  0  0  0  0  0  0  0  0  0  0
   52.3590   31.2730   51.0060 C   0  0  0  0  0  0  0  0  0  0  0  0
   52.3560   30.3880   49.9930 N   0  0  0  0  0  0  0  0  0  0  0  0
   51.3090   30.7800   49.2330 C   0  0  0  0  0  0  0  0  0  0  0  0
   50.9790   30.1850   48.1740 O   0  0  0  0  0  0  0  0  0  0  0  0
   50.6560   31.8710   49.6880 N   0  0  0  0  0  0  0  0  0  0  0  0
   51.3360   32.1710   50.8070 C   0  0  0  0  0  0  0  0  0  0  0  0
   51.0420   33.2590   51.6220 O   0  0  0  0  0  0  0  0  0  0  0  0
   56.5071   31.3830   53.9998 H   0  0  0  0  0  0  0  0  0  0  0  0
   57.3779   29.9025   53.4554 H   0  0  0  0  0  0  0  0  0  0  0  0
   57.4299   30.2880   50.5086 H   0  0  0  0  0  0  0  0  0  0  0  0
   58.7754   31.7193   48.9803 H   0  0  0  0  0  0  0  0  0  0  0  0
   59.8919   35.1348   49.9774 H   0  0  0  0  0  0  0  0  0  0  0  0
   58.2982   33.6713   48.1211 H   0  0  0  0  0  0  0  0  0  0  0  0
   59.1048   35.2349   47.8003 H   0  0  0  0  0  0  0  0  0  0  0  0
   59.3609   34.5810   52.1761 H   0  0  0  0  0  0  0  0  0  0  0  0
   58.0679   33.1195   53.7204 H   0  0  0  0  0  0  0  0  0  0  0  0
   53.0598   31.5275   53.0978 H   0  0  0  0  0  0  0  0  0  0  0  0
  1  2  2  0
  2  3  1  0
  3  4  1  0
  4  5  2  0
  5  6  1  0
  6  7  2  0
  7  8  1  0
  8  9  1  0
  9 10  1  0
 10 11  2  0
 10 12  1  0
 12 13  1  0
 13 14  2  0
 13 15  2  0
  7 16  1  0
 16 17  2  0
  2 18  1  0
 18 19  2  3
 19 20  1  0
 20 21  1  0
 21 22  1  0
 22 23  2  0
 22 24  1  0
 24 25  1  0
 25 26  1  0
 17  4  1  0
 25 20  2  0
 13  8  1  0
  3 27  1  0
  3 28  1  0
  5 29  1  0
  6 30  1  0
  8 31  1  1
  9 32  1  0
  9 33  1  0
 16 34  1  0
 17 35  1  0
 19 36  1  0
M  CHG  4  12  -1  21  -1  24  -1  26  -1
M  END
>  <UniqueID>  (58) 
56

>  <SMILES>  (58) 
O=C(Cc1ccc([C@@H]2CC(=O)[N-]S2(=O)=O)cc1)N=Cc1[n-]c(=O)[n-]c1[O-]

>  <Energy>  (58) 
82.14514769298067

>  <Genealogy>  (58) 
O=C(Cc1ccc(C2CC(=O)[N-]S2(=O)=O)cc1)N=Cc1[n-]c(=O)[n-]c1[O-] (protonated)
O=C(Cc1ccc([C@@H]2CC(=O)[N-]S2(=O)=O)cc1)N=Cc1[n-]c(=O)[n-]c1[O-] (chirality)
O=C(Cc1ccc([C@@H]2CC(=O)[N-]S2(=O)=O)cc1)N=Cc1[n-]c(=O)[n-]c1[O-] (3D coordinates assigned)
O=C(Cc1ccc([C@@H]2CC(=O)[N-]S2(=O)=O)cc1)N=Cc1[n-]c(=O)[n-]c1[O-] (nonaromatic ring conformer: 82.14514769298067 kcal/mol)

>  <smiles>  (58) 
O=C(Cc1ccc(C2CC(=O)NS2(=O)=O)cc1)N=Cc1[nH]c(=O)[nH]c1O

>  <score_type>  (58) 
oracle

>  <origin>  (58) 
adg

>  <m_score__min__energy>  (58) 
-17.41

>  <m_primary>  (58) 
energy

$$$$
58:0
     RDKit          3D

 17 18  0  0  0  0  0  0  0  0999 V2000
   59.0350   29.6850   45.2910 C   0  0  0  0  0  0  0  0  0  0  0  0
   58.4780   28.5320   45.6470 C   0  0  0  0  0  0  0  0  0  0  0  0
   59.2080   27.4080   46.1500 N   0  0  0  0  0  0  0  0  0  0  0  0
   58.2160   26.4120   46.3940 C   0  0  0  0  0  0  0  0  0  0  0  0
   58.4460   25.1660   46.8800 N   0  0  0  0  0  0  0  0  0  0  0  0
   57.3860   24.3210   47.0600 C   0  0  0  0  0  0  0  0  0  0  0  0
   57.5740   23.1610   47.5100 O   0  0  0  0  0  0  0  0  0  0  0  0
   56.1160   24.7300   46.7530 N   0  0  0  0  0  0  0  0  0  0  0  0
   55.8710   25.9800   46.2640 C   0  0  0  0  0  0  0  0  0  0  0  0
   54.6960   26.3390   45.9870 O   0  0  0  0  0  0  0  0  0  0  0  0
   56.9480   26.8370   46.0820 C   0  0  0  0  0  0  0  0  0  0  0  0
   57.0530   28.2010   45.5920 C   0  0  0  0  0  0  0  0  0  0  0  0
   56.1110   28.9430   45.2050 O   0  0  0  0  0  0  0  0  0  0  0  0
   58.4074   30.5052   44.9123 H   0  0  0  0  0  0  0  0  0  0  0  0
   60.1236   29.8191   45.3750 H   0  0  0  0  0  0  0  0  0  0  0  0
   60.2370   27.3310   46.3050 H   0  0  0  0  0  0  0  0  0  0  0  0
   59.4200   24.8620   47.1110 H   0  0  0  0  0  0  0  0  0  0  0  0
  1  2  2  0
  2  3  1  0
  3  4  1  0
  4  5  1  0
  5  6  1  0
  6  7  2  0
  6  8  1  0
  8  9  1  0
  9 10  2  0
  9 11  1  0
 11 12  1  0
 12 13  2  0
 12  2  1  0
 11  4  2  0
  1 14  1  0
  1 15  1  0
  3 16  1  0
  5 17  1  0
M  CHG  1   8  -1
M  END
>  <UniqueID>  (59) 
57

>  <SMILES>  (59) 
C=C1Nc2[nH]c(=O)[n-]c(=O)c2C1=O

>  <Energy>  (59) 
49.95668396846088

>  <Genealogy>  (59) 
C=C1Nc2[nH]c(=O)[n-]c(=O)c2C1=O (protonated)
C=C1Nc2[nH]c(=O)[n-]c(=O)c2C1=O (3D coordinates assigned)
C=C1Nc2[nH]c(=O)[n-]c(=O)c2C1=O (nonaromatic ring conformer: 49.95668396846088 kcal/mol)

>  <smiles>  (59) 
C=C1Nc2[nH]c(=O)[nH]c(=O)c2C1=O

>  <score_type>  (59) 
oracle

>  <origin>  (59) 
adg

>  <m_score__min__energy>  (59) 
-7.2699999999999996

>  <m_primary>  (59) 
energy

$$$$
59:0
     RDKit          3D

 43 45  0  0  0  0  0  0  0  0999 V2000
   56.4450   29.5290   42.7510 N   0  0  0  0  0  0  0  0  0  0  0  0
   56.4680   29.3380   44.1680 C   0  0  0  0  0  0  0  0  0  0  0  0
   55.4040   29.5140   44.8220 O   0  0  0  0  0  0  0  0  0  0  0  0
   57.7120   28.9560   44.8800 C   0  0  0  0  0  0  0  0  0  0  0  0
   58.8510   28.5770   44.1470 C   0  0  0  0  0  0  0  0  0  0  0  0
   60.0310   28.2220   44.8040 C   0  0  0  0  0  0  0  0  0  0  0  0
   60.0940   28.2480   46.1970 C   0  0  0  0  0  0  0  0  0  0  0  0
   58.9730   28.6330   46.9470 C   0  0  0  0  0  0  0  0  0  0  0  0
   59.0680   28.7020   48.4480 C   0  0  0  0  0  0  0  0  0  0  0  0
   59.2590   30.1010   48.8750 N   0  0  0  0  0  0  0  0  0  0  0  0
   60.6980   30.4220   49.0120 C   0  0  0  0  0  0  0  0  0  0  0  0
   60.9490   31.7330   49.7870 C   0  0  0  0  0  0  0  0  0  0  0  0
   59.7230   32.6650   49.8110 C   0  0  0  0  0  0  0  0  0  0  0  0
   59.5290   33.3230   48.4870 N   0  0  0  0  0  0  0  0  0  0  0  0
   58.4950   32.9820   47.6480 C   0  0  0  0  0  0  0  0  0  0  0  0
   58.3580   33.5780   46.3950 C   0  0  0  0  0  0  0  0  0  0  0  0
   57.0210   33.1280   45.3470 Cl  0  0  0  0  0  0  0  0  0  0  0  0
   59.2990   34.5260   46.0040 C   0  0  0  0  0  0  0  0  0  0  0  0
   59.2130   35.0910   44.8810 O   0  0  0  0  0  0  0  0  0  0  0  0
   60.3170   34.8420   46.8380 N   0  0  0  0  0  0  0  0  0  0  0  0
   60.4450   34.2580   48.0570 C   0  0  0  0  0  0  0  0  0  0  0  0
   61.4230   34.5840   48.7830 O   0  0  0  0  0  0  0  0  0  0  0  0
   58.4700   31.9240   50.3550 C   0  0  0  0  0  0  0  0  0  0  0  0
   58.5180   30.4020   50.1140 C   0  0  0  0  0  0  0  0  0  0  0  0
   57.7860   28.9910   46.2850 C   0  0  0  0  0  0  0  0  0  0  0  0
   55.5420   29.7390   42.2680 H   0  0  0  0  0  0  0  0  0  0  0  0
   57.3210   29.5530   42.1850 H   0  0  0  0  0  0  0  0  0  0  0  0
   58.8120   28.5601   43.0478 H   0  0  0  0  0  0  0  0  0  0  0  0
   60.9138   27.9208   44.2209 H   0  0  0  0  0  0  0  0  0  0  0  0
   61.0257   27.9657   46.7091 H   0  0  0  0  0  0  0  0  0  0  0  0
   58.1409   28.3089   48.8906 H   0  0  0  0  0  0  0  0  0  0  0  0
   59.9250   28.1003   48.7848 H   0  0  0  0  0  0  0  0  0  0  0  0
   61.1923   29.5977   49.5470 H   0  0  0  0  0  0  0  0  0  0  0  0
   61.1050   30.5541   47.9987 H   0  0  0  0  0  0  0  0  0  0  0  0
   61.2175   31.4810   50.8235 H   0  0  0  0  0  0  0  0  0  0  0  0
   61.7587   32.2694   49.2705 H   0  0  0  0  0  0  0  0  0  0  0  0
   59.9030   33.4862   50.5204 H   0  0  0  0  0  0  0  0  0  0  0  0
   57.7635   32.2264   47.9705 H   0  0  0  0  0  0  0  0  0  0  0  0
   58.3981   32.1053   51.4376 H   0  0  0  0  0  0  0  0  0  0  0  0
   57.5958   32.3153   49.8140 H   0  0  0  0  0  0  0  0  0  0  0  0
   59.0200   29.9161   50.9637 H   0  0  0  0  0  0  0  0  0  0  0  0
   57.4898   30.0236   50.0158 H   0  0  0  0  0  0  0  0  0  0  0  0
   56.9075   29.3011   46.8699 H   0  0  0  0  0  0  0  0  0  0  0  0
  1  2  1  0
  2  3  2  0
  2  4  1  0
  4  5  2  0
  5  6  1  0
  6  7  2  0
  7  8  1  0
  8  9  1  0
  9 10  1  0
 10 11  1  0
 11 12  1  0
 12 13  1  0
 13 14  1  0
 14 15  1  0
 15 16  2  0
 16 17  1  0
 16 18  1  0
 18 19  2  0
 18 20  1  0
 20 21  1  0
 21 22  2  0
 13 23  1  0
 23 24  1  0
  8 25  2  0
 25  4  1  0
 24 10  1  0
 21 14  1  0
  1 26  1  0
  1 27  1  0
  5 28  1  0
  6 29  1  0
  7 30  1  0
  9 31  1  0
  9 32  1  0
 11 33  1  0
 11 34  1  0
 12 35  1  0
 12 36  1  0
 13 37  1  0
 15 38  1  0
 23 39  1  0
 23 40  1  0
 24 41  1  0
 24 42  1  0
 25 43  1  0
M  CHG  1  20  -1
M  END
>  <UniqueID>  (60) 
58

>  <SMILES>  (60) 
NC(=O)c1cccc(CN2CCC(n3cc(Cl)c(=O)[n-]c3=O)CC2)c1

>  <Energy>  (60) 
58.66177246516242

>  <Genealogy>  (60) 
NC(=O)c1cccc(CN2CCC(n3cc(Cl)c(=O)[n-]c3=O)CC2)c1 (protonated)
NC(=O)c1cccc(CN2CCC(n3cc(Cl)c(=O)[n-]c3=O)CC2)c1 (3D coordinates assigned)
NC(=O)c1cccc(CN2CCC(n3cc(Cl)c(=O)[n-]c3=O)CC2)c1 (nonaromatic ring conformer: 58.66177246516242 kcal/mol)

>  <smiles>  (60) 
NC(=O)c1cccc(CN2CCC(n3cc(Cl)c(=O)[nH]c3=O)CC2)c1

>  <score_type>  (60) 
oracle

>  <origin>  (60) 
adg

>  <m_score__min__energy>  (60) 
-10.449999999999999

>  <m_primary>  (60) 
energy

$$$$
60:0
     RDKit          3D

 49 51  0  0  0  0  0  0  0  0999 V2000
   63.1920   33.4660   46.8170 C   0  0  0  0  0  0  0  0  0  0  0  0
   62.0430   34.1970   47.2330 O   0  0  0  0  0  0  0  0  0  0  0  0
   60.7570   34.0510   46.6860 C   0  0  0  0  0  0  0  0  0  0  0  0
   60.1190   35.1210   46.0270 C   0  0  0  0  0  0  0  0  0  0  0  0
   58.8510   34.9570   45.4730 C   0  0  0  0  0  0  0  0  0  0  0  0
   58.1930   33.7360   45.5740 C   0  0  0  0  0  0  0  0  0  0  0  0
   58.8060   32.6440   46.2140 C   0  0  0  0  0  0  0  0  0  0  0  0
   58.0840   31.3270   46.4070 C   0  0  0  0  0  0  0  0  0  0  0  0
   57.3300   30.9300   45.2140 N   0  0  0  0  0  0  0  0  0  0  0  0
   57.3200   29.6350   44.5970 C   0  0  0  0  0  0  0  0  0  0  0  0
   56.4720   29.4090   43.6920 O   0  0  0  0  0  0  0  0  0  0  0  0
   58.2060   28.5050   45.0530 C   0  0  0  0  0  0  0  0  0  0  0  0
   57.5900   27.7540   46.2430 C   0  0  0  0  0  0  0  0  0  0  0  0
   57.1830   26.3960   45.8730 N   0  0  0  0  0  0  0  0  0  0  0  0
   55.9130   25.9340   45.7900 C   0  0  0  0  0  0  0  0  0  0  0  0
   54.7760   26.7140   45.9960 O   0  0  0  0  0  0  0  0  0  0  0  0
   55.9050   24.5900   45.4830 C   0  0  0  0  0  0  0  0  0  0  0  0
   57.2200   24.2080   45.3780 C   0  0  0  0  0  0  0  0  0  0  0  0
   57.9840   25.3310   45.6170 C   0  0  0  0  0  0  0  0  0  0  0  0
   59.3780   25.3580   45.6220 O   0  0  0  0  0  0  0  0  0  0  0  0
   57.6540   22.8080   45.0780 C   0  0  0  0  0  0  0  0  0  0  0  0
   56.4990   21.8330   45.1910 C   0  0  0  0  0  0  0  0  0  0  0  0
   55.2010   22.2130   45.2790 C   0  0  0  0  0  0  0  0  0  0  0  0
   54.7460   23.6600   45.3100 C   0  0  0  0  0  0  0  0  0  0  0  0
   60.0950   32.8020   46.7810 C   0  0  0  0  0  0  0  0  0  0  0  0
   60.6760   31.6890   47.4140 O   0  0  0  0  0  0  0  0  0  0  0  0
   60.5570   31.3770   48.8000 C   0  0  0  0  0  0  0  0  0  0  0  0
   63.7435   33.1151   47.7017 H   0  0  0  0  0  0  0  0  0  0  0  0
   62.8779   32.6013   46.2140 H   0  0  0  0  0  0  0  0  0  0  0  0
   63.8422   34.1169   46.2140 H   0  0  0  0  0  0  0  0  0  0  0  0
   60.6264   36.0939   45.9493 H   0  0  0  0  0  0  0  0  0  0  0  0
   58.3681   35.7975   44.9532 H   0  0  0  0  0  0  0  0  0  0  0  0
   57.1844   33.6234   45.1497 H   0  0  0  0  0  0  0  0  0  0  0  0
   58.8251   30.5464   46.6340 H   0  0  0  0  0  0  0  0  0  0  0  0
   57.3686   31.4514   47.2333 H   0  0  0  0  0  0  0  0  0  0  0  0
   58.3457   27.8011   44.2193 H   0  0  0  0  0  0  0  0  0  0  0  0
   59.1697   28.9284   45.3726 H   0  0  0  0  0  0  0  0  0  0  0  0
   58.3335   27.6958   47.0516 H   0  0  0  0  0  0  0  0  0  0  0  0
   56.6951   28.3037   46.5701 H   0  0  0  0  0  0  0  0  0  0  0  0
   59.8950   26.2240   45.6490 H   0  0  0  0  0  0  0  0  0  0  0  0
   58.0555   22.7696   44.0546 H   0  0  0  0  0  0  0  0  0  0  0  0
   58.4222   22.5199   45.8107 H   0  0  0  0  0  0  0  0  0  0  0  0
   56.7270   20.7569   45.2022 H   0  0  0  0  0  0  0  0  0  0  0  0
   54.4332   21.4270   45.3309 H   0  0  0  0  0  0  0  0  0  0  0  0
   54.2355   23.8955   44.3646 H   0  0  0  0  0  0  0  0  0  0  0  0
   54.0644   23.7917   46.1633 H   0  0  0  0  0  0  0  0  0  0  0  0
   60.8857   32.2388   49.3994 H   0  0  0  0  0  0  0  0  0  0  0  0
   59.5076   31.1458   49.0350 H   0  0  0  0  0  0  0  0  0  0  0  0
   61.1859   30.5057   49.0350 H   0  0  0  0  0  0  0  0  0  0  0  0
  1  2  1  0
  2  3  1  0
  3  4  2  0
  4  5  1  0
  5  6  2  0
  6  7  1  0
  7  8  1  0
  8  9  1  0
  9 10  1  0
 10 11  2  0
 10 12  1  0
 12 13  1  0
 13 14  1  0
 14 15  1  0
 15 16  1  0
 15 17  2  0
 17 18  1  0
 18 19  2  0
 19 20  1  0
 18 21  1  0
 21 22  1  0
 22 23  2  0
 23 24  1  0
  7 25  2  0
 25 26  1  0
 26 27  1  0
 25  3  1  0
 19 14  1  0
 24 17  1  0
  1 28  1  0
  1 29  1  0
  1 30  1  0
  4 31  1  0
  5 32  1  0
  6 33  1  0
  8 34  1  0
  8 35  1  0
 12 36  1  0
 12 37  1  0
 13 38  1  0
 13 39  1  0
 20 40  1  0
 21 41  1  0
 21 42  1  0
 22 43  1  0
 23 44  1  0
 24 45  1  0
 24 46  1  0
 27 47  1  0
 27 48  1  0
 27 49  1  0
M  CHG  2   9  -1  16  -1
M  END
>  <UniqueID>  (61) 
59

>  <SMILES>  (61) 
COc1cccc(C[N-]C(=O)CCn2c([O-])c3c(c2O)CC=CC3)c1OC

>  <Energy>  (61) 
78.82339786641185

>  <Genealogy>  (61) 
COc1cccc(C[N-]C(=O)CCn2c([O-])c3c(c2O)CC=CC3)c1OC (protonated)
COc1cccc(C[N-]C(=O)CCn2c([O-])c3c(c2O)CC=CC3)c1OC (3D coordinates assigned)
COc1cccc(C[N-]C(=O)CCn2c([O-])c3c(c2O)CC=CC3)c1OC (nonaromatic ring conformer: 78.82339786641185 kcal/mol)

>  <smiles>  (61) 
COc1cccc(CNC(=O)CCn2c(O)c3c(c2O)CC=CC3)c1OC

>  <score_type>  (61) 
oracle

>  <origin>  (61) 
adg

>  <m_score__min__energy>  (61) 
-12.859999999999999

>  <m_primary>  (61) 
energy

$$$$
61:0
     RDKit          3D

 69 73  0  0  0  0  0  0  0  0999 V2000
   57.7235   28.4172   54.9070 H   0  0  0  0  0  0  0  0  0  0  0  0
   58.5520   28.8290   54.3120 C   0  0  0  0  0  0  0  0  0  0  0  0
   58.4230   31.1570   48.9480 N   0  0  0  0  0  0  0  0  0  0  0  0
   58.7410   32.4810   48.9320 C   0  0  0  0  0  0  0  0  0  0  0  0
   58.5650   33.2060   47.8640 N   0  0  0  0  0  0  0  0  0  0  0  0
   63.2890   29.3350   53.6420 C   0  0  0  0  0  0  0  0  0  0  0  0
   63.5230   28.9700   52.3090 C   0  0  0  0  0  0  0  0  0  0  0  0
   62.8073   28.3172   51.7878 H   0  0  0  0  0  0  0  0  0  0  0  0
   64.6600   29.4300   51.6370 C   0  0  0  0  0  0  0  0  0  0  0  0
   64.8449   29.1231   50.5970 H   0  0  0  0  0  0  0  0  0  0  0  0
   65.5650   30.2820   52.2870 C   0  0  0  0  0  0  0  0  0  0  0  0
   67.0230   30.8460   51.4790 S   0  0  0  0  0  0  0  0  0  0  0  0
   68.1220   30.9650   52.4970 O   0  0  0  0  0  0  0  0  0  0  0  0
   67.4520   29.8620   50.4250 O   0  0  0  0  0  0  0  0  0  0  0  0
   66.7200   32.4140   50.7820 N   0  0  0  0  0  0  0  0  0  0  0  0
   65.5990   32.3910   49.8420 C   0  0  0  0  0  0  0  0  0  0  0  0
   65.9846   32.5390   48.8225 H   0  0  0  0  0  0  0  0  0  0  0  0
   65.0931   31.4184   49.9325 H   0  0  0  0  0  0  0  0  0  0  0  0
   64.5770   33.4970   50.1550 C   0  0  0  0  0  0  0  0  0  0  0  0
   64.6975   33.8122   51.2020 H   0  0  0  0  0  0  0  0  0  0  0  0
   64.7565   34.3426   49.4747 H   0  0  0  0  0  0  0  0  0  0  0  0
   63.1910   33.0130   49.9510 N   0  0  0  0  0  0  0  0  0  0  0  0
   63.1440   31.6420   49.3880 C   0  0  0  0  0  0  0  0  0  0  0  0
   64.0504   31.1024   49.7000 H   0  0  0  0  0  0  0  0  0  0  0  0
   62.2314   31.1589   49.7671 H   0  0  0  0  0  0  0  0  0  0  0  0
   63.0700   31.6320   47.8480 C   0  0  0  0  0  0  0  0  0  0  0  0
   63.6368   30.7704   47.4654 H   0  0  0  0  0  0  0  0  0  0  0  0
   62.0145   31.5609   47.5465 H   0  0  0  0  0  0  0  0  0  0  0  0
   63.6140   32.8180   47.3120 O   0  0  0  0  0  0  0  0  0  0  0  0
   62.7930   33.9230   47.6460 C   0  0  0  0  0  0  0  0  0  0  0  0
   63.3465   34.8487   47.4297 H   0  0  0  0  0  0  0  0  0  0  0  0
   61.8746   33.8431   47.0459 H   0  0  0  0  0  0  0  0  0  0  0  0
   62.3720   33.9370   49.1360 C   0  0  0  0  0  0  0  0  0  0  0  0
   62.4903   34.9575   49.5291 H   0  0  0  0  0  0  0  0  0  0  0  0
   61.3245   33.6068   49.1967 H   0  0  0  0  0  0  0  0  0  0  0  0
   65.3080   30.6890   53.6020 C   0  0  0  0  0  0  0  0  0  0  0  0
   66.0029   31.3753   54.1082 H   0  0  0  0  0  0  0  0  0  0  0  0
   64.1740   30.2280   54.2740 C   0  0  0  0  0  0  0  0  0  0  0  0
   63.9717   30.5643   55.3016 H   0  0  0  0  0  0  0  0  0  0  0  0
   60.6330   29.8230   52.8420 N   0  0  0  0  0  0  0  0  0  0  0  0
   59.3620   30.1030   52.4370 C   0  0  0  0  0  0  0  0  0  0  0  0
   59.1450   30.9320   51.2250 C   0  0  0  0  0  0  0  0  0  0  0  0
   58.6080   30.3800   50.0480 C   0  0  0  0  0  0  0  0  0  0  0  0
   58.3364   29.3145   50.0175 H   0  0  0  0  0  0  0  0  0  0  0  0
   59.8350   28.5910   54.6790 N   0  0  0  0  0  0  0  0  0  0  0  0
   60.8790   29.0860   53.9590 C   0  0  0  0  0  0  0  0  0  0  0  0
   62.1100   28.8440   54.3050 N   0  0  0  0  0  0  0  0  0  0  0  0
   59.4440   33.2930   46.7290 C   0  0  0  0  0  0  0  0  0  0  0  0
   59.9410   34.3950   46.3700 O   0  0  0  0  0  0  0  0  0  0  0  0
   59.7900   32.0520   45.9660 C   0  0  0  0  0  0  0  0  0  0  0  0
   60.2732   32.3319   45.0183 H   0  0  0  0  0  0  0  0  0  0  0  0
   60.4737   31.4392   46.5718 H   0  0  0  0  0  0  0  0  0  0  0  0
   58.5480   31.2540   45.6730 C   0  0  0  0  0  0  0  0  0  0  0  0
   57.5750   31.7560   44.7920 C   0  0  0  0  0  0  0  0  0  0  0  0
   57.7020   32.7530   44.3449 H   0  0  0  0  0  0  0  0  0  0  0  0
   56.4450   30.9910   44.4820 C   0  0  0  0  0  0  0  0  0  0  0  0
   55.6837   31.3896   43.7953 H   0  0  0  0  0  0  0  0  0  0  0  0
   56.2820   29.7220   45.0430 C   0  0  0  0  0  0  0  0  0  0  0  0
   55.1590   28.9620   44.7310 O   0  0  0  0  0  0  0  0  0  0  0  0
   57.2490   29.2140   45.9160 C   0  0  0  0  0  0  0  0  0  0  0  0
   57.1180   28.2163   46.3604 H   0  0  0  0  0  0  0  0  0  0  0  0
   58.3830   29.9730   46.2250 C   0  0  0  0  0  0  0  0  0  0  0  0
   59.1478   29.5652   46.9024 H   0  0  0  0  0  0  0  0  0  0  0  0
   59.2480   33.0790   50.0900 C   0  0  0  0  0  0  0  0  0  0  0  0
   59.4908   34.1518   50.0986 H   0  0  0  0  0  0  0  0  0  0  0  0
   59.4440   32.3040   51.2360 C   0  0  0  0  0  0  0  0  0  0  0  0
   59.8347   32.7713   52.1520 H   0  0  0  0  0  0  0  0  0  0  0  0
   58.2840   29.5960   53.1800 C   0  0  0  0  0  0  0  0  0  0  0  0
   57.2473   29.8004   52.8742 H   0  0  0  0  0  0  0  0  0  0  0  0
  1  2  1  0
  2  3  1  0
  3  4  1  0
  4  5  2  0
  5  6  1  0
  6  7  2  0
  7  8  1  0
  7  9  1  0
  9 10  1  0
  9 11  2  0
 11 12  1  0
 12 13  2  0
 12 14  2  0
 12 15  1  0
 15 16  1  0
 16 17  1  0
 16 18  1  0
 16 19  1  0
 19 20  1  0
 19 21  1  0
 19 22  1  0
 22 23  1  0
 23 24  1  0
 23 25  1  0
 23 26  1  0
 26 27  1  0
 26 28  1  0
 26 29  1  0
 29 30  1  0
 30 31  1  0
 30 32  1  0
 30 33  1  0
 33 34  1  0
 33 35  1  0
 11 36  1  0
 36 37  1  0
 36 38  2  0
 38 39  1  0
  4 40  1  0
 40 41  2  0
 41 42  1  0
 42 43  2  0
 43 44  1  0
 43 45  1  0
 45 46  1  0
 46 47  2  0
 47 48  1  0
 48 49  2  0
 48 50  1  0
 50 51  1  0
 50 52  1  0
 50 53  1  0
 53 54  2  0
 54 55  1  0
 54 56  1  0
 56 57  1  0
 56 58  2  0
 58 59  1  0
 58 60  1  0
 60 61  1  0
 60 62  2  0
 62 63  1  0
 46 64  1  0
 64 65  1  0
 64 66  2  0
 66 67  1  0
 41 68  1  0
 68 69  1  0
 68  2  2  0
 38  6  1  0
 66 42  1  0
 33 22  1  0
 62 53  1  0
M  CHG  4   3  -1  15  -1  45  -1  59  -1
M  END
>  <UniqueID>  (62) 
60

>  <SMILES>  (62) 
O=C(Cc1ccc([O-])cc1)/N=c1/ccc(-c2cc[n-]/c(=N\c3ccc(S(=O)(=O)[N-]CCN4CCOCC4)cc3)n2)c[n-]1

>  <Energy>  (62) 
99.10084363605476

>  <Genealogy>  (62) 
O=C(Cc1ccc([O-])cc1)N=c1ccc(-c2cc[n-]c(=Nc3ccc(S(=O)(=O)[N-]CCN4CCOCC4)cc3)n2)c[n-]1 (protonated)
O=C(Cc1ccc([O-])cc1)/N=c1/ccc(-c2cc[n-]/c(=N\c3ccc(S(=O)(=O)[N-]CCN4CCOCC4)cc3)n2)c[n-]1 (cis-trans isomerization)
O=C(Cc1ccc([O-])cc1)/N=c1/ccc(-c2cc[n-]/c(=N\c3ccc(S(=O)(=O)[N-]CCN4CCOCC4)cc3)n2)c[n-]1 (3D coordinates assigned)
O=C(Cc1ccc([O-])cc1)/N=c1/ccc(-c2cc[n-]/c(=N\c3ccc(S(=O)(=O)[N-]CCN4CCOCC4)cc3)n2)c[n-]1 (nonaromatic ring conformer: 99.10084363605476 kcal/mol)

>  <smiles>  (62) 
O=C(Cc1ccc(O)cc1)N=c1ccc(-c2cc[nH]c(=Nc3ccc(S(=O)(=O)NCCN4CCOCC4)cc3)n2)c[nH]1

>  <score_type>  (62) 
oracle

>  <origin>  (62) 
adg

>  <m_score__min__energy>  (62) 
-17.48

>  <m_primary>  (62) 
energy

$$$$
62:0
     RDKit          3D

 46 48  0  0  0  0  0  0  0  0999 V2000
   56.6750   21.7310   42.6200 C   0  0  0  0  0  0  0  0  0  0  0  0
   56.7820   21.9770   44.1020 C   0  0  0  0  0  0  0  0  0  0  0  0
   57.5020   21.0630   44.8860 C   0  0  0  0  0  0  0  0  0  0  0  0
   57.6160   21.2460   46.2630 C   0  0  0  0  0  0  0  0  0  0  0  0
   57.0330   22.3550   46.8730 C   0  0  0  0  0  0  0  0  0  0  0  0
   56.3230   23.2930   46.1150 C   0  0  0  0  0  0  0  0  0  0  0  0
   55.7760   24.4310   46.7980 N   0  0  0  0  0  0  0  0  0  0  0  0
   55.8300   25.7830   46.3260 C   0  0  0  0  0  0  0  0  0  0  0  0
   54.7620   26.3430   45.9630 O   0  0  0  0  0  0  0  0  0  0  0  0
   57.1000   26.5350   46.2550 C   0  0  0  0  0  0  0  0  0  0  0  0
   57.2030   27.6370   45.3890 C   0  0  0  0  0  0  0  0  0  0  0  0
   58.4110   28.3340   45.2540 C   0  0  0  0  0  0  0  0  0  0  0  0
   58.4750   29.4250   44.3260 N   0  0  0  0  0  0  0  0  0  0  0  0
   57.2820   30.6750   44.1710 S   0  0  0  0  0  0  0  0  0  0  0  0
   57.0060   30.9010   42.7110 O   0  0  0  0  0  0  0  0  0  0  0  0
   56.0130   30.2270   44.8370 O   0  0  0  0  0  0  0  0  0  0  0  0
   57.8550   32.1420   44.9720 C   0  0  0  0  0  0  0  0  0  0  0  0
   57.7520   33.3590   44.2820 C   0  0  0  0  0  0  0  0  0  0  0  0
   58.1880   34.5450   44.8730 C   0  0  0  0  0  0  0  0  0  0  0  0
   58.7270   34.5280   46.1600 C   0  0  0  0  0  0  0  0  0  0  0  0
   58.8410   33.3240   46.8640 C   0  0  0  0  0  0  0  0  0  0  0  0
   59.5230   33.3640   48.4840 Cl  0  0  0  0  0  0  0  0  0  0  0  0
   58.4110   32.1200   46.2710 C   0  0  0  0  0  0  0  0  0  0  0  0
   58.5260   30.9070   46.9520 O   0  0  0  0  0  0  0  0  0  0  0  0
   59.5200   27.9430   46.0250 C   0  0  0  0  0  0  0  0  0  0  0  0
   59.4090   26.8750   46.9180 C   0  0  0  0  0  0  0  0  0  0  0  0
   58.2080   26.1760   47.0450 C   0  0  0  0  0  0  0  0  0  0  0  0
   58.1170   25.1460   47.9730 O   0  0  0  0  0  0  0  0  0  0  0  0
   56.1300   23.0750   44.7250 C   0  0  0  0  0  0  0  0  0  0  0  0
   55.2330   23.9800   43.9120 C   0  0  0  0  0  0  0  0  0  0  0  0
   56.2419   20.7353   42.4439 H   0  0  0  0  0  0  0  0  0  0  0  0
   56.0289   22.4973   42.1668 H   0  0  0  0  0  0  0  0  0  0  0  0
   57.6761   21.7808   42.1668 H   0  0  0  0  0  0  0  0  0  0  0  0
   57.9806   20.1945   44.4098 H   0  0  0  0  0  0  0  0  0  0  0  0
   58.1677   20.5130   46.8699 H   0  0  0  0  0  0  0  0  0  0  0  0
   57.1317   22.4943   47.9597 H   0  0  0  0  0  0  0  0  0  0  0  0
   56.3241   27.9564   44.8098 H   0  0  0  0  0  0  0  0  0  0  0  0
   57.3247   33.3782   43.2685 H   0  0  0  0  0  0  0  0  0  0  0  0
   58.1068   35.4947   44.3239 H   0  0  0  0  0  0  0  0  0  0  0  0
   59.0643   35.4666   46.6239 H   0  0  0  0  0  0  0  0  0  0  0  0
   58.4490   30.0090   46.4940 H   0  0  0  0  0  0  0  0  0  0  0  0
   60.4755   28.4786   45.9247 H   0  0  0  0  0  0  0  0  0  0  0  0
   60.2768   26.5820   47.5272 H   0  0  0  0  0  0  0  0  0  0  0  0
   54.6227   24.5957   44.5891 H   0  0  0  0  0  0  0  0  0  0  0  0
   55.8496   24.6337   43.2776 H   0  0  0  0  0  0  0  0  0  0  0  0
   54.5738   23.3692   43.2776 H   0  0  0  0  0  0  0  0  0  0  0  0
  1  2  1  0
  2  3  2  0
  3  4  1  0
  4  5  2  0
  5  6  1  0
  6  7  1  0
  7  8  1  0
  8  9  2  0
  8 10  1  0
 10 11  2  0
 11 12  1  0
 12 13  1  0
 13 14  1  0
 14 15  2  0
 14 16  2  0
 14 17  1  0
 17 18  2  0
 18 19  1  0
 19 20  2  0
 20 21  1  0
 21 22  1  0
 21 23  2  0
 23 24  1  0
 12 25  2  0
 25 26  1  0
 26 27  2  0
 27 28  1  0
  6 29  2  0
 29 30  1  0
 29  2  1  0
 27 10  1  0
 23 17  1  0
  1 31  1  0
  1 32  1  0
  1 33  1  0
  3 34  1  0
  4 35  1  0
  5 36  1  0
 11 37  1  0
 18 38  1  0
 19 39  1  0
 20 40  1  0
 24 41  1  0
 25 42  1  0
 26 43  1  0
 30 44  1  0
 30 45  1  0
 30 46  1  0
M  CHG  3   7  -1  13  -1  28  -1
M  END
>  <UniqueID>  (63) 
61

>  <SMILES>  (63) 
Cc1cccc([N-]C(=O)c2cc([N-]S(=O)(=O)c3cccc(Cl)c3O)ccc2[O-])c1C

>  <Energy>  (63) 
67.09389506376492

>  <Genealogy>  (63) 
Cc1cccc([N-]C(=O)c2cc([N-]S(=O)(=O)c3cccc(Cl)c3O)ccc2[O-])c1C (protonated)
Cc1cccc([N-]C(=O)c2cc([N-]S(=O)(=O)c3cccc(Cl)c3O)ccc2[O-])c1C (3D coordinates assigned)
Cc1cccc([N-]C(=O)c2cc([N-]S(=O)(=O)c3cccc(Cl)c3O)ccc2[O-])c1C (optimized conformer: 67.09389506376492 kcal/mol)

>  <smiles>  (63) 
Cc1cccc(NC(=O)c2cc(NS(=O)(=O)c3cccc(Cl)c3O)ccc2O)c1C

>  <score_type>  (63) 
oracle

>  <origin>  (63) 
adg

>  <m_score__min__energy>  (63) 
-13.77

>  <m_primary>  (63) 
energy

$$$$
63:0
     RDKit          3D

 48 51  0  0  0  0  0  0  0  0999 V2000
   55.9130   27.3240   45.6110 O   0  0  0  0  0  0  0  0  0  0  0  0
   56.5850   28.3700   45.4050 C   0  0  0  0  0  0  0  0  0  0  0  0
   55.9490   29.4710   44.7380 N   0  0  0  0  0  0  0  0  0  0  0  0
   56.6020   30.5770   44.0930 C   0  0  0  0  0  0  0  0  0  0  0  0
   56.7440   30.5570   42.7010 C   0  0  0  0  0  0  0  0  0  0  0  0
   57.3710   31.6180   42.0410 C   0  0  0  0  0  0  0  0  0  0  0  0
   57.8750   32.6970   42.7680 C   0  0  0  0  0  0  0  0  0  0  0  0
   57.7790   32.7170   44.1640 C   0  0  0  0  0  0  0  0  0  0  0  0
   58.2760   33.8320   44.8580 O   0  0  0  0  0  0  0  0  0  0  0  0
   59.0590   33.7810   46.0200 C   0  0  0  0  0  0  0  0  0  0  0  0
   58.8850   34.6850   47.0770 C   0  0  0  0  0  0  0  0  0  0  0  0
   59.6990   34.6020   48.2080 C   0  0  0  0  0  0  0  0  0  0  0  0
   60.6810   33.6020   48.2820 C   0  0  0  0  0  0  0  0  0  0  0  0
   61.5630   33.4830   49.4650 C   0  0  0  0  0  0  0  0  0  0  0  0
   62.6830   34.0610   49.4690 O   0  0  0  0  0  0  0  0  0  0  0  0
   61.1480   32.7820   50.6450 N   0  0  0  0  0  0  0  0  0  0  0  0
   59.7940   32.4750   51.0060 C   0  0  0  0  0  0  0  0  0  0  0  0
   59.1520   31.3170   50.5280 C   0  0  0  0  0  0  0  0  0  0  0  0
   57.8320   31.0430   50.9000 C   0  0  0  0  0  0  0  0  0  0  0  0
   57.1510   31.9110   51.7580 C   0  0  0  0  0  0  0  0  0  0  0  0
   57.7930   33.0470   52.2560 C   0  0  0  0  0  0  0  0  0  0  0  0
   59.1150   33.3220   51.8910 C   0  0  0  0  0  0  0  0  0  0  0  0
   60.8010   32.7120   47.2590 N   0  0  0  0  0  0  0  0  0  0  0  0
   60.0200   32.7750   46.1490 C   0  0  0  0  0  0  0  0  0  0  0  0
   57.1440   31.6490   44.8240 C   0  0  0  0  0  0  0  0  0  0  0  0
   57.9780   28.4440   45.9000 C   0  0  0  0  0  0  0  0  0  0  0  0
   58.3160   29.3420   46.9270 C   0  0  0  0  0  0  0  0  0  0  0  0
   59.6240   29.3950   47.4190 C   0  0  0  0  0  0  0  0  0  0  0  0
   60.6090   28.5650   46.8800 C   0  0  0  0  0  0  0  0  0  0  0  0
   60.2890   27.6840   45.8450 C   0  0  0  0  0  0  0  0  0  0  0  0
   58.9810   27.6240   45.3520 C   0  0  0  0  0  0  0  0  0  0  0  0
   56.3606   29.7028   42.1236 H   0  0  0  0  0  0  0  0  0  0  0  0
   57.4673   31.6021   40.9453 H   0  0  0  0  0  0  0  0  0  0  0  0
   58.3507   33.5370   42.2407 H   0  0  0  0  0  0  0  0  0  0  0  0
   58.1068   35.4600   47.0153 H   0  0  0  0  0  0  0  0  0  0  0  0
   59.5717   35.3154   49.0355 H   0  0  0  0  0  0  0  0  0  0  0  0
   59.6893   30.6267   49.8610 H   0  0  0  0  0  0  0  0  0  0  0  0
   57.3290   30.1430   50.5167 H   0  0  0  0  0  0  0  0  0  0  0  0
   56.1093   31.6994   52.0411 H   0  0  0  0  0  0  0  0  0  0  0  0
   57.2583   33.7263   52.9362 H   0  0  0  0  0  0  0  0  0  0  0  0
   59.6235   34.2072   52.3007 H   0  0  0  0  0  0  0  0  0  0  0  0
   60.1448   32.0309   45.3485 H   0  0  0  0  0  0  0  0  0  0  0  0
   57.0709   31.6526   45.9216 H   0  0  0  0  0  0  0  0  0  0  0  0
   57.5469   30.0073   47.3464 H   0  0  0  0  0  0  0  0  0  0  0  0
   59.8772   30.0916   48.2318 H   0  0  0  0  0  0  0  0  0  0  0  0
   61.6366   28.6051   47.2705 H   0  0  0  0  0  0  0  0  0  0  0  0
   61.0672   27.0355   45.4162 H   0  0  0  0  0  0  0  0  0  0  0  0
   58.7359   26.9326   44.5323 H   0  0  0  0  0  0  0  0  0  0  0  0
  1  2  2  0
  2  3  1  0
  3  4  1  0
  4  5  2  0
  5  6  1  0
  6  7  2  0
  7  8  1  0
  8  9  1  0
  9 10  1  0
 10 11  2  0
 11 12  1  0
 12 13  2  0
 13 14  1  0
 14 15  2  0
 14 16  1  0
 16 17  1  0
 17 18  2  0
 18 19  1  0
 19 20  2  0
 20 21  1  0
 21 22  2  0
 13 23  1  0
 23 24  2  0
  8 25  2  0
  2 26  1  0
 26 27  2  0
 27 28  1  0
 28 29  2  0
 29 30  1  0
 30 31  2  0
 25  4  1  0
 31 26  1  0
 24 10  1  0
 22 17  1  0
  5 32  1  0
  6 33  1  0
  7 34  1  0
 11 35  1  0
 12 36  1  0
 18 37  1  0
 19 38  1  0
 20 39  1  0
 21 40  1  0
 22 41  1  0
 24 42  1  0
 25 43  1  0
 27 44  1  0
 28 45  1  0
 29 46  1  0
 30 47  1  0
 31 48  1  0
M  CHG  2   3  -1  16  -1
M  END
>  <UniqueID>  (64) 
62

>  <SMILES>  (64) 
O=C([N-]c1cccc(Oc2ccc(C(=O)[N-]c3ccccc3)nc2)c1)c1ccccc1

>  <Energy>  (64) 
70.8005301186152

>  <Genealogy>  (64) 
O=C([N-]c1cccc(Oc2ccc(C(=O)[N-]c3ccccc3)nc2)c1)c1ccccc1 (protonated)
O=C([N-]c1cccc(Oc2ccc(C(=O)[N-]c3ccccc3)nc2)c1)c1ccccc1 (3D coordinates assigned)
O=C([N-]c1cccc(Oc2ccc(C(=O)[N-]c3ccccc3)nc2)c1)c1ccccc1 (optimized conformer: 70.8005301186152 kcal/mol)

>  <smiles>  (64) 
O=C(Nc1cccc(Oc2ccc(C(=O)Nc3ccccc3)nc2)c1)c1ccccc1

>  <score_type>  (64) 
oracle

>  <origin>  (64) 
adg

>  <m_score__min__energy>  (64) 
-12.199999999999999

>  <m_primary>  (64) 
energy

$$$$
64:0
     RDKit          3D

 71 75  0  0  0  0  0  0  0  0999 V2000
   60.4851   31.9809   46.2700 H   0  0  0  0  0  0  0  0  0  0  0  0
   59.4450   32.2160   46.0000 C   0  0  0  0  0  0  0  0  0  0  0  0
   58.6470   31.3480   45.3250 N   0  0  0  0  0  0  0  0  0  0  0  0
   57.4190   31.8720   45.1050 C   0  0  0  0  0  0  0  0  0  0  0  0
   56.4400   31.2380   44.5300 N   0  0  0  0  0  0  0  0  0  0  0  0
   56.2770   29.8170   44.4000 C   0  0  0  0  0  0  0  0  0  0  0  0
   55.2350   29.2870   44.8750 O   0  0  0  0  0  0  0  0  0  0  0  0
   57.2010   28.9690   43.5670 C   0  0  0  0  0  0  0  0  0  0  0  0
   56.6070   28.3442   42.8837 H   0  0  0  0  0  0  0  0  0  0  0  0
   57.8686   29.6218   42.9855 H   0  0  0  0  0  0  0  0  0  0  0  0
   58.0260   28.0850   44.4630 C   0  0  0  0  0  0  0  0  0  0  0  0
   59.3420   28.4380   44.8040 C   0  0  0  0  0  0  0  0  0  0  0  0
   59.7608   29.3926   44.4528 H   0  0  0  0  0  0  0  0  0  0  0  0
   60.1230   27.5820   45.5880 C   0  0  0  0  0  0  0  0  0  0  0  0
   61.1472   27.8721   45.8653 H   0  0  0  0  0  0  0  0  0  0  0  0
   59.6030   26.3590   46.0190 C   0  0  0  0  0  0  0  0  0  0  0  0
   60.2225   25.6817   46.6252 H   0  0  0  0  0  0  0  0  0  0  0  0
   58.2930   25.9940   45.6800 C   0  0  0  0  0  0  0  0  0  0  0  0
   57.7500   24.6980   46.1120 C   0  0  0  0  0  0  0  0  0  0  0  0
   57.7240   24.4460   47.3480 O   0  0  0  0  0  0  0  0  0  0  0  0
   57.2760   23.7200   45.1610 N   0  0  0  0  0  0  0  0  0  0  0  0
   57.1690   22.3110   45.5550 C   0  0  0  0  0  0  0  0  0  0  0  0
   58.1241   21.8026   45.3567 H   0  0  0  0  0  0  0  0  0  0  0  0
   56.9332   22.2501   46.6277 H   0  0  0  0  0  0  0  0  0  0  0  0
   56.0560   21.6330   44.7530 C   0  0  0  0  0  0  0  0  0  0  0  0
   56.0557   20.5554   44.9738 H   0  0  0  0  0  0  0  0  0  0  0  0
   55.0911   22.0785   45.0367 H   0  0  0  0  0  0  0  0  0  0  0  0
   56.2580   21.8240   43.3660 O   0  0  0  0  0  0  0  0  0  0  0  0
   56.1170   23.1980   43.0520 C   0  0  0  0  0  0  0  0  0  0  0  0
   56.1856   23.3265   41.9617 H   0  0  0  0  0  0  0  0  0  0  0  0
   55.1396   23.5427   43.4205 H   0  0  0  0  0  0  0  0  0  0  0  0
   57.2140   24.0320   43.7250 C   0  0  0  0  0  0  0  0  0  0  0  0
   58.1838   23.8008   43.2601 H   0  0  0  0  0  0  0  0  0  0  0  0
   56.9836   25.1001   43.5980 H   0  0  0  0  0  0  0  0  0  0  0  0
   57.5050   26.8590   44.9090 C   0  0  0  0  0  0  0  0  0  0  0  0
   56.4734   26.5766   44.6518 H   0  0  0  0  0  0  0  0  0  0  0  0
   57.2630   33.4210   45.7390 S   0  0  0  0  0  0  0  0  0  0  0  0
   58.8410   33.4230   46.3210 C   0  0  0  0  0  0  0  0  0  0  0  0
   59.6090   34.7860   47.1920 S   0  0  0  0  0  0  0  0  0  0  0  0
   61.1250   33.8730   47.4760 C   0  0  0  0  0  0  0  0  0  0  0  0
   62.1230   33.8560   46.4960 C   0  0  0  0  0  0  0  0  0  0  0  0
   61.9648   34.3778   45.5406 H   0  0  0  0  0  0  0  0  0  0  0  0
   63.3210   33.1760   46.7310 C   0  0  0  0  0  0  0  0  0  0  0  0
   64.1082   33.1705   45.9627 H   0  0  0  0  0  0  0  0  0  0  0  0
   63.5220   32.5030   47.9390 C   0  0  0  0  0  0  0  0  0  0  0  0
   64.4741   31.9848   48.1259 H   0  0  0  0  0  0  0  0  0  0  0  0
   62.5160   32.4860   48.9120 C   0  0  0  0  0  0  0  0  0  0  0  0
   62.7520   31.8040   50.1490 N   0  0  0  0  0  0  0  0  0  0  0  0
   61.8210   31.7020   51.2340 C   0  0  0  0  0  0  0  0  0  0  0  0
   61.9810   32.4380   52.2450 O   0  0  0  0  0  0  0  0  0  0  0  0
   60.7310   30.6510   51.2470 C   0  0  0  0  0  0  0  0  0  0  0  0
   60.5166   30.3807   52.2915 H   0  0  0  0  0  0  0  0  0  0  0  0
   61.1870   29.3470   50.5470 C   0  0  0  0  0  0  0  0  0  0  0  0
   60.8428   28.4854   51.1380 H   0  0  0  0  0  0  0  0  0  0  0  0
   62.2846   29.3608   50.4751 H   0  0  0  0  0  0  0  0  0  0  0  0
   60.6150   29.2380   49.1290 C   0  0  0  0  0  0  0  0  0  0  0  0
   60.9839   28.3112   48.6655 H   0  0  0  0  0  0  0  0  0  0  0  0
   60.9411   30.1196   48.5577 H   0  0  0  0  0  0  0  0  0  0  0  0
   59.1330   29.2140   49.1390 N   0  0  0  0  0  0  0  0  0  0  0  0
   58.6120   29.5150   47.7960 C   0  0  0  0  0  0  0  0  0  0  0  0
   57.6627   30.0635   47.8854 H   0  0  0  0  0  0  0  0  0  0  0  0
   59.3412   30.1310   47.2494 H   0  0  0  0  0  0  0  0  0  0  0  0
   58.4426   28.5756   47.2494 H   0  0  0  0  0  0  0  0  0  0  0  0
   58.5100   30.0890   50.1700 C   0  0  0  0  0  0  0  0  0  0  0  0
   58.2514   29.4731   51.0439 H   0  0  0  0  0  0  0  0  0  0  0  0
   57.6197   30.5508   49.7183 H   0  0  0  0  0  0  0  0  0  0  0  0
   59.4380   31.2240   50.6270 C   0  0  0  0  0  0  0  0  0  0  0  0
   58.9175   31.8367   51.3778 H   0  0  0  0  0  0  0  0  0  0  0  0
   59.7046   31.8380   49.7541 H   0  0  0  0  0  0  0  0  0  0  0  0
   61.3180   33.1860   48.6810 C   0  0  0  0  0  0  0  0  0  0  0  0
   60.5305   33.1938   49.4490 H   0  0  0  0  0  0  0  0  0  0  0  0
  1  2  1  0
  2  3  1  0
  3  4  1  0
  4  5  2  0
  5  6  1  0
  6  7  2  0
  6  8  1  0
  8  9  1  0
  8 10  1  0
  8 11  1  0
 11 12  2  0
 12 13  1  0
 12 14  1  0
 14 15  1  0
 14 16  2  0
 16 17  1  0
 16 18  1  0
 18 19  1  0
 19 20  2  0
 19 21  1  0
 21 22  1  0
 22 23  1  0
 22 24  1  0
 22 25  1  0
 25 26  1  0
 25 27  1  0
 25 28  1  0
 28 29  1  0
 29 30  1  0
 29 31  1  0
 29 32  1  0
 32 33  1  0
 32 34  1  0
 18 35  2  0
 35 36  1  0
  4 37  1  0
 37 38  1  0
 38 39  1  0
 39 40  1  0
 40 41  2  0
 41 42  1  0
 41 43  1  0
 43 44  1  0
 43 45  2  0
 45 46  1  0
 45 47  1  0
 47 48  1  0
 48 49  1  0
 49 50  2  0
 49 51  1  0
 51 52  1  0
 51 53  1  0
 53 54  1  0
 53 55  1  0
 53 56  1  0
 56 57  1  0
 56 58  1  0
 56 59  1  0
 59 60  1  0
 60 61  1  0
 60 62  1  0
 60 63  1  0
 59 64  1  0
 64 65  1  0
 64 66  1  0
 64 67  1  0
 67 68  1  0
 67 69  1  0
 47 70  2  0
 70 71  1  0
 38  2  2  0
 70 40  1  0
 35 11  1  0
 67 51  1  0
 32 21  1  0
M  CHG  2   3  -1  48  -1
M  END
>  <UniqueID>  (65) 
63

>  <SMILES>  (65) 
CN1CCC(C(=O)[N-]c2cccc(Sc3c[n-]/c(=N\C(=O)Cc4cccc(C(=O)N5CCOCC5)c4)s3)c2)CC1

>  <Energy>  (65) 
126.45310903304765

>  <Genealogy>  (65) 
CN1CCC(C(=O)[N-]c2cccc(Sc3c[n-]c(=NC(=O)Cc4cccc(C(=O)N5CCOCC5)c4)s3)c2)CC1 (protonated)
CN1CCC(C(=O)[N-]c2cccc(Sc3c[n-]/c(=N\C(=O)Cc4cccc(C(=O)N5CCOCC5)c4)s3)c2)CC1 (cis-trans isomerization)
CN1CCC(C(=O)[N-]c2cccc(Sc3c[n-]/c(=N\C(=O)Cc4cccc(C(=O)N5CCOCC5)c4)s3)c2)CC1 (3D coordinates assigned)
CN1CCC(C(=O)[N-]c2cccc(Sc3c[n-]/c(=N\C(=O)Cc4cccc(C(=O)N5CCOCC5)c4)s3)c2)CC1 (nonaromatic ring conformer: 126.45310903304765 kcal/mol)

>  <smiles>  (65) 
CN1CCC(C(=O)Nc2cccc(Sc3c[nH]c(=NC(=O)Cc4cccc(C(=O)N5CCOCC5)c4)s3)c2)CC1

>  <score_type>  (65) 
oracle

>  <origin>  (65) 
adg

>  <m_score__min__energy>  (65) 
-13.85

>  <m_primary>  (65) 
energy

$$$$
65:0
     RDKit          3D

 60 63  0  0  0  0  0  0  0  0999 V2000
   60.5490   33.9160   49.7380 C   0  0  0  0  0  0  0  0  0  0  0  0
   59.8870   33.0060   48.7370 C   0  0  0  0  0  0  0  0  0  0  0  0
   59.7940   31.6380   49.0290 C   0  0  0  0  0  0  0  0  0  0  0  0
   59.1620   30.7670   48.1470 C   0  0  0  0  0  0  0  0  0  0  0  0
   58.6120   31.2440   46.9590 C   0  0  0  0  0  0  0  0  0  0  0  0
   58.7030   32.6090   46.6210 C   0  0  0  0  0  0  0  0  0  0  0  0
   59.3640   33.4940   47.5110 C   0  0  0  0  0  0  0  0  0  0  0  0
   59.3930   34.9700   47.1630 C   0  0  0  0  0  0  0  0  0  0  0  0
   59.6610   35.2310   45.6670 C   0  0  0  0  0  0  0  0  0  0  0  0
   59.1710   34.1190   44.7140 C   0  0  0  0  0  0  0  0  0  0  0  0
   58.0980   33.1950   45.3330 C   0  0  2  0  0  0  0  0  0  0  0  0
   56.9720   33.9850   45.6440 O   0  0  0  0  0  0  0  0  0  0  0  0
   57.7040   32.1380   44.2620 C   0  0  0  0  0  0  0  0  0  0  0  0
   56.4170   31.5050   44.5740 N   0  0  0  0  0  0  0  0  0  0  0  0
   56.3110   29.9000   43.9080 S   0  0  0  0  0  0  0  0  0  0  0  0
   54.9480   29.3360   44.1900 O   0  0  0  0  0  0  0  0  0  0  0  0
   56.5070   29.9520   42.4180 O   0  0  0  0  0  0  0  0  0  0  0  0
   57.5290   28.8620   44.6450 C   0  0  0  0  0  0  0  0  0  0  0  0
   58.8890   29.1490   44.4710 C   0  0  0  0  0  0  0  0  0  0  0  0
   59.8590   28.2970   45.0050 C   0  0  0  0  0  0  0  0  0  0  0  0
   59.4760   27.1480   45.7020 C   0  0  0  0  0  0  0  0  0  0  0  0
   58.1170   26.8490   45.8730 C   0  0  0  0  0  0  0  0  0  0  0  0
   57.6120   25.3730   46.6930 S   0  0  0  0  0  0  0  0  0  0  0  0
   58.0040   25.4690   48.1400 O   0  0  0  0  0  0  0  0  0  0  0  0
   58.3050   24.1840   46.0870 O   0  0  0  0  0  0  0  0  0  0  0  0
   55.8870   25.1440   46.5860 N   0  0  0  0  0  0  0  0  0  0  0  0
   55.5210   23.7220   46.6040 C   0  0  0  0  0  0  0  0  0  0  0  0
   55.9500   23.0230   45.3390 C   0  0  0  0  0  0  0  0  0  0  0  0
   56.4540   21.7130   45.3910 C   0  0  0  0  0  0  0  0  0  0  0  0
   56.8830   21.0760   44.2230 C   0  0  0  0  0  0  0  0  0  0  0  0
   56.8030   21.7370   42.9940 C   0  0  0  0  0  0  0  0  0  0  0  0
   56.2930   23.0360   42.9320 C   0  0  0  0  0  0  0  0  0  0  0  0
   55.8650   23.6780   44.0990 C   0  0  0  0  0  0  0  0  0  0  0  0
   57.1470   27.7150   45.3540 C   0  0  0  0  0  0  0  0  0  0  0  0
   60.3047   33.5801   50.7566 H   0  0  0  0  0  0  0  0  0  0  0  0
   61.6392   33.8879   49.5943 H   0  0  0  0  0  0  0  0  0  0  0  0
   60.1866   34.9446   49.5943 H   0  0  0  0  0  0  0  0  0  0  0  0
   60.2245   31.2497   49.9638 H   0  0  0  0  0  0  0  0  0  0  0  0
   59.0962   29.6960   48.3889 H   0  0  0  0  0  0  0  0  0  0  0  0
   58.1013   30.5476   46.2777 H   0  0  0  0  0  0  0  0  0  0  0  0
   58.4208   35.4116   47.4272 H   0  0  0  0  0  0  0  0  0  0  0  0
   60.2185   35.4256   47.7296 H   0  0  0  0  0  0  0  0  0  0  0  0
   59.1556   36.1673   45.3878 H   0  0  0  0  0  0  0  0  0  0  0  0
   60.7542   35.2749   45.5529 H   0  0  0  0  0  0  0  0  0  0  0  0
   58.7449   34.5933   43.8176 H   0  0  0  0  0  0  0  0  0  0  0  0
   60.0421   33.4883   44.4829 H   0  0  0  0  0  0  0  0  0  0  0  0
   56.1710   33.5420   45.2580 H   0  0  0  0  0  0  0  0  0  0  0  0
   57.6300   32.6330   43.2825 H   0  0  0  0  0  0  0  0  0  0  0  0
   58.4776   31.3561   44.2501 H   0  0  0  0  0  0  0  0  0  0  0  0
   59.1937   30.0467   43.9130 H   0  0  0  0  0  0  0  0  0  0  0  0
   60.9261   28.5311   44.8765 H   0  0  0  0  0  0  0  0  0  0  0  0
   60.2422   26.4769   46.1173 H   0  0  0  0  0  0  0  0  0  0  0  0
   56.0098   23.2383   47.4626 H   0  0  0  0  0  0  0  0  0  0  0  0
   54.4263   23.6492   46.6833 H   0  0  0  0  0  0  0  0  0  0  0  0
   56.5114   21.1861   46.3549 H   0  0  0  0  0  0  0  0  0  0  0  0
   57.2842   20.0529   44.2711 H   0  0  0  0  0  0  0  0  0  0  0  0
   57.1415   21.2344   42.0759 H   0  0  0  0  0  0  0  0  0  0  0  0
   56.2278   23.5548   41.9642 H   0  0  0  0  0  0  0  0  0  0  0  0
   55.4604   24.6995   44.0455 H   0  0  0  0  0  0  0  0  0  0  0  0
   56.0798   27.4941   45.5034 H   0  0  0  0  0  0  0  0  0  0  0  0
  1  2  1  0
  2  3  2  0
  3  4  1  0
  4  5  2  0
  5  6  1  0
  6  7  2  0
  7  8  1  0
  8  9  1  0
  9 10  1  0
 10 11  1  0
 11 12  1  1
 11 13  1  0
 13 14  1  0
 14 15  1  0
 15 16  2  0
 15 17  2  0
 15 18  1  0
 18 19  2  0
 19 20  1  0
 20 21  2  0
 21 22  1  0
 22 23  1  0
 23 24  2  0
 23 25  2  0
 23 26  1  0
 26 27  1  0
 27 28  1  0
 28 29  2  0
 29 30  1  0
 30 31  2  0
 31 32  1  0
 32 33  2  0
 22 34  2  0
  7  2  1  0
 34 18  1  0
 11  6  1  0
 33 28  1  0
  1 35  1  0
  1 36  1  0
  1 37  1  0
  3 38  1  0
  4 39  1  0
  5 40  1  0
  8 41  1  0
  8 42  1  0
  9 43  1  0
  9 44  1  0
 10 45  1  0
 10 46  1  0
 12 47  1  0
 13 48  1  0
 13 49  1  0
 19 50  1  0
 20 51  1  0
 21 52  1  0
 27 53  1  0
 27 54  1  0
 29 55  1  0
 30 56  1  0
 31 57  1  0
 32 58  1  0
 33 59  1  0
 34 60  1  0
M  CHG  2  14  -1  26  -1
M  END
>  <UniqueID>  (66) 
64

>  <SMILES>  (66) 
Cc1cccc2c1CCC[C@@]2(O)C[N-]S(=O)(=O)c1cccc(S(=O)(=O)[N-]Cc2ccccc2)c1

>  <Energy>  (66) 
73.91250892378876

>  <Genealogy>  (66) 
Cc1cccc2c1CCCC2(O)C[N-]S(=O)(=O)c1cccc(S(=O)(=O)[N-]Cc2ccccc2)c1 (protonated)
Cc1cccc2c1CCC[C@@]2(O)C[N-]S(=O)(=O)c1cccc(S(=O)(=O)[N-]Cc2ccccc2)c1 (chirality)
Cc1cccc2c1CCC[C@@]2(O)C[N-]S(=O)(=O)c1cccc(S(=O)(=O)[N-]Cc2ccccc2)c1 (3D coordinates assigned)
Cc1cccc2c1CCC[C@@]2(O)C[N-]S(=O)(=O)c1cccc(S(=O)(=O)[N-]Cc2ccccc2)c1 (nonaromatic ring conformer: 73.91250892378876 kcal/mol)

>  <smiles>  (66) 
Cc1cccc2c1CCCC2(O)CNS(=O)(=O)c1cccc(S(=O)(=O)NCc2ccccc2)c1

>  <score_type>  (66) 
oracle

>  <origin>  (66) 
adg

>  <m_score__min__energy>  (66) 
-14.109999999999999

>  <m_primary>  (66) 
energy

$$$$
66:0
     RDKit          3D

 38 40  0  0  0  0  0  0  0  0999 V2000
   59.0870   30.0630   46.5560 H   0  0  0  0  0  0  0  0  0  0  0  0
   59.3430   30.6350   47.3520 O   0  0  0  0  0  0  0  0  0  0  0  0
   60.3610   31.5850   47.2720 C   0  0  0  0  0  0  0  0  0  0  0  0
   61.6870   31.2090   47.5310 C   0  0  0  0  0  0  0  0  0  0  0  0
   61.9182   30.1674   47.7985 H   0  0  0  0  0  0  0  0  0  0  0  0
   62.7150   32.1500   47.4510 C   0  0  0  0  0  0  0  0  0  0  0  0
   63.7531   31.8481   47.6537 H   0  0  0  0  0  0  0  0  0  0  0  0
   62.4270   33.4740   47.1140 C   0  0  0  0  0  0  0  0  0  0  0  0
   63.2378   34.2148   47.0532 H   0  0  0  0  0  0  0  0  0  0  0  0
   61.1090   33.8580   46.8540 C   0  0  0  0  0  0  0  0  0  0  0  0
   60.8880   34.9013   46.5844 H   0  0  0  0  0  0  0  0  0  0  0  0
   60.0640   32.9230   46.9340 C   0  0  0  0  0  0  0  0  0  0  0  0
   58.6560   33.3540   46.6010 C   0  0  0  0  0  0  0  0  0  0  0  0
   58.6129   34.4524   46.5601 H   0  0  0  0  0  0  0  0  0  0  0  0
   57.9739   32.9786   47.3780 H   0  0  0  0  0  0  0  0  0  0  0  0
   58.2470   32.8030   45.2980 N   0  0  0  0  0  0  0  0  0  0  0  0
   57.3860   31.7380   45.2800 C   0  0  0  0  0  0  0  0  0  0  0  0
   57.0119   31.3288   46.2300 H   0  0  0  0  0  0  0  0  0  0  0  0
   56.9730   31.1600   44.0690 C   0  0  0  0  0  0  0  0  0  0  0  0
   56.0470   30.0010   44.0480 C   0  0  0  0  0  0  0  0  0  0  0  0
   55.4110   29.7420   42.9930 O   0  0  0  0  0  0  0  0  0  0  0  0
   55.8930   29.1200   45.1730 N   0  0  0  0  0  0  0  0  0  0  0  0
   56.7380   28.2040   45.5560 C   0  0  0  0  0  0  0  0  0  0  0  0
   58.0810   28.4500   45.5740 N   0  0  0  0  0  0  0  0  0  0  0  0
   58.9790   27.5130   45.9790 C   0  0  0  0  0  0  0  0  0  0  0  0
   60.0544   27.7442   45.9743 H   0  0  0  0  0  0  0  0  0  0  0  0
   58.5370   26.2570   46.4010 C   0  0  0  0  0  0  0  0  0  0  0  0
   59.2589   25.4935   46.7264 H   0  0  0  0  0  0  0  0  0  0  0  0
   57.1690   25.9820   46.4050 C   0  0  0  0  0  0  0  0  0  0  0  0
   56.8062   24.9988   46.7392 H   0  0  0  0  0  0  0  0  0  0  0  0
   56.2600   26.9570   45.9840 C   0  0  0  0  0  0  0  0  0  0  0  0
   54.8970   26.6840   45.9960 O   0  0  0  0  0  0  0  0  0  0  0  0
   57.4920   31.6710   42.8720 C   0  0  0  0  0  0  0  0  0  0  0  0
   57.2015   31.2216   41.9109 H   0  0  0  0  0  0  0  0  0  0  0  0
   58.3750   32.7470   42.8980 C   0  0  0  0  0  0  0  0  0  0  0  0
   58.7780   33.1537   41.9587 H   0  0  0  0  0  0  0  0  0  0  0  0
   58.7470   33.3080   44.1220 C   0  0  0  0  0  0  0  0  0  0  0  0
   59.5470   34.2820   44.1260 O   0  0  0  0  0  0  0  0  0  0  0  0
  1  2  1  0
  2  3  1  0
  3  4  2  0
  4  5  1  0
  4  6  1  0
  6  7  1  0
  6  8  2  0
  8  9  1  0
  8 10  1  0
 10 11  1  0
 10 12  2  0
 12 13  1  0
 13 14  1  0
 13 15  1  0
 13 16  1  0
 16 17  1  0
 17 18  1  0
 17 19  2  0
 19 20  1  0
 20 21  2  0
 20 22  1  0
 22 23  2  0
 23 24  1  0
 24 25  1  0
 25 26  1  0
 25 27  2  0
 27 28  1  0
 27 29  1  0
 29 30  1  0
 29 31  2  0
 31 32  1  0
 19 33  1  0
 33 34  1  0
 33 35  2  0
 35 36  1  0
 35 37  1  0
 37 38  2  0
 12  3  1  0
 37 16  1  0
 31 23  1  0
M  CHG  2  24  -1  32  -1
M  END
>  <UniqueID>  (67) 
65

>  <SMILES>  (67) 
O=C(/N=c1\[n-]cccc1[O-])c1ccc(=O)n(Cc2ccccc2O)c1

>  <Energy>  (67) 
51.82077052456843

>  <Genealogy>  (67) 
O=C(N=c1[n-]cccc1[O-])c1ccc(=O)n(Cc2ccccc2O)c1 (protonated)
O=C(/N=c1\[n-]cccc1[O-])c1ccc(=O)n(Cc2ccccc2O)c1 (cis-trans isomerization)
O=C(/N=c1\[n-]cccc1[O-])c1ccc(=O)n(Cc2ccccc2O)c1 (3D coordinates assigned)
O=C(/N=c1\[n-]cccc1[O-])c1ccc(=O)n(Cc2ccccc2O)c1 (optimized conformer: 51.82077052456843 kcal/mol)

>  <smiles>  (67) 
O=C(N=c1[nH]cccc1O)c1ccc(=O)n(Cc2ccccc2O)c1

>  <score_type>  (67) 
oracle

>  <origin>  (67) 
adg

>  <m_score__min__energy>  (67) 
-12.93

>  <m_primary>  (67) 
energy

$$$$
67:0
     RDKit          3D

 28 29  0  0  0  0  0  0  0  0999 V2000
   52.6601   27.8128   54.5135 H   0  0  0  0  0  0  0  0  0  0  0  0
   52.9310   28.1310   53.4960 C   0  0  0  0  0  0  0  0  0  0  0  0
   51.8330   28.5680   52.6060 C   0  0  0  0  0  0  0  0  0  0  0  0
   51.1960   27.6840   51.9720 O   0  0  0  0  0  0  0  0  0  0  0  0
   51.4130   29.9870   52.4890 C   0  0  0  0  0  0  0  0  0  0  0  0
   51.0220   30.7050   53.6350 C   0  0  0  0  0  0  0  0  0  0  0  0
   51.0102   30.2045   54.6145 H   0  0  0  0  0  0  0  0  0  0  0  0
   50.6490   32.0470   53.5390 C   0  0  0  0  0  0  0  0  0  0  0  0
   50.3537   32.6004   54.4426 H   0  0  0  0  0  0  0  0  0  0  0  0
   50.6500   32.6880   52.2990 C   0  0  0  0  0  0  0  0  0  0  0  0
   50.2800   34.0250   52.2120 O   0  0  0  0  0  0  0  0  0  0  0  0
   51.0240   31.9850   51.1480 C   0  0  0  0  0  0  0  0  0  0  0  0
   51.0230   32.6250   49.9140 O   0  0  0  0  0  0  0  0  0  0  0  0
   51.4020   30.6390   51.2380 C   0  0  0  0  0  0  0  0  0  0  0  0
   51.7890   29.9630   50.0840 O   0  0  0  0  0  0  0  0  0  0  0  0
   54.2320   28.0910   53.1630 C   0  0  0  0  0  0  0  0  0  0  0  0
   54.6782   27.1027   52.9779 H   0  0  0  0  0  0  0  0  0  0  0  0
   55.1110   29.2730   53.0260 C   0  0  0  0  0  0  0  0  0  0  0  0
   54.8420   30.2800   52.0820 C   0  0  0  0  0  0  0  0  0  0  0  0
   53.9658   30.1927   51.4227 H   0  0  0  0  0  0  0  0  0  0  0  0
   55.6830   31.3910   51.9780 C   0  0  0  0  0  0  0  0  0  0  0  0
   55.4572   32.1851   51.2511 H   0  0  0  0  0  0  0  0  0  0  0  0
   56.8110   31.4940   52.7970 C   0  0  0  0  0  0  0  0  0  0  0  0
   57.6450   32.6020   52.6970 O   0  0  0  0  0  0  0  0  0  0  0  0
   57.1030   30.4800   53.7150 C   0  0  0  0  0  0  0  0  0  0  0  0
   57.9955   30.5570   54.3534 H   0  0  0  0  0  0  0  0  0  0  0  0
   56.2610   29.3680   53.8220 C   0  0  0  0  0  0  0  0  0  0  0  0
   56.5023   28.5648   54.5337 H   0  0  0  0  0  0  0  0  0  0  0  0
  1  2  1  0
  2  3  1  0
  3  4  2  0
  3  5  1  0
  5  6  2  0
  6  7  1  0
  6  8  1  0
  8  9  1  0
  8 10  2  0
 10 11  1  0
 10 12  1  0
 12 13  1  0
 12 14  2  0
 14 15  1  0
  2 16  2  0
 16 17  1  0
 16 18  1  0
 18 19  2  0
 19 20  1  0
 19 21  1  0
 21 22  1  0
 21 23  2  0
 23 24  1  0
 23 25  1  0
 25 26  1  0
 25 27  2  0
 27 28  1  0
 14  5  1  0
 27 18  1  0
M  CHG  4  11  -1  13  -1  15  -1  24  -1
M  END
>  <UniqueID>  (68) 
66

>  <SMILES>  (68) 
O=C(/C=C\c1ccc([O-])cc1)c1ccc([O-])c([O-])c1[O-]

>  <Energy>  (68) 
40.82195815653096

>  <Genealogy>  (68) 
O=C(C=Cc1ccc([O-])cc1)c1ccc([O-])c([O-])c1[O-] (protonated)
O=C(/C=C\c1ccc([O-])cc1)c1ccc([O-])c([O-])c1[O-] (cis-trans isomerization)
O=C(/C=C\c1ccc([O-])cc1)c1ccc([O-])c([O-])c1[O-] (3D coordinates assigned)
O=C(/C=C\c1ccc([O-])cc1)c1ccc([O-])c([O-])c1[O-] (optimized conformer: 40.82195815653096 kcal/mol)

>  <smiles>  (68) 
O=C(C=Cc1ccc(O)cc1)c1ccc(O)c(O)c1O

>  <score_type>  (68) 
oracle

>  <origin>  (68) 
adg

>  <m_score__min__energy>  (68) 
-16.859999999999999

>  <m_primary>  (68) 
energy

$$$$
68:0
     RDKit          3D

 43 46  0  0  0  0  0  0  0  0999 V2000
   49.9320   22.4660   46.8670 H   0  0  0  0  0  0  0  0  0  0  0  0
   50.3520   22.4250   45.9480 O   0  0  0  0  0  0  0  0  0  0  0  0
   51.7130   22.6400   45.7240 C   0  0  0  0  0  0  0  0  0  0  0  0
   52.6970   21.8800   46.3880 C   0  0  0  0  0  0  0  0  0  0  0  0
   52.2420   20.4960   47.6330 Br  0  0  0  0  0  0  0  0  0  0  0  0
   54.0530   22.1280   46.1400 C   0  0  0  0  0  0  0  0  0  0  0  0
   54.8192   21.5225   46.6463 H   0  0  0  0  0  0  0  0  0  0  0  0
   54.4420   23.1390   45.2540 C   0  0  0  0  0  0  0  0  0  0  0  0
   55.8760   23.3450   44.9740 C   0  0  0  0  0  0  0  0  0  0  0  0
   56.4803   22.4584   44.7318 H   0  0  0  0  0  0  0  0  0  0  0  0
   56.4970   24.5340   44.9930 C   0  0  0  0  0  0  0  0  0  0  0  0
   57.3820   25.1630   43.5720 S   0  0  0  0  0  0  0  0  0  0  0  0
   57.7760   26.6200   44.5610 C   0  0  0  0  0  0  0  0  0  0  0  0
   58.4680   27.7370   43.9860 N   0  0  0  0  0  0  0  0  0  0  0  0
   58.5260   27.7780   42.9440 H   0  0  0  0  0  0  0  0  0  0  0  0
   58.9830   28.8480   44.7400 C   0  0  0  0  0  0  0  0  0  0  0  0
   58.2160   30.0060   44.9580 C   0  0  0  0  0  0  0  0  0  0  0  0
   57.2047   30.0798   44.5316 H   0  0  0  0  0  0  0  0  0  0  0  0
   58.7300   31.0640   45.7130 C   0  0  0  0  0  0  0  0  0  0  0  0
   58.1252   31.9701   45.8655 H   0  0  0  0  0  0  0  0  0  0  0  0
   60.0140   30.9790   46.2790 C   0  0  0  0  0  0  0  0  0  0  0  0
   60.5600   32.1040   47.0830 C   0  0  0  0  0  0  0  0  0  0  0  0
   59.7300   33.1730   47.4740 C   0  0  0  0  0  0  0  0  0  0  0  0
   58.6691   33.1759   47.1833 H   0  0  0  0  0  0  0  0  0  0  0  0
   60.2460   34.2300   48.2290 C   0  0  0  0  0  0  0  0  0  0  0  0
   59.5902   35.0600   48.5309 H   0  0  0  0  0  0  0  0  0  0  0  0
   61.5920   34.2350   48.6010 C   0  0  0  0  0  0  0  0  0  0  0  0
   61.9959   35.0689   49.1939 H   0  0  0  0  0  0  0  0  0  0  0  0
   62.4250   33.1810   48.2200 C   0  0  0  0  0  0  0  0  0  0  0  0
   63.4845   33.1848   48.5155 H   0  0  0  0  0  0  0  0  0  0  0  0
   61.9160   32.1210   47.4640 C   0  0  0  0  0  0  0  0  0  0  0  0
   62.5783   31.2953   47.1649 H   0  0  0  0  0  0  0  0  0  0  0  0
   60.7690   29.8090   46.0810 C   0  0  0  0  0  0  0  0  0  0  0  0
   61.7723   29.7246   46.5241 H   0  0  0  0  0  0  0  0  0  0  0  0
   60.2530   28.7530   45.3250 C   0  0  0  0  0  0  0  0  0  0  0  0
   60.8491   27.8388   45.1878 H   0  0  0  0  0  0  0  0  0  0  0  0
   57.3380   26.6380   45.7810 N   0  0  0  0  0  0  0  0  0  0  0  0
   56.6260   25.4620   46.1110 C   0  0  0  0  0  0  0  0  0  0  0  0
   56.2110   25.2450   47.2800 O   0  0  0  0  0  0  0  0  0  0  0  0
   53.4600   23.8720   44.5700 C   0  0  0  0  0  0  0  0  0  0  0  0
   53.7582   24.6386   43.8396 H   0  0  0  0  0  0  0  0  0  0  0  0
   52.1040   23.6320   44.8130 C   0  0  0  0  0  0  0  0  0  0  0  0
   50.7940   24.6670   43.8770 Br  0  0  0  0  0  0  0  0  0  0  0  0
  1  2  1  0
  2  3  1  0
  3  4  2  0
  4  5  1  0
  4  6  1  0
  6  7  1  0
  6  8  2  0
  8  9  1  0
  9 10  1  0
  9 11  2  0
 11 12  1  0
 12 13  1  0
 13 14  1  0
 14 15  1  0
 14 16  1  0
 16 17  2  0
 17 18  1  0
 17 19  1  0
 19 20  1  0
 19 21  2  0
 21 22  1  0
 22 23  2  0
 23 24  1  0
 23 25  1  0
 25 26  1  0
 25 27  2  0
 27 28  1  0
 27 29  1  0
 29 30  1  0
 29 31  2  0
 31 32  1  0
 21 33  1  0
 33 34  1  0
 33 35  2  0
 35 36  1  0
 13 37  2  0
 37 38  1  0
 38 39  2  0
  8 40  1  0
 40 41  1  0
 40 42  2  0
 42 43  1  0
 42  3  1  0
 38 11  1  0
 35 16  1  0
 31 22  1  0
M  END
>  <UniqueID>  (69) 
67

>  <SMILES>  (69) 
O=C1N=C(Nc2ccc(-c3ccccc3)cc2)S/C1=C/c1cc(Br)c(O)c(Br)c1

>  <Energy>  (69) 
84.47725238322502

>  <Genealogy>  (69) 
O=C1N=C(Nc2ccc(-c3ccccc3)cc2)S/C1=C/c1cc(Br)c(O)c(Br)c1 (cis-trans isomerization)
O=C1N=C(Nc2ccc(-c3ccccc3)cc2)S/C1=C/c1cc(Br)c(O)c(Br)c1 (3D coordinates assigned)
O=C1N=C(Nc2ccc(-c3ccccc3)cc2)S/C1=C/c1cc(Br)c(O)c(Br)c1 (nonaromatic ring conformer: 84.47725238322502 kcal/mol)

>  <smiles>  (69) 
O=C1N=C(Nc2ccc(-c3ccccc3)cc2)SC1=Cc1cc(Br)c(O)c(Br)c1

>  <score_type>  (69) 
oracle

>  <origin>  (69) 
adg

>  <m_score__min__energy>  (69) 
-8.3900000000000006

>  <m_primary>  (69) 
energy

$$$$
69:0
     RDKit          3D

 45 46  0  0  0  0  0  0  0  0999 V2000
   57.3880   21.0130   42.8030 C   0  0  0  0  0  0  0  0  0  0  0  0
   56.8390   22.1920   43.5410 C   0  0  0  0  0  0  0  0  0  0  0  0
   57.6980   23.1610   44.0650 C   0  0  0  0  0  0  0  0  0  0  0  0
   57.1630   24.2560   44.7450 C   0  0  0  0  0  0  0  0  0  0  0  0
   55.7720   24.3910   44.9040 C   0  0  0  0  0  0  0  0  0  0  0  0
   55.2260   25.5690   45.6340 C   0  0  0  0  0  0  0  0  0  0  0  0
   53.9830   25.7870   45.6300 O   0  0  0  0  0  0  0  0  0  0  0  0
   56.0940   26.4540   46.3520 N   0  0  0  0  0  0  0  0  0  0  0  0
   57.2700   27.0890   45.7670 C   0  0  0  0  0  0  0  0  0  0  0  0
   57.7970   28.1880   46.6900 C   0  0  0  0  0  0  0  0  0  0  0  0
   59.5440   27.9830   46.9920 S   0  0  0  0  0  0  0  0  0  0  0  0
   60.3240   28.7230   45.9420 O   0  0  0  0  0  0  0  0  0  0  0  0
   59.8920   26.5210   46.9380 O   0  0  0  0  0  0  0  0  0  0  0  0
   59.9160   28.6300   48.5630 N   0  0  0  0  0  0  0  0  0  0  0  0
   59.1890   29.8780   48.8060 C   0  0  0  0  0  0  0  0  0  0  0  0
   59.6390   30.9520   47.8130 C   0  0  0  0  0  0  0  0  0  0  0  0
   58.4830   31.6420   47.2400 N   0  0  0  0  0  0  0  0  0  0  0  0
   58.2500   31.8230   45.8290 C   0  0  0  0  0  0  0  0  0  0  0  0
   57.7820   30.7380   45.0690 C   0  0  0  0  0  0  0  0  0  0  0  0
   57.5490   30.8770   43.6970 C   0  0  0  0  0  0  0  0  0  0  0  0
   57.7860   32.1010   43.0660 C   0  0  0  0  0  0  0  0  0  0  0  0
   57.4930   32.2740   41.3450 Cl  0  0  0  0  0  0  0  0  0  0  0  0
   58.2580   33.1860   43.8090 C   0  0  0  0  0  0  0  0  0  0  0  0
   58.4920   33.0520   45.1810 C   0  0  0  0  0  0  0  0  0  0  0  0
   54.9430   23.3840   44.3540 C   0  0  0  0  0  0  0  0  0  0  0  0
   53.6890   23.4410   44.4630 O   0  0  0  0  0  0  0  0  0  0  0  0
   55.4960   22.3300   43.6960 N   0  0  0  0  0  0  0  0  0  0  0  0
   57.7387   20.2599   43.5240 H   0  0  0  0  0  0  0  0  0  0  0  0
   56.6004   20.5768   42.1710 H   0  0  0  0  0  0  0  0  0  0  0  0
   58.2288   21.3350   42.1710 H   0  0  0  0  0  0  0  0  0  0  0  0
   58.7867   23.0618   43.9427 H   0  0  0  0  0  0  0  0  0  0  0  0
   57.8356   25.0208   45.1606 H   0  0  0  0  0  0  0  0  0  0  0  0
   58.0547   26.3324   45.6194 H   0  0  0  0  0  0  0  0  0  0  0  0
   56.9906   27.5371   44.8020 H   0  0  0  0  0  0  0  0  0  0  0  0
   57.6255   29.1670   46.2187 H   0  0  0  0  0  0  0  0  0  0  0  0
   57.2647   28.1253   47.6506 H   0  0  0  0  0  0  0  0  0  0  0  0
   58.1103   29.6999   48.6849 H   0  0  0  0  0  0  0  0  0  0  0  0
   59.3994   30.2233   49.8290 H   0  0  0  0  0  0  0  0  0  0  0  0
   60.2741   31.6831   48.3347 H   0  0  0  0  0  0  0  0  0  0  0  0
   60.2019   30.4694   47.0004 H   0  0  0  0  0  0  0  0  0  0  0  0
   57.7760   32.0200   47.9110 H   0  0  0  0  0  0  0  0  0  0  0  0
   57.5971   29.7700   45.5577 H   0  0  0  0  0  0  0  0  0  0  0  0
   57.1785   30.0212   43.1136 H   0  0  0  0  0  0  0  0  0  0  0  0
   58.4463   34.1494   43.3127 H   0  0  0  0  0  0  0  0  0  0  0  0
   58.8670   33.9100   45.7582 H   0  0  0  0  0  0  0  0  0  0  0  0
  1  2  1  0
  2  3  2  0
  3  4  1  0
  4  5  2  0
  5  6  1  0
  6  7  2  0
  6  8  1  0
  8  9  1  0
  9 10  1  0
 10 11  1  0
 11 12  2  0
 11 13  2  0
 11 14  1  0
 14 15  1  0
 15 16  1  0
 16 17  1  0
 17 18  1  0
 18 19  2  0
 19 20  1  0
 20 21  2  0
 21 22  1  0
 21 23  1  0
 23 24  2  0
  5 25  1  0
 25 26  2  0
 25 27  1  0
 27  2  1  0
 24 18  1  0
  1 28  1  0
  1 29  1  0
  1 30  1  0
  3 31  1  0
  4 32  1  0
  9 33  1  0
  9 34  1  0
 10 35  1  0
 10 36  1  0
 15 37  1  0
 15 38  1  0
 16 39  1  0
 16 40  1  0
 17 41  1  0
 19 42  1  0
 20 43  1  0
 23 44  1  0
 24 45  1  0
M  CHG  3   8  -1  14  -1  27  -1
M  END
>  <UniqueID>  (70) 
68

>  <SMILES>  (70) 
Cc1ccc(C(=O)[N-]CCS(=O)(=O)[N-]CCNc2ccc(Cl)cc2)c(=O)[n-]1

>  <Energy>  (70) 
37.06330160485372

>  <Genealogy>  (70) 
Cc1ccc(C(=O)[N-]CCS(=O)(=O)[N-]CCNc2ccc(Cl)cc2)c(=O)[n-]1 (protonated)
Cc1ccc(C(=O)[N-]CCS(=O)(=O)[N-]CCNc2ccc(Cl)cc2)c(=O)[n-]1 (3D coordinates assigned)
Cc1ccc(C(=O)[N-]CCS(=O)(=O)[N-]CCNc2ccc(Cl)cc2)c(=O)[n-]1 (optimized conformer: 37.06330160485372 kcal/mol)

>  <smiles>  (70) 
Cc1ccc(C(=O)NCCS(=O)(=O)NCCNc2ccc(Cl)cc2)c(=O)[nH]1

>  <score_type>  (70) 
oracle

>  <origin>  (70) 
adg

>  <m_score__min__energy>  (70) 
-13.26

>  <m_primary>  (70) 
energy

$$$$
70:0
     RDKit          3D

 47 50  0  0  0  0  0  0  0  0999 V2000
   56.0162   30.1835   44.7958 H   0  0  0  0  0  0  0  0  0  0  0  0
   56.2530   29.1100   44.7560 C   0  0  0  0  0  0  0  0  0  0  0  0
   55.4437   28.3716   44.6573 H   0  0  0  0  0  0  0  0  0  0  0  0
   57.5300   28.7010   44.8280 C   0  0  0  0  0  0  0  0  0  0  0  0
   58.0110   27.3800   44.7930 C   0  0  0  0  0  0  0  0  0  0  0  0
   57.3790   26.2080   44.5820 C   0  0  0  0  0  0  0  0  0  0  0  0
   57.1779   25.9272   43.5376 H   0  0  0  0  0  0  0  0  0  0  0  0
   56.9340   25.2700   45.6280 C   0  0  0  0  0  0  0  0  0  0  0  0
   55.6410   25.3510   46.1750 C   0  0  0  0  0  0  0  0  0  0  0  0
   54.7610   26.3470   45.7690 O   0  0  0  0  0  0  0  0  0  0  0  0
   55.2430   24.4470   47.1080 N   0  0  0  0  0  0  0  0  0  0  0  0
   56.0690   23.4500   47.5130 C   0  0  0  0  0  0  0  0  0  0  0  0
   55.5630   22.3810   48.6370 S   0  0  0  0  0  0  0  0  0  0  0  0
   57.3120   23.3340   46.9790 N   0  0  0  0  0  0  0  0  0  0  0  0
   57.7580   24.2130   46.0440 C   0  0  0  0  0  0  0  0  0  0  0  0
   58.9140   24.0730   45.5640 O   0  0  0  0  0  0  0  0  0  0  0  0
   59.3780   27.4600   45.0080 C   0  0  0  0  0  0  0  0  0  0  0  0
   60.0811   26.6163   45.0702 H   0  0  0  0  0  0  0  0  0  0  0  0
   59.6890   28.7970   45.1290 C   0  0  0  0  0  0  0  0  0  0  0  0
   61.0710   29.3370   45.3400 C   0  0  0  0  0  0  0  0  0  0  0  0
   61.2731   29.4160   46.4184 H   0  0  0  0  0  0  0  0  0  0  0  0
   61.8040   28.6591   44.8782 H   0  0  0  0  0  0  0  0  0  0  0  0
   61.1502   30.3322   44.8782 H   0  0  0  0  0  0  0  0  0  0  0  0
   58.5750   29.5510   45.0110 N   0  0  0  0  0  0  0  0  0  0  0  0
   58.5250   30.9850   45.1220 C   0  0  0  0  0  0  0  0  0  0  0  0
   58.0840   31.7600   44.0420 C   0  0  0  0  0  0  0  0  0  0  0  0
   57.7884   31.2730   43.1010 H   0  0  0  0  0  0  0  0  0  0  0  0
   58.0190   33.1500   44.1580 C   0  0  0  0  0  0  0  0  0  0  0  0
   57.6763   33.7558   43.3062 H   0  0  0  0  0  0  0  0  0  0  0  0
   58.3880   33.7740   45.3530 C   0  0  0  0  0  0  0  0  0  0  0  0
   58.3334   34.8694   45.4368 H   0  0  0  0  0  0  0  0  0  0  0  0
   58.8290   33.0100   46.4500 C   0  0  0  0  0  0  0  0  0  0  0  0
   59.2160   33.6670   47.7220 C   0  0  0  0  0  0  0  0  0  0  0  0
   58.5190   33.4820   48.7560 O   0  0  0  0  0  0  0  0  0  0  0  0
   60.4300   34.4370   47.7880 N   0  0  0  0  0  0  0  0  0  0  0  0
   61.6580   34.0270   47.9460 C   0  0  0  0  0  0  0  0  0  0  0  0
   62.1880   34.0610   49.2000 N   0  0  0  0  0  0  0  0  0  0  0  0
   63.4550   33.6480   49.4690 C   0  0  0  0  0  0  0  0  0  0  0  0
   63.8433   33.6981   50.4970 H   0  0  0  0  0  0  0  0  0  0  0  0
   64.2620   33.1610   48.4420 C   0  0  0  0  0  0  0  0  0  0  0  0
   65.2913   32.8341   48.6508 H   0  0  0  0  0  0  0  0  0  0  0  0
   63.7500   33.0930   47.1480 C   0  0  0  0  0  0  0  0  0  0  0  0
   64.3734   32.7030   46.3299 H   0  0  0  0  0  0  0  0  0  0  0  0
   62.4450   33.5200   46.8890 C   0  0  0  0  0  0  0  0  0  0  0  0
   62.0342   33.4617   45.8702 H   0  0  0  0  0  0  0  0  0  0  0  0
   58.8910   31.6090   46.3230 C   0  0  0  0  0  0  0  0  0  0  0  0
   59.2295   30.9989   47.1734 H   0  0  0  0  0  0  0  0  0  0  0  0
  1  2  1  0
  2  3  1  0
  2  4  2  0
  4  5  1  0
  5  6  2  0
  6  7  1  0
  6  8  1  0
  8  9  2  0
  9 10  1  0
  9 11  1  0
 11 12  1  0
 12 13  2  0
 12 14  1  0
 14 15  1  0
 15 16  2  0
  5 17  1  0
 17 18  1  0
 17 19  2  0
 19 20  1  0
 20 21  1  0
 20 22  1  0
 20 23  1  0
 19 24  1  0
 24 25  1  0
 25 26  2  0
 26 27  1  0
 26 28  1  0
 28 29  1  0
 28 30  2  0
 30 31  1  0
 30 32  1  0
 32 33  1  0
 33 34  2  0
 33 35  1  0
 35 36  2  3
 36 37  1  0
 37 38  1  0
 38 39  1  0
 38 40  2  0
 40 41  1  0
 40 42  1  0
 42 43  1  0
 42 44  2  0
 44 45  1  0
 32 46  2  0
 46 47  1  0
 24  4  1  0
 46 25  1  0
 15  8  1  0
 44 36  1  0
M  CHG  4  10  -1  11  -1  14  -1  37  -1
M  END
>  <UniqueID>  (71) 
69

>  <SMILES>  (71) 
C=c1/c(=C\c2c([O-])[n-]c(=S)[n-]c2=O)cc(C)n1-c1cccc(C(=O)N=c2cccc[n-]2)c1

>  <Energy>  (71) 
110.09641133845506

>  <Genealogy>  (71) 
C=c1c(=Cc2c([O-])[n-]c(=S)[n-]c2=O)cc(C)n1-c1cccc(C(=O)N=c2cccc[n-]2)c1 (protonated)
C=c1/c(=C\c2c([O-])[n-]c(=S)[n-]c2=O)cc(C)n1-c1cccc(C(=O)N=c2cccc[n-]2)c1 (cis-trans isomerization)
C=c1/c(=C\c2c([O-])[n-]c(=S)[n-]c2=O)cc(C)n1-c1cccc(C(=O)N=c2cccc[n-]2)c1 (3D coordinates assigned)
C=c1/c(=C\c2c([O-])[n-]c(=S)[n-]c2=O)cc(C)n1-c1cccc(C(=O)N=c2cccc[n-]2)c1 (optimized conformer: 110.09641133845506 kcal/mol)

>  <smiles>  (71) 
C=c1c(=Cc2c(O)[nH]c(=S)[nH]c2=O)cc(C)n1-c1cccc(C(=O)N=c2cccc[nH]2)c1

>  <score_type>  (71) 
oracle

>  <origin>  (71) 
adg

>  <m_score__min__energy>  (71) 
-17.760000000000002

>  <m_primary>  (71) 
energy

$$$$
71:0
     RDKit          3D

 29 30  0  0  0  0  0  0  0  0999 V2000
   55.9150   27.2150   45.2470 H   0  0  0  0  0  0  0  0  0  0  0  0
   55.1370   26.7130   45.6580 O   0  0  0  0  0  0  0  0  0  0  0  0
   55.1990   25.3380   45.8650 C   0  0  0  0  0  0  0  0  0  0  0  0
   54.0880   24.5890   45.6360 N   0  0  0  0  0  0  0  0  0  0  0  0
   54.0930   23.2450   45.8140 C   0  0  0  0  0  0  0  0  0  0  0  0
   53.0500   22.5790   45.5940 O   0  0  0  0  0  0  0  0  0  0  0  0
   55.2210   22.6220   46.2280 N   0  0  0  0  0  0  0  0  0  0  0  0
   56.3620   23.3150   46.4740 C   0  0  0  0  0  0  0  0  0  0  0  0
   57.3820   22.6870   46.8640 O   0  0  0  0  0  0  0  0  0  0  0  0
   56.3910   24.7190   46.2990 C   0  0  0  0  0  0  0  0  0  0  0  0
   57.6250   25.5140   46.5600 C   0  0  0  0  0  0  0  0  0  0  0  0
   58.7450   24.9430   46.6580 O   0  0  0  0  0  0  0  0  0  0  0  0
   57.5550   26.9000   46.7000 O   0  0  0  0  0  0  0  0  0  0  0  0
   57.6370   27.7300   45.6040 N   0  0  0  0  0  0  0  0  0  0  0  0
   58.5720   28.6190   45.5180 C   0  0  0  0  0  0  0  0  0  0  0  0
   59.6213   28.2938   45.4608 H   0  0  0  0  0  0  0  0  0  0  0  0
   58.2590   30.0640   45.4950 C   0  0  0  0  0  0  0  0  0  0  0  0
   59.1430   30.9240   46.1690 C   0  0  0  0  0  0  0  0  0  0  0  0
   59.9740   30.5008   46.7523 H   0  0  0  0  0  0  0  0  0  0  0  0
   58.9790   32.3080   46.1070 C   0  0  0  0  0  0  0  0  0  0  0  0
   59.6799   32.9684   46.6386 H   0  0  0  0  0  0  0  0  0  0  0  0
   57.9290   32.8550   45.3730 C   0  0  0  0  0  0  0  0  0  0  0  0
   57.8148   33.9471   45.3074 H   0  0  0  0  0  0  0  0  0  0  0  0
   57.0220   32.0190   44.7210 C   0  0  0  0  0  0  0  0  0  0  0  0
   56.1935   32.4592   44.1467 H   0  0  0  0  0  0  0  0  0  0  0  0
   57.1540   30.6200   44.7890 C   0  0  0  0  0  0  0  0  0  0  0  0
   56.0870   29.7950   44.1780 C   0  0  0  0  0  0  0  0  0  0  0  0
   55.2160   29.2350   44.8940 O   0  0  0  0  0  0  0  0  0  0  0  0
   55.9950   29.6870   42.7950 O   0  0  0  0  0  0  0  0  0  0  0  0
  1  2  1  0
  2  3  1  0
  3  4  1  0
  4  5  1  0
  5  6  2  0
  5  7  1  0
  7  8  1  0
  8  9  2  0
  8 10  1  0
 10 11  1  0
 11 12  2  0
 11 13  1  0
 13 14  1  0
 14 15  2  0
 15 16  1  0
 15 17  1  0
 17 18  2  0
 18 19  1  0
 18 20  1  0
 20 21  1  0
 20 22  2  0
 22 23  1  0
 22 24  1  0
 24 25  1  0
 24 26  2  0
 26 27  1  0
 27 28  2  0
 27 29  1  0
 10  3  2  0
 26 17  1  0
M  CHG  3   4  -1   7  -1  29  -1
M  END
>  <UniqueID>  (72) 
70

>  <SMILES>  (72) 
O=C([O-])c1ccccc1/C=N/OC(=O)c1c(O)[n-]c(=O)[n-]c1=O

>  <Energy>  (72) 
40.45006613905801

>  <Genealogy>  (72) 
O=C([O-])c1ccccc1C=NOC(=O)c1c(O)[n-]c(=O)[n-]c1=O (protonated)
O=C([O-])c1ccccc1/C=N/OC(=O)c1c(O)[n-]c(=O)[n-]c1=O (cis-trans isomerization)
O=C([O-])c1ccccc1/C=N/OC(=O)c1c(O)[n-]c(=O)[n-]c1=O (3D coordinates assigned)
O=C([O-])c1ccccc1/C=N/OC(=O)c1c(O)[n-]c(=O)[n-]c1=O (optimized conformer: 40.45006613905801 kcal/mol)

>  <smiles>  (72) 
O=C(O)c1ccccc1C=NOC(=O)c1c(O)[nH]c(=O)[nH]c1=O

>  <score_type>  (72) 
oracle

>  <origin>  (72) 
adg

>  <m_score__min__energy>  (72) 
-13.31

>  <m_primary>  (72) 
energy

$$$$
72:0
     RDKit          3D

 31 32  0  0  0  0  0  0  0  0999 V2000
   57.4830   33.0570   45.3250 C   0  0  0  0  0  0  0  0  0  0  0  0
   59.0840   32.2260   45.5700 S   0  0  0  0  0  0  0  0  0  0  0  0
   58.3610   30.5850   45.6160 C   0  0  0  0  0  0  0  0  0  0  0  0
   59.1190   29.5000   46.0600 C   0  0  0  0  0  0  0  0  0  0  0  0
   58.5570   28.2210   46.1000 C   0  0  0  0  0  0  0  0  0  0  0  0
   57.2240   28.0050   45.6950 C   0  0  0  0  0  0  0  0  0  0  0  0
   56.6590   26.6300   45.7490 C   0  0  0  0  0  0  0  0  0  0  0  0
   55.4380   26.4640   46.0220 O   0  0  0  0  0  0  0  0  0  0  0  0
   57.4910   25.4840   45.5260 N   0  0  0  0  0  0  0  0  0  0  0  0
   57.0200   24.2400   44.9880 C   0  0  0  0  0  0  0  0  0  0  0  0
   57.0130   24.0900   43.5970 C   0  0  0  0  0  0  0  0  0  0  0  0
   56.6360   22.8790   43.0170 C   0  0  0  0  0  0  0  0  0  0  0  0
   56.2500   21.8100   43.8230 C   0  0  0  0  0  0  0  0  0  0  0  0
   56.2120   21.9510   45.2130 C   0  0  0  0  0  0  0  0  0  0  0  0
   55.7800   20.8760   45.9820 O   0  0  0  0  0  0  0  0  0  0  0  0
   56.5830   23.1740   45.8170 C   0  0  0  0  0  0  0  0  0  0  0  0
   56.4430   23.3470   47.2840 C   0  0  0  0  0  0  0  0  0  0  0  0
   55.5130   24.0510   47.7590 O   0  0  0  0  0  0  0  0  0  0  0  0
   57.3510   22.7550   48.1540 O   0  0  0  0  0  0  0  0  0  0  0  0
   56.4640   29.1150   45.2550 C   0  0  0  0  0  0  0  0  0  0  0  0
   55.1380   28.9730   44.8580 O   0  0  0  0  0  0  0  0  0  0  0  0
   57.0360   30.3920   45.2190 C   0  0  0  0  0  0  0  0  0  0  0  0
   57.0366   33.2887   46.3033 H   0  0  0  0  0  0  0  0  0  0  0  0
   57.6362   33.9894   44.7618 H   0  0  0  0  0  0  0  0  0  0  0  0
   56.8087   32.3951   44.7618 H   0  0  0  0  0  0  0  0  0  0  0  0
   60.1607   29.6520   46.3790 H   0  0  0  0  0  0  0  0  0  0  0  0
   59.1622   27.3725   46.4518 H   0  0  0  0  0  0  0  0  0  0  0  0
   57.3072   24.9339   42.9557 H   0  0  0  0  0  0  0  0  0  0  0  0
   56.6434   22.7677   41.9227 H   0  0  0  0  0  0  0  0  0  0  0  0
   55.9737   20.8499   43.3628 H   0  0  0  0  0  0  0  0  0  0  0  0
   56.4380   31.2491   44.8758 H   0  0  0  0  0  0  0  0  0  0  0  0
  1  2  1  0
  2  3  1  0
  3  4  2  0
  4  5  1  0
  5  6  2  0
  6  7  1  0
  7  8  2  0
  7  9  1  0
  9 10  1  0
 10 11  2  0
 11 12  1  0
 12 13  2  0
 13 14  1  0
 14 15  1  0
 14 16  2  0
 16 17  1  0
 17 18  2  0
 17 19  1  0
  6 20  1  0
 20 21  1  0
 20 22  2  0
 22  3  1  0
 16 10  1  0
  1 23  1  0
  1 24  1  0
  1 25  1  0
  4 26  1  0
  5 27  1  0
 11 28  1  0
 12 29  1  0
 13 30  1  0
 22 31  1  0
M  CHG  4   9  -1  15  -1  19  -1  21  -1
M  END
>  <UniqueID>  (73) 
71

>  <SMILES>  (73) 
CSc1ccc(C(=O)[N-]c2cccc([O-])c2C(=O)[O-])c([O-])c1

>  <Energy>  (73) 
42.12348246601248

>  <Genealogy>  (73) 
CSc1ccc(C(=O)[N-]c2cccc([O-])c2C(=O)[O-])c([O-])c1 (protonated)
CSc1ccc(C(=O)[N-]c2cccc([O-])c2C(=O)[O-])c([O-])c1 (3D coordinates assigned)
CSc1ccc(C(=O)[N-]c2cccc([O-])c2C(=O)[O-])c([O-])c1 (optimized conformer: 42.12348246601248 kcal/mol)

>  <smiles>  (73) 
CSc1ccc(C(=O)Nc2cccc(O)c2C(=O)O)c(O)c1

>  <score_type>  (73) 
oracle

>  <origin>  (73) 
adg

>  <m_score__min__energy>  (73) 
-16.289999999999999

>  <m_primary>  (73) 
energy

$$$$
73:0
     RDKit          3D

 25 26  0  0  0  0  0  0  0  0999 V2000
   59.7785   26.7834   45.9821 H   0  0  0  0  0  0  0  0  0  0  0  0
   58.6820   26.7000   46.0090 C   0  0  0  0  0  0  0  0  0  0  0  0
   57.9110   27.7430   45.6030 N   0  0  0  0  0  0  0  0  0  0  0  0
   56.5490   27.7020   45.6170 C   0  0  0  0  0  0  0  0  0  0  0  0
   55.9090   28.7640   45.2120 N   0  0  0  0  0  0  0  0  0  0  0  0
   56.3330   29.7790   44.2900 C   0  0  0  0  0  0  0  0  0  0  0  0
   56.6210   29.4750   43.1020 O   0  0  0  0  0  0  0  0  0  0  0  0
   56.2630   31.1620   44.6530 N   0  0  0  0  0  0  0  0  0  0  0  0
   57.3540   31.9630   45.1290 C   0  0  0  0  0  0  0  0  0  0  0  0
   57.3890   33.3570   44.9390 C   0  0  0  0  0  0  0  0  0  0  0  0
   56.5731   33.8575   44.3968 H   0  0  0  0  0  0  0  0  0  0  0  0
   58.4590   34.1080   45.4380 C   0  0  0  0  0  0  0  0  0  0  0  0
   58.4893   35.1955   45.2754 H   0  0  0  0  0  0  0  0  0  0  0  0
   59.4900   33.4790   46.1430 C   0  0  0  0  0  0  0  0  0  0  0  0
   60.5520   34.2250   46.6370 O   0  0  0  0  0  0  0  0  0  0  0  0
   59.4460   32.0980   46.3550 C   0  0  0  0  0  0  0  0  0  0  0  0
   60.2535   31.6026   46.9141 H   0  0  0  0  0  0  0  0  0  0  0  0
   58.3780   31.3450   45.8580 C   0  0  0  0  0  0  0  0  0  0  0  0
   58.3417   30.2609   46.0405 H   0  0  0  0  0  0  0  0  0  0  0  0
   55.9100   26.5020   46.0290 C   0  0  0  0  0  0  0  0  0  0  0  0
   54.5340   26.3290   45.9660 O   0  0  0  0  0  0  0  0  0  0  0  0
   56.6940   25.4290   46.4640 C   0  0  0  0  0  0  0  0  0  0  0  0
   56.2111   24.5039   46.8118 H   0  0  0  0  0  0  0  0  0  0  0  0
   58.0840   25.5260   46.4590 C   0  0  0  0  0  0  0  0  0  0  0  0
   58.7017   24.6848   46.8066 H   0  0  0  0  0  0  0  0  0  0  0  0
  1  2  1  0
  2  3  1  0
  3  4  1  0
  4  5  2  0
  5  6  1  0
  6  7  2  0
  6  8  1  0
  8  9  1  0
  9 10  2  0
 10 11  1  0
 10 12  1  0
 12 13  1  0
 12 14  2  0
 14 15  1  0
 14 16  1  0
 16 17  1  0
 16 18  2  0
 18 19  1  0
  4 20  1  0
 20 21  1  0
 20 22  2  0
 22 23  1  0
 22 24  1  0
 24 25  1  0
 24  2  2  0
 18  9  1  0
M  CHG  4   3  -1   8  -1  15  -1  21  -1
M  END
>  <UniqueID>  (74) 
72

>  <SMILES>  (74) 
O=C(/N=c1/[n-]cccc1[O-])[N-]c1ccc([O-])cc1

>  <Energy>  (74) 
41.620179750906566

>  <Genealogy>  (74) 
O=C(N=c1[n-]cccc1[O-])[N-]c1ccc([O-])cc1 (protonated)
O=C(/N=c1/[n-]cccc1[O-])[N-]c1ccc([O-])cc1 (cis-trans isomerization)
O=C(/N=c1/[n-]cccc1[O-])[N-]c1ccc([O-])cc1 (3D coordinates assigned)
O=C(/N=c1/[n-]cccc1[O-])[N-]c1ccc([O-])cc1 (optimized conformer: 41.620179750906566 kcal/mol)

>  <smiles>  (74) 
O=C(N=c1[nH]cccc1O)Nc1ccc(O)cc1

>  <score_type>  (74) 
oracle

>  <origin>  (74) 
adg

>  <m_score__min__energy>  (74) 
-13.33

>  <m_primary>  (74) 
energy

$$$$
74:0
     RDKit          3D

 42 44  0  0  0  0  0  0  0  0999 V2000
   55.9460   25.9910   46.2060 O   0  0  0  0  0  0  0  0  0  0  0  0
   56.5200   27.0930   46.0010 C   0  0  0  0  0  0  0  0  0  0  0  0
   55.8930   28.0400   45.2570 N   0  0  0  0  0  0  0  0  0  0  0  0
   56.4680   29.2470   45.0260 C   0  0  0  0  0  0  0  0  0  0  0  0
   55.6150   30.4720   44.0370 S   0  0  0  0  0  0  0  0  0  0  0  0
   56.9820   30.7060   42.8410 C   0  0  0  0  0  0  0  0  0  0  0  0
   57.6820   32.0500   43.0480 C   0  0  0  0  0  0  0  0  0  0  0  0
   58.4480   32.0470   44.2960 N   0  0  0  0  0  0  0  0  0  0  0  0
   58.1310   33.5040   45.1860 S   0  0  0  0  0  0  0  0  0  0  0  0
   58.8130   34.6580   44.5070 O   0  0  0  0  0  0  0  0  0  0  0  0
   56.6500   33.7730   45.2060 O   0  0  0  0  0  0  0  0  0  0  0  0
   58.7430   33.3610   46.8330 C   0  0  0  0  0  0  0  0  0  0  0  0
   59.4400   34.4220   47.4290 C   0  0  0  0  0  0  0  0  0  0  0  0
   59.9030   34.3060   48.7440 C   0  0  0  0  0  0  0  0  0  0  0  0
   59.6690   33.1330   49.4680 C   0  0  0  0  0  0  0  0  0  0  0  0
   58.9690   32.0760   48.8790 C   0  0  0  0  0  0  0  0  0  0  0  0
   58.5050   32.1900   47.5650 C   0  0  0  0  0  0  0  0  0  0  0  0
   57.6920   29.5260   45.5400 N   0  0  0  0  0  0  0  0  0  0  0  0
   58.3620   28.6210   46.3030 C   0  0  0  0  0  0  0  0  0  0  0  0
   57.7950   27.3500   46.5370 C   0  0  0  0  0  0  0  0  0  0  0  0
   58.4720   26.3330   47.4290 C   0  0  0  0  0  0  0  0  0  0  0  0
   59.9670   26.6140   47.6170 C   0  0  0  0  0  0  0  0  0  0  0  0
   60.1980   28.0880   47.9530 C   0  0  0  0  0  0  0  0  0  0  0  0
   59.7420   28.9750   46.7910 C   0  0  0  0  0  0  0  0  0  0  0  0
   57.7152   29.8967   42.9730 H   0  0  0  0  0  0  0  0  0  0  0  0
   56.5596   30.6889   41.8255 H   0  0  0  0  0  0  0  0  0  0  0  0
   58.3647   32.2353   42.2056 H   0  0  0  0  0  0  0  0  0  0  0  0
   56.9199   32.8414   43.1023 H   0  0  0  0  0  0  0  0  0  0  0  0
   58.0970   31.2620   44.8910 H   0  0  0  0  0  0  0  0  0  0  0  0
   59.6229   35.3466   46.8618 H   0  0  0  0  0  0  0  0  0  0  0  0
   60.4517   35.1384   49.2088 H   0  0  0  0  0  0  0  0  0  0  0  0
   60.0357   33.0419   50.5011 H   0  0  0  0  0  0  0  0  0  0  0  0
   58.7831   31.1541   49.4496 H   0  0  0  0  0  0  0  0  0  0  0  0
   57.9516   31.3582   47.1046 H   0  0  0  0  0  0  0  0  0  0  0  0
   57.9841   26.3492   48.4147 H   0  0  0  0  0  0  0  0  0  0  0  0
   58.3768   25.3501   46.9444 H   0  0  0  0  0  0  0  0  0  0  0  0
   60.3517   25.9912   48.4380 H   0  0  0  0  0  0  0  0  0  0  0  0
   60.4936   26.3762   46.6810 H   0  0  0  0  0  0  0  0  0  0  0  0
   59.6252   28.3487   48.8552 H   0  0  0  0  0  0  0  0  0  0  0  0
   61.2716   28.2514   48.1283 H   0  0  0  0  0  0  0  0  0  0  0  0
   59.7397   30.0226   47.1266 H   0  0  0  0  0  0  0  0  0  0  0  0
   60.4419   28.8194   45.9568 H   0  0  0  0  0  0  0  0  0  0  0  0
  1  2  2  0
  2  3  1  0
  3  4  2  0
  4  5  1  0
  5  6  1  0
  6  7  1  0
  7  8  1  0
  8  9  1  0
  9 10  2  0
  9 11  2  0
  9 12  1  0
 12 13  2  0
 13 14  1  0
 14 15  2  0
 15 16  1  0
 16 17  2  0
  4 18  1  0
 18 19  1  0
 19 20  2  0
 20 21  1  0
 21 22  1  0
 22 23  1  0
 23 24  1  0
 20  2  1  0
 17 12  1  0
 24 19  1  0
  6 25  1  0
  6 26  1  0
  7 27  1  0
  7 28  1  0
  8 29  1  0
 13 30  1  0
 14 31  1  0
 15 32  1  0
 16 33  1  0
 17 34  1  0
 21 35  1  0
 21 36  1  0
 22 37  1  0
 22 38  1  0
 23 39  1  0
 23 40  1  0
 24 41  1  0
 24 42  1  0
M  CHG  1  18  -1
M  END
>  <UniqueID>  (75) 
73

>  <SMILES>  (75) 
O=c1nc(SCCNS(=O)(=O)c2ccccc2)[n-]c2c1CCCC2

>  <Energy>  (75) 
36.998857907776845

>  <Genealogy>  (75) 
O=c1nc(SCCNS(=O)(=O)c2ccccc2)[n-]c2c1CCCC2 (protonated)
O=c1nc(SCCNS(=O)(=O)c2ccccc2)[n-]c2c1CCCC2 (3D coordinates assigned)
O=c1nc(SCCNS(=O)(=O)c2ccccc2)[n-]c2c1CCCC2 (nonaromatic ring conformer: 36.998857907776845 kcal/mol)

>  <smiles>  (75) 
O=c1nc(SCCNS(=O)(=O)c2ccccc2)[nH]c2c1CCCC2

>  <score_type>  (75) 
oracle

>  <origin>  (75) 
adg

>  <m_score__min__energy>  (75) 
-10.82

>  <m_primary>  (75) 
energy

$$$$
75:0
     RDKit          3D

 44 46  0  0  0  0  0  0  0  0999 V2000
   57.8010   32.2150   42.0160 C   0  0  0  0  0  0  0  0  0  0  0  0
   57.6590   31.7980   43.4150 N   0  0  0  0  0  0  0  0  0  0  0  0
   56.9850   30.5610   43.7110 C   0  0  0  0  0  0  0  0  0  0  0  0
   55.7940   30.4030   43.3270 O   0  0  0  0  0  0  0  0  0  0  0  0
   57.6540   29.4900   44.4910 C   0  0  0  0  0  0  0  0  0  0  0  0
   59.0560   29.4380   44.5260 C   0  0  0  0  0  0  0  0  0  0  0  0
   59.7090   28.4460   45.2550 C   0  0  0  0  0  0  0  0  0  0  0  0
   58.9720   27.5050   45.9730 C   0  0  0  0  0  0  0  0  0  0  0  0
   57.5730   27.5450   45.9800 C   0  0  0  0  0  0  0  0  0  0  0  0
   56.8890   26.5470   46.7540 N   0  0  0  0  0  0  0  0  0  0  0  0
   57.2900   24.8650   46.9020 S   0  0  0  0  0  0  0  0  0  0  0  0
   58.3940   24.5260   45.9400 O   0  0  0  0  0  0  0  0  0  0  0  0
   57.7180   24.5760   48.3130 O   0  0  0  0  0  0  0  0  0  0  0  0
   55.8830   23.8720   46.5120 C   0  0  0  0  0  0  0  0  0  0  0  0
   55.9030   22.4930   46.7680 C   0  0  0  0  0  0  0  0  0  0  0  0
   54.7920   21.7040   46.4640 C   0  0  0  0  0  0  0  0  0  0  0  0
   53.6540   22.2830   45.9020 C   0  0  0  0  0  0  0  0  0  0  0  0
   53.6160   23.6580   45.6430 C   0  0  0  0  0  0  0  0  0  0  0  0
   52.1570   24.3360   44.9350 Cl  0  0  0  0  0  0  0  0  0  0  0  0
   54.7340   24.4610   45.9470 C   0  0  0  0  0  0  0  0  0  0  0  0
   54.7240   25.8360   45.7010 O   0  0  0  0  0  0  0  0  0  0  0  0
   56.9080   28.5330   45.2150 C   0  0  0  0  0  0  0  0  0  0  0  0
   55.5200   28.5490   45.1320 O   0  0  0  0  0  0  0  0  0  0  0  0
   57.9870   32.7100   44.4890 C   0  0  0  0  0  0  0  0  0  0  0  0
   57.4330   32.5220   45.7700 C   0  0  0  0  0  0  0  0  0  0  0  0
   57.7490   33.3950   46.8150 C   0  0  0  0  0  0  0  0  0  0  0  0
   58.6210   34.4640   46.5960 C   0  0  0  0  0  0  0  0  0  0  0  0
   59.1790   34.6610   45.3320 C   0  0  0  0  0  0  0  0  0  0  0  0
   58.8680   33.7910   44.2830 C   0  0  0  0  0  0  0  0  0  0  0  0
   58.1554   33.2557   41.9777 H   0  0  0  0  0  0  0  0  0  0  0  0
   58.5273   31.5615   41.5105 H   0  0  0  0  0  0  0  0  0  0  0  0
   56.8269   32.1406   41.5105 H   0  0  0  0  0  0  0  0  0  0  0  0
   59.6439   30.1860   43.9738 H   0  0  0  0  0  0  0  0  0  0  0  0
   60.8082   28.4052   45.2640 H   0  0  0  0  0  0  0  0  0  0  0  0
   59.4962   26.7220   46.5406 H   0  0  0  0  0  0  0  0  0  0  0  0
   56.7980   22.0311   47.2103 H   0  0  0  0  0  0  0  0  0  0  0  0
   54.8140   20.6233   46.6681 H   0  0  0  0  0  0  0  0  0  0  0  0
   52.7827   21.6562   45.6613 H   0  0  0  0  0  0  0  0  0  0  0  0
   55.5190   26.3320   45.3190 H   0  0  0  0  0  0  0  0  0  0  0  0
   56.7463   31.6817   45.9497 H   0  0  0  0  0  0  0  0  0  0  0  0
   57.3101   33.2398   47.8117 H   0  0  0  0  0  0  0  0  0  0  0  0
   58.8678   35.1503   47.4194 H   0  0  0  0  0  0  0  0  0  0  0  0
   59.8655   35.5033   45.1608 H   0  0  0  0  0  0  0  0  0  0  0  0
   59.3137   33.9510   43.2902 H   0  0  0  0  0  0  0  0  0  0  0  0
  1  2  1  0
  2  3  1  0
  3  4  2  0
  3  5  1  0
  5  6  2  0
  6  7  1  0
  7  8  2  0
  8  9  1  0
  9 10  1  0
 10 11  1  0
 11 12  2  0
 11 13  2  0
 11 14  1  0
 14 15  2  0
 15 16  1  0
 16 17  2  0
 17 18  1  0
 18 19  1  0
 18 20  2  0
 20 21  1  0
  9 22  2  0
 22 23  1  0
  2 24  1  0
 24 25  2  0
 25 26  1  0
 26 27  2  0
 27 28  1  0
 28 29  2  0
 22  5  1  0
 29 24  1  0
 20 14  1  0
  1 30  1  0
  1 31  1  0
  1 32  1  0
  6 33  1  0
  7 34  1  0
  8 35  1  0
 15 36  1  0
 16 37  1  0
 17 38  1  0
 21 39  1  0
 25 40  1  0
 26 41  1  0
 27 42  1  0
 28 43  1  0
 29 44  1  0
M  CHG  2  10  -1  23  -1
M  END
>  <UniqueID>  (76) 
74

>  <SMILES>  (76) 
CN(C(=O)c1cccc([N-]S(=O)(=O)c2cccc(Cl)c2O)c1[O-])c1ccccc1

>  <Energy>  (76) 
67.27448572786045

>  <Genealogy>  (76) 
CN(C(=O)c1cccc([N-]S(=O)(=O)c2cccc(Cl)c2O)c1[O-])c1ccccc1 (protonated)
CN(C(=O)c1cccc([N-]S(=O)(=O)c2cccc(Cl)c2O)c1[O-])c1ccccc1 (3D coordinates assigned)
CN(C(=O)c1cccc([N-]S(=O)(=O)c2cccc(Cl)c2O)c1[O-])c1ccccc1 (optimized conformer: 67.27448572786045 kcal/mol)

>  <smiles>  (76) 
CN(C(=O)c1cccc(NS(=O)(=O)c2cccc(Cl)c2O)c1O)c1ccccc1

>  <score_type>  (76) 
oracle

>  <origin>  (76) 
adg

>  <m_score__min__energy>  (76) 
-14.19

>  <m_primary>  (76) 
energy

$$$$
76:0
     RDKit          3D

 46 49  0  0  0  0  0  0  0  0999 V2000
   60.0310   34.2470   49.2340 H   0  0  0  0  0  0  0  0  0  0  0  0
   60.1520   34.6580   48.3150 O   0  0  0  0  0  0  0  0  0  0  0  0
   57.9000   27.5150   44.3600 C   0  0  0  0  0  0  0  0  0  0  0  0
   59.5620   34.9410   45.9940 C   0  0  0  0  0  0  0  0  0  0  0  0
   60.3522   35.7000   45.8964 H   0  0  0  0  0  0  0  0  0  0  0  0
   58.7710   34.6130   44.8900 C   0  0  0  0  0  0  0  0  0  0  0  0
   58.9322   35.1113   43.9227 H   0  0  0  0  0  0  0  0  0  0  0  0
   57.7750   33.6470   45.0280 C   0  0  0  0  0  0  0  0  0  0  0  0
   57.1437   33.3801   44.1676 H   0  0  0  0  0  0  0  0  0  0  0  0
   57.5850   33.0350   46.2280 N   0  0  0  0  0  0  0  0  0  0  0  0
   57.6420   26.3940   45.1370 C   0  0  0  0  0  0  0  0  0  0  0  0
   58.1330   32.7280   48.4610 N   0  0  0  0  0  0  0  0  0  0  0  0
   59.1220   32.0170   49.2230 C   0  0  0  0  0  0  0  0  0  0  0  0
   59.6430   32.5900   50.2160 O   0  0  0  0  0  0  0  0  0  0  0  0
   59.5030   30.6190   48.9070 C   0  0  0  0  0  0  0  0  0  0  0  0
   60.4830   29.9610   49.6680 C   0  0  0  0  0  0  0  0  0  0  0  0
   60.9682   30.4841   50.5053 H   0  0  0  0  0  0  0  0  0  0  0  0
   60.8450   28.6450   49.3670 C   0  0  0  0  0  0  0  0  0  0  0  0
   61.6125   28.1359   49.9685 H   0  0  0  0  0  0  0  0  0  0  0  0
   60.2350   27.9750   48.3050 C   0  0  0  0  0  0  0  0  0  0  0  0
   60.5239   26.9400   48.0698 H   0  0  0  0  0  0  0  0  0  0  0  0
   59.2560   28.6190   47.5390 C   0  0  0  0  0  0  0  0  0  0  0  0
   58.6380   27.9440   46.4320 N   0  0  0  0  0  0  0  0  0  0  0  0
   58.5230   28.4350   45.1780 C   0  0  0  0  0  0  0  0  0  0  0  0
   59.0460   29.7650   44.7270 C   0  0  0  0  0  0  0  0  0  0  0  0
   59.2882   30.3809   45.6057 H   0  0  0  0  0  0  0  0  0  0  0  0
   59.9527   29.6165   44.1221 H   0  0  0  0  0  0  0  0  0  0  0  0
   58.2810   30.2739   44.1221 H   0  0  0  0  0  0  0  0  0  0  0  0
   59.3520   34.3070   47.2230 C   0  0  0  0  0  0  0  0  0  0  0  0
   57.6547   27.6450   43.2956 H   0  0  0  0  0  0  0  0  0  0  0  0
   58.3340   33.3390   47.3280 C   0  0  0  0  0  0  0  0  0  0  0  0
   57.1080   25.2650   44.6320 C   0  0  0  0  0  0  0  0  0  0  0  0
   57.7169   24.7005   43.9105 H   0  0  0  0  0  0  0  0  0  0  0  0
   55.7800   24.7210   44.9620 C   0  0  0  0  0  0  0  0  0  0  0  0
   55.4440   23.4290   44.8020 N   0  0  0  0  0  0  0  0  0  0  0  0
   54.2080   23.3560   45.3480 C   0  0  0  0  0  0  0  0  0  0  0  0
   53.5400   22.2900   45.3770 O   0  0  0  0  0  0  0  0  0  0  0  0
   53.7490   24.5150   45.8720 N   0  0  0  0  0  0  0  0  0  0  0  0
   54.7630   25.3660   45.6340 C   0  0  0  0  0  0  0  0  0  0  0  0
   54.7690   26.6930   46.0470 O   0  0  0  0  0  0  0  0  0  0  0  0
   58.0770   26.7080   46.4360 C   0  0  0  0  0  0  0  0  0  0  0  0
   57.9090   25.9790   47.5520 C   0  0  0  0  0  0  0  0  0  0  0  0
   58.3027   26.3442   48.5120 H   0  0  0  0  0  0  0  0  0  0  0  0
   57.3777   25.0169   47.5057 H   0  0  0  0  0  0  0  0  0  0  0  0
   58.8750   29.9270   47.8570 C   0  0  0  0  0  0  0  0  0  0  0  0
   58.0772   30.4181   47.2805 H   0  0  0  0  0  0  0  0  0  0  0  0
  1  2  1  0
  2  3  1  0
  3  4  2  0
  4  5  1  0
  4  6  1  0
  6  7  1  0
  6  8  2  0
  8  9  1  0
  8 10  1  0
 10 11  1  0
 11 12  2  0
 12 13  1  0
 13 14  2  0
 13 15  1  0
 15 16  2  0
 16 17  1  0
 16 18  1  0
 18 19  1  0
 18 20  2  0
 20 21  1  0
 20 22  1  0
 22 23  1  0
 23 24  1  0
 24 25  1  0
 25 26  1  0
 25 27  1  0
 25 28  1  0
 24 29  2  0
 29 30  1  0
 29 31  1  0
 31 32  2  0
 32 33  1  0
 32 34  1  0
 34 35  1  0
 35 36  1  0
 36 37  2  0
 36 38  1  0
 38 39  1  0
 39 40  1  0
 31 41  1  0
 41 42  2  0
 42 43  1  0
 42 44  1  0
 22 45  2  0
 45 46  1  0
 11  3  1  0
 45 15  1  0
 41 23  1  0
 39 34  2  0
M  CHG  4  10  -1  35  -1  38  -1  40  -1
M  END
>  <UniqueID>  (77) 
75

>  <SMILES>  (77) 
C=c1/c(=C\c2[n-]c(=O)[n-]c2[O-])cc(C)n1-c1cccc(C(=O)/N=c2\[n-]cccc2O)c1

>  <Energy>  (77) 
134.90959258350475

>  <Genealogy>  (77) 
C=c1c(=Cc2[n-]c(=O)[n-]c2[O-])cc(C)n1-c1cccc(C(=O)N=c2[n-]cccc2O)c1 (protonated)
C=c1/c(=C\c2[n-]c(=O)[n-]c2[O-])cc(C)n1-c1cccc(C(=O)/N=c2\[n-]cccc2O)c1 (cis-trans isomerization)
C=c1/c(=C\c2[n-]c(=O)[n-]c2[O-])cc(C)n1-c1cccc(C(=O)/N=c2\[n-]cccc2O)c1 (3D coordinates assigned)
C=c1/c(=C\c2[n-]c(=O)[n-]c2[O-])cc(C)n1-c1cccc(C(=O)/N=c2\[n-]cccc2O)c1 (optimized conformer: 134.90959258350475 kcal/mol)

>  <smiles>  (77) 
C=c1c(=Cc2[nH]c(=O)[nH]c2O)cc(C)n1-c1cccc(C(=O)N=c2[nH]cccc2O)c1

>  <score_type>  (77) 
oracle

>  <origin>  (77) 
adg

>  <m_score__min__energy>  (77) 
-16.91

>  <m_primary>  (77) 
energy

$$$$
77:0
     RDKit          3D

 64 67  0  0  0  0  0  0  0  0999 V2000
   60.0397   34.3248   51.4540 H   0  0  0  0  0  0  0  0  0  0  0  0
   59.7840   33.7670   50.5410 C   0  0  0  0  0  0  0  0  0  0  0  0
   60.0020   34.3440   49.3510 C   0  0  0  0  0  0  0  0  0  0  0  0
   59.3276   35.1511   49.0287 H   0  0  0  0  0  0  0  0  0  0  0  0
   61.1120   33.9450   48.4460 C   0  0  0  0  0  0  0  0  0  0  0  0
   62.2610   33.3180   48.9700 C   0  0  0  0  0  0  0  0  0  0  0  0
   62.3226   33.1115   50.0487 H   0  0  0  0  0  0  0  0  0  0  0  0
   63.3210   32.9560   48.1380 C   0  0  0  0  0  0  0  0  0  0  0  0
   64.2070   32.4604   48.5615 H   0  0  0  0  0  0  0  0  0  0  0  0
   63.2590   33.2210   46.7730 C   0  0  0  0  0  0  0  0  0  0  0  0
   64.0943   32.9319   46.1183 H   0  0  0  0  0  0  0  0  0  0  0  0
   62.1380   33.8530   46.2350 C   0  0  0  0  0  0  0  0  0  0  0  0
   62.0980   34.0642   45.1562 H   0  0  0  0  0  0  0  0  0  0  0  0
   61.0590   34.2230   47.0560 C   0  0  0  0  0  0  0  0  0  0  0  0
   59.6570   35.0150   46.3110 S   0  0  0  0  0  0  0  0  0  0  0  0
   58.4850   35.0380   47.2530 O   0  0  0  0  0  0  0  0  0  0  0  0
   60.0200   36.4340   45.9750 O   0  0  0  0  0  0  0  0  0  0  0  0
   59.2130   34.1750   44.8600 N   0  0  0  0  0  0  0  0  0  0  0  0
   58.6430   32.8610   44.8240 C   0  0  0  0  0  0  0  0  0  0  0  0
   58.8450   32.0120   45.9170 C   0  0  0  0  0  0  0  0  0  0  0  0
   59.4628   32.3480   46.7628 H   0  0  0  0  0  0  0  0  0  0  0  0
   58.2670   30.7390   45.9420 C   0  0  0  0  0  0  0  0  0  0  0  0
   58.4206   30.0885   46.8156 H   0  0  0  0  0  0  0  0  0  0  0  0
   57.4900   30.2810   44.8600 C   0  0  0  0  0  0  0  0  0  0  0  0
   56.8900   28.9190   44.8970 C   0  0  0  0  0  0  0  0  0  0  0  0
   55.6350   28.8000   44.9390 O   0  0  0  0  0  0  0  0  0  0  0  0
   57.7150   27.7380   44.8470 N   0  0  0  0  0  0  0  0  0  0  0  0
   58.5870   27.7820   44.2750 H   0  0  0  0  0  0  0  0  0  0  0  0
   57.3240   26.4470   45.3530 C   0  0  0  0  0  0  0  0  0  0  0  0
   57.2310   26.1840   46.7340 C   0  0  0  0  0  0  0  0  0  0  0  0
   57.4715   26.9749   47.4597 H   0  0  0  0  0  0  0  0  0  0  0  0
   56.8350   24.9240   47.1850 C   0  0  0  0  0  0  0  0  0  0  0  0
   56.7303   24.7375   48.2640 H   0  0  0  0  0  0  0  0  0  0  0  0
   56.5710   23.8990   46.2750 C   0  0  0  0  0  0  0  0  0  0  0  0
   56.2464   22.9132   46.6395 H   0  0  0  0  0  0  0  0  0  0  0  0
   56.7180   24.1210   44.8960 C   0  0  0  0  0  0  0  0  0  0  0  0
   56.4770   23.0330   43.9200 C   0  0  0  0  0  0  0  0  0  0  0  0
   55.5430   23.1570   43.0810 O   0  0  0  0  0  0  0  0  0  0  0  0
   57.2770   21.8330   43.9120 N   0  0  0  0  0  0  0  0  0  0  0  0
   56.6450   20.5610   43.5500 C   0  0  0  0  0  0  0  0  0  0  0  0
   56.3729   20.0134   44.4644 H   0  0  0  0  0  0  0  0  0  0  0  0
   55.7396   20.7571   42.9570 H   0  0  0  0  0  0  0  0  0  0  0  0
   57.3482   19.9579   42.9570 H   0  0  0  0  0  0  0  0  0  0  0  0
   58.7280   21.8760   44.1180 C   0  0  0  0  0  0  0  0  0  0  0  0
   58.9452   21.8824   45.1963 H   0  0  0  0  0  0  0  0  0  0  0  0
   59.1903   20.9912   43.6561 H   0  0  0  0  0  0  0  0  0  0  0  0
   59.1371   22.7867   43.6561 H   0  0  0  0  0  0  0  0  0  0  0  0
   57.0820   25.4050   44.4450 C   0  0  0  0  0  0  0  0  0  0  0  0
   57.1779   25.5934   43.3655 H   0  0  0  0  0  0  0  0  0  0  0  0
   57.3240   31.1290   43.7470 C   0  0  0  0  0  0  0  0  0  0  0  0
   56.7481   30.7793   42.8775 H   0  0  0  0  0  0  0  0  0  0  0  0
   57.8830   32.4090   43.7360 C   0  0  0  0  0  0  0  0  0  0  0  0
   57.7260   33.0665   42.8683 H   0  0  0  0  0  0  0  0  0  0  0  0
   59.2120   32.4070   50.6740 C   0  0  0  0  0  0  0  0  0  0  0  0
   59.6010   31.4240   49.7490 C   0  0  0  0  0  0  0  0  0  0  0  0
   60.3191   31.6768   48.9550 H   0  0  0  0  0  0  0  0  0  0  0  0
   59.0840   30.1270   49.8280 C   0  0  0  0  0  0  0  0  0  0  0  0
   59.6420   28.7940   48.5760 Br  0  0  0  0  0  0  0  0  0  0  0  0
   58.1580   29.8040   50.8220 C   0  0  0  0  0  0  0  0  0  0  0  0
   57.7543   28.7828   50.8865 H   0  0  0  0  0  0  0  0  0  0  0  0
   57.7440   30.7780   51.7350 C   0  0  0  0  0  0  0  0  0  0  0  0
   57.0133   30.5210   52.5160 H   0  0  0  0  0  0  0  0  0  0  0  0
   58.2550   32.0790   51.6600 C   0  0  0  0  0  0  0  0  0  0  0  0
   57.7780   33.0390   52.5470 O   0  0  0  0  0  0  0  0  0  0  0  0
  1  2  1  0
  2  3  2  0
  3  4  1  0
  3  5  1  0
  5  6  2  0
  6  7  1  0
  6  8  1  0
  8  9  1  0
  8 10  2  0
 10 11  1  0
 10 12  1  0
 12 13  1  0
 12 14  2  0
 14 15  1  0
 15 16  2  0
 15 17  2  0
 15 18  1  0
 18 19  1  0
 19 20  2  0
 20 21  1  0
 20 22  1  0
 22 23  1  0
 22 24  2  0
 24 25  1  0
 25 26  2  0
 25 27  1  0
 27 28  1  0
 27 29  1  0
 29 30  2  0
 30 31  1  0
 30 32  1  0
 32 33  1  0
 32 34  2  0
 34 35  1  0
 34 36  1  0
 36 37  1  0
 37 38  2  0
 37 39  1  0
 39 40  1  0
 40 41  1  0
 40 42  1  0
 40 43  1  0
 39 44  1  0
 44 45  1  0
 44 46  1  0
 44 47  1  0
 36 48  2  0
 48 49  1  0
 24 50  1  0
 50 51  1  0
 50 52  2  0
 52 53  1  0
  2 54  1  0
 54 55  2  0
 55 56  1  0
 55 57  1  0
 57 58  1  0
 57 59  2  0
 59 60  1  0
 59 61  1  0
 61 62  1  0
 61 63  2  0
 63 64  1  0
 14  5  1  0
 52 19  1  0
 63 54  1  0
 48 29  1  0
M  CHG  2  18  -1  64  -1
M  END
>  <UniqueID>  (78) 
76

>  <SMILES>  (78) 
CN(C)C(=O)c1cccc(NC(=O)c2ccc([N-]S(=O)(=O)c3ccccc3/C=C/c3cc(Br)ccc3[O-])cc2)c1

>  <Energy>  (78) 
91.17009455320722

>  <Genealogy>  (78) 
CN(C)C(=O)c1cccc(NC(=O)c2ccc([N-]S(=O)(=O)c3ccccc3C=Cc3cc(Br)ccc3[O-])cc2)c1 (protonated)
CN(C)C(=O)c1cccc(NC(=O)c2ccc([N-]S(=O)(=O)c3ccccc3/C=C/c3cc(Br)ccc3[O-])cc2)c1 (cis-trans isomerization)
CN(C)C(=O)c1cccc(NC(=O)c2ccc([N-]S(=O)(=O)c3ccccc3/C=C/c3cc(Br)ccc3[O-])cc2)c1 (3D coordinates assigned)
CN(C)C(=O)c1cccc(NC(=O)c2ccc([N-]S(=O)(=O)c3ccccc3/C=C/c3cc(Br)ccc3[O-])cc2)c1 (optimized conformer: 91.17009455320722 kcal/mol)

>  <smiles>  (78) 
CN(C)C(=O)c1cccc(NC(=O)c2ccc(NS(=O)(=O)c3ccccc3C=Cc3cc(Br)ccc3O)cc2)c1

>  <score_type>  (78) 
oracle

>  <origin>  (78) 
adg

>  <m_score__min__energy>  (78) 
-16.07

>  <m_primary>  (78) 
energy

$$$$
78:0
     RDKit          3D

 38 40  0  0  0  0  0  0  0  0999 V2000
   54.9680   29.3660   44.8040 O   0  0  0  0  0  0  0  0  0  0  0  0
   56.1110   29.2390   44.2920 C   0  0  0  0  0  0  0  0  0  0  0  0
   56.5040   30.1360   43.1500 C   0  0  0  0  0  0  0  0  0  0  0  0
   57.1830   31.3250   43.6600 N   0  0  0  0  0  0  0  0  0  0  0  0
   57.0420   31.7320   44.9220 N   0  0  0  0  0  0  0  0  0  0  0  0
   57.7270   32.8690   45.1870 C   0  0  0  0  0  0  0  0  0  0  0  0
   57.6910   33.5640   46.5080 C   0  0  0  0  0  0  0  0  0  0  0  0
   59.0250   33.4460   47.1920 C   0  0  0  0  0  0  0  0  0  0  0  0
   59.1270   32.8100   48.4400 C   0  0  0  0  0  0  0  0  0  0  0  0
   60.3720   32.6730   49.0620 C   0  0  0  0  0  0  0  0  0  0  0  0
   61.5220   33.1650   48.4410 C   0  0  0  0  0  0  0  0  0  0  0  0
   61.4320   33.7930   47.1970 C   0  0  0  0  0  0  0  0  0  0  0  0
   60.1890   33.9300   46.5690 C   0  0  0  0  0  0  0  0  0  0  0  0
   58.5250   33.4480   43.8150 S   0  0  0  0  0  0  0  0  0  0  0  0
   57.9540   32.1500   42.9140 C   0  0  0  0  0  0  0  0  0  0  0  0
   58.2020   31.9680   41.6910 O   0  0  0  0  0  0  0  0  0  0  0  0
   57.0460   28.3420   44.9030 N   0  0  0  0  0  0  0  0  0  0  0  0
   58.3310   28.6950   45.4310 C   0  0  0  0  0  0  0  0  0  0  0  0
   58.4480   29.0030   46.7920 C   0  0  0  0  0  0  0  0  0  0  0  0
   59.6960   29.3070   47.3410 C   0  0  0  0  0  0  0  0  0  0  0  0
   60.8390   29.2920   46.5360 C   0  0  0  0  0  0  0  0  0  0  0  0
   60.7390   28.9520   45.1830 C   0  0  0  0  0  0  0  0  0  0  0  0
   61.8880   28.9190   44.3960 O   0  0  0  0  0  0  0  0  0  0  0  0
   59.4860   28.6420   44.6330 C   0  0  0  0  0  0  0  0  0  0  0  0
   57.1806   29.5914   42.4750 H   0  0  0  0  0  0  0  0  0  0  0  0
   55.5998   30.4427   42.6037 H   0  0  0  0  0  0  0  0  0  0  0  0
   57.4546   34.6271   46.3532 H   0  0  0  0  0  0  0  0  0  0  0  0
   56.9208   33.0966   47.1392 H   0  0  0  0  0  0  0  0  0  0  0  0
   58.2237   32.4180   48.9303 H   0  0  0  0  0  0  0  0  0  0  0  0
   60.4455   32.1773   50.0412 H   0  0  0  0  0  0  0  0  0  0  0  0
   62.5002   33.0577   48.9325 H   0  0  0  0  0  0  0  0  0  0  0  0
   62.3392   34.1804   46.7102 H   0  0  0  0  0  0  0  0  0  0  0  0
   60.1223   34.4177   45.5853 H   0  0  0  0  0  0  0  0  0  0  0  0
   57.5531   29.0056   47.4317 H   0  0  0  0  0  0  0  0  0  0  0  0
   59.7796   29.5586   48.4086 H   0  0  0  0  0  0  0  0  0  0  0  0
   61.8181   29.5479   46.9672 H   0  0  0  0  0  0  0  0  0  0  0  0
   62.3320   28.0440   44.1440 H   0  0  0  0  0  0  0  0  0  0  0  0
   59.4078   28.3565   43.5736 H   0  0  0  0  0  0  0  0  0  0  0  0
  1  2  2  0
  2  3  1  0
  3  4  1  0
  4  5  1  0
  5  6  2  0
  6  7  1  0
  7  8  1  0
  8  9  2  0
  9 10  1  0
 10 11  2  0
 11 12  1  0
 12 13  2  0
  6 14  1  0
 14 15  1  0
 15 16  2  0
  2 17  1  0
 17 18  1  0
 18 19  2  0
 19 20  1  0
 20 21  2  0
 21 22  1  0
 22 23  1  0
 22 24  2  0
 15  4  1  0
 24 18  1  0
 13  8  1  0
  3 25  1  0
  3 26  1  0
  7 27  1  0
  7 28  1  0
  9 29  1  0
 10 30  1  0
 11 31  1  0
 12 32  1  0
 13 33  1  0
 19 34  1  0
 20 35  1  0
 21 36  1  0
 23 37  1  0
 24 38  1  0
M  CHG  1  17  -1
M  END
>  <UniqueID>  (79) 
77

>  <SMILES>  (79) 
O=C(Cn1nc(Cc2ccccc2)sc1=O)[N-]c1cccc(O)c1

>  <Energy>  (79) 
73.81100374346596

>  <Genealogy>  (79) 
O=C(Cn1nc(Cc2ccccc2)sc1=O)[N-]c1cccc(O)c1 (protonated)
O=C(Cn1nc(Cc2ccccc2)sc1=O)[N-]c1cccc(O)c1 (3D coordinates assigned)
O=C(Cn1nc(Cc2ccccc2)sc1=O)[N-]c1cccc(O)c1 (optimized conformer: 73.81100374346596 kcal/mol)

>  <smiles>  (79) 
O=C(Cn1nc(Cc2ccccc2)sc1=O)Nc1cccc(O)c1

>  <score_type>  (79) 
oracle

>  <origin>  (79) 
adg

>  <m_score__min__energy>  (79) 
-10.220000000000001

>  <m_primary>  (79) 
energy

$$$$
79:0
     RDKit          3D

 50 52  0  0  0  0  0  0  0  0999 V2000
   58.6200   27.4940   44.2440 C   0  0  0  0  0  0  0  0  0  0  0  0
   59.2820   27.9690   45.5040 C   0  0  0  0  0  0  0  0  0  0  0  0
   59.3470   27.1320   46.6250 C   0  0  0  0  0  0  0  0  0  0  0  0
   59.9420   27.5830   47.8040 C   0  0  0  0  0  0  0  0  0  0  0  0
   60.4590   28.8770   47.8790 C   0  0  0  0  0  0  0  0  0  0  0  0
   60.3680   29.7520   46.7760 C   0  0  0  0  0  0  0  0  0  0  0  0
   60.9310   31.1690   46.8030 C   0  0  1  0  0  0  0  0  0  0  0  0
   59.8710   32.2670   47.0600 C   0  0  0  0  0  0  0  0  0  0  0  0
   60.2460   33.5040   46.3670 N   0  0  0  0  0  0  0  0  0  0  0  0
   58.8470   34.2210   45.6300 S   0  0  0  0  0  0  0  0  0  0  0  0
   59.2530   35.4650   44.8910 O   0  0  0  0  0  0  0  0  0  0  0  0
   57.8410   34.5950   46.6840 O   0  0  0  0  0  0  0  0  0  0  0  0
   58.1440   33.0750   44.4920 C   0  0  0  0  0  0  0  0  0  0  0  0
   58.5150   33.1190   43.1420 C   0  0  0  0  0  0  0  0  0  0  0  0
   58.0100   32.1770   42.2420 C   0  0  0  0  0  0  0  0  0  0  0  0
   57.1330   31.1840   42.6860 C   0  0  0  0  0  0  0  0  0  0  0  0
   56.7600   31.1300   44.0360 C   0  0  0  0  0  0  0  0  0  0  0  0
   55.8670   30.1000   44.4970 C   0  0  0  0  0  0  0  0  0  0  0  0
   55.1480   29.2720   44.8660 N   0  0  0  0  0  0  0  0  0  0  0  0
   57.2660   32.0750   44.9380 C   0  0  0  0  0  0  0  0  0  0  0  0
   62.0930   31.2350   47.7300 N   0  0  0  0  0  0  0  0  0  0  0  0
   63.3290   31.7950   47.1440 C   0  0  0  0  0  0  0  0  0  0  0  0
   63.4430   33.3260   47.3370 C   0  0  0  0  0  0  0  0  0  0  0  0
   62.4770   33.8540   48.2280 O   0  0  0  0  0  0  0  0  0  0  0  0
   62.4400   33.0760   49.4010 C   0  0  0  0  0  0  0  0  0  0  0  0
   61.8180   31.7020   49.1100 C   0  0  0  0  0  0  0  0  0  0  0  0
   59.7850   29.2770   45.5870 C   0  0  0  0  0  0  0  0  0  0  0  0
   57.7507   26.8702   44.4993 H   0  0  0  0  0  0  0  0  0  0  0  0
   58.2884   28.3615   43.6545 H   0  0  0  0  0  0  0  0  0  0  0  0
   59.3356   26.9020   43.6545 H   0  0  0  0  0  0  0  0  0  0  0  0
   58.9278   26.1162   46.5760 H   0  0  0  0  0  0  0  0  0  0  0  0
   60.0037   26.9165   48.6769 H   0  0  0  0  0  0  0  0  0  0  0  0
   60.9419   29.2179   48.8067 H   0  0  0  0  0  0  0  0  0  0  0  0
   61.2900   31.3995   45.7891 H   0  0  0  0  0  0  0  0  0  0  0  0
   58.8944   31.9237   46.6880 H   0  0  0  0  0  0  0  0  0  0  0  0
   59.8126   32.4641   48.1406 H   0  0  0  0  0  0  0  0  0  0  0  0
   60.6070   34.1830   47.0770 H   0  0  0  0  0  0  0  0  0  0  0  0
   59.2066   33.8982   42.7890 H   0  0  0  0  0  0  0  0  0  0  0  0
   58.3032   32.2172   41.1826 H   0  0  0  0  0  0  0  0  0  0  0  0
   56.7351   30.4443   41.9757 H   0  0  0  0  0  0  0  0  0  0  0  0
   56.9746   32.0332   45.9979 H   0  0  0  0  0  0  0  0  0  0  0  0
   64.1945   31.3147   47.6238 H   0  0  0  0  0  0  0  0  0  0  0  0
   63.3015   31.5984   46.0621 H   0  0  0  0  0  0  0  0  0  0  0  0
   64.4438   33.5540   47.7326 H   0  0  0  0  0  0  0  0  0  0  0  0
   63.2681   33.7910   46.3556 H   0  0  0  0  0  0  0  0  0  0  0  0
   63.4643   32.9382   49.7775 H   0  0  0  0  0  0  0  0  0  0  0  0
   61.8280   33.5935   50.1544 H   0  0  0  0  0  0  0  0  0  0  0  0
   62.2320   30.9701   49.8192 H   0  0  0  0  0  0  0  0  0  0  0  0
   60.7277   31.7989   49.2190 H   0  0  0  0  0  0  0  0  0  0  0  0
   59.7225   29.9392   44.7109 H   0  0  0  0  0  0  0  0  0  0  0  0
  1  2  1  0
  2  3  2  0
  3  4  1  0
  4  5  2  0
  5  6  1  0
  6  7  1  0
  7  8  1  0
  8  9  1  0
  9 10  1  0
 10 11  2  0
 10 12  2  0
 10 13  1  0
 13 14  2  0
 14 15  1  0
 15 16  2  0
 16 17  1  0
 17 18  1  0
 18 19  3  0
 17 20  2  0
  7 21  1  0
 21 22  1  0
 22 23  1  0
 23 24  1  0
 24 25  1  0
 25 26  1  0
  6 27  2  0
 27  2  1  0
 20 13  1  0
 26 21  1  0
  1 28  1  0
  1 29  1  0
  1 30  1  0
  3 31  1  0
  4 32  1  0
  5 33  1  0
  7 34  1  6
  8 35  1  0
  8 36  1  0
  9 37  1  0
 14 38  1  0
 15 39  1  0
 16 40  1  0
 20 41  1  0
 22 42  1  0
 22 43  1  0
 23 44  1  0
 23 45  1  0
 25 46  1  0
 25 47  1  0
 26 48  1  0
 26 49  1  0
 27 50  1  0
M  END
>  <UniqueID>  (80) 
78

>  <SMILES>  (80) 
Cc1cccc([C@@H](CNS(=O)(=O)c2cccc(C#N)c2)N2CCOCC2)c1

>  <Energy>  (80) 
64.01832531101581

>  <Genealogy>  (80) 
Cc1cccc([C@@H](CNS(=O)(=O)c2cccc(C#N)c2)N2CCOCC2)c1 (chirality)
Cc1cccc([C@@H](CNS(=O)(=O)c2cccc(C#N)c2)N2CCOCC2)c1 (3D coordinates assigned)
Cc1cccc([C@@H](CNS(=O)(=O)c2cccc(C#N)c2)N2CCOCC2)c1 (nonaromatic ring conformer: 64.01832531101581 kcal/mol)

>  <smiles>  (80) 
Cc1cccc(C(CNS(=O)(=O)c2cccc(C#N)c2)N2CCOCC2)c1

>  <score_type>  (80) 
oracle

>  <origin>  (80) 
adg

>  <m_score__min__energy>  (80) 
-8.5099999999999998

>  <m_primary>  (80) 
energy

$$$$
80:0
     RDKit          3D

 55 58  0  0  0  0  0  0  0  0999 V2000
   58.5240   24.6020   46.7400 C   0  0  0  0  0  0  0  0  0  0  0  0
   57.8710   25.8310   46.2470 N   0  0  0  0  0  0  0  0  0  0  0  0
   56.5020   25.8800   46.1340 C   0  0  0  0  0  0  0  0  0  0  0  0
   55.7870   24.8890   46.4460 O   0  0  0  0  0  0  0  0  0  0  0  0
   55.8870   27.0010   45.6820 N   0  0  0  0  0  0  0  0  0  0  0  0
   56.5800   28.1090   45.3250 C   0  0  0  0  0  0  0  0  0  0  0  0
   55.9040   29.2480   44.8620 O   0  0  0  0  0  0  0  0  0  0  0  0
   56.0900   29.8120   43.5640 C   0  0  0  0  0  0  0  0  0  0  0  0
   56.7020   31.1830   43.6610 C   0  0  0  0  0  0  0  0  0  0  0  0
   57.2940   31.6700   42.6610 O   0  0  0  0  0  0  0  0  0  0  0  0
   56.6630   31.9450   44.8750 N   0  0  0  0  0  0  0  0  0  0  0  0
   57.6490   32.8830   45.3270 C   0  0  0  0  0  0  0  0  0  0  0  0
   58.1960   33.8490   44.4650 C   0  0  0  0  0  0  0  0  0  0  0  0
   59.1720   34.7340   44.9330 C   0  0  0  0  0  0  0  0  0  0  0  0
   59.6230   34.6500   46.2520 C   0  0  0  0  0  0  0  0  0  0  0  0
   59.1090   33.6660   47.1080 C   0  0  0  0  0  0  0  0  0  0  0  0
   59.6570   33.5560   48.7790 S   0  0  0  0  0  0  0  0  0  0  0  0
   58.6950   32.7220   49.5810 O   0  0  0  0  0  0  0  0  0  0  0  0
   59.6950   34.9400   49.3660 O   0  0  0  0  0  0  0  0  0  0  0  0
   61.2530   32.8480   48.8390 N   0  0  0  0  0  0  0  0  0  0  0  0
   62.2100   33.8150   49.4230 C   0  0  0  0  0  0  0  0  0  0  0  0
   63.6580   33.4460   49.0870 C   0  0  0  0  0  0  0  0  0  0  0  0
   63.9000   33.4810   47.5680 C   0  0  0  0  0  0  0  0  0  0  0  0
   62.6160   33.2380   46.7570 C   0  0  0  0  0  0  0  0  0  0  0  0
   61.6490   32.3140   47.5110 C   0  0  0  0  0  0  0  0  0  0  0  0
   58.1270   32.7840   46.6390 C   0  0  0  0  0  0  0  0  0  0  0  0
   57.9750   28.1070   45.4240 C   0  0  0  0  0  0  0  0  0  0  0  0
   58.7290   29.2380   45.0630 C   0  0  0  0  0  0  0  0  0  0  0  0
   60.1190   29.2190   45.1690 C   0  0  0  0  0  0  0  0  0  0  0  0
   60.7690   28.0770   45.6310 C   0  0  0  0  0  0  0  0  0  0  0  0
   60.0350   26.9460   45.9930 C   0  0  0  0  0  0  0  0  0  0  0  0
   58.6220   26.9360   45.8970 C   0  0  0  0  0  0  0  0  0  0  0  0
   58.5237   24.6026   47.8400 H   0  0  0  0  0  0  0  0  0  0  0  0
   57.9743   23.7225   46.3737 H   0  0  0  0  0  0  0  0  0  0  0  0
   59.5606   24.5653   46.3737 H   0  0  0  0  0  0  0  0  0  0  0  0
   56.7559   29.1602   42.9794 H   0  0  0  0  0  0  0  0  0  0  0  0
   55.1097   29.8970   43.0722 H   0  0  0  0  0  0  0  0  0  0  0  0
   57.8557   33.9088   43.4207 H   0  0  0  0  0  0  0  0  0  0  0  0
   59.5861   35.4991   44.2599 H   0  0  0  0  0  0  0  0  0  0  0  0
   60.3820   35.3563   46.6195 H   0  0  0  0  0  0  0  0  0  0  0  0
   61.9946   34.8168   49.0229 H   0  0  0  0  0  0  0  0  0  0  0  0
   62.0945   33.7964   50.5168 H   0  0  0  0  0  0  0  0  0  0  0  0
   64.3341   34.1633   49.5752 H   0  0  0  0  0  0  0  0  0  0  0  0
   63.8514   32.4252   49.4483 H   0  0  0  0  0  0  0  0  0  0  0  0
   64.3049   34.4677   47.2987 H   0  0  0  0  0  0  0  0  0  0  0  0
   64.6047   32.6721   47.3250 H   0  0  0  0  0  0  0  0  0  0  0  0
   62.1202   34.2025   46.5727 H   0  0  0  0  0  0  0  0  0  0  0  0
   62.8901   32.7548   45.8076 H   0  0  0  0  0  0  0  0  0  0  0  0
   60.7427   32.1826   46.9016 H   0  0  0  0  0  0  0  0  0  0  0  0
   62.1706   31.3607   47.6819 H   0  0  0  0  0  0  0  0  0  0  0  0
   57.7280   32.0069   47.3075 H   0  0  0  0  0  0  0  0  0  0  0  0
   58.2200   30.1412   44.6955 H   0  0  0  0  0  0  0  0  0  0  0  0
   60.7034   30.1074   44.8873 H   0  0  0  0  0  0  0  0  0  0  0  0
   61.8660   28.0662   45.7110 H   0  0  0  0  0  0  0  0  0  0  0  0
   60.5608   26.0512   46.3574 H   0  0  0  0  0  0  0  0  0  0  0  0
  1  2  1  0
  2  3  1  0
  3  4  2  0
  3  5  1  0
  5  6  2  0
  6  7  1  0
  7  8  1  0
  8  9  1  0
  9 10  2  0
  9 11  1  0
 11 12  1  0
 12 13  2  0
 13 14  1  0
 14 15  2  0
 15 16  1  0
 16 17  1  0
 17 18  2  0
 17 19  2  0
 17 20  1  0
 20 21  1  0
 21 22  1  0
 22 23  1  0
 23 24  1  0
 24 25  1  0
 16 26  2  0
  6 27  1  0
 27 28  2  0
 28 29  1  0
 29 30  2  0
 30 31  1  0
 31 32  2  0
 32  2  1  0
 26 12  1  0
 32 27  1  0
 25 20  1  0
  1 33  1  0
  1 34  1  0
  1 35  1  0
  8 36  1  0
  8 37  1  0
 13 38  1  0
 14 39  1  0
 15 40  1  0
 21 41  1  0
 21 42  1  0
 22 43  1  0
 22 44  1  0
 23 45  1  0
 23 46  1  0
 24 47  1  0
 24 48  1  0
 25 49  1  0
 25 50  1  0
 26 51  1  0
 28 52  1  0
 29 53  1  0
 30 54  1  0
 31 55  1  0
M  CHG  1  11  -1
M  END
>  <UniqueID>  (81) 
79

>  <SMILES>  (81) 
Cn1c(=O)nc(OCC(=O)[N-]c2cccc(S(=O)(=O)N3CCCCC3)c2)c2ccccc21

>  <Energy>  (81) 
77.14166548176556

>  <Genealogy>  (81) 
Cn1c(=O)nc(OCC(=O)[N-]c2cccc(S(=O)(=O)N3CCCCC3)c2)c2ccccc21 (protonated)
Cn1c(=O)nc(OCC(=O)[N-]c2cccc(S(=O)(=O)N3CCCCC3)c2)c2ccccc21 (3D coordinates assigned)
Cn1c(=O)nc(OCC(=O)[N-]c2cccc(S(=O)(=O)N3CCCCC3)c2)c2ccccc21 (nonaromatic ring conformer: 77.14166548176556 kcal/mol)

>  <smiles>  (81) 
Cn1c(=O)nc(OCC(=O)Nc2cccc(S(=O)(=O)N3CCCCC3)c2)c2ccccc21

>  <score_type>  (81) 
oracle

>  <origin>  (81) 
adg

>  <m_score__min__energy>  (81) 
-11.65

>  <m_primary>  (81) 
energy

$$$$
81:0
     RDKit          3D

 36 38  0  0  0  0  0  0  0  0999 V2000
   59.8570   33.4130   46.0330 C   0  0  0  0  0  0  0  0  0  0  0  0
   58.1090   33.3770   45.7090 S   0  0  0  0  0  0  0  0  0  0  0  0
   57.7240   34.5370   44.8350 O   0  0  0  0  0  0  0  0  0  0  0  0
   57.3650   33.4820   47.0120 O   0  0  0  0  0  0  0  0  0  0  0  0
   57.6920   31.8890   44.9230 N   0  0  0  0  0  0  0  0  0  0  0  0
   57.1920   31.8040   43.6960 N   0  0  0  0  0  0  0  0  0  0  0  0
   56.9730   30.5010   43.4180 C   0  0  0  0  0  0  0  0  0  0  0  0
   56.5010   30.0740   42.3320 O   0  0  0  0  0  0  0  0  0  0  0  0
   57.3440   29.7370   44.5030 C   0  0  0  0  0  0  0  0  0  0  0  0
   57.3220   28.3670   44.7450 C   0  0  0  0  0  0  0  0  0  0  0  0
   57.7830   27.9160   46.0060 C   0  0  0  0  0  0  0  0  0  0  0  0
   57.7990   26.5250   46.3520 N   0  0  0  0  0  0  0  0  0  0  0  0
   56.4170   25.4770   46.3360 S   0  0  0  0  0  0  0  0  0  0  0  0
   56.2580   24.8380   47.6870 O   0  0  0  0  0  0  0  0  0  0  0  0
   55.1930   26.2780   45.9950 O   0  0  0  0  0  0  0  0  0  0  0  0
   56.6320   24.2110   45.1280 C   0  0  0  0  0  0  0  0  0  0  0  0
   55.6970   24.0490   44.0920 C   0  0  0  0  0  0  0  0  0  0  0  0
   55.8750   23.0450   43.1350 C   0  0  0  0  0  0  0  0  0  0  0  0
   56.9860   22.2020   43.2020 C   0  0  0  0  0  0  0  0  0  0  0  0
   57.9220   22.3590   44.2280 C   0  0  0  0  0  0  0  0  0  0  0  0
   57.7490   23.3610   45.1890 C   0  0  0  0  0  0  0  0  0  0  0  0
   58.6710   23.5040   46.1740 F   0  0  0  0  0  0  0  0  0  0  0  0
   58.2420   28.8540   46.9640 C   0  0  0  0  0  0  0  0  0  0  0  0
   58.2490   30.2330   46.6830 C   0  0  0  0  0  0  0  0  0  0  0  0
   57.7910   30.6410   45.4320 C   0  0  0  0  0  0  0  0  0  0  0  0
   60.0285   33.4165   47.1195 H   0  0  0  0  0  0  0  0  0  0  0  0
   60.3304   32.5244   45.5899 H   0  0  0  0  0  0  0  0  0  0  0  0
   60.2934   34.3203   45.5899 H   0  0  0  0  0  0  0  0  0  0  0  0
   57.0010   32.6150   43.0660 H   0  0  0  0  0  0  0  0  0  0  0  0
   56.9597   27.6597   43.9844 H   0  0  0  0  0  0  0  0  0  0  0  0
   54.8225   24.7137   44.0335 H   0  0  0  0  0  0  0  0  0  0  0  0
   55.1383   22.9191   42.3279 H   0  0  0  0  0  0  0  0  0  0  0  0
   57.1247   21.4141   42.4471 H   0  0  0  0  0  0  0  0  0  0  0  0
   58.7963   21.6935   44.2800 H   0  0  0  0  0  0  0  0  0  0  0  0
   58.5983   28.4988   47.9422 H   0  0  0  0  0  0  0  0  0  0  0  0
   58.6037   30.9633   47.4252 H   0  0  0  0  0  0  0  0  0  0  0  0
  1  2  1  0
  2  3  2  0
  2  4  2  0
  2  5  1  0
  5  6  1  0
  6  7  1  0
  7  8  2  0
  7  9  1  0
  9 10  2  0
 10 11  1  0
 11 12  1  0
 12 13  1  0
 13 14  2  0
 13 15  2  0
 13 16  1  0
 16 17  2  0
 17 18  1  0
 18 19  2  0
 19 20  1  0
 20 21  2  0
 21 22  1  0
 11 23  2  0
 23 24  1  0
 24 25  2  0
 25  5  1  0
 25  9  1  0
 21 16  1  0
  1 26  1  0
  1 27  1  0
  1 28  1  0
  6 29  1  0
 10 30  1  0
 17 31  1  0
 18 32  1  0
 19 33  1  0
 20 34  1  0
 23 35  1  0
 24 36  1  0
M  CHG  1  12  -1
M  END
>  <UniqueID>  (82) 
80

>  <SMILES>  (82) 
CS(=O)(=O)n1[nH]c(=O)c2cc([N-]S(=O)(=O)c3ccccc3F)ccc21

>  <Energy>  (82) 
82.16978397496975

>  <Genealogy>  (82) 
CS(=O)(=O)n1[nH]c(=O)c2cc([N-]S(=O)(=O)c3ccccc3F)ccc21 (protonated)
CS(=O)(=O)n1[nH]c(=O)c2cc([N-]S(=O)(=O)c3ccccc3F)ccc21 (3D coordinates assigned)
CS(=O)(=O)n1[nH]c(=O)c2cc([N-]S(=O)(=O)c3ccccc3F)ccc21 (optimized conformer: 82.16978397496975 kcal/mol)

>  <smiles>  (82) 
CS(=O)(=O)n1[nH]c(=O)c2cc(NS(=O)(=O)c3ccccc3F)ccc21

>  <score_type>  (82) 
oracle

>  <origin>  (82) 
adg

>  <m_score__min__energy>  (82) 
-10.039999999999999

>  <m_primary>  (82) 
energy

$$$$
82:0
     RDKit          3D

 63 66  0  0  0  0  0  0  0  0999 V2000
   57.1860   29.8960   53.6180 C   0  0  0  0  0  0  0  0  0  0  0  0
   56.3730   30.1870   52.3680 C   0  0  0  0  0  0  0  0  0  0  0  0
   57.2490   30.4510   51.2750 O   0  0  0  0  0  0  0  0  0  0  0  0
   58.4860   31.1120   51.3650 C   0  0  0  0  0  0  0  0  0  0  0  0
   59.6900   30.5620   50.9640 C   0  0  0  0  0  0  0  0  0  0  0  0
   59.9540   29.2290   50.3910 C   0  0  0  0  0  0  0  0  0  0  0  0
   59.9610   28.2370   51.1690 O   0  0  0  0  0  0  0  0  0  0  0  0
   60.2130   29.0350   48.9860 N   0  0  0  0  0  0  0  0  0  0  0  0
   61.0340   29.9930   48.2340 C   0  0  0  0  0  0  0  0  0  0  0  0
   60.5490   30.1230   46.7750 C   0  0  0  0  0  0  0  0  0  0  0  0
   59.9360   28.8880   46.2170 N   0  0  0  0  0  0  0  0  0  0  0  0
   58.4650   29.0040   46.1040 C   0  0  0  0  0  0  0  0  0  0  0  0
   58.0680   30.1600   45.2210 C   0  0  0  0  0  0  0  0  0  0  0  0
   57.7360   29.9540   43.8740 C   0  0  0  0  0  0  0  0  0  0  0  0
   57.3970   31.0390   43.0610 C   0  0  0  0  0  0  0  0  0  0  0  0
   57.4090   32.3370   43.5800 C   0  0  0  0  0  0  0  0  0  0  0  0
   57.7610   32.5590   44.9160 C   0  0  0  0  0  0  0  0  0  0  0  0
   57.8010   33.9050   45.4130 N   0  0  0  0  0  0  0  0  0  0  0  0
   58.9880   34.6630   45.6890 C   0  0  0  0  0  0  0  0  0  0  0  0
   59.2880   35.6180   44.9230 O   0  0  0  0  0  0  0  0  0  0  0  0
   59.8800   34.3460   46.8240 C   0  0  0  0  0  0  0  0  0  0  0  0
   59.4620   34.5080   48.1530 C   0  0  0  0  0  0  0  0  0  0  0  0
   60.3440   34.2050   49.1920 C   0  0  0  0  0  0  0  0  0  0  0  0
   61.6260   33.7380   48.9030 C   0  0  0  0  0  0  0  0  0  0  0  0
   62.0150   33.5790   47.5670 C   0  0  0  0  0  0  0  0  0  0  0  0
   63.3760   33.0440   47.2270 C   0  0  0  0  0  0  0  0  0  0  0  0
   63.3240   31.6630   47.1660 F   0  0  0  0  0  0  0  0  0  0  0  0
   63.7960   33.5340   46.0040 F   0  0  0  0  0  0  0  0  0  0  0  0
   64.2890   33.4220   48.1960 F   0  0  0  0  0  0  0  0  0  0  0  0
   61.1320   33.8720   46.5720 N   0  0  0  0  0  0  0  0  0  0  0  0
   58.0490   31.4610   45.7460 C   0  0  0  0  0  0  0  0  0  0  0  0
   60.3760   27.6660   46.9270 C   0  0  0  0  0  0  0  0  0  0  0  0
   59.9900   27.7020   48.4120 C   0  0  0  0  0  0  0  0  0  0  0  0
   60.6420   31.5020   51.3050 C   0  0  0  0  0  0  0  0  0  0  0  0
   60.0350   32.5770   51.8440 N   0  0  0  0  0  0  0  0  0  0  0  0
   58.7300   32.3440   51.8790 N   0  0  0  0  0  0  0  0  0  0  0  0
   57.7830   33.3420   52.3690 C   0  0  0  0  0  0  0  0  0  0  0  0
   56.5788   30.1133   54.5091 H   0  0  0  0  0  0  0  0  0  0  0  0
   57.4812   28.8364   53.6250 H   0  0  0  0  0  0  0  0  0  0  0  0
   58.0866   30.5276   53.6250 H   0  0  0  0  0  0  0  0  0  0  0  0
   55.7439   29.3165   52.1302 H   0  0  0  0  0  0  0  0  0  0  0  0
   55.7361   31.0663   52.5446 H   0  0  0  0  0  0  0  0  0  0  0  0
   60.9725   30.9774   48.7211 H   0  0  0  0  0  0  0  0  0  0  0  0
   62.0716   29.6280   48.2237 H   0  0  0  0  0  0  0  0  0  0  0  0
   59.8004   30.9279   46.7321 H   0  0  0  0  0  0  0  0  0  0  0  0
   61.4408   30.3325   46.1661 H   0  0  0  0  0  0  0  0  0  0  0  0
   58.0649   28.0732   45.6756 H   0  0  0  0  0  0  0  0  0  0  0  0
   58.0545   29.1806   47.1091 H   0  0  0  0  0  0  0  0  0  0  0  0
   57.7425   28.9363   43.4566 H   0  0  0  0  0  0  0  0  0  0  0  0
   57.1200   30.8712   42.0098 H   0  0  0  0  0  0  0  0  0  0  0  0
   57.1407   33.1872   42.9356 H   0  0  0  0  0  0  0  0  0  0  0  0
   58.4475   34.8708   48.3749 H   0  0  0  0  0  0  0  0  0  0  0  0
   60.0280   34.3345   50.2377 H   0  0  0  0  0  0  0  0  0  0  0  0
   62.3253   33.4967   49.7171 H   0  0  0  0  0  0  0  0  0  0  0  0
   58.2606   31.6230   46.8132 H   0  0  0  0  0  0  0  0  0  0  0  0
   59.9034   26.7910   46.4570 H   0  0  0  0  0  0  0  0  0  0  0  0
   61.4723   27.6060   46.8591 H   0  0  0  0  0  0  0  0  0  0  0  0
   58.9261   27.4413   48.5127 H   0  0  0  0  0  0  0  0  0  0  0  0
   60.6190   26.9798   48.9532 H   0  0  0  0  0  0  0  0  0  0  0  0
   61.7266   31.3905   51.1593 H   0  0  0  0  0  0  0  0  0  0  0  0
   57.7848   33.3402   53.4690 H   0  0  0  0  0  0  0  0  0  0  0  0
   58.0770   34.3370   52.0035 H   0  0  0  0  0  0  0  0  0  0  0  0
   56.7740   33.1005   52.0035 H   0  0  0  0  0  0  0  0  0  0  0  0
  1  2  1  0
  2  3  1  0
  3  4  1  0
  4  5  2  0
  5  6  1  0
  6  7  2  0
  6  8  1  0
  8  9  1  0
  9 10  1  0
 10 11  1  0
 11 12  1  0
 12 13  1  0
 13 14  2  0
 14 15  1  0
 15 16  2  0
 16 17  1  0
 17 18  1  0
 18 19  1  0
 19 20  2  0
 19 21  1  0
 21 22  2  0
 22 23  1  0
 23 24  2  0
 24 25  1  0
 25 26  1  0
 26 27  1  0
 26 28  1  0
 26 29  1  0
 25 30  2  0
 17 31  2  0
 11 32  1  0
 32 33  1  0
  5 34  1  0
 34 35  2  0
 35 36  1  0
 36 37  1  0
 36  4  1  0
 33  8  1  0
 31 13  1  0
 30 21  1  0
  1 38  1  0
  1 39  1  0
  1 40  1  0
  2 41  1  0
  2 42  1  0
  9 43  1  0
  9 44  1  0
 10 45  1  0
 10 46  1  0
 12 47  1  0
 12 48  1  0
 14 49  1  0
 15 50  1  0
 16 51  1  0
 22 52  1  0
 23 53  1  0
 24 54  1  0
 31 55  1  0
 32 56  1  0
 32 57  1  0
 33 58  1  0
 33 59  1  0
 34 60  1  0
 37 61  1  0
 37 62  1  0
 37 63  1  0
M  CHG  1  18  -1
M  END
>  <UniqueID>  (83) 
81

>  <SMILES>  (83) 
CCOc1c(C(=O)N2CCN(Cc3cccc([N-]C(=O)c4cccc(C(F)(F)F)n4)c3)CC2)cnn1C

>  <Energy>  (83) 
110.62343218995352

>  <Genealogy>  (83) 
CCOc1c(C(=O)N2CCN(Cc3cccc([N-]C(=O)c4cccc(C(F)(F)F)n4)c3)CC2)cnn1C (protonated)
CCOc1c(C(=O)N2CCN(Cc3cccc([N-]C(=O)c4cccc(C(F)(F)F)n4)c3)CC2)cnn1C (3D coordinates assigned)
CCOc1c(C(=O)N2CCN(Cc3cccc([N-]C(=O)c4cccc(C(F)(F)F)n4)c3)CC2)cnn1C (nonaromatic ring conformer: 110.62343218995352 kcal/mol)

>  <smiles>  (83) 
CCOc1c(C(=O)N2CCN(Cc3cccc(NC(=O)c4cccc(C(F)(F)F)n4)c3)CC2)cnn1C

>  <score_type>  (83) 
oracle

>  <origin>  (83) 
adg

>  <m_score__min__energy>  (83) 
-10.67

>  <m_primary>  (83) 
energy

$$$$
83:0
     RDKit          3D

 43 46  0  0  0  0  0  0  0  0999 V2000
   56.9100   32.4050   52.1000 O   0  0  0  0  0  0  0  0  0  0  0  0
   56.7000   31.3020   51.5250 C   0  0  0  0  0  0  0  0  0  0  0  0
   55.4340   30.6470   51.6580 N   0  0  0  0  0  0  0  0  0  0  0  0
   54.8920   30.0780   52.8620 C   0  0  0  0  0  0  0  0  0  0  0  0
   55.7340   29.6530   53.9070 C   0  0  0  0  0  0  0  0  0  0  0  0
   55.1930   29.0950   55.0680 C   0  0  0  0  0  0  0  0  0  0  0  0
   53.8120   28.9480   55.1960 C   0  0  0  0  0  0  0  0  0  0  0  0
   52.9670   29.3440   54.1580 C   0  0  0  0  0  0  0  0  0  0  0  0
   53.4960   29.8940   52.9780 C   0  0  0  0  0  0  0  0  0  0  0  0
   52.5590   30.3420   51.8830 C   0  0  0  0  0  0  0  0  0  0  0  0
   51.6800   31.4520   52.3720 C   0  0  0  0  0  0  0  0  0  0  0  0
   51.3830   31.6650   53.6650 N   0  0  0  0  0  0  0  0  0  0  0  0
   50.5270   32.7090   53.6190 C   0  0  0  0  0  0  0  0  0  0  0  0
   50.0210   33.2180   54.6540 O   0  0  0  0  0  0  0  0  0  0  0  0
   50.2530   33.1640   52.3770 N   0  0  0  0  0  0  0  0  0  0  0  0
   50.9880   32.3520   51.5990 C   0  0  0  0  0  0  0  0  0  0  0  0
   51.0190   32.4310   50.2130 O   0  0  0  0  0  0  0  0  0  0  0  0
   57.6880   30.7380   50.6520 N   0  0  0  0  0  0  0  0  0  0  0  0
   59.0440   31.2070   50.5540 C   0  0  0  0  0  0  0  0  0  0  0  0
   59.2940   32.4780   50.0190 C   0  0  0  0  0  0  0  0  0  0  0  0
   60.6040   32.9510   49.8950 C   0  0  0  0  0  0  0  0  0  0  0  0
   61.6860   32.1470   50.2820 C   0  0  0  0  0  0  0  0  0  0  0  0
   63.0920   32.6680   50.1830 C   0  0  0  0  0  0  0  0  0  0  0  0
   63.4130   33.0070   48.7620 C   0  0  0  0  0  0  0  0  0  0  0  0
   63.3670   34.2500   48.2500 N   0  0  0  0  0  0  0  0  0  0  0  0
   63.6570   34.0940   46.9690 N   0  0  0  0  0  0  0  0  0  0  0  0
   63.8610   32.8110   46.7090 N   0  0  0  0  0  0  0  0  0  0  0  0
   63.7090   32.1000   47.8140 N   0  0  0  0  0  0  0  0  0  0  0  0
   61.4390   30.8700   50.8070 C   0  0  0  0  0  0  0  0  0  0  0  0
   60.1300   30.3970   50.9320 C   0  0  0  0  0  0  0  0  0  0  0  0
   56.8243   29.7609   53.8089 H   0  0  0  0  0  0  0  0  0  0  0  0
   55.8574   28.7710   55.8826 H   0  0  0  0  0  0  0  0  0  0  0  0
   53.3882   28.5194   56.1162 H   0  0  0  0  0  0  0  0  0  0  0  0
   51.8787   29.2246   54.2645 H   0  0  0  0  0  0  0  0  0  0  0  0
   53.1478   30.6970   51.0244 H   0  0  0  0  0  0  0  0  0  0  0  0
   51.9283   29.4924   51.5823 H   0  0  0  0  0  0  0  0  0  0  0  0
   57.3710   29.9960   49.9860 H   0  0  0  0  0  0  0  0  0  0  0  0
   58.4531   33.1084   49.6941 H   0  0  0  0  0  0  0  0  0  0  0  0
   60.7867   33.9581   49.4921 H   0  0  0  0  0  0  0  0  0  0  0  0
   63.1906   33.5705   50.8040 H   0  0  0  0  0  0  0  0  0  0  0  0
   63.7895   31.8942   50.5361 H   0  0  0  0  0  0  0  0  0  0  0  0
   62.2812   30.2367   51.1224 H   0  0  0  0  0  0  0  0  0  0  0  0
   59.9482   29.3869   51.3277 H   0  0  0  0  0  0  0  0  0  0  0  0
  1  2  2  0
  2  3  1  0
  3  4  1  0
  4  5  2  0
  5  6  1  0
  6  7  2  0
  7  8  1  0
  8  9  2  0
  9 10  1  0
 10 11  1  0
 11 12  1  0
 12 13  1  0
 13 14  2  0
 13 15  1  0
 15 16  1  0
 16 17  1  0
  2 18  1  0
 18 19  1  0
 19 20  2  0
 20 21  1  0
 21 22  2  0
 22 23  1  0
 23 24  1  0
 24 25  1  0
 25 26  2  0
 26 27  1  0
 27 28  1  0
 22 29  1  0
 29 30  2  0
  9  4  1  0
 16 11  2  0
 30 19  1  0
 28 24  2  0
  5 31  1  0
  6 32  1  0
  7 33  1  0
  8 34  1  0
 10 35  1  0
 10 36  1  0
 18 37  1  0
 20 38  1  0
 21 39  1  0
 23 40  1  0
 23 41  1  0
 29 42  1  0
 30 43  1  0
M  CHG  5   3  -1  12  -1  15  -1  17  -1  27  -1
M  END
>  <UniqueID>  (84) 
82

>  <SMILES>  (84) 
O=C([N-]c1ccccc1Cc1[n-]c(=O)[n-]c1[O-])Nc1ccc(Cc2nn[n-]n2)cc1

>  <Energy>  (84) 
118.56178068296714

>  <Genealogy>  (84) 
O=C([N-]c1ccccc1Cc1[n-]c(=O)[n-]c1[O-])Nc1ccc(Cc2nn[n-]n2)cc1 (protonated)
O=C([N-]c1ccccc1Cc1[n-]c(=O)[n-]c1[O-])Nc1ccc(Cc2nn[n-]n2)cc1 (3D coordinates assigned)
O=C([N-]c1ccccc1Cc1[n-]c(=O)[n-]c1[O-])Nc1ccc(Cc2nn[n-]n2)cc1 (optimized conformer: 118.56178068296714 kcal/mol)

>  <smiles>  (84) 
O=C(Nc1ccc(Cc2nn[nH]n2)cc1)Nc1ccccc1Cc1[nH]c(=O)[nH]c1O

>  <score_type>  (84) 
oracle

>  <origin>  (84) 
adg

>  <m_score__min__energy>  (84) 
-19.670000000000002

>  <m_primary>  (84) 
energy

$$$$
84:0
     RDKit          3D

 42 44  0  0  0  0  0  0  0  0999 V2000
   59.6650   33.9990   48.1470 C   0  0  0  0  0  0  0  0  0  0  0  0
   61.0710   33.9220   48.5200 N   0  0  0  0  0  0  0  0  0  0  0  0
   61.9110   32.7790   48.3150 C   0  0  0  0  0  0  0  0  0  0  0  0
   63.1580   32.9180   48.4140 O   0  0  0  0  0  0  0  0  0  0  0  0
   61.3610   31.4390   48.0300 C   0  0  0  0  0  0  0  0  0  0  0  0
   60.9810   31.0770   46.7280 C   0  0  0  0  0  0  0  0  0  0  0  0
   60.4720   29.8010   46.4690 C   0  0  0  0  0  0  0  0  0  0  0  0
   60.3550   28.8650   47.5050 C   0  0  0  0  0  0  0  0  0  0  0  0
   59.6880   27.2670   47.1970 S   0  0  0  0  0  0  0  0  0  0  0  0
   59.6380   26.4940   48.4860 O   0  0  0  0  0  0  0  0  0  0  0  0
   60.5500   26.5120   46.2240 O   0  0  0  0  0  0  0  0  0  0  0  0
   58.0930   27.4330   46.5460 N   0  0  0  0  0  0  0  0  0  0  0  0
   57.6540   28.4370   45.7590 C   0  0  0  0  0  0  0  0  0  0  0  0
   56.3330   28.2040   45.4200 C   0  0  0  0  0  0  0  0  0  0  0  0
   55.5550   29.0190   44.5350 N   0  0  0  0  0  0  0  0  0  0  0  0
   56.0830   29.9290   43.5630 C   0  0  0  0  0  0  0  0  0  0  0  0
   55.9400   29.6560   42.3420 O   0  0  0  0  0  0  0  0  0  0  0  0
   56.8510   31.1300   43.9610 C   0  0  0  0  0  0  0  0  0  0  0  0
   57.7450   31.7440   43.0670 C   0  0  0  0  0  0  0  0  0  0  0  0
   58.4630   32.8690   43.4770 C   0  0  0  0  0  0  0  0  0  0  0  0
   58.2920   33.3700   44.7680 C   0  0  0  0  0  0  0  0  0  0  0  0
   57.4040   32.7320   45.6350 C   0  0  0  0  0  0  0  0  0  0  0  0
   56.7140   31.6370   45.2180 N   0  0  0  0  0  0  0  0  0  0  0  0
   55.9770   26.9970   45.9920 C   0  0  0  0  0  0  0  0  0  0  0  0
   54.7660   26.3280   45.8590 O   0  0  0  0  0  0  0  0  0  0  0  0
   57.0810   26.5540   46.6850 C   0  0  0  0  0  0  0  0  0  0  0  0
   57.1700   25.3700   47.4110 O   0  0  0  0  0  0  0  0  0  0  0  0
   60.7480   29.2170   48.8030 C   0  0  0  0  0  0  0  0  0  0  0  0
   61.2580   30.4930   49.0620 C   0  0  0  0  0  0  0  0  0  0  0  0
   59.0459   34.0329   49.0556 H   0  0  0  0  0  0  0  0  0  0  0  0
   59.4928   34.9079   47.5519 H   0  0  0  0  0  0  0  0  0  0  0  0
   59.3946   33.1143   47.5519 H   0  0  0  0  0  0  0  0  0  0  0  0
   61.0843   31.8016   45.9068 H   0  0  0  0  0  0  0  0  0  0  0  0
   60.1624   29.5310   45.4486 H   0  0  0  0  0  0  0  0  0  0  0  0
   58.2513   29.3031   45.4379 H   0  0  0  0  0  0  0  0  0  0  0  0
   57.8780   31.3413   42.0521 H   0  0  0  0  0  0  0  0  0  0  0  0
   59.1621   33.3594   42.7837 H   0  0  0  0  0  0  0  0  0  0  0  0
   58.8509   34.2579   45.0986 H   0  0  0  0  0  0  0  0  0  0  0  0
   57.2621   33.1151   46.6563 H   0  0  0  0  0  0  0  0  0  0  0  0
   56.3810   24.7390   47.4800 H   0  0  0  0  0  0  0  0  0  0  0  0
   60.6551   28.4873   49.6209 H   0  0  0  0  0  0  0  0  0  0  0  0
   61.5803   30.7569   50.0801 H   0  0  0  0  0  0  0  0  0  0  0  0
  1  2  1  0
  2  3  1  0
  3  4  2  0
  3  5  1  0
  5  6  2  0
  6  7  1  0
  7  8  2  0
  8  9  1  0
  9 10  2  0
  9 11  2  0
  9 12  1  0
 12 13  1  0
 13 14  2  0
 14 15  1  0
 15 16  1  0
 16 17  2  0
 16 18  1  0
 18 19  2  0
 19 20  1  0
 20 21  2  0
 21 22  1  0
 22 23  2  0
 14 24  1  0
 24 25  1  0
 24 26  2  0
 26 27  1  0
  8 28  1  0
 28 29  2  0
 29  5  1  0
 26 12  1  0
 23 18  1  0
  1 30  1  0
  1 31  1  0
  1 32  1  0
  6 33  1  0
  7 34  1  0
 13 35  1  0
 19 36  1  0
 20 37  1  0
 21 38  1  0
 22 39  1  0
 27 40  1  0
 28 41  1  0
 29 42  1  0
M  CHG  3   2  -1  15  -1  25  -1
M  END
>  <UniqueID>  (85) 
83

>  <SMILES>  (85) 
C[N-]C(=O)c1ccc(S(=O)(=O)n2cc([N-]C(=O)c3ccccn3)c([O-])c2O)cc1

>  <Energy>  (85) 
85.73321818967113

>  <Genealogy>  (85) 
C[N-]C(=O)c1ccc(S(=O)(=O)n2cc([N-]C(=O)c3ccccn3)c([O-])c2O)cc1 (protonated)
C[N-]C(=O)c1ccc(S(=O)(=O)n2cc([N-]C(=O)c3ccccn3)c([O-])c2O)cc1 (3D coordinates assigned)
C[N-]C(=O)c1ccc(S(=O)(=O)n2cc([N-]C(=O)c3ccccn3)c([O-])c2O)cc1 (optimized conformer: 85.73321818967113 kcal/mol)

>  <smiles>  (85) 
CNC(=O)c1ccc(S(=O)(=O)n2cc(NC(=O)c3ccccn3)c(O)c2O)cc1

>  <score_type>  (85) 
oracle

>  <origin>  (85) 
adg

>  <m_score__min__energy>  (85) 
-14.470000000000001

>  <m_primary>  (85) 
energy

$$$$
85:0
     RDKit          3D

 14 14  0  0  0  0  0  0  0  0999 V2000
   50.3150   34.4170   52.6610 N   0  0  0  0  0  0  0  0  0  0  0  0
   50.0490   33.2400   53.4160 C   0  0  0  0  0  0  0  0  0  0  0  0
   49.9410   33.3140   54.6690 O   0  0  0  0  0  0  0  0  0  0  0  0
   49.9620   31.9810   52.7440 N   0  0  0  0  0  0  0  0  0  0  0  0
   51.0080   31.3550   51.9900 C   0  0  0  0  0  0  0  0  0  0  0  0
   51.3340   31.5190   50.6590 C   0  0  0  0  0  0  0  0  0  0  0  0
   50.6940   32.3220   49.7230 O   0  0  0  0  0  0  0  0  0  0  0  0
   52.4680   30.7660   50.4330 C   0  0  0  0  0  0  0  0  0  0  0  0
   52.8350   30.1880   51.5580 O   0  0  0  0  0  0  0  0  0  0  0  0
   51.9870   30.5320   52.5030 C   0  0  0  0  0  0  0  0  0  0  0  0
   52.0900   30.1110   53.8250 O   0  0  0  0  0  0  0  0  0  0  0  0
   50.6140   34.3580   51.6620 H   0  0  0  0  0  0  0  0  0  0  0  0
   52.9836   30.6646   49.4666 H   0  0  0  0  0  0  0  0  0  0  0  0
   51.5080   30.5130   54.5490 H   0  0  0  0  0  0  0  0  0  0  0  0
  1  2  1  0
  2  3  2  0
  2  4  1  0
  4  5  1  0
  5  6  1  0
  6  7  1  0
  6  8  2  0
  8  9  1  0
  9 10  1  0
 10 11  1  0
 10  5  2  0
  1 12  1  0
  8 13  1  0
 11 14  1  0
M  CHG  3   1  -1   4  -1   7  -1
M  END
>  <UniqueID>  (86) 
84

>  <SMILES>  (86) 
[NH-]C(=O)[N-]c1c([O-])coc1O

>  <Energy>  (86) 
44.75690678358912

>  <Genealogy>  (86) 
[NH-]C(=O)[N-]c1c([O-])coc1O (protonated)
[NH-]C(=O)[N-]c1c([O-])coc1O (3D coordinates assigned)
[NH-]C(=O)[N-]c1c([O-])coc1O (optimized conformer: 44.75690678358912 kcal/mol)

>  <smiles>  (86) 
NC(=O)Nc1c(O)coc1O

>  <score_type>  (86) 
oracle

>  <origin>  (86) 
adg

>  <m_score__min__energy>  (86) 
-14.15

>  <m_primary>  (86) 
energy

$$$$
86:0
     RDKit          3D

 44 47  0  0  1  0  0  0  0  0999 V2000
   59.2640   35.4300   44.8640 C   0  0  0  0  0  0  0  0  0  0  0  0
   59.1060   34.5010   46.0040 C   0  0  0  0  0  0  0  0  0  0  0  0
   59.4890   34.9280   47.2150 N   0  0  0  0  0  0  0  0  0  0  0  0
   59.3520   34.1070   48.2630 C   0  0  0  0  0  0  0  0  0  0  0  0
   59.7470   34.6020   49.4650 N   0  0  0  0  0  0  0  0  0  0  0  0
   59.6160   33.8170   50.5500 C   0  0  0  0  0  0  0  0  0  0  0  0
   59.1100   32.5510   50.5370 C   0  0  0  0  0  0  0  0  0  0  0  0
   58.6950   32.0250   49.2920 C   0  0  0  0  0  0  0  0  0  0  0  0
   58.8440   32.8350   48.2130 C   0  0  0  0  0  0  0  0  0  0  0  0
   58.4510   32.3720   46.9850 C   0  0  0  0  0  0  0  0  0  0  0  0
   58.1160   31.2130   46.7770 N   0  0  0  0  0  0  0  0  0  0  0  0
   58.8670   30.0830   46.4650 C   0  0  0  0  0  0  0  0  0  0  0  0
   60.3360   30.2440   46.1870 C   0  0  0  0  0  0  0  0  0  0  0  0
   61.0780   30.6290   47.4130 C   0  0  0  0  0  0  0  0  0  0  0  0
   61.1270   29.9500   48.6350 C   0  0  0  0  0  0  0  0  0  0  0  0
   61.9060   30.6230   49.5000 N   0  0  0  0  0  0  0  0  0  0  0  0
   62.3680   31.7220   48.8770 C   0  0  0  0  0  0  0  0  0  0  0  0
   63.2080   32.7300   49.3510 C   0  0  0  0  0  0  0  0  0  0  0  0
   63.5550   33.7790   48.5210 C   0  0  0  0  0  0  0  0  0  0  0  0
   63.0680   33.8220   47.2320 C   0  0  0  0  0  0  0  0  0  0  0  0
   62.2320   32.8070   46.7800 C   0  0  0  0  0  0  0  0  0  0  0  0
   61.8640   31.7420   47.5830 C   0  0  0  0  0  0  0  0  0  0  0  0
   58.5880   33.2280   45.8890 C   0  0  0  0  0  0  0  0  0  0  0  0
   58.1760   32.8000   44.5270 C   0  0  0  0  0  0  0  0  0  0  0  0
   59.4372   36.4483   45.2421 H   0  0  0  0  0  0  0  0  0  0  0  0
   60.1216   35.1157   44.2510 H   0  0  0  0  0  0  0  0  0  0  0  0
   58.3507   35.4169   44.2510 H   0  0  0  0  0  0  0  0  0  0  0  0
   59.8910   35.8980   47.3330 H   0  0  0  0  0  0  0  0  0  0  0  0
   59.9408   34.2265   51.5179 H   0  0  0  0  0  0  0  0  0  0  0  0
   59.0277   31.9604   51.4614 H   0  0  0  0  0  0  0  0  0  0  0  0
   58.2736   31.0129   49.2025 H   0  0  0  0  0  0  0  0  0  0  0  0
   58.7725   29.3879   47.3123 H   0  0  0  0  0  0  0  0  0  0  0  0
   58.4502   29.7430   45.5055 H   0  0  0  0  0  0  0  0  0  0  0  0
   60.7360   29.2909   45.8106 H   0  0  0  0  0  0  0  0  0  0  0  0
   60.4625   31.0414   45.4400 H   0  0  0  0  0  0  0  0  0  0  0  0
   60.6061   29.0065   48.8554 H   0  0  0  0  0  0  0  0  0  0  0  0
   62.0940   30.3050   50.4830 H   0  0  0  0  0  0  0  0  0  0  0  0
   63.5924   32.6900   50.3809 H   0  0  0  0  0  0  0  0  0  0  0  0
   64.2175   34.5769   48.8876 H   0  0  0  0  0  0  0  0  0  0  0  0
   63.3390   34.6539   46.5653 H   0  0  0  0  0  0  0  0  0  0  0  0
   61.8503   32.8522   45.7493 H   0  0  0  0  0  0  0  0  0  0  0  0
   57.4151   32.0095   44.6056 H   0  0  0  0  0  0  0  0  0  0  0  0
   57.7569   33.6597   43.9836 H   0  0  0  0  0  0  0  0  0  0  0  0
   59.0510   32.4139   43.9836 H   0  0  0  0  0  0  0  0  0  0  0  0
  1  2  1  0
  2  3  1  0
  3  4  1  0
  4  5  2  0
  5  6  1  0
  6  7  2  0
  7  8  1  0
  8  9  2  0
  9 10  1  0
 10 11  2  0
 11 12  1  0
 12 13  1  0
 13 14  1  0
 14 15  2  0
 15 16  1  0
 16 17  1  0
 17 18  2  0
 18 19  1  0
 19 20  2  0
 20 21  1  0
 21 22  2  0
 10 23  1  0
 23 24  1  0
 23  2  2  0
  9  4  1  0
 22 14  1  0
 22 17  1  0
  1 25  1  0
  1 26  1  0
  1 27  1  0
  3 28  1  0
  6 29  1  0
  7 30  1  0
  8 31  1  0
 12 32  1  0
 12 33  1  0
 13 34  1  0
 13 35  1  0
 15 36  1  0
 16 37  1  0
 18 38  1  0
 19 39  1  0
 20 40  1  0
 21 41  1  0
 24 42  1  0
 24 43  1  0
 24 44  1  0
M  END
>  <smiles>  (87) 
Cc1[nH]c2ncccc2c(=NCCc2c[nH]c3ccccc23)c1C

>  <score_type>  (87) 
oracle

>  <origin>  (87) 
adg

>  <m_score__min__energy>  (87) 
-8.4000000000000004

>  <m_primary>  (87) 
energy

$$$$
87:0
     RDKit          3D

 37 40  0  0  0  0  0  0  0  0999 V2000
   58.5148   24.3131   46.8352 H   0  0  0  0  0  0  0  0  0  0  0  0
   57.9760   25.2160   46.5120 C   0  0  0  0  0  0  0  0  0  0  0  0
   58.6870   26.3640   46.1600 C   0  0  0  0  0  0  0  0  0  0  0  0
   59.7856   26.3680   46.2147 H   0  0  0  0  0  0  0  0  0  0  0  0
   58.0050   27.5090   45.7380 C   0  0  0  0  0  0  0  0  0  0  0  0
   58.5680   28.4185   45.4815 H   0  0  0  0  0  0  0  0  0  0  0  0
   56.6010   27.5030   45.6400 C   0  0  0  0  0  0  0  0  0  0  0  0
   55.8750   28.6750   45.2380 N   0  0  0  0  0  0  0  0  0  0  0  0
   56.3670   29.7020   44.6070 C   0  0  0  0  0  0  0  0  0  0  0  0
   56.0940   29.9480   43.3070 N   0  0  0  0  0  0  0  0  0  0  0  0
   56.7220   31.0230   42.8350 N   0  0  0  0  0  0  0  0  0  0  0  0
   57.5020   31.6310   43.7550 C   0  0  0  0  0  0  0  0  0  0  0  0
   58.4810   33.0950   43.4260 S   0  0  0  0  0  0  0  0  0  0  0  0
   57.8760   34.0340   44.8750 C   0  0  0  0  0  0  0  0  0  0  0  0
   57.4384   33.3292   45.5974 H   0  0  0  0  0  0  0  0  0  0  0  0
   57.1271   34.7582   44.5219 H   0  0  0  0  0  0  0  0  0  0  0  0
   58.9760   34.7970   45.5490 C   0  0  0  0  0  0  0  0  0  0  0  0
   59.5150   35.7600   44.9420 O   0  0  0  0  0  0  0  0  0  0  0  0
   59.4270   34.3910   46.8520 N   0  0  0  0  0  0  0  0  0  0  0  0
   59.4840   33.1770   47.3170 C   0  0  0  0  0  0  0  0  0  0  0  0
   60.2320   32.2200   46.7160 N   0  0  0  0  0  0  0  0  0  0  0  0
   60.0930   31.0260   47.3480 C   0  0  0  0  0  0  0  0  0  0  0  0
   60.7310   29.8490   46.9560 C   0  0  0  0  0  0  0  0  0  0  0  0
   61.4069   29.8396   46.0882 H   0  0  0  0  0  0  0  0  0  0  0  0
   60.4930   28.6750   47.6920 C   0  0  0  0  0  0  0  0  0  0  0  0
   60.9869   27.7369   47.3988 H   0  0  0  0  0  0  0  0  0  0  0  0
   59.6250   28.6920   48.8040 C   0  0  0  0  0  0  0  0  0  0  0  0
   59.4456   27.7674   49.3723 H   0  0  0  0  0  0  0  0  0  0  0  0
   58.9890   29.8830   49.1890 C   0  0  0  0  0  0  0  0  0  0  0  0
   58.3115   29.9086   50.0552 H   0  0  0  0  0  0  0  0  0  0  0  0
   59.2410   31.0310   48.4420 C   0  0  0  0  0  0  0  0  0  0  0  0
   58.6200   32.5740   48.6540 S   0  0  0  0  0  0  0  0  0  0  0  0
   57.4600   30.8280   45.2340 S   0  0  0  0  0  0  0  0  0  0  0  0
   55.8920   26.3550   46.0270 C   0  0  0  0  0  0  0  0  0  0  0  0
   54.5020   26.3420   45.9800 O   0  0  0  0  0  0  0  0  0  0  0  0
   56.5790   25.2130   46.4540 C   0  0  0  0  0  0  0  0  0  0  0  0
   56.0192   24.3117   46.7444 H   0  0  0  0  0  0  0  0  0  0  0  0
  1  2  1  0
  2  3  2  0
  3  4  1  0
  3  5  1  0
  5  6  1  0
  5  7  2  0
  7  8  1  0
  8  9  2  0
  9 10  1  0
 10 11  1  0
 11 12  2  0
 12 13  1  0
 13 14  1  0
 14 15  1  0
 14 16  1  0
 14 17  1  0
 17 18  2  0
 17 19  1  0
 19 20  2  0
 20 21  1  0
 21 22  1  0
 22 23  2  0
 23 24  1  0
 23 25  1  0
 25 26  1  0
 25 27  2  0
 27 28  1  0
 27 29  1  0
 29 30  1  0
 29 31  2  0
 31 32  1  0
 12 33  1  0
  7 34  1  0
 34 35  1  0
 34 36  2  0
 36 37  1  0
 36  2  1  0
 33  9  1  0
 32 20  1  0
 31 22  1  0
M  CHG  3  10  -1  21  -1  35  -1
M  END
>  <UniqueID>  (88) 
85

>  <SMILES>  (88) 
O=C(CSc1n[n-]/c(=N/c2ccccc2[O-])s1)/N=c1/[n-]c2ccccc2s1

>  <Energy>  (88) 
115.0319768712673

>  <Genealogy>  (88) 
O=C(CSc1n[n-]c(=Nc2ccccc2[O-])s1)N=c1[n-]c2ccccc2s1 (protonated)
O=C(CSc1n[n-]/c(=N/c2ccccc2[O-])s1)/N=c1/[n-]c2ccccc2s1 (cis-trans isomerization)
O=C(CSc1n[n-]/c(=N/c2ccccc2[O-])s1)/N=c1/[n-]c2ccccc2s1 (3D coordinates assigned)
O=C(CSc1n[n-]/c(=N/c2ccccc2[O-])s1)/N=c1/[n-]c2ccccc2s1 (optimized conformer: 115.0319768712673 kcal/mol)

>  <smiles>  (88) 
O=C(CSc1n[nH]c(=Nc2ccccc2O)s1)N=c1[nH]c2ccccc2s1

>  <score_type>  (88) 
oracle

>  <origin>  (88) 
adg

>  <m_score__min__energy>  (88) 
-16.25

>  <m_primary>  (88) 
energy

$$$$
88:0
     RDKit          3D

 39 41  0  0  0  0  0  0  0  0999 V2000
   60.6150   28.8330   44.3860 O   0  0  0  0  0  0  0  0  0  0  0  0
   60.0110   29.5100   45.2580 C   0  0  0  0  0  0  0  0  0  0  0  0
   60.7430   29.9780   46.3990 N   0  0  0  0  0  0  0  0  0  0  0  0
   60.2910   29.9130   47.7870 C   0  0  0  0  0  0  0  0  0  0  0  0
   59.0550   30.7890   48.0210 C   0  0  0  0  0  0  0  0  0  0  0  0
   59.2440   32.1780   47.4660 C   0  0  0  0  0  0  0  0  0  0  0  0
   60.5240   32.7530   47.4110 C   0  0  0  0  0  0  0  0  0  0  0  0
   60.6920   34.0520   46.9220 C   0  0  0  0  0  0  0  0  0  0  0  0
   59.5840   34.7860   46.4900 C   0  0  0  0  0  0  0  0  0  0  0  0
   58.3060   34.2230   46.5480 C   0  0  0  0  0  0  0  0  0  0  0  0
   58.1340   32.9250   47.0370 C   0  0  0  0  0  0  0  0  0  0  0  0
   58.5850   29.8200   45.0590 C   0  0  0  0  0  0  0  0  0  0  0  0
   58.0960   31.0110   44.5590 C   0  0  0  0  0  0  0  0  0  0  0  0
   56.7510   30.9820   44.4860 N   0  0  0  0  0  0  0  0  0  0  0  0
   56.3880   29.7620   44.9260 C   0  0  0  0  0  0  0  0  0  0  0  0
   55.0610   29.3380   44.9380 O   0  0  0  0  0  0  0  0  0  0  0  0
   57.4900   29.0060   45.2970 C   0  0  0  0  0  0  0  0  0  0  0  0
   57.4980   27.6000   45.7560 C   0  0  0  0  0  0  0  0  0  0  0  0
   58.7110   26.9610   46.0670 C   0  0  0  0  0  0  0  0  0  0  0  0
   58.7180   25.6240   46.4770 C   0  0  0  0  0  0  0  0  0  0  0  0
   57.5190   24.9140   46.5750 C   0  0  0  0  0  0  0  0  0  0  0  0
   56.3080   25.5400   46.2630 C   0  0  0  0  0  0  0  0  0  0  0  0
   55.1160   24.8330   46.3600 O   0  0  0  0  0  0  0  0  0  0  0  0
   56.2960   26.8770   45.8530 C   0  0  0  0  0  0  0  0  0  0  0  0
   60.0408   28.8703   48.0322 H   0  0  0  0  0  0  0  0  0  0  0  0
   61.1022   30.2848   48.4302 H   0  0  0  0  0  0  0  0  0  0  0  0
   58.1890   30.3228   47.5283 H   0  0  0  0  0  0  0  0  0  0  0  0
   58.8933   30.8718   49.1059 H   0  0  0  0  0  0  0  0  0  0  0  0
   61.3977   32.1793   47.7539 H   0  0  0  0  0  0  0  0  0  0  0  0
   61.6971   34.4966   46.8773 H   0  0  0  0  0  0  0  0  0  0  0  0
   59.7177   35.8074   46.1041 H   0  0  0  0  0  0  0  0  0  0  0  0
   57.4346   34.8021   46.2084 H   0  0  0  0  0  0  0  0  0  0  0  0
   57.1262   32.4868   47.0862 H   0  0  0  0  0  0  0  0  0  0  0  0
   58.7197   31.8667   44.2610 H   0  0  0  0  0  0  0  0  0  0  0  0
   54.7700   28.4700   44.5100 H   0  0  0  0  0  0  0  0  0  0  0  0
   59.6581   27.5147   45.9876 H   0  0  0  0  0  0  0  0  0  0  0  0
   59.6698   25.1304   46.7229 H   0  0  0  0  0  0  0  0  0  0  0  0
   57.5274   23.8624   46.8976 H   0  0  0  0  0  0  0  0  0  0  0  0
   55.3419   27.3652   45.6053 H   0  0  0  0  0  0  0  0  0  0  0  0
  1  2  2  0
  2  3  1  0
  3  4  1  0
  4  5  1  0
  5  6  1  0
  6  7  2  0
  7  8  1  0
  8  9  2  0
  9 10  1  0
 10 11  2  0
  2 12  1  0
 12 13  2  0
 13 14  1  0
 14 15  1  0
 15 16  1  0
 15 17  2  0
 17 18  1  0
 18 19  2  0
 19 20  1  0
 20 21  2  0
 21 22  1  0
 22 23  1  0
 22 24  2  0
 11  6  1  0
 17 12  1  0
 24 18  1  0
  4 25  1  0
  4 26  1  0
  5 27  1  0
  5 28  1  0
  7 29  1  0
  8 30  1  0
  9 31  1  0
 10 32  1  0
 11 33  1  0
 13 34  1  0
 16 35  1  0
 19 36  1  0
 20 37  1  0
 21 38  1  0
 24 39  1  0
M  CHG  3   3  -1  14  -1  23  -1
M  END
>  <UniqueID>  (89) 
86

>  <SMILES>  (89) 
O=C([N-]CCc1ccccc1)c1c[n-]c(O)c1-c1cccc([O-])c1

>  <Energy>  (89) 
73.10992440585483

>  <Genealogy>  (89) 
O=C([N-]CCc1ccccc1)c1c[n-]c(O)c1-c1cccc([O-])c1 (protonated)
O=C([N-]CCc1ccccc1)c1c[n-]c(O)c1-c1cccc([O-])c1 (3D coordinates assigned)
O=C([N-]CCc1ccccc1)c1c[n-]c(O)c1-c1cccc([O-])c1 (optimized conformer: 73.10992440585483 kcal/mol)

>  <smiles>  (89) 
O=C(NCCc1ccccc1)c1c[nH]c(O)c1-c1cccc(O)c1

>  <score_type>  (89) 
oracle

>  <origin>  (89) 
adg

>  <m_score__min__energy>  (89) 
-13.300000000000001

>  <m_primary>  (89) 
energy

$$$$
89:0
     RDKit          3D

 42 44  0  0  0  0  0  0  0  0999 V2000
   64.3910   31.9910   49.6450 C   0  0  0  0  0  0  0  0  0  0  0  0
   63.5590   32.5060   48.5120 C   0  0  0  0  0  0  0  0  0  0  0  0
   64.0860   33.0170   47.3800 N   0  0  0  0  0  0  0  0  0  0  0  0
   63.0380   33.4010   46.6310 C   0  0  0  0  0  0  0  0  0  0  0  0
   61.8750   33.1080   47.3170 C   0  0  0  0  0  0  0  0  0  0  0  0
   60.5130   33.3880   46.8190 C   0  0  0  0  0  0  0  0  0  0  0  0
   59.8420   34.5760   47.1380 C   0  0  0  0  0  0  0  0  0  0  0  0
   58.5470   34.7620   46.6560 C   0  0  0  0  0  0  0  0  0  0  0  0
   57.9580   33.7970   45.9070 N   0  0  0  0  0  0  0  0  0  0  0  0
   58.6120   32.6410   45.6110 C   0  0  0  0  0  0  0  0  0  0  0  0
   57.9960   31.6300   44.8640 O   0  0  0  0  0  0  0  0  0  0  0  0
   58.0930   30.2560   45.1290 C   0  0  0  0  0  0  0  0  0  0  0  0
   59.3660   29.6810   45.2230 C   0  0  0  0  0  0  0  0  0  0  0  0
   59.5070   28.3160   45.4770 C   0  0  0  0  0  0  0  0  0  0  0  0
   58.3770   27.5080   45.6230 C   0  0  0  0  0  0  0  0  0  0  0  0
   57.0900   28.0640   45.5060 C   0  0  0  0  0  0  0  0  0  0  0  0
   55.9000   27.2720   45.6260 N   0  0  0  0  0  0  0  0  0  0  0  0
   55.8400   25.5470   45.7950 S   0  0  0  0  0  0  0  0  0  0  0  0
   56.7820   25.0350   47.2150 C   0  0  0  0  0  0  0  0  0  0  0  0
   56.4400   24.9210   44.5680 O   0  0  0  0  0  0  0  0  0  0  0  0
   54.4140   25.0910   45.9210 O   0  0  0  0  0  0  0  0  0  0  0  0
   56.9570   29.4360   45.2580 C   0  0  0  0  0  0  0  0  0  0  0  0
   59.8720   32.4430   46.0790 N   0  0  0  0  0  0  0  0  0  0  0  0
   62.2070   32.5680   48.5150 N   0  0  0  0  0  0  0  0  0  0  0  0
   61.3160   32.1700   49.6070 C   0  0  0  0  0  0  0  0  0  0  0  0
   63.9274   32.2780   50.6004 H   0  0  0  0  0  0  0  0  0  0  0  0
   64.4558   30.8946   49.5836 H   0  0  0  0  0  0  0  0  0  0  0  0
   65.4012   32.4220   49.5836 H   0  0  0  0  0  0  0  0  0  0  0  0
   65.0970   33.1050   47.1350 H   0  0  0  0  0  0  0  0  0  0  0  0
   63.0965   33.8702   45.6378 H   0  0  0  0  0  0  0  0  0  0  0  0
   60.3269   35.3460   47.7560 H   0  0  0  0  0  0  0  0  0  0  0  0
   58.0034   35.6909   46.8831 H   0  0  0  0  0  0  0  0  0  0  0  0
   60.2603   30.3088   45.0959 H   0  0  0  0  0  0  0  0  0  0  0  0
   60.5111   27.8750   45.5625 H   0  0  0  0  0  0  0  0  0  0  0  0
   58.4937   26.4340   45.8300 H   0  0  0  0  0  0  0  0  0  0  0  0
   56.2489   25.3247   48.1325 H   0  0  0  0  0  0  0  0  0  0  0  0
   56.9108   23.9427   47.1952 H   0  0  0  0  0  0  0  0  0  0  0  0
   57.7686   25.5210   47.1952 H   0  0  0  0  0  0  0  0  0  0  0  0
   55.9538   29.8771   45.1631 H   0  0  0  0  0  0  0  0  0  0  0  0
   61.7990   32.3857   50.5715 H   0  0  0  0  0  0  0  0  0  0  0  0
   60.3736   32.7327   49.5349 H   0  0  0  0  0  0  0  0  0  0  0  0
   61.1062   31.0926   49.5349 H   0  0  0  0  0  0  0  0  0  0  0  0
  1  2  1  0
  2  3  2  0
  3  4  1  0
  4  5  2  0
  5  6  1  0
  6  7  2  0
  7  8  1  0
  8  9  2  0
  9 10  1  0
 10 11  1  0
 11 12  1  0
 12 13  2  0
 13 14  1  0
 14 15  2  0
 15 16  1  0
 16 17  1  0
 17 18  1  0
 18 19  1  0
 18 20  2  0
 18 21  2  0
 16 22  2  0
 10 23  2  0
  5 24  1  0
 24 25  1  0
 24  2  1  0
 23  6  1  0
 22 12  1  0
  1 26  1  0
  1 27  1  0
  1 28  1  0
  3 29  1  0
  4 30  1  0
  7 31  1  0
  8 32  1  0
 13 33  1  0
 14 34  1  0
 15 35  1  0
 19 36  1  0
 19 37  1  0
 19 38  1  0
 22 39  1  0
 25 40  1  0
 25 41  1  0
 25 42  1  0
M  CHG  2   3   1  17  -1
M  END
>  <UniqueID>  (90) 
87

>  <SMILES>  (90) 
Cc1[nH+]cc(-c2ccnc(Oc3cccc([N-]S(C)(=O)=O)c3)n2)n1C

>  <Energy>  (90) 
82.81147485467908

>  <Genealogy>  (90) 
Cc1[nH+]cc(-c2ccnc(Oc3cccc([N-]S(C)(=O)=O)c3)n2)n1C (protonated)
Cc1[nH+]cc(-c2ccnc(Oc3cccc([N-]S(C)(=O)=O)c3)n2)n1C (3D coordinates assigned)
Cc1[nH+]cc(-c2ccnc(Oc3cccc([N-]S(C)(=O)=O)c3)n2)n1C (optimized conformer: 82.81147485467908 kcal/mol)

>  <smiles>  (90) 
Cc1ncc(-c2ccnc(Oc3cccc(NS(C)(=O)=O)c3)n2)n1C

>  <score_type>  (90) 
oracle

>  <origin>  (90) 
adg

>  <m_score__min__energy>  (90) 
-9.1999999999999993

>  <m_primary>  (90) 
energy

$$$$
90:0
     RDKit          3D

 60 63  0  0  1  0  0  0  0  0999 V2000
   53.9020   25.9550   45.6320 N   0  0  0  0  0  0  0  0  0  0  0  0
   54.1690   24.2710   45.4410 S   0  0  0  0  0  0  0  0  0  0  0  0
   53.6650   23.5070   46.6210 O   0  0  0  0  0  0  0  0  0  0  0  0
   53.4550   23.7620   44.2000 O   0  0  0  0  0  0  0  0  0  0  0  0
   55.8890   23.9880   45.2270 C   0  0  0  0  0  0  0  0  0  0  0  0
   56.2830   22.9100   44.4520 C   0  0  0  0  0  0  0  0  0  0  0  0
   57.6410   22.6710   44.2670 C   0  0  0  0  0  0  0  0  0  0  0  0
   58.5030   23.5360   44.8770 C   0  0  0  0  0  0  0  0  0  0  0  0
   58.1130   24.6110   45.6500 C   0  0  0  0  0  0  0  0  0  0  0  0
   59.1930   25.4750   46.2680 C   0  0  0  0  0  0  0  0  0  0  0  0
   60.5070   30.0030   48.0380 N   0  0  0  0  0  0  0  0  0  0  0  0
   59.7160   29.5890   47.1260 C   0  0  0  0  0  0  0  0  0  0  0  0
   58.0720   28.5230   45.1850 C   0  0  0  0  0  0  0  0  0  0  0  0
   57.8830   29.8100   45.6240 C   0  0  0  0  0  0  0  0  0  0  0  0
   56.9200   30.6520   45.1810 O   0  0  0  0  0  0  0  0  0  0  0  0
   57.0270   31.6500   44.2240 C   0  0  0  0  0  0  0  0  0  0  0  0
   57.7310   32.7940   44.8880 C   0  0  0  0  0  0  0  0  0  0  0  0
   58.6710   33.5480   44.2030 C   0  0  0  0  0  0  0  0  0  0  0  0
   59.3170   34.6070   44.8020 C   0  0  0  0  0  0  0  0  0  0  0  0
   59.0600   34.9610   46.1070 C   0  0  0  0  0  0  0  0  0  0  0  0
   59.6960   35.9990   46.6850 F   0  0  0  0  0  0  0  0  0  0  0  0
   58.1160   34.1920   46.7780 C   0  0  0  0  0  0  0  0  0  0  0  0
   57.4570   33.1360   46.2090 C   0  0  0  0  0  0  0  0  0  0  0  0
   58.7200   30.2920   46.5830 N   0  0  0  0  0  0  0  0  0  0  0  0
   59.0940   27.7830   45.7330 C   0  0  0  0  0  0  0  0  0  0  0  0
   59.3680   26.5830   45.3810 N   0  0  0  0  0  0  0  0  0  0  0  0
   60.3910   31.3180   48.5910 C   0  0  0  0  0  0  0  0  0  0  0  0
   61.6130   32.0910   48.1140 C   0  0  0  0  0  0  0  0  0  0  0  0
   61.3740   32.8880   47.0100 C   0  0  0  0  0  0  0  0  0  0  0  0
   62.4610   33.6130   46.5250 C   0  0  0  0  0  0  0  0  0  0  0  0
   63.6970   33.5050   47.1550 C   0  0  0  0  0  0  0  0  0  0  0  0
   63.9050   32.7050   48.2530 C   0  0  0  0  0  0  0  0  0  0  0  0
   62.8240   31.9800   48.7390 C   0  0  0  0  0  0  0  0  0  0  0  0
   59.8890   28.3240   46.6830 N   0  0  0  0  0  0  0  0  0  0  0  0
   56.7810   24.8460   45.8320 C   0  0  0  0  0  0  0  0  0  0  0  0
   56.3570   25.9160   46.6030 O   0  0  0  0  0  0  0  0  0  0  0  0
   54.3800   26.4800   44.8740 H   0  0  0  0  0  0  0  0  0  0  0  0
   54.0920   26.3110   46.5960 H   0  0  0  0  0  0  0  0  0  0  0  0
   55.5328   22.2520   43.9892 H   0  0  0  0  0  0  0  0  0  0  0  0
   58.0018   21.8277   43.6599 H   0  0  0  0  0  0  0  0  0  0  0  0
   59.5814   23.3648   44.7435 H   0  0  0  0  0  0  0  0  0  0  0  0
   58.8788   25.8270   47.2617 H   0  0  0  0  0  0  0  0  0  0  0  0
   60.1299   24.9143   46.4015 H   0  0  0  0  0  0  0  0  0  0  0  0
   57.4197   28.0924   44.4110 H   0  0  0  0  0  0  0  0  0  0  0  0
   57.6104   31.2915   43.3631 H   0  0  0  0  0  0  0  0  0  0  0  0
   56.0382   31.9521   43.8485 H   0  0  0  0  0  0  0  0  0  0  0  0
   58.9062   33.2953   43.1586 H   0  0  0  0  0  0  0  0  0  0  0  0
   60.0550   35.1828   44.2242 H   0  0  0  0  0  0  0  0  0  0  0  0
   57.8862   34.4461   47.8233 H   0  0  0  0  0  0  0  0  0  0  0  0
   56.7186   32.5636   46.7896 H   0  0  0  0  0  0  0  0  0  0  0  0
   58.5760   31.2660   46.9050 H   0  0  0  0  0  0  0  0  0  0  0  0
   59.4704   31.8020   48.2329 H   0  0  0  0  0  0  0  0  0  0  0  0
   60.3410   31.2870   49.6894 H   0  0  0  0  0  0  0  0  0  0  0  0
   60.3810   32.9467   46.5404 H   0  0  0  0  0  0  0  0  0  0  0  0
   62.3425   34.2672   45.6487 H   0  0  0  0  0  0  0  0  0  0  0  0
   64.5433   34.0844   46.7574 H   0  0  0  0  0  0  0  0  0  0  0  0
   64.8937   32.6409   48.7308 H   0  0  0  0  0  0  0  0  0  0  0  0
   62.9409   31.3253   49.6152 H   0  0  0  0  0  0  0  0  0  0  0  0
   60.6690   27.7490   47.0970 H   0  0  0  0  0  0  0  0  0  0  0  0
   55.4910   25.9290   47.1140 H   0  0  0  0  0  0  0  0  0  0  0  0
  1  2  1  0
  2  3  2  0
  2  4  2  0
  2  5  1  0
  5  6  2  0
  6  7  1  0
  7  8  2  0
  8  9  1  0
  9 10  1  0
 10 11  1  0
 11 12  2  0
 12 13  1  0
 13 14  2  0
 14 15  1  0
 15 16  1  0
 16 17  1  0
 17 18  2  0
 18 19  1  0
 19 20  2  0
 20 21  1  0
 20 22  1  0
 22 23  2  0
 14 24  1  0
 24 25  1  0
 25 26  2  0
 26 27  1  0
 27 28  1  0
 28 29  2  0
 29 30  1  0
 30 31  2  0
 31 32  1  0
 32 33  2  0
 25 34  1  0
  9 35  2  0
 35 36  1  0
 35  5  1  0
 34 12  1  0
 23 17  1  0
 33 28  1  0
  1 37  1  0
  1 38  1  0
  6 39  1  0
  7 40  1  0
  8 41  1  0
 10 42  1  0
 10 43  1  0
 13 44  1  0
 16 45  1  0
 16 46  1  0
 18 47  1  0
 19 48  1  0
 22 49  1  0
 23 50  1  0
 24 51  1  0
 27 52  1  0
 27 53  1  0
 29 54  1  0
 30 55  1  0
 31 56  1  0
 32 57  1  0
 33 58  1  0
 34 59  1  0
 36 60  1  0
M  END
>  <smiles>  (91) 
NS(=O)(=O)c1cccc(CN=c2cc(OCc3ccc(F)cc3)[nH]c(=NCc3ccccc3)[nH]2)c1O

>  <score_type>  (91) 
oracle

>  <origin>  (91) 
adg

>  <m_score__min__energy>  (91) 
-10.220000000000001

>  <m_primary>  (91) 
energy

$$$$
91:0
     RDKit          3D

 62 65  0  0  0  0  0  0  0  0999 V2000
   57.5570   23.7320   45.0170 C   0  0  0  0  0  0  0  0  0  0  0  0
   57.1900   24.3130   46.6600 S   0  0  0  0  0  0  0  0  0  0  0  0
   55.8200   24.9310   46.6900 O   0  0  0  0  0  0  0  0  0  0  0  0
   57.2240   23.1520   47.6140 O   0  0  0  0  0  0  0  0  0  0  0  0
   58.3730   25.4800   47.1470 N   0  0  0  0  0  0  0  0  0  0  0  0
   58.1030   26.8870   47.1830 C   0  0  0  0  0  0  0  0  0  0  0  0
   57.1380   27.3570   46.5200 O   0  0  0  0  0  0  0  0  0  0  0  0
   58.9360   27.7830   48.0200 C   0  0  0  0  0  0  0  0  0  0  0  0
   58.5430   29.1130   48.2490 C   0  0  0  0  0  0  0  0  0  0  0  0
   59.3180   29.9550   49.0530 C   0  0  0  0  0  0  0  0  0  0  0  0
   60.5000   29.4840   49.6470 C   0  0  0  0  0  0  0  0  0  0  0  0
   61.3170   30.3860   50.5410 C   0  0  0  0  0  0  0  0  0  0  0  0
   60.4980   31.5200   51.0320 N   0  0  0  0  0  0  0  0  0  0  0  0
   60.4570   32.7580   50.4070 C   0  0  0  0  0  0  0  0  0  0  0  0
   61.1420   33.0420   49.1590 N   0  0  0  0  0  0  0  0  0  0  0  0
   60.1810   33.2000   48.0930 C   0  0  0  0  0  0  0  0  0  0  0  0
   60.6010   33.5340   46.7940 C   0  0  0  0  0  0  0  0  0  0  0  0
   59.6730   33.6390   45.7520 C   0  0  0  0  0  0  0  0  0  0  0  0
   58.3110   33.4060   45.9920 C   0  0  0  0  0  0  0  0  0  0  0  0
   57.3190   33.5120   44.8690 C   0  0  0  0  0  0  0  0  0  0  0  0
   57.4580   32.3620   43.9840 N   0  0  0  0  0  0  0  0  0  0  0  0
   57.2120   31.0090   44.3870 C   0  0  0  0  0  0  0  0  0  0  0  0
   56.0270   30.6390   44.5850 O   0  0  0  0  0  0  0  0  0  0  0  0
   58.3110   30.0470   44.5930 C   0  0  0  0  0  0  0  0  0  0  0  0
   59.4190   30.3900   45.3880 C   0  0  0  0  0  0  0  0  0  0  0  0
   60.4420   29.4640   45.6130 C   0  0  0  0  0  0  0  0  0  0  0  0
   60.3620   28.1850   45.0560 C   0  0  0  0  0  0  0  0  0  0  0  0
   59.2560   27.8290   44.2790 C   0  0  0  0  0  0  0  0  0  0  0  0
   58.2290   28.7530   44.0530 C   0  0  0  0  0  0  0  0  0  0  0  0
   57.8850   33.0970   47.2910 C   0  0  0  0  0  0  0  0  0  0  0  0
   58.8120   32.9880   48.3300 C   0  0  0  0  0  0  0  0  0  0  0  0
   59.6940   33.7920   50.9740 C   0  0  0  0  0  0  0  0  0  0  0  0
   58.9790   33.5540   52.1360 C   0  0  0  0  0  0  0  0  0  0  0  0
   58.2790   34.4650   52.6500 O   0  0  0  0  0  0  0  0  0  0  0  0
   59.0380   32.3370   52.7210 N   0  0  0  0  0  0  0  0  0  0  0  0
   59.7820   31.3320   52.1970 C   0  0  0  0  0  0  0  0  0  0  0  0
   59.8070   30.2240   52.8020 O   0  0  0  0  0  0  0  0  0  0  0  0
   60.8960   28.1590   49.4130 C   0  0  0  0  0  0  0  0  0  0  0  0
   60.1210   27.3160   48.6100 C   0  0  0  0  0  0  0  0  0  0  0  0
   58.1435   22.8035   45.0789 H   0  0  0  0  0  0  0  0  0  0  0  0
   56.6177   23.5372   44.4786 H   0  0  0  0  0  0  0  0  0  0  0  0
   58.1364   24.4965   44.4786 H   0  0  0  0  0  0  0  0  0  0  0  0
   57.6181   29.4948   47.7920 H   0  0  0  0  0  0  0  0  0  0  0  0
   58.9992   30.9942   49.2213 H   0  0  0  0  0  0  0  0  0  0  0  0
   61.6831   29.8062   51.4011 H   0  0  0  0  0  0  0  0  0  0  0  0
   62.1625   30.7856   49.9618 H   0  0  0  0  0  0  0  0  0  0  0  0
   61.8510   32.3330   48.8820 H   0  0  0  0  0  0  0  0  0  0  0  0
   61.6920   33.9250   49.2810 H   0  0  0  0  0  0  0  0  0  0  0  0
   61.6677   33.7143   46.5949 H   0  0  0  0  0  0  0  0  0  0  0  0
   60.0132   33.9054   44.7404 H   0  0  0  0  0  0  0  0  0  0  0  0
   56.2997   33.5352   45.2818 H   0  0  0  0  0  0  0  0  0  0  0  0
   57.5072   34.4351   44.3011 H   0  0  0  0  0  0  0  0  0  0  0  0
   59.4812   31.3929   45.8356 H   0  0  0  0  0  0  0  0  0  0  0  0
   61.3101   29.7423   46.2286 H   0  0  0  0  0  0  0  0  0  0  0  0
   61.1694   27.4583   45.2290 H   0  0  0  0  0  0  0  0  0  0  0  0
   59.1925   26.8206   43.8442 H   0  0  0  0  0  0  0  0  0  0  0  0
   57.3549   28.4647   43.4506 H   0  0  0  0  0  0  0  0  0  0  0  0
   56.8153   32.9396   47.4932 H   0  0  0  0  0  0  0  0  0  0  0  0
   58.4674   32.7339   49.3432 H   0  0  0  0  0  0  0  0  0  0  0  0
   59.6646   34.7835   50.4986 H   0  0  0  0  0  0  0  0  0  0  0  0
   61.8243   27.7795   49.8650 H   0  0  0  0  0  0  0  0  0  0  0  0
   60.4428   26.2781   48.4393 H   0  0  0  0  0  0  0  0  0  0  0  0
  1  2  1  0
  2  3  2  0
  2  4  2  0
  2  5  1  0
  5  6  1  0
  6  7  2  0
  6  8  1  0
  8  9  2  0
  9 10  1  0
 10 11  2  0
 11 12  1  0
 12 13  1  0
 13 14  1  0
 14 15  1  0
 15 16  1  0
 16 17  2  0
 17 18  1  0
 18 19  2  0
 19 20  1  0
 20 21  1  0
 21 22  1  0
 22 23  2  0
 22 24  1  0
 24 25  2  0
 25 26  1  0
 26 27  2  0
 27 28  1  0
 28 29  2  0
 19 30  1  0
 30 31  2  0
 14 32  2  0
 32 33  1  0
 33 34  2  0
 33 35  1  0
 35 36  1  0
 36 37  2  0
 11 38  1  0
 38 39  2  0
 39  8  1  0
 36 13  1  0
 31 16  1  0
 29 24  1  0
  1 40  1  0
  1 41  1  0
  1 42  1  0
  9 43  1  0
 10 44  1  0
 12 45  1  0
 12 46  1  0
 15 47  1  0
 15 48  1  0
 17 49  1  0
 18 50  1  0
 20 51  1  0
 20 52  1  0
 25 53  1  0
 26 54  1  0
 27 55  1  0
 28 56  1  0
 29 57  1  0
 30 58  1  0
 31 59  1  0
 32 60  1  0
 38 61  1  0
 39 62  1  0
M  CHG  4   5  -1  15   1  21  -1  35  -1
M  END
>  <UniqueID>  (92) 
88

>  <SMILES>  (92) 
CS(=O)(=O)[N-]C(=O)c1ccc(Cn2c([NH2+]c3ccc(C[N-]C(=O)c4ccccc4)cc3)cc(=O)[n-]c2=O)cc1

>  <Energy>  (92) 
80.46519550490405

>  <Genealogy>  (92) 
CS(=O)(=O)[N-]C(=O)c1ccc(Cn2c([NH2+]c3ccc(C[N-]C(=O)c4ccccc4)cc3)cc(=O)[n-]c2=O)cc1 (protonated)
CS(=O)(=O)[N-]C(=O)c1ccc(Cn2c([NH2+]c3ccc(C[N-]C(=O)c4ccccc4)cc3)cc(=O)[n-]c2=O)cc1 (3D coordinates assigned)
CS(=O)(=O)[N-]C(=O)c1ccc(Cn2c([NH2+]c3ccc(C[N-]C(=O)c4ccccc4)cc3)cc(=O)[n-]c2=O)cc1 (optimized conformer: 80.46519550490405 kcal/mol)

>  <smiles>  (92) 
CS(=O)(=O)NC(=O)c1ccc(Cn2c(Nc3ccc(CNC(=O)c4ccccc4)cc3)cc(=O)[nH]c2=O)cc1

>  <score_type>  (92) 
oracle

>  <origin>  (92) 
adg

>  <m_score__min__energy>  (92) 
-12.619999999999999

>  <m_primary>  (92) 
energy

$$$$
92:0
     RDKit          3D

 50 52  0  0  0  0  0  0  0  0999 V2000
   55.8810   24.7310   46.7880 O   0  0  0  0  0  0  0  0  0  0  0  0
   55.7130   25.7700   46.0970 C   0  0  0  0  0  0  0  0  0  0  0  0
   54.4410   26.3110   45.9640 O   0  0  0  0  0  0  0  0  0  0  0  0
   56.8680   26.3940   45.3820 C   0  0  0  0  0  0  0  0  0  0  0  0
   57.2690   27.5950   46.0360 O   0  0  0  0  0  0  0  0  0  0  0  0
   57.5180   28.7780   45.3340 C   0  0  0  0  0  0  0  0  0  0  0  0
   56.4440   29.4660   44.7450 C   0  0  0  0  0  0  0  0  0  0  0  0
   55.1470   28.9860   44.8810 O   0  0  0  0  0  0  0  0  0  0  0  0
   56.6710   30.6380   44.0200 C   0  0  0  0  0  0  0  0  0  0  0  0
   57.9670   31.1390   43.8890 C   0  0  0  0  0  0  0  0  0  0  0  0
   59.0380   30.4780   44.4910 C   0  0  0  0  0  0  0  0  0  0  0  0
   58.8290   29.2960   45.2240 C   0  0  0  0  0  0  0  0  0  0  0  0
   60.0000   28.6570   45.9340 C   0  0  0  0  0  0  0  0  0  0  0  0
   60.4530   29.5110   47.0470 N   0  0  0  0  0  0  0  0  0  0  0  0
   61.4820   30.3800   46.8330 C   0  0  0  0  0  0  0  0  0  0  0  0
   61.9030   31.2370   47.8400 C   0  0  0  0  0  0  0  0  0  0  0  0
   61.2630   31.1910   49.0730 C   0  0  0  0  0  0  0  0  0  0  0  0
   61.6340   31.9840   49.9820 O   0  0  0  0  0  0  0  0  0  0  0  0
   60.2450   30.2980   49.2900 N   0  0  0  0  0  0  0  0  0  0  0  0
   59.5560   30.2640   50.5950 C   0  0  0  0  0  0  0  0  0  0  0  0
   58.5240   31.3900   50.6810 C   0  0  0  0  0  0  0  0  0  0  0  0
   58.2600   31.9440   49.3570 N   0  0  0  0  0  0  0  0  0  0  0  0
   58.8680   33.1410   48.8580 C   0  0  0  0  0  0  0  0  0  0  0  0
   59.5680   33.8480   49.6350 O   0  0  0  0  0  0  0  0  0  0  0  0
   58.6890   33.5560   47.4420 C   0  0  0  0  0  0  0  0  0  0  0  0
   57.4160   33.4410   46.8440 C   0  0  0  0  0  0  0  0  0  0  0  0
   57.2120   33.8300   45.5180 C   0  0  0  0  0  0  0  0  0  0  0  0
   58.2700   34.3390   44.7660 C   0  0  0  0  0  0  0  0  0  0  0  0
   59.5380   34.4550   45.3370 C   0  0  0  0  0  0  0  0  0  0  0  0
   59.7560   34.0690   46.6640 C   0  0  0  0  0  0  0  0  0  0  0  0
   61.0380   34.1960   47.1890 O   0  0  0  0  0  0  0  0  0  0  0  0
   59.8310   29.4740   48.2700 C   0  0  0  0  0  0  0  0  0  0  0  0
   58.8700   28.6750   48.4600 O   0  0  0  0  0  0  0  0  0  0  0  0
   57.7116   25.6882   45.3717 H   0  0  0  0  0  0  0  0  0  0  0  0
   56.5622   26.6339   44.3529 H   0  0  0  0  0  0  0  0  0  0  0  0
   55.8276   31.1666   43.5518 H   0  0  0  0  0  0  0  0  0  0  0  0
   58.1444   32.0572   43.3098 H   0  0  0  0  0  0  0  0  0  0  0  0
   60.0551   30.8850   44.3915 H   0  0  0  0  0  0  0  0  0  0  0  0
   59.6935   27.6776   46.3299 H   0  0  0  0  0  0  0  0  0  0  0  0
   60.8269   28.5332   45.2192 H   0  0  0  0  0  0  0  0  0  0  0  0
   61.9826   30.4018   45.8537 H   0  0  0  0  0  0  0  0  0  0  0  0
   62.7297   31.9413   47.6653 H   0  0  0  0  0  0  0  0  0  0  0  0
   59.0470   29.2958   50.7113 H   0  0  0  0  0  0  0  0  0  0  0  0
   60.2989   30.3982   51.3950 H   0  0  0  0  0  0  0  0  0  0  0  0
   57.5881   30.9919   51.1000 H   0  0  0  0  0  0  0  0  0  0  0  0
   58.9203   32.1870   51.3274 H   0  0  0  0  0  0  0  0  0  0  0  0
   56.5748   33.0405   47.4287 H   0  0  0  0  0  0  0  0  0  0  0  0
   56.2138   33.7345   45.0658 H   0  0  0  0  0  0  0  0  0  0  0  0
   58.1053   34.6489   43.7235 H   0  0  0  0  0  0  0  0  0  0  0  0
   60.3718   34.8526   44.7397 H   0  0  0  0  0  0  0  0  0  0  0  0
  1  2  2  0
  2  3  1  0
  2  4  1  0
  4  5  1  0
  5  6  1  0
  6  7  2  0
  7  8  1  0
  7  9  1  0
  9 10  2  0
 10 11  1  0
 11 12  2  0
 12 13  1  0
 13 14  1  0
 14 15  1  0
 15 16  2  0
 16 17  1  0
 17 18  2  0
 17 19  1  0
 19 20  1  0
 20 21  1  0
 21 22  1  0
 22 23  1  0
 23 24  2  0
 23 25  1  0
 25 26  2  0
 26 27  1  0
 27 28  2  0
 28 29  1  0
 29 30  2  0
 30 31  1  0
 19 32  1  0
 32 33  2  0
 12  6  1  0
 32 14  1  0
 30 25  1  0
  4 34  1  0
  4 35  1  0
  9 36  1  0
 10 37  1  0
 11 38  1  0
 13 39  1  0
 13 40  1  0
 15 41  1  0
 16 42  1  0
 20 43  1  0
 20 44  1  0
 21 45  1  0
 21 46  1  0
 26 47  1  0
 27 48  1  0
 28 49  1  0
 29 50  1  0
M  CHG  4   3  -1   8  -1  22  -1  31  -1
M  END
>  <UniqueID>  (93) 
89

>  <SMILES>  (93) 
O=C([O-])COc1c([O-])cccc1Cn1ccc(=O)n(CC[N-]C(=O)c2ccccc2[O-])c1=O

>  <Energy>  (93) 
63.56095385921202

>  <Genealogy>  (93) 
O=C([O-])COc1c([O-])cccc1Cn1ccc(=O)n(CC[N-]C(=O)c2ccccc2[O-])c1=O (protonated)
O=C([O-])COc1c([O-])cccc1Cn1ccc(=O)n(CC[N-]C(=O)c2ccccc2[O-])c1=O (3D coordinates assigned)
O=C([O-])COc1c([O-])cccc1Cn1ccc(=O)n(CC[N-]C(=O)c2ccccc2[O-])c1=O (optimized conformer: 63.56095385921202 kcal/mol)

>  <smiles>  (93) 
O=C(O)COc1c(O)cccc1Cn1ccc(=O)n(CCNC(=O)c2ccccc2O)c1=O

>  <score_type>  (93) 
oracle

>  <origin>  (93) 
adg

>  <m_score__min__energy>  (93) 
-18.829999999999998

>  <m_primary>  (93) 
energy

$$$$
93:0
     RDKit          3D

 40 42  0  0  0  0  0  0  0  0999 V2000
   57.4530   24.7690   47.4070 O   0  0  0  0  0  0  0  0  0  0  0  0
   57.7040   25.2060   46.2510 C   0  0  0  0  0  0  0  0  0  0  0  0
   57.0970   24.5400   45.0590 C   0  0  0  0  0  0  0  0  0  0  0  0
   55.6190   24.4110   45.2460 C   0  0  0  0  0  0  0  0  0  0  0  0
   54.9180   23.2950   44.9740 N   0  0  0  0  0  0  0  0  0  0  0  0
   53.6420   23.6640   45.2230 C   0  0  0  0  0  0  0  0  0  0  0  0
   52.6710   22.8730   45.0880 O   0  0  0  0  0  0  0  0  0  0  0  0
   53.4880   24.9440   45.6230 N   0  0  0  0  0  0  0  0  0  0  0  0
   54.7490   25.4040   45.6260 C   0  0  0  0  0  0  0  0  0  0  0  0
   55.0970   26.7060   45.9620 O   0  0  0  0  0  0  0  0  0  0  0  0
   58.5740   26.3300   46.0630 N   0  0  0  0  0  0  0  0  0  0  0  0
   58.1750   27.6740   45.7590 C   0  0  0  0  0  0  0  0  0  0  0  0
   58.3040   28.7190   46.6900 C   0  0  0  0  0  0  0  0  0  0  0  0
   57.8810   30.0090   46.3610 C   0  0  0  0  0  0  0  0  0  0  0  0
   57.3270   30.2780   45.1060 C   0  0  0  0  0  0  0  0  0  0  0  0
   56.9280   31.5870   44.8160 O   0  0  0  0  0  0  0  0  0  0  0  0
   57.8140   32.6040   44.4360 C   0  0  0  0  0  0  0  0  0  0  0  0
   58.1450   32.7300   43.2240 O   0  0  0  0  0  0  0  0  0  0  0  0
   58.3680   33.4830   45.4330 N   0  0  0  0  0  0  0  0  0  0  0  0
   57.8440   33.4410   46.8020 C   0  0  0  0  0  0  0  0  0  0  0  0
   58.8760   33.9980   47.7870 C   0  0  0  0  0  0  0  0  0  0  0  0
   59.3490   35.2600   47.3600 O   0  0  0  0  0  0  0  0  0  0  0  0
   60.0720   35.1090   46.1540 C   0  0  0  0  0  0  0  0  0  0  0  0
   59.1500   34.6550   45.0190 C   0  0  0  0  0  0  0  0  0  0  0  0
   57.1510   29.2240   44.1870 C   0  0  0  0  0  0  0  0  0  0  0  0
   56.3240   29.4690   42.6540 Cl  0  0  0  0  0  0  0  0  0  0  0  0
   57.5740   27.9320   44.5200 C   0  0  0  0  0  0  0  0  0  0  0  0
   57.2999   25.1429   44.1616 H   0  0  0  0  0  0  0  0  0  0  0  0
   57.5360   23.5383   44.9410 H   0  0  0  0  0  0  0  0  0  0  0  0
   58.7393   28.5205   47.6805 H   0  0  0  0  0  0  0  0  0  0  0  0
   57.9848   30.8206   47.0962 H   0  0  0  0  0  0  0  0  0  0  0  0
   56.9269   34.0458   46.8576 H   0  0  0  0  0  0  0  0  0  0  0  0
   57.6251   32.3963   47.0679 H   0  0  0  0  0  0  0  0  0  0  0  0
   58.4085   34.1044   48.7770 H   0  0  0  0  0  0  0  0  0  0  0  0
   59.7262   33.3019   47.8373 H   0  0  0  0  0  0  0  0  0  0  0  0
   60.5281   36.0729   45.8841 H   0  0  0  0  0  0  0  0  0  0  0  0
   60.8494   34.3452   46.3029 H   0  0  0  0  0  0  0  0  0  0  0  0
   58.4643   35.4749   44.7590 H   0  0  0  0  0  0  0  0  0  0  0  0
   59.7637   34.3848   44.1470 H   0  0  0  0  0  0  0  0  0  0  0  0
   57.4332   27.1109   43.8017 H   0  0  0  0  0  0  0  0  0  0  0  0
  1  2  2  0
  2  3  1  0
  3  4  1  0
  4  5  1  0
  5  6  1  0
  6  7  2  0
  6  8  1  0
  8  9  1  0
  9 10  1  0
  2 11  1  0
 11 12  1  0
 12 13  2  0
 13 14  1  0
 14 15  2  0
 15 16  1  0
 16 17  1  0
 17 18  2  0
 17 19  1  0
 19 20  1  0
 20 21  1  0
 21 22  1  0
 22 23  1  0
 23 24  1  0
 15 25  1  0
 25 26  1  0
 25 27  2  0
  9  4  2  0
 27 12  1  0
 24 19  1  0
  3 28  1  0
  3 29  1  0
 13 30  1  0
 14 31  1  0
 20 32  1  0
 20 33  1  0
 21 34  1  0
 21 35  1  0
 23 36  1  0
 23 37  1  0
 24 38  1  0
 24 39  1  0
 27 40  1  0
M  CHG  4   5  -1   8  -1  10  -1  11  -1
M  END
>  <UniqueID>  (94) 
90

>  <SMILES>  (94) 
O=C(Cc1[n-]c(=O)[n-]c1[O-])[N-]c1ccc(OC(=O)N2CCOCC2)c(Cl)c1

>  <Energy>  (94) 
79.93036215972613

>  <Genealogy>  (94) 
O=C(Cc1[n-]c(=O)[n-]c1[O-])[N-]c1ccc(OC(=O)N2CCOCC2)c(Cl)c1 (protonated)
O=C(Cc1[n-]c(=O)[n-]c1[O-])[N-]c1ccc(OC(=O)N2CCOCC2)c(Cl)c1 (3D coordinates assigned)
O=C(Cc1[n-]c(=O)[n-]c1[O-])[N-]c1ccc(OC(=O)N2CCOCC2)c(Cl)c1 (nonaromatic ring conformer: 79.93036215972613 kcal/mol)

>  <smiles>  (94) 
O=C(Cc1[nH]c(=O)[nH]c1O)Nc1ccc(OC(=O)N2CCOCC2)c(Cl)c1

>  <score_type>  (94) 
oracle

>  <origin>  (94) 
adg

>  <m_score__min__energy>  (94) 
-17.640000000000001

>  <m_primary>  (94) 
energy

$$$$
94:0
     RDKit          3D

 42 45  0  0  0  0  0  0  0  0999 V2000
   63.7830   33.4670   46.5780 O   0  0  0  0  0  0  0  0  0  0  0  0
   62.5760   33.4550   46.9420 C   0  0  0  0  0  0  0  0  0  0  0  0
   61.5140   33.9290   46.0220 C   0  0  0  0  0  0  0  0  0  0  0  0
   60.2190   33.9590   46.4230 C   0  0  0  0  0  0  0  0  0  0  0  0
   59.1820   33.5680   45.3950 C   0  0  0  0  0  0  0  0  0  0  0  0
   58.8670   32.0340   45.3950 C   0  0  0  0  0  0  0  0  0  0  0  0
   59.8250   31.1950   46.1700 N   0  0  0  0  0  0  0  0  0  0  0  0
   60.2410   29.8970   45.6150 C   0  0  0  0  0  0  0  0  0  0  0  0
   59.9460   28.7330   46.5740 C   0  0  0  0  0  0  0  0  0  0  0  0
   58.5940   28.1020   46.3460 C   0  0  0  0  0  0  0  0  0  0  0  0
   57.6520   28.7140   45.5000 C   0  0  0  0  0  0  0  0  0  0  0  0
   56.3990   28.1260   45.2940 C   0  0  0  0  0  0  0  0  0  0  0  0
   56.0680   26.9370   45.9500 C   0  0  0  0  0  0  0  0  0  0  0  0
   54.8250   26.3520   45.7430 O   0  0  0  0  0  0  0  0  0  0  0  0
   56.9850   26.3420   46.8210 C   0  0  0  0  0  0  0  0  0  0  0  0
   58.2370   26.9290   47.0290 C   0  0  0  0  0  0  0  0  0  0  0  0
   60.0600   31.4500   47.5820 C   0  0  0  0  0  0  0  0  0  0  0  0
   59.3090   32.4100   48.1390 C   0  0  0  0  0  0  0  0  0  0  0  0
   59.8500   33.7980   47.9200 C   0  0  2  0  0  0  0  0  0  0  0  0
   58.9120   34.7590   48.3310 O   0  0  0  0  0  0  0  0  0  0  0  0
   61.1040   33.8170   48.7630 C   0  0  0  0  0  0  0  0  0  0  0  0
   61.2450   34.5320   49.7440 O   0  0  0  0  0  0  0  0  0  0  0  0
   62.1610   32.8670   48.2700 C   0  0  2  0  0  0  0  0  0  0  0  0
   63.2270   32.7910   49.1870 O   0  0  0  0  0  0  0  0  0  0  0  0
   61.4940   31.4960   48.0310 C   0  0  0  0  0  0  0  0  0  0  0  0
   62.1590   30.4310   48.1240 O   0  0  0  0  0  0  0  0  0  0  0  0
   61.7787   34.2588   45.0065 H   0  0  0  0  0  0  0  0  0  0  0  0
   58.2527   34.1165   45.6086 H   0  0  0  0  0  0  0  0  0  0  0  0
   59.5896   33.8198   44.4048 H   0  0  0  0  0  0  0  0  0  0  0  0
   57.8641   31.8914   45.8237 H   0  0  0  0  0  0  0  0  0  0  0  0
   58.9452   31.7037   44.3487 H   0  0  0  0  0  0  0  0  0  0  0  0
   59.7001   29.7251   44.6727 H   0  0  0  0  0  0  0  0  0  0  0  0
   61.3283   29.9327   45.4524 H   0  0  0  0  0  0  0  0  0  0  0  0
   60.7189   27.9625   46.4366 H   0  0  0  0  0  0  0  0  0  0  0  0
   59.9473   29.1426   47.5949 H   0  0  0  0  0  0  0  0  0  0  0  0
   57.9015   29.6601   44.9974 H   0  0  0  0  0  0  0  0  0  0  0  0
   55.6742   28.5997   44.6155 H   0  0  0  0  0  0  0  0  0  0  0  0
   56.7214   25.4106   47.3436 H   0  0  0  0  0  0  0  0  0  0  0  0
   58.9465   26.4686   47.7323 H   0  0  0  0  0  0  0  0  0  0  0  0
   58.3866   32.2039   48.7017 H   0  0  0  0  0  0  0  0  0  0  0  0
   59.3550   35.3200   49.0200 H   0  0  0  0  0  0  0  0  0  0  0  0
   63.0900   33.5020   49.8670 H   0  0  0  0  0  0  0  0  0  0  0  0
  1  2  2  0
  2  3  1  0
  3  4  2  0
  4  5  1  0
  5  6  1  0
  6  7  1  0
  7  8  1  0
  8  9  1  0
  9 10  1  0
 10 11  2  0
 11 12  1  0
 12 13  2  0
 13 14  1  0
 13 15  1  0
 15 16  2  0
  7 17  1  0
 17 18  2  0
 18 19  1  0
 19 20  1  1
 19 21  1  0
 21 22  2  0
 21 23  1  0
 23 24  1  1
 23 25  1  0
 25 26  2  0
 23  2  1  0
 19  4  1  0
 16 10  1  0
 25 17  1  0
  3 27  1  0
  5 28  1  0
  5 29  1  0
  6 30  1  0
  6 31  1  0
  8 32  1  0
  8 33  1  0
  9 34  1  0
  9 35  1  0
 11 36  1  0
 12 37  1  0
 15 38  1  0
 16 39  1  0
 18 40  1  0
 20 41  1  0
 24 42  1  0
M  CHG  1  14  -1
M  END
>  <UniqueID>  (95) 
91

>  <SMILES>  (95) 
O=C1C=C2CCN(CCc3ccc([O-])cc3)C3=C[C@@]2(O)C(=O)[C@@]1(O)C3=O

>  <Energy>  (95) 
124.87013083649475

>  <Genealogy>  (95) 
O=C1C=C2CCN(CCc3ccc([O-])cc3)C3=CC2(O)C(=O)C1(O)C3=O (protonated)
O=C1C=C2CCN(CCc3ccc([O-])cc3)C3=C[C@@]2(O)C(=O)[C@@]1(O)C3=O (chirality)
O=C1C=C2CCN(CCc3ccc([O-])cc3)C3=C[C@@]2(O)C(=O)[C@@]1(O)C3=O (3D coordinates assigned)
O=C1C=C2CCN(CCc3ccc([O-])cc3)C3=C[C@@]2(O)C(=O)[C@@]1(O)C3=O (nonaromatic ring conformer: 124.87013083649475 kcal/mol)

>  <smiles>  (95) 
O=C1C=C2CCN(CCc3ccc(O)cc3)C3=CC2(O)C(=O)C1(O)C3=O

>  <score_type>  (95) 
oracle

>  <origin>  (95) 
adg

>  <m_score__min__energy>  (95) 
-9.7300000000000004

>  <m_primary>  (95) 
energy

$$$$
