0:0
     RDKit          3D

 45 47  0  0  0  0  0  0  0  0999 V2000
   58.0530   31.4098   52.2094 H   0  0  0  0  0  0  0  0  0  0  0  0
   57.0490   31.7680   51.9380 C   0  0  0  0  0  0  0  0  0  0  0  0
   56.9272   32.7470   51.4515 H   0  0  0  0  0  0  0  0  0  0  0  0
   55.9790   31.0150   52.1990 C   0  0  0  0  0  0  0  0  0  0  0  0
   55.9680   29.7680   52.8130 C   0  0  0  0  0  0  0  0  0  0  0  0
   57.1280   28.9630   53.3440 C   0  0  0  0  0  0  0  0  0  0  0  0
   56.7989   28.4256   54.2456 H   0  0  0  0  0  0  0  0  0  0  0  0
   57.4426   28.2722   52.5479 H   0  0  0  0  0  0  0  0  0  0  0  0
   58.3320   29.8250   53.7040 C   0  0  0  0  0  0  0  0  0  0  0  0
   58.3780   30.5610   54.9180 C   0  0  0  0  0  0  0  0  0  0  0  0
   57.2830   30.5070   55.9440 C   0  0  0  0  0  0  0  0  0  0  0  0
   57.7234   30.5287   56.9518 H   0  0  0  0  0  0  0  0  0  0  0  0
   56.6175   31.3734   55.8159 H   0  0  0  0  0  0  0  0  0  0  0  0
   56.7060   29.5793   55.8159 H   0  0  0  0  0  0  0  0  0  0  0  0
   59.4600   31.3350   55.1930 N   0  0  0  0  0  0  0  0  0  0  0  0
   60.5210   31.4170   54.3520 C   0  0  0  0  0  0  0  0  0  0  0  0
   61.6440   32.2590   54.6750 N   0  0  0  0  0  0  0  0  0  0  0  0
   62.0090   33.3620   53.7800 C   0  0  0  0  0  0  0  0  0  0  0  0
   62.2991   34.2386   54.3778 H   0  0  0  0  0  0  0  0  0  0  0  0
   62.8535   33.0552   53.1454 H   0  0  0  0  0  0  0  0  0  0  0  0
   61.1482   33.6195   53.1454 H   0  0  0  0  0  0  0  0  0  0  0  0
   62.4110   32.0070   55.8990 C   0  0  0  0  0  0  0  0  0  0  0  0
   61.7803   32.2142   56.7761 H   0  0  0  0  0  0  0  0  0  0  0  0
   62.7337   30.9556   55.9196 H   0  0  0  0  0  0  0  0  0  0  0  0
   63.2944   32.6621   55.9196 H   0  0  0  0  0  0  0  0  0  0  0  0
   60.5200   30.6840   53.2100 N   0  0  0  0  0  0  0  0  0  0  0  0
   59.4790   29.8800   52.8710 C   0  0  0  0  0  0  0  0  0  0  0  0
   59.5960   29.0980   51.5940 C   0  0  0  0  0  0  0  0  0  0  0  0
   59.7550   28.0351   51.8282 H   0  0  0  0  0  0  0  0  0  0  0  0
   58.6711   29.2102   51.0093 H   0  0  0  0  0  0  0  0  0  0  0  0
   60.4476   29.4760   51.0093 H   0  0  0  0  0  0  0  0  0  0  0  0
   54.6390   29.3880   52.8960 C   0  0  0  0  0  0  0  0  0  0  0  0
   54.2466   28.4594   53.3362 H   0  0  0  0  0  0  0  0  0  0  0  0
   53.8980   30.4100   52.3140 C   0  0  0  0  0  0  0  0  0  0  0  0
   52.5640   30.4720   52.1500 C   0  0  0  0  0  0  0  0  0  0  0  0
   51.9416   30.2174   53.0205 H   0  0  0  0  0  0  0  0  0  0  0  0
   51.8570   30.8510   50.9070 C   0  0  0  0  0  0  0  0  0  0  0  0
   51.7490   30.1000   49.7960 N   0  0  0  0  0  0  0  0  0  0  0  0
   51.0080   30.8650   48.9660 C   0  0  0  0  0  0  0  0  0  0  0  0
   50.6920   30.4950   47.8060 O   0  0  0  0  0  0  0  0  0  0  0  0
   50.6330   32.0550   49.4780 N   0  0  0  0  0  0  0  0  0  0  0  0
   51.1760   32.0290   50.7060 C   0  0  0  0  0  0  0  0  0  0  0  0
   51.0530   33.0640   51.6260 O   0  0  0  0  0  0  0  0  0  0  0  0
   54.7230   31.3920   51.8940 N   0  0  0  0  0  0  0  0  0  0  0  0
   54.4400   32.2820   51.4250 H   0  0  0  0  0  0  0  0  0  0  0  0
  1  2  1  0
  2  3  1  0
  2  4  2  0
  4  5  1  0
  5  6  1  0
  6  7  1  0
  6  8  1  0
  6  9  1  0
  9 10  2  0
 10 11  1  0
 11 12  1  0
 11 13  1  0
 11 14  1  0
 10 15  1  0
 15 16  2  0
 16 17  1  0
 17 18  1  0
 18 19  1  0
 18 20  1  0
 18 21  1  0
 17 22  1  0
 22 23  1  0
 22 24  1  0
 22 25  1  0
 16 26  1  0
 26 27  2  0
 27 28  1  0
 28 29  1  0
 28 30  1  0
 28 31  1  0
  5 32  2  0
 32 33  1  0
 32 34  1  0
 34 35  2  0
 35 36  1  0
 35 37  1  0
 37 38  1  0
 38 39  1  0
 39 40  2  0
 39 41  1  0
 41 42  1  0
 42 43  1  0
 34 44  1  0
 44 45  1  0
 44  4  1  0
 27  9  1  0
 42 37  2  0
M  CHG  3  38  -1  41  -1  43  -1
M  END
>  <UniqueID>  (1) 
1

>  <SMILES>  (1) 
C=c1[nH]/c(=C/c2[n-]c(=O)[n-]c2[O-])cc1Cc1c(C)nc(N(C)C)nc1C

>  <Energy>  (1) 
104.4417817120618

>  <Genealogy>  (1) 
C=c1[nH]c(=Cc2[n-]c(=O)[n-]c2[O-])cc1Cc1c(C)nc(N(C)C)nc1C (protonated)
C=c1[nH]/c(=C/c2[n-]c(=O)[n-]c2[O-])cc1Cc1c(C)nc(N(C)C)nc1C (cis-trans isomerization)
C=c1[nH]/c(=C/c2[n-]c(=O)[n-]c2[O-])cc1Cc1c(C)nc(N(C)C)nc1C (3D coordinates assigned)
C=c1[nH]/c(=C/c2[n-]c(=O)[n-]c2[O-])cc1Cc1c(C)nc(N(C)C)nc1C (optimized conformer: 104.4417817120618 kcal/mol)

>  <smiles>  (1) 
C=c1[nH]c(=Cc2[nH]c(=O)[nH]c2O)cc1Cc1c(C)nc(N(C)C)nc1C

>  <score_type>  (1) 
oracle

>  <origin>  (1) 
adg

>  <m_score__min__energy>  (1) 
-16.710000000000001

>  <m_primary>  (1) 
energy

$$$$
1:0
     RDKit          3D

 34 36  0  0  0  0  0  0  0  0999 V2000
   58.3680   31.2850   43.4300 N   0  0  0  0  0  0  0  0  0  0  0  0
   57.4020   30.8740   44.3970 C   0  0  0  0  0  0  0  0  0  0  0  0
   56.5350   31.7000   44.7880 O   0  0  0  0  0  0  0  0  0  0  0  0
   57.4250   29.5300   44.9330 N   0  0  0  0  0  0  0  0  0  0  0  0
   56.2470   28.8330   45.0910 C   0  0  0  0  0  0  0  0  0  0  0  0
   55.1330   29.3440   44.7860 O   0  0  0  0  0  0  0  0  0  0  0  0
   56.2960   27.5530   45.6180 C   0  0  0  0  0  0  0  0  0  0  0  0
   55.2670   26.7150   45.8480 N   0  0  0  0  0  0  0  0  0  0  0  0
   55.8640   25.6150   46.3660 C   0  0  0  0  0  0  0  0  0  0  0  0
   55.1590   24.4830   46.7510 O   0  0  0  0  0  0  0  0  0  0  0  0
   57.2420   25.7470   46.4670 C   0  0  0  0  0  0  0  0  0  0  0  0
   57.4860   27.0100   45.9800 C   0  0  0  0  0  0  0  0  0  0  0  0
   58.6600   27.6830   45.8450 N   0  0  0  0  0  0  0  0  0  0  0  0
   59.8990   27.0960   46.2730 C   0  0  0  0  0  0  0  0  0  0  0  0
   60.3820   26.1280   45.6310 O   0  0  0  0  0  0  0  0  0  0  0  0
   60.6190   27.6220   47.3950 N   0  0  0  0  0  0  0  0  0  0  0  0
   60.0420   28.4740   48.4330 C   0  0  0  0  0  0  0  0  0  0  0  0
   60.0630   29.9230   48.0190 C   0  0  0  0  0  0  0  0  0  0  0  0
   58.8910   30.6980   48.0780 C   0  0  0  0  0  0  0  0  0  0  0  0
   58.9080   32.0310   47.6570 C   0  0  0  0  0  0  0  0  0  0  0  0
   60.0920   32.6030   47.1860 C   0  0  0  0  0  0  0  0  0  0  0  0
   61.2640   31.8430   47.1380 C   0  0  0  0  0  0  0  0  0  0  0  0
   61.2530   30.5090   47.5560 C   0  0  0  0  0  0  0  0  0  0  0  0
   58.6290   28.9450   45.2970 C   0  0  0  0  0  0  0  0  0  0  0  0
   59.7140   29.5710   45.1250 O   0  0  0  0  0  0  0  0  0  0  0  0
   59.2280   30.7190   43.2550 H   0  0  0  0  0  0  0  0  0  0  0  0
   57.9684   25.0137   46.8472 H   0  0  0  0  0  0  0  0  0  0  0  0
   59.0012   28.1667   48.6126 H   0  0  0  0  0  0  0  0  0  0  0  0
   60.6412   28.3635   49.3489 H   0  0  0  0  0  0  0  0  0  0  0  0
   57.9584   30.2541   48.4564 H   0  0  0  0  0  0  0  0  0  0  0  0
   57.9868   32.6308   47.6968 H   0  0  0  0  0  0  0  0  0  0  0  0
   60.1021   33.6513   46.8529 H   0  0  0  0  0  0  0  0  0  0  0  0
   62.1969   32.2954   46.7706 H   0  0  0  0  0  0  0  0  0  0  0  0
   62.1790   29.9163   47.5223 H   0  0  0  0  0  0  0  0  0  0  0  0
  1  2  1  0
  2  3  2  0
  2  4  1  0
  4  5  1  0
  5  6  2  0
  5  7  1  0
  7  8  1  0
  8  9  1  0
  9 10  1  0
  9 11  2  0
 11 12  1  0
 12 13  1  0
 13 14  1  0
 14 15  2  0
 14 16  1  0
 16 17  1  0
 17 18  1  0
 18 19  2  0
 19 20  1  0
 20 21  2  0
 21 22  1  0
 22 23  2  0
 13 24  1  0
 24 25  2  0
 24  4  1  0
 12  7  2  0
 23 18  1  0
  1 26  1  0
 11 27  1  0
 17 28  1  0
 17 29  1  0
 19 30  1  0
 20 31  1  0
 21 32  1  0
 22 33  1  0
 23 34  1  0
M  CHG  4   1  -1   8  -1  10  -1  16  -1
M  END
>  <UniqueID>  (2) 
2

>  <SMILES>  (2) 
[NH-]C(=O)n1c(=O)c2[n-]c([O-])cc2n(C(=O)[N-]Cc2ccccc2)c1=O

>  <Energy>  (2) 
81.83638032129102

>  <Genealogy>  (2) 
[NH-]C(=O)n1c(=O)c2[n-]c([O-])cc2n(C(=O)[N-]Cc2ccccc2)c1=O (protonated)
[NH-]C(=O)n1c(=O)c2[n-]c([O-])cc2n(C(=O)[N-]Cc2ccccc2)c1=O (3D coordinates assigned)
[NH-]C(=O)n1c(=O)c2[n-]c([O-])cc2n(C(=O)[N-]Cc2ccccc2)c1=O (optimized conformer: 81.83638032129102 kcal/mol)

>  <smiles>  (2) 
NC(=O)n1c(=O)c2[nH]c(O)cc2n(C(=O)NCc2ccccc2)c1=O

>  <score_type>  (2) 
oracle

>  <origin>  (2) 
adg

>  <m_score__min__energy>  (2) 
-13.17

>  <m_primary>  (2) 
energy

$$$$
2:0
     RDKit          3D

 31 32  0  0  0  0  0  0  0  0999 V2000
   54.3780   25.9720   45.8020 N   0  0  0  0  0  0  0  0  0  0  0  0
   55.7370   25.6720   46.1080 C   0  0  0  0  0  0  0  0  0  0  0  0
   56.0170   24.6210   46.7440 O   0  0  0  0  0  0  0  0  0  0  0  0
   56.8070   26.5860   45.6860 C   0  0  0  0  0  0  0  0  0  0  0  0
   57.0140   27.8770   46.1580 C   0  0  0  0  0  0  0  0  0  0  0  0
   58.1070   28.5110   45.5540 C   0  0  0  0  0  0  0  0  0  0  0  0
   58.5730   30.1700   45.8980 S   0  0  0  0  0  0  0  0  0  0  0  0
   59.8970   30.4560   45.2480 O   0  0  0  0  0  0  0  0  0  0  0  0
   58.7070   30.3730   47.3820 O   0  0  0  0  0  0  0  0  0  0  0  0
   57.3710   31.2500   45.2610 N   0  0  0  0  0  0  0  0  0  0  0  0
   57.9680   32.1990   44.3180 C   0  0  0  0  0  0  0  0  0  0  0  0
   57.8610   33.6210   44.8860 C   0  0  2  0  0  0  0  0  0  0  0  0
   59.2270   34.3490   44.8780 C   0  0  0  0  0  0  0  0  0  0  0  0
   59.2540   35.3120   45.9090 O   0  0  0  0  0  0  0  0  0  0  0  0
   59.2060   34.6660   47.1700 C   0  0  0  0  0  0  0  0  0  0  0  0
   58.2120   33.4850   47.2010 C   0  0  0  0  0  0  0  0  0  0  0  0
   57.2490   33.6070   46.1720 O   0  0  0  0  0  0  0  0  0  0  0  0
   58.7600   27.7320   44.6070 C   0  0  0  0  0  0  0  0  0  0  0  0
   57.9770   26.2470   44.5240 S   0  0  0  0  0  0  0  0  0  0  0  0
   53.8410   26.6670   46.3660 H   0  0  0  0  0  0  0  0  0  0  0  0
   56.3850   28.3512   46.9258 H   0  0  0  0  0  0  0  0  0  0  0  0
   59.0270   31.9448   44.1631 H   0  0  0  0  0  0  0  0  0  0  0  0
   57.4339   32.1467   43.3578 H   0  0  0  0  0  0  0  0  0  0  0  0
   57.2054   34.2056   44.2239 H   0  0  0  0  0  0  0  0  0  0  0  0
   60.0329   33.6177   45.0384 H   0  0  0  0  0  0  0  0  0  0  0  0
   59.3708   34.8471   43.9078 H   0  0  0  0  0  0  0  0  0  0  0  0
   60.2104   34.2861   47.4085 H   0  0  0  0  0  0  0  0  0  0  0  0
   58.8632   35.4062   47.9080 H   0  0  0  0  0  0  0  0  0  0  0  0
   58.7662   32.5445   47.0656 H   0  0  0  0  0  0  0  0  0  0  0  0
   57.6921   33.4893   48.1704 H   0  0  0  0  0  0  0  0  0  0  0  0
   59.6364   28.0343   44.0149 H   0  0  0  0  0  0  0  0  0  0  0  0
  1  2  1  0
  2  3  2  0
  2  4  1  0
  4  5  2  0
  5  6  1  0
  6  7  1  0
  7  8  2  0
  7  9  2  0
  7 10  1  0
 10 11  1  0
 11 12  1  0
 12 13  1  0
 13 14  1  0
 14 15  1  0
 15 16  1  0
 16 17  1  0
  6 18  2  0
 18 19  1  0
 19  4  1  0
 17 12  1  0
  1 20  1  0
  5 21  1  0
 11 22  1  0
 11 23  1  0
 12 24  1  6
 13 25  1  0
 13 26  1  0
 15 27  1  0
 15 28  1  0
 16 29  1  0
 16 30  1  0
 18 31  1  0
M  CHG  2   1  -1  10  -1
M  END
>  <UniqueID>  (3) 
3

>  <SMILES>  (3) 
[NH-]C(=O)c1cc(S(=O)(=O)[N-]C[C@@H]2COCCO2)cs1

>  <Energy>  (3) 
61.90950455534735

>  <Genealogy>  (3) 
[NH-]C(=O)c1cc(S(=O)(=O)[N-]CC2COCCO2)cs1 (protonated)
[NH-]C(=O)c1cc(S(=O)(=O)[N-]C[C@@H]2COCCO2)cs1 (chirality)
[NH-]C(=O)c1cc(S(=O)(=O)[N-]C[C@@H]2COCCO2)cs1 (3D coordinates assigned)
[NH-]C(=O)c1cc(S(=O)(=O)[N-]C[C@@H]2COCCO2)cs1 (nonaromatic ring conformer: 61.90950455534735 kcal/mol)

>  <smiles>  (3) 
NC(=O)c1cc(S(=O)(=O)NCC2COCCO2)cs1

>  <score_type>  (3) 
oracle

>  <origin>  (3) 
adg

>  <m_score__min__energy>  (3) 
-11.109999999999999

>  <m_primary>  (3) 
energy

$$$$
3:0
     RDKit          3D

 53 57  0  0  0  0  0  0  0  0999 V2000
   55.9297   25.5357   46.5631 H   0  0  0  0  0  0  0  0  0  0  0  0
   56.5250   26.3370   46.1010 C   0  0  0  0  0  0  0  0  0  0  0  0
   55.9120   27.4490   45.6200 N   0  0  0  0  0  0  0  0  0  0  0  0
   56.6270   28.4520   45.0370 C   0  0  0  0  0  0  0  0  0  0  0  0
   56.0450   29.5280   44.5940 N   0  0  0  0  0  0  0  0  0  0  0  0
   56.7080   30.6920   44.0750 C   0  0  0  0  0  0  0  0  0  0  0  0
   56.5940   30.9520   42.8480 O   0  0  0  0  0  0  0  0  0  0  0  0
   57.4700   31.6200   44.9450 C   0  0  0  0  0  0  0  0  0  0  0  0
   58.6290   31.1880   45.6140 C   0  0  0  0  0  0  0  0  0  0  0  0
   58.9730   30.1497   45.4976 H   0  0  0  0  0  0  0  0  0  0  0  0
   59.3460   32.0710   46.4260 C   0  0  0  0  0  0  0  0  0  0  0  0
   60.2494   31.7246   46.9493 H   0  0  0  0  0  0  0  0  0  0  0  0
   58.9170   33.3960   46.5750 C   0  0  0  0  0  0  0  0  0  0  0  0
   59.6640   34.3190   47.3780 N   0  0  0  0  0  0  0  0  0  0  0  0
   60.4750   33.9880   48.3460 C   0  0  0  0  0  0  0  0  0  0  0  0
   61.8980   33.7790   48.0200 C   0  0  0  0  0  0  0  0  0  0  0  0
   62.2890   33.9300   46.8300 O   0  0  0  0  0  0  0  0  0  0  0  0
   62.8640   33.3970   49.0720 C   0  0  0  0  0  0  0  0  0  0  0  0
   64.2050   33.1330   48.7520 C   0  0  0  0  0  0  0  0  0  0  0  0
   64.5420   33.1931   47.7066 H   0  0  0  0  0  0  0  0  0  0  0  0
   65.1100   32.7950   49.7560 C   0  0  0  0  0  0  0  0  0  0  0  0
   66.1608   32.5845   49.5078 H   0  0  0  0  0  0  0  0  0  0  0  0
   64.6730   32.7260   51.0760 C   0  0  0  0  0  0  0  0  0  0  0  0
   65.3812   32.4622   51.8753 H   0  0  0  0  0  0  0  0  0  0  0  0
   63.3720   32.9840   51.3800 N   0  0  0  0  0  0  0  0  0  0  0  0
   63.0810   32.9140   52.3820 H   0  0  0  0  0  0  0  0  0  0  0  0
   62.4580   33.3120   50.4170 C   0  0  0  0  0  0  0  0  0  0  0  0
   61.0490   33.5760   50.7870 C   0  0  0  0  0  0  0  0  0  0  0  0
   60.7450   33.7030   52.0050 O   0  0  0  0  0  0  0  0  0  0  0  0
   59.9530   33.6790   49.7410 C   0  0  2  0  0  0  0  0  0  0  0  0
   59.3468   34.5309   50.0826 H   0  0  0  0  0  0  0  0  0  0  0  0
   59.0840   32.4750   49.6780 N   0  0  0  0  0  0  0  0  0  0  0  0
   58.1390   32.3380   50.7960 C   0  0  0  0  0  0  0  0  0  0  0  0
   58.3894   33.0581   51.5890 H   0  0  0  0  0  0  0  0  0  0  0  0
   57.1112   32.5392   50.4595 H   0  0  0  0  0  0  0  0  0  0  0  0
   58.2580   30.9170   51.3290 C   0  0  0  0  0  0  0  0  0  0  0  0
   58.8663   30.8958   52.2453 H   0  0  0  0  0  0  0  0  0  0  0  0
   57.2804   30.4883   51.5945 H   0  0  0  0  0  0  0  0  0  0  0  0
   58.9390   30.1470   50.2180 C   0  0  0  0  0  0  0  0  0  0  0  0
   59.5754   29.3496   50.6292 H   0  0  0  0  0  0  0  0  0  0  0  0
   58.2215   29.6510   49.5478 H   0  0  0  0  0  0  0  0  0  0  0  0
   59.7770   31.1890   49.5030 C   0  0  0  0  0  0  0  0  0  0  0  0
   60.7830   31.2363   49.9453 H   0  0  0  0  0  0  0  0  0  0  0  0
   59.8941   30.9422   48.4374 H   0  0  0  0  0  0  0  0  0  0  0  0
   57.7390   33.8190   45.9500 C   0  0  0  0  0  0  0  0  0  0  0  0
   57.3779   34.8475   46.0978 H   0  0  0  0  0  0  0  0  0  0  0  0
   57.0200   32.9370   45.1380 C   0  0  0  0  0  0  0  0  0  0  0  0
   56.0960   33.2762   44.6470 H   0  0  0  0  0  0  0  0  0  0  0  0
   57.9800   28.3460   44.9500 N   0  0  0  0  0  0  0  0  0  0  0  0
   58.6310   27.2500   45.4190 C   0  0  0  0  0  0  0  0  0  0  0  0
   59.7255   27.1811   45.3340 H   0  0  0  0  0  0  0  0  0  0  0  0
   57.9100   26.2130   46.0080 C   0  0  0  0  0  0  0  0  0  0  0  0
   58.4220   25.3177   46.3905 H   0  0  0  0  0  0  0  0  0  0  0  0
  1  2  1  0
  2  3  2  0
  3  4  1  0
  4  5  2  3
  5  6  1  0
  6  7  2  0
  6  8  1  0
  8  9  2  0
  9 10  1  0
  9 11  1  0
 11 12  1  0
 11 13  2  0
 13 14  1  0
 14 15  2  0
 15 16  1  0
 16 17  2  0
 16 18  1  0
 18 19  2  0
 19 20  1  0
 19 21  1  0
 21 22  1  0
 21 23  2  0
 23 24  1  0
 23 25  1  0
 25 26  1  0
 25 27  2  0
 27 28  1  0
 28 29  2  0
 28 30  1  0
 30 31  1  1
 30 32  1  0
 32 33  1  0
 33 34  1  0
 33 35  1  0
 33 36  1  0
 36 37  1  0
 36 38  1  0
 36 39  1  0
 39 40  1  0
 39 41  1  0
 39 42  1  0
 42 43  1  0
 42 44  1  0
 13 45  1  0
 45 46  1  0
 45 47  2  0
 47 48  1  0
  4 49  1  0
 49 50  1  0
 50 51  1  0
 50 52  2  0
 52 53  1  0
 52  2  1  0
 47  8  1  0
 30 15  1  0
 42 32  1  0
 27 18  1  0
M  CHG  2  25   1  49  -1
M  END
>  <UniqueID>  (4) 
4

>  <SMILES>  (4) 
O=C(N=c1nccc[n-]1)c1ccc(/N=C2/C(=O)c3ccc[nH+]c3C(=O)[C@@H]2N2CCCC2)cc1

>  <Energy>  (4) 
83.90398624376289

>  <Genealogy>  (4) 
O=C(N=c1nccc[n-]1)c1ccc(N=C2C(=O)c3ccc[nH+]c3C(=O)C2N2CCCC2)cc1 (protonated)
O=C(N=c1nccc[n-]1)c1ccc(N=C2C(=O)c3ccc[nH+]c3C(=O)[C@@H]2N2CCCC2)cc1 (chirality)
O=C(N=c1nccc[n-]1)c1ccc(/N=C2/C(=O)c3ccc[nH+]c3C(=O)[C@@H]2N2CCCC2)cc1 (cis-trans isomerization)
O=C(N=c1nccc[n-]1)c1ccc(/N=C2/C(=O)c3ccc[nH+]c3C(=O)[C@@H]2N2CCCC2)cc1 (3D coordinates assigned)
O=C(N=c1nccc[n-]1)c1ccc(/N=C2/C(=O)c3ccc[nH+]c3C(=O)[C@@H]2N2CCCC2)cc1 (nonaromatic ring conformer: 83.90398624376289 kcal/mol)

>  <smiles>  (4) 
O=C(N=c1nccc[nH]1)c1ccc(N=C2C(=O)c3cccnc3C(=O)C2N2CCCC2)cc1

>  <score_type>  (4) 
oracle

>  <origin>  (4) 
adg

>  <m_score__min__energy>  (4) 
-9.9800000000000004

>  <m_primary>  (4) 
energy

$$$$
4:0
     RDKit          3D

 37 39  0  0  0  0  0  0  0  0999 V2000
   55.1450   27.6100   45.3240 H   0  0  0  0  0  0  0  0  0  0  0  0
   55.6440   27.0420   45.9980 O   0  0  0  0  0  0  0  0  0  0  0  0
   57.0300   27.1200   46.1310 C   0  0  0  0  0  0  0  0  0  0  0  0
   57.6920   26.3820   47.1200 C   0  0  0  0  0  0  0  0  0  0  0  0
   57.1183   25.7343   47.7993 H   0  0  0  0  0  0  0  0  0  0  0  0
   59.0790   26.4680   47.2440 C   0  0  0  0  0  0  0  0  0  0  0  0
   59.6059   25.8869   48.0152 H   0  0  0  0  0  0  0  0  0  0  0  0
   59.7900   27.3000   46.3780 C   0  0  0  0  0  0  0  0  0  0  0  0
   60.8833   27.3810   46.4679 H   0  0  0  0  0  0  0  0  0  0  0  0
   59.1330   28.0100   45.4240 N   0  0  0  0  0  0  0  0  0  0  0  0
   57.7790   27.9360   45.2690 C   0  0  0  0  0  0  0  0  0  0  0  0
   57.1710   28.6280   44.3500 N   0  0  0  0  0  0  0  0  0  0  0  0
   56.2200   29.6820   44.5740 C   0  0  0  0  0  0  0  0  0  0  0  0
   55.0090   29.3820   44.7430 O   0  0  0  0  0  0  0  0  0  0  0  0
   56.6020   31.0650   44.6040 N   0  0  0  0  0  0  0  0  0  0  0  0
   57.6150   31.6430   45.4380 C   0  0  0  0  0  0  0  0  0  0  0  0
   57.3230   32.8140   46.1420 C   0  0  0  0  0  0  0  0  0  0  0  0
   56.3312   33.2785   46.0386 H   0  0  0  0  0  0  0  0  0  0  0  0
   58.2780   33.4010   46.9760 C   0  0  0  0  0  0  0  0  0  0  0  0
   58.0287   34.3175   47.5308 H   0  0  0  0  0  0  0  0  0  0  0  0
   59.5600   32.8270   47.1120 C   0  0  0  0  0  0  0  0  0  0  0  0
   60.5620   33.3750   47.9520 C   0  0  0  0  0  0  0  0  0  0  0  0
   60.2680   34.6160   48.7710 C   0  0  0  0  0  0  0  0  0  0  0  0
   60.3261   34.3709   49.8418 H   0  0  0  0  0  0  0  0  0  0  0  0
   61.0062   35.3959   48.5328 H   0  0  0  0  0  0  0  0  0  0  0  0
   59.2583   34.9818   48.5328 H   0  0  0  0  0  0  0  0  0  0  0  0
   61.8320   32.7410   47.9960 C   0  0  0  0  0  0  0  0  0  0  0  0
   62.9560   33.2790   48.8540 C   0  0  0  0  0  0  0  0  0  0  0  0
   62.6979   33.1555   49.9161 H   0  0  0  0  0  0  0  0  0  0  0  0
   63.8814   32.7262   48.6348 H   0  0  0  0  0  0  0  0  0  0  0  0
   63.1059   34.3465   48.6348 H   0  0  0  0  0  0  0  0  0  0  0  0
   62.0310   31.5790   47.2200 C   0  0  0  0  0  0  0  0  0  0  0  0
   63.1370   30.9760   47.2350 O   0  0  0  0  0  0  0  0  0  0  0  0
   61.0580   31.1000   46.4590 O   0  0  0  0  0  0  0  0  0  0  0  0
   59.8610   31.6610   46.3730 C   0  0  0  0  0  0  0  0  0  0  0  0
   58.8980   31.0830   45.5400 C   0  0  0  0  0  0  0  0  0  0  0  0
   59.1479   30.1823   44.9601 H   0  0  0  0  0  0  0  0  0  0  0  0
  1  2  1  0
  2  3  1  0
  3  4  2  0
  4  5  1  0
  4  6  1  0
  6  7  1  0
  6  8  2  0
  8  9  1  0
  8 10  1  0
 10 11  1  0
 11 12  2  0
 12 13  1  0
 13 14  2  0
 13 15  1  0
 15 16  1  0
 16 17  2  0
 17 18  1  0
 17 19  1  0
 19 20  1  0
 19 21  2  0
 21 22  1  0
 22 23  1  0
 23 24  1  0
 23 25  1  0
 23 26  1  0
 22 27  2  0
 27 28  1  0
 28 29  1  0
 28 30  1  0
 28 31  1  0
 27 32  1  0
 32 33  2  0
 32 34  1  0
 34 35  1  0
 35 36  2  0
 36 37  1  0
 11  3  1  0
 36 16  1  0
 35 21  1  0
M  CHG  2  10  -1  15  -1
M  END
>  <UniqueID>  (5) 
5

>  <SMILES>  (5) 
Cc1c(C)c2ccc([N-]C(=O)/N=c3\[n-]cccc3O)cc2oc1=O

>  <Energy>  (5) 
57.72665479831171

>  <Genealogy>  (5) 
Cc1c(C)c2ccc([N-]C(=O)N=c3[n-]cccc3O)cc2oc1=O (protonated)
Cc1c(C)c2ccc([N-]C(=O)/N=c3\[n-]cccc3O)cc2oc1=O (cis-trans isomerization)
Cc1c(C)c2ccc([N-]C(=O)/N=c3\[n-]cccc3O)cc2oc1=O (3D coordinates assigned)
Cc1c(C)c2ccc([N-]C(=O)/N=c3\[n-]cccc3O)cc2oc1=O (optimized conformer: 57.72665479831171 kcal/mol)

>  <smiles>  (5) 
Cc1c(C)c2ccc(NC(=O)N=c3[nH]cccc3O)cc2oc1=O

>  <score_type>  (5) 
oracle

>  <origin>  (5) 
adg

>  <m_score__min__energy>  (5) 
-11.02

>  <m_primary>  (5) 
energy

$$$$
5:0
     RDKit          3D

 35 37  0  0  1  0  0  0  0  0999 V2000
   61.2710   26.7620   50.2560 N   0  0  0  0  0  0  0  0  0  0  0  0
   60.5350   27.4320   49.4390 C   0  0  0  0  0  0  0  0  0  0  0  0
   60.2840   28.7470   49.5830 N   0  0  0  0  0  0  0  0  0  0  0  0
   59.5110   29.4450   48.7190 C   0  0  0  0  0  0  0  0  0  0  0  0
   59.3280   30.6900   48.9340 N   0  0  0  0  0  0  0  0  0  0  0  0
   59.7360   31.7200   48.0370 C   0  0  0  0  0  0  0  0  0  0  0  0
   61.0870   32.0420   48.0540 C   0  0  0  0  0  0  0  0  0  0  0  0
   61.5120   33.0350   47.1980 C   0  0  0  0  0  0  0  0  0  0  0  0
   63.3720   33.5370   47.1640 Br  0  0  0  0  0  0  0  0  0  0  0  0
   60.6710   33.7040   46.3490 C   0  0  0  0  0  0  0  0  0  0  0  0
   59.3200   33.3710   46.3420 C   0  0  0  0  0  0  0  0  0  0  0  0
   58.0710   34.2480   45.1930 Br  0  0  0  0  0  0  0  0  0  0  0  0
   58.8620   32.3740   47.1940 C   0  0  0  0  0  0  0  0  0  0  0  0
   58.9380   28.7910   47.6230 C   0  0  0  0  0  0  0  0  0  0  0  0
   58.1460   29.4880   46.7330 C   0  0  0  0  0  0  0  0  0  0  0  0
   57.6000   28.7860   45.6580 C   0  0  0  0  0  0  0  0  0  0  0  0
   56.5760   29.6230   44.4820 S   0  0  0  0  0  0  0  0  0  0  0  0
   56.9200   29.1510   42.8780 N   0  0  0  0  0  0  0  0  0  0  0  0
   55.1580   29.3200   44.8710 O   0  0  0  0  0  0  0  0  0  0  0  0
   56.7900   31.1000   44.6660 O   0  0  0  0  0  0  0  0  0  0  0  0
   57.8550   27.4230   45.5010 C   0  0  0  0  0  0  0  0  0  0  0  0
   58.6550   26.7870   46.4280 C   0  0  0  0  0  0  0  0  0  0  0  0
   59.2170   27.4520   47.5120 C   0  0  0  0  0  0  0  0  0  0  0  0
   59.9920   26.7990   48.3950 N   0  0  0  0  0  0  0  0  0  0  0  0
   61.9460   27.2750   50.8920 H   0  0  0  0  0  0  0  0  0  0  0  0
   60.7090   29.2270   50.3920 H   0  0  0  0  0  0  0  0  0  0  0  0
   61.7898   31.5250   48.7240 H   0  0  0  0  0  0  0  0  0  0  0  0
   61.0568   34.4909   45.6842 H   0  0  0  0  0  0  0  0  0  0  0  0
   57.7955   32.1044   47.1963 H   0  0  0  0  0  0  0  0  0  0  0  0
   57.9516   30.5624   46.8670 H   0  0  0  0  0  0  0  0  0  0  0  0
   56.6350   28.1550   42.7520 H   0  0  0  0  0  0  0  0  0  0  0  0
   57.9340   29.2860   42.6530 H   0  0  0  0  0  0  0  0  0  0  0  0
   57.4265   26.8664   44.6545 H   0  0  0  0  0  0  0  0  0  0  0  0
   58.8559   25.7126   46.3047 H   0  0  0  0  0  0  0  0  0  0  0  0
   60.1810   25.7810   48.2770 H   0  0  0  0  0  0  0  0  0  0  0  0
  1  2  2  3
  2  3  1  0
  3  4  1  0
  4  5  2  0
  5  6  1  0
  6  7  2  0
  7  8  1  0
  8  9  1  0
  8 10  2  0
 10 11  1  0
 11 12  1  0
 11 13  2  0
  4 14  1  0
 14 15  2  0
 15 16  1  0
 16 17  1  0
 17 18  1  0
 17 19  2  0
 17 20  2  0
 16 21  2  0
 21 22  1  0
 22 23  2  0
 23 24  1  0
 24  2  1  0
 13  6  1  0
 23 14  1  0
  1 25  1  0
  3 26  1  0
  7 27  1  0
 10 28  1  0
 13 29  1  0
 15 30  1  0
 18 31  1  0
 18 32  1  0
 21 33  1  0
 22 34  1  0
 24 35  1  0
M  END
>  <smiles>  (6) 
N=c1[nH]c(=Nc2cc(Br)cc(Br)c2)c2cc(S(N)(=O)=O)ccc2[nH]1

>  <score_type>  (6) 
oracle

>  <origin>  (6) 
adg

>  <m_score__min__energy>  (6) 
-9.2599999999999998

>  <m_primary>  (6) 
energy

$$$$
6:0
     RDKit          3D

 43 45  0  0  0  0  0  0  0  0999 V2000
   54.4040   26.7030   46.7700 H   0  0  0  0  0  0  0  0  0  0  0  0
   54.3960   26.3160   45.8350 O   0  0  0  0  0  0  0  0  0  0  0  0
   54.5520   24.9500   45.6080 C   0  0  0  0  0  0  0  0  0  0  0  0
   53.6440   24.0360   45.9860 N   0  0  0  0  0  0  0  0  0  0  0  0
   54.2340   22.8700   45.6490 C   0  0  0  0  0  0  0  0  0  0  0  0
   53.6920   21.7530   45.8530 O   0  0  0  0  0  0  0  0  0  0  0  0
   55.4530   22.9950   45.0830 N   0  0  0  0  0  0  0  0  0  0  0  0
   55.6430   24.3240   45.0380 C   0  0  0  0  0  0  0  0  0  0  0  0
   56.8760   24.9420   44.5150 C   0  0  0  0  0  0  0  0  0  0  0  0
   57.3326   24.5068   43.6138 H   0  0  0  0  0  0  0  0  0  0  0  0
   57.4750   26.0100   45.0790 C   0  0  0  0  0  0  0  0  0  0  0  0
   57.7470   26.1760   46.4270 C   0  0  0  0  0  0  0  0  0  0  0  0
   57.5498   25.4511   47.2305 H   0  0  0  0  0  0  0  0  0  0  0  0
   58.3130   27.4260   46.5670 C   0  0  0  0  0  0  0  0  0  0  0  0
   58.7560   27.9960   47.8810 C   0  0  0  0  0  0  0  0  0  0  0  0
   58.3066   27.4177   48.7017 H   0  0  0  0  0  0  0  0  0  0  0  0
   59.8524   27.9431   47.9527 H   0  0  0  0  0  0  0  0  0  0  0  0
   58.4341   29.0454   47.9527 H   0  0  0  0  0  0  0  0  0  0  0  0
   58.4260   28.0420   45.3640 N   0  0  0  0  0  0  0  0  0  0  0  0
   58.9240   29.4150   45.1540 C   0  0  0  0  0  0  0  0  0  0  0  0
   59.6748   29.6409   45.9255 H   0  0  0  0  0  0  0  0  0  0  0  0
   59.3580   29.4649   44.1445 H   0  0  0  0  0  0  0  0  0  0  0  0
   57.8230   30.4410   45.2340 C   0  0  0  0  0  0  0  0  0  0  0  0
   56.6510   30.0950   44.9250 O   0  0  0  0  0  0  0  0  0  0  0  0
   58.0890   31.8190   45.5560 N   0  0  0  0  0  0  0  0  0  0  0  0
   57.4350   32.8520   44.7460 C   0  0  0  0  0  0  0  0  0  0  0  0
   57.6750   32.6832   43.6859 H   0  0  0  0  0  0  0  0  0  0  0  0
   56.3491   32.7903   44.9102 H   0  0  0  0  0  0  0  0  0  0  0  0
   57.9100   34.2490   45.1500 C   0  0  0  0  0  0  0  0  0  0  0  0
   58.9434   34.3970   44.8032 H   0  0  0  0  0  0  0  0  0  0  0  0
   57.2515   35.0013   44.6912 H   0  0  0  0  0  0  0  0  0  0  0  0
   57.8620   34.3920   46.6070 N   0  0  0  0  0  0  0  0  0  0  0  0
   56.8830   34.2020   46.9300 H   0  0  0  0  0  0  0  0  0  0  0  0
   58.7840   33.4710   47.3010 C   0  0  0  0  0  0  0  0  0  0  0  0
   59.7174   34.0144   47.5094 H   0  0  0  0  0  0  0  0  0  0  0  0
   58.2620   33.1385   48.2104 H   0  0  0  0  0  0  0  0  0  0  0  0
   59.1400   32.1890   46.5110 C   0  0  0  0  0  0  0  0  0  0  0  0
   60.0760   32.3608   45.9593 H   0  0  0  0  0  0  0  0  0  0  0  0
   59.2472   31.3655   47.2324 H   0  0  0  0  0  0  0  0  0  0  0  0
   57.8950   27.1860   44.4440 C   0  0  0  0  0  0  0  0  0  0  0  0
   57.8110   27.4310   43.1230 C   0  0  0  0  0  0  0  0  0  0  0  0
   58.1691   28.3887   42.7174 H   0  0  0  0  0  0  0  0  0  0  0  0
   57.3842   26.6735   42.4492 H   0  0  0  0  0  0  0  0  0  0  0  0
  1  2  1  0
  2  3  1  0
  3  4  1  0
  4  5  1  0
  5  6  2  0
  5  7  1  0
  7  8  1  0
  8  9  1  0
  9 10  1  0
  9 11  2  0
 11 12  1  0
 12 13  1  0
 12 14  2  0
 14 15  1  0
 15 16  1  0
 15 17  1  0
 15 18  1  0
 14 19  1  0
 19 20  1  0
 20 21  1  0
 20 22  1  0
 20 23  1  0
 23 24  2  0
 23 25  1  0
 25 26  1  0
 26 27  1  0
 26 28  1  0
 26 29  1  0
 29 30  1  0
 29 31  1  0
 29 32  1  0
 32 33  1  0
 32 34  1  0
 34 35  1  0
 34 36  1  0
 34 37  1  0
 37 38  1  0
 37 39  1  0
 19 40  1  0
 40 41  2  0
 41 42  1  0
 41 43  1  0
  8  3  2  0
 40 11  1  0
 37 25  1  0
M  CHG  2   4  -1   7  -1
M  END
>  <UniqueID>  (7) 
6

>  <SMILES>  (7) 
C=c1/c(=C/c2[n-]c(=O)[n-]c2O)cc(C)n1CC(=O)N1CCNCC1

>  <Energy>  (7) 
115.62608046108102

>  <Genealogy>  (7) 
C=c1c(=Cc2[n-]c(=O)[n-]c2O)cc(C)n1CC(=O)N1CCNCC1 (protonated)
C=c1/c(=C/c2[n-]c(=O)[n-]c2O)cc(C)n1CC(=O)N1CCNCC1 (cis-trans isomerization)
C=c1/c(=C/c2[n-]c(=O)[n-]c2O)cc(C)n1CC(=O)N1CCNCC1 (3D coordinates assigned)
C=c1/c(=C/c2[n-]c(=O)[n-]c2O)cc(C)n1CC(=O)N1CCNCC1 (nonaromatic ring conformer: 115.62608046108102 kcal/mol)

>  <smiles>  (7) 
C=c1c(=Cc2[nH]c(=O)[nH]c2O)cc(C)n1CC(=O)N1CCNCC1

>  <score_type>  (7) 
oracle

>  <origin>  (7) 
adg

>  <m_score__min__energy>  (7) 
-12.789999999999999

>  <m_primary>  (7) 
energy

$$$$
7:0
     RDKit          3D

 55 57  0  0  0  0  0  0  0  0999 V2000
   52.8580   28.3660   53.3060 C   0  0  0  0  0  0  0  0  0  0  0  0
   53.9800   29.0860   53.1340 C   0  0  0  0  0  0  0  0  0  0  0  0
   54.0550   30.4320   52.7470 C   0  0  0  0  0  0  0  0  0  0  0  0
   53.0180   31.2570   52.4870 C   0  0  0  0  0  0  0  0  0  0  0  0
   52.2390   31.2990   51.2280 C   0  0  0  0  0  0  0  0  0  0  0  0
   52.2540   30.3700   50.2560 N   0  0  0  0  0  0  0  0  0  0  0  0
   51.3600   30.8360   49.3570 C   0  0  0  0  0  0  0  0  0  0  0  0
   51.0990   30.2310   48.2850 O   0  0  0  0  0  0  0  0  0  0  0  0
   50.7720   32.0020   49.6970 N   0  0  0  0  0  0  0  0  0  0  0  0
   51.3350   32.2780   50.8850 C   0  0  0  0  0  0  0  0  0  0  0  0
   51.0260   33.4020   51.6410 O   0  0  0  0  0  0  0  0  0  0  0  0
   55.4080   30.7420   52.7080 C   0  0  0  0  0  0  0  0  0  0  0  0
   56.0930   29.5920   53.0470 C   0  0  0  0  0  0  0  0  0  0  0  0
   57.5640   29.5010   53.1080 C   0  0  0  0  0  0  0  0  0  0  0  0
   58.1010   29.1890   54.2050 O   0  0  0  0  0  0  0  0  0  0  0  0
   58.3890   29.7760   51.9600 N   0  0  0  0  0  0  0  0  0  0  0  0
   58.0140   30.8190   50.9930 C   0  0  0  0  0  0  0  0  0  0  0  0
   58.2970   30.3420   49.5630 C   0  0  0  0  0  0  0  0  0  0  0  0
   59.7210   29.7350   49.3730 C   0  0  0  0  0  0  0  0  0  0  0  0
   59.6680   28.3290   48.7220 C   0  0  0  0  0  0  0  0  0  0  0  0
   59.9920   28.3150   47.2150 C   0  0  0  0  0  0  0  0  0  0  0  0
   58.7870   27.9290   46.3250 C   0  0  0  0  0  0  0  0  0  0  0  0
   58.5380   28.9170   45.1740 C   0  0  0  0  0  0  0  0  0  0  0  0
   57.1110   29.3740   45.1280 C   0  0  0  0  0  0  0  0  0  0  0  0
   56.0540   28.4210   45.2240 N   0  0  0  0  0  0  0  0  0  0  0  0
   56.8410   30.5970   44.9960 O   0  0  0  0  0  0  0  0  0  0  0  0
   60.5280   29.6950   50.6920 C   0  0  0  0  0  0  0  0  0  0  0  0
   59.7080   29.1310   51.8590 C   0  0  0  0  0  0  0  0  0  0  0  0
   55.2280   28.5880   53.3190 N   0  0  0  0  0  0  0  0  0  0  0  0
   55.5620   27.2540   53.8300 C   0  0  0  0  0  0  0  0  0  0  0  0
   52.9227   27.3117   53.6131 H   0  0  0  0  0  0  0  0  0  0  0  0
   51.8751   28.8311   53.1396 H   0  0  0  0  0  0  0  0  0  0  0  0
   52.7259   31.9603   53.2808 H   0  0  0  0  0  0  0  0  0  0  0  0
   55.8497   31.7172   52.4553 H   0  0  0  0  0  0  0  0  0  0  0  0
   56.9417   31.0416   51.0963 H   0  0  0  0  0  0  0  0  0  0  0  0
   58.6064   31.7239   51.1934 H   0  0  0  0  0  0  0  0  0  0  0  0
   57.5546   29.5741   49.3001 H   0  0  0  0  0  0  0  0  0  0  0  0
   58.2359   31.2265   48.9119 H   0  0  0  0  0  0  0  0  0  0  0  0
   60.2496   30.4102   48.6840 H   0  0  0  0  0  0  0  0  0  0  0  0
   60.3949   27.6835   49.2367 H   0  0  0  0  0  0  0  0  0  0  0  0
   58.6322   27.9732   48.8248 H   0  0  0  0  0  0  0  0  0  0  0  0
   60.3319   29.3197   46.9232 H   0  0  0  0  0  0  0  0  0  0  0  0
   60.7661   27.5492   47.0590 H   0  0  0  0  0  0  0  0  0  0  0  0
   58.9749   26.9337   45.8959 H   0  0  0  0  0  0  0  0  0  0  0  0
   57.8924   27.9432   46.9649 H   0  0  0  0  0  0  0  0  0  0  0  0
   59.1879   29.7938   45.3112 H   0  0  0  0  0  0  0  0  0  0  0  0
   58.7614   28.4017   44.2282 H   0  0  0  0  0  0  0  0  0  0  0  0
   55.1370   28.6790   45.6510 H   0  0  0  0  0  0  0  0  0  0  0  0
   61.4155   29.0620   50.5447 H   0  0  0  0  0  0  0  0  0  0  0  0
   60.8090   30.7277   50.9461 H   0  0  0  0  0  0  0  0  0  0  0  0
   59.5658   28.0511   51.7056 H   0  0  0  0  0  0  0  0  0  0  0  0
   60.2580   29.3280   52.7910 H   0  0  0  0  0  0  0  0  0  0  0  0
   55.5577   27.2710   54.9299 H   0  0  0  0  0  0  0  0  0  0  0  0
   54.8181   26.5272   53.4716 H   0  0  0  0  0  0  0  0  0  0  0  0
   56.5606   26.9635   53.4716 H   0  0  0  0  0  0  0  0  0  0  0  0
  1  2  2  0
  2  3  1  0
  3  4  2  3
  4  5  1  0
  5  6  1  0
  6  7  1  0
  7  8  2  0
  7  9  1  0
  9 10  1  0
 10 11  1  0
  3 12  1  0
 12 13  2  0
 13 14  1  0
 14 15  2  0
 14 16  1  0
 16 17  1  0
 17 18  1  0
 18 19  1  0
 19 20  1  0
 20 21  1  0
 21 22  1  0
 22 23  1  0
 23 24  1  0
 24 25  1  0
 24 26  2  0
 19 27  1  0
 27 28  1  0
 13 29  1  0
 29 30  1  0
 29  2  1  0
 10  5  2  0
 28 16  1  0
  1 31  1  0
  1 32  1  0
  4 33  1  0
 12 34  1  0
 17 35  1  0
 17 36  1  0
 18 37  1  0
 18 38  1  0
 19 39  1  0
 20 40  1  0
 20 41  1  0
 21 42  1  0
 21 43  1  0
 22 44  1  0
 22 45  1  0
 23 46  1  0
 23 47  1  0
 25 48  1  0
 27 49  1  0
 27 50  1  0
 28 51  1  0
 28 52  1  0
 30 53  1  0
 30 54  1  0
 30 55  1  0
M  CHG  4   6  -1   9  -1  11  -1  25  -1
M  END
>  <UniqueID>  (8) 
7

>  <SMILES>  (8) 
C=c1c(=Cc2[n-]c(=O)[n-]c2[O-])cc(C(=O)N2CCC(CCCCC([NH-])=O)CC2)n1C

>  <Energy>  (8) 
121.77759427626503

>  <Genealogy>  (8) 
C=c1c(=Cc2[n-]c(=O)[n-]c2[O-])cc(C(=O)N2CCC(CCCCC([NH-])=O)CC2)n1C (protonated)
C=c1c(=Cc2[n-]c(=O)[n-]c2[O-])cc(C(=O)N2CCC(CCCCC([NH-])=O)CC2)n1C (3D coordinates assigned)
C=c1c(=Cc2[n-]c(=O)[n-]c2[O-])cc(C(=O)N2CCC(CCCCC([NH-])=O)CC2)n1C (nonaromatic ring conformer: 121.77759427626503 kcal/mol)

>  <smiles>  (8) 
C=c1c(=Cc2[nH]c(=O)[nH]c2O)cc(C(=O)N2CCC(CCCCC(N)=O)CC2)n1C

>  <score_type>  (8) 
oracle

>  <origin>  (8) 
adg

>  <m_score__min__energy>  (8) 
-20.73

>  <m_primary>  (8) 
energy

$$$$
8:0
     RDKit          3D

 46 49  0  0  0  0  0  0  0  0999 V2000
   56.4750   28.3110   53.6530 C   0  0  0  0  0  0  0  0  0  0  0  0
   55.8590   29.3490   53.0790 C   0  0  0  0  0  0  0  0  0  0  0  0
   54.5330   29.5610   53.1890 N   0  0  0  0  0  0  0  0  0  0  0  0
   54.2520   30.7000   52.5220 C   0  0  0  0  0  0  0  0  0  0  0  0
   53.0020   31.1870   52.4290 C   0  0  0  0  0  0  0  0  0  0  0  0
   52.1770   31.2340   51.2010 C   0  0  0  0  0  0  0  0  0  0  0  0
   52.1900   30.3310   50.2050 N   0  0  0  0  0  0  0  0  0  0  0  0
   51.3070   30.8310   49.3130 C   0  0  0  0  0  0  0  0  0  0  0  0
   51.0280   30.2480   48.2330 O   0  0  0  0  0  0  0  0  0  0  0  0
   50.7430   32.0050   49.6730 N   0  0  0  0  0  0  0  0  0  0  0  0
   51.3030   32.2440   50.8690 C   0  0  0  0  0  0  0  0  0  0  0  0
   51.0250   33.3680   51.6390 O   0  0  0  0  0  0  0  0  0  0  0  0
   55.4160   31.2240   51.9720 C   0  0  0  0  0  0  0  0  0  0  0  0
   56.4430   30.3630   52.3250 C   0  0  0  0  0  0  0  0  0  0  0  0
   57.8590   30.4970   51.9040 C   0  0  0  0  0  0  0  0  0  0  0  0
   58.7750   30.2100   52.7250 O   0  0  0  0  0  0  0  0  0  0  0  0
   58.1990   30.8560   50.5400 N   0  0  0  0  0  0  0  0  0  0  0  0
   58.2690   32.3290   50.4030 C   0  0  0  0  0  0  0  0  0  0  0  0
   58.8740   32.7370   49.0560 C   0  0  0  0  0  0  0  0  0  0  0  0
   60.2020   32.1340   48.8810 N   0  0  0  0  0  0  0  0  0  0  0  0
   61.0990   32.6760   47.8830 C   0  0  0  0  0  0  0  0  0  0  0  0
   60.7100   33.6190   47.1390 O   0  0  0  0  0  0  0  0  0  0  0  0
   62.5110   32.1700   47.7380 C   0  0  0  0  0  0  0  0  0  0  0  0
   63.4420   33.1450   47.0310 C   0  0  0  0  0  0  0  0  0  0  0  0
   63.5810   32.9160   48.5270 C   0  0  0  0  0  0  0  0  0  0  0  0
   60.6190   31.0610   49.7960 C   0  0  0  0  0  0  0  0  0  0  0  0
   59.4310   30.1340   50.0990 C   0  0  0  0  0  0  0  0  0  0  0  0
   57.5608   28.1812   53.5338 H   0  0  0  0  0  0  0  0  0  0  0  0
   55.8962   27.5865   54.2446 H   0  0  0  0  0  0  0  0  0  0  0  0
   53.8490   28.9590   53.7030 H   0  0  0  0  0  0  0  0  0  0  0  0
   52.5516   31.5869   53.3494 H   0  0  0  0  0  0  0  0  0  0  0  0
   55.5047   32.1426   51.3735 H   0  0  0  0  0  0  0  0  0  0  0  0
   57.4130   30.5520   49.9160 H   0  0  0  0  0  0  0  0  0  0  0  0
   57.2533   32.7442   50.4796 H   0  0  0  0  0  0  0  0  0  0  0  0
   58.9124   32.7210   51.2044 H   0  0  0  0  0  0  0  0  0  0  0  0
   58.2130   32.3970   48.2451 H   0  0  0  0  0  0  0  0  0  0  0  0
   58.9759   33.8320   49.0305 H   0  0  0  0  0  0  0  0  0  0  0  0
   62.2387   31.1097   47.6300 H   0  0  0  0  0  0  0  0  0  0  0  0
   64.2133   32.7679   46.3433 H   0  0  0  0  0  0  0  0  0  0  0  0
   63.3011   34.0277   46.3899 H   0  0  0  0  0  0  0  0  0  0  0  0
   64.4523   32.3728   48.9216 H   0  0  0  0  0  0  0  0  0  0  0  0
   63.5820   33.5636   49.4162 H   0  0  0  0  0  0  0  0  0  0  0  0
   61.4259   30.4775   49.3287 H   0  0  0  0  0  0  0  0  0  0  0  0
   60.9761   31.5076   50.7357 H   0  0  0  0  0  0  0  0  0  0  0  0
   59.1927   29.5666   49.1873 H   0  0  0  0  0  0  0  0  0  0  0  0
   59.7366   29.4839   50.9321 H   0  0  0  0  0  0  0  0  0  0  0  0
  1  2  2  0
  2  3  1  0
  3  4  1  0
  4  5  2  3
  5  6  1  0
  6  7  1  0
  7  8  1  0
  8  9  2  0
  8 10  1  0
 10 11  1  0
 11 12  1  0
  4 13  1  0
 13 14  2  0
 14 15  1  0
 15 16  2  0
 15 17  1  0
 17 18  1  0
 18 19  1  0
 19 20  1  0
 20 21  1  0
 21 22  2  0
 21 23  1  0
 23 24  1  0
 24 25  1  0
 20 26  1  0
 26 27  1  0
 14  2  1  0
 27 17  1  0
 11  6  2  0
 25 23  1  0
  1 28  1  0
  1 29  1  0
  3 30  1  0
  5 31  1  0
 13 32  1  0
 17 33  1  0
 18 34  1  0
 18 35  1  0
 19 36  1  0
 19 37  1  0
 23 38  1  0
 24 39  1  0
 24 40  1  0
 25 41  1  0
 25 42  1  0
 26 43  1  0
 26 44  1  0
 27 45  1  0
 27 46  1  0
M  CHG  4   7  -1  10  -1  12  -1  17   1
M  END
>  <UniqueID>  (9) 
8

>  <SMILES>  (9) 
C=c1[nH]c(=Cc2[n-]c(=O)[n-]c2[O-])cc1C(=O)[NH+]1CCN(C(=O)C2CC2)CC1

>  <Energy>  (9) 
382.1229348964994

>  <Genealogy>  (9) 
C=c1[nH]c(=Cc2[n-]c(=O)[n-]c2[O-])cc1C(=O)[NH+]1CCN(C(=O)C2CC2)CC1 (protonated)
C=c1[nH]c(=Cc2[n-]c(=O)[n-]c2[O-])cc1C(=O)[NH+]1CCN(C(=O)C2CC2)CC1 (3D coordinates assigned)
C=c1[nH]c(=Cc2[n-]c(=O)[n-]c2[O-])cc1C(=O)[NH+]1CCN(C(=O)C2CC2)CC1 (nonaromatic ring conformer: 382.1229348964994 kcal/mol)

>  <smiles>  (9) 
C=c1[nH]c(=Cc2[nH]c(=O)[nH]c2O)cc1C(=O)N1CCN(C(=O)C2CC2)CC1

>  <score_type>  (9) 
oracle

>  <origin>  (9) 
adg

>  <m_score__min__energy>  (9) 
-16.32

>  <m_primary>  (9) 
energy

$$$$
9:0
     RDKit          3D

 49 52  0  0  0  0  0  0  0  0999 V2000
   58.0096   34.1965   46.5982 H   0  0  0  0  0  0  0  0  0  0  0  0
   57.8810   33.5760   45.6990 C   0  0  0  0  0  0  0  0  0  0  0  0
   57.0410   32.5080   45.6640 N   0  0  0  0  0  0  0  0  0  0  0  0
   57.0640   31.9020   44.4550 C   0  0  0  0  0  0  0  0  0  0  0  0
   56.3430   30.8660   44.1410 N   0  0  0  0  0  0  0  0  0  0  0  0
   56.2760   29.6370   44.8830 C   0  0  0  0  0  0  0  0  0  0  0  0
   55.2080   28.9710   44.8460 O   0  0  0  0  0  0  0  0  0  0  0  0
   57.4360   29.1060   45.6390 C   0  0  0  0  0  0  0  0  0  0  0  0
   57.6440   27.7210   45.7310 C   0  0  0  0  0  0  0  0  0  0  0  0
   56.9499   27.0293   45.2312 H   0  0  0  0  0  0  0  0  0  0  0  0
   58.7280   27.2160   46.4540 C   0  0  0  0  0  0  0  0  0  0  0  0
   58.8806   26.1289   46.5244 H   0  0  0  0  0  0  0  0  0  0  0  0
   59.6190   28.0860   47.0880 C   0  0  0  0  0  0  0  0  0  0  0  0
   60.6500   27.5640   47.7980 F   0  0  0  0  0  0  0  0  0  0  0  0
   59.4360   29.4760   46.9860 C   0  0  0  0  0  0  0  0  0  0  0  0
   60.5040   30.6230   47.8020 S   0  0  0  0  0  0  0  0  0  0  0  0
   61.8740   30.4960   47.1960 O   0  0  0  0  0  0  0  0  0  0  0  0
   60.6090   30.3040   49.2670 O   0  0  0  0  0  0  0  0  0  0  0  0
   59.9250   32.2640   47.5770 N   0  0  0  0  0  0  0  0  0  0  0  0
   59.0810   32.1820   46.9630 H   0  0  0  0  0  0  0  0  0  0  0  0
   59.4670   32.8660   48.8500 C   0  0  0  0  0  0  0  0  0  0  0  0
   58.9746   33.8250   48.6313 H   0  0  0  0  0  0  0  0  0  0  0  0
   58.7726   32.1588   49.3271 H   0  0  0  0  0  0  0  0  0  0  0  0
   60.6280   33.1170   49.8250 C   0  0  0  0  0  0  0  0  0  0  0  0
   60.3303   33.8904   50.5483 H   0  0  0  0  0  0  0  0  0  0  0  0
   60.8614   32.1757   50.3441 H   0  0  0  0  0  0  0  0  0  0  0  0
   61.8250   33.5660   49.1070 N   0  0  0  0  0  0  0  0  0  0  0  0
   63.1230   33.4770   49.7300 C   0  0  0  0  0  0  0  0  0  0  0  0
   63.4050   34.2050   50.9000 C   0  0  0  0  0  0  0  0  0  0  0  0
   62.6256   34.8360   51.3521 H   0  0  0  0  0  0  0  0  0  0  0  0
   64.6690   34.1320   51.4920 C   0  0  0  0  0  0  0  0  0  0  0  0
   64.8804   34.7026   52.4083 H   0  0  0  0  0  0  0  0  0  0  0  0
   65.6640   33.3350   50.9210 C   0  0  0  0  0  0  0  0  0  0  0  0
   66.6573   33.2753   51.3899 H   0  0  0  0  0  0  0  0  0  0  0  0
   65.3980   32.6140   49.7550 C   0  0  0  0  0  0  0  0  0  0  0  0
   66.1833   31.9892   49.3046 H   0  0  0  0  0  0  0  0  0  0  0  0
   64.1350   32.6850   49.1590 C   0  0  0  0  0  0  0  0  0  0  0  0
   63.9320   32.1182   48.2384 H   0  0  0  0  0  0  0  0  0  0  0  0
   61.6640   34.1070   47.7550 C   0  0  0  0  0  0  0  0  0  0  0  0
   61.0815   35.0388   47.8043 H   0  0  0  0  0  0  0  0  0  0  0  0
   62.6585   34.3056   47.3289 H   0  0  0  0  0  0  0  0  0  0  0  0
   60.9280   33.0950   46.8570 C   0  0  0  0  0  0  0  0  0  0  0  0
   60.4097   33.6511   46.0619 H   0  0  0  0  0  0  0  0  0  0  0  0
   61.6896   32.4053   46.4643 H   0  0  0  0  0  0  0  0  0  0  0  0
   58.3550   29.9760   46.2490 C   0  0  0  0  0  0  0  0  0  0  0  0
   58.2240   31.0634   46.1466 H   0  0  0  0  0  0  0  0  0  0  0  0
   58.1020   32.6700   43.3840 S   0  0  0  0  0  0  0  0  0  0  0  0
   58.5660   33.8270   44.5150 C   0  0  0  0  0  0  0  0  0  0  0  0
   59.2865   34.6410   44.3467 H   0  0  0  0  0  0  0  0  0  0  0  0
  1  2  1  0
  2  3  1  0
  3  4  1  0
  4  5  2  0
  5  6  1  0
  6  7  2  0
  6  8  1  0
  8  9  2  0
  9 10  1  0
  9 11  1  0
 11 12  1  0
 11 13  2  0
 13 14  1  0
 13 15  1  0
 15 16  1  0
 16 17  2  0
 16 18  2  0
 16 19  1  0
 19 20  1  0
 19 21  1  0
 21 22  1  0
 21 23  1  0
 21 24  1  0
 24 25  1  0
 24 26  1  0
 24 27  1  0
 27 28  1  0
 28 29  2  0
 29 30  1  0
 29 31  1  0
 31 32  1  0
 31 33  2  0
 33 34  1  0
 33 35  1  0
 35 36  1  0
 35 37  2  0
 37 38  1  0
 27 39  1  0
 39 40  1  0
 39 41  1  0
 39 42  1  0
 42 43  1  0
 42 44  1  0
 15 45  2  0
 45 46  1  0
  4 47  1  0
 47 48  1  0
 48 49  1  0
 48  2  2  0
 45  8  1  0
 42 19  1  0
 37 28  1  0
M  CHG  2   3  -1  19   1
M  END
>  <UniqueID>  (10) 
9

>  <SMILES>  (10) 
O=C(/N=c1\[n-]ccs1)c1ccc(F)c(S(=O)(=O)[NH+]2CCN(c3ccccc3)CC2)c1

>  <Energy>  (10) 
99.3610462398635

>  <Genealogy>  (10) 
O=C(N=c1[n-]ccs1)c1ccc(F)c(S(=O)(=O)[NH+]2CCN(c3ccccc3)CC2)c1 (protonated)
O=C(/N=c1\[n-]ccs1)c1ccc(F)c(S(=O)(=O)[NH+]2CCN(c3ccccc3)CC2)c1 (cis-trans isomerization)
O=C(/N=c1\[n-]ccs1)c1ccc(F)c(S(=O)(=O)[NH+]2CCN(c3ccccc3)CC2)c1 (3D coordinates assigned)
O=C(/N=c1\[n-]ccs1)c1ccc(F)c(S(=O)(=O)[NH+]2CCN(c3ccccc3)CC2)c1 (nonaromatic ring conformer: 99.3610462398635 kcal/mol)

>  <smiles>  (10) 
O=C(N=c1[nH]ccs1)c1ccc(F)c(S(=O)(=O)N2CCN(c3ccccc3)CC2)c1

>  <score_type>  (10) 
oracle

>  <origin>  (10) 
adg

>  <m_score__min__energy>  (10) 
-8.8200000000000003

>  <m_primary>  (10) 
energy

$$$$
10:0
     RDKit          3D

 51 53  0  0  0  0  0  0  0  0999 V2000
   56.0319   32.1173   45.3940 H   0  0  0  0  0  0  0  0  0  0  0  0
   57.0200   32.3060   44.9490 C   0  0  0  0  0  0  0  0  0  0  0  0
   57.7040   33.5840   45.2440 C   0  0  0  0  0  0  0  0  0  0  0  0
   57.3030   34.6480   44.6960 O   0  0  0  0  0  0  0  0  0  0  0  0
   58.8080   33.6340   46.1660 N   0  0  0  0  0  0  0  0  0  0  0  0
   59.6720   32.4600   46.3580 C   0  0  0  0  0  0  0  0  0  0  0  0
   59.8951   32.0152   45.3770 H   0  0  0  0  0  0  0  0  0  0  0  0
   59.1425   31.7409   47.0004 H   0  0  0  0  0  0  0  0  0  0  0  0
   60.9930   32.8440   47.0460 C   0  0  0  0  0  0  0  0  0  0  0  0
   61.6005   33.4226   46.3345 H   0  0  0  0  0  0  0  0  0  0  0  0
   61.4836   31.9073   47.3491 H   0  0  0  0  0  0  0  0  0  0  0  0
   60.8070   33.6600   48.2800 N   0  0  0  0  0  0  0  0  0  0  0  0
   61.6680   34.2590   48.3390 H   0  0  0  0  0  0  0  0  0  0  0  0
   60.7970   32.8860   49.5120 C   0  0  0  0  0  0  0  0  0  0  0  0
   61.8480   32.2870   49.8680 O   0  0  0  0  0  0  0  0  0  0  0  0
   59.6010   32.7460   50.3760 C   0  0  0  0  0  0  0  0  0  0  0  0
   58.5330   31.8940   50.0420 C   0  0  0  0  0  0  0  0  0  0  0  0
   58.5910   31.1260   48.8760 O   0  0  0  0  0  0  0  0  0  0  0  0
   58.9010   29.7380   48.8710 C   0  0  0  0  0  0  0  0  0  0  0  0
   58.1286   29.1920   48.3095 H   0  0  0  0  0  0  0  0  0  0  0  0
   58.9342   29.3664   49.9058 H   0  0  0  0  0  0  0  0  0  0  0  0
   60.2560   29.5220   48.2110 C   0  0  0  0  0  0  0  0  0  0  0  0
   61.0262   29.3992   48.9867 H   0  0  0  0  0  0  0  0  0  0  0  0
   60.2189   28.6184   47.5848 H   0  0  0  0  0  0  0  0  0  0  0  0
   60.5017   30.3923   47.5848 H   0  0  0  0  0  0  0  0  0  0  0  0
   57.4500   31.8060   50.8670 N   0  0  0  0  0  0  0  0  0  0  0  0
   57.3560   32.5380   52.0070 C   0  0  0  0  0  0  0  0  0  0  0  0
   56.4687   32.4416   52.6499 H   0  0  0  0  0  0  0  0  0  0  0  0
   58.3830   33.4120   52.3640 C   0  0  0  0  0  0  0  0  0  0  0  0
   58.3086   34.0107   53.2838 H   0  0  0  0  0  0  0  0  0  0  0  0
   59.5060   33.5190   51.5420 C   0  0  0  0  0  0  0  0  0  0  0  0
   60.3181   34.2111   51.8094 H   0  0  0  0  0  0  0  0  0  0  0  0
   59.6510   34.6000   48.2430 C   0  0  0  0  0  0  0  0  0  0  0  0
   59.9536   35.5471   48.7135 H   0  0  0  0  0  0  0  0  0  0  0  0
   58.8198   34.1222   48.7822 H   0  0  0  0  0  0  0  0  0  0  0  0
   59.1670   34.8940   46.8200 C   0  0  0  0  0  0  0  0  0  0  0  0
   59.9696   35.3879   46.2526 H   0  0  0  0  0  0  0  0  0  0  0  0
   58.2891   35.5558   46.8565 H   0  0  0  0  0  0  0  0  0  0  0  0
   57.5630   31.3700   44.1580 C   0  0  0  0  0  0  0  0  0  0  0  0
   57.8577   31.6577   43.1380 H   0  0  0  0  0  0  0  0  0  0  0  0
   57.7880   29.9670   44.5840 C   0  0  0  0  0  0  0  0  0  0  0  0
   59.1150   29.5180   44.7140 C   0  0  0  0  0  0  0  0  0  0  0  0
   59.9459   30.2025   44.4881 H   0  0  0  0  0  0  0  0  0  0  0  0
   59.3880   28.2120   45.1270 C   0  0  0  0  0  0  0  0  0  0  0  0
   60.4299   27.8708   45.2160 H   0  0  0  0  0  0  0  0  0  0  0  0
   58.3410   27.3390   45.4270 C   0  0  0  0  0  0  0  0  0  0  0  0
   58.6120   26.0740   45.8380 F   0  0  0  0  0  0  0  0  0  0  0  0
   57.0160   27.7740   45.3250 C   0  0  0  0  0  0  0  0  0  0  0  0
   56.0020   26.9310   45.6490 F   0  0  0  0  0  0  0  0  0  0  0  0
   56.7330   29.0830   44.9120 C   0  0  0  0  0  0  0  0  0  0  0  0
   55.4380   29.4930   44.9030 F   0  0  0  0  0  0  0  0  0  0  0  0
  1  2  1  0
  2  3  1  0
  3  4  2  0
  3  5  1  0
  5  6  1  0
  6  7  1  0
  6  8  1  0
  6  9  1  0
  9 10  1  0
  9 11  1  0
  9 12  1  0
 12 13  1  0
 12 14  1  0
 14 15  2  0
 14 16  1  0
 16 17  2  0
 17 18  1  0
 18 19  1  0
 19 20  1  0
 19 21  1  0
 19 22  1  0
 22 23  1  0
 22 24  1  0
 22 25  1  0
 17 26  1  0
 26 27  2  0
 27 28  1  0
 27 29  1  0
 29 30  1  0
 29 31  2  0
 31 32  1  0
 12 33  1  0
 33 34  1  0
 33 35  1  0
 33 36  1  0
 36 37  1  0
 36 38  1  0
  2 39  2  0
 39 40  1  0
 39 41  1  0
 41 42  2  0
 42 43  1  0
 42 44  1  0
 44 45  1  0
 44 46  2  0
 46 47  1  0
 46 48  1  0
 48 49  1  0
 48 50  2  0
 50 51  1  0
 36  5  1  0
 50 41  1  0
 31 16  1  0
M  CHG  1  12   1
M  END
>  <UniqueID>  (11) 
10

>  <SMILES>  (11) 
CCOc1ncccc1C(=O)[NH+]1CCN(C(=O)/C=C/c2ccc(F)c(F)c2F)CC1

>  <Energy>  (11) 
70.04357241195432

>  <Genealogy>  (11) 
CCOc1ncccc1C(=O)[NH+]1CCN(C(=O)C=Cc2ccc(F)c(F)c2F)CC1 (protonated)
CCOc1ncccc1C(=O)[NH+]1CCN(C(=O)/C=C/c2ccc(F)c(F)c2F)CC1 (cis-trans isomerization)
CCOc1ncccc1C(=O)[NH+]1CCN(C(=O)/C=C/c2ccc(F)c(F)c2F)CC1 (3D coordinates assigned)
CCOc1ncccc1C(=O)[NH+]1CCN(C(=O)/C=C/c2ccc(F)c(F)c2F)CC1 (nonaromatic ring conformer: 70.04357241195432 kcal/mol)

>  <smiles>  (11) 
CCOc1ncccc1C(=O)N1CCN(C(=O)C=Cc2ccc(F)c(F)c2F)CC1

>  <score_type>  (11) 
oracle

>  <origin>  (11) 
adg

>  <m_score__min__energy>  (11) 
-6.3899999999999997

>  <m_primary>  (11) 
energy

$$$$
11:0
     RDKit          3D

 67 72  0  0  0  0  0  0  0  0999 V2000
   59.6590   34.5940   54.2490 C   0  0  0  0  0  0  0  0  0  0  0  0
   59.3280   33.4260   53.3640 C   0  0  0  0  0  0  0  0  0  0  0  0
   58.1050   33.4240   52.6710 C   0  0  0  0  0  0  0  0  0  0  0  0
   57.7520   32.3450   51.8550 C   0  0  0  0  0  0  0  0  0  0  0  0
   58.6140   31.2550   51.7270 C   0  0  0  0  0  0  0  0  0  0  0  0
   59.8400   31.2530   52.3910 C   0  0  0  0  0  0  0  0  0  0  0  0
   60.2220   32.3420   53.1870 C   0  0  0  0  0  0  0  0  0  0  0  0
   61.5250   32.3240   53.7880 N   0  0  0  0  0  0  0  0  0  0  0  0
   62.6790   32.7900   53.0850 C   0  0  0  0  0  0  0  0  0  0  0  0
   63.6750   33.2180   53.7310 O   0  0  0  0  0  0  0  0  0  0  0  0
   62.6680   32.8150   51.5780 C   0  0  0  0  0  0  0  0  0  0  0  0
   64.0810   33.0000   50.9920 C   0  0  0  0  0  0  0  0  0  0  0  0
   64.0430   32.8930   49.4600 C   0  0  0  0  0  0  0  0  0  0  0  0
   62.8720   33.5840   48.8980 N   0  0  0  0  0  0  0  0  0  0  0  0
   62.6750   33.5640   47.4750 C   0  0  0  0  0  0  0  0  0  0  0  0
   63.6550   33.7860   46.7150 O   0  0  0  0  0  0  0  0  0  0  0  0
   61.3450   33.2770   46.8880 C   0  0  0  0  0  0  0  0  0  0  0  0
   60.5220   34.3250   46.4350 C   0  0  0  0  0  0  0  0  0  0  0  0
   59.2600   34.0570   45.8960 C   0  0  0  0  0  0  0  0  0  0  0  0
   58.7950   32.7370   45.8100 C   0  0  0  0  0  0  0  0  0  0  0  0
   57.5290   32.4160   45.2740 C   0  0  0  0  0  0  0  0  0  0  0  0
   56.7470   33.3080   44.8460 O   0  0  0  0  0  0  0  0  0  0  0  0
   57.1730   31.1070   45.2250 N   0  0  0  0  0  0  0  0  0  0  0  0
   56.0510   30.5990   44.7390 N   0  0  0  0  0  0  0  0  0  0  0  0
   56.1420   29.2520   44.8690 C   0  0  0  0  0  0  0  0  0  0  0  0
   57.3580   28.9120   45.4560 C   0  0  0  0  0  0  0  0  0  0  0  0
   57.8750   27.5680   45.7440 C   0  0  0  0  0  0  0  0  0  0  0  0
   59.0550   27.2690   45.4120 O   0  0  0  0  0  0  0  0  0  0  0  0
   57.0120   26.5880   46.3350 N   0  0  0  0  0  0  0  0  0  0  0  0
   56.5370   25.3930   45.6960 C   0  0  0  0  0  0  0  0  0  0  0  0
   57.4300   24.3860   45.2790 C   0  0  0  0  0  0  0  0  0  0  0  0
   56.9480   23.2310   44.6580 C   0  0  0  0  0  0  0  0  0  0  0  0
   55.5760   23.0630   44.4580 C   0  0  0  0  0  0  0  0  0  0  0  0
   54.6820   24.0410   44.8960 C   0  0  0  0  0  0  0  0  0  0  0  0
   55.1520   25.2020   45.5220 C   0  0  0  0  0  0  0  0  0  0  0  0
   54.2260   26.1540   45.9510 O   0  0  0  0  0  0  0  0  0  0  0  0
   57.9710   30.1260   45.6610 C   0  0  0  0  0  0  0  0  0  0  0  0
   59.1950   30.3800   46.1840 N   0  0  0  0  0  0  0  0  0  0  0  0
   59.6230   31.6730   46.2700 C   0  0  0  0  0  0  0  0  0  0  0  0
   60.8820   31.9530   46.8060 C   0  0  0  0  0  0  0  0  0  0  0  0
   62.1120   34.5320   49.7220 C   0  0  0  0  0  0  0  0  0  0  0  0
   61.6890   33.9010   51.0630 C   0  0  0  0  0  0  0  0  0  0  0  0
   59.5732   34.2913   55.3030 H   0  0  0  0  0  0  0  0  0  0  0  0
   60.6872   34.9281   54.0460 H   0  0  0  0  0  0  0  0  0  0  0  0
   58.9590   35.4178   54.0460 H   0  0  0  0  0  0  0  0  0  0  0  0
   57.4198   34.2787   52.7716 H   0  0  0  0  0  0  0  0  0  0  0  0
   56.7945   32.3552   51.3137 H   0  0  0  0  0  0  0  0  0  0  0  0
   58.3260   30.3969   51.1019 H   0  0  0  0  0  0  0  0  0  0  0  0
   60.5135   30.3893   52.2894 H   0  0  0  0  0  0  0  0  0  0  0  0
   62.3112   31.8352   51.2279 H   0  0  0  0  0  0  0  0  0  0  0  0
   64.4648   33.9908   51.2768 H   0  0  0  0  0  0  0  0  0  0  0  0
   64.7381   32.2121   51.3888 H   0  0  0  0  0  0  0  0  0  0  0  0
   64.9567   33.3459   49.0477 H   0  0  0  0  0  0  0  0  0  0  0  0
   63.9764   31.8285   49.1909 H   0  0  0  0  0  0  0  0  0  0  0  0
   60.8748   35.3645   46.5056 H   0  0  0  0  0  0  0  0  0  0  0  0
   58.6298   34.8845   45.5382 H   0  0  0  0  0  0  0  0  0  0  0  0
   55.3692   28.5341   44.5568 H   0  0  0  0  0  0  0  0  0  0  0  0
   58.5107   24.5097   45.4430 H   0  0  0  0  0  0  0  0  0  0  0  0
   57.6505   22.4524   44.3259 H   0  0  0  0  0  0  0  0  0  0  0  0
   55.2001   22.1597   43.9552 H   0  0  0  0  0  0  0  0  0  0  0  0
   53.6012   23.8989   44.7485 H   0  0  0  0  0  0  0  0  0  0  0  0
   54.3730   26.7190   46.7790 H   0  0  0  0  0  0  0  0  0  0  0  0
   61.5164   31.1300   47.1670 H   0  0  0  0  0  0  0  0  0  0  0  0
   62.7389   35.4132   49.9234 H   0  0  0  0  0  0  0  0  0  0  0  0
   61.2028   34.8161   49.1719 H   0  0  0  0  0  0  0  0  0  0  0  0
   61.6272   34.6988   51.8178 H   0  0  0  0  0  0  0  0  0  0  0  0
   60.7210   33.4066   50.8940 H   0  0  0  0  0  0  0  0  0  0  0  0
  1  2  1  0
  2  3  2  0
  3  4  1  0
  4  5  2  0
  5  6  1  0
  6  7  2  0
  7  8  1  0
  8  9  1  0
  9 10  2  0
  9 11  1  0
 11 12  1  0
 12 13  1  0
 13 14  1  0
 14 15  1  0
 15 16  2  0
 15 17  1  0
 17 18  2  0
 18 19  1  0
 19 20  2  0
 20 21  1  0
 21 22  2  0
 21 23  1  0
 23 24  1  0
 24 25  1  0
 25 26  2  0
 26 27  1  0
 27 28  2  0
 27 29  1  0
 29 30  1  0
 30 31  2  0
 31 32  1  0
 32 33  2  0
 33 34  1  0
 34 35  2  0
 35 36  1  0
 26 37  1  0
 37 38  2  0
 38 39  1  0
 39 40  2  0
 14 41  1  0
 41 42  1  0
  7  2  1  0
 42 11  1  0
 40 17  1  0
 39 20  1  0
 37 23  1  0
 35 30  1  0
  1 43  1  0
  1 44  1  0
  1 45  1  0
  3 46  1  0
  4 47  1  0
  5 48  1  0
  6 49  1  0
 11 50  1  0
 12 51  1  0
 12 52  1  0
 13 53  1  0
 13 54  1  0
 18 55  1  0
 19 56  1  0
 25 57  1  0
 31 58  1  0
 32 59  1  0
 33 60  1  0
 34 61  1  0
 36 62  1  0
 40 63  1  0
 41 64  1  0
 41 65  1  0
 42 66  1  0
 42 67  1  0
M  CHG  3   8  -1  24  -1  29  -1
M  END
>  <UniqueID>  (12) 
11

>  <SMILES>  (12) 
Cc1ccccc1[N-]C(=O)C1CCN(C(=O)c2ccc3c(=O)n4[n-]cc(C(=O)[N-]c5ccccc5O)c4nc3c2)CC1

>  <Energy>  (12) 
142.30571579475736

>  <Genealogy>  (12) 
Cc1ccccc1[N-]C(=O)C1CCN(C(=O)c2ccc3c(=O)n4[n-]cc(C(=O)[N-]c5ccccc5O)c4nc3c2)CC1 (protonated)
Cc1ccccc1[N-]C(=O)C1CCN(C(=O)c2ccc3c(=O)n4[n-]cc(C(=O)[N-]c5ccccc5O)c4nc3c2)CC1 (3D coordinates assigned)
Cc1ccccc1[N-]C(=O)C1CCN(C(=O)c2ccc3c(=O)n4[n-]cc(C(=O)[N-]c5ccccc5O)c4nc3c2)CC1 (nonaromatic ring conformer: 142.30571579475736 kcal/mol)

>  <smiles>  (12) 
Cc1ccccc1NC(=O)C1CCN(C(=O)c2ccc3c(=O)n4[nH]cc(C(=O)Nc5ccccc5O)c4nc3c2)CC1

>  <score_type>  (12) 
oracle

>  <origin>  (12) 
adg

>  <m_score__min__energy>  (12) 
-15.43

>  <m_primary>  (12) 
energy

$$$$
12:0
     RDKit          3D

 45 47  0  0  1  0  0  0  0  0999 V2000
   54.3810   30.7830   51.8080 C   0  0  0  0  0  0  0  0  0  0  0  0
   55.4350   30.5550   52.6070 C   0  0  0  0  0  0  0  0  0  0  0  0
   56.7340   30.5250   51.8980 C   0  0  0  0  0  0  0  0  0  0  0  0
   57.3630   29.4510   51.9640 O   0  0  0  0  0  0  0  0  0  0  0  0
   57.1910   31.6660   51.2030 N   0  0  0  0  0  0  0  0  0  0  0  0
   58.3980   31.7770   50.4910 C   0  0  0  0  0  0  0  0  0  0  0  0
   59.2860   32.8180   50.5700 C   0  0  0  0  0  0  0  0  0  0  0  0
   60.4680   32.8710   49.8380 C   0  0  0  0  0  0  0  0  0  0  0  0
   60.7890   31.8510   48.9890 C   0  0  0  0  0  0  0  0  0  0  0  0
   59.8990   30.7960   48.9020 C   0  0  0  0  0  0  0  0  0  0  0  0
   57.0950   30.8500   44.9050 N   0  0  0  0  0  0  0  0  0  0  0  0
   58.1280   30.1850   45.2150 C   0  0  0  0  0  0  0  0  0  0  0  0
   60.3080   28.8040   45.9240 C   0  0  0  0  0  0  0  0  0  0  0  0
   59.8050   28.6920   44.6430 C   0  0  0  0  0  0  0  0  0  0  0  0
   58.7110   29.3870   44.2930 N   0  0  0  0  0  0  0  0  0  0  0  0
   59.6900   29.6350   46.8600 C   0  0  0  0  0  0  0  0  0  0  0  0
   60.1890   29.7080   48.0310 N   0  0  0  0  0  0  0  0  0  0  0  0
   57.0260   32.2370   44.5270 C   0  0  0  0  0  0  0  0  0  0  0  0
   57.9080   33.1160   45.3470 C   0  0  0  0  0  0  0  0  0  0  0  0
   57.6830   33.3180   46.7100 C   0  0  0  0  0  0  0  0  0  0  0  0
   58.4670   34.1130   47.4870 C   0  0  0  0  0  0  0  0  0  0  0  0
   59.5580   34.7740   46.9280 C   0  0  0  0  0  0  0  0  0  0  0  0
   59.8100   34.6020   45.6000 C   0  0  0  0  0  0  0  0  0  0  0  0
   58.9970   33.7850   44.8210 C   0  0  0  0  0  0  0  0  0  0  0  0
   58.6090   30.3020   46.4640 N   0  0  0  0  0  0  0  0  0  0  0  0
   58.7300   30.7480   49.6290 C   0  0  0  0  0  0  0  0  0  0  0  0
   53.3674   30.8254   52.2333 H   0  0  0  0  0  0  0  0  0  0  0  0
   54.5307   30.9275   50.7279 H   0  0  0  0  0  0  0  0  0  0  0  0
   55.3418   30.4038   53.6926 H   0  0  0  0  0  0  0  0  0  0  0  0
   56.5460   32.5040   51.2370 H   0  0  0  0  0  0  0  0  0  0  0  0
   59.0524   33.6536   51.2461 H   0  0  0  0  0  0  0  0  0  0  0  0
   61.1428   33.7333   49.9431 H   0  0  0  0  0  0  0  0  0  0  0  0
   61.7170   31.8677   48.3987 H   0  0  0  0  0  0  0  0  0  0  0  0
   61.2039   28.2332   46.2095 H   0  0  0  0  0  0  0  0  0  0  0  0
   60.2990   28.0355   43.9116 H   0  0  0  0  0  0  0  0  0  0  0  0
   58.2950   29.3360   43.3410 H   0  0  0  0  0  0  0  0  0  0  0  0
   57.3263   32.3269   43.4726 H   0  0  0  0  0  0  0  0  0  0  0  0
   55.9904   32.5688   44.6926 H   0  0  0  0  0  0  0  0  0  0  0  0
   56.8285   32.8085   47.1793 H   0  0  0  0  0  0  0  0  0  0  0  0
   58.2394   34.2338   48.5564 H   0  0  0  0  0  0  0  0  0  0  0  0
   60.2011   35.4197   47.5440 H   0  0  0  0  0  0  0  0  0  0  0  0
   60.6665   35.1153   45.1384 H   0  0  0  0  0  0  0  0  0  0  0  0
   59.2283   33.6677   43.7520 H   0  0  0  0  0  0  0  0  0  0  0  0
   58.1450   30.9220   47.1580 H   0  0  0  0  0  0  0  0  0  0  0  0
   58.0560   29.8852   49.5231 H   0  0  0  0  0  0  0  0  0  0  0  0
  1  2  2  0
  2  3  1  0
  3  4  2  0
  3  5  1  0
  5  6  1  0
  6  7  2  0
  7  8  1  0
  8  9  2  0
  9 10  1  0
 10 11  1  0
 11 12  2  0
 12 13  1  0
 13 14  2  0
 14 15  1  0
 15 16  1  0
 16 17  2  0
 17 18  1  0
 18 19  1  0
 19 20  2  0
 20 21  1  0
 21 22  2  0
 22 23  1  0
 23 24  2  0
 16 25  1  0
 10 26  2  0
 26  6  1  0
 25 12  1  0
 24 19  1  0
  1 27  1  0
  1 28  1  0
  2 29  1  0
  5 30  1  0
  7 31  1  0
  8 32  1  0
  9 33  1  0
 13 34  1  0
 14 35  1  0
 15 36  1  0
 18 37  1  0
 18 38  1  0
 20 39  1  0
 21 40  1  0
 22 41  1  0
 23 42  1  0
 24 43  1  0
 25 44  1  0
 26 45  1  0
M  END
>  <smiles>  (13) 
C=CC(=O)Nc1cccc(N=c2cc[nH]c(=NCc3ccccc3)[nH]2)c1

>  <score_type>  (13) 
oracle

>  <origin>  (13) 
adg

>  <m_score__min__energy>  (13) 
-9.0099999999999998

>  <m_primary>  (13) 
energy

$$$$
13:0
     RDKit          3D

 62 65  0  0  0  0  0  0  0  0999 V2000
   56.2680   22.3500   42.6170 C   0  0  0  0  0  0  0  0  0  0  0  0
   57.5200   21.8890   43.3560 C   0  0  0  0  0  0  0  0  0  0  0  0
   57.2020   21.5460   44.7820 C   0  0  0  0  0  0  0  0  0  0  0  0
   57.5560   20.3900   45.3740 N   0  0  0  0  0  0  0  0  0  0  0  0
   57.2000   20.4430   46.6470 N   0  0  0  0  0  0  0  0  0  0  0  0
   57.5170   19.4160   47.6320 C   0  0  0  0  0  0  0  0  0  0  0  0
   56.6370   21.6390   46.9070 C   0  0  0  0  0  0  0  0  0  0  0  0
   56.6110   22.3690   45.7330 C   0  0  0  0  0  0  0  0  0  0  0  0
   56.1610   23.7940   45.5780 C   0  0  0  0  0  0  0  0  0  0  0  0
   57.2060   24.7390   46.0250 N   0  0  0  0  0  0  0  0  0  0  0  0
   56.6190   25.9110   46.7260 C   0  0  0  0  0  0  0  0  0  0  0  0
   57.5570   27.1210   46.7060 C   0  0  0  0  0  0  0  0  0  0  0  0
   57.7930   27.6060   45.2630 C   0  0  0  0  0  0  0  0  0  0  0  0
   56.7810   28.5610   44.9260 O   0  0  0  0  0  0  0  0  0  0  0  0
   57.0060   29.8250   44.3560 C   0  0  0  0  0  0  0  0  0  0  0  0
   56.8240   29.9650   42.9750 C   0  0  0  0  0  0  0  0  0  0  0  0
   57.0500   31.1930   42.3500 C   0  0  0  0  0  0  0  0  0  0  0  0
   57.4400   32.3020   43.1050 C   0  0  0  0  0  0  0  0  0  0  0  0
   57.5910   32.1930   44.4960 C   0  0  0  0  0  0  0  0  0  0  0  0
   57.9930   33.3730   45.2900 C   0  0  0  0  0  0  0  0  0  0  0  0
   57.2330   34.3790   45.3130 O   0  0  0  0  0  0  0  0  0  0  0  0
   59.2160   33.3920   46.0500 N   0  0  0  0  0  0  0  0  0  0  0  0
   59.7680   34.6120   46.6120 C   0  0  0  0  0  0  0  0  0  0  0  0
   60.9900   34.1810   47.4140 C   0  0  0  0  0  0  0  0  0  0  0  0
   60.8310   32.6780   47.6340 C   0  0  0  0  0  0  0  0  0  0  0  0
   59.8880   32.1960   46.5380 C   0  0  0  0  0  0  0  0  0  0  0  0
   57.3990   30.9450   45.1140 C   0  0  0  0  0  0  0  0  0  0  0  0
   57.7620   26.4370   44.2510 C   0  0  0  0  0  0  0  0  0  0  0  0
   58.1250   25.0970   44.9110 C   0  0  0  0  0  0  0  0  0  0  0  0
   55.4955   22.6345   43.3466 H   0  0  0  0  0  0  0  0  0  0  0  0
   56.5131   23.2168   41.9857 H   0  0  0  0  0  0  0  0  0  0  0  0
   55.8924   21.5312   41.9857 H   0  0  0  0  0  0  0  0  0  0  0  0
   57.9282   20.9996   42.8537 H   0  0  0  0  0  0  0  0  0  0  0  0
   58.2560   22.7064   43.3460 H   0  0  0  0  0  0  0  0  0  0  0  0
   58.0590   19.5900   44.9270 H   0  0  0  0  0  0  0  0  0  0  0  0
   57.3901   19.8272   48.6443 H   0  0  0  0  0  0  0  0  0  0  0  0
   56.8419   18.5580   47.4974 H   0  0  0  0  0  0  0  0  0  0  0  0
   58.5582   19.0878   47.4974 H   0  0  0  0  0  0  0  0  0  0  0  0
   56.2626   21.9766   47.8847 H   0  0  0  0  0  0  0  0  0  0  0  0
   55.9346   23.9850   44.5186 H   0  0  0  0  0  0  0  0  0  0  0  0
   55.2668   23.9453   46.2006 H   0  0  0  0  0  0  0  0  0  0  0  0
   55.6756   26.1849   46.2310 H   0  0  0  0  0  0  0  0  0  0  0  0
   56.4506   25.6293   47.7759 H   0  0  0  0  0  0  0  0  0  0  0  0
   57.1067   27.9362   47.2914 H   0  0  0  0  0  0  0  0  0  0  0  0
   58.5231   26.8256   47.1413 H   0  0  0  0  0  0  0  0  0  0  0  0
   58.7917   28.0641   45.2097 H   0  0  0  0  0  0  0  0  0  0  0  0
   56.5002   29.1003   42.3772 H   0  0  0  0  0  0  0  0  0  0  0  0
   56.9208   31.2874   41.2617 H   0  0  0  0  0  0  0  0  0  0  0  0
   57.6295   33.2644   42.6072 H   0  0  0  0  0  0  0  0  0  0  0  0
   60.0608   35.3055   45.8099 H   0  0  0  0  0  0  0  0  0  0  0  0
   59.0343   35.1372   47.2411 H   0  0  0  0  0  0  0  0  0  0  0  0
   61.9116   34.3909   46.8513 H   0  0  0  0  0  0  0  0  0  0  0  0
   61.0627   34.7253   48.3671 H   0  0  0  0  0  0  0  0  0  0  0  0
   61.8049   32.1734   47.5507 H   0  0  0  0  0  0  0  0  0  0  0  0
   60.4354   32.4548   48.6358 H   0  0  0  0  0  0  0  0  0  0  0  0
   60.4548   31.7154   45.7270 H   0  0  0  0  0  0  0  0  0  0  0  0
   59.1722   31.4502   46.9141 H   0  0  0  0  0  0  0  0  0  0  0  0
   57.5569   30.8425   46.1978 H   0  0  0  0  0  0  0  0  0  0  0  0
   56.7502   26.3614   43.8260 H   0  0  0  0  0  0  0  0  0  0  0  0
   58.5067   26.6441   43.4684 H   0  0  0  0  0  0  0  0  0  0  0  0
   58.0794   24.3053   44.1487 H   0  0  0  0  0  0  0  0  0  0  0  0
   59.1359   25.1971   45.3329 H   0  0  0  0  0  0  0  0  0  0  0  0
  1  2  1  0
  2  3  1  0
  3  4  2  0
  4  5  1  0
  5  6  1  0
  5  7  1  0
  7  8  2  0
  8  9  1  0
  9 10  1  0
 10 11  1  0
 11 12  1  0
 12 13  1  0
 13 14  1  0
 14 15  1  0
 15 16  2  0
 16 17  1  0
 17 18  2  0
 18 19  1  0
 19 20  1  0
 20 21  2  0
 20 22  1  0
 22 23  1  0
 23 24  1  0
 24 25  1  0
 25 26  1  0
 19 27  2  0
 13 28  1  0
 28 29  1  0
  8  3  1  0
 29 10  1  0
 27 15  1  0
 26 22  1  0
  1 30  1  0
  1 31  1  0
  1 32  1  0
  2 33  1  0
  2 34  1  0
  4 35  1  0
  6 36  1  0
  6 37  1  0
  6 38  1  0
  7 39  1  0
  9 40  1  0
  9 41  1  0
 11 42  1  0
 11 43  1  0
 12 44  1  0
 12 45  1  0
 13 46  1  0
 16 47  1  0
 17 48  1  0
 18 49  1  0
 23 50  1  0
 23 51  1  0
 24 52  1  0
 24 53  1  0
 25 54  1  0
 25 55  1  0
 26 56  1  0
 26 57  1  0
 27 58  1  0
 28 59  1  0
 28 60  1  0
 29 61  1  0
 29 62  1  0
M  CHG  1   4   1
M  END
>  <UniqueID>  (14) 
12

>  <SMILES>  (14) 
CCc1[nH+]n(C)cc1CN1CCC(Oc2cccc(C(=O)N3CCCC3)c2)CC1

>  <Energy>  (14) 
99.91032995463378

>  <Genealogy>  (14) 
CCc1[nH+]n(C)cc1CN1CCC(Oc2cccc(C(=O)N3CCCC3)c2)CC1 (protonated)
CCc1[nH+]n(C)cc1CN1CCC(Oc2cccc(C(=O)N3CCCC3)c2)CC1 (3D coordinates assigned)
CCc1[nH+]n(C)cc1CN1CCC(Oc2cccc(C(=O)N3CCCC3)c2)CC1 (nonaromatic ring conformer: 99.91032995463378 kcal/mol)

>  <smiles>  (14) 
CCc1nn(C)cc1CN1CCC(Oc2cccc(C(=O)N3CCCC3)c2)CC1

>  <score_type>  (14) 
oracle

>  <origin>  (14) 
adg

>  <m_score__min__energy>  (14) 
-8.1500000000000004

>  <m_primary>  (14) 
energy

$$$$
14:0
     RDKit          3D

 41 43  0  0  0  0  0  0  0  0999 V2000
   61.2560   30.3180   51.2910 O   0  0  0  0  0  0  0  0  0  0  0  0
   60.0210   30.5750   51.2700 C   0  0  0  0  0  0  0  0  0  0  0  0
   59.3310   31.0400   52.5140 C   0  0  0  0  0  0  0  0  0  0  0  0
   57.8700   30.6870   52.4510 C   0  0  0  0  0  0  0  0  0  0  0  0
   56.9540   31.5730   51.8640 C   0  0  0  0  0  0  0  0  0  0  0  0
   55.6150   31.2070   51.7110 C   0  0  0  0  0  0  0  0  0  0  0  0
   55.1740   29.9390   52.1280 C   0  0  0  0  0  0  0  0  0  0  0  0
   53.8030   29.5380   51.9690 N   0  0  0  0  0  0  0  0  0  0  0  0
   52.8020   30.3620   51.3520 C   0  0  0  0  0  0  0  0  0  0  0  0
   52.3330   30.0550   50.0700 C   0  0  0  0  0  0  0  0  0  0  0  0
   51.3790   30.8920   49.4870 C   0  0  0  0  0  0  0  0  0  0  0  0
   50.9320   30.6390   48.3380 O   0  0  0  0  0  0  0  0  0  0  0  0
   50.9330   31.9840   50.1620 N   0  0  0  0  0  0  0  0  0  0  0  0
   51.4040   32.2760   51.4020 C   0  0  0  0  0  0  0  0  0  0  0  0
   50.9820   33.2930   52.0110 O   0  0  0  0  0  0  0  0  0  0  0  0
   52.3320   31.4730   51.9850 N   0  0  0  0  0  0  0  0  0  0  0  0
   56.0830   29.0670   52.7440 C   0  0  0  0  0  0  0  0  0  0  0  0
   57.4250   29.4310   52.8920 C   0  0  0  0  0  0  0  0  0  0  0  0
   59.2670   30.4100   50.0660 N   0  0  0  0  0  0  0  0  0  0  0  0
   59.8450   30.5320   48.7360 C   0  0  0  0  0  0  0  0  0  0  0  0
   59.3670   31.8090   48.1090 C   0  0  0  0  0  0  0  0  0  0  0  0
   59.7490   33.0440   48.6590 C   0  0  0  0  0  0  0  0  0  0  0  0
   59.3440   34.2390   48.0560 C   0  0  0  0  0  0  0  0  0  0  0  0
   58.5640   34.2080   46.8960 C   0  0  0  0  0  0  0  0  0  0  0  0
   58.1910   32.9820   46.3360 C   0  0  0  0  0  0  0  0  0  0  0  0
   58.5950   31.7860   46.9360 C   0  0  0  0  0  0  0  0  0  0  0  0
   59.7868   30.5521   53.3881 H   0  0  0  0  0  0  0  0  0  0  0  0
   59.4367   32.1315   52.6005 H   0  0  0  0  0  0  0  0  0  0  0  0
   57.2927   32.5622   51.5221 H   0  0  0  0  0  0  0  0  0  0  0  0
   54.9020   31.9142   51.2621 H   0  0  0  0  0  0  0  0  0  0  0  0
   53.5480   28.5560   52.2210 H   0  0  0  0  0  0  0  0  0  0  0  0
   52.7082   29.1720   49.5320 H   0  0  0  0  0  0  0  0  0  0  0  0
   55.7381   28.0900   53.1133 H   0  0  0  0  0  0  0  0  0  0  0  0
   58.1347   28.7302   53.3559 H   0  0  0  0  0  0  0  0  0  0  0  0
   60.9423   30.5465   48.8110 H   0  0  0  0  0  0  0  0  0  0  0  0
   59.5359   29.6766   48.1173 H   0  0  0  0  0  0  0  0  0  0  0  0
   60.3689   33.0711   49.5673 H   0  0  0  0  0  0  0  0  0  0  0  0
   59.6392   35.2037   48.4944 H   0  0  0  0  0  0  0  0  0  0  0  0
   58.2436   35.1483   46.4237 H   0  0  0  0  0  0  0  0  0  0  0  0
   57.5790   32.9589   45.4223 H   0  0  0  0  0  0  0  0  0  0  0  0
   58.3073   30.8235   46.4879 H   0  0  0  0  0  0  0  0  0  0  0  0
  1  2  2  0
  2  3  1  0
  3  4  1  0
  4  5  2  0
  5  6  1  0
  6  7  2  0
  7  8  1  0
  8  9  1  0
  9 10  2  0
 10 11  1  0
 11 12  2  0
 11 13  1  0
 13 14  1  0
 14 15  2  0
 14 16  1  0
  7 17  1  0
 17 18  2  0
  2 19  1  0
 19 20  1  0
 20 21  1  0
 21 22  2  0
 22 23  1  0
 23 24  2  0
 24 25  1  0
 25 26  2  0
 18  4  1  0
 26 21  1  0
 16  9  1  0
  3 27  1  0
  3 28  1  0
  5 29  1  0
  6 30  1  0
  8 31  1  0
 10 32  1  0
 17 33  1  0
 18 34  1  0
 20 35  1  0
 20 36  1  0
 22 37  1  0
 23 38  1  0
 24 39  1  0
 25 40  1  0
 26 41  1  0
M  CHG  3  13  -1  16  -1  19  -1
M  END
>  <UniqueID>  (15) 
13

>  <SMILES>  (15) 
O=C(Cc1ccc(Nc2cc(=O)[n-]c(=O)[n-]2)cc1)[N-]Cc1ccccc1

>  <Energy>  (15) 
43.50138433290125

>  <Genealogy>  (15) 
O=C(Cc1ccc(Nc2cc(=O)[n-]c(=O)[n-]2)cc1)[N-]Cc1ccccc1 (protonated)
O=C(Cc1ccc(Nc2cc(=O)[n-]c(=O)[n-]2)cc1)[N-]Cc1ccccc1 (3D coordinates assigned)
O=C(Cc1ccc(Nc2cc(=O)[n-]c(=O)[n-]2)cc1)[N-]Cc1ccccc1 (optimized conformer: 43.50138433290125 kcal/mol)

>  <smiles>  (15) 
O=C(Cc1ccc(Nc2cc(=O)[nH]c(=O)[nH]2)cc1)NCc1ccccc1

>  <score_type>  (15) 
oracle

>  <origin>  (15) 
adg

>  <m_score__min__energy>  (15) 
-13.609999999999999

>  <m_primary>  (15) 
energy

$$$$
15:0
     RDKit          3D

 52 54  0  0  0  0  0  0  0  0999 V2000
   59.6830   35.8000   45.9740 C   0  0  0  0  0  0  0  0  0  0  0  0
   59.7730   34.2650   46.0670 C   0  0  0  0  0  0  0  0  0  0  0  0
   61.2320   33.8170   46.2810 C   0  0  0  0  0  0  0  0  0  0  0  0
   58.9310   33.7900   47.2600 C   0  0  0  0  0  0  0  0  0  0  0  0
   59.2230   33.6540   44.8890 O   0  0  0  0  0  0  0  0  0  0  0  0
   57.8710   33.3440   44.6670 C   0  0  0  0  0  0  0  0  0  0  0  0
   56.9800   34.2290   44.7840 O   0  0  0  0  0  0  0  0  0  0  0  0
   57.4940   31.9630   44.2950 C   0  0  0  0  0  0  0  0  0  0  0  0
   57.1640   31.6520   42.9640 C   0  0  0  0  0  0  0  0  0  0  0  0
   56.8020   30.3500   42.6120 C   0  0  0  0  0  0  0  0  0  0  0  0
   56.7760   29.3420   43.5770 C   0  0  0  0  0  0  0  0  0  0  0  0
   57.1270   29.6280   44.9070 C   0  0  0  0  0  0  0  0  0  0  0  0
   57.1040   28.6180   45.9260 N   0  0  0  0  0  0  0  0  0  0  0  0
   58.1980   28.2520   46.7780 C   0  0  0  0  0  0  0  0  0  0  0  0
   58.3100   27.0480   47.1300 O   0  0  0  0  0  0  0  0  0  0  0  0
   59.1660   29.2510   47.2880 C   0  0  0  0  0  0  0  0  0  0  0  0
   60.3940   29.4570   46.6120 C   0  0  0  0  0  0  0  0  0  0  0  0
   61.3160   30.4070   47.0770 C   0  0  0  0  0  0  0  0  0  0  0  0
   60.9950   31.1380   48.2220 C   0  0  0  0  0  0  0  0  0  0  0  0
   59.8240   30.9350   48.8930 C   0  0  0  0  0  0  0  0  0  0  0  0
   58.8910   29.9940   48.4570 C   0  0  0  0  0  0  0  0  0  0  0  0
   59.7380   31.8290   50.0830 C   0  0  0  0  0  0  0  0  0  0  0  0
   61.0630   32.6290   50.0280 C   0  0  0  0  0  0  0  0  0  0  0  0
   61.7730   32.1400   48.8500 N   0  0  0  0  0  0  0  0  0  0  0  0
   63.3430   32.6800   48.3550 S   0  0  0  0  0  0  0  0  0  0  0  0
   64.5530   32.1910   49.5650 C   0  0  0  0  0  0  0  0  0  0  0  0
   63.6840   32.0860   47.0160 O   0  0  0  0  0  0  0  0  0  0  0  0
   63.3430   34.1780   48.2360 O   0  0  0  0  0  0  0  0  0  0  0  0
   57.4630   30.9410   45.2620 C   0  0  0  0  0  0  0  0  0  0  0  0
   59.6579   36.2279   46.9871 H   0  0  0  0  0  0  0  0  0  0  0  0
   60.5600   36.1867   45.4343 H   0  0  0  0  0  0  0  0  0  0  0  0
   58.7668   36.0815   45.4343 H   0  0  0  0  0  0  0  0  0  0  0  0
   61.4415   33.7527   47.3590 H   0  0  0  0  0  0  0  0  0  0  0  0
   61.3843   32.8307   45.8184 H   0  0  0  0  0  0  0  0  0  0  0  0
   61.9116   34.5479   45.8184 H   0  0  0  0  0  0  0  0  0  0  0  0
   59.4317   34.0725   48.1978 H   0  0  0  0  0  0  0  0  0  0  0  0
   57.9378   34.2609   47.2184 H   0  0  0  0  0  0  0  0  0  0  0  0
   58.8203   32.6964   47.2184 H   0  0  0  0  0  0  0  0  0  0  0  0
   57.1911   32.4387   42.1957 H   0  0  0  0  0  0  0  0  0  0  0  0
   56.5363   30.1180   41.5701 H   0  0  0  0  0  0  0  0  0  0  0  0
   56.4799   28.3207   43.2954 H   0  0  0  0  0  0  0  0  0  0  0  0
   60.6269   28.8663   45.7137 H   0  0  0  0  0  0  0  0  0  0  0  0
   62.2685   30.5717   46.5520 H   0  0  0  0  0  0  0  0  0  0  0  0
   57.9565   29.8334   49.0146 H   0  0  0  0  0  0  0  0  0  0  0  0
   58.8697   32.5002   50.0090 H   0  0  0  0  0  0  0  0  0  0  0  0
   59.6084   31.2774   51.0258 H   0  0  0  0  0  0  0  0  0  0  0  0
   60.8571   33.7053   49.9320 H   0  0  0  0  0  0  0  0  0  0  0  0
   61.6565   32.4936   50.9442 H   0  0  0  0  0  0  0  0  0  0  0  0
   64.1486   32.3545   50.5748 H   0  0  0  0  0  0  0  0  0  0  0  0
   64.7926   31.1254   49.4340 H   0  0  0  0  0  0  0  0  0  0  0  0
   65.4657   32.7909   49.4340 H   0  0  0  0  0  0  0  0  0  0  0  0
   57.7054   31.1758   46.3089 H   0  0  0  0  0  0  0  0  0  0  0  0
  1  2  1  0
  2  3  1  0
  2  4  1  0
  2  5  1  0
  5  6  1  0
  6  7  2  0
  6  8  1  0
  8  9  2  0
  9 10  1  0
 10 11  2  0
 11 12  1  0
 12 13  1  0
 13 14  1  0
 14 15  2  0
 14 16  1  0
 16 17  2  0
 17 18  1  0
 18 19  2  0
 19 20  1  0
 20 21  2  0
 20 22  1  0
 22 23  1  0
 23 24  1  0
 24 25  1  0
 25 26  1  0
 25 27  2  0
 25 28  2  0
 12 29  2  0
 29  8  1  0
 21 16  1  0
 24 19  1  0
  1 30  1  0
  1 31  1  0
  1 32  1  0
  3 33  1  0
  3 34  1  0
  3 35  1  0
  4 36  1  0
  4 37  1  0
  4 38  1  0
  9 39  1  0
 10 40  1  0
 11 41  1  0
 17 42  1  0
 18 43  1  0
 21 44  1  0
 22 45  1  0
 22 46  1  0
 23 47  1  0
 23 48  1  0
 26 49  1  0
 26 50  1  0
 26 51  1  0
 29 52  1  0
M  CHG  1  13  -1
M  END
>  <UniqueID>  (16) 
14

>  <SMILES>  (16) 
CC(C)(C)OC(=O)c1cccc([N-]C(=O)c2ccc3c(c2)CCN3S(C)(=O)=O)c1

>  <Energy>  (16) 
67.05003537408992

>  <Genealogy>  (16) 
CC(C)(C)OC(=O)c1cccc([N-]C(=O)c2ccc3c(c2)CCN3S(C)(=O)=O)c1 (protonated)
CC(C)(C)OC(=O)c1cccc([N-]C(=O)c2ccc3c(c2)CCN3S(C)(=O)=O)c1 (3D coordinates assigned)
CC(C)(C)OC(=O)c1cccc([N-]C(=O)c2ccc3c(c2)CCN3S(C)(=O)=O)c1 (nonaromatic ring conformer: 67.05003537408992 kcal/mol)

>  <smiles>  (16) 
CC(C)(C)OC(=O)c1cccc(NC(=O)c2ccc3c(c2)CCN3S(C)(=O)=O)c1

>  <score_type>  (16) 
oracle

>  <origin>  (16) 
adg

>  <m_score__min__energy>  (16) 
-10.710000000000001

>  <m_primary>  (16) 
energy

$$$$
16:0
     RDKit          3D

 58 61  0  0  0  0  0  0  0  0999 V2000
   60.8330   26.3410   50.6450 C   0  0  0  0  0  0  0  0  0  0  0  0
   60.7740   27.7810   50.1180 C   0  0  0  0  0  0  0  0  0  0  0  0
   60.0290   27.9020   48.7670 C   0  0  1  0  0  0  0  0  0  0  0  0
   60.6920   28.9510   47.8600 C   0  0  0  0  0  0  0  0  0  0  0  0
   60.0250   26.5820   48.1330 N   0  0  0  0  0  0  0  0  0  0  0  0
   59.1060   26.1330   47.1250 C   0  0  0  0  0  0  0  0  0  0  0  0
   59.1790   24.9440   46.7140 O   0  0  0  0  0  0  0  0  0  0  0  0
   58.0860   27.0220   46.5510 C   0  0  0  0  0  0  0  0  0  0  0  0
   58.5000   28.2560   46.1600 N   0  0  0  0  0  0  0  0  0  0  0  0
   57.6800   29.1150   45.5060 C   0  0  0  0  0  0  0  0  0  0  0  0
   58.1390   30.3760   45.1080 C   0  0  0  0  0  0  0  0  0  0  0  0
   57.2900   31.2440   44.4020 C   0  0  0  0  0  0  0  0  0  0  0  0
   57.7850   32.5860   43.9370 C   0  0  0  0  0  0  0  0  0  0  0  0
   58.0380   33.4610   45.0870 N   0  0  0  0  0  0  0  0  0  0  0  0
   57.1460   33.4640   46.2530 C   0  0  0  0  0  0  0  0  0  0  0  0
   57.9470   33.3250   47.5640 C   0  0  0  0  0  0  0  0  0  0  0  0
   59.3200   34.0540   47.5590 C   0  0  0  0  0  0  0  0  0  0  0  0
   59.4960   35.0470   46.3990 C   0  0  0  0  0  0  0  0  0  0  0  0
   59.1600   34.3580   45.1130 C   0  0  0  0  0  0  0  0  0  0  0  0
   59.8480   34.5700   44.0780 O   0  0  0  0  0  0  0  0  0  0  0  0
   55.9800   30.8330   44.0950 C   0  0  0  0  0  0  0  0  0  0  0  0
   55.5210   29.5750   44.4970 C   0  0  0  0  0  0  0  0  0  0  0  0
   56.3690   28.7150   45.2020 C   0  0  0  0  0  0  0  0  0  0  0  0
   55.9380   27.4940   45.6070 N   0  0  0  0  0  0  0  0  0  0  0  0
   56.7330   26.6350   46.3010 C   0  0  0  0  0  0  0  0  0  0  0  0
   56.1980   25.5040   46.6820 N   0  0  0  0  0  0  0  0  0  0  0  0
   56.1820   24.2360   46.0130 C   0  0  0  0  0  0  0  0  0  0  0  0
   56.8400   23.1390   46.5790 C   0  0  0  0  0  0  0  0  0  0  0  0
   56.8570   21.9150   45.9080 C   0  0  0  0  0  0  0  0  0  0  0  0
   56.2450   21.8120   44.6570 C   0  0  0  0  0  0  0  0  0  0  0  0
   55.6550   22.9010   44.0960 N   0  0  0  0  0  0  0  0  0  0  0  0
   55.6230   24.1020   44.7330 C   0  0  0  0  0  0  0  0  0  0  0  0
   60.8325   26.3528   51.7449 H   0  0  0  0  0  0  0  0  0  0  0  0
   59.9570   25.7822   50.2839 H   0  0  0  0  0  0  0  0  0  0  0  0
   61.7518   25.8558   50.2839 H   0  0  0  0  0  0  0  0  0  0  0  0
   60.2556   28.4049   50.8610 H   0  0  0  0  0  0  0  0  0  0  0  0
   61.8096   28.1129   49.9528 H   0  0  0  0  0  0  0  0  0  0  0  0
   58.9959   28.2393   48.9373 H   0  0  0  0  0  0  0  0  0  0  0  0
   61.1771   29.7185   48.4809 H   0  0  0  0  0  0  0  0  0  0  0  0
   61.4459   28.4627   47.2250 H   0  0  0  0  0  0  0  0  0  0  0  0
   59.9275   29.4224   47.2250 H   0  0  0  0  0  0  0  0  0  0  0  0
   59.1662   30.6876   45.3485 H   0  0  0  0  0  0  0  0  0  0  0  0
   58.7183   32.4523   43.3704 H   0  0  0  0  0  0  0  0  0  0  0  0
   57.0190   33.0482   43.2970 H   0  0  0  0  0  0  0  0  0  0  0  0
   56.5843   34.4096   46.2735 H   0  0  0  0  0  0  0  0  0  0  0  0
   56.4592   32.6087   46.1703 H   0  0  0  0  0  0  0  0  0  0  0  0
   57.3407   33.7393   48.3830 H   0  0  0  0  0  0  0  0  0  0  0  0
   58.1615   32.2533   47.6883 H   0  0  0  0  0  0  0  0  0  0  0  0
   59.4222   34.6057   48.5052 H   0  0  0  0  0  0  0  0  0  0  0  0
   60.0912   33.2795   47.4349 H   0  0  0  0  0  0  0  0  0  0  0  0
   58.8244   35.9061   46.5437 H   0  0  0  0  0  0  0  0  0  0  0  0
   60.5362   35.4034   46.3692 H   0  0  0  0  0  0  0  0  0  0  0  0
   55.3130   31.5053   43.5354 H   0  0  0  0  0  0  0  0  0  0  0  0
   54.4937   29.2620   44.2589 H   0  0  0  0  0  0  0  0  0  0  0  0
   57.3435   23.2407   47.5517 H   0  0  0  0  0  0  0  0  0  0  0  0
   57.3475   21.0404   46.3601 H   0  0  0  0  0  0  0  0  0  0  0  0
   56.2402   20.8492   44.1251 H   0  0  0  0  0  0  0  0  0  0  0  0
   55.1578   24.9704   44.2437 H   0  0  0  0  0  0  0  0  0  0  0  0
  1  2  1  0
  2  3  1  0
  3  4  1  0
  3  5  1  0
  5  6  1  0
  6  7  2  0
  6  8  1  0
  8  9  2  0
  9 10  1  0
 10 11  2  0
 11 12  1  0
 12 13  1  0
 13 14  1  0
 14 15  1  0
 15 16  1  0
 16 17  1  0
 17 18  1  0
 18 19  1  0
 19 20  2  0
 12 21  2  0
 21 22  1  0
 22 23  2  0
 23 24  1  0
 24 25  1  0
 25 26  2  3
 26 27  1  0
 27 28  2  0
 28 29  1  0
 29 30  2  0
 30 31  1  0
 31 32  2  0
 25  8  1  0
 32 27  1  0
 23 10  1  0
 19 14  1  0
  1 33  1  0
  1 34  1  0
  1 35  1  0
  2 36  1  0
  2 37  1  0
  3 38  1  1
  4 39  1  0
  4 40  1  0
  4 41  1  0
 11 42  1  0
 13 43  1  0
 13 44  1  0
 15 45  1  0
 15 46  1  0
 16 47  1  0
 16 48  1  0
 17 49  1  0
 17 50  1  0
 18 51  1  0
 18 52  1  0
 21 53  1  0
 22 54  1  0
 28 55  1  0
 29 56  1  0
 30 57  1  0
 32 58  1  0
M  CHG  2   5  -1  24  -1
M  END
>  <UniqueID>  (17) 
15

>  <SMILES>  (17) 
CC[C@@H](C)[N-]C(=O)c1nc2cc(CN3CCCCC3=O)ccc2[n-]c1=Nc1cccnc1

>  <Energy>  (17) 
84.39750195004034

>  <Genealogy>  (17) 
CCC(C)[N-]C(=O)c1nc2cc(CN3CCCCC3=O)ccc2[n-]c1=Nc1cccnc1 (protonated)
CC[C@@H](C)[N-]C(=O)c1nc2cc(CN3CCCCC3=O)ccc2[n-]c1=Nc1cccnc1 (chirality)
CC[C@@H](C)[N-]C(=O)c1nc2cc(CN3CCCCC3=O)ccc2[n-]c1=Nc1cccnc1 (3D coordinates assigned)
CC[C@@H](C)[N-]C(=O)c1nc2cc(CN3CCCCC3=O)ccc2[n-]c1=Nc1cccnc1 (nonaromatic ring conformer: 84.39750195004034 kcal/mol)

>  <smiles>  (17) 
CCC(C)NC(=O)c1nc2cc(CN3CCCCC3=O)ccc2[nH]c1=Nc1cccnc1

>  <score_type>  (17) 
oracle

>  <origin>  (17) 
adg

>  <m_score__min__energy>  (17) 
-11.77

>  <m_primary>  (17) 
energy

$$$$
17:0
     RDKit          3D

 51 54  0  0  0  0  0  0  0  0999 V2000
   63.6330   33.6620   50.2550 C   0  0  0  0  0  0  0  0  0  0  0  0
   63.0090   33.6760   48.8960 C   0  0  0  0  0  0  0  0  0  0  0  0
   63.7460   33.8020   47.7200 C   0  0  0  0  0  0  0  0  0  0  0  0
   62.6710   33.8470   46.4260 S   0  0  0  0  0  0  0  0  0  0  0  0
   61.2690   33.7230   47.3460 C   0  0  0  0  0  0  0  0  0  0  0  0
   59.9050   33.6850   46.8100 C   0  0  0  0  0  0  0  0  0  0  0  0
   58.8460   34.2930   47.3860 N   0  0  0  0  0  0  0  0  0  0  0  0
   57.8260   34.0320   46.5840 N   0  0  0  0  0  0  0  0  0  0  0  0
   58.2570   33.3030   45.5690 N   0  0  0  0  0  0  0  0  0  0  0  0
   57.4060   32.8060   44.4940 C   0  0  0  0  0  0  0  0  0  0  0  0
   57.1940   31.3260   44.6410 C   0  0  0  0  0  0  0  0  0  0  0  0
   56.0260   30.8600   44.5480 O   0  0  0  0  0  0  0  0  0  0  0  0
   58.2860   30.4170   44.8360 N   0  0  0  0  0  0  0  0  0  0  0  0
   58.3120   29.3020   45.7370 C   0  0  0  0  0  0  0  0  0  0  0  0
   59.1600   29.2810   46.8580 C   0  0  0  0  0  0  0  0  0  0  0  0
   59.1490   28.1850   47.7250 C   0  0  0  0  0  0  0  0  0  0  0  0
   58.2840   27.1140   47.4940 C   0  0  0  0  0  0  0  0  0  0  0  0
   57.4090   27.1390   46.3970 C   0  0  0  0  0  0  0  0  0  0  0  0
   56.3000   25.7930   46.1140 S   0  0  0  0  0  0  0  0  0  0  0  0
   54.8960   26.3230   45.9990 O   0  0  0  0  0  0  0  0  0  0  0  0
   56.3480   24.8570   47.2910 O   0  0  0  0  0  0  0  0  0  0  0  0
   56.7070   24.9160   44.6560 N   0  0  0  0  0  0  0  0  0  0  0  0
   55.5910   24.0280   44.2610 C   0  0  0  0  0  0  0  0  0  0  0  0
   56.0510   22.9690   43.2550 C   0  0  0  0  0  0  0  0  0  0  0  0
   57.1210   22.0490   43.8720 C   0  0  0  0  0  0  0  0  0  0  0  0
   57.9080   22.7270   45.0090 C   0  0  0  0  0  0  0  0  0  0  0  0
   58.0260   24.2420   44.7750 C   0  0  0  0  0  0  0  0  0  0  0  0
   57.4240   28.2390   45.5260 C   0  0  0  0  0  0  0  0  0  0  0  0
   59.5530   33.0550   45.6720 N   0  0  0  0  0  0  0  0  0  0  0  0
   61.6220   33.6440   48.6900 C   0  0  0  0  0  0  0  0  0  0  0  0
   62.8438   33.6797   51.0210 H   0  0  0  0  0  0  0  0  0  0  0  0
   64.2370   32.7501   50.3718 H   0  0  0  0  0  0  0  0  0  0  0  0
   64.2772   34.5459   50.3718 H   0  0  0  0  0  0  0  0  0  0  0  0
   64.8421   33.8618   47.6496 H   0  0  0  0  0  0  0  0  0  0  0  0
   56.4333   33.3180   44.5346 H   0  0  0  0  0  0  0  0  0  0  0  0
   57.8951   33.0040   43.5288 H   0  0  0  0  0  0  0  0  0  0  0  0
   59.8333   30.1287   47.0531 H   0  0  0  0  0  0  0  0  0  0  0  0
   59.8246   28.1662   48.5929 H   0  0  0  0  0  0  0  0  0  0  0  0
   58.2882   26.2487   48.1732 H   0  0  0  0  0  0  0  0  0  0  0  0
   55.1994   23.5245   45.1572 H   0  0  0  0  0  0  0  0  0  0  0  0
   54.8108   24.6414   43.7866 H   0  0  0  0  0  0  0  0  0  0  0  0
   55.1858   22.3613   42.9516 H   0  0  0  0  0  0  0  0  0  0  0  0
   56.4879   23.4795   42.3841 H   0  0  0  0  0  0  0  0  0  0  0  0
   56.6249   21.1532   44.2737 H   0  0  0  0  0  0  0  0  0  0  0  0
   57.8386   21.7967   43.0774 H   0  0  0  0  0  0  0  0  0  0  0  0
   57.3869   22.5503   45.9615 H   0  0  0  0  0  0  0  0  0  0  0  0
   58.9206   22.2982   45.0364 H   0  0  0  0  0  0  0  0  0  0  0  0
   58.5713   24.6858   45.6210 H   0  0  0  0  0  0  0  0  0  0  0  0
   58.5567   24.3873   43.8225 H   0  0  0  0  0  0  0  0  0  0  0  0
   56.7330   28.2670   44.6706 H   0  0  0  0  0  0  0  0  0  0  0  0
   60.8889   33.5647   49.5063 H   0  0  0  0  0  0  0  0  0  0  0  0
  1  2  1  0
  2  3  2  0
  3  4  1  0
  4  5  1  0
  5  6  1  0
  6  7  1  0
  7  8  2  0
  8  9  1  0
  9 10  1  0
 10 11  1  0
 11 12  2  0
 11 13  1  0
 13 14  1  0
 14 15  2  0
 15 16  1  0
 16 17  2  0
 17 18  1  0
 18 19  1  0
 19 20  2  0
 19 21  2  0
 19 22  1  0
 22 23  1  0
 23 24  1  0
 24 25  1  0
 25 26  1  0
 26 27  1  0
 18 28  2  0
  9 29  1  0
  5 30  2  0
 30  2  1  0
 29  6  2  0
 28 14  1  0
 27 22  1  0
  1 31  1  0
  1 32  1  0
  1 33  1  0
  3 34  1  0
 10 35  1  0
 10 36  1  0
 15 37  1  0
 16 38  1  0
 17 39  1  0
 23 40  1  0
 23 41  1  0
 24 42  1  0
 24 43  1  0
 25 44  1  0
 25 45  1  0
 26 46  1  0
 26 47  1  0
 27 48  1  0
 27 49  1  0
 28 50  1  0
 30 51  1  0
M  CHG  1  13  -1
M  END
>  <UniqueID>  (18) 
16

>  <SMILES>  (18) 
Cc1csc(-c2nnn(CC(=O)[N-]c3cccc(S(=O)(=O)N4CCCCC4)c3)n2)c1

>  <Energy>  (18) 
123.98291626265447

>  <Genealogy>  (18) 
Cc1csc(-c2nnn(CC(=O)[N-]c3cccc(S(=O)(=O)N4CCCCC4)c3)n2)c1 (protonated)
Cc1csc(-c2nnn(CC(=O)[N-]c3cccc(S(=O)(=O)N4CCCCC4)c3)n2)c1 (3D coordinates assigned)
Cc1csc(-c2nnn(CC(=O)[N-]c3cccc(S(=O)(=O)N4CCCCC4)c3)n2)c1 (nonaromatic ring conformer: 123.98291626265447 kcal/mol)

>  <smiles>  (18) 
Cc1csc(-c2nnn(CC(=O)Nc3cccc(S(=O)(=O)N4CCCCC4)c3)n2)c1

>  <score_type>  (18) 
oracle

>  <origin>  (18) 
adg

>  <m_score__min__energy>  (18) 
-11.56

>  <m_primary>  (18) 
energy

$$$$
18:0
     RDKit          3D

 58 61  0  0  0  0  0  0  0  0999 V2000
   54.8626   27.3027   53.4137 H   0  0  0  0  0  0  0  0  0  0  0  0
   54.1720   28.1040   53.1120 C   0  0  0  0  0  0  0  0  0  0  0  0
   53.0856   27.9341   53.1422 H   0  0  0  0  0  0  0  0  0  0  0  0
   54.6550   29.2890   52.7070 C   0  0  0  0  0  0  0  0  0  0  0  0
   53.9020   30.3950   52.2960 C   0  0  0  0  0  0  0  0  0  0  0  0
   52.5600   30.4970   52.2390 C   0  0  0  0  0  0  0  0  0  0  0  0
   51.9862   30.2945   53.1554 H   0  0  0  0  0  0  0  0  0  0  0  0
   51.8150   30.8640   51.0210 C   0  0  0  0  0  0  0  0  0  0  0  0
   51.7970   30.1070   49.9110 N   0  0  0  0  0  0  0  0  0  0  0  0
   51.0800   30.8460   49.0380 C   0  0  0  0  0  0  0  0  0  0  0  0
   50.8330   30.4590   47.8660 O   0  0  0  0  0  0  0  0  0  0  0  0
   50.6610   32.0380   49.5140 N   0  0  0  0  0  0  0  0  0  0  0  0
   51.1450   32.0400   50.7660 C   0  0  0  0  0  0  0  0  0  0  0  0
   51.0180   33.1170   51.6360 O   0  0  0  0  0  0  0  0  0  0  0  0
   54.8160   31.4010   52.0100 C   0  0  0  0  0  0  0  0  0  0  0  0
   54.5854   32.4228   51.6742 H   0  0  0  0  0  0  0  0  0  0  0  0
   56.0680   30.8690   52.2290 C   0  0  0  0  0  0  0  0  0  0  0  0
   57.3220   31.6140   52.0400 C   0  0  0  0  0  0  0  0  0  0  0  0
   57.2750   32.8510   51.8160 O   0  0  0  0  0  0  0  0  0  0  0  0
   58.5930   30.9620   52.1220 N   0  0  0  0  0  0  0  0  0  0  0  0
   59.7280   31.2760   51.2560 C   0  0  0  0  0  0  0  0  0  0  0  0
   59.8816   32.3651   51.2397 H   0  0  0  0  0  0  0  0  0  0  0  0
   60.6258   30.7747   51.6468 H   0  0  0  0  0  0  0  0  0  0  0  0
   59.4640   30.7860   49.8430 C   0  0  0  0  0  0  0  0  0  0  0  0
   59.4090   29.3950   49.6340 C   0  0  0  0  0  0  0  0  0  0  0  0
   59.5243   28.7136   50.4898 H   0  0  0  0  0  0  0  0  0  0  0  0
   59.2110   28.8690   48.3610 C   0  0  0  0  0  0  0  0  0  0  0  0
   59.1796   27.7792   48.2146 H   0  0  0  0  0  0  0  0  0  0  0  0
   59.0530   29.7210   47.2750 C   0  0  0  0  0  0  0  0  0  0  0  0
   58.9138   29.3028   46.2672 H   0  0  0  0  0  0  0  0  0  0  0  0
   59.0700   31.1030   47.4560 C   0  0  0  0  0  0  0  0  0  0  0  0
   58.9394   31.7651   46.5873 H   0  0  0  0  0  0  0  0  0  0  0  0
   59.2530   31.6670   48.7420 C   0  0  0  0  0  0  0  0  0  0  0  0
   59.2600   33.1770   48.9490 C   0  0  0  0  0  0  0  0  0  0  0  0
   58.2464   33.5500   48.7404 H   0  0  0  0  0  0  0  0  0  0  0  0
   59.5923   33.3327   49.9860 H   0  0  0  0  0  0  0  0  0  0  0  0
   60.2440   33.9730   48.0740 C   0  0  0  0  0  0  0  0  0  0  0  0
   59.8030   34.1228   47.0775 H   0  0  0  0  0  0  0  0  0  0  0  0
   60.4397   34.9445   48.5515 H   0  0  0  0  0  0  0  0  0  0  0  0
   61.5220   33.2410   47.9360 N   0  0  0  0  0  0  0  0  0  0  0  0
   62.3860   33.8510   46.9060 C   0  0  0  0  0  0  0  0  0  0  0  0
   61.8519   33.8636   45.9444 H   0  0  0  0  0  0  0  0  0  0  0  0
   62.6365   34.8782   47.2095 H   0  0  0  0  0  0  0  0  0  0  0  0
   63.6890   33.0380   46.7550 C   0  0  0  0  0  0  0  0  0  0  0  0
   63.6707   32.5184   45.7856 H   0  0  0  0  0  0  0  0  0  0  0  0
   64.5322   33.7414   46.8199 H   0  0  0  0  0  0  0  0  0  0  0  0
   63.8490   32.0760   47.7840 O   0  0  0  0  0  0  0  0  0  0  0  0
   63.6860   32.6950   49.0450 C   0  0  0  0  0  0  0  0  0  0  0  0
   63.9172   31.9669   49.8365 H   0  0  0  0  0  0  0  0  0  0  0  0
   64.3677   33.5562   49.1052 H   0  0  0  0  0  0  0  0  0  0  0  0
   62.2390   33.1970   49.2270 C   0  0  0  0  0  0  0  0  0  0  0  0
   61.7070   32.5182   49.9098 H   0  0  0  0  0  0  0  0  0  0  0  0
   62.2733   34.2155   49.6411 H   0  0  0  0  0  0  0  0  0  0  0  0
   55.9780   29.5860   52.6480 N   0  0  0  0  0  0  0  0  0  0  0  0
   57.0920   28.7120   53.0260 C   0  0  0  0  0  0  0  0  0  0  0  0
   57.1603   28.6584   54.1226 H   0  0  0  0  0  0  0  0  0  0  0  0
   56.9216   27.7041   52.6196 H   0  0  0  0  0  0  0  0  0  0  0  0
   58.0303   29.1174   52.6196 H   0  0  0  0  0  0  0  0  0  0  0  0
  1  2  1  0
  2  3  1  0
  2  4  2  0
  4  5  1  0
  5  6  2  0
  6  7  1  0
  6  8  1  0
  8  9  1  0
  9 10  1  0
 10 11  2  0
 10 12  1  0
 12 13  1  0
 13 14  1  0
  5 15  1  0
 15 16  1  0
 15 17  2  0
 17 18  1  0
 18 19  2  0
 18 20  1  0
 20 21  1  0
 21 22  1  0
 21 23  1  0
 21 24  1  0
 24 25  2  0
 25 26  1  0
 25 27  1  0
 27 28  1  0
 27 29  2  0
 29 30  1  0
 29 31  1  0
 31 32  1  0
 31 33  2  0
 33 34  1  0
 34 35  1  0
 34 36  1  0
 34 37  1  0
 37 38  1  0
 37 39  1  0
 37 40  1  0
 40 41  1  0
 41 42  1  0
 41 43  1  0
 41 44  1  0
 44 45  1  0
 44 46  1  0
 44 47  1  0
 47 48  1  0
 48 49  1  0
 48 50  1  0
 48 51  1  0
 51 52  1  0
 51 53  1  0
 17 54  1  0
 54 55  1  0
 55 56  1  0
 55 57  1  0
 55 58  1  0
 54  4  1  0
 13  8  2  0
 33 24  1  0
 51 40  1  0
M  CHG  4   9  -1  12  -1  14  -1  20  -1
M  END
>  <UniqueID>  (19) 
17

>  <SMILES>  (19) 
C=c1/c(=C/c2[n-]c(=O)[n-]c2[O-])cc(C(=O)[N-]Cc2ccccc2CCN2CCOCC2)n1C

>  <Energy>  (19) 
139.6199834545449

>  <Genealogy>  (19) 
C=c1c(=Cc2[n-]c(=O)[n-]c2[O-])cc(C(=O)[N-]Cc2ccccc2CCN2CCOCC2)n1C (protonated)
C=c1/c(=C/c2[n-]c(=O)[n-]c2[O-])cc(C(=O)[N-]Cc2ccccc2CCN2CCOCC2)n1C (cis-trans isomerization)
C=c1/c(=C/c2[n-]c(=O)[n-]c2[O-])cc(C(=O)[N-]Cc2ccccc2CCN2CCOCC2)n1C (3D coordinates assigned)
C=c1/c(=C/c2[n-]c(=O)[n-]c2[O-])cc(C(=O)[N-]Cc2ccccc2CCN2CCOCC2)n1C (nonaromatic ring conformer: 139.6199834545449 kcal/mol)

>  <smiles>  (19) 
C=c1c(=Cc2[nH]c(=O)[nH]c2O)cc(C(=O)NCc2ccccc2CCN2CCOCC2)n1C

>  <score_type>  (19) 
oracle

>  <origin>  (19) 
adg

>  <m_score__min__energy>  (19) 
-20.66

>  <m_primary>  (19) 
energy

$$$$
19:0
     RDKit          3D

 44 47  0  0  0  0  0  0  0  0999 V2000
   57.3800   33.8280   46.3190 C   0  0  0  0  0  0  0  0  0  0  0  0
   57.6690   32.7930   45.2790 C   0  0  0  0  0  0  0  0  0  0  0  0
   57.7720   33.1480   43.9320 C   0  0  0  0  0  0  0  0  0  0  0  0
   58.0110   32.1440   42.9970 C   0  0  0  0  0  0  0  0  0  0  0  0
   58.1280   30.8500   43.3970 N   0  0  0  0  0  0  0  0  0  0  0  0
   58.0100   30.5120   44.7160 C   0  0  0  0  0  0  0  0  0  0  0  0
   58.1270   29.1410   45.1440 N   0  0  0  0  0  0  0  0  0  0  0  0
   58.7050   28.7240   46.4120 C   0  0  0  0  0  0  0  0  0  0  0  0
   58.7580   27.2040   46.3510 C   0  0  0  0  0  0  0  0  0  0  0  0
   57.7030   26.8070   45.2950 C   0  0  2  0  0  0  0  0  0  0  0  0
   56.3300   26.5480   45.9780 C   0  0  0  0  0  0  0  0  0  0  0  0
   56.3040   25.0750   46.0840 C   0  0  0  0  0  0  0  0  0  0  0  0
   55.4630   24.4360   46.7700 O   0  0  0  0  0  0  0  0  0  0  0  0
   57.3140   24.4540   45.3090 N   0  0  0  0  0  0  0  0  0  0  0  0
   57.5540   23.0120   45.2210 C   0  0  0  0  0  0  0  0  0  0  0  0
   56.4940   22.3520   44.3300 C   0  0  0  0  0  0  0  0  0  0  0  0
   56.9840   21.7190   43.0340 C   0  0  0  0  0  0  0  0  0  0  0  0
   56.2660   23.0590   43.0010 C   0  0  0  0  0  0  0  0  0  0  0  0
   58.0610   25.4710   44.5880 C   0  0  0  0  0  0  0  0  0  0  0  0
   57.6650   28.0140   44.3450 C   0  0  0  0  0  0  0  0  0  0  0  0
   57.7770   31.4880   45.6380 N   0  0  0  0  0  0  0  0  0  0  0  0
   57.5031   33.3871   47.3192 H   0  0  0  0  0  0  0  0  0  0  0  0
   58.0772   34.6707   46.2014 H   0  0  0  0  0  0  0  0  0  0  0  0
   56.3471   34.1876   46.2014 H   0  0  0  0  0  0  0  0  0  0  0  0
   57.6667   34.1966   43.6170 H   0  0  0  0  0  0  0  0  0  0  0  0
   58.1054   32.3989   41.9311 H   0  0  0  0  0  0  0  0  0  0  0  0
   58.3110   30.1240   42.6710 H   0  0  0  0  0  0  0  0  0  0  0  0
   59.7165   29.1401   46.5293 H   0  0  0  0  0  0  0  0  0  0  0  0
   58.1126   29.0789   47.2683 H   0  0  0  0  0  0  0  0  0  0  0  0
   59.7583   26.8644   46.0443 H   0  0  0  0  0  0  0  0  0  0  0  0
   58.5548   26.7448   47.3297 H   0  0  0  0  0  0  0  0  0  0  0  0
   56.2836   27.0197   46.9706 H   0  0  0  0  0  0  0  0  0  0  0  0
   55.4765   26.9648   45.4232 H   0  0  0  0  0  0  0  0  0  0  0  0
   58.5511   22.8351   44.7914 H   0  0  0  0  0  0  0  0  0  0  0  0
   57.4970   22.5764   46.2295 H   0  0  0  0  0  0  0  0  0  0  0  0
   55.8654   22.0030   45.1625 H   0  0  0  0  0  0  0  0  0  0  0  0
   58.0618   21.6672   42.8204 H   0  0  0  0  0  0  0  0  0  0  0  0
   56.8393   20.7468   42.5401 H   0  0  0  0  0  0  0  0  0  0  0  0
   56.8246   23.9763   42.7633 H   0  0  0  0  0  0  0  0  0  0  0  0
   55.3869   23.4571   42.4730 H   0  0  0  0  0  0  0  0  0  0  0  0
   59.1417   25.2763   44.6530 H   0  0  0  0  0  0  0  0  0  0  0  0
   57.8089   25.4887   43.5174 H   0  0  0  0  0  0  0  0  0  0  0  0
   58.3323   27.8504   43.4860 H   0  0  0  0  0  0  0  0  0  0  0  0
   56.6584   28.1845   43.9355 H   0  0  0  0  0  0  0  0  0  0  0  0
  1  2  1  0
  2  3  2  0
  3  4  1  0
  4  5  2  0
  5  6  1  0
  6  7  1  0
  7  8  1  0
  8  9  1  0
 10  9  1  1
 10 11  1  0
 11 12  1  0
 12 13  2  0
 12 14  1  0
 14 15  1  0
 15 16  1  0
 16 17  1  0
 17 18  1  0
 14 19  1  0
 10 20  1  0
  6 21  2  0
 21  2  1  0
 20  7  1  0
 19 10  1  0
 18 16  1  0
  1 22  1  0
  1 23  1  0
  1 24  1  0
  3 25  1  0
  4 26  1  0
  5 27  1  0
  8 28  1  0
  8 29  1  0
  9 30  1  0
  9 31  1  0
 11 32  1  0
 11 33  1  0
 15 34  1  0
 15 35  1  0
 16 36  1  0
 17 37  1  0
 17 38  1  0
 18 39  1  0
 18 40  1  0
 19 41  1  0
 19 42  1  0
 20 43  1  0
 20 44  1  0
M  CHG  1   5   1
M  END
>  <UniqueID>  (20) 
18

>  <SMILES>  (20) 
Cc1cc[nH+]c(N2CC[C@@]3(CC(=O)N(CC4CC4)C3)C2)n1

>  <Energy>  (20) 
318.4756494581479

>  <Genealogy>  (20) 
Cc1cc[nH+]c(N2CCC3(CC(=O)N(CC4CC4)C3)C2)n1 (protonated)
Cc1cc[nH+]c(N2CC[C@@]3(CC(=O)N(CC4CC4)C3)C2)n1 (chirality)
Cc1cc[nH+]c(N2CC[C@@]3(CC(=O)N(CC4CC4)C3)C2)n1 (3D coordinates assigned)
Cc1cc[nH+]c(N2CC[C@@]3(CC(=O)N(CC4CC4)C3)C2)n1 (nonaromatic ring conformer: 318.4756494581479 kcal/mol)

>  <smiles>  (20) 
Cc1ccnc(N2CCC3(CC(=O)N(CC4CC4)C3)C2)n1

>  <score_type>  (20) 
oracle

>  <origin>  (20) 
adg

>  <m_score__min__energy>  (20) 
-6.0700000000000003

>  <m_primary>  (20) 
energy

$$$$
20:0
     RDKit          3D

 62 65  0  0  0  0  0  0  0  0999 V2000
   56.1799   25.7589   44.3108 H   0  0  0  0  0  0  0  0  0  0  0  0
   56.0190   25.2250   45.2590 C   0  0  0  0  0  0  0  0  0  0  0  0
   56.8730   25.3810   46.2770 C   0  0  0  0  0  0  0  0  0  0  0  0
   58.0880   26.2130   46.1220 C   0  0  0  0  0  0  0  0  0  0  0  0
   59.3320   25.6450   46.4420 C   0  0  0  0  0  0  0  0  0  0  0  0
   59.3869   24.5895   46.7468 H   0  0  0  0  0  0  0  0  0  0  0  0
   60.4970   26.4060   46.3770 C   0  0  0  0  0  0  0  0  0  0  0  0
   61.4639   25.9530   46.6412 H   0  0  0  0  0  0  0  0  0  0  0  0
   60.4400   27.7400   45.9780 C   0  0  0  0  0  0  0  0  0  0  0  0
   61.3616   28.3395   45.9440 H   0  0  0  0  0  0  0  0  0  0  0  0
   59.2180   28.3230   45.6200 C   0  0  0  0  0  0  0  0  0  0  0  0
   59.2310   29.7250   45.1510 C   0  0  0  0  0  0  0  0  0  0  0  0
   59.9481   30.4155   45.6189 H   0  0  0  0  0  0  0  0  0  0  0  0
   58.4280   30.2120   44.1940 C   0  0  0  0  0  0  0  0  0  0  0  0
   58.6887   29.9951   43.1476 H   0  0  0  0  0  0  0  0  0  0  0  0
   57.2110   31.0240   44.4490 C   0  0  0  0  0  0  0  0  0  0  0  0
   56.0920   30.4580   44.5740 O   0  0  0  0  0  0  0  0  0  0  0  0
   57.2840   32.4540   44.5830 N   0  0  0  0  0  0  0  0  0  0  0  0
   58.2400   33.2670   43.8310 C   0  0  0  0  0  0  0  0  0  0  0  0
   58.6870   32.6625   43.0281 H   0  0  0  0  0  0  0  0  0  0  0  0
   57.7248   34.1317   43.3873 H   0  0  0  0  0  0  0  0  0  0  0  0
   59.3410   33.7520   44.7840 C   0  0  0  0  0  0  0  0  0  0  0  0
   59.9262   32.8865   45.1282 H   0  0  0  0  0  0  0  0  0  0  0  0
   59.9853   34.4616   44.2442 H   0  0  0  0  0  0  0  0  0  0  0  0
   58.7560   34.4440   45.9630 N   0  0  0  0  0  0  0  0  0  0  0  0
   58.2220   35.2680   45.5930 H   0  0  0  0  0  0  0  0  0  0  0  0
   59.7190   35.0280   46.9410 C   0  0  0  0  0  0  0  0  0  0  0  0
   59.6932   36.0127   46.4514 H   0  0  0  0  0  0  0  0  0  0  0  0
   59.6320   34.4900   48.3680 C   0  0  0  0  0  0  0  0  0  0  0  0
   59.7302   35.1775   49.2210 H   0  0  0  0  0  0  0  0  0  0  0  0
   58.8962   33.8960   48.9299 H   0  0  0  0  0  0  0  0  0  0  0  0
   60.8480   34.1630   47.5110 C   0  0  0  0  0  0  0  0  0  0  0  0
   61.8231   34.6153   47.7445 H   0  0  0  0  0  0  0  0  0  0  0  0
   61.3525   33.2371   47.1976 H   0  0  0  0  0  0  0  0  0  0  0  0
   57.7810   33.5850   46.6800 C   0  0  0  0  0  0  0  0  0  0  0  0
   58.3078   32.7114   47.0914 H   0  0  0  0  0  0  0  0  0  0  0  0
   57.3225   34.1778   47.4852 H   0  0  0  0  0  0  0  0  0  0  0  0
   56.6680   33.1010   45.7410 C   0  0  0  0  0  0  0  0  0  0  0  0
   56.0244   32.3817   46.2687 H   0  0  0  0  0  0  0  0  0  0  0  0
   56.0550   33.9536   45.4135 H   0  0  0  0  0  0  0  0  0  0  0  0
   58.0200   27.5670   45.7120 C   0  0  0  0  0  0  0  0  0  0  0  0
   56.7560   28.1650   45.3790 N   0  0  0  0  0  0  0  0  0  0  0  0
   56.2560   27.9310   44.4940 H   0  0  0  0  0  0  0  0  0  0  0  0
   56.2770   28.8280   46.0250 H   0  0  0  0  0  0  0  0  0  0  0  0
   56.6250   24.6070   47.5470 C   0  0  0  0  0  0  0  0  0  0  0  0
   57.5220   24.6533   48.1820 H   0  0  0  0  0  0  0  0  0  0  0  0
   55.7679   25.0494   48.0759 H   0  0  0  0  0  0  0  0  0  0  0  0
   56.3090   23.1360   47.2190 C   0  0  0  0  0  0  0  0  0  0  0  0
   57.2460   22.6367   46.9315 H   0  0  0  0  0  0  0  0  0  0  0  0
   55.8557   22.6991   48.1211 H   0  0  0  0  0  0  0  0  0  0  0  0
   55.2690   22.9490   46.0500 C   0  0  0  0  0  0  0  0  0  0  0  0
   54.0080   22.2360   46.5830 C   0  0  0  0  0  0  0  0  0  0  0  0
   54.0202   22.2429   47.6829 H   0  0  0  0  0  0  0  0  0  0  0  0
   53.1105   22.7603   46.2230 H   0  0  0  0  0  0  0  0  0  0  0  0
   53.9946   21.1967   46.2230 H   0  0  0  0  0  0  0  0  0  0  0  0
   55.8890   22.0680   44.9430 C   0  0  0  0  0  0  0  0  0  0  0  0
   56.4639   21.2511   45.4035 H   0  0  0  0  0  0  0  0  0  0  0  0
   55.0878   21.6459   44.3186 H   0  0  0  0  0  0  0  0  0  0  0  0
   56.5568   22.6797   44.3186 H   0  0  0  0  0  0  0  0  0  0  0  0
   54.8390   24.3130   45.4260 C   0  0  0  0  0  0  0  0  0  0  0  0
   54.3836   24.1303   44.4415 H   0  0  0  0  0  0  0  0  0  0  0  0
   54.1171   24.7949   46.1017 H   0  0  0  0  0  0  0  0  0  0  0  0
  1  2  1  0
  2  3  2  0
  3  4  1  0
  4  5  2  0
  5  6  1  0
  5  7  1  0
  7  8  1  0
  7  9  2  0
  9 10  1  0
  9 11  1  0
 11 12  1  0
 12 13  1  0
 12 14  2  0
 14 15  1  0
 14 16  1  0
 16 17  2  0
 16 18  1  0
 18 19  1  0
 19 20  1  0
 19 21  1  0
 19 22  1  0
 22 23  1  0
 22 24  1  0
 22 25  1  0
 25 26  1  0
 25 27  1  0
 27 28  1  0
 27 29  1  0
 29 30  1  0
 29 31  1  0
 29 32  1  0
 32 33  1  0
 32 34  1  0
 25 35  1  0
 35 36  1  0
 35 37  1  0
 35 38  1  0
 38 39  1  0
 38 40  1  0
 11 41  2  0
 41 42  1  0
 42 43  1  0
 42 44  1  0
  3 45  1  0
 45 46  1  0
 45 47  1  0
 45 48  1  0
 48 49  1  0
 48 50  1  0
 48 51  1  0
 51 52  1  0
 52 53  1  0
 52 54  1  0
 52 55  1  0
 51 56  1  0
 56 57  1  0
 56 58  1  0
 56 59  1  0
 51 60  1  0
 60 61  1  0
 60 62  1  0
 60  2  1  0
 41  4  1  0
 38 18  1  0
 32 27  1  0
M  CHG  1  25   1
M  END
>  <UniqueID>  (21) 
19

>  <SMILES>  (21) 
CC1(C)CC=C(c2cccc(/C=C\C(=O)N3CC[NH+](C4CC4)CC3)c2N)CC1

>  <Energy>  (21) 
359.91038994897895

>  <Genealogy>  (21) 
CC1(C)CC=C(c2cccc(C=CC(=O)N3CC[NH+](C4CC4)CC3)c2N)CC1 (protonated)
CC1(C)CC=C(c2cccc(/C=C\C(=O)N3CC[NH+](C4CC4)CC3)c2N)CC1 (cis-trans isomerization)
CC1(C)CC=C(c2cccc(/C=C\C(=O)N3CC[NH+](C4CC4)CC3)c2N)CC1 (3D coordinates assigned)
CC1(C)CC=C(c2cccc(/C=C\C(=O)N3CC[NH+](C4CC4)CC3)c2N)CC1 (nonaromatic ring conformer: 359.91038994897895 kcal/mol)

>  <smiles>  (21) 
CC1(C)CC=C(c2cccc(C=CC(=O)N3CCN(C4CC4)CC3)c2N)CC1

>  <score_type>  (21) 
oracle

>  <origin>  (21) 
adg

>  <m_score__min__energy>  (21) 
-7.9699999999999998

>  <m_primary>  (21) 
energy

$$$$
21:0
     RDKit          3D

 32 33  0  0  0  0  0  0  0  0999 V2000
   60.5960   27.2370   46.0210 C   0  0  0  0  0  0  0  0  0  0  0  0
   59.2680   27.0960   46.0180 C   0  0  0  0  0  0  0  0  0  0  0  0
   58.3980   28.2340   45.6440 C   0  0  0  0  0  0  0  0  0  0  0  0
   57.0560   28.1360   45.6280 C   0  0  0  0  0  0  0  0  0  0  0  0
   56.2890   29.3020   45.2480 N   0  0  0  0  0  0  0  0  0  0  0  0
   56.3430   29.9390   43.9300 C   0  0  0  0  0  0  0  0  0  0  0  0
   57.6740   30.6710   43.7290 C   0  0  0  0  0  0  0  0  0  0  0  0
   57.8140   31.7960   44.7200 C   0  0  0  0  0  0  0  0  0  0  0  0
   58.2720   31.5400   46.0230 C   0  0  0  0  0  0  0  0  0  0  0  0
   58.3710   32.5800   46.9520 C   0  0  0  0  0  0  0  0  0  0  0  0
   58.0040   33.8800   46.5900 C   0  0  0  0  0  0  0  0  0  0  0  0
   57.5350   34.1400   45.2990 C   0  0  0  0  0  0  0  0  0  0  0  0
   57.4350   33.1030   44.3670 C   0  0  0  0  0  0  0  0  0  0  0  0
   56.4130   26.8390   45.9970 C   0  0  0  0  0  0  0  0  0  0  0  0
   55.1610   26.7000   45.9960 O   0  0  0  0  0  0  0  0  0  0  0  0
   57.2570   25.6950   46.3720 C   0  0  0  0  0  0  0  0  0  0  0  0
   56.7360   24.5920   46.6880 O   0  0  0  0  0  0  0  0  0  0  0  0
   58.6780   25.8400   46.3770 N   0  0  0  0  0  0  0  0  0  0  0  0
   61.2385   26.3887   46.2996 H   0  0  0  0  0  0  0  0  0  0  0  0
   61.0473   28.2014   45.7449 H   0  0  0  0  0  0  0  0  0  0  0  0
   58.8643   29.1919   45.3700 H   0  0  0  0  0  0  0  0  0  0  0  0
   55.6490   29.7200   45.9640 H   0  0  0  0  0  0  0  0  0  0  0  0
   56.2354   29.1679   43.1529 H   0  0  0  0  0  0  0  0  0  0  0  0
   55.5256   30.6719   43.8608 H   0  0  0  0  0  0  0  0  0  0  0  0
   58.5022   29.9606   43.8689 H   0  0  0  0  0  0  0  0  0  0  0  0
   57.6993   31.0888   42.7117 H   0  0  0  0  0  0  0  0  0  0  0  0
   58.5539   30.5172   46.3136 H   0  0  0  0  0  0  0  0  0  0  0  0
   58.7379   32.3756   47.9687 H   0  0  0  0  0  0  0  0  0  0  0  0
   58.0844   34.6979   47.3211 H   0  0  0  0  0  0  0  0  0  0  0  0
   57.2441   35.1624   45.0161 H   0  0  0  0  0  0  0  0  0  0  0  0
   57.0586   33.3102   43.3544 H   0  0  0  0  0  0  0  0  0  0  0  0
   59.2760   25.0260   46.6440 H   0  0  0  0  0  0  0  0  0  0  0  0
  1  2  2  0
  2  3  1  0
  3  4  2  0
  4  5  1  0
  5  6  1  0
  6  7  1  0
  7  8  1  0
  8  9  2  0
  9 10  1  0
 10 11  2  0
 11 12  1  0
 12 13  2  0
  4 14  1  0
 14 15  2  0
 14 16  1  0
 16 17  2  0
 16 18  1  0
 18  2  1  0
 13  8  1  0
  1 19  1  0
  1 20  1  0
  3 21  1  0
  5 22  1  0
  6 23  1  0
  6 24  1  0
  7 25  1  0
  7 26  1  0
  9 27  1  0
 10 28  1  0
 11 29  1  0
 12 30  1  0
 13 31  1  0
 18 32  1  0
M  END
>  <UniqueID>  (22) 
20

>  <SMILES>  (22) 
C=C1C=C(NCCc2ccccc2)C(=O)C(=O)N1

>  <Energy>  (22) 
27.5429794261566

>  <Genealogy>  (22) 
C=C1C=C(NCCc2ccccc2)C(=O)C(=O)N1 (3D coordinates assigned)
C=C1C=C(NCCc2ccccc2)C(=O)C(=O)N1 (nonaromatic ring conformer: 27.5429794261566 kcal/mol)

>  <smiles>  (22) 
C=C1C=C(NCCc2ccccc2)C(=O)C(=O)N1

>  <score_type>  (22) 
oracle

>  <origin>  (22) 
adg

>  <m_score__min__energy>  (22) 
-7.5700000000000003

>  <m_primary>  (22) 
energy

$$$$
22:0
     RDKit          3D

 42 44  0  0  0  0  0  0  0  0999 V2000
   57.9370   27.4140   47.5280 O   0  0  0  0  0  0  0  0  0  0  0  0
   58.5460   27.8640   46.5210 C   0  0  0  0  0  0  0  0  0  0  0  0
   57.9050   27.7720   45.1710 C   0  0  0  0  0  0  0  0  0  0  0  0
   57.5640   29.1130   44.6990 N   0  0  0  0  0  0  0  0  0  0  0  0
   56.3340   29.6590   44.6100 C   0  0  0  0  0  0  0  0  0  0  0  0
   55.1500   28.9750   44.8530 O   0  0  0  0  0  0  0  0  0  0  0  0
   56.4390   30.9930   44.2780 C   0  0  0  0  0  0  0  0  0  0  0  0
   57.7530   31.2870   44.1710 N   0  0  0  0  0  0  0  0  0  0  0  0
   58.3270   32.6150   43.9590 C   0  0  0  0  0  0  0  0  0  0  0  0
   57.8670   33.5550   45.0410 C   0  0  0  0  0  0  0  0  0  0  0  0
   56.8660   34.2880   44.8200 O   0  0  0  0  0  0  0  0  0  0  0  0
   58.4940   33.5770   46.3840 C   0  0  0  0  0  0  0  0  0  0  0  0
   58.1380   32.5890   47.3200 C   0  0  0  0  0  0  0  0  0  0  0  0
   58.7090   32.5810   48.5950 C   0  0  0  0  0  0  0  0  0  0  0  0
   59.6360   33.5610   48.9520 C   0  0  0  0  0  0  0  0  0  0  0  0
   59.9960   34.5500   48.0340 C   0  0  0  0  0  0  0  0  0  0  0  0
   59.4250   34.5680   46.7560 C   0  0  0  0  0  0  0  0  0  0  0  0
   59.7460   35.5830   45.9170 F   0  0  0  0  0  0  0  0  0  0  0  0
   58.4040   30.1360   44.4440 C   0  0  0  0  0  0  0  0  0  0  0  0
   59.6610   30.0320   44.4770 O   0  0  0  0  0  0  0  0  0  0  0  0
   59.8400   28.4720   46.6600 N   0  0  0  0  0  0  0  0  0  0  0  0
   60.3760   28.9350   47.9090 C   0  0  0  0  0  0  0  0  0  0  0  0
   60.9520   30.2130   47.9800 C   0  0  0  0  0  0  0  0  0  0  0  0
   61.4600   30.6940   49.1910 C   0  0  0  0  0  0  0  0  0  0  0  0
   61.3790   29.9090   50.3450 C   0  0  0  0  0  0  0  0  0  0  0  0
   60.7850   28.6460   50.2900 C   0  0  0  0  0  0  0  0  0  0  0  0
   60.2790   28.1600   49.0800 C   0  0  0  0  0  0  0  0  0  0  0  0
   58.6049   27.3019   44.4644 H   0  0  0  0  0  0  0  0  0  0  0  0
   56.9902   27.1651   45.2409 H   0  0  0  0  0  0  0  0  0  0  0  0
   55.6032   31.6921   44.1274 H   0  0  0  0  0  0  0  0  0  0  0  0
   59.4246   32.5448   43.9802 H   0  0  0  0  0  0  0  0  0  0  0  0
   57.9958   32.9992   42.9829 H   0  0  0  0  0  0  0  0  0  0  0  0
   57.4043   31.8167   47.0458 H   0  0  0  0  0  0  0  0  0  0  0  0
   58.4276   31.8014   49.3182 H   0  0  0  0  0  0  0  0  0  0  0  0
   60.0834   33.5546   49.9569 H   0  0  0  0  0  0  0  0  0  0  0  0
   60.7312   35.3179   48.3163 H   0  0  0  0  0  0  0  0  0  0  0  0
   60.4440   28.5340   45.8090 H   0  0  0  0  0  0  0  0  0  0  0  0
   61.0042   30.8400   47.0777 H   0  0  0  0  0  0  0  0  0  0  0  0
   61.9236   31.6906   49.2355 H   0  0  0  0  0  0  0  0  0  0  0  0
   61.7830   30.2859   51.2962 H   0  0  0  0  0  0  0  0  0  0  0  0
   60.7150   28.0323   51.2002 H   0  0  0  0  0  0  0  0  0  0  0  0
   59.8036   27.1687   49.0434 H   0  0  0  0  0  0  0  0  0  0  0  0
  1  2  2  0
  2  3  1  0
  3  4  1  0
  4  5  1  0
  5  6  1  0
  5  7  2  0
  7  8  1  0
  8  9  1  0
  9 10  1  0
 10 11  2  0
 10 12  1  0
 12 13  2  0
 13 14  1  0
 14 15  2  0
 15 16  1  0
 16 17  2  0
 17 18  1  0
  8 19  1  0
 19 20  2  0
  2 21  1  0
 21 22  1  0
 22 23  2  0
 23 24  1  0
 24 25  2  0
 25 26  1  0
 26 27  2  0
 19  4  1  0
 27 22  1  0
 17 12  1  0
  3 28  1  0
  3 29  1  0
  7 30  1  0
  9 31  1  0
  9 32  1  0
 13 33  1  0
 14 34  1  0
 15 35  1  0
 16 36  1  0
 21 37  1  0
 23 38  1  0
 24 39  1  0
 25 40  1  0
 26 41  1  0
 27 42  1  0
M  CHG  1   6  -1
M  END
>  <UniqueID>  (23) 
21

>  <SMILES>  (23) 
O=C(Cn1c([O-])cn(CC(=O)c2ccccc2F)c1=O)Nc1ccccc1

>  <Energy>  (23) 
78.92761159307317

>  <Genealogy>  (23) 
O=C(Cn1c([O-])cn(CC(=O)c2ccccc2F)c1=O)Nc1ccccc1 (protonated)
O=C(Cn1c([O-])cn(CC(=O)c2ccccc2F)c1=O)Nc1ccccc1 (3D coordinates assigned)
O=C(Cn1c([O-])cn(CC(=O)c2ccccc2F)c1=O)Nc1ccccc1 (optimized conformer: 78.92761159307317 kcal/mol)

>  <smiles>  (23) 
O=C(Cn1c(O)cn(CC(=O)c2ccccc2F)c1=O)Nc1ccccc1

>  <score_type>  (23) 
oracle

>  <origin>  (23) 
adg

>  <m_score__min__energy>  (23) 
-11.67

>  <m_primary>  (23) 
energy

$$$$
23:0
     RDKit          3D

 42 44  0  0  0  0  0  0  0  0999 V2000
   58.1640   21.2840   43.3790 C   0  0  0  0  0  0  0  0  0  0  0  0
   57.4200   22.2300   43.9590 C   0  0  0  0  0  0  0  0  0  0  0  0
   56.5930   23.0870   43.1620 N   0  0  0  0  0  0  0  0  0  0  0  0
   55.7740   24.1110   43.7480 C   0  0  0  0  0  0  0  0  0  0  0  0
   55.7380   24.3310   45.0780 C   0  0  0  0  0  0  0  0  0  0  0  0
   54.8620   25.4060   45.6240 C   0  0  0  0  0  0  0  0  0  0  0  0
   53.6130   25.2360   45.6740 O   0  0  0  0  0  0  0  0  0  0  0  0
   55.4350   26.6130   46.1460 N   0  0  0  0  0  0  0  0  0  0  0  0
   56.5930   27.2970   45.6440 C   0  0  0  0  0  0  0  0  0  0  0  0
   57.7960   26.5910   45.5460 C   0  0  0  0  0  0  0  0  0  0  0  0
   58.9430   27.2150   45.0500 C   0  0  0  0  0  0  0  0  0  0  0  0
   58.8910   28.5450   44.6280 C   0  0  0  0  0  0  0  0  0  0  0  0
   57.6820   29.2570   44.6770 C   0  0  0  0  0  0  0  0  0  0  0  0
   57.6150   30.6650   44.2220 C   0  0  0  0  0  0  0  0  0  0  0  0
   57.3560   30.9030   43.0110 O   0  0  0  0  0  0  0  0  0  0  0  0
   57.8500   31.7640   45.1230 N   0  0  0  0  0  0  0  0  0  0  0  0
   58.8140   31.6620   46.2230 C   0  0  0  0  0  0  0  0  0  0  0  0
   59.5820   32.9810   46.3530 C   0  0  0  0  0  0  0  0  0  0  0  0
   58.6880   34.0740   46.4550 O   0  0  0  0  0  0  0  0  0  0  0  0
   57.9530   34.2080   45.2530 C   0  0  0  0  0  0  0  0  0  0  0  0
   57.0520   32.9900   45.0250 C   0  0  0  0  0  0  0  0  0  0  0  0
   56.5360   28.6290   45.1940 C   0  0  0  0  0  0  0  0  0  0  0  0
   56.5800   23.4920   45.9790 C   0  0  0  0  0  0  0  0  0  0  0  0
   56.5890   23.6860   47.2250 O   0  0  0  0  0  0  0  0  0  0  0  0
   57.4240   22.4280   45.4180 C   0  0  0  0  0  0  0  0  0  0  0  0
   58.1310   21.7090   46.1760 O   0  0  0  0  0  0  0  0  0  0  0  0
   58.7975   20.6282   43.9943 H   0  0  0  0  0  0  0  0  0  0  0  0
   58.1431   21.1609   42.2861 H   0  0  0  0  0  0  0  0  0  0  0  0
   56.5720   22.9740   42.1230 H   0  0  0  0  0  0  0  0  0  0  0  0
   55.1547   24.7375   43.0892 H   0  0  0  0  0  0  0  0  0  0  0  0
   57.8393   25.5381   45.8614 H   0  0  0  0  0  0  0  0  0  0  0  0
   59.8894   26.6574   44.9917 H   0  0  0  0  0  0  0  0  0  0  0  0
   59.8015   29.0372   44.2554 H   0  0  0  0  0  0  0  0  0  0  0  0
   58.2788   31.4553   47.1615 H   0  0  0  0  0  0  0  0  0  0  0  0
   59.5209   30.8450   46.0164 H   0  0  0  0  0  0  0  0  0  0  0  0
   60.2118   32.9446   47.2542 H   0  0  0  0  0  0  0  0  0  0  0  0
   60.2049   33.1168   45.4566 H   0  0  0  0  0  0  0  0  0  0  0  0
   57.3289   35.1119   45.3113 H   0  0  0  0  0  0  0  0  0  0  0  0
   58.6609   34.2836   44.4145 H   0  0  0  0  0  0  0  0  0  0  0  0
   56.2593   32.9730   45.7874 H   0  0  0  0  0  0  0  0  0  0  0  0
   56.5988   33.0524   44.0246 H   0  0  0  0  0  0  0  0  0  0  0  0
   55.5872   29.1830   45.2473 H   0  0  0  0  0  0  0  0  0  0  0  0
  1  2  2  0
  2  3  1  0
  3  4  1  0
  4  5  2  0
  5  6  1  0
  6  7  2  0
  6  8  1  0
  8  9  1  0
  9 10  2  0
 10 11  1  0
 11 12  2  0
 12 13  1  0
 13 14  1  0
 14 15  2  0
 14 16  1  0
 16 17  1  0
 17 18  1  0
 18 19  1  0
 19 20  1  0
 20 21  1  0
 13 22  2  0
  5 23  1  0
 23 24  2  0
 23 25  1  0
 25 26  2  0
 25  2  1  0
 22  9  1  0
 21 16  1  0
  1 27  1  0
  1 28  1  0
  3 29  1  0
  4 30  1  0
 10 31  1  0
 11 32  1  0
 12 33  1  0
 17 34  1  0
 17 35  1  0
 18 36  1  0
 18 37  1  0
 20 38  1  0
 20 39  1  0
 21 40  1  0
 21 41  1  0
 22 42  1  0
M  CHG  1   8  -1
M  END
>  <UniqueID>  (24) 
22

>  <SMILES>  (24) 
C=C1NC=C(C(=O)[N-]c2cccc(C(=O)N3CCOCC3)c2)C(=O)C1=O

>  <Energy>  (24) 
53.83407945131243

>  <Genealogy>  (24) 
C=C1NC=C(C(=O)[N-]c2cccc(C(=O)N3CCOCC3)c2)C(=O)C1=O (protonated)
C=C1NC=C(C(=O)[N-]c2cccc(C(=O)N3CCOCC3)c2)C(=O)C1=O (3D coordinates assigned)
C=C1NC=C(C(=O)[N-]c2cccc(C(=O)N3CCOCC3)c2)C(=O)C1=O (nonaromatic ring conformer: 53.83407945131243 kcal/mol)

>  <smiles>  (24) 
C=C1NC=C(C(=O)Nc2cccc(C(=O)N3CCOCC3)c2)C(=O)C1=O

>  <score_type>  (24) 
oracle

>  <origin>  (24) 
adg

>  <m_score__min__energy>  (24) 
-10.41

>  <m_primary>  (24) 
energy

$$$$
24:0
     RDKit          3D

 49 51  0  0  0  0  0  0  0  0999 V2000
   57.3770   31.5270   45.2980 N   0  0  0  0  0  0  0  0  0  0  0  0
   58.0060   32.6580   45.2060 C   0  0  0  0  0  0  0  0  0  0  0  0
   57.7680   33.5090   44.0780 N   0  0  0  0  0  0  0  0  0  0  0  0
   58.9700   33.0480   46.2630 C   0  0  0  0  0  0  0  0  0  0  0  0
   60.2230   32.4180   46.3620 C   0  0  0  0  0  0  0  0  0  0  0  0
   61.1310   32.7950   47.3560 C   0  0  0  0  0  0  0  0  0  0  0  0
   60.8090   33.8110   48.2720 C   0  0  0  0  0  0  0  0  0  0  0  0
   61.7740   34.2090   49.3230 C   0  0  0  0  0  0  0  0  0  0  0  0
   62.9460   34.5550   49.0060 O   0  0  0  0  0  0  0  0  0  0  0  0
   61.3860   34.2030   50.7000 N   0  0  0  0  0  0  0  0  0  0  0  0
   60.1660   33.1410   51.3200 S   0  0  0  0  0  0  0  0  0  0  0  0
   58.8340   33.8350   51.2720 O   0  0  0  0  0  0  0  0  0  0  0  0
   60.4950   32.7980   52.7460 O   0  0  0  0  0  0  0  0  0  0  0  0
   60.0890   31.6840   50.3340 C   0  0  0  0  0  0  0  0  0  0  0  0
   59.0500   31.5260   49.4060 C   0  0  0  0  0  0  0  0  0  0  0  0
   58.9840   30.3770   48.6130 C   0  0  0  0  0  0  0  0  0  0  0  0
   59.9660   29.3760   48.7320 C   0  0  0  0  0  0  0  0  0  0  0  0
   59.9190   28.1710   47.9560 N   0  0  0  0  0  0  0  0  0  0  0  0
   59.5580   28.0700   46.5730 C   0  0  0  0  0  0  0  0  0  0  0  0
   59.1120   29.0670   45.9460 O   0  0  0  0  0  0  0  0  0  0  0  0
   59.7200   26.7620   45.8660 C   0  0  0  0  0  0  0  0  0  0  0  0
   58.4200   26.0070   45.8880 C   0  0  0  0  0  0  0  0  0  0  0  0
   58.4110   24.6070   45.7650 C   0  0  0  0  0  0  0  0  0  0  0  0
   57.1990   23.9090   45.7490 C   0  0  0  0  0  0  0  0  0  0  0  0
   55.9900   24.6030   45.8430 C   0  0  0  0  0  0  0  0  0  0  0  0
   55.9890   25.9970   45.9530 C   0  0  0  0  0  0  0  0  0  0  0  0
   54.7850   26.6870   46.0400 O   0  0  0  0  0  0  0  0  0  0  0  0
   57.2000   26.7000   45.9700 C   0  0  0  0  0  0  0  0  0  0  0  0
   60.9830   29.5260   49.6830 C   0  0  0  0  0  0  0  0  0  0  0  0
   61.0510   30.6770   50.4740 C   0  0  0  0  0  0  0  0  0  0  0  0
   59.5580   34.4430   48.1710 C   0  0  0  0  0  0  0  0  0  0  0  0
   58.6510   34.0700   47.1750 C   0  0  0  0  0  0  0  0  0  0  0  0
   57.8720   30.6140   45.2010 H   0  0  0  0  0  0  0  0  0  0  0  0
   57.0370   33.2640   43.3730 H   0  0  0  0  0  0  0  0  0  0  0  0
   58.3800   34.3310   43.8780 H   0  0  0  0  0  0  0  0  0  0  0  0
   60.4911   31.6221   45.6516 H   0  0  0  0  0  0  0  0  0  0  0  0
   62.1068   32.2915   47.4217 H   0  0  0  0  0  0  0  0  0  0  0  0
   58.2843   32.3088   49.3017 H   0  0  0  0  0  0  0  0  0  0  0  0
   58.1613   30.2546   47.8931 H   0  0  0  0  0  0  0  0  0  0  0  0
   60.0185   26.9450   44.8232 H   0  0  0  0  0  0  0  0  0  0  0  0
   60.4938   26.1678   46.3741 H   0  0  0  0  0  0  0  0  0  0  0  0
   59.3606   24.0582   45.6810 H   0  0  0  0  0  0  0  0  0  0  0  0
   57.1977   22.8124   45.6623 H   0  0  0  0  0  0  0  0  0  0  0  0
   55.0379   24.0522   45.8305 H   0  0  0  0  0  0  0  0  0  0  0  0
   57.1964   27.7972   46.0477 H   0  0  0  0  0  0  0  0  0  0  0  0
   61.7341   28.7322   49.8087 H   0  0  0  0  0  0  0  0  0  0  0  0
   61.8623   30.7913   51.2079 H   0  0  0  0  0  0  0  0  0  0  0  0
   59.2901   35.2384   48.8821 H   0  0  0  0  0  0  0  0  0  0  0  0
   57.6791   34.5803   47.1039 H   0  0  0  0  0  0  0  0  0  0  0  0
  1  2  2  3
  2  3  1  0
  2  4  1  0
  4  5  2  0
  5  6  1  0
  6  7  2  0
  7  8  1  0
  8  9  2  0
  8 10  1  0
 10 11  1  0
 11 12  2  0
 11 13  2  0
 11 14  1  0
 14 15  2  0
 15 16  1  0
 16 17  2  0
 17 18  1  0
 18 19  1  0
 19 20  2  0
 19 21  1  0
 21 22  1  0
 22 23  2  0
 23 24  1  0
 24 25  2  0
 25 26  1  0
 26 27  1  0
 26 28  2  0
 17 29  1  0
 29 30  2  0
  7 31  1  0
 31 32  2  0
 32  4  1  0
 30 14  1  0
 28 22  1  0
  1 33  1  0
  3 34  1  0
  3 35  1  0
  5 36  1  0
  6 37  1  0
 15 38  1  0
 16 39  1  0
 21 40  1  0
 21 41  1  0
 23 42  1  0
 24 43  1  0
 25 44  1  0
 28 45  1  0
 29 46  1  0
 30 47  1  0
 31 48  1  0
 32 49  1  0
M  CHG  3  10  -1  18  -1  27  -1
M  END
>  <UniqueID>  (25) 
23

>  <SMILES>  (25) 
N=C(N)c1ccc(C(=O)[N-]S(=O)(=O)c2ccc([N-]C(=O)Cc3cccc([O-])c3)cc2)cc1

>  <Energy>  (25) 
57.41359230300784

>  <Genealogy>  (25) 
N=C(N)c1ccc(C(=O)[N-]S(=O)(=O)c2ccc([N-]C(=O)Cc3cccc([O-])c3)cc2)cc1 (protonated)
N=C(N)c1ccc(C(=O)[N-]S(=O)(=O)c2ccc([N-]C(=O)Cc3cccc([O-])c3)cc2)cc1 (3D coordinates assigned)
N=C(N)c1ccc(C(=O)[N-]S(=O)(=O)c2ccc([N-]C(=O)Cc3cccc([O-])c3)cc2)cc1 (optimized conformer: 57.41359230300784 kcal/mol)

>  <smiles>  (25) 
N=C(N)c1ccc(C(=O)NS(=O)(=O)c2ccc(NC(=O)Cc3cccc(O)c3)cc2)cc1

>  <score_type>  (25) 
oracle

>  <origin>  (25) 
adg

>  <m_score__min__energy>  (25) 
-16.219999999999999

>  <m_primary>  (25) 
energy

$$$$
25:0
     RDKit          3D

 49 51  0  0  0  0  0  0  0  0999 V2000
   51.1020   32.3390   49.9980 O   0  0  0  0  0  0  0  0  0  0  0  0
   51.3000   32.3090   51.2420 C   0  0  0  0  0  0  0  0  0  0  0  0
   50.6590   33.2420   52.0500 O   0  0  0  0  0  0  0  0  0  0  0  0
   52.2010   31.2980   51.8360 C   0  0  0  0  0  0  0  0  0  0  0  0
   51.7760   30.5030   52.9150 C   0  0  0  0  0  0  0  0  0  0  0  0
   52.6290   29.5500   53.4760 C   0  0  0  0  0  0  0  0  0  0  0  0
   53.9210   29.3700   52.9640 C   0  0  0  0  0  0  0  0  0  0  0  0
   54.8000   28.3140   53.5010 C   0  0  0  0  0  0  0  0  0  0  0  0
   54.3950   27.1220   53.5020 O   0  0  0  0  0  0  0  0  0  0  0  0
   56.1030   28.6000   54.0250 N   0  0  0  0  0  0  0  0  0  0  0  0
   57.3660   28.2940   53.3590 C   0  0  0  0  0  0  0  0  0  0  0  0
   58.4630   29.2490   53.8350 C   0  0  0  0  0  0  0  0  0  0  0  0
   59.6990   29.0220   53.0900 N   0  0  0  0  0  0  0  0  0  0  0  0
   59.8400   29.0960   51.6660 C   0  0  0  0  0  0  0  0  0  0  0  0
   60.3180   28.1050   51.0540 O   0  0  0  0  0  0  0  0  0  0  0  0
   59.4450   30.2900   50.8940 C   0  0  0  0  0  0  0  0  0  0  0  0
   58.2950   31.0170   51.2360 C   0  0  0  0  0  0  0  0  0  0  0  0
   57.8970   32.1090   50.4610 C   0  0  0  0  0  0  0  0  0  0  0  0
   58.6370   32.4790   49.3360 C   0  0  0  0  0  0  0  0  0  0  0  0
   59.7830   31.7550   48.9750 C   0  0  0  0  0  0  0  0  0  0  0  0
   60.6010   32.1760   47.7830 C   0  0  0  0  0  0  0  0  0  0  0  0
   59.7410   32.9090   46.7900 C   0  0  0  0  0  0  0  0  0  0  0  0
   59.9770   34.2660   46.5070 C   0  0  0  0  0  0  0  0  0  0  0  0
   59.1930   34.9330   45.5600 C   0  0  0  0  0  0  0  0  0  0  0  0
   58.1790   34.2520   44.8830 C   0  0  0  0  0  0  0  0  0  0  0  0
   57.9420   32.9010   45.1530 C   0  0  0  0  0  0  0  0  0  0  0  0
   56.9630   32.2390   44.4880 F   0  0  0  0  0  0  0  0  0  0  0  0
   58.7190   32.2300   46.1030 C   0  0  0  0  0  0  0  0  0  0  0  0
   60.1820   30.6610   49.7590 C   0  0  0  0  0  0  0  0  0  0  0  0
   54.3460   30.1520   51.8810 C   0  0  0  0  0  0  0  0  0  0  0  0
   53.4990   31.1160   51.3290 C   0  0  0  0  0  0  0  0  0  0  0  0
   50.7620   30.6329   53.3212 H   0  0  0  0  0  0  0  0  0  0  0  0
   52.2853   28.9382   54.3231 H   0  0  0  0  0  0  0  0  0  0  0  0
   57.6585   27.2598   53.5934 H   0  0  0  0  0  0  0  0  0  0  0  0
   57.2355   28.4121   52.2732 H   0  0  0  0  0  0  0  0  0  0  0  0
   58.1321   30.2864   53.6794 H   0  0  0  0  0  0  0  0  0  0  0  0
   58.6534   29.0673   54.9031 H   0  0  0  0  0  0  0  0  0  0  0  0
   57.7046   30.7262   52.1174 H   0  0  0  0  0  0  0  0  0  0  0  0
   56.9979   32.6792   50.7378 H   0  0  0  0  0  0  0  0  0  0  0  0
   58.3202   33.3412   48.7308 H   0  0  0  0  0  0  0  0  0  0  0  0
   61.4139   32.8377   48.1166 H   0  0  0  0  0  0  0  0  0  0  0  0
   61.0176   31.2792   47.3011 H   0  0  0  0  0  0  0  0  0  0  0  0
   60.7801   34.8043   47.0316 H   0  0  0  0  0  0  0  0  0  0  0  0
   59.3756   35.9968   45.3479 H   0  0  0  0  0  0  0  0  0  0  0  0
   57.5663   34.7790   44.1367 H   0  0  0  0  0  0  0  0  0  0  0  0
   58.5299   31.1670   46.3135 H   0  0  0  0  0  0  0  0  0  0  0  0
   61.0800   30.0897   49.4812 H   0  0  0  0  0  0  0  0  0  0  0  0
   55.3530   30.0056   51.4631 H   0  0  0  0  0  0  0  0  0  0  0  0
   53.8504   31.7369   50.4917 H   0  0  0  0  0  0  0  0  0  0  0  0
  1  2  2  0
  2  3  1  0
  2  4  1  0
  4  5  2  0
  5  6  1  0
  6  7  2  0
  7  8  1  0
  8  9  2  0
  8 10  1  0
 10 11  1  0
 11 12  1  0
 12 13  1  0
 13 14  1  0
 14 15  2  0
 14 16  1  0
 16 17  2  0
 17 18  1  0
 18 19  2  0
 19 20  1  0
 20 21  1  0
 21 22  1  0
 22 23  2  0
 23 24  1  0
 24 25  2  0
 25 26  1  0
 26 27  1  0
 26 28  2  0
 20 29  2  0
  7 30  1  0
 30 31  2  0
 31  4  1  0
 29 16  1  0
 28 22  1  0
  5 32  1  0
  6 33  1  0
 11 34  1  0
 11 35  1  0
 12 36  1  0
 12 37  1  0
 17 38  1  0
 18 39  1  0
 19 40  1  0
 21 41  1  0
 21 42  1  0
 23 43  1  0
 24 44  1  0
 25 45  1  0
 28 46  1  0
 29 47  1  0
 30 48  1  0
 31 49  1  0
M  CHG  3   3  -1  10  -1  13  -1
M  END
>  <UniqueID>  (26) 
24

>  <SMILES>  (26) 
O=C([O-])c1ccc(C(=O)[N-]CC[N-]C(=O)c2cccc(Cc3cccc(F)c3)c2)cc1

>  <Energy>  (26) 
49.54029244722665

>  <Genealogy>  (26) 
O=C([O-])c1ccc(C(=O)[N-]CC[N-]C(=O)c2cccc(Cc3cccc(F)c3)c2)cc1 (protonated)
O=C([O-])c1ccc(C(=O)[N-]CC[N-]C(=O)c2cccc(Cc3cccc(F)c3)c2)cc1 (3D coordinates assigned)
O=C([O-])c1ccc(C(=O)[N-]CC[N-]C(=O)c2cccc(Cc3cccc(F)c3)c2)cc1 (optimized conformer: 49.54029244722665 kcal/mol)

>  <smiles>  (26) 
O=C(O)c1ccc(C(=O)NCCNC(=O)c2cccc(Cc3cccc(F)c3)c2)cc1

>  <score_type>  (26) 
oracle

>  <origin>  (26) 
adg

>  <m_score__min__energy>  (26) 
-14.15

>  <m_primary>  (26) 
energy

$$$$
26:0
     RDKit          3D

 62 65  0  0  0  0  0  0  0  0999 V2000
   58.5600   33.2640   51.6280 C   0  0  0  0  0  0  0  0  0  0  0  0
   59.2430   32.0040   51.3040 N   0  0  0  0  0  0  0  0  0  0  0  0
   60.6880   32.1950   51.1380 C   0  0  0  0  0  0  0  0  0  0  0  0
   61.1720   31.1030   50.2010 C   0  0  0  0  0  0  0  0  0  0  0  0
   59.9530   30.7800   49.3480 C   0  0  1  0  0  0  0  0  0  0  0  0
   59.7950   29.3750   49.0920 O   0  0  0  0  0  0  0  0  0  0  0  0
   59.4850   28.7310   47.8780 C   0  0  0  0  0  0  0  0  0  0  0  0
   60.5200   28.0530   47.2250 C   0  0  0  0  0  0  0  0  0  0  0  0
   60.2910   27.3940   46.0160 C   0  0  0  0  0  0  0  0  0  0  0  0
   59.0200   27.4090   45.4400 C   0  0  0  0  0  0  0  0  0  0  0  0
   57.9640   28.0870   46.0700 C   0  0  0  0  0  0  0  0  0  0  0  0
   56.6080   28.1050   45.4650 C   0  0  0  0  0  0  0  0  0  0  0  0
   55.8370   27.1230   45.6350 O   0  0  0  0  0  0  0  0  0  0  0  0
   56.1730   29.1830   44.6220 N   0  0  0  0  0  0  0  0  0  0  0  0
   56.7620   30.3350   44.4540 C   0  0  0  0  0  0  0  0  0  0  0  0
   57.1330   30.8210   43.1850 C   0  0  0  0  0  0  0  0  0  0  0  0
   57.7690   32.0570   43.0860 C   0  0  0  0  0  0  0  0  0  0  0  0
   58.0440   32.7990   44.2350 C   0  0  0  0  0  0  0  0  0  0  0  0
   58.6510   34.0060   44.1140 F   0  0  0  0  0  0  0  0  0  0  0  0
   57.6700   32.2900   45.4930 C   0  0  0  0  0  0  0  0  0  0  0  0
   57.9720   33.0350   46.7410 C   0  0  0  0  0  0  0  0  0  0  0  0
   57.0120   33.4550   47.4440 O   0  0  0  0  0  0  0  0  0  0  0  0
   59.3230   33.2940   47.1830 N   0  0  0  0  0  0  0  0  0  0  0  0
   59.7060   34.2590   48.2010 C   0  0  0  0  0  0  0  0  0  0  0  0
   61.2260   34.2050   48.2650 C   0  0  0  0  0  0  0  0  0  0  0  0
   61.6800   33.5710   46.9410 C   0  0  1  0  0  0  0  0  0  0  0  0
   62.9250   32.7700   47.0880 N   0  0  0  0  0  0  0  0  0  0  0  0
   63.6810   33.1970   48.2820 C   0  0  0  0  0  0  0  0  0  0  0  0
   62.6100   31.3350   47.2270 C   0  0  0  0  0  0  0  0  0  0  0  0
   60.4790   32.7150   46.5170 C   0  0  0  0  0  0  0  0  0  0  0  0
   57.0550   31.0780   45.5550 N   0  0  0  0  0  0  0  0  0  0  0  0
   58.2020   28.7400   47.2940 C   0  0  0  0  0  0  0  0  0  0  0  0
   58.7510   31.4160   50.0490 C   0  0  0  0  0  0  0  0  0  0  0  0
   58.4985   33.3774   52.7204 H   0  0  0  0  0  0  0  0  0  0  0  0
   59.1247   34.1070   51.2031 H   0  0  0  0  0  0  0  0  0  0  0  0
   57.5455   33.2509   51.2031 H   0  0  0  0  0  0  0  0  0  0  0  0
   60.8913   33.1846   50.7027 H   0  0  0  0  0  0  0  0  0  0  0  0
   61.2063   32.1411   52.1067 H   0  0  0  0  0  0  0  0  0  0  0  0
   62.0018   31.4642   49.5757 H   0  0  0  0  0  0  0  0  0  0  0  0
   61.5562   30.2239   50.7392 H   0  0  0  0  0  0  0  0  0  0  0  0
   60.0671   31.2006   48.3380 H   0  0  0  0  0  0  0  0  0  0  0  0
   61.5261   28.0391   47.6696 H   0  0  0  0  0  0  0  0  0  0  0  0
   61.1139   26.8619   45.5164 H   0  0  0  0  0  0  0  0  0  0  0  0
   58.8445   26.8871   44.4877 H   0  0  0  0  0  0  0  0  0  0  0  0
   56.9227   30.2306   42.2810 H   0  0  0  0  0  0  0  0  0  0  0  0
   58.0551   32.4488   42.0988 H   0  0  0  0  0  0  0  0  0  0  0  0
   59.3691   35.2677   47.9200 H   0  0  0  0  0  0  0  0  0  0  0  0
   59.2491   34.0269   49.1743 H   0  0  0  0  0  0  0  0  0  0  0  0
   61.6411   35.2186   48.3662 H   0  0  0  0  0  0  0  0  0  0  0  0
   61.5737   33.6237   49.1317 H   0  0  0  0  0  0  0  0  0  0  0  0
   61.9462   34.3254   46.1860 H   0  0  0  0  0  0  0  0  0  0  0  0
   63.1384   32.8906   49.1885 H   0  0  0  0  0  0  0  0  0  0  0  0
   64.6756   32.7273   48.2736 H   0  0  0  0  0  0  0  0  0  0  0  0
   63.7922   34.2913   48.2736 H   0  0  0  0  0  0  0  0  0  0  0  0
   62.5527   31.0739   48.2940 H   0  0  0  0  0  0  0  0  0  0  0  0
   61.6440   31.1233   46.7453 H   0  0  0  0  0  0  0  0  0  0  0  0
   63.3985   30.7382   46.7453 H   0  0  0  0  0  0  0  0  0  0  0  0
   60.3496   32.7511   45.4252 H   0  0  0  0  0  0  0  0  0  0  0  0
   60.6176   31.6592   46.7928 H   0  0  0  0  0  0  0  0  0  0  0  0
   57.3776   29.2632   47.8005 H   0  0  0  0  0  0  0  0  0  0  0  0
   58.3134   32.1986   49.4118 H   0  0  0  0  0  0  0  0  0  0  0  0
   57.9717   30.6655   50.2476 H   0  0  0  0  0  0  0  0  0  0  0  0
  1  2  1  0
  2  3  1  0
  3  4  1  0
  4  5  1  0
  5  6  1  0
  6  7  1  0
  7  8  2  0
  8  9  1  0
  9 10  2  0
 10 11  1  0
 11 12  1  0
 12 13  2  0
 12 14  1  0
 14 15  2  3
 15 16  1  0
 16 17  2  0
 17 18  1  0
 18 19  1  0
 18 20  2  0
 20 21  1  0
 21 22  2  0
 21 23  1  0
 23 24  1  0
 24 25  1  0
 25 26  1  0
 26 27  1  0
 27 28  1  0
 27 29  1  0
 26 30  1  0
 20 31  1  0
 11 32  2  0
  5 33  1  0
 33  2  1  0
 32  7  1  0
 31 15  1  0
 30 23  1  0
  1 34  1  0
  1 35  1  0
  1 36  1  0
  3 37  1  0
  3 38  1  0
  4 39  1  0
  4 40  1  0
  5 41  1  6
  8 42  1  0
  9 43  1  0
 10 44  1  0
 16 45  1  0
 17 46  1  0
 24 47  1  0
 24 48  1  0
 25 49  1  0
 25 50  1  0
 26 51  1  6
 28 52  1  0
 28 53  1  0
 28 54  1  0
 29 55  1  0
 29 56  1  0
 29 57  1  0
 30 58  1  0
 30 59  1  0
 32 60  1  0
 33 61  1  0
 33 62  1  0
M  CHG  1  31  -1
M  END
>  <UniqueID>  (27) 
25

>  <SMILES>  (27) 
CN1CC[C@@H](Oc2cccc(C(=O)N=c3ccc(F)c(C(=O)N4CC[C@@H](N(C)C)C4)[n-]3)c2)C1

>  <Energy>  (27) 
88.26995071047207

>  <Genealogy>  (27) 
CN1CCC(Oc2cccc(C(=O)N=c3ccc(F)c(C(=O)N4CCC(N(C)C)C4)[n-]3)c2)C1 (protonated)
CN1CC[C@@H](Oc2cccc(C(=O)N=c3ccc(F)c(C(=O)N4CC[C@@H](N(C)C)C4)[n-]3)c2)C1 (chirality)
CN1CC[C@@H](Oc2cccc(C(=O)N=c3ccc(F)c(C(=O)N4CC[C@@H](N(C)C)C4)[n-]3)c2)C1 (3D coordinates assigned)
CN1CC[C@@H](Oc2cccc(C(=O)N=c3ccc(F)c(C(=O)N4CC[C@@H](N(C)C)C4)[n-]3)c2)C1 (nonaromatic ring conformer: 88.26995071047207 kcal/mol)

>  <smiles>  (27) 
CN1CCC(Oc2cccc(C(=O)N=c3ccc(F)c(C(=O)N4CCC(N(C)C)C4)[nH]3)c2)C1

>  <score_type>  (27) 
oracle

>  <origin>  (27) 
adg

>  <m_score__min__energy>  (27) 
-11.460000000000001

>  <m_primary>  (27) 
energy

$$$$
27:0
     RDKit          3D

 57 60  0  0  0  0  0  0  0  0999 V2000
   64.5180   32.9680   48.0830 N   0  0  0  0  0  0  0  0  0  0  0  0
   63.3110   33.2270   48.8110 C   0  0  0  0  0  0  0  0  0  0  0  0
   63.3050   33.0750   50.2070 C   0  0  0  0  0  0  0  0  0  0  0  0
   62.1470   33.3370   50.9430 C   0  0  0  0  0  0  0  0  0  0  0  0
   60.9860   33.7560   50.2960 C   0  0  0  0  0  0  0  0  0  0  0  0
   60.9760   33.9090   48.9070 C   0  0  0  0  0  0  0  0  0  0  0  0
   62.1270   33.6350   48.1540 C   0  0  0  0  0  0  0  0  0  0  0  0
   62.0510   33.8480   46.3660 S   0  0  0  0  0  0  0  0  0  0  0  0
   60.3510   34.5190   46.3600 C   0  0  0  0  0  0  0  0  0  0  0  0
   59.3750   33.4880   45.8700 C   0  0  0  0  0  0  0  0  0  0  0  0
   58.7620   33.6410   44.6190 C   0  0  0  0  0  0  0  0  0  0  0  0
   57.8470   32.6920   44.1590 C   0  0  0  0  0  0  0  0  0  0  0  0
   57.5410   31.5600   44.9370 C   0  0  0  0  0  0  0  0  0  0  0  0
   56.5600   30.5590   44.4520 C   0  0  0  0  0  0  0  0  0  0  0  0
   55.9440   30.7630   43.3720 O   0  0  0  0  0  0  0  0  0  0  0  0
   56.2750   29.3930   45.2370 N   0  0  0  0  0  0  0  0  0  0  0  0
   57.1460   28.2770   45.4770 C   0  0  0  0  0  0  0  0  0  0  0  0
   58.5280   28.4830   45.4000 C   0  0  0  0  0  0  0  0  0  0  0  0
   59.4150   27.4240   45.6150 C   0  0  0  0  0  0  0  0  0  0  0  0
   58.9240   26.1460   45.8940 C   0  0  0  0  0  0  0  0  0  0  0  0
   57.5430   25.9170   45.9450 C   0  0  0  0  0  0  0  0  0  0  0  0
   56.9150   24.3090   46.3040 S   0  0  0  0  0  0  0  0  0  0  0  0
   57.4880   23.8490   47.6160 O   0  0  0  0  0  0  0  0  0  0  0  0
   55.4160   24.3590   46.4270 O   0  0  0  0  0  0  0  0  0  0  0  0
   57.3740   23.1940   45.0400 N   0  0  0  0  0  0  0  0  0  0  0  0
   56.6420   23.5130   43.8000 C   0  0  0  0  0  0  0  0  0  0  0  0
   56.6050   22.2960   42.8580 C   0  0  0  0  0  0  0  0  0  0  0  0
   56.0060   21.1320   43.4170 O   0  0  0  0  0  0  0  0  0  0  0  0
   55.9480   21.1440   44.8360 C   0  0  0  0  0  0  0  0  0  0  0  0
   57.1880   21.7930   45.4790 C   0  0  0  0  0  0  0  0  0  0  0  0
   56.6560   26.9810   45.7310 C   0  0  0  0  0  0  0  0  0  0  0  0
   58.1750   31.4000   46.1820 C   0  0  0  0  0  0  0  0  0  0  0  0
   59.0830   32.3560   46.6450 C   0  0  0  0  0  0  0  0  0  0  0  0
   64.5140   32.6880   47.0780 H   0  0  0  0  0  0  0  0  0  0  0  0
   65.4460   33.0800   48.5440 H   0  0  0  0  0  0  0  0  0  0  0  0
   64.2186   32.7473   50.7246 H   0  0  0  0  0  0  0  0  0  0  0  0
   62.1515   33.2123   52.0359 H   0  0  0  0  0  0  0  0  0  0  0  0
   60.0771   33.9664   50.8789 H   0  0  0  0  0  0  0  0  0  0  0  0
   60.0595   34.2465   48.4010 H   0  0  0  0  0  0  0  0  0  0  0  0
   60.0773   34.8181   47.3825 H   0  0  0  0  0  0  0  0  0  0  0  0
   60.3160   35.3876   45.6860 H   0  0  0  0  0  0  0  0  0  0  0  0
   59.0033   34.5145   43.9954 H   0  0  0  0  0  0  0  0  0  0  0  0
   57.3619   32.8302   43.1815 H   0  0  0  0  0  0  0  0  0  0  0  0
   58.9190   29.4848   45.1688 H   0  0  0  0  0  0  0  0  0  0  0  0
   60.5001   27.5970   45.5645 H   0  0  0  0  0  0  0  0  0  0  0  0
   59.6242   25.3170   46.0742 H   0  0  0  0  0  0  0  0  0  0  0  0
   55.6120   23.8038   44.0540 H   0  0  0  0  0  0  0  0  0  0  0  0
   57.1582   24.3389   43.2886 H   0  0  0  0  0  0  0  0  0  0  0  0
   56.0373   22.5757   41.9583 H   0  0  0  0  0  0  0  0  0  0  0  0
   57.6521   22.0356   42.6438 H   0  0  0  0  0  0  0  0  0  0  0  0
   55.0557   21.7074   45.1464 H   0  0  0  0  0  0  0  0  0  0  0  0
   55.9087   20.0981   45.1745 H   0  0  0  0  0  0  0  0  0  0  0  0
   57.0700   21.7767   46.5725 H   0  0  0  0  0  0  0  0  0  0  0  0
   58.0722   21.2192   45.1643 H   0  0  0  0  0  0  0  0  0  0  0  0
   55.5709   26.8029   45.7616 H   0  0  0  0  0  0  0  0  0  0  0  0
   57.9543   30.5148   46.7966 H   0  0  0  0  0  0  0  0  0  0  0  0
   59.5709   32.2202   47.6215 H   0  0  0  0  0  0  0  0  0  0  0  0
  1  2  1  0
  2  3  2  0
  3  4  1  0
  4  5  2  0
  5  6  1  0
  6  7  2  0
  7  8  1  0
  8  9  1  0
  9 10  1  0
 10 11  2  0
 11 12  1  0
 12 13  2  0
 13 14  1  0
 14 15  2  0
 14 16  1  0
 16 17  1  0
 17 18  2  0
 18 19  1  0
 19 20  2  0
 20 21  1  0
 21 22  1  0
 22 23  2  0
 22 24  2  0
 22 25  1  0
 25 26  1  0
 26 27  1  0
 27 28  1  0
 28 29  1  0
 29 30  1  0
 21 31  2  0
 13 32  1  0
 32 33  2  0
  7  2  1  0
 33 10  1  0
 31 17  1  0
 30 25  1  0
  1 34  1  0
  1 35  1  0
  3 36  1  0
  4 37  1  0
  5 38  1  0
  6 39  1  0
  9 40  1  0
  9 41  1  0
 11 42  1  0
 12 43  1  0
 18 44  1  0
 19 45  1  0
 20 46  1  0
 26 47  1  0
 26 48  1  0
 27 49  1  0
 27 50  1  0
 29 51  1  0
 29 52  1  0
 30 53  1  0
 30 54  1  0
 31 55  1  0
 32 56  1  0
 33 57  1  0
M  CHG  1  16  -1
M  END
>  <UniqueID>  (28) 
26

>  <SMILES>  (28) 
Nc1ccccc1SCc1ccc(C(=O)[N-]c2cccc(S(=O)(=O)N3CCOCC3)c2)cc1

>  <Energy>  (28) 
72.02579609832473

>  <Genealogy>  (28) 
Nc1ccccc1SCc1ccc(C(=O)[N-]c2cccc(S(=O)(=O)N3CCOCC3)c2)cc1 (protonated)
Nc1ccccc1SCc1ccc(C(=O)[N-]c2cccc(S(=O)(=O)N3CCOCC3)c2)cc1 (3D coordinates assigned)
Nc1ccccc1SCc1ccc(C(=O)[N-]c2cccc(S(=O)(=O)N3CCOCC3)c2)cc1 (nonaromatic ring conformer: 72.02579609832473 kcal/mol)

>  <smiles>  (28) 
Nc1ccccc1SCc1ccc(C(=O)Nc2cccc(S(=O)(=O)N3CCOCC3)c2)cc1

>  <score_type>  (28) 
oracle

>  <origin>  (28) 
adg

>  <m_score__min__energy>  (28) 
-12.42

>  <m_primary>  (28) 
energy

$$$$
28:0
     RDKit          3D

 59 63  0  0  0  0  0  0  0  0999 V2000
   57.0680   29.0090   42.7710 N   0  0  0  0  0  0  0  0  0  0  0  0
   56.5770   29.5640   44.3350 S   0  0  0  0  0  0  0  0  0  0  0  0
   56.6640   28.4300   45.3170 O   0  0  0  0  0  0  0  0  0  0  0  0
   55.1510   30.0400   44.2760 O   0  0  0  0  0  0  0  0  0  0  0  0
   57.6310   30.8790   44.8540 C   0  0  0  0  0  0  0  0  0  0  0  0
   58.3440   30.7860   46.0580 C   0  0  0  0  0  0  0  0  0  0  0  0
   59.1650   31.8380   46.4730 C   0  0  0  0  0  0  0  0  0  0  0  0
   59.2680   33.0090   45.7020 C   0  0  0  0  0  0  0  0  0  0  0  0
   60.1490   34.1570   46.1560 C   0  0  0  0  0  0  0  0  0  0  0  0
   61.1500   33.7760   47.1800 N   0  0  0  0  0  0  0  0  0  0  0  0
   60.8930   34.3740   48.5140 C   0  0  0  0  0  0  0  0  0  0  0  0
   62.1580   34.5220   49.3880 C   0  0  0  0  0  0  0  0  0  0  0  0
   63.1610   33.4130   49.1180 C   0  0  0  0  0  0  0  0  0  0  0  0
   63.7590   32.7090   50.1230 C   0  0  0  0  0  0  0  0  0  0  0  0
   65.1150   33.0460   50.5940 C   0  0  0  0  0  0  0  0  0  0  0  0
   66.2330   32.8040   49.7790 C   0  0  0  0  0  0  0  0  0  0  0  0
   67.5140   33.1220   50.2340 C   0  0  0  0  0  0  0  0  0  0  0  0
   67.6880   33.6740   51.5070 C   0  0  0  0  0  0  0  0  0  0  0  0
   69.2990   34.0660   52.0790 Cl  0  0  0  0  0  0  0  0  0  0  0  0
   66.5790   33.9070   52.3270 C   0  0  0  0  0  0  0  0  0  0  0  0
   65.2870   33.6020   51.8700 C   0  0  0  0  0  0  0  0  0  0  0  0
   64.0860   33.8110   52.7490 C   0  0  0  0  0  0  0  0  0  0  0  0
   63.5620   32.4690   53.2660 C   0  0  0  0  0  0  0  0  0  0  0  0
   62.9620   31.5040   52.2490 C   0  0  0  0  0  0  0  0  0  0  0  0
   62.2890   30.3920   52.7850 C   0  0  0  0  0  0  0  0  0  0  0  0
   61.7420   29.4140   51.9580 C   0  0  0  0  0  0  0  0  0  0  0  0
   61.8860   29.5320   50.5820 C   0  0  0  0  0  0  0  0  0  0  0  0
   62.5380   30.6010   50.0600 N   0  0  0  0  0  0  0  0  0  0  0  0
   63.0660   31.5970   50.8270 C   0  0  0  0  0  0  0  0  0  0  0  0
   63.4590   33.1170   47.6600 C   0  0  0  0  0  0  0  0  0  0  0  0
   62.5430   33.9070   46.7230 C   0  0  0  0  0  0  0  0  0  0  0  0
   58.5650   33.0900   44.4870 C   0  0  0  0  0  0  0  0  0  0  0  0
   57.7450   32.0350   44.0720 C   0  0  0  0  0  0  0  0  0  0  0  0
   56.9830   27.9670   42.7740 H   0  0  0  0  0  0  0  0  0  0  0  0
   58.0850   29.2260   42.6750 H   0  0  0  0  0  0  0  0  0  0  0  0
   58.2567   29.8816   46.6781 H   0  0  0  0  0  0  0  0  0  0  0  0
   59.7348   31.7491   47.4097 H   0  0  0  0  0  0  0  0  0  0  0  0
   60.6833   34.5515   45.2791 H   0  0  0  0  0  0  0  0  0  0  0  0
   59.4873   34.9043   46.6183 H   0  0  0  0  0  0  0  0  0  0  0  0
   60.4546   35.3722   48.3674 H   0  0  0  0  0  0  0  0  0  0  0  0
   60.2160   33.6892   49.0457 H   0  0  0  0  0  0  0  0  0  0  0  0
   62.6307   35.4910   49.1697 H   0  0  0  0  0  0  0  0  0  0  0  0
   61.8545   34.4601   50.4435 H   0  0  0  0  0  0  0  0  0  0  0  0
   66.0990   32.3630   48.7802 H   0  0  0  0  0  0  0  0  0  0  0  0
   68.3871   32.9382   49.5906 H   0  0  0  0  0  0  0  0  0  0  0  0
   66.7195   34.3303   53.3325 H   0  0  0  0  0  0  0  0  0  0  0  0
   64.3682   34.4433   53.6037 H   0  0  0  0  0  0  0  0  0  0  0  0
   63.2950   34.3000   52.1614 H   0  0  0  0  0  0  0  0  0  0  0  0
   64.4030   31.9530   53.7523 H   0  0  0  0  0  0  0  0  0  0  0  0
   62.7236   32.7335   53.9271 H   0  0  0  0  0  0  0  0  0  0  0  0
   62.1928   30.2927   53.8763 H   0  0  0  0  0  0  0  0  0  0  0  0
   61.2023   28.5582   52.3897 H   0  0  0  0  0  0  0  0  0  0  0  0
   61.4722   28.7601   49.9164 H   0  0  0  0  0  0  0  0  0  0  0  0
   64.5041   33.3869   47.4479 H   0  0  0  0  0  0  0  0  0  0  0  0
   63.2853   32.0449   47.4855 H   0  0  0  0  0  0  0  0  0  0  0  0
   62.8345   34.9676   46.7322 H   0  0  0  0  0  0  0  0  0  0  0  0
   62.6338   33.5128   45.7001 H   0  0  0  0  0  0  0  0  0  0  0  0
   58.6603   33.9881   43.8590 H   0  0  0  0  0  0  0  0  0  0  0  0
   57.1873   32.1140   43.1271 H   0  0  0  0  0  0  0  0  0  0  0  0
  1  2  1  0
  2  3  2  0
  2  4  2  0
  2  5  1  0
  5  6  2  0
  6  7  1  0
  7  8  2  0
  8  9  1  0
  9 10  1  0
 10 11  1  0
 11 12  1  0
 12 13  1  0
 13 14  2  3
 14 15  1  0
 15 16  2  0
 16 17  1  0
 17 18  2  0
 18 19  1  0
 18 20  1  0
 20 21  2  0
 21 22  1  0
 22 23  1  0
 23 24  1  0
 24 25  2  0
 25 26  1  0
 26 27  2  0
 27 28  1  0
 28 29  2  0
 13 30  1  0
 30 31  1  0
  8 32  1  0
 32 33  2  0
 33  5  1  0
 31 10  1  0
 29 14  1  0
 21 15  1  0
 29 24  1  0
  1 34  1  0
  1 35  1  0
  6 36  1  0
  7 37  1  0
  9 38  1  0
  9 39  1  0
 11 40  1  0
 11 41  1  0
 12 42  1  0
 12 43  1  0
 16 44  1  0
 17 45  1  0
 20 46  1  0
 22 47  1  0
 22 48  1  0
 23 49  1  0
 23 50  1  0
 25 51  1  0
 26 52  1  0
 27 53  1  0
 30 54  1  0
 30 55  1  0
 31 56  1  0
 31 57  1  0
 32 58  1  0
 33 59  1  0
M  END
>  <UniqueID>  (29) 
27

>  <SMILES>  (29) 
NS(=O)(=O)c1ccc(CN2CCC(=C3c4ccc(Cl)cc4CCc4cccnc43)CC2)cc1

>  <Energy>  (29) 
95.09775322237229

>  <Genealogy>  (29) 
NS(=O)(=O)c1ccc(CN2CCC(=C3c4ccc(Cl)cc4CCc4cccnc43)CC2)cc1 (3D coordinates assigned)
NS(=O)(=O)c1ccc(CN2CCC(=C3c4ccc(Cl)cc4CCc4cccnc43)CC2)cc1 (nonaromatic ring conformer: 95.09775322237229 kcal/mol)

>  <smiles>  (29) 
NS(=O)(=O)c1ccc(CN2CCC(=C3c4ccc(Cl)cc4CCc4cccnc43)CC2)cc1

>  <score_type>  (29) 
oracle

>  <origin>  (29) 
adg

>  <m_score__min__energy>  (29) 
-9.2300000000000004

>  <m_primary>  (29) 
energy

$$$$
29:0
     RDKit          3D

 62 66  0  0  0  0  0  0  0  0999 V2000
   59.3150   27.3330   47.6080 N   0  0  0  0  0  0  0  0  0  0  0  0
   58.1700   26.5860   47.1470 C   0  0  0  0  0  0  0  0  0  0  0  0
   57.9200   25.3220   47.6950 C   0  0  0  0  0  0  0  0  0  0  0  0
   56.7790   24.6070   47.3400 C   0  0  0  0  0  0  0  0  0  0  0  0
   55.8960   25.1390   46.3850 C   0  0  0  0  0  0  0  0  0  0  0  0
   54.7860   24.5500   46.0370 N   0  0  0  0  0  0  0  0  0  0  0  0
   54.5060   23.8300   44.8260 C   0  0  0  0  0  0  0  0  0  0  0  0
   53.4530   23.1470   44.7090 O   0  0  0  0  0  0  0  0  0  0  0  0
   55.5250   23.8780   43.7170 C   0  0  0  0  0  0  0  0  0  0  0  0
   55.9160   22.5640   43.0510 C   0  0  0  0  0  0  0  0  0  0  0  0
   56.8510   23.2110   44.0590 C   0  0  0  0  0  0  0  0  0  0  0  0
   56.1730   26.3550   45.8500 N   0  0  0  0  0  0  0  0  0  0  0  0
   57.2640   27.0930   46.1870 C   0  0  0  0  0  0  0  0  0  0  0  0
   57.3940   28.4410   45.5860 C   0  0  0  0  0  0  0  0  0  0  0  0
   56.3300   28.9760   44.8520 C   0  0  0  0  0  0  0  0  0  0  0  0
   56.4330   30.2410   44.2740 C   0  0  0  0  0  0  0  0  0  0  0  0
   57.6120   30.9810   44.4520 C   0  0  0  0  0  0  0  0  0  0  0  0
   57.7240   32.3390   43.8920 C   0  0  0  0  0  0  0  0  0  0  0  0
   57.5520   32.5000   42.6470 O   0  0  0  0  0  0  0  0  0  0  0  0
   57.9660   33.4770   44.7610 N   0  0  0  0  0  0  0  0  0  0  0  0
   59.2970   34.0330   44.4630 C   0  0  0  0  0  0  0  0  0  0  0  0
   59.5730   35.2800   45.3210 C   0  0  0  0  0  0  0  0  0  0  0  0
   59.4390   35.0010   46.7680 N   0  0  0  0  0  0  0  0  0  0  0  0
   60.6060   34.2740   47.3180 C   0  0  0  0  0  0  0  0  0  0  0  0
   60.1680   33.1470   48.2200 C   0  0  0  0  0  0  0  0  0  0  0  0
   59.7070   33.4090   49.5230 C   0  0  0  0  0  0  0  0  0  0  0  0
   59.3510   32.3560   50.3700 C   0  0  0  0  0  0  0  0  0  0  0  0
   59.4560   31.0340   49.9240 C   0  0  0  0  0  0  0  0  0  0  0  0
   59.9080   30.7640   48.6310 C   0  0  0  0  0  0  0  0  0  0  0  0
   60.2550   31.8150   47.7790 C   0  0  0  0  0  0  0  0  0  0  0  0
   58.1410   34.3500   47.0730 C   0  0  0  0  0  0  0  0  0  0  0  0
   57.8750   33.1170   46.1910 C   0  0  0  0  0  0  0  0  0  0  0  0
   58.6580   30.4280   45.1300 N   0  0  0  0  0  0  0  0  0  0  0  0
   58.5840   29.1830   45.6770 C   0  0  0  0  0  0  0  0  0  0  0  0
   59.1830   28.1590   48.2390 H   0  0  0  0  0  0  0  0  0  0  0  0
   60.2840   27.1560   47.2510 H   0  0  0  0  0  0  0  0  0  0  0  0
   58.6321   24.8894   48.4132 H   0  0  0  0  0  0  0  0  0  0  0  0
   56.5702   23.6319   47.8042 H   0  0  0  0  0  0  0  0  0  0  0  0
   55.1945   24.8544   43.3332 H   0  0  0  0  0  0  0  0  0  0  0  0
   55.3845   21.6366   43.3105 H   0  0  0  0  0  0  0  0  0  0  0  0
   56.0128   22.2179   42.0113 H   0  0  0  0  0  0  0  0  0  0  0  0
   56.9962   22.7515   45.0478 H   0  0  0  0  0  0  0  0  0  0  0  0
   57.9047   23.5267   44.0504 H   0  0  0  0  0  0  0  0  0  0  0  0
   55.4045   28.3941   44.7298 H   0  0  0  0  0  0  0  0  0  0  0  0
   55.6002   30.6537   43.6857 H   0  0  0  0  0  0  0  0  0  0  0  0
   57.2440   34.2130   44.5620 H   0  0  0  0  0  0  0  0  0  0  0  0
   60.0618   33.2718   44.6766 H   0  0  0  0  0  0  0  0  0  0  0  0
   59.3292   34.3210   43.4019 H   0  0  0  0  0  0  0  0  0  0  0  0
   60.5967   35.6291   45.1204 H   0  0  0  0  0  0  0  0  0  0  0  0
   58.8304   36.0462   45.0536 H   0  0  0  0  0  0  0  0  0  0  0  0
   61.1959   33.8603   46.4868 H   0  0  0  0  0  0  0  0  0  0  0  0
   61.2104   34.9788   47.9079 H   0  0  0  0  0  0  0  0  0  0  0  0
   59.6264   34.4474   49.8768 H   0  0  0  0  0  0  0  0  0  0  0  0
   58.9884   32.5664   51.3870 H   0  0  0  0  0  0  0  0  0  0  0  0
   59.1818   30.2055   50.5937 H   0  0  0  0  0  0  0  0  0  0  0  0
   59.9909   29.7237   48.2833 H   0  0  0  0  0  0  0  0  0  0  0  0
   60.5985   31.5991   46.7566 H   0  0  0  0  0  0  0  0  0  0  0  0
   58.1440   34.0351   48.1270 H   0  0  0  0  0  0  0  0  0  0  0  0
   57.3455   35.0822   46.8703 H   0  0  0  0  0  0  0  0  0  0  0  0
   58.6214   32.3415   46.4177 H   0  0  0  0  0  0  0  0  0  0  0  0
   56.8629   32.7404   46.4003 H   0  0  0  0  0  0  0  0  0  0  0  0
   59.4580   28.7570   46.1914 H   0  0  0  0  0  0  0  0  0  0  0  0
  1  2  1  0
  2  3  1  0
  3  4  2  0
  4  5  1  0
  5  6  2  3
  6  7  1  0
  7  8  2  0
  7  9  1  0
  9 10  1  0
 10 11  1  0
  5 12  1  0
 12 13  1  0
 13 14  1  0
 14 15  2  0
 15 16  1  0
 16 17  2  0
 17 18  1  0
 18 19  2  0
 18 20  1  0
 20 21  1  0
 21 22  1  0
 22 23  1  0
 23 24  1  0
 24 25  1  0
 25 26  2  0
 26 27  1  0
 27 28  2  0
 28 29  1  0
 29 30  2  0
 23 31  1  0
 31 32  1  0
 17 33  1  0
 33 34  2  0
 13  2  2  0
 34 14  1  0
 11  9  1  0
 32 20  1  0
 30 25  1  0
  1 35  1  0
  1 36  1  0
  3 37  1  0
  4 38  1  0
  9 39  1  0
 10 40  1  0
 10 41  1  0
 11 42  1  0
 11 43  1  0
 15 44  1  0
 16 45  1  0
 20 46  1  0
 21 47  1  0
 21 48  1  0
 22 49  1  0
 22 50  1  0
 24 51  1  0
 24 52  1  0
 26 53  1  0
 27 54  1  0
 28 55  1  0
 29 56  1  0
 30 57  1  0
 31 58  1  0
 31 59  1  0
 32 60  1  0
 32 61  1  0
 34 62  1  0
M  CHG  2  12  -1  20   1
M  END
>  <UniqueID>  (30) 
28

>  <SMILES>  (30) 
Nc1ccc(=NC(=O)C2CC2)[n-]c1-c1ccc(C(=O)[NH+]2CCN(Cc3ccccc3)CC2)nc1

>  <Energy>  (30) 
357.938763000483

>  <Genealogy>  (30) 
Nc1ccc(=NC(=O)C2CC2)[n-]c1-c1ccc(C(=O)[NH+]2CCN(Cc3ccccc3)CC2)nc1 (protonated)
Nc1ccc(=NC(=O)C2CC2)[n-]c1-c1ccc(C(=O)[NH+]2CCN(Cc3ccccc3)CC2)nc1 (3D coordinates assigned)
Nc1ccc(=NC(=O)C2CC2)[n-]c1-c1ccc(C(=O)[NH+]2CCN(Cc3ccccc3)CC2)nc1 (nonaromatic ring conformer: 357.938763000483 kcal/mol)

>  <smiles>  (30) 
Nc1ccc(=NC(=O)C2CC2)[nH]c1-c1ccc(C(=O)N2CCN(Cc3ccccc3)CC2)nc1

>  <score_type>  (30) 
oracle

>  <origin>  (30) 
adg

>  <m_score__min__energy>  (30) 
-9.3200000000000003

>  <m_primary>  (30) 
energy

$$$$
30:0
     RDKit          3D

 41 44  0  0  0  0  0  0  0  0999 V2000
   65.6348   32.3064   48.7055 H   0  0  0  0  0  0  0  0  0  0  0  0
   64.8330   32.6160   49.3920 C   0  0  0  0  0  0  0  0  0  0  0  0
   64.9934   32.5743   50.4794 H   0  0  0  0  0  0  0  0  0  0  0  0
   63.6690   33.0410   48.9070 C   0  0  0  0  0  0  0  0  0  0  0  0
   62.5850   33.4570   49.6780 C   0  0  0  0  0  0  0  0  0  0  0  0
   62.5174   33.4996   50.7751 H   0  0  0  0  0  0  0  0  0  0  0  0
   61.6170   33.8030   48.7610 C   0  0  0  0  0  0  0  0  0  0  0  0
   60.3270   34.2870   48.9480 C   0  0  0  0  0  0  0  0  0  0  0  0
   59.9255   34.4537   49.9585 H   0  0  0  0  0  0  0  0  0  0  0  0
   59.5510   34.5570   47.8070 C   0  0  0  0  0  0  0  0  0  0  0  0
   58.5281   34.9435   47.9262 H   0  0  0  0  0  0  0  0  0  0  0  0
   60.0710   34.3370   46.4970 C   0  0  0  0  0  0  0  0  0  0  0  0
   59.3480   34.5800   45.3840 C   0  0  0  0  0  0  0  0  0  0  0  0
   59.8045   35.2172   44.6122 H   0  0  0  0  0  0  0  0  0  0  0  0
   57.9640   34.0470   45.1150 C   0  0  0  0  0  0  0  0  0  0  0  0
   57.3582   34.1456   46.0279 H   0  0  0  0  0  0  0  0  0  0  0  0
   57.5225   34.6266   44.2909 H   0  0  0  0  0  0  0  0  0  0  0  0
   58.0060   32.6010   44.7090 C   0  0  0  0  0  0  0  0  0  0  0  0
   57.7670   32.0890   43.4370 C   0  0  0  0  0  0  0  0  0  0  0  0
   57.5044   32.6937   42.5564 H   0  0  0  0  0  0  0  0  0  0  0  0
   57.9030   30.7440   43.4360 N   0  0  0  0  0  0  0  0  0  0  0  0
   57.7800   30.1030   42.6210 H   0  0  0  0  0  0  0  0  0  0  0  0
   58.2320   30.4030   44.6960 C   0  0  0  0  0  0  0  0  0  0  0  0
   58.4800   29.1240   45.1840 C   0  0  0  0  0  0  0  0  0  0  0  0
   58.4153   28.2436   44.5278 H   0  0  0  0  0  0  0  0  0  0  0  0
   58.8160   28.9930   46.5430 C   0  0  0  0  0  0  0  0  0  0  0  0
   59.0149   27.9940   46.9582 H   0  0  0  0  0  0  0  0  0  0  0  0
   58.9020   30.1270   47.3840 C   0  0  0  0  0  0  0  0  0  0  0  0
   59.2420   29.9310   48.7300 O   0  0  0  0  0  0  0  0  0  0  0  0
   60.4030   30.4760   49.3510 C   0  0  0  0  0  0  0  0  0  0  0  0
   60.2926   30.4242   50.4442 H   0  0  0  0  0  0  0  0  0  0  0  0
   61.2880   29.8992   49.0441 H   0  0  0  0  0  0  0  0  0  0  0  0
   60.5247   31.5253   49.0441 H   0  0  0  0  0  0  0  0  0  0  0  0
   58.6450   31.4140   46.8500 C   0  0  0  0  0  0  0  0  0  0  0  0
   58.7080   32.3120   47.4821 H   0  0  0  0  0  0  0  0  0  0  0  0
   58.3100   31.5090   45.5000 C   0  0  0  0  0  0  0  0  0  0  0  0
   61.3930   33.8470   46.3580 C   0  0  0  0  0  0  0  0  0  0  0  0
   61.8259   33.6724   45.3620 H   0  0  0  0  0  0  0  0  0  0  0  0
   62.1330   33.5910   47.5110 C   0  0  0  0  0  0  0  0  0  0  0  0
   63.3910   33.1240   47.5840 N   0  0  0  0  0  0  0  0  0  0  0  0
   64.0180   32.8780   46.7850 H   0  0  0  0  0  0  0  0  0  0  0  0
  1  2  1  0
  2  3  1  0
  2  4  2  0
  4  5  1  0
  5  6  1  0
  5  7  2  0
  7  8  1  0
  8  9  1  0
  8 10  2  0
 10 11  1  0
 10 12  1  0
 12 13  2  0
 13 14  1  0
 13 15  1  0
 15 16  1  0
 15 17  1  0
 15 18  1  0
 18 19  2  0
 19 20  1  0
 19 21  1  0
 21 22  1  0
 21 23  1  0
 23 24  2  0
 24 25  1  0
 24 26  1  0
 26 27  1  0
 26 28  2  0
 28 29  1  0
 29 30  1  0
 30 31  1  0
 30 32  1  0
 30 33  1  0
 28 34  1  0
 34 35  1  0
 34 36  2  0
 12 37  1  0
 37 38  1  0
 37 39  2  0
 39 40  1  0
 40 41  1  0
 40  4  1  0
 39  7  1  0
 36 18  1  0
 36 23  1  0
M  END
>  <UniqueID>  (31) 
29

>  <SMILES>  (31) 
C=c1cc2cc/c(=C\Cc3c[nH]c4ccc(OC)cc34)cc2[nH]1

>  <Energy>  (31) 
110.04099890183146

>  <Genealogy>  (31) 
C=c1cc2cc/c(=C\Cc3c[nH]c4ccc(OC)cc34)cc2[nH]1 (cis-trans isomerization)
C=c1cc2cc/c(=C\Cc3c[nH]c4ccc(OC)cc34)cc2[nH]1 (3D coordinates assigned)
C=c1cc2cc/c(=C\Cc3c[nH]c4ccc(OC)cc34)cc2[nH]1 (optimized conformer: 110.04099890183146 kcal/mol)

>  <smiles>  (31) 
C=c1cc2ccc(=CCc3c[nH]c4ccc(OC)cc34)cc2[nH]1

>  <score_type>  (31) 
oracle

>  <origin>  (31) 
adg

>  <m_score__min__energy>  (31) 
-8.5299999999999994

>  <m_primary>  (31) 
energy

$$$$
31:0
     RDKit          3D

 54 57  0  0  0  0  0  0  0  0999 V2000
   60.4000   27.3830   48.0350 C   0  0  0  0  0  0  0  0  0  0  0  0
   59.6920   28.4730   47.6980 C   0  0  0  0  0  0  0  0  0  0  0  0
   58.8790   28.6310   46.5650 C   0  0  0  0  0  0  0  0  0  0  0  0
   58.4310   27.7320   45.6660 C   0  0  0  0  0  0  0  0  0  0  0  0
   57.2250   26.9030   45.8170 C   0  0  0  0  0  0  0  0  0  0  0  0
   57.2150   25.6480   46.3040 N   0  0  0  0  0  0  0  0  0  0  0  0
   55.8990   25.3570   46.3840 C   0  0  0  0  0  0  0  0  0  0  0  0
   55.4760   24.2420   46.7880 O   0  0  0  0  0  0  0  0  0  0  0  0
   55.0720   26.3520   45.9990 N   0  0  0  0  0  0  0  0  0  0  0  0
   55.9290   27.3290   45.6580 C   0  0  0  0  0  0  0  0  0  0  0  0
   55.5330   28.5860   45.2220 O   0  0  0  0  0  0  0  0  0  0  0  0
   58.5160   29.9660   46.5310 C   0  0  0  0  0  0  0  0  0  0  0  0
   59.0580   30.5560   47.6510 C   0  0  0  0  0  0  0  0  0  0  0  0
   58.8190   31.9610   48.0330 C   0  0  0  0  0  0  0  0  0  0  0  0
   58.3220   32.2040   49.1660 O   0  0  0  0  0  0  0  0  0  0  0  0
   59.0990   33.0440   47.1280 N   0  0  0  0  0  0  0  0  0  0  0  0
   59.6790   34.2870   47.6470 C   0  0  0  0  0  0  0  0  0  0  0  0
   59.2970   35.4660   46.7450 C   0  0  0  0  0  0  0  0  0  0  0  0
   59.5820   35.1790   45.3900 O   0  0  0  0  0  0  0  0  0  0  0  0
   58.7510   34.1230   44.9470 C   0  0  0  0  0  0  0  0  0  0  0  0
   59.0930   32.8220   45.6770 C   0  0  0  0  0  0  0  0  0  0  0  0
   59.7680   29.6530   48.3710 N   0  0  0  0  0  0  0  0  0  0  0  0
   60.3250   29.8670   49.7180 C   0  0  0  0  0  0  0  0  0  0  0  0
   61.8260   30.1440   49.6420 C   0  0  0  0  0  0  0  0  0  0  0  0
   62.0480   31.4700   49.0240 N   0  0  0  0  0  0  0  0  0  0  0  0
   62.9060   32.3340   49.8510 C   0  0  0  0  0  0  0  0  0  0  0  0
   62.9980   33.7410   49.2220 C   0  0  0  0  0  0  0  0  0  0  0  0
   62.4700   33.7850   47.9060 O   0  0  0  0  0  0  0  0  0  0  0  0
   63.0300   32.7450   47.1290 C   0  0  0  0  0  0  0  0  0  0  0  0
   62.5750   31.3670   47.6490 C   0  0  0  0  0  0  0  0  0  0  0  0
   61.0033   27.3817   48.9548 H   0  0  0  0  0  0  0  0  0  0  0  0
   60.3767   26.4913   47.3913 H   0  0  0  0  0  0  0  0  0  0  0  0
   59.0158   27.6079   44.7426 H   0  0  0  0  0  0  0  0  0  0  0  0
   57.9105   30.4610   45.7575 H   0  0  0  0  0  0  0  0  0  0  0  0
   59.2990   34.4688   48.6631 H   0  0  0  0  0  0  0  0  0  0  0  0
   60.7746   34.1909   47.6676 H   0  0  0  0  0  0  0  0  0  0  0  0
   58.2208   35.6669   46.8517 H   0  0  0  0  0  0  0  0  0  0  0  0
   59.8845   36.3450   47.0487 H   0  0  0  0  0  0  0  0  0  0  0  0
   57.7006   34.3828   45.1452 H   0  0  0  0  0  0  0  0  0  0  0  0
   58.9111   33.9758   43.8687 H   0  0  0  0  0  0  0  0  0  0  0  0
   58.3419   32.0575   45.4291 H   0  0  0  0  0  0  0  0  0  0  0  0
   60.0906   32.4833   45.3606 H   0  0  0  0  0  0  0  0  0  0  0  0
   59.8220   30.7267   50.1847 H   0  0  0  0  0  0  0  0  0  0  0  0
   60.1620   28.9591   50.3173 H   0  0  0  0  0  0  0  0  0  0  0  0
   62.2531   30.1349   50.6557 H   0  0  0  0  0  0  0  0  0  0  0  0
   62.3136   29.3678   49.0339 H   0  0  0  0  0  0  0  0  0  0  0  0
   62.4778   32.4135   50.8611 H   0  0  0  0  0  0  0  0  0  0  0  0
   63.9135   31.8962   49.9072 H   0  0  0  0  0  0  0  0  0  0  0  0
   62.4350   34.4459   49.8514 H   0  0  0  0  0  0  0  0  0  0  0  0
   64.0627   34.0112   49.1634 H   0  0  0  0  0  0  0  0  0  0  0  0
   62.7062   32.8610   46.0842 H   0  0  0  0  0  0  0  0  0  0  0  0
   64.1262   32.8038   47.1990 H   0  0  0  0  0  0  0  0  0  0  0  0
   61.7863   30.9758   46.9895 H   0  0  0  0  0  0  0  0  0  0  0  0
   63.4420   30.6901   47.6550 H   0  0  0  0  0  0  0  0  0  0  0  0
  1  2  2  0
  2  3  1  0
  3  4  2  3
  4  5  1  0
  5  6  1  0
  6  7  1  0
  7  8  2  0
  7  9  1  0
  9 10  1  0
 10 11  1  0
  3 12  1  0
 12 13  2  0
 13 14  1  0
 14 15  2  0
 14 16  1  0
 16 17  1  0
 17 18  1  0
 18 19  1  0
 19 20  1  0
 20 21  1  0
 13 22  1  0
 22 23  1  0
 23 24  1  0
 24 25  1  0
 25 26  1  0
 26 27  1  0
 27 28  1  0
 28 29  1  0
 29 30  1  0
 22  2  1  0
 30 25  1  0
 10  5  2  0
 21 16  1  0
  1 31  1  0
  1 32  1  0
  4 33  1  0
 12 34  1  0
 17 35  1  0
 17 36  1  0
 18 37  1  0
 18 38  1  0
 20 39  1  0
 20 40  1  0
 21 41  1  0
 21 42  1  0
 23 43  1  0
 23 44  1  0
 24 45  1  0
 24 46  1  0
 26 47  1  0
 26 48  1  0
 27 49  1  0
 27 50  1  0
 29 51  1  0
 29 52  1  0
 30 53  1  0
 30 54  1  0
M  CHG  3   6  -1   9  -1  11  -1
M  END
>  <UniqueID>  (32) 
30

>  <SMILES>  (32) 
C=c1c(=Cc2[n-]c(=O)[n-]c2[O-])cc(C(=O)N2CCOCC2)n1CCN1CCOCC1

>  <Energy>  (32) 
139.76001380843164

>  <Genealogy>  (32) 
C=c1c(=Cc2[n-]c(=O)[n-]c2[O-])cc(C(=O)N2CCOCC2)n1CCN1CCOCC1 (protonated)
C=c1c(=Cc2[n-]c(=O)[n-]c2[O-])cc(C(=O)N2CCOCC2)n1CCN1CCOCC1 (3D coordinates assigned)
C=c1c(=Cc2[n-]c(=O)[n-]c2[O-])cc(C(=O)N2CCOCC2)n1CCN1CCOCC1 (nonaromatic ring conformer: 139.76001380843164 kcal/mol)

>  <smiles>  (32) 
C=c1c(=Cc2[nH]c(=O)[nH]c2O)cc(C(=O)N2CCOCC2)n1CCN1CCOCC1

>  <score_type>  (32) 
oracle

>  <origin>  (32) 
adg

>  <m_score__min__energy>  (32) 
-16.280000000000001

>  <m_primary>  (32) 
energy

$$$$
32:0
     RDKit          3D

 65 68  0  0  0  0  0  0  0  0999 V2000
   56.1530   30.4560   44.6780 O   0  0  0  0  0  0  0  0  0  0  0  0
   57.3340   30.2590   45.0700 C   0  0  0  0  0  0  0  0  0  0  0  0
   58.4290   31.1840   44.6070 C   0  0  0  0  0  0  0  0  0  0  0  0
   57.8500   32.3030   43.7230 C   0  0  0  0  0  0  0  0  0  0  0  0
   57.8630   33.6360   44.3640 N   0  0  0  0  0  0  0  0  0  0  0  0
   59.1970   34.2660   44.4920 C   0  0  0  0  0  0  0  0  0  0  0  0
   59.6020   34.5150   45.9500 C   0  0  0  0  0  0  0  0  0  0  0  0
   59.0940   33.4240   46.7950 N   0  0  0  0  0  0  0  0  0  0  0  0
   59.6920   33.4700   48.1440 C   0  0  0  0  0  0  0  0  0  0  0  0
   61.1840   33.2910   48.0550 C   0  0  0  0  0  0  0  0  0  0  0  0
   61.7400   32.2390   47.3070 C   0  0  0  0  0  0  0  0  0  0  0  0
   63.1270   32.0680   47.2570 C   0  0  0  0  0  0  0  0  0  0  0  0
   63.9660   32.9440   47.9530 C   0  0  0  0  0  0  0  0  0  0  0  0
   63.4200   33.9910   48.6990 C   0  0  0  0  0  0  0  0  0  0  0  0
   62.0330   34.1640   48.7500 C   0  0  0  0  0  0  0  0  0  0  0  0
   57.6220   33.4980   46.8800 C   0  0  0  0  0  0  0  0  0  0  0  0
   56.9550   33.7990   45.5180 C   0  0  0  0  0  0  0  0  0  0  0  0
   57.5850   29.1970   46.0010 N   0  0  0  0  0  0  0  0  0  0  0  0
   58.5400   29.2280   47.0680 C   0  0  0  0  0  0  0  0  0  0  0  0
   58.6360   30.3300   47.9310 C   0  0  0  0  0  0  0  0  0  0  0  0
   59.5930   30.3460   48.9490 C   0  0  0  0  0  0  0  0  0  0  0  0
   60.4780   29.2650   49.1170 C   0  0  0  0  0  0  0  0  0  0  0  0
   61.4910   29.2980   50.1980 C   0  0  0  0  0  0  0  0  0  0  0  0
   61.6310   28.2900   50.9460 O   0  0  0  0  0  0  0  0  0  0  0  0
   62.3290   30.4490   50.3990 N   0  0  0  0  0  0  0  0  0  0  0  0
   63.1600   30.6100   51.5900 C   0  0  0  0  0  0  0  0  0  0  0  0
   64.2560   31.6070   51.3290 C   0  0  0  0  0  0  0  0  0  0  0  0
   65.4430   31.2150   50.6860 C   0  0  0  0  0  0  0  0  0  0  0  0
   66.4650   32.1430   50.4670 C   0  0  0  0  0  0  0  0  0  0  0  0
   66.3130   33.4670   50.8920 C   0  0  0  0  0  0  0  0  0  0  0  0
   65.1370   33.8630   51.5370 C   0  0  0  0  0  0  0  0  0  0  0  0
   64.1130   32.9380   51.7580 C   0  0  0  0  0  0  0  0  0  0  0  0
   60.4040   28.1840   48.2210 C   0  0  0  0  0  0  0  0  0  0  0  0
   59.4450   28.1710   47.2020 C   0  0  0  0  0  0  0  0  0  0  0  0
   58.9194   31.6322   45.4837 H   0  0  0  0  0  0  0  0  0  0  0  0
   59.1580   30.6069   44.0192 H   0  0  0  0  0  0  0  0  0  0  0  0
   58.4434   32.3568   42.7983 H   0  0  0  0  0  0  0  0  0  0  0  0
   56.7968   32.0489   43.5326 H   0  0  0  0  0  0  0  0  0  0  0  0
   59.9436   33.6044   44.0285 H   0  0  0  0  0  0  0  0  0  0  0  0
   59.1496   35.2441   43.9910 H   0  0  0  0  0  0  0  0  0  0  0  0
   60.6988   34.5552   46.0238 H   0  0  0  0  0  0  0  0  0  0  0  0
   59.1754   35.4702   46.2902 H   0  0  0  0  0  0  0  0  0  0  0  0
   59.4693   34.4423   48.6077 H   0  0  0  0  0  0  0  0  0  0  0  0
   59.2678   32.6586   48.7536 H   0  0  0  0  0  0  0  0  0  0  0  0
   61.0822   31.5481   46.7593 H   0  0  0  0  0  0  0  0  0  0  0  0
   63.5584   31.2439   46.6698 H   0  0  0  0  0  0  0  0  0  0  0  0
   65.0569   32.8084   47.9129 H   0  0  0  0  0  0  0  0  0  0  0  0
   64.0807   34.6794   49.2463 H   0  0  0  0  0  0  0  0  0  0  0  0
   61.6059   34.9894   49.3385 H   0  0  0  0  0  0  0  0  0  0  0  0
   57.2430   32.5343   47.2511 H   0  0  0  0  0  0  0  0  0  0  0  0
   57.3718   34.3256   47.5601 H   0  0  0  0  0  0  0  0  0  0  0  0
   56.1034   33.1147   45.3894 H   0  0  0  0  0  0  0  0  0  0  0  0
   56.6456   34.8544   45.5375 H   0  0  0  0  0  0  0  0  0  0  0  0
   57.9552   31.1848   47.8057 H   0  0  0  0  0  0  0  0  0  0  0  0
   59.6551   31.2114   49.6252 H   0  0  0  0  0  0  0  0  0  0  0  0
   62.3880   31.1850   49.6610 H   0  0  0  0  0  0  0  0  0  0  0  0
   62.5359   30.9661   52.4229 H   0  0  0  0  0  0  0  0  0  0  0  0
   63.6112   29.6401   51.8462 H   0  0  0  0  0  0  0  0  0  0  0  0
   65.5680   30.1738   50.3539 H   0  0  0  0  0  0  0  0  0  0  0  0
   67.3901   31.8317   49.9597 H   0  0  0  0  0  0  0  0  0  0  0  0
   67.1181   34.1963   50.7190 H   0  0  0  0  0  0  0  0  0  0  0  0
   65.0178   34.9043   51.8709 H   0  0  0  0  0  0  0  0  0  0  0  0
   63.1915   33.2527   52.2697 H   0  0  0  0  0  0  0  0  0  0  0  0
   61.1051   27.3424   48.3218 H   0  0  0  0  0  0  0  0  0  0  0  0
   59.4030   27.3236   46.5019 H   0  0  0  0  0  0  0  0  0  0  0  0
  1  2  2  0
  2  3  1  0
  3  4  1  0
  4  5  1  0
  5  6  1  0
  6  7  1  0
  7  8  1  0
  8  9  1  0
  9 10  1  0
 10 11  2  0
 11 12  1  0
 12 13  2  0
 13 14  1  0
 14 15  2  0
  8 16  1  0
 16 17  1  0
  2 18  1  0
 18 19  1  0
 19 20  2  0
 20 21  1  0
 21 22  2  0
 22 23  1  0
 23 24  2  0
 23 25  1  0
 25 26  1  0
 26 27  1  0
 27 28  2  0
 28 29  1  0
 29 30  2  0
 30 31  1  0
 31 32  2  0
 22 33  1  0
 33 34  2  0
 17  5  1  0
 34 19  1  0
 15 10  1  0
 32 27  1  0
  3 35  1  0
  3 36  1  0
  4 37  1  0
  4 38  1  0
  6 39  1  0
  6 40  1  0
  7 41  1  0
  7 42  1  0
  9 43  1  0
  9 44  1  0
 11 45  1  0
 12 46  1  0
 13 47  1  0
 14 48  1  0
 15 49  1  0
 16 50  1  0
 16 51  1  0
 17 52  1  0
 17 53  1  0
 20 54  1  0
 21 55  1  0
 25 56  1  0
 26 57  1  0
 26 58  1  0
 28 59  1  0
 29 60  1  0
 30 61  1  0
 31 62  1  0
 32 63  1  0
 33 64  1  0
 34 65  1  0
M  CHG  1  18  -1
M  END
>  <UniqueID>  (33) 
31

>  <SMILES>  (33) 
O=C(CCN1CCN(Cc2ccccc2)CC1)[N-]c1ccc(C(=O)NCc2ccccc2)cc1

>  <Energy>  (33) 
83.93323968008973

>  <Genealogy>  (33) 
O=C(CCN1CCN(Cc2ccccc2)CC1)[N-]c1ccc(C(=O)NCc2ccccc2)cc1 (protonated)
O=C(CCN1CCN(Cc2ccccc2)CC1)[N-]c1ccc(C(=O)NCc2ccccc2)cc1 (3D coordinates assigned)
O=C(CCN1CCN(Cc2ccccc2)CC1)[N-]c1ccc(C(=O)NCc2ccccc2)cc1 (nonaromatic ring conformer: 83.93323968008973 kcal/mol)

>  <smiles>  (33) 
O=C(CCN1CCN(Cc2ccccc2)CC1)Nc1ccc(C(=O)NCc2ccccc2)cc1

>  <score_type>  (33) 
oracle

>  <origin>  (33) 
adg

>  <m_score__min__energy>  (33) 
-10.34

>  <m_primary>  (33) 
energy

$$$$
33:0
     RDKit          3D

 48 51  0  0  0  0  0  0  0  0999 V2000
   63.3900   34.0330   49.7010 N   0  0  0  0  0  0  0  0  0  0  0  0
   63.2040   33.3480   48.4560 C   0  0  0  0  0  0  0  0  0  0  0  0
   64.2330   32.8350   47.8480 N   0  0  0  0  0  0  0  0  0  0  0  0
   61.8420   33.2220   47.8770 C   0  0  0  0  0  0  0  0  0  0  0  0
   61.5860   33.5990   46.5480 C   0  0  0  0  0  0  0  0  0  0  0  0
   60.3000   33.4830   46.0130 C   0  0  0  0  0  0  0  0  0  0  0  0
   59.2430   33.0080   46.8020 C   0  0  0  0  0  0  0  0  0  0  0  0
   57.9010   32.8740   46.2020 C   0  0  0  0  0  0  0  0  0  0  0  0
   57.6820   32.3950   44.9690 C   0  0  0  0  0  0  0  0  0  0  0  0
   58.0680   33.0250   43.6440 C   0  0  0  0  0  0  0  0  0  0  0  0
   57.7780   31.9400   42.5630 C   0  0  0  0  0  0  0  0  0  0  0  0
   57.2090   30.8310   43.3630 C   0  0  0  0  0  0  0  0  0  0  0  0
   56.6660   29.2770   43.0530 S   0  0  0  0  0  0  0  0  0  0  0  0
   56.3970   29.0120   44.7240 C   0  0  0  0  0  0  0  0  0  0  0  0
   55.8970   27.9340   45.2470 N   0  0  0  0  0  0  0  0  0  0  0  0
   56.6340   26.7890   45.6940 C   0  0  0  0  0  0  0  0  0  0  0  0
   56.1090   26.0310   46.5530 O   0  0  0  0  0  0  0  0  0  0  0  0
   58.0800   26.5900   45.3190 C   0  0  0  0  0  0  0  0  0  0  0  0
   58.9560   27.6890   45.8710 C   0  0  0  0  0  0  0  0  0  0  0  0
   59.8890   28.3320   45.0390 C   0  0  0  0  0  0  0  0  0  0  0  0
   60.6940   29.3590   45.5430 C   0  0  0  0  0  0  0  0  0  0  0  0
   60.5740   29.7500   46.8780 C   0  0  0  0  0  0  0  0  0  0  0  0
   59.6540   29.1130   47.7140 C   0  0  0  0  0  0  0  0  0  0  0  0
   58.8470   28.0860   47.2140 C   0  0  0  0  0  0  0  0  0  0  0  0
   56.7140   30.0910   45.4860 N   0  0  0  0  0  0  0  0  0  0  0  0
   57.1650   31.0810   44.6790 C   0  0  0  0  0  0  0  0  0  0  0  0
   59.5010   32.6050   48.1220 C   0  0  0  0  0  0  0  0  0  0  0  0
   60.7870   32.7210   48.6580 C   0  0  0  0  0  0  0  0  0  0  0  0
   62.5970   34.5280   50.1660 H   0  0  0  0  0  0  0  0  0  0  0  0
   64.3340   34.0920   50.1430 H   0  0  0  0  0  0  0  0  0  0  0  0
   64.4980   31.8350   47.9990 H   0  0  0  0  0  0  0  0  0  0  0  0
   64.8070   33.3890   47.1760 H   0  0  0  0  0  0  0  0  0  0  0  0
   62.4038   33.9884   45.9238 H   0  0  0  0  0  0  0  0  0  0  0  0
   60.1161   33.7662   44.9661 H   0  0  0  0  0  0  0  0  0  0  0  0
   57.0317   33.1846   46.8001 H   0  0  0  0  0  0  0  0  0  0  0  0
   57.4639   33.9249   43.4564 H   0  0  0  0  0  0  0  0  0  0  0  0
   59.1226   33.3375   43.6340 H   0  0  0  0  0  0  0  0  0  0  0  0
   57.0548   32.3044   41.8186 H   0  0  0  0  0  0  0  0  0  0  0  0
   58.6674   31.6504   41.9841 H   0  0  0  0  0  0  0  0  0  0  0  0
   58.4230   25.6251   45.7206 H   0  0  0  0  0  0  0  0  0  0  0  0
   58.1557   26.6094   44.2218 H   0  0  0  0  0  0  0  0  0  0  0  0
   59.9865   28.0262   43.9869 H   0  0  0  0  0  0  0  0  0  0  0  0
   61.4220   29.8589   44.8872 H   0  0  0  0  0  0  0  0  0  0  0  0
   61.2047   30.5606   47.2718 H   0  0  0  0  0  0  0  0  0  0  0  0
   59.5641   29.4194   48.7666 H   0  0  0  0  0  0  0  0  0  0  0  0
   58.1236   27.5868   47.8755 H   0  0  0  0  0  0  0  0  0  0  0  0
   58.6867   32.1957   48.7379 H   0  0  0  0  0  0  0  0  0  0  0  0
   60.9742   32.4178   49.6987 H   0  0  0  0  0  0  0  0  0  0  0  0
  1  2  1  0
  2  3  2  0
  2  4  1  0
  4  5  2  0
  5  6  1  0
  6  7  2  0
  7  8  1  0
  8  9  2  3
  9 10  1  0
 10 11  1  0
 11 12  1  0
 12 13  1  0
 13 14  1  0
 14 15  2  3
 15 16  1  0
 16 17  2  0
 16 18  1  0
 18 19  1  0
 19 20  2  0
 20 21  1  0
 21 22  2  0
 22 23  1  0
 23 24  2  0
 14 25  1  0
 25 26  1  0
  7 27  1  0
 27 28  2  0
 28  4  1  0
 26  9  1  0
 26 12  2  0
 24 19  1  0
  1 29  1  0
  1 30  1  0
  3 31  1  0
  3 32  1  0
  5 33  1  0
  6 34  1  0
  8 35  1  0
 10 36  1  0
 10 37  1  0
 11 38  1  0
 11 39  1  0
 18 40  1  0
 18 41  1  0
 20 42  1  0
 21 43  1  0
 22 44  1  0
 23 45  1  0
 24 46  1  0
 27 47  1  0
 28 48  1  0
M  CHG  2   3   1  25  -1
M  END
>  <UniqueID>  (34) 
32

>  <SMILES>  (34) 
NC(=[NH2+])c1ccc(C=C2CCc3sc(=NC(=O)Cc4ccccc4)[n-]c32)cc1

>  <Energy>  (34) 
119.71122994147794

>  <Genealogy>  (34) 
NC(=[NH2+])c1ccc(C=C2CCc3sc(=NC(=O)Cc4ccccc4)[n-]c32)cc1 (protonated)
NC(=[NH2+])c1ccc(C=C2CCc3sc(=NC(=O)Cc4ccccc4)[n-]c32)cc1 (3D coordinates assigned)
NC(=[NH2+])c1ccc(C=C2CCc3sc(=NC(=O)Cc4ccccc4)[n-]c32)cc1 (nonaromatic ring conformer: 119.71122994147794 kcal/mol)

>  <smiles>  (34) 
N=C(N)c1ccc(C=C2CCc3sc(=NC(=O)Cc4ccccc4)[nH]c32)cc1

>  <score_type>  (34) 
oracle

>  <origin>  (34) 
adg

>  <m_score__min__energy>  (34) 
-10.17

>  <m_primary>  (34) 
energy

$$$$
34:0
     RDKit          3D

 34 36  0  0  0  0  0  0  0  0999 V2000
   54.8750   24.8850   45.9940 O   0  0  0  0  0  0  0  0  0  0  0  0
   55.5710   24.2420   45.1640 C   0  0  0  0  0  0  0  0  0  0  0  0
   55.2110   23.0260   44.7030 N   0  0  0  0  0  0  0  0  0  0  0  0
   56.1950   22.7300   43.8310 C   0  0  0  0  0  0  0  0  0  0  0  0
   56.2450   21.5460   43.1010 O   0  0  0  0  0  0  0  0  0  0  0  0
   57.1180   23.7500   43.7680 C   0  0  0  0  0  0  0  0  0  0  0  0
   56.7220   24.7100   44.6260 N   0  0  0  0  0  0  0  0  0  0  0  0
   57.3900   25.9610   44.8830 C   0  0  0  0  0  0  0  0  0  0  0  0
   57.3560   26.5450   46.1610 C   0  0  0  0  0  0  0  0  0  0  0  0
   58.0110   27.7550   46.4030 C   0  0  0  0  0  0  0  0  0  0  0  0
   58.7120   28.4040   45.3820 C   0  0  0  0  0  0  0  0  0  0  0  0
   59.3460   29.6210   45.6790 O   0  0  0  0  0  0  0  0  0  0  0  0
   58.8890   30.5740   46.6420 C   0  0  0  0  0  0  0  0  0  0  0  0
   58.7500   31.9470   46.0240 C   0  0  0  0  0  0  0  0  0  0  0  0
   59.5410   32.9990   46.5210 C   0  0  0  0  0  0  0  0  0  0  0  0
   59.4540   34.2780   45.9680 C   0  0  0  0  0  0  0  0  0  0  0  0
   58.5890   34.5210   44.9010 C   0  0  0  0  0  0  0  0  0  0  0  0
   57.8160   33.4820   44.3790 C   0  0  0  0  0  0  0  0  0  0  0  0
   57.8930   32.1950   44.9250 C   0  0  0  0  0  0  0  0  0  0  0  0
   56.8170   30.8260   44.1170 Br  0  0  0  0  0  0  0  0  0  0  0  0
   58.7590   27.8170   44.1030 C   0  0  0  0  0  0  0  0  0  0  0  0
   58.1040   26.6050   43.8590 C   0  0  0  0  0  0  0  0  0  0  0  0
   56.9950   20.8820   43.2430 H   0  0  0  0  0  0  0  0  0  0  0  0
   58.0155   23.7761   43.1326 H   0  0  0  0  0  0  0  0  0  0  0  0
   56.8103   26.0463   46.9756 H   0  0  0  0  0  0  0  0  0  0  0  0
   57.9749   28.2019   47.4075 H   0  0  0  0  0  0  0  0  0  0  0  0
   57.9105   30.2532   47.0288 H   0  0  0  0  0  0  0  0  0  0  0  0
   59.6266   30.6299   47.4562 H   0  0  0  0  0  0  0  0  0  0  0  0
   60.2350   32.8119   47.3537 H   0  0  0  0  0  0  0  0  0  0  0  0
   60.0683   35.0951   46.3742 H   0  0  0  0  0  0  0  0  0  0  0  0
   58.5159   35.5308   44.4710 H   0  0  0  0  0  0  0  0  0  0  0  0
   57.1413   33.6761   43.5322 H   0  0  0  0  0  0  0  0  0  0  0  0
   59.3129   28.3133   43.2925 H   0  0  0  0  0  0  0  0  0  0  0  0
   58.1485   26.1528   42.8572 H   0  0  0  0  0  0  0  0  0  0  0  0
  1  2  2  0
  2  3  1  0
  3  4  1  0
  4  5  1  0
  4  6  2  0
  6  7  1  0
  7  8  1  0
  8  9  2  0
  9 10  1  0
 10 11  2  0
 11 12  1  0
 12 13  1  0
 13 14  1  0
 14 15  2  0
 15 16  1  0
 16 17  2  0
 17 18  1  0
 18 19  2  0
 19 20  1  0
 11 21  1  0
 21 22  2  0
  7  2  1  0
 22  8  1  0
 19 14  1  0
  5 23  1  0
  6 24  1  0
  9 25  1  0
 10 26  1  0
 13 27  1  0
 13 28  1  0
 15 29  1  0
 16 30  1  0
 17 31  1  0
 18 32  1  0
 21 33  1  0
 22 34  1  0
M  CHG  1   3  -1
M  END
>  <UniqueID>  (35) 
33

>  <SMILES>  (35) 
O=c1[n-]c(O)cn1-c1ccc(OCc2ccccc2Br)cc1

>  <Energy>  (35) 
73.89631967664566

>  <Genealogy>  (35) 
O=c1[n-]c(O)cn1-c1ccc(OCc2ccccc2Br)cc1 (protonated)
O=c1[n-]c(O)cn1-c1ccc(OCc2ccccc2Br)cc1 (3D coordinates assigned)
O=c1[n-]c(O)cn1-c1ccc(OCc2ccccc2Br)cc1 (optimized conformer: 73.89631967664566 kcal/mol)

>  <smiles>  (35) 
O=c1[nH]c(O)cn1-c1ccc(OCc2ccccc2Br)cc1

>  <score_type>  (35) 
oracle

>  <origin>  (35) 
adg

>  <m_score__min__energy>  (35) 
-9.2599999999999998

>  <m_primary>  (35) 
energy

$$$$
35:0
     RDKit          3D

 60 63  0  0  0  0  0  0  0  0999 V2000
   67.6820   33.4240   50.5450 C   0  0  0  0  0  0  0  0  0  0  0  0
   66.3420   33.7610   50.2200 O   0  0  0  0  0  0  0  0  0  0  0  0
   65.3870   32.8070   49.8560 C   0  0  0  0  0  0  0  0  0  0  0  0
   65.6940   31.5820   49.8370 O   0  0  0  0  0  0  0  0  0  0  0  0
   64.0130   33.2360   49.5090 C   0  0  0  0  0  0  0  0  0  0  0  0
   63.0780   33.5380   50.5150 C   0  0  0  0  0  0  0  0  0  0  0  0
   61.7840   33.9500   50.1800 C   0  0  0  0  0  0  0  0  0  0  0  0
   61.3940   34.0480   48.8400 C   0  0  0  0  0  0  0  0  0  0  0  0
   60.0580   34.4770   48.5400 N   0  0  0  0  0  0  0  0  0  0  0  0
   59.5330   34.7640   47.2360 C   0  0  0  0  0  0  0  0  0  0  0  0
   59.8050   35.8620   46.6750 O   0  0  0  0  0  0  0  0  0  0  0  0
   58.7400   33.7810   46.5380 N   0  0  0  0  0  0  0  0  0  0  0  0
   58.1300   34.1580   45.2520 C   0  0  0  0  0  0  0  0  0  0  0  0
   57.3890   32.9910   44.6130 C   0  0  0  0  0  0  0  0  0  0  0  0
   58.1860   31.7740   44.8090 N   0  0  0  0  0  0  0  0  0  0  0  0
   57.8340   30.6860   43.8700 C   0  0  0  0  0  0  0  0  0  0  0  0
   58.1430   29.3070   44.3910 C   0  0  0  0  0  0  0  0  0  0  0  0
   59.4100   28.7650   44.5680 C   0  0  0  0  0  0  0  0  0  0  0  0
   59.3910   27.4530   45.0600 C   0  0  0  0  0  0  0  0  0  0  0  0
   58.1030   26.9470   45.2650 C   0  0  0  0  0  0  0  0  0  0  0  0
   57.7450   25.5890   45.7500 C   0  0  0  0  0  0  0  0  0  0  0  0
   57.3340   25.3990   47.0830 C   0  0  0  0  0  0  0  0  0  0  0  0
   56.9740   24.1290   47.5430 C   0  0  0  0  0  0  0  0  0  0  0  0
   57.0130   23.0350   46.6790 C   0  0  0  0  0  0  0  0  0  0  0  0
   57.4200   23.1990   45.3520 C   0  0  0  0  0  0  0  0  0  0  0  0
   57.4680   21.8030   44.2780 S   0  0  0  0  0  0  0  0  0  0  0  0
   57.4090   20.3530   45.2170 N   0  0  0  0  0  0  0  0  0  0  0  0
   58.7330   21.8160   43.4650 O   0  0  0  0  0  0  0  0  0  0  0  0
   56.2910   21.8520   43.3430 O   0  0  0  0  0  0  0  0  0  0  0  0
   57.7880   24.4730   44.8910 C   0  0  0  0  0  0  0  0  0  0  0  0
   57.0030   28.1530   44.8360 S   0  0  0  0  0  0  0  0  0  0  0  0
   58.1520   31.3440   46.2180 C   0  0  0  0  0  0  0  0  0  0  0  0
   58.3960   32.5100   47.2060 C   0  0  0  0  0  0  0  0  0  0  0  0
   62.3310   33.7720   47.8300 C   0  0  0  0  0  0  0  0  0  0  0  0
   63.6270   33.3650   48.1630 C   0  0  0  0  0  0  0  0  0  0  0  0
   67.7979   33.3949   51.6385 H   0  0  0  0  0  0  0  0  0  0  0  0
   67.9242   32.4370   50.1242 H   0  0  0  0  0  0  0  0  0  0  0  0
   68.3623   34.1790   50.1242 H   0  0  0  0  0  0  0  0  0  0  0  0
   63.3663   33.4496   51.5729 H   0  0  0  0  0  0  0  0  0  0  0  0
   61.0673   34.1989   50.9765 H   0  0  0  0  0  0  0  0  0  0  0  0
   57.4195   34.9802   45.4226 H   0  0  0  0  0  0  0  0  0  0  0  0
   58.9355   34.4662   44.5692 H   0  0  0  0  0  0  0  0  0  0  0  0
   56.4043   32.8710   45.0884 H   0  0  0  0  0  0  0  0  0  0  0  0
   57.2426   33.1784   43.5390 H   0  0  0  0  0  0  0  0  0  0  0  0
   56.7555   30.7439   43.6613 H   0  0  0  0  0  0  0  0  0  0  0  0
   58.4468   30.8316   42.9682 H   0  0  0  0  0  0  0  0  0  0  0  0
   60.3375   29.3123   44.3438 H   0  0  0  0  0  0  0  0  0  0  0  0
   60.3039   26.8748   45.2658 H   0  0  0  0  0  0  0  0  0  0  0  0
   57.2958   26.2580   47.7690 H   0  0  0  0  0  0  0  0  0  0  0  0
   56.6594   23.9923   48.5882 H   0  0  0  0  0  0  0  0  0  0  0  0
   56.7222   22.0387   47.0435 H   0  0  0  0  0  0  0  0  0  0  0  0
   58.3860   20.1510   45.5320 H   0  0  0  0  0  0  0  0  0  0  0  0
   57.1370   19.5790   44.5680 H   0  0  0  0  0  0  0  0  0  0  0  0
   58.1134   24.6013   43.8481 H   0  0  0  0  0  0  0  0  0  0  0  0
   57.1652   30.9057   46.4282 H   0  0  0  0  0  0  0  0  0  0  0  0
   58.9615   30.6131   46.3612 H   0  0  0  0  0  0  0  0  0  0  0  0
   57.4814   32.6632   47.7976 H   0  0  0  0  0  0  0  0  0  0  0  0
   59.2546   32.2299   47.8339 H   0  0  0  0  0  0  0  0  0  0  0  0
   62.0441   33.8764   46.7732 H   0  0  0  0  0  0  0  0  0  0  0  0
   64.3508   33.1438   47.3648 H   0  0  0  0  0  0  0  0  0  0  0  0
  1  2  1  0
  2  3  1  0
  3  4  2  0
  3  5  1  0
  5  6  2  0
  6  7  1  0
  7  8  2  0
  8  9  1  0
  9 10  1  0
 10 11  2  0
 10 12  1  0
 12 13  1  0
 13 14  1  0
 14 15  1  0
 15 16  1  0
 16 17  1  0
 17 18  2  0
 18 19  1  0
 19 20  2  0
 20 21  1  0
 21 22  2  0
 22 23  1  0
 23 24  2  0
 24 25  1  0
 25 26  1  0
 26 27  1  0
 26 28  2  0
 26 29  2  0
 25 30  2  0
 20 31  1  0
 15 32  1  0
 32 33  1  0
  8 34  1  0
 34 35  2  0
 35  5  1  0
 33 12  1  0
 31 17  1  0
 30 21  1  0
  1 36  1  0
  1 37  1  0
  1 38  1  0
  6 39  1  0
  7 40  1  0
 13 41  1  0
 13 42  1  0
 14 43  1  0
 14 44  1  0
 16 45  1  0
 16 46  1  0
 18 47  1  0
 19 48  1  0
 22 49  1  0
 23 50  1  0
 24 51  1  0
 27 52  1  0
 27 53  1  0
 30 54  1  0
 32 55  1  0
 32 56  1  0
 33 57  1  0
 33 58  1  0
 34 59  1  0
 35 60  1  0
M  CHG  1   9  -1
M  END
>  <UniqueID>  (36) 
34

>  <SMILES>  (36) 
COC(=O)c1ccc([N-]C(=O)N2CCN(Cc3ccc(-c4cccc(S(N)(=O)=O)c4)s3)CC2)cc1

>  <Energy>  (36) 
99.3475932606919

>  <Genealogy>  (36) 
COC(=O)c1ccc([N-]C(=O)N2CCN(Cc3ccc(-c4cccc(S(N)(=O)=O)c4)s3)CC2)cc1 (protonated)
COC(=O)c1ccc([N-]C(=O)N2CCN(Cc3ccc(-c4cccc(S(N)(=O)=O)c4)s3)CC2)cc1 (3D coordinates assigned)
COC(=O)c1ccc([N-]C(=O)N2CCN(Cc3ccc(-c4cccc(S(N)(=O)=O)c4)s3)CC2)cc1 (nonaromatic ring conformer: 99.3475932606919 kcal/mol)

>  <smiles>  (36) 
COC(=O)c1ccc(NC(=O)N2CCN(Cc3ccc(-c4cccc(S(N)(=O)=O)c4)s3)CC2)cc1

>  <score_type>  (36) 
oracle

>  <origin>  (36) 
adg

>  <m_score__min__energy>  (36) 
-12.25

>  <m_primary>  (36) 
energy

$$$$
36:0
     RDKit          3D

 36 38  0  0  1  0  0  0  0  0999 V2000
   63.1730   30.8540   50.1220 O   0  0  0  0  0  0  0  0  0  0  0  0
   62.3180   31.3230   49.3250 C   0  0  0  0  0  0  0  0  0  0  0  0
   61.1030   30.7600   49.2100 N   0  0  0  0  0  0  0  0  0  0  0  0
   60.1580   31.2220   48.3800 C   0  0  0  0  0  0  0  0  0  0  0  0
   60.3720   32.3260   47.5720 C   0  0  0  0  0  0  0  0  0  0  0  0
   59.3590   32.8420   46.6640 C   0  0  0  0  0  0  0  0  0  0  0  0
   58.4810   31.9710   46.1290 N   0  0  0  0  0  0  0  0  0  0  0  0
   57.5110   32.3590   45.2820 C   0  0  0  0  0  0  0  0  0  0  0  0
   56.7090   31.4750   44.8100 N   0  0  0  0  0  0  0  0  0  0  0  0
   57.1490   30.5590   43.7610 C   0  0  0  0  0  0  0  0  0  0  0  0
   57.4880   29.2220   44.3690 C   0  0  0  0  0  0  0  0  0  0  0  0
   58.7360   28.6530   44.2140 C   0  0  0  0  0  0  0  0  0  0  0  0
   58.9610   27.4270   44.8050 C   0  0  0  0  0  0  0  0  0  0  0  0
   57.9810   26.7680   45.5350 C   0  0  0  0  0  0  0  0  0  0  0  0
   56.7340   27.3350   45.6910 C   0  0  0  0  0  0  0  0  0  0  0  0
   56.5010   28.5620   45.1040 C   0  0  0  0  0  0  0  0  0  0  0  0
   55.2640   29.1820   45.2260 O   0  0  0  0  0  0  0  0  0  0  0  0
   57.4030   33.6900   44.9400 C   0  0  0  0  0  0  0  0  0  0  0  0
   58.2940   34.5950   45.4770 C   0  0  0  0  0  0  0  0  0  0  0  0
   59.2460   34.1180   46.3290 N   0  0  0  0  0  0  0  0  0  0  0  0
   61.6110   32.9220   47.6720 C   0  0  0  0  0  0  0  0  0  0  0  0
   62.5710   32.4340   48.5330 C   0  0  0  0  0  0  0  0  0  0  0  0
   64.1590   33.2030   48.6570 Cl  0  0  0  0  0  0  0  0  0  0  0  0
   60.9290   29.9150   49.8240 H   0  0  0  0  0  0  0  0  0  0  0  0
   59.1852   30.7101   48.3393 H   0  0  0  0  0  0  0  0  0  0  0  0
   56.3428   30.4323   43.0234 H   0  0  0  0  0  0  0  0  0  0  0  0
   58.0396   30.9717   43.2646 H   0  0  0  0  0  0  0  0  0  0  0  0
   59.5246   29.1601   43.6386 H   0  0  0  0  0  0  0  0  0  0  0  0
   59.9490   26.9562   44.6943 H   0  0  0  0  0  0  0  0  0  0  0  0
   58.2001   25.7908   45.9901 H   0  0  0  0  0  0  0  0  0  0  0  0
   55.9479   26.8243   46.2665 H   0  0  0  0  0  0  0  0  0  0  0  0
   55.1740   30.1120   45.6260 H   0  0  0  0  0  0  0  0  0  0  0  0
   56.6166   34.0256   44.2480 H   0  0  0  0  0  0  0  0  0  0  0  0
   58.2388   35.6647   45.2268 H   0  0  0  0  0  0  0  0  0  0  0  0
   59.8950   34.8270   46.7100 H   0  0  0  0  0  0  0  0  0  0  0  0
   61.8379   33.8030   47.0536 H   0  0  0  0  0  0  0  0  0  0  0  0
  1  2  2  0
  2  3  1  0
  3  4  1  0
  4  5  2  0
  5  6  1  0
  6  7  2  0
  7  8  1  0
  8  9  2  0
  9 10  1  0
 10 11  1  0
 11 12  2  0
 12 13  1  0
 13 14  2  0
 14 15  1  0
 15 16  2  0
 16 17  1  0
  8 18  1  0
 18 19  2  0
 19 20  1  0
  5 21  1  0
 21 22  2  0
 22 23  1  0
 22  2  1  0
 20  6  1  0
 16 11  1  0
  3 24  1  0
  4 25  1  0
 10 26  1  0
 10 27  1  0
 12 28  1  0
 13 29  1  0
 14 30  1  0
 15 31  1  0
 17 32  1  0
 18 33  1  0
 19 34  1  0
 20 35  1  0
 21 36  1  0
M  END
>  <smiles>  (37) 
O=c1[nH]cc(-c2nc(=NCc3ccccc3O)cc[nH]2)cc1Cl

>  <score_type>  (37) 
oracle

>  <origin>  (37) 
adg

>  <m_score__min__energy>  (37) 
-8.9600000000000009

>  <m_primary>  (37) 
energy

$$$$
37:0
     RDKit          3D

 61 65  0  0  0  0  0  0  0  0999 V2000
   56.0980   28.6320   44.2740 H   0  0  0  0  0  0  0  0  0  0  0  0
   55.9390   28.3860   45.2450 O   0  0  0  0  0  0  0  0  0  0  0  0
   56.0470   27.0610   45.6610 C   0  0  0  0  0  0  0  0  0  0  0  0
   54.9940   26.2700   45.9230 N   0  0  0  0  0  0  0  0  0  0  0  0
   55.5800   25.1110   46.2910 C   0  0  0  0  0  0  0  0  0  0  0  0
   54.9200   24.0920   46.6230 O   0  0  0  0  0  0  0  0  0  0  0  0
   56.9310   25.1300   46.2750 N   0  0  0  0  0  0  0  0  0  0  0  0
   57.2220   26.3760   45.8570 C   0  0  0  0  0  0  0  0  0  0  0  0
   58.5800   26.9430   45.7230 C   0  0  0  0  0  0  0  0  0  0  0  0
   59.2713   26.4386   45.0319 H   0  0  0  0  0  0  0  0  0  0  0  0
   59.0400   28.0230   46.3750 C   0  0  0  0  0  0  0  0  0  0  0  0
   60.3620   28.4320   46.5120 C   0  0  0  0  0  0  0  0  0  0  0  0
   61.2536   27.9281   46.1105 H   0  0  0  0  0  0  0  0  0  0  0  0
   60.3320   29.5990   47.2540 C   0  0  0  0  0  0  0  0  0  0  0  0
   61.5380   30.4000   47.6730 C   0  0  0  0  0  0  0  0  0  0  0  0
   62.4355   29.9427   47.2309 H   0  0  0  0  0  0  0  0  0  0  0  0
   61.3918   31.4314   47.3196 H   0  0  0  0  0  0  0  0  0  0  0  0
   61.7110   30.4510   49.1820 C   0  0  0  0  0  0  0  0  0  0  0  0
   60.9200   29.6070   49.9880 C   0  0  0  0  0  0  0  0  0  0  0  0
   60.1650   28.9595   49.5182 H   0  0  0  0  0  0  0  0  0  0  0  0
   61.0820   29.5820   51.3740 C   0  0  0  0  0  0  0  0  0  0  0  0
   60.4610   28.9131   51.9880 H   0  0  0  0  0  0  0  0  0  0  0  0
   62.0290   30.4030   51.9800 C   0  0  0  0  0  0  0  0  0  0  0  0
   62.1764   30.3616   53.0693 H   0  0  0  0  0  0  0  0  0  0  0  0
   62.7900   31.2770   51.2070 C   0  0  0  0  0  0  0  0  0  0  0  0
   63.5407   31.9175   51.6930 H   0  0  0  0  0  0  0  0  0  0  0  0
   62.6120   31.3520   49.8140 C   0  0  0  0  0  0  0  0  0  0  0  0
   63.5570   32.5490   48.9050 S   0  0  0  0  0  0  0  0  0  0  0  0
   64.0810   31.9300   47.6360 O   0  0  0  0  0  0  0  0  0  0  0  0
   64.7150   32.9710   49.7680 O   0  0  0  0  0  0  0  0  0  0  0  0
   62.5790   33.9450   48.4880 N   0  0  0  0  0  0  0  0  0  0  0  0
   61.2180   33.8140   49.0670 C   0  0  0  0  0  0  0  0  0  0  0  0
   60.9045   32.7612   49.0084 H   0  0  0  0  0  0  0  0  0  0  0  0
   61.2536   34.1546   50.1123 H   0  0  0  0  0  0  0  0  0  0  0  0
   60.2010   34.6790   48.3140 C   0  0  0  0  0  0  0  0  0  0  0  0
   59.2311   34.6282   48.8305 H   0  0  0  0  0  0  0  0  0  0  0  0
   60.5673   35.7160   48.2908 H   0  0  0  0  0  0  0  0  0  0  0  0
   60.0270   34.1750   46.8460 C   0  0  0  0  0  0  0  0  0  0  0  0
   58.9960   33.1240   46.7520 N   0  0  0  0  0  0  0  0  0  0  0  0
   58.3010   33.2090   47.5300 H   0  0  0  0  0  0  0  0  0  0  0  0
   58.2750   33.3310   45.4900 C   0  0  0  0  0  0  0  0  0  0  0  0
   57.1940   33.3848   45.6863 H   0  0  0  0  0  0  0  0  0  0  0  0
   58.4736   32.4941   44.8043 H   0  0  0  0  0  0  0  0  0  0  0  0
   58.7470   34.6360   44.8640 C   0  0  0  0  0  0  0  0  0  0  0  0
   57.8883   35.2550   44.5649 H   0  0  0  0  0  0  0  0  0  0  0  0
   59.3437   34.4683   43.9553 H   0  0  0  0  0  0  0  0  0  0  0  0
   59.5430   35.3200   45.9500 C   0  0  0  0  0  0  0  0  0  0  0  0
   58.9086   36.0169   46.5174 H   0  0  0  0  0  0  0  0  0  0  0  0
   60.3741   35.9177   45.5476 H   0  0  0  0  0  0  0  0  0  0  0  0
   61.3680   33.5800   46.3140 C   0  0  0  0  0  0  0  0  0  0  0  0
   61.3662   32.4930   46.4825 H   0  0  0  0  0  0  0  0  0  0  0  0
   61.4436   33.8155   45.2422 H   0  0  0  0  0  0  0  0  0  0  0  0
   62.5870   34.1900   47.0220 C   0  0  0  0  0  0  0  0  0  0  0  0
   63.4996   33.7477   46.5960 H   0  0  0  0  0  0  0  0  0  0  0  0
   62.5524   35.2784   46.8661 H   0  0  0  0  0  0  0  0  0  0  0  0
   58.9980   29.8530   47.5400 C   0  0  0  0  0  0  0  0  0  0  0  0
   58.5210   30.8770   48.2490 C   0  0  0  0  0  0  0  0  0  0  0  0
   59.2106   31.6248   48.6676 H   0  0  0  0  0  0  0  0  0  0  0  0
   57.4379   30.9738   48.4151 H   0  0  0  0  0  0  0  0  0  0  0  0
   58.2190   28.8970   46.9950 N   0  0  0  0  0  0  0  0  0  0  0  0
   57.1770   28.8390   47.0530 H   0  0  0  0  0  0  0  0  0  0  0  0
  1  2  1  0
  2  3  1  0
  3  4  1  0
  4  5  1  0
  5  6  2  0
  5  7  1  0
  7  8  1  0
  8  9  1  0
  9 10  1  0
  9 11  2  0
 11 12  1  0
 12 13  1  0
 12 14  2  0
 14 15  1  0
 15 16  1  0
 15 17  1  0
 15 18  1  0
 18 19  2  0
 19 20  1  0
 19 21  1  0
 21 22  1  0
 21 23  2  0
 23 24  1  0
 23 25  1  0
 25 26  1  0
 25 27  2  0
 27 28  1  0
 28 29  2  0
 28 30  2  0
 28 31  1  0
 31 32  1  0
 32 33  1  0
 32 34  1  0
 32 35  1  0
 35 36  1  0
 35 37  1  0
 35 38  1  0
 38 39  1  0
 39 40  1  0
 39 41  1  0
 41 42  1  0
 41 43  1  0
 41 44  1  0
 44 45  1  0
 44 46  1  0
 44 47  1  0
 47 48  1  0
 47 49  1  0
 38 50  1  0
 50 51  1  0
 50 52  1  0
 50 53  1  0
 53 54  1  0
 53 55  1  0
 14 56  1  0
 56 57  2  0
 57 58  1  0
 57 59  1  0
 56 60  1  0
 60 61  1  0
  8  3  2  0
 60 11  1  0
 27 18  1  0
 53 31  1  0
 47 38  1  0
M  CHG  2   4  -1   7  -1
M  END
>  <UniqueID>  (38) 
35

>  <SMILES>  (38) 
C=c1[nH]/c(=C/c2[n-]c(=O)[n-]c2O)cc1Cc1ccccc1S(=O)(=O)N1CCC2(CCCN2)CC1

>  <Energy>  (38) 
137.6709207879651

>  <Genealogy>  (38) 
C=c1[nH]c(=Cc2[n-]c(=O)[n-]c2O)cc1Cc1ccccc1S(=O)(=O)N1CCC2(CCCN2)CC1 (protonated)
C=c1[nH]/c(=C/c2[n-]c(=O)[n-]c2O)cc1Cc1ccccc1S(=O)(=O)N1CCC2(CCCN2)CC1 (cis-trans isomerization)
C=c1[nH]/c(=C/c2[n-]c(=O)[n-]c2O)cc1Cc1ccccc1S(=O)(=O)N1CCC2(CCCN2)CC1 (3D coordinates assigned)
C=c1[nH]/c(=C/c2[n-]c(=O)[n-]c2O)cc1Cc1ccccc1S(=O)(=O)N1CCC2(CCCN2)CC1 (nonaromatic ring conformer: 137.6709207879651 kcal/mol)

>  <smiles>  (38) 
C=c1[nH]c(=Cc2[nH]c(=O)[nH]c2O)cc1Cc1ccccc1S(=O)(=O)N1CCC2(CCCN2)CC1

>  <score_type>  (38) 
oracle

>  <origin>  (38) 
adg

>  <m_score__min__energy>  (38) 
-15.68

>  <m_primary>  (38) 
energy

$$$$
38:0
     RDKit          3D

 50 52  0  0  0  0  0  0  0  0999 V2000
   56.4016   30.3365   43.2959 H   0  0  0  0  0  0  0  0  0  0  0  0
   56.8400   29.4040   43.6810 C   0  0  0  0  0  0  0  0  0  0  0  0
   56.7813   28.4814   43.0849 H   0  0  0  0  0  0  0  0  0  0  0  0
   57.4480   29.3920   44.8810 C   0  0  0  0  0  0  0  0  0  0  0  0
   58.0470   28.2830   45.4930 C   0  0  0  0  0  0  0  0  0  0  0  0
   58.0030   26.9700   45.1880 C   0  0  0  0  0  0  0  0  0  0  0  0
   58.4841   26.6580   44.2493 H   0  0  0  0  0  0  0  0  0  0  0  0
   57.3700   25.9180   45.9970 C   0  0  0  0  0  0  0  0  0  0  0  0
   58.0590   24.9540   46.6330 N   0  0  0  0  0  0  0  0  0  0  0  0
   57.1080   24.3040   47.3390 C   0  0  0  0  0  0  0  0  0  0  0  0
   57.3640   23.3080   48.0630 O   0  0  0  0  0  0  0  0  0  0  0  0
   55.8630   24.8130   47.2160 N   0  0  0  0  0  0  0  0  0  0  0  0
   56.0480   25.8430   46.3760 C   0  0  0  0  0  0  0  0  0  0  0  0
   55.0370   26.7120   45.9860 O   0  0  0  0  0  0  0  0  0  0  0  0
   58.7560   28.7730   46.5690 C   0  0  0  0  0  0  0  0  0  0  0  0
   59.3927   28.1886   47.2495 H   0  0  0  0  0  0  0  0  0  0  0  0
   58.5200   30.1340   46.6360 C   0  0  0  0  0  0  0  0  0  0  0  0
   59.1050   31.0220   47.6830 C   0  0  0  0  0  0  0  0  0  0  0  0
   58.5170   31.1450   48.7910 O   0  0  0  0  0  0  0  0  0  0  0  0
   60.3360   31.7550   47.4280 N   0  0  0  0  0  0  0  0  0  0  0  0
   60.2910   32.1490   46.4610 H   0  0  0  0  0  0  0  0  0  0  0  0
   60.4710   32.8650   48.3950 C   0  0  0  0  0  0  0  0  0  0  0  0
   59.7300   33.6412   48.1534 H   0  0  0  0  0  0  0  0  0  0  0  0
   60.3037   32.4638   49.4055 H   0  0  0  0  0  0  0  0  0  0  0  0
   61.8820   33.4880   48.3500 C   0  0  0  0  0  0  0  0  0  0  0  0
   61.7916   34.5842   48.3662 H   0  0  0  0  0  0  0  0  0  0  0  0
   62.4485   33.1342   49.2240 H   0  0  0  0  0  0  0  0  0  0  0  0
   62.5720   33.0990   47.1800 O   0  0  0  0  0  0  0  0  0  0  0  0
   62.8140   31.7030   47.2060 C   0  0  0  0  0  0  0  0  0  0  0  0
   63.2230   31.3973   46.2317 H   0  0  0  0  0  0  0  0  0  0  0  0
   63.5229   31.5011   48.0225 H   0  0  0  0  0  0  0  0  0  0  0  0
   61.5300   30.8860   47.4840 C   0  0  0  0  0  0  0  0  0  0  0  0
   61.4355   30.0932   46.7274 H   0  0  0  0  0  0  0  0  0  0  0  0
   61.6010   30.4467   48.4900 H   0  0  0  0  0  0  0  0  0  0  0  0
   57.7050   30.5150   45.6120 N   0  0  0  0  0  0  0  0  0  0  0  0
   57.3210   31.8910   45.2430 C   0  0  0  0  0  0  0  0  0  0  0  0
   56.5939   31.8524   44.4185 H   0  0  0  0  0  0  0  0  0  0  0  0
   56.8797   32.3794   46.1244 H   0  0  0  0  0  0  0  0  0  0  0  0
   58.5430   32.7030   44.7960 C   0  0  0  0  0  0  0  0  0  0  0  0
   59.3887   32.0203   44.6267 H   0  0  0  0  0  0  0  0  0  0  0  0
   58.2940   33.2371   43.8672 H   0  0  0  0  0  0  0  0  0  0  0  0
   58.9160   33.6920   45.8300 N   0  0  0  0  0  0  0  0  0  0  0  0
   59.3090   34.9700   45.2120 C   0  0  0  0  0  0  0  0  0  0  0  0
   59.5347   35.7040   45.9996 H   0  0  0  0  0  0  0  0  0  0  0  0
   60.2014   34.8162   44.5875 H   0  0  0  0  0  0  0  0  0  0  0  0
   58.4844   35.3442   44.5875 H   0  0  0  0  0  0  0  0  0  0  0  0
   57.8060   33.9170   46.7710 C   0  0  0  0  0  0  0  0  0  0  0  0
   58.1791   33.8414   47.8030 H   0  0  0  0  0  0  0  0  0  0  0  0
   57.3832   34.9191   46.6065 H   0  0  0  0  0  0  0  0  0  0  0  0
   57.0264   33.1586   46.6065 H   0  0  0  0  0  0  0  0  0  0  0  0
  1  2  1  0
  2  3  1  0
  2  4  2  0
  4  5  1  0
  5  6  2  0
  6  7  1  0
  6  8  1  0
  8  9  1  0
  9 10  1  0
 10 11  2  0
 10 12  1  0
 12 13  1  0
 13 14  1  0
  5 15  1  0
 15 16  1  0
 15 17  2  0
 17 18  1  0
 18 19  2  0
 18 20  1  0
 20 21  1  0
 20 22  1  0
 22 23  1  0
 22 24  1  0
 22 25  1  0
 25 26  1  0
 25 27  1  0
 25 28  1  0
 28 29  1  0
 29 30  1  0
 29 31  1  0
 29 32  1  0
 32 33  1  0
 32 34  1  0
 17 35  1  0
 35 36  1  0
 36 37  1  0
 36 38  1  0
 36 39  1  0
 39 40  1  0
 39 41  1  0
 39 42  1  0
 42 43  1  0
 43 44  1  0
 43 45  1  0
 43 46  1  0
 42 47  1  0
 47 48  1  0
 47 49  1  0
 47 50  1  0
 35  4  1  0
 13  8  2  0
 32 20  1  0
M  CHG  4   9  -1  12  -1  14  -1  20   1
M  END
>  <UniqueID>  (39) 
36

>  <SMILES>  (39) 
C=c1/c(=C\c2[n-]c(=O)[n-]c2[O-])cc(C(=O)[NH+]2CCOCC2)n1CCN(C)C

>  <Energy>  (39) 
134.38485142284276

>  <Genealogy>  (39) 
C=c1c(=Cc2[n-]c(=O)[n-]c2[O-])cc(C(=O)[NH+]2CCOCC2)n1CCN(C)C (protonated)
C=c1/c(=C\c2[n-]c(=O)[n-]c2[O-])cc(C(=O)[NH+]2CCOCC2)n1CCN(C)C (cis-trans isomerization)
C=c1/c(=C\c2[n-]c(=O)[n-]c2[O-])cc(C(=O)[NH+]2CCOCC2)n1CCN(C)C (3D coordinates assigned)
C=c1/c(=C\c2[n-]c(=O)[n-]c2[O-])cc(C(=O)[NH+]2CCOCC2)n1CCN(C)C (nonaromatic ring conformer: 134.38485142284276 kcal/mol)

>  <smiles>  (39) 
C=c1c(=Cc2[nH]c(=O)[nH]c2O)cc(C(=O)N2CCOCC2)n1CCN(C)C

>  <score_type>  (39) 
oracle

>  <origin>  (39) 
adg

>  <m_score__min__energy>  (39) 
-14.82

>  <m_primary>  (39) 
energy

$$$$
39:0
     RDKit          3D

 55 57  0  0  0  0  0  0  0  0999 V2000
   58.1150   32.3480   41.8910 C   0  0  0  0  0  0  0  0  0  0  0  0
   58.4150   31.8170   43.1790 O   0  0  0  0  0  0  0  0  0  0  0  0
   57.7300   30.7460   43.7760 C   0  0  0  0  0  0  0  0  0  0  0  0
   56.3500   30.5400   43.5790 C   0  0  0  0  0  0  0  0  0  0  0  0
   55.7020   29.4610   44.1810 C   0  0  0  0  0  0  0  0  0  0  0  0
   56.4160   28.5800   45.0070 C   0  0  0  0  0  0  0  0  0  0  0  0
   55.7840   27.4460   45.6200 N   0  0  0  0  0  0  0  0  0  0  0  0
   56.4040   26.1860   45.8990 C   0  0  0  0  0  0  0  0  0  0  0  0
   55.8970   25.3930   46.7420 O   0  0  0  0  0  0  0  0  0  0  0  0
   57.7230   25.8730   45.2600 C   0  0  0  0  0  0  0  0  0  0  0  0
   58.7710   25.6640   46.2550 N   0  0  0  0  0  0  0  0  0  0  0  0
   59.3850   26.6720   47.0710 C   0  0  0  0  0  0  0  0  0  0  0  0
   60.6430   26.6940   47.1470 O   0  0  0  0  0  0  0  0  0  0  0  0
   58.5900   27.6980   47.8370 C   0  0  0  0  0  0  0  0  0  0  0  0
   59.4650   28.7660   48.3220 N   0  0  0  0  0  0  0  0  0  0  0  0
   58.9900   29.8240   49.1770 C   0  0  0  0  0  0  0  0  0  0  0  0
   58.1780   29.5130   50.2250 N   0  0  0  0  0  0  0  0  0  0  0  0
   57.7030   30.4600   51.0700 C   0  0  0  0  0  0  0  0  0  0  0  0
   56.9580   30.1310   52.0290 O   0  0  0  0  0  0  0  0  0  0  0  0
   58.0290   31.7620   50.8830 N   0  0  0  0  0  0  0  0  0  0  0  0
   58.8300   32.1450   49.8570 C   0  0  0  0  0  0  0  0  0  0  0  0
   59.1020   33.3680   49.7190 O   0  0  0  0  0  0  0  0  0  0  0  0
   59.3450   31.1810   48.9610 C   0  0  0  0  0  0  0  0  0  0  0  0
   60.2300   31.6090   47.8050 C   0  0  0  0  0  0  0  0  0  0  0  0
   59.5140   32.5550   46.8690 C   0  0  0  0  0  0  0  0  0  0  0  0
   60.2260   33.5790   46.2190 C   0  0  0  0  0  0  0  0  0  0  0  0
   59.5620   34.4790   45.3780 C   0  0  0  0  0  0  0  0  0  0  0  0
   58.1820   34.3770   45.1910 C   0  0  0  0  0  0  0  0  0  0  0  0
   57.4600   33.3800   45.8530 C   0  0  0  0  0  0  0  0  0  0  0  0
   58.1190   32.4770   46.6940 C   0  0  0  0  0  0  0  0  0  0  0  0
   57.7900   28.7710   45.1920 C   0  0  0  0  0  0  0  0  0  0  0  0
   58.4540   29.8580   44.5880 C   0  0  0  0  0  0  0  0  0  0  0  0
   59.8300   30.0870   44.7730 O   0  0  0  0  0  0  0  0  0  0  0  0
   60.7550   29.1160   45.2540 C   0  0  0  0  0  0  0  0  0  0  0  0
   57.5768   33.3007   42.0034 H   0  0  0  0  0  0  0  0  0  0  0  0
   59.0503   32.5184   41.3377 H   0  0  0  0  0  0  0  0  0  0  0  0
   57.4864   31.6348   41.3377 H   0  0  0  0  0  0  0  0  0  0  0  0
   55.7793   31.2352   42.9458 H   0  0  0  0  0  0  0  0  0  0  0  0
   54.6277   29.3005   44.0074 H   0  0  0  0  0  0  0  0  0  0  0  0
   57.6183   24.9597   44.6558 H   0  0  0  0  0  0  0  0  0  0  0  0
   58.0118   26.7300   44.6338 H   0  0  0  0  0  0  0  0  0  0  0  0
   57.8239   28.1296   47.1761 H   0  0  0  0  0  0  0  0  0  0  0  0
   58.1142   27.2083   48.6995 H   0  0  0  0  0  0  0  0  0  0  0  0
   60.4580   28.7480   47.9990 H   0  0  0  0  0  0  0  0  0  0  0  0
   61.1214   32.1129   48.2069 H   0  0  0  0  0  0  0  0  0  0  0  0
   60.5066   30.7095   47.2355 H   0  0  0  0  0  0  0  0  0  0  0  0
   61.3112   33.6730   46.3726 H   0  0  0  0  0  0  0  0  0  0  0  0
   60.1286   35.2688   44.8629 H   0  0  0  0  0  0  0  0  0  0  0  0
   57.6635   35.0807   44.5232 H   0  0  0  0  0  0  0  0  0  0  0  0
   56.3716   33.3053   45.7124 H   0  0  0  0  0  0  0  0  0  0  0  0
   57.5442   31.7016   47.2216 H   0  0  0  0  0  0  0  0  0  0  0  0
   58.3581   28.0651   45.8156 H   0  0  0  0  0  0  0  0  0  0  0  0
   60.7516   29.1196   46.3540 H   0  0  0  0  0  0  0  0  0  0  0  0
   60.4635   28.1198   44.8897 H   0  0  0  0  0  0  0  0  0  0  0  0
   61.7641   29.3588   44.8897 H   0  0  0  0  0  0  0  0  0  0  0  0
  1  2  1  0
  2  3  1  0
  3  4  2  0
  4  5  1  0
  5  6  2  0
  6  7  1  0
  7  8  1  0
  8  9  2  0
  8 10  1  0
 10 11  1  0
 11 12  1  0
 12 13  2  0
 12 14  1  0
 14 15  1  0
 15 16  1  0
 16 17  1  0
 17 18  1  0
 18 19  2  0
 18 20  1  0
 20 21  1  0
 21 22  2  0
 21 23  1  0
 23 24  1  0
 24 25  1  0
 25 26  2  0
 26 27  1  0
 27 28  2  0
 28 29  1  0
 29 30  2  0
  6 31  1  0
 31 32  2  0
 32 33  1  0
 33 34  1  0
 32  3  1  0
 23 16  2  0
 30 25  1  0
  1 35  1  0
  1 36  1  0
  1 37  1  0
  4 38  1  0
  5 39  1  0
 10 40  1  0
 10 41  1  0
 14 42  1  0
 14 43  1  0
 15 44  1  0
 24 45  1  0
 24 46  1  0
 26 47  1  0
 27 48  1  0
 28 49  1  0
 29 50  1  0
 30 51  1  0
 31 52  1  0
 34 53  1  0
 34 54  1  0
 34 55  1  0
M  CHG  4   7  -1  11  -1  17  -1  20  -1
M  END
>  <UniqueID>  (40) 
37

>  <SMILES>  (40) 
COc1ccc([N-]C(=O)C[N-]C(=O)CNc2[n-]c(=O)[n-]c(=O)c2Cc2ccccc2)cc1OC

>  <Energy>  (40) 
58.043296210333786

>  <Genealogy>  (40) 
COc1ccc([N-]C(=O)C[N-]C(=O)CNc2[n-]c(=O)[n-]c(=O)c2Cc2ccccc2)cc1OC (protonated)
COc1ccc([N-]C(=O)C[N-]C(=O)CNc2[n-]c(=O)[n-]c(=O)c2Cc2ccccc2)cc1OC (3D coordinates assigned)
COc1ccc([N-]C(=O)C[N-]C(=O)CNc2[n-]c(=O)[n-]c(=O)c2Cc2ccccc2)cc1OC (optimized conformer: 58.043296210333786 kcal/mol)

>  <smiles>  (40) 
COc1ccc(NC(=O)CNC(=O)CNc2[nH]c(=O)[nH]c(=O)c2Cc2ccccc2)cc1OC

>  <score_type>  (40) 
oracle

>  <origin>  (40) 
adg

>  <m_score__min__energy>  (40) 
-14.640000000000001

>  <m_primary>  (40) 
energy

$$$$
40:0
     RDKit          3D

 44 46  0  0  0  0  0  0  0  0999 V2000
   57.1740   34.1390   44.8720 C   0  0  0  0  0  0  0  0  0  0  0  0
   58.1630   33.6660   45.9020 C   0  0  0  0  0  0  0  0  0  0  0  0
   58.6230   34.5880   46.8610 C   0  0  0  0  0  0  0  0  0  0  0  0
   59.5370   34.2010   47.8420 C   0  0  0  0  0  0  0  0  0  0  0  0
   60.0030   32.8890   47.8820 C   0  0  0  0  0  0  0  0  0  0  0  0
   59.5520   31.9570   46.9470 C   0  0  0  0  0  0  0  0  0  0  0  0
   58.6240   32.3230   45.9580 C   0  0  0  0  0  0  0  0  0  0  0  0
   58.1380   31.0700   44.7980 S   0  0  0  0  0  0  0  0  0  0  0  0
   58.0600   31.6030   43.3950 O   0  0  0  0  0  0  0  0  0  0  0  0
   56.7750   30.5600   45.1760 O   0  0  0  0  0  0  0  0  0  0  0  0
   59.2920   29.7090   44.8590 C   0  0  0  0  0  0  0  0  0  0  0  0
   58.5700   28.4060   44.7670 C   0  0  0  0  0  0  0  0  0  0  0  0
   58.6800   27.4930   43.7350 C   0  0  0  0  0  0  0  0  0  0  0  0
   57.8090   26.4700   44.0460 C   0  0  0  0  0  0  0  0  0  0  0  0
   57.2250   26.8290   45.2470 C   0  0  0  0  0  0  0  0  0  0  0  0
   56.2180   26.0550   45.9810 C   0  0  0  0  0  0  0  0  0  0  0  0
   55.0500   26.5110   46.1010 O   0  0  0  0  0  0  0  0  0  0  0  0
   56.5650   24.7880   46.5520 N   0  0  0  0  0  0  0  0  0  0  0  0
   57.7730   24.0490   46.2020 C   0  0  0  0  0  0  0  0  0  0  0  0
   57.4990   23.1150   45.0560 C   0  0  0  0  0  0  0  0  0  0  0  0
   56.7090   23.5180   43.9710 C   0  0  0  0  0  0  0  0  0  0  0  0
   56.4510   22.6260   42.9290 C   0  0  0  0  0  0  0  0  0  0  0  0
   56.9810   21.3370   42.9830 C   0  0  0  0  0  0  0  0  0  0  0  0
   57.7430   20.9540   44.0450 N   0  0  0  0  0  0  0  0  0  0  0  0
   58.0080   21.8070   45.0720 C   0  0  0  0  0  0  0  0  0  0  0  0
   57.6960   27.9860   45.6520 O   0  0  0  0  0  0  0  0  0  0  0  0
   56.2923   34.5607   45.3768 H   0  0  0  0  0  0  0  0  0  0  0  0
   57.6407   34.9113   44.2430 H   0  0  0  0  0  0  0  0  0  0  0  0
   56.8657   33.2909   44.2430 H   0  0  0  0  0  0  0  0  0  0  0  0
   58.2579   35.6254   46.8369 H   0  0  0  0  0  0  0  0  0  0  0  0
   59.8896   34.9325   48.5840 H   0  0  0  0  0  0  0  0  0  0  0  0
   60.7280   32.5872   48.6523 H   0  0  0  0  0  0  0  0  0  0  0  0
   59.9274   30.9237   46.9847 H   0  0  0  0  0  0  0  0  0  0  0  0
   59.9955   29.7931   44.0176 H   0  0  0  0  0  0  0  0  0  0  0  0
   59.8363   29.7471   45.8141 H   0  0  0  0  0  0  0  0  0  0  0  0
   59.3280   27.5671   42.8492 H   0  0  0  0  0  0  0  0  0  0  0  0
   57.6185   25.5584   43.4607 H   0  0  0  0  0  0  0  0  0  0  0  0
   58.5613   24.7589   45.9112 H   0  0  0  0  0  0  0  0  0  0  0  0
   58.0982   23.4612   47.0731 H   0  0  0  0  0  0  0  0  0  0  0  0
   56.2929   24.5358   43.9406 H   0  0  0  0  0  0  0  0  0  0  0  0
   55.8349   22.9369   42.0724 H   0  0  0  0  0  0  0  0  0  0  0  0
   56.7831   20.6278   42.1657 H   0  0  0  0  0  0  0  0  0  0  0  0
   58.1300   19.9850   44.0720 H   0  0  0  0  0  0  0  0  0  0  0  0
   58.6240   21.4697   45.9186 H   0  0  0  0  0  0  0  0  0  0  0  0
  1  2  1  0
  2  3  2  0
  3  4  1  0
  4  5  2  0
  5  6  1  0
  6  7  2  0
  7  8  1  0
  8  9  2  0
  8 10  2  0
  8 11  1  0
 11 12  1  0
 12 13  2  0
 13 14  1  0
 14 15  2  0
 15 16  1  0
 16 17  2  0
 16 18  1  0
 18 19  1  0
 19 20  1  0
 20 21  2  0
 21 22  1  0
 22 23  2  0
 23 24  1  0
 24 25  2  0
 15 26  1  0
  7  2  1  0
 26 12  1  0
 25 20  1  0
  1 27  1  0
  1 28  1  0
  1 29  1  0
  3 30  1  0
  4 31  1  0
  5 32  1  0
  6 33  1  0
 11 34  1  0
 11 35  1  0
 13 36  1  0
 14 37  1  0
 19 38  1  0
 19 39  1  0
 21 40  1  0
 22 41  1  0
 23 42  1  0
 24 43  1  0
 25 44  1  0
M  CHG  2  18  -1  24   1
M  END
>  <UniqueID>  (41) 
38

>  <SMILES>  (41) 
Cc1ccccc1S(=O)(=O)Cc1ccc(C(=O)[N-]Cc2ccc[nH+]c2)o1

>  <Energy>  (41) 
65.60578853807075

>  <Genealogy>  (41) 
Cc1ccccc1S(=O)(=O)Cc1ccc(C(=O)[N-]Cc2ccc[nH+]c2)o1 (protonated)
Cc1ccccc1S(=O)(=O)Cc1ccc(C(=O)[N-]Cc2ccc[nH+]c2)o1 (3D coordinates assigned)
Cc1ccccc1S(=O)(=O)Cc1ccc(C(=O)[N-]Cc2ccc[nH+]c2)o1 (optimized conformer: 65.60578853807075 kcal/mol)

>  <smiles>  (41) 
Cc1ccccc1S(=O)(=O)Cc1ccc(C(=O)NCc2cccnc2)o1

>  <score_type>  (41) 
oracle

>  <origin>  (41) 
adg

>  <m_score__min__energy>  (41) 
-10.74

>  <m_primary>  (41) 
energy

$$$$
41:0
     RDKit          3D

 50 53  0  0  0  0  0  0  0  0999 V2000
   61.1060   26.3810   46.5540 O   0  0  0  0  0  0  0  0  0  0  0  0
   59.9200   26.2400   46.1520 C   0  0  0  0  0  0  0  0  0  0  0  0
   59.4020   24.9110   46.0000 N   0  0  0  0  0  0  0  0  0  0  0  0
   58.0160   24.5480   45.9250 C   0  0  0  0  0  0  0  0  0  0  0  0
   57.2220   24.4210   47.0740 C   0  0  0  0  0  0  0  0  0  0  0  0
   55.8780   24.0570   46.9690 C   0  0  0  0  0  0  0  0  0  0  0  0
   55.2870   23.7910   45.7110 C   0  0  0  0  0  0  0  0  0  0  0  0
   53.8790   23.4170   45.5980 N   0  0  0  0  0  0  0  0  0  0  0  0
   53.0370   24.0670   44.5710 C   0  0  0  0  0  0  0  0  0  0  0  0
   51.5690   23.6330   44.6160 C   0  0  0  0  0  0  0  0  0  0  0  0
   51.4570   22.2610   44.9110 O   0  0  0  0  0  0  0  0  0  0  0  0
   51.8560   22.0620   46.2460 C   0  0  0  0  0  0  0  0  0  0  0  0
   53.3610   22.2940   46.4090 C   0  0  0  0  0  0  0  0  0  0  0  0
   56.1110   23.9060   44.5650 C   0  0  0  0  0  0  0  0  0  0  0  0
   57.4550   24.2700   44.6780 C   0  0  0  0  0  0  0  0  0  0  0  0
   59.1230   27.4380   45.8020 C   0  0  0  0  0  0  0  0  0  0  0  0
   58.5640   27.5930   44.5240 C   0  0  0  0  0  0  0  0  0  0  0  0
   57.8120   28.7280   44.2180 C   0  0  0  0  0  0  0  0  0  0  0  0
   57.6290   29.7120   45.1910 C   0  0  0  0  0  0  0  0  0  0  0  0
   56.8650   30.8450   44.8870 O   0  0  0  0  0  0  0  0  0  0  0  0
   57.3920   31.9960   44.2300 C   0  0  0  0  0  0  0  0  0  0  0  0
   58.0670   32.9020   45.2170 C   0  0  0  0  0  0  0  0  0  0  0  0
   58.8120   34.0050   44.7760 C   0  0  0  0  0  0  0  0  0  0  0  0
   59.4090   34.8460   45.7170 C   0  0  0  0  0  0  0  0  0  0  0  0
   59.2580   34.5820   47.0810 C   0  0  0  0  0  0  0  0  0  0  0  0
   58.5070   33.4760   47.4830 C   0  0  0  0  0  0  0  0  0  0  0  0
   57.9310   32.6690   46.5520 N   0  0  0  0  0  0  0  0  0  0  0  0
   58.1930   29.5590   46.4210 N   0  0  0  0  0  0  0  0  0  0  0  0
   58.9310   28.4630   46.7430 C   0  0  0  0  0  0  0  0  0  0  0  0
   57.6610   24.6094   48.0648 H   0  0  0  0  0  0  0  0  0  0  0  0
   55.2677   23.9756   47.8805 H   0  0  0  0  0  0  0  0  0  0  0  0
   53.0824   25.1556   44.7223 H   0  0  0  0  0  0  0  0  0  0  0  0
   53.4328   23.7636   43.5906 H   0  0  0  0  0  0  0  0  0  0  0  0
   51.0465   24.2116   45.3921 H   0  0  0  0  0  0  0  0  0  0  0  0
   51.1189   23.8170   43.6293 H   0  0  0  0  0  0  0  0  0  0  0  0
   51.3114   22.7654   46.8930 H   0  0  0  0  0  0  0  0  0  0  0  0
   51.6287   21.0236   46.5288 H   0  0  0  0  0  0  0  0  0  0  0  0
   53.5673   22.5062   47.4684 H   0  0  0  0  0  0  0  0  0  0  0  0
   53.8674   21.3827   46.0581 H   0  0  0  0  0  0  0  0  0  0  0  0
   55.6861   23.7056   43.5703 H   0  0  0  0  0  0  0  0  0  0  0  0
   58.0779   24.3382   43.7739 H   0  0  0  0  0  0  0  0  0  0  0  0
   58.7193   26.8166   43.7604 H   0  0  0  0  0  0  0  0  0  0  0  0
   57.3674   28.8462   43.2188 H   0  0  0  0  0  0  0  0  0  0  0  0
   58.1231   31.6773   43.4725 H   0  0  0  0  0  0  0  0  0  0  0  0
   56.5653   32.5428   43.7530 H   0  0  0  0  0  0  0  0  0  0  0  0
   58.9248   34.2055   43.7003 H   0  0  0  0  0  0  0  0  0  0  0  0
   59.9970   35.7146   45.3855 H   0  0  0  0  0  0  0  0  0  0  0  0
   59.7257   35.2384   47.8296 H   0  0  0  0  0  0  0  0  0  0  0  0
   58.3810   33.2570   48.5536 H   0  0  0  0  0  0  0  0  0  0  0  0
   59.3792   28.3789   47.7440 H   0  0  0  0  0  0  0  0  0  0  0  0
  1  2  2  0
  2  3  1  0
  3  4  1  0
  4  5  2  0
  5  6  1  0
  6  7  2  0
  7  8  1  0
  8  9  1  0
  9 10  1  0
 10 11  1  0
 11 12  1  0
 12 13  1  0
  7 14  1  0
 14 15  2  0
  2 16  1  0
 16 17  2  0
 17 18  1  0
 18 19  2  0
 19 20  1  0
 20 21  1  0
 21 22  1  0
 22 23  2  0
 23 24  1  0
 24 25  2  0
 25 26  1  0
 26 27  2  0
 19 28  1  0
 28 29  2  0
 15  4  1  0
 29 16  1  0
 13  8  1  0
 27 22  1  0
  5 30  1  0
  6 31  1  0
  9 32  1  0
  9 33  1  0
 10 34  1  0
 10 35  1  0
 12 36  1  0
 12 37  1  0
 13 38  1  0
 13 39  1  0
 14 40  1  0
 15 41  1  0
 17 42  1  0
 18 43  1  0
 21 44  1  0
 21 45  1  0
 23 46  1  0
 24 47  1  0
 25 48  1  0
 26 49  1  0
 29 50  1  0
M  CHG  1   3  -1
M  END
>  <UniqueID>  (42) 
39

>  <SMILES>  (42) 
O=C([N-]c1ccc(N2CCOCC2)cc1)c1ccc(OCc2ccccn2)nc1

>  <Energy>  (42) 
67.34527827757199

>  <Genealogy>  (42) 
O=C([N-]c1ccc(N2CCOCC2)cc1)c1ccc(OCc2ccccn2)nc1 (protonated)
O=C([N-]c1ccc(N2CCOCC2)cc1)c1ccc(OCc2ccccn2)nc1 (3D coordinates assigned)
O=C([N-]c1ccc(N2CCOCC2)cc1)c1ccc(OCc2ccccn2)nc1 (nonaromatic ring conformer: 67.34527827757199 kcal/mol)

>  <smiles>  (42) 
O=C(Nc1ccc(N2CCOCC2)cc1)c1ccc(OCc2ccccn2)nc1

>  <score_type>  (42) 
oracle

>  <origin>  (42) 
adg

>  <m_score__min__energy>  (42) 
-9.3399999999999999

>  <m_primary>  (42) 
energy

$$$$
42:0
     RDKit          3D

 59 62  0  0  0  0  0  0  0  0999 V2000
   56.6200   25.6320   47.2820 O   0  0  0  0  0  0  0  0  0  0  0  0
   56.1560   26.2120   46.2630 C   0  0  0  0  0  0  0  0  0  0  0  0
   54.7910   25.9820   45.8920 N   0  0  0  0  0  0  0  0  0  0  0  0
   54.2220   24.6690   45.6030 C   0  0  0  0  0  0  0  0  0  0  0  0
   55.2790   23.7720   45.0020 C   0  0  0  0  0  0  0  0  0  0  0  0
   55.3970   23.7200   43.5990 C   0  0  0  0  0  0  0  0  0  0  0  0
   56.3350   22.8830   42.9920 C   0  0  0  0  0  0  0  0  0  0  0  0
   57.1600   22.0760   43.7710 C   0  0  0  0  0  0  0  0  0  0  0  0
   57.0540   22.1040   45.1620 C   0  0  0  0  0  0  0  0  0  0  0  0
   56.1270   22.9500   45.8010 C   0  0  0  0  0  0  0  0  0  0  0  0
   56.0560   22.9350   47.2440 N   0  0  0  0  0  0  0  0  0  0  0  0
   57.0720   22.7310   47.9380 O   0  0  0  0  0  0  0  0  0  0  0  0
   54.8280   22.9470   47.8690 O   0  0  0  0  0  0  0  0  0  0  0  0
   57.0190   27.1390   45.5160 C   0  0  0  0  0  0  0  0  0  0  0  0
   58.2780   26.7450   45.0390 C   0  0  0  0  0  0  0  0  0  0  0  0
   59.0530   27.6420   44.3700 N   0  0  0  0  0  0  0  0  0  0  0  0
   58.6260   28.9160   44.1550 C   0  0  0  0  0  0  0  0  0  0  0  0
   57.3690   29.3130   44.6280 C   0  0  0  0  0  0  0  0  0  0  0  0
   56.8600   30.7060   44.3980 C   0  0  0  0  0  0  0  0  0  0  0  0
   57.3890   31.6290   45.4240 N   0  0  0  0  0  0  0  0  0  0  0  0
   56.9990   33.0400   45.1400 C   0  0  0  0  0  0  0  0  0  0  0  0
   58.1180   34.0510   45.4340 C   0  0  0  0  0  0  0  0  0  0  0  0
   58.7760   33.7110   46.7110 N   0  0  0  0  0  0  0  0  0  0  0  0
   59.7710   34.7370   47.0940 C   0  0  0  0  0  0  0  0  0  0  0  0
   61.0630   34.0970   47.5440 C   0  0  0  0  0  0  0  0  0  0  0  0
   61.2540   33.7630   48.8960 C   0  0  0  0  0  0  0  0  0  0  0  0
   62.4670   33.2110   49.3200 C   0  0  0  0  0  0  0  0  0  0  0  0
   63.4980   32.9940   48.3990 C   0  0  0  0  0  0  0  0  0  0  0  0
   63.3150   33.3220   47.0550 C   0  0  0  0  0  0  0  0  0  0  0  0
   62.1050   33.8730   46.6260 C   0  0  0  0  0  0  0  0  0  0  0  0
   59.4080   32.3640   46.6660 C   0  0  0  0  0  0  0  0  0  0  0  0
   58.8460   31.4570   45.5540 C   0  0  0  0  0  0  0  0  0  0  0  0
   56.6050   28.4170   45.3110 N   0  0  0  0  0  0  0  0  0  0  0  0
   53.8493   24.2197   46.5353 H   0  0  0  0  0  0  0  0  0  0  0  0
   53.3937   24.7824   44.8881 H   0  0  0  0  0  0  0  0  0  0  0  0
   54.7425   24.3461   42.9748 H   0  0  0  0  0  0  0  0  0  0  0  0
   56.4225   22.8610   41.8957 H   0  0  0  0  0  0  0  0  0  0  0  0
   57.8961   21.4157   43.2893 H   0  0  0  0  0  0  0  0  0  0  0  0
   57.7039   21.4559   45.7683 H   0  0  0  0  0  0  0  0  0  0  0  0
   58.6365   25.7183   45.2045 H   0  0  0  0  0  0  0  0  0  0  0  0
   59.9910   27.3460   44.0170 H   0  0  0  0  0  0  0  0  0  0  0  0
   59.2641   29.6296   43.6131 H   0  0  0  0  0  0  0  0  0  0  0  0
   57.1812   31.0487   43.4033 H   0  0  0  0  0  0  0  0  0  0  0  0
   55.7618   30.6973   44.4611 H   0  0  0  0  0  0  0  0  0  0  0  0
   56.7268   33.1198   44.0772 H   0  0  0  0  0  0  0  0  0  0  0  0
   56.1563   33.2848   45.8033 H   0  0  0  0  0  0  0  0  0  0  0  0
   58.8594   34.0216   44.6219 H   0  0  0  0  0  0  0  0  0  0  0  0
   57.6863   35.0602   45.5052 H   0  0  0  0  0  0  0  0  0  0  0  0
   59.9727   35.3836   46.2273 H   0  0  0  0  0  0  0  0  0  0  0  0
   59.3629   35.3266   47.9282 H   0  0  0  0  0  0  0  0  0  0  0  0
   60.4468   33.9364   49.6229 H   0  0  0  0  0  0  0  0  0  0  0  0
   62.6108   32.9472   50.3782 H   0  0  0  0  0  0  0  0  0  0  0  0
   64.4534   32.5645   48.7347 H   0  0  0  0  0  0  0  0  0  0  0  0
   64.1251   33.1463   46.3319 H   0  0  0  0  0  0  0  0  0  0  0  0
   61.9666   34.1327   45.5661 H   0  0  0  0  0  0  0  0  0  0  0  0
   60.4877   32.4916   46.4985 H   0  0  0  0  0  0  0  0  0  0  0  0
   59.1893   31.8723   47.6254 H   0  0  0  0  0  0  0  0  0  0  0  0
   59.3263   31.7174   44.5993 H   0  0  0  0  0  0  0  0  0  0  0  0
   59.0550   30.4091   45.8150 H   0  0  0  0  0  0  0  0  0  0  0  0
  1  2  2  0
  2  3  1  0
  3  4  1  0
  4  5  1  0
  5  6  2  0
  6  7  1  0
  7  8  2  0
  8  9  1  0
  9 10  2  0
 10 11  1  0
 11 12  2  0
 11 13  1  0
  2 14  1  0
 14 15  2  0
 15 16  1  0
 16 17  2  0
 17 18  1  0
 18 19  1  0
 19 20  1  0
 20 21  1  0
 21 22  1  0
 22 23  1  0
 23 24  1  0
 24 25  1  0
 25 26  2  0
 26 27  1  0
 27 28  2  0
 28 29  1  0
 29 30  2  0
 23 31  1  0
 31 32  1  0
 18 33  2  0
 10  5  1  0
 33 14  1  0
 32 20  1  0
 30 25  1  0
  4 34  1  0
  4 35  1  0
  6 36  1  0
  7 37  1  0
  8 38  1  0
  9 39  1  0
 15 40  1  0
 16 41  1  0
 17 42  1  0
 19 43  1  0
 19 44  1  0
 21 45  1  0
 21 46  1  0
 22 47  1  0
 22 48  1  0
 24 49  1  0
 24 50  1  0
 26 51  1  0
 27 52  1  0
 28 53  1  0
 29 54  1  0
 30 55  1  0
 31 56  1  0
 31 57  1  0
 32 58  1  0
 32 59  1  0
M  CHG  4   3  -1  11   1  13  -1  16   1
M  END
>  <UniqueID>  (43) 
40

>  <SMILES>  (43) 
O=C([N-]Cc1ccccc1[N+](=O)[O-])c1c[nH+]cc(CN2CCN(Cc3ccccc3)CC2)n1

>  <Energy>  (43) 
83.48068832354654

>  <Genealogy>  (43) 
O=C([N-]Cc1ccccc1[N+](=O)[O-])c1c[nH+]cc(CN2CCN(Cc3ccccc3)CC2)n1 (protonated)
O=C([N-]Cc1ccccc1[N+](=O)[O-])c1c[nH+]cc(CN2CCN(Cc3ccccc3)CC2)n1 (3D coordinates assigned)
O=C([N-]Cc1ccccc1[N+](=O)[O-])c1c[nH+]cc(CN2CCN(Cc3ccccc3)CC2)n1 (nonaromatic ring conformer: 83.48068832354654 kcal/mol)

>  <smiles>  (43) 
O=C(NCc1ccccc1[N+](=O)[O-])c1cncc(CN2CCN(Cc3ccccc3)CC2)n1

>  <score_type>  (43) 
oracle

>  <origin>  (43) 
adg

>  <m_score__min__energy>  (43) 
-11.15

>  <m_primary>  (43) 
energy

$$$$
43:0
     RDKit          3D

 61 64  0  0  0  0  0  0  0  0999 V2000
   50.4440   32.3220   50.9040 H   0  0  0  0  0  0  0  0  0  0  0  0
   51.4390   32.2460   51.2160 N   0  0  0  0  0  0  0  0  0  0  0  0
   51.8090   30.5610   51.3130 S   0  0  0  0  0  0  0  0  0  0  0  0
   50.8360   29.8850   52.2410 O   0  0  0  0  0  0  0  0  0  0  0  0
   51.6850   29.9390   49.9500 O   0  0  0  0  0  0  0  0  0  0  0  0
   53.4520   30.3570   51.9180 C   0  0  0  0  0  0  0  0  0  0  0  0
   53.8820   29.1070   52.3820 C   0  0  0  0  0  0  0  0  0  0  0  0
   53.1874   28.2540   52.3858 H   0  0  0  0  0  0  0  0  0  0  0  0
   55.1920   28.9420   52.8400 C   0  0  0  0  0  0  0  0  0  0  0  0
   55.5261   27.9594   53.2045 H   0  0  0  0  0  0  0  0  0  0  0  0
   56.0800   30.0240   52.8360 C   0  0  0  0  0  0  0  0  0  0  0  0
   57.1105   29.8889   53.1963 H   0  0  0  0  0  0  0  0  0  0  0  0
   55.6600   31.2800   52.3740 C   0  0  0  0  0  0  0  0  0  0  0  0
   56.6030   32.4560   52.3700 C   0  0  0  0  0  0  0  0  0  0  0  0
   56.2425   33.2062   51.6507 H   0  0  0  0  0  0  0  0  0  0  0  0
   56.6386   32.8859   53.3819 H   0  0  0  0  0  0  0  0  0  0  0  0
   57.9510   32.0330   51.9890 N   0  0  0  0  0  0  0  0  0  0  0  0
   58.5070   32.2790   50.8400 C   0  0  0  0  0  0  0  0  0  0  0  0
   58.3610   31.4210   49.7920 N   0  0  0  0  0  0  0  0  0  0  0  0
   58.9340   31.6650   48.5830 C   0  0  0  0  0  0  0  0  0  0  0  0
   58.7450   30.7270   47.5040 N   0  0  0  0  0  0  0  0  0  0  0  0
   58.8110   29.2740   47.7320 C   0  0  0  0  0  0  0  0  0  0  0  0
   59.2892   29.0856   48.7045 H   0  0  0  0  0  0  0  0  0  0  0  0
   57.7864   28.8741   47.7172 H   0  0  0  0  0  0  0  0  0  0  0  0
   59.6230   28.5690   46.6290 C   0  0  0  0  0  0  0  0  0  0  0  0
   60.6894   28.6362   46.8904 H   0  0  0  0  0  0  0  0  0  0  0  0
   59.2576   27.5325   46.5835 H   0  0  0  0  0  0  0  0  0  0  0  0
   59.4320   29.1690   45.2110 C   0  0  0  0  0  0  0  0  0  0  0  0
   60.3293   29.7607   44.9770 H   0  0  0  0  0  0  0  0  0  0  0  0
   59.2950   28.0980   44.2180 N   0  0  0  0  0  0  0  0  0  0  0  0
   60.0800   27.9200   43.5530 H   0  0  0  0  0  0  0  0  0  0  0  0
   58.1470   27.2330   44.1970 C   0  0  0  0  0  0  0  0  0  0  0  0
   57.3750   27.1960   45.1930 O   0  0  0  0  0  0  0  0  0  0  0  0
   57.8440   26.3590   43.0450 C   0  0  0  0  0  0  0  0  0  0  0  0
   57.9914   26.7597   42.0312 H   0  0  0  0  0  0  0  0  0  0  0  0
   57.3980   25.1010   43.1750 C   0  0  0  0  0  0  0  0  0  0  0  0
   57.3144   24.4855   42.2672 H   0  0  0  0  0  0  0  0  0  0  0  0
   57.0100   24.4890   44.4720 C   0  0  0  0  0  0  0  0  0  0  0  0
   55.6450   24.4200   44.7980 C   0  0  0  0  0  0  0  0  0  0  0  0
   54.8950   24.8004   44.0889 H   0  0  0  0  0  0  0  0  0  0  0  0
   55.2320   23.8720   46.0160 C   0  0  0  0  0  0  0  0  0  0  0  0
   54.1605   23.8195   46.2590 H   0  0  0  0  0  0  0  0  0  0  0  0
   56.1770   23.3910   46.9250 C   0  0  0  0  0  0  0  0  0  0  0  0
   55.7730   22.8640   48.1060 F   0  0  0  0  0  0  0  0  0  0  0  0
   57.5370   23.4660   46.6200 C   0  0  0  0  0  0  0  0  0  0  0  0
   58.2815   23.0921   47.3383 H   0  0  0  0  0  0  0  0  0  0  0  0
   57.9560   24.0150   45.4040 C   0  0  0  0  0  0  0  0  0  0  0  0
   59.0297   24.0774   45.1733 H   0  0  0  0  0  0  0  0  0  0  0  0
   58.2270   30.1210   45.1490 C   0  0  0  0  0  0  0  0  0  0  0  0
   58.1535   30.5517   44.1395 H   0  0  0  0  0  0  0  0  0  0  0  0
   57.3092   29.5607   45.3807 H   0  0  0  0  0  0  0  0  0  0  0  0
   58.4030   31.2480   46.1710 C   0  0  0  0  0  0  0  0  0  0  0  0
   59.2096   31.9143   45.8312 H   0  0  0  0  0  0  0  0  0  0  0  0
   57.4494   31.7907   46.2498 H   0  0  0  0  0  0  0  0  0  0  0  0
   59.7150   32.8210   48.4250 C   0  0  0  0  0  0  0  0  0  0  0  0
   60.2091   33.0361   47.4660 H   0  0  0  0  0  0  0  0  0  0  0  0
   59.8530   33.6910   49.5050 C   0  0  0  0  0  0  0  0  0  0  0  0
   60.4526   34.6073   49.4005 H   0  0  0  0  0  0  0  0  0  0  0  0
   59.2470   33.4070   50.6860 N   0  0  0  0  0  0  0  0  0  0  0  0
   54.3450   31.4370   51.9060 C   0  0  0  0  0  0  0  0  0  0  0  0
   54.0136   32.4151   51.5272 H   0  0  0  0  0  0  0  0  0  0  0  0
  1  2  1  0
  2  3  1  0
  3  4  2  0
  3  5  2  0
  3  6  1  0
  6  7  2  0
  7  8  1  0
  7  9  1  0
  9 10  1  0
  9 11  2  0
 11 12  1  0
 11 13  1  0
 13 14  1  0
 14 15  1  0
 14 16  1  0
 14 17  1  0
 17 18  2  3
 18 19  1  0
 19 20  2  0
 20 21  1  0
 21 22  1  0
 22 23  1  0
 22 24  1  0
 22 25  1  0
 25 26  1  0
 25 27  1  0
 25 28  1  0
 28 29  1  0
 28 30  1  0
 30 31  1  0
 30 32  1  0
 32 33  2  0
 32 34  1  0
 34 35  1  0
 34 36  2  0
 36 37  1  0
 36 38  1  0
 38 39  2  0
 39 40  1  0
 39 41  1  0
 41 42  1  0
 41 43  2  0
 43 44  1  0
 43 45  1  0
 45 46  1  0
 45 47  2  0
 47 48  1  0
 28 49  1  0
 49 50  1  0
 49 51  1  0
 49 52  1  0
 52 53  1  0
 52 54  1  0
 20 55  1  0
 55 56  1  0
 55 57  2  0
 57 58  1  0
 57 59  1  0
 13 60  2  0
 60 61  1  0
 60  6  1  0
 59 18  1  0
 52 21  1  0
 47 38  1  0
M  CHG  2   2  -1  59  -1
M  END
>  <UniqueID>  (44) 
41

>  <SMILES>  (44) 
[NH-]S(=O)(=O)c1cccc(CN=c2nc(N3CCC(NC(=O)/C=C/c4ccc(F)cc4)CC3)cc[n-]2)c1

>  <Energy>  (44) 
69.12333651750336

>  <Genealogy>  (44) 
[NH-]S(=O)(=O)c1cccc(CN=c2nc(N3CCC(NC(=O)C=Cc4ccc(F)cc4)CC3)cc[n-]2)c1 (protonated)
[NH-]S(=O)(=O)c1cccc(CN=c2nc(N3CCC(NC(=O)/C=C/c4ccc(F)cc4)CC3)cc[n-]2)c1 (cis-trans isomerization)
[NH-]S(=O)(=O)c1cccc(CN=c2nc(N3CCC(NC(=O)/C=C/c4ccc(F)cc4)CC3)cc[n-]2)c1 (3D coordinates assigned)
[NH-]S(=O)(=O)c1cccc(CN=c2nc(N3CCC(NC(=O)/C=C/c4ccc(F)cc4)CC3)cc[n-]2)c1 (nonaromatic ring conformer: 69.12333651750336 kcal/mol)

>  <smiles>  (44) 
NS(=O)(=O)c1cccc(CN=c2nc(N3CCC(NC(=O)C=Cc4ccc(F)cc4)CC3)cc[nH]2)c1

>  <score_type>  (44) 
oracle

>  <origin>  (44) 
adg

>  <m_score__min__energy>  (44) 
-14.6

>  <m_primary>  (44) 
energy

$$$$
44:0
     RDKit          3D

 71 75  0  0  0  0  0  0  0  0999 V2000
   55.6313   29.5581   52.9827 H   0  0  0  0  0  0  0  0  0  0  0  0
   56.3630   30.2190   52.4950 C   0  0  0  0  0  0  0  0  0  0  0  0
   57.3040   29.7530   51.6320 N   0  0  0  0  0  0  0  0  0  0  0  0
   58.0880   30.7430   51.1580 C   0  0  0  0  0  0  0  0  0  0  0  0
   59.0650   30.5100   50.3300 N   0  0  0  0  0  0  0  0  0  0  0  0
   58.9920   30.3690   48.8990 C   0  0  0  0  0  0  0  0  0  0  0  0
   58.7740   31.3730   48.1640 O   0  0  0  0  0  0  0  0  0  0  0  0
   59.1700   29.0330   48.2810 C   0  0  0  0  0  0  0  0  0  0  0  0
   60.2340   28.2010   48.6750 C   0  0  0  0  0  0  0  0  0  0  0  0
   60.9493   28.5519   49.4334 H   0  0  0  0  0  0  0  0  0  0  0  0
   60.3890   26.9320   48.1100 C   0  0  0  0  0  0  0  0  0  0  0  0
   61.2271   26.2916   48.4223 H   0  0  0  0  0  0  0  0  0  0  0  0
   59.4850   26.4750   47.1520 C   0  0  0  0  0  0  0  0  0  0  0  0
   59.6070   25.4713   46.7187 H   0  0  0  0  0  0  0  0  0  0  0  0
   58.4200   27.2900   46.7380 C   0  0  0  0  0  0  0  0  0  0  0  0
   57.4780   26.8210   45.6640 C   0  0  0  0  0  0  0  0  0  0  0  0
   56.4783   26.6693   46.0970 H   0  0  0  0  0  0  0  0  0  0  0  0
   57.8504   25.8746   45.2450 H   0  0  0  0  0  0  0  0  0  0  0  0
   57.3980   27.8190   44.5990 N   0  0  0  0  0  0  0  0  0  0  0  0
   56.6470   29.0380   44.6640 C   0  0  0  0  0  0  0  0  0  0  0  0
   55.5180   29.0270   45.2220 O   0  0  0  0  0  0  0  0  0  0  0  0
   57.1320   30.2930   44.0540 C   0  0  0  0  0  0  0  0  0  0  0  0
   57.0200   30.5020   42.6710 C   0  0  0  0  0  0  0  0  0  0  0  0
   56.5781   29.7214   42.0344 H   0  0  0  0  0  0  0  0  0  0  0  0
   57.4650   31.6920   42.0990 C   0  0  0  0  0  0  0  0  0  0  0  0
   57.3939   31.8384   41.0111 H   0  0  0  0  0  0  0  0  0  0  0  0
   58.0010   32.6990   42.9040 C   0  0  0  0  0  0  0  0  0  0  0  0
   58.3600   33.6320   42.4451 H   0  0  0  0  0  0  0  0  0  0  0  0
   58.0850   32.5290   44.2960 C   0  0  0  0  0  0  0  0  0  0  0  0
   58.6050   33.6290   45.1420 C   0  0  0  0  0  0  0  0  0  0  0  0
   59.1410   34.6280   44.5870 O   0  0  0  0  0  0  0  0  0  0  0  0
   58.4630   33.5940   46.5720 N   0  0  0  0  0  0  0  0  0  0  0  0
   57.8850   32.8470   47.0180 H   0  0  0  0  0  0  0  0  0  0  0  0
   59.0290   34.6190   47.4470 C   0  0  0  0  0  0  0  0  0  0  0  0
   58.2283   35.0387   48.0737 H   0  0  0  0  0  0  0  0  0  0  0  0
   59.4805   35.4028   46.8211 H   0  0  0  0  0  0  0  0  0  0  0  0
   60.0930   34.0440   48.3320 C   0  0  0  0  0  0  0  0  0  0  0  0
   59.7790   33.6100   49.4730 O   0  0  0  0  0  0  0  0  0  0  0  0
   61.4360   33.8730   47.8590 N   0  0  0  0  0  0  0  0  0  0  0  0
   61.7490   33.7850   46.4460 C   0  0  0  0  0  0  0  0  0  0  0  0
   61.3034   34.6291   45.8993 H   0  0  0  0  0  0  0  0  0  0  0  0
   61.3483   32.8659   45.9936 H   0  0  0  0  0  0  0  0  0  0  0  0
   63.2690   33.8410   46.3670 C   0  0  0  0  0  0  0  0  0  0  0  0
   63.6018   34.8560   46.1041 H   0  0  0  0  0  0  0  0  0  0  0  0
   63.6596   33.1618   45.5949 H   0  0  0  0  0  0  0  0  0  0  0  0
   63.7720   33.4600   47.7570 C   0  0  0  0  0  0  0  0  0  0  0  0
   64.6537   34.0611   48.0240 H   0  0  0  0  0  0  0  0  0  0  0  0
   64.0755   32.4037   47.8036 H   0  0  0  0  0  0  0  0  0  0  0  0
   62.6130   33.7580   48.7130 C   0  0  2  0  0  0  0  0  0  0  0  0
   62.7767   34.6801   49.2900 H   0  0  0  0  0  0  0  0  0  0  0  0
   62.4630   32.6580   49.7600 C   0  0  0  0  0  0  0  0  0  0  0  0
   62.5040   32.9950   51.1290 C   0  0  0  0  0  0  0  0  0  0  0  0
   62.6378   34.0457   51.4258 H   0  0  0  0  0  0  0  0  0  0  0  0
   62.3770   32.0130   52.1110 C   0  0  0  0  0  0  0  0  0  0  0  0
   62.4285   32.2901   53.1743 H   0  0  0  0  0  0  0  0  0  0  0  0
   62.1850   30.6820   51.7480 C   0  0  0  0  0  0  0  0  0  0  0  0
   62.1083   29.9061   52.5239 H   0  0  0  0  0  0  0  0  0  0  0  0
   62.0900   30.3330   50.4020 C   0  0  0  0  0  0  0  0  0  0  0  0
   61.9263   29.2816   50.1232 H   0  0  0  0  0  0  0  0  0  0  0  0
   62.2010   31.3090   49.3970 C   0  0  0  0  0  0  0  0  0  0  0  0
   62.0450   30.8890   47.9590 C   0  0  0  0  0  0  0  0  0  0  0  0
   61.6623   29.8586   47.9174 H   0  0  0  0  0  0  0  0  0  0  0  0
   61.3375   31.5636   47.4547 H   0  0  0  0  0  0  0  0  0  0  0  0
   63.0213   30.9381   47.4547 H   0  0  0  0  0  0  0  0  0  0  0  0
   57.6540   31.3160   44.8640 C   0  0  0  0  0  0  0  0  0  0  0  0
   57.7262   31.1671   45.9515 H   0  0  0  0  0  0  0  0  0  0  0  0
   58.2740   28.5710   47.3000 C   0  0  0  0  0  0  0  0  0  0  0  0
   57.4494   29.2192   46.9685 H   0  0  0  0  0  0  0  0  0  0  0  0
   57.6430   32.2400   51.7980 S   0  0  0  0  0  0  0  0  0  0  0  0
   56.3920   31.5920   52.7170 C   0  0  0  0  0  0  0  0  0  0  0  0
   55.7158   32.1548   53.3773 H   0  0  0  0  0  0  0  0  0  0  0  0
  1  2  1  0
  2  3  1  0
  3  4  1  0
  4  5  2  0
  5  6  1  0
  6  7  2  0
  6  8  1  0
  8  9  2  0
  9 10  1  0
  9 11  1  0
 11 12  1  0
 11 13  2  0
 13 14  1  0
 13 15  1  0
 15 16  1  0
 16 17  1  0
 16 18  1  0
 16 19  1  0
 19 20  1  0
 20 21  2  0
 20 22  1  0
 22 23  2  0
 23 24  1  0
 23 25  1  0
 25 26  1  0
 25 27  2  0
 27 28  1  0
 27 29  1  0
 29 30  1  0
 30 31  2  0
 30 32  1  0
 32 33  1  0
 32 34  1  0
 34 35  1  0
 34 36  1  0
 34 37  1  0
 37 38  2  0
 37 39  1  0
 39 40  1  0
 40 41  1  0
 40 42  1  0
 40 43  1  0
 43 44  1  0
 43 45  1  0
 43 46  1  0
 46 47  1  0
 46 48  1  0
 46 49  1  0
 49 50  1  1
 49 51  1  0
 51 52  2  0
 52 53  1  0
 52 54  1  0
 54 55  1  0
 54 56  2  0
 56 57  1  0
 56 58  1  0
 58 59  1  0
 58 60  2  0
 60 61  1  0
 61 62  1  0
 61 63  1  0
 61 64  1  0
 29 65  2  0
 65 66  1  0
 15 67  2  0
 67 68  1  0
  4 69  1  0
 69 70  1  0
 70 71  1  0
 70  2  2  0
 67  8  1  0
 65 22  1  0
 49 39  1  0
 60 51  1  0
M  CHG  2   3  -1  19  -1
M  END
>  <UniqueID>  (45) 
42

>  <SMILES>  (45) 
Cc1ccccc1[C@H]1CCCN1C(=O)CNC(=O)c1cccc(C(=O)[N-]Cc2cccc(C(=O)/N=c3/[n-]ccs3)c2)c1

>  <Energy>  (45) 
120.8788656308558

>  <Genealogy>  (45) 
Cc1ccccc1C1CCCN1C(=O)CNC(=O)c1cccc(C(=O)[N-]Cc2cccc(C(=O)N=c3[n-]ccs3)c2)c1 (protonated)
Cc1ccccc1[C@H]1CCCN1C(=O)CNC(=O)c1cccc(C(=O)[N-]Cc2cccc(C(=O)N=c3[n-]ccs3)c2)c1 (chirality)
Cc1ccccc1[C@H]1CCCN1C(=O)CNC(=O)c1cccc(C(=O)[N-]Cc2cccc(C(=O)/N=c3/[n-]ccs3)c2)c1 (cis-trans isomerization)
Cc1ccccc1[C@H]1CCCN1C(=O)CNC(=O)c1cccc(C(=O)[N-]Cc2cccc(C(=O)/N=c3/[n-]ccs3)c2)c1 (3D coordinates assigned)
Cc1ccccc1[C@H]1CCCN1C(=O)CNC(=O)c1cccc(C(=O)[N-]Cc2cccc(C(=O)/N=c3/[n-]ccs3)c2)c1 (nonaromatic ring conformer: 120.8788656308558 kcal/mol)

>  <smiles>  (45) 
Cc1ccccc1C1CCCN1C(=O)CNC(=O)c1cccc(C(=O)NCc2cccc(C(=O)N=c3[nH]ccs3)c2)c1

>  <score_type>  (45) 
oracle

>  <origin>  (45) 
adg

>  <m_score__min__energy>  (45) 
-13.74

>  <m_primary>  (45) 
energy

$$$$
45:0
     RDKit          3D

 55 58  0  0  0  0  0  0  0  0999 V2000
   56.5157   22.0274   45.9970 H   0  0  0  0  0  0  0  0  0  0  0  0
   56.7770   23.0230   45.6090 C   0  0  0  0  0  0  0  0  0  0  0  0
   56.9560   23.2130   44.2360 C   0  0  0  0  0  0  0  0  0  0  0  0
   56.8444   22.3647   43.5447 H   0  0  0  0  0  0  0  0  0  0  0  0
   57.2770   24.4810   43.7400 C   0  0  0  0  0  0  0  0  0  0  0  0
   57.4255   24.6248   42.6596 H   0  0  0  0  0  0  0  0  0  0  0  0
   57.4110   25.5750   44.6180 C   0  0  0  0  0  0  0  0  0  0  0  0
   57.7680   26.8840   44.1410 N   0  0  0  0  0  0  0  0  0  0  0  0
   57.2320   27.2810   43.3350 H   0  0  0  0  0  0  0  0  0  0  0  0
   58.8640   27.6570   44.6490 C   0  0  0  0  0  0  0  0  0  0  0  0
   59.7870   27.1020   45.3050 O   0  0  0  0  0  0  0  0  0  0  0  0
   58.9840   29.0310   44.2720 N   0  0  0  0  0  0  0  0  0  0  0  0
   58.2630   30.0420   44.6720 C   0  0  0  0  0  0  0  0  0  0  0  0
   58.7360   31.0100   45.5310 C   0  0  0  0  0  0  0  0  0  0  0  0
   59.7278   31.0694   46.0031 H   0  0  0  0  0  0  0  0  0  0  0  0
   57.6780   31.8890   45.6630 C   0  0  0  0  0  0  0  0  0  0  0  0
   57.6780   33.1540   46.4830 C   0  0  0  0  0  0  0  0  0  0  0  0
   56.6691   33.2990   46.8966 H   0  0  0  0  0  0  0  0  0  0  0  0
   57.9780   34.3860   45.6040 C   0  0  0  0  0  0  0  0  0  0  0  0
   57.4536   34.2722   44.6437 H   0  0  0  0  0  0  0  0  0  0  0  0
   57.6327   35.2792   46.1452 H   0  0  0  0  0  0  0  0  0  0  0  0
   59.4840   34.5520   45.3300 C   0  0  0  0  0  0  0  0  0  0  0  0
   59.7957   33.7623   44.6306 H   0  0  0  0  0  0  0  0  0  0  0  0
   59.6193   35.5642   44.9212 H   0  0  0  0  0  0  0  0  0  0  0  0
   60.3430   34.4650   46.5440 N   0  0  0  0  0  0  0  0  0  0  0  0
   61.4530   33.5000   46.3820 C   0  0  0  0  0  0  0  0  0  0  0  0
   61.0691   32.5839   45.9093 H   0  0  0  0  0  0  0  0  0  0  0  0
   62.2303   33.9572   45.7521 H   0  0  0  0  0  0  0  0  0  0  0  0
   62.0550   33.1520   47.7190 C   0  0  0  0  0  0  0  0  0  0  0  0
   62.8160   34.1040   48.4160 C   0  0  0  0  0  0  0  0  0  0  0  0
   62.9660   35.1060   47.9876 H   0  0  0  0  0  0  0  0  0  0  0  0
   63.3840   33.7830   49.6530 C   0  0  0  0  0  0  0  0  0  0  0  0
   63.9776   34.5334   50.1957 H   0  0  0  0  0  0  0  0  0  0  0  0
   63.1990   32.5110   50.2010 C   0  0  0  0  0  0  0  0  0  0  0  0
   63.6485   32.2600   51.1731 H   0  0  0  0  0  0  0  0  0  0  0  0
   62.4420   31.5570   49.5130 C   0  0  0  0  0  0  0  0  0  0  0  0
   62.2670   30.3210   50.0440 F   0  0  0  0  0  0  0  0  0  0  0  0
   61.8710   31.8740   48.2760 C   0  0  0  0  0  0  0  0  0  0  0  0
   61.2764   31.1214   47.7374 H   0  0  0  0  0  0  0  0  0  0  0  0
   59.5970   34.2320   47.8010 C   0  0  0  0  0  0  0  0  0  0  0  0
   60.3165   34.0388   48.6103 H   0  0  0  0  0  0  0  0  0  0  0  0
   58.9945   35.1284   48.0097 H   0  0  0  0  0  0  0  0  0  0  0  0
   58.6430   33.0350   47.6900 C   0  0  0  0  0  0  0  0  0  0  0  0
   59.2397   32.1180   47.5753 H   0  0  0  0  0  0  0  0  0  0  0  0
   58.0322   33.0089   48.6045 H   0  0  0  0  0  0  0  0  0  0  0  0
   56.6440   31.4810   44.8970 N   0  0  0  0  0  0  0  0  0  0  0  0
   56.9970   30.3580   44.2900 N   0  0  0  0  0  0  0  0  0  0  0  0
   56.1270   29.7130   43.3110 C   0  0  0  0  0  0  0  0  0  0  0  0
   55.3498   29.1368   43.8345 H   0  0  0  0  0  0  0  0  0  0  0  0
   55.6529   30.4796   42.6804 H   0  0  0  0  0  0  0  0  0  0  0  0
   56.7227   29.0366   42.6804 H   0  0  0  0  0  0  0  0  0  0  0  0
   57.2520   25.3660   45.9970 C   0  0  0  0  0  0  0  0  0  0  0  0
   57.3817   26.2060   46.6952 H   0  0  0  0  0  0  0  0  0  0  0  0
   56.9300   24.0980   46.4890 C   0  0  0  0  0  0  0  0  0  0  0  0
   56.7968   23.9459   47.5703 H   0  0  0  0  0  0  0  0  0  0  0  0
  1  2  1  0
  2  3  2  0
  3  4  1  0
  3  5  1  0
  5  6  1  0
  5  7  2  0
  7  8  1  0
  8  9  1  0
  8 10  1  0
 10 11  2  0
 10 12  1  0
 12 13  2  0
 13 14  1  0
 14 15  1  0
 14 16  2  0
 16 17  1  0
 17 18  1  0
 17 19  1  0
 19 20  1  0
 19 21  1  0
 19 22  1  0
 22 23  1  0
 22 24  1  0
 22 25  1  0
 25 26  1  0
 26 27  1  0
 26 28  1  0
 26 29  1  0
 29 30  2  0
 30 31  1  0
 30 32  1  0
 32 33  1  0
 32 34  2  0
 34 35  1  0
 34 36  1  0
 36 37  1  0
 36 38  2  0
 38 39  1  0
 25 40  1  0
 40 41  1  0
 40 42  1  0
 40 43  1  0
 43 44  1  0
 43 45  1  0
 16 46  1  0
 46 47  1  0
 47 48  1  0
 48 49  1  0
 48 50  1  0
 48 51  1  0
  7 52  1  0
 52 53  1  0
 52 54  2  0
 54 55  1  0
 54  2  1  0
 47 13  1  0
 43 17  1  0
 38 29  1  0
M  CHG  1  46  -1
M  END
>  <UniqueID>  (46) 
43

>  <SMILES>  (46) 
Cn1[n-]c(C2CCN(Cc3cccc(F)c3)CC2)c/c1=N/C(=O)Nc1ccccc1

>  <Energy>  (46) 
112.14260938955691

>  <Genealogy>  (46) 
Cn1[n-]c(C2CCN(Cc3cccc(F)c3)CC2)cc1=NC(=O)Nc1ccccc1 (protonated)
Cn1[n-]c(C2CCN(Cc3cccc(F)c3)CC2)c/c1=N/C(=O)Nc1ccccc1 (cis-trans isomerization)
Cn1[n-]c(C2CCN(Cc3cccc(F)c3)CC2)c/c1=N/C(=O)Nc1ccccc1 (3D coordinates assigned)
Cn1[n-]c(C2CCN(Cc3cccc(F)c3)CC2)c/c1=N/C(=O)Nc1ccccc1 (nonaromatic ring conformer: 112.14260938955691 kcal/mol)

>  <smiles>  (46) 
Cn1[nH]c(C2CCN(Cc3cccc(F)c3)CC2)cc1=NC(=O)Nc1ccccc1

>  <score_type>  (46) 
oracle

>  <origin>  (46) 
adg

>  <m_score__min__energy>  (46) 
-10.26

>  <m_primary>  (46) 
energy

$$$$
46:0
     RDKit          3D

 39 41  0  0  0  0  0  0  0  0999 V2000
   59.7370   28.4129   47.7512 H   0  0  0  0  0  0  0  0  0  0  0  0
   59.5880   29.4950   47.6210 C   0  0  0  0  0  0  0  0  0  0  0  0
   59.9454   30.1958   48.3898 H   0  0  0  0  0  0  0  0  0  0  0  0
   58.9690   29.9610   46.5220 C   0  0  0  0  0  0  0  0  0  0  0  0
   58.5930   29.1250   45.4220 C   0  0  0  0  0  0  0  0  0  0  0  0
   58.4870   27.7710   45.4590 C   0  0  0  0  0  0  0  0  0  0  0  0
   59.3887   27.1953   45.2029 H   0  0  0  0  0  0  0  0  0  0  0  0
   57.2810   26.9980   45.8090 C   0  0  0  0  0  0  0  0  0  0  0  0
   57.3170   25.7220   46.2320 N   0  0  0  0  0  0  0  0  0  0  0  0
   56.0120   25.3870   46.3300 C   0  0  0  0  0  0  0  0  0  0  0  0
   55.6310   24.2520   46.7160 O   0  0  0  0  0  0  0  0  0  0  0  0
   55.1480   26.3600   45.9700 N   0  0  0  0  0  0  0  0  0  0  0  0
   55.9660   27.3680   45.6300 C   0  0  0  0  0  0  0  0  0  0  0  0
   55.5200   28.5890   45.1370 O   0  0  0  0  0  0  0  0  0  0  0  0
   58.2840   29.7550   44.2020 C   0  0  0  0  0  0  0  0  0  0  0  0
   58.1114   29.1418   43.3052 H   0  0  0  0  0  0  0  0  0  0  0  0
   58.1930   31.1440   44.1110 C   0  0  0  0  0  0  0  0  0  0  0  0
   57.8080   31.7440   42.8570 C   0  0  0  0  0  0  0  0  0  0  0  0
   57.5010   32.2250   41.8500 N   0  0  0  0  0  0  0  0  0  0  0  0
   58.4370   31.9190   45.2490 C   0  0  0  0  0  0  0  0  0  0  0  0
   58.3120   33.7170   45.1990 S   0  0  0  0  0  0  0  0  0  0  0  0
   59.4630   33.9320   46.5580 C   0  0  0  0  0  0  0  0  0  0  0  0
   58.9980   34.3580   47.8050 C   0  0  0  0  0  0  0  0  0  0  0  0
   57.9281   34.5681   47.9505 H   0  0  0  0  0  0  0  0  0  0  0  0
   59.8910   34.5170   48.8660 C   0  0  0  0  0  0  0  0  0  0  0  0
   59.5216   34.8466   49.8483 H   0  0  0  0  0  0  0  0  0  0  0  0
   61.2530   34.2590   48.6850 C   0  0  0  0  0  0  0  0  0  0  0  0
   61.9496   34.3861   49.5268 H   0  0  0  0  0  0  0  0  0  0  0  0
   61.7400   33.8370   47.4310 C   0  0  0  0  0  0  0  0  0  0  0  0
   63.1860   33.5570   47.2160 C   0  0  0  0  0  0  0  0  0  0  0  0
   63.6900   33.7100   46.0710 O   0  0  0  0  0  0  0  0  0  0  0  0
   64.0760   33.0900   48.3290 C   0  0  0  0  0  0  0  0  0  0  0  0
   63.6120   33.3335   49.2962 H   0  0  0  0  0  0  0  0  0  0  0  0
   64.2171   32.0017   48.2536 H   0  0  0  0  0  0  0  0  0  0  0  0
   65.0517   33.5923   48.2536 H   0  0  0  0  0  0  0  0  0  0  0  0
   60.8280   33.6820   46.3690 C   0  0  0  0  0  0  0  0  0  0  0  0
   61.1914   33.3615   45.3815 H   0  0  0  0  0  0  0  0  0  0  0  0
   58.8100   31.3170   46.4110 N   0  0  0  0  0  0  0  0  0  0  0  0
   59.0340   31.9360   47.2240 H   0  0  0  0  0  0  0  0  0  0  0  0
  1  2  1  0
  2  3  1  0
  2  4  2  0
  4  5  1  0
  5  6  2  0
  6  7  1  0
  6  8  1  0
  8  9  1  0
  9 10  1  0
 10 11  2  0
 10 12  1  0
 12 13  1  0
 13 14  1  0
  5 15  1  0
 15 16  1  0
 15 17  2  0
 17 18  1  0
 18 19  3  0
 17 20  1  0
 20 21  1  0
 21 22  1  0
 22 23  2  0
 23 24  1  0
 23 25  1  0
 25 26  1  0
 25 27  2  0
 27 28  1  0
 27 29  1  0
 29 30  1  0
 30 31  2  0
 30 32  1  0
 32 33  1  0
 32 34  1  0
 32 35  1  0
 29 36  2  0
 36 37  1  0
 20 38  2  0
 38 39  1  0
 38  4  1  0
 13  8  2  0
 36 22  1  0
M  CHG  4   9  -1  12  -1  14  -1  38   1
M  END
>  <UniqueID>  (47) 
44

>  <SMILES>  (47) 
C=c1[nH+]c(Sc2cccc(C(C)=O)c2)c(C#N)c/c1=C/c1[n-]c(=O)[n-]c1[O-]

>  <Energy>  (47) 
88.14815060960866

>  <Genealogy>  (47) 
C=c1[nH+]c(Sc2cccc(C(C)=O)c2)c(C#N)cc1=Cc1[n-]c(=O)[n-]c1[O-] (protonated)
C=c1[nH+]c(Sc2cccc(C(C)=O)c2)c(C#N)c/c1=C/c1[n-]c(=O)[n-]c1[O-] (cis-trans isomerization)
C=c1[nH+]c(Sc2cccc(C(C)=O)c2)c(C#N)c/c1=C/c1[n-]c(=O)[n-]c1[O-] (3D coordinates assigned)
C=c1[nH+]c(Sc2cccc(C(C)=O)c2)c(C#N)c/c1=C/c1[n-]c(=O)[n-]c1[O-] (optimized conformer: 88.14815060960866 kcal/mol)

>  <smiles>  (47) 
C=c1nc(Sc2cccc(C(C)=O)c2)c(C#N)cc1=Cc1[nH]c(=O)[nH]c1O

>  <score_type>  (47) 
oracle

>  <origin>  (47) 
adg

>  <m_score__min__energy>  (47) 
-15.539999999999999

>  <m_primary>  (47) 
energy

$$$$
47:0
     RDKit          3D

 50 53  0  0  1  0  0  0  0  0999 V2000
   57.3430   32.3140   41.1090 C   0  0  0  0  0  0  0  0  0  0  0  0
   57.5210   31.8260   42.3220 C   0  0  0  0  0  0  0  0  0  0  0  0
   56.6530   30.7720   42.8870 C   0  0  0  0  0  0  0  0  0  0  0  0
   56.9900   30.4680   44.2660 N   0  0  0  0  0  0  0  0  0  0  0  0
   56.6630   29.1140   44.5630 C   0  0  0  0  0  0  0  0  0  0  0  0
   57.8490   28.1540   44.4260 C   0  0  0  0  0  0  0  0  0  0  0  0
   58.8110   28.6140   45.4850 C   0  0  0  0  0  0  0  0  0  0  0  0
   59.4390   27.7300   46.3370 C   0  0  0  0  0  0  0  0  0  0  0  0
   60.3110   28.2620   47.2800 C   0  0  0  0  0  0  0  0  0  0  0  0
   60.5290   29.6420   47.3450 C   0  0  0  0  0  0  0  0  0  0  0  0
   61.4430   30.0780   48.3500 N   0  0  0  0  0  0  0  0  0  0  0  0
   61.7410   31.3390   48.5000 C   0  0  0  0  0  0  0  0  0  0  0  0
   63.0010   31.6030   48.9100 N   0  0  0  0  0  0  0  0  0  0  0  0
   63.4170   32.8830   49.0980 C   0  0  0  0  0  0  0  0  0  0  0  0
   62.5040   33.8880   48.8540 C   0  0  0  0  0  0  0  0  0  0  0  0
   61.2140   33.5810   48.4330 C   0  0  0  0  0  0  0  0  0  0  0  0
   60.4340   34.5910   48.2310 N   0  0  0  0  0  0  0  0  0  0  0  0
   59.4710   34.4500   47.1930 C   0  0  0  0  0  0  0  0  0  0  0  0
   59.7920   34.9950   45.9450 C   0  0  0  0  0  0  0  0  0  0  0  0
   58.9550   34.9260   44.8740 C   0  0  0  0  0  0  0  0  0  0  0  0
   57.7330   34.2860   45.0380 C   0  0  0  0  0  0  0  0  0  0  0  0
   57.3880   33.7400   46.2550 C   0  0  0  0  0  0  0  0  0  0  0  0
   58.2670   33.8270   47.3350 C   0  0  0  0  0  0  0  0  0  0  0  0
   60.8340   32.3030   48.2550 N   0  0  0  0  0  0  0  0  0  0  0  0
   59.8950   30.5180   46.4850 C   0  0  0  0  0  0  0  0  0  0  0  0
   59.0260   29.9780   45.5470 C   0  0  0  0  0  0  0  0  0  0  0  0
   58.3240   30.8810   44.6050 C   0  0  0  0  0  0  0  0  0  0  0  0
   58.0133   33.0986   40.7280 H   0  0  0  0  0  0  0  0  0  0  0  0
   56.5244   31.9362   40.4788 H   0  0  0  0  0  0  0  0  0  0  0  0
   58.3458   32.2182   42.9351 H   0  0  0  0  0  0  0  0  0  0  0  0
   55.6079   31.1124   42.8441 H   0  0  0  0  0  0  0  0  0  0  0  0
   56.7998   29.8579   42.2930 H   0  0  0  0  0  0  0  0  0  0  0  0
   56.2927   29.0643   45.5976 H   0  0  0  0  0  0  0  0  0  0  0  0
   55.9044   28.7969   43.8323 H   0  0  0  0  0  0  0  0  0  0  0  0
   57.5348   27.1155   44.6072 H   0  0  0  0  0  0  0  0  0  0  0  0
   58.2900   28.1659   43.4184 H   0  0  0  0  0  0  0  0  0  0  0  0
   59.2572   26.6470   46.2730 H   0  0  0  0  0  0  0  0  0  0  0  0
   60.8331   27.5930   47.9799 H   0  0  0  0  0  0  0  0  0  0  0  0
   63.6930   30.8660   49.0960 H   0  0  0  0  0  0  0  0  0  0  0  0
   64.4407   33.1087   49.4314 H   0  0  0  0  0  0  0  0  0  0  0  0
   62.7978   34.9388   48.9932 H   0  0  0  0  0  0  0  0  0  0  0  0
   60.7615   35.5004   45.8244 H   0  0  0  0  0  0  0  0  0  0  0  0
   59.2382   35.3647   43.9058 H   0  0  0  0  0  0  0  0  0  0  0  0
   57.0358   34.2146   44.1901 H   0  0  0  0  0  0  0  0  0  0  0  0
   56.4183   33.2348   46.3753 H   0  0  0  0  0  0  0  0  0  0  0  0
   57.9871   33.3909   48.3053 H   0  0  0  0  0  0  0  0  0  0  0  0
   59.8750   32.0870   47.9430 H   0  0  0  0  0  0  0  0  0  0  0  0
   60.0722   31.6022   46.5415 H   0  0  0  0  0  0  0  0  0  0  0  0
   58.2686   31.8796   45.0631 H   0  0  0  0  0  0  0  0  0  0  0  0
   58.9026   30.8684   43.6696 H   0  0  0  0  0  0  0  0  0  0  0  0
  1  2  2  0
  2  3  1  0
  3  4  1  0
  4  5  1  0
  5  6  1  0
  6  7  1  0
  7  8  2  0
  8  9  1  0
  9 10  2  0
 10 11  1  0
 11 12  2  0
 12 13  1  0
 13 14  1  0
 14 15  2  0
 15 16  1  0
 16 17  2  0
 17 18  1  0
 18 19  2  0
 19 20  1  0
 20 21  2  0
 21 22  1  0
 22 23  2  0
 16 24  1  0
 10 25  1  0
 25 26  2  0
 26 27  1  0
 27  4  1  0
 26  7  1  0
 24 12  1  0
 23 18  1  0
  1 28  1  0
  1 29  1  0
  2 30  1  0
  3 31  1  0
  3 32  1  0
  5 33  1  0
  5 34  1  0
  6 35  1  0
  6 36  1  0
  8 37  1  0
  9 38  1  0
 13 39  1  0
 14 40  1  0
 15 41  1  0
 19 42  1  0
 20 43  1  0
 21 44  1  0
 22 45  1  0
 23 46  1  0
 24 47  1  0
 25 48  1  0
 27 49  1  0
 27 50  1  0
M  END
>  <smiles>  (48) 
C=CCN1CCc2ccc(N=c3[nH]ccc(=Nc4ccccc4)[nH]3)cc2C1

>  <score_type>  (48) 
oracle

>  <origin>  (48) 
adg

>  <m_score__min__energy>  (48) 
-9.3900000000000006

>  <m_primary>  (48) 
energy

$$$$
48:0
     RDKit          3D

 47 50  0  0  0  0  0  0  0  0999 V2000
   55.1660   27.1260   45.1280 H   0  0  0  0  0  0  0  0  0  0  0  0
   55.1990   26.5390   45.9910 N   0  0  0  0  0  0  0  0  0  0  0  0
   56.4440   26.1930   46.5960 C   0  0  0  0  0  0  0  0  0  0  0  0
   56.4910   25.2120   47.3870 O   0  0  0  0  0  0  0  0  0  0  0  0
   57.6680   26.9750   46.3020 C   0  0  0  0  0  0  0  0  0  0  0  0
   58.0600   27.2120   44.9730 C   0  0  0  0  0  0  0  0  0  0  0  0
   57.4394   26.8388   44.1450 H   0  0  0  0  0  0  0  0  0  0  0  0
   59.2320   27.9180   44.6980 C   0  0  0  0  0  0  0  0  0  0  0  0
   59.5375   28.0866   43.6548 H   0  0  0  0  0  0  0  0  0  0  0  0
   60.0180   28.4110   45.7400 C   0  0  0  0  0  0  0  0  0  0  0  0
   60.9530   28.9454   45.5161 H   0  0  0  0  0  0  0  0  0  0  0  0
   59.6190   28.2270   47.0740 C   0  0  0  0  0  0  0  0  0  0  0  0
   60.4140   28.6850   48.1790 N   0  0  0  0  0  0  0  0  0  0  0  0
   60.0370   29.5980   49.2190 C   0  0  0  0  0  0  0  0  0  0  0  0
   60.9180   30.3650   49.6930 O   0  0  0  0  0  0  0  0  0  0  0  0
   58.6320   29.6600   49.7610 C   0  0  0  0  0  0  0  0  0  0  0  0
   58.2938   28.6400   49.9960 H   0  0  0  0  0  0  0  0  0  0  0  0
   57.9866   30.1193   48.9978 H   0  0  0  0  0  0  0  0  0  0  0  0
   58.5610   30.4980   51.0070 C   0  0  0  0  0  0  0  0  0  0  0  0
   59.3499   31.2445   51.1813 H   0  0  0  0  0  0  0  0  0  0  0  0
   57.5860   30.3800   51.9130 C   0  0  0  0  0  0  0  0  0  0  0  0
   56.2860   30.1380   51.6080 N   0  0  0  0  0  0  0  0  0  0  0  0
   55.7100   30.1330   52.8280 C   0  0  0  0  0  0  0  0  0  0  0  0
   54.3450   29.9170   53.1390 C   0  0  0  0  0  0  0  0  0  0  0  0
   53.3890   29.7530   52.1900 C   0  0  0  0  0  0  0  0  0  0  0  0
   53.4046   28.8093   51.6250 H   0  0  0  0  0  0  0  0  0  0  0  0
   52.3320   30.7200   51.8450 C   0  0  0  0  0  0  0  0  0  0  0  0
   52.0070   31.7580   52.6330 N   0  0  0  0  0  0  0  0  0  0  0  0
   51.1420   32.4690   51.8790 C   0  0  0  0  0  0  0  0  0  0  0  0
   50.6160   33.5380   52.2800 O   0  0  0  0  0  0  0  0  0  0  0  0
   50.9140   31.9630   50.6490 N   0  0  0  0  0  0  0  0  0  0  0  0
   51.6900   30.8680   50.6300 C   0  0  0  0  0  0  0  0  0  0  0  0
   51.8370   30.0570   49.5070 O   0  0  0  0  0  0  0  0  0  0  0  0
   52.1840   29.1090   49.5780 H   0  0  0  0  0  0  0  0  0  0  0  0
   54.0160   29.8640   54.5330 C   0  0  0  0  0  0  0  0  0  0  0  0
   52.6070   29.6180   55.0180 C   0  0  0  0  0  0  0  0  0  0  0  0
   52.5930   29.6156   56.1179 H   0  0  0  0  0  0  0  0  0  0  0  0
   51.9464   30.4144   54.6447 H   0  0  0  0  0  0  0  0  0  0  0  0
   52.2554   28.6449   54.6447 H   0  0  0  0  0  0  0  0  0  0  0  0
   55.0210   30.0770   55.5070 C   0  0  0  0  0  0  0  0  0  0  0  0
   54.7638   30.0509   56.5762 H   0  0  0  0  0  0  0  0  0  0  0  0
   56.3370   30.3200   55.1130 C   0  0  0  0  0  0  0  0  0  0  0  0
   57.2420   30.5120   55.9700 O   0  0  0  0  0  0  0  0  0  0  0  0
   56.6210   30.3320   53.7910 N   0  0  0  0  0  0  0  0  0  0  0  0
   57.8070   30.4990   53.2410 N   0  0  0  0  0  0  0  0  0  0  0  0
   58.4610   27.4870   47.3460 C   0  0  0  0  0  0  0  0  0  0  0  0
   58.1674   27.3035   48.3901 H   0  0  0  0  0  0  0  0  0  0  0  0
  1  2  1  0
  2  3  1  0
  3  4  2  0
  3  5  1  0
  5  6  2  0
  6  7  1  0
  6  8  1  0
  8  9  1  0
  8 10  2  0
 10 11  1  0
 10 12  1  0
 12 13  1  0
 13 14  1  0
 14 15  2  0
 14 16  1  0
 16 17  1  0
 16 18  1  0
 16 19  1  0
 19 20  1  0
 19 21  2  3
 21 22  1  0
 22 23  2  0
 23 24  1  0
 24 25  2  0
 25 26  1  0
 25 27  1  0
 27 28  1  0
 28 29  1  0
 29 30  2  0
 29 31  1  0
 31 32  1  0
 32 33  1  0
 33 34  1  0
 24 35  1  0
 35 36  1  0
 36 37  1  0
 36 38  1  0
 36 39  1  0
 35 40  2  0
 40 41  1  0
 40 42  1  0
 42 43  2  0
 42 44  1  0
 44 45  1  0
 12 46  2  0
 46 47  1  0
 46  5  1  0
 45 21  1  0
 44 23  1  0
 32 27  2  0
M  CHG  5   2  -1  13  -1  28  -1  31  -1  45  -1
M  END
>  <UniqueID>  (49) 
45

>  <SMILES>  (49) 
Cc1cc(=O)n2[n-]c(=CCC(=O)[N-]c3cccc(C([NH-])=O)c3)nc2/c1=C\c1[n-]c(=O)[n-]c1O

>  <Energy>  (49) 
133.776266740423

>  <Genealogy>  (49) 
Cc1cc(=O)n2[n-]c(=CCC(=O)[N-]c3cccc(C([NH-])=O)c3)nc2c1=Cc1[n-]c(=O)[n-]c1O (protonated)
Cc1cc(=O)n2[n-]c(=CCC(=O)[N-]c3cccc(C([NH-])=O)c3)nc2/c1=C\c1[n-]c(=O)[n-]c1O (cis-trans isomerization)
Cc1cc(=O)n2[n-]c(=CCC(=O)[N-]c3cccc(C([NH-])=O)c3)nc2/c1=C\c1[n-]c(=O)[n-]c1O (3D coordinates assigned)
Cc1cc(=O)n2[n-]c(=CCC(=O)[N-]c3cccc(C([NH-])=O)c3)nc2/c1=C\c1[n-]c(=O)[n-]c1O (optimized conformer: 133.776266740423 kcal/mol)

>  <smiles>  (49) 
Cc1cc(=O)n2[nH]c(=CCC(=O)Nc3cccc(C(N)=O)c3)nc2c1=Cc1[nH]c(=O)[nH]c1O

>  <score_type>  (49) 
oracle

>  <origin>  (49) 
adg

>  <m_score__min__energy>  (49) 
-19.300000000000001

>  <m_primary>  (49) 
energy

$$$$
49:0
     RDKit          3D

 41 42  0  0  0  0  0  0  0  0999 V2000
   60.7340   29.1340   47.7600 O   0  0  0  0  0  0  0  0  0  0  0  0
   60.2190   30.0940   47.1280 C   0  0  0  0  0  0  0  0  0  0  0  0
   58.7990   29.9730   46.6600 C   0  0  0  0  0  0  0  0  0  0  0  0
   58.5360   28.3310   45.8970 S   0  0  0  0  0  0  0  0  0  0  0  0
   57.8310   28.9520   44.3340 C   0  0  0  0  0  0  0  0  0  0  0  0
   56.5420   29.6620   44.5940 C   0  0  0  0  0  0  0  0  0  0  0  0
   55.5170   29.0060   44.9230 O   0  0  0  0  0  0  0  0  0  0  0  0
   56.4920   31.0870   44.5070 N   0  0  0  0  0  0  0  0  0  0  0  0
   57.6320   31.9060   44.1160 C   0  0  0  0  0  0  0  0  0  0  0  0
   57.4090   33.3540   44.5540 C   0  0  0  0  0  0  0  0  0  0  0  0
   58.2560   33.7030   45.7520 C   0  0  0  0  0  0  0  0  0  0  0  0
   59.2600   34.6800   45.6510 C   0  0  0  0  0  0  0  0  0  0  0  0
   60.0340   35.0110   46.7670 C   0  0  0  0  0  0  0  0  0  0  0  0
   59.7940   34.3930   47.9960 C   0  0  0  0  0  0  0  0  0  0  0  0
   58.7850   33.4330   48.1110 C   0  0  0  0  0  0  0  0  0  0  0  0
   58.0210   33.0840   46.9930 C   0  0  0  0  0  0  0  0  0  0  0  0
   61.0570   31.1970   46.7460 N   0  0  0  0  0  0  0  0  0  0  0  0
   62.0080   31.7790   47.4280 C   0  0  0  0  0  0  0  0  0  0  0  0
   62.7120   32.9030   46.9460 C   0  0  0  0  0  0  0  0  0  0  0  0
   63.7140   33.4780   47.7290 C   0  0  0  0  0  0  0  0  0  0  0  0
   63.9950   32.9570   48.9880 C   0  0  0  0  0  0  0  0  0  0  0  0
   63.2620   31.8670   49.4560 C   0  0  0  0  0  0  0  0  0  0  0  0
   62.2950   31.3090   48.6780 N   0  0  0  0  0  0  0  0  0  0  0  0
   58.1205   30.0900   47.5179 H   0  0  0  0  0  0  0  0  0  0  0  0
   58.5938   30.7565   45.9157 H   0  0  0  0  0  0  0  0  0  0  0  0
   58.5419   29.6494   43.8667 H   0  0  0  0  0  0  0  0  0  0  0  0
   57.6425   28.1012   43.6628 H   0  0  0  0  0  0  0  0  0  0  0  0
   58.5422   31.5163   44.5952 H   0  0  0  0  0  0  0  0  0  0  0  0
   57.7433   31.8722   43.0222 H   0  0  0  0  0  0  0  0  0  0  0  0
   57.6720   34.0241   43.7223 H   0  0  0  0  0  0  0  0  0  0  0  0
   56.3512   33.4729   44.8314 H   0  0  0  0  0  0  0  0  0  0  0  0
   59.4378   35.1863   44.6907 H   0  0  0  0  0  0  0  0  0  0  0  0
   60.8343   35.7603   46.6768 H   0  0  0  0  0  0  0  0  0  0  0  0
   60.3995   34.6620   48.8741 H   0  0  0  0  0  0  0  0  0  0  0  0
   58.5917   32.9518   49.0811 H   0  0  0  0  0  0  0  0  0  0  0  0
   57.2329   32.3221   47.0844 H   0  0  0  0  0  0  0  0  0  0  0  0
   62.4723   33.3237   45.9583 H   0  0  0  0  0  0  0  0  0  0  0  0
   64.2807   34.3418   47.3513 H   0  0  0  0  0  0  0  0  0  0  0  0
   64.7877   33.4006   49.6083 H   0  0  0  0  0  0  0  0  0  0  0  0
   63.4659   31.4573   50.4563 H   0  0  0  0  0  0  0  0  0  0  0  0
   61.7690   30.4870   49.0540 H   0  0  0  0  0  0  0  0  0  0  0  0
  1  2  2  0
  2  3  1  0
  3  4  1  0
  4  5  1  0
  5  6  1  0
  6  7  2  0
  6  8  1  0
  8  9  1  0
  9 10  1  0
 10 11  1  0
 11 12  2  0
 12 13  1  0
 13 14  2  0
 14 15  1  0
 15 16  2  0
  2 17  1  0
 17 18  2  3
 18 19  1  0
 19 20  2  0
 20 21  1  0
 21 22  2  0
 22 23  1  0
 16 11  1  0
 23 18  1  0
  3 24  1  0
  3 25  1  0
  5 26  1  0
  5 27  1  0
  9 28  1  0
  9 29  1  0
 10 30  1  0
 10 31  1  0
 12 32  1  0
 13 33  1  0
 14 34  1  0
 15 35  1  0
 16 36  1  0
 19 37  1  0
 20 38  1  0
 21 39  1  0
 22 40  1  0
 23 41  1  0
M  CHG  1   8  -1
M  END
>  <UniqueID>  (50) 
46

>  <SMILES>  (50) 
O=C(CSCC(=O)[N-]CCc1ccccc1)N=c1cccc[nH]1

>  <Energy>  (50) 
33.834451171274864

>  <Genealogy>  (50) 
O=C(CSCC(=O)[N-]CCc1ccccc1)N=c1cccc[nH]1 (protonated)
O=C(CSCC(=O)[N-]CCc1ccccc1)N=c1cccc[nH]1 (3D coordinates assigned)
O=C(CSCC(=O)[N-]CCc1ccccc1)N=c1cccc[nH]1 (optimized conformer: 33.834451171274864 kcal/mol)

>  <smiles>  (50) 
O=C(CSCC(=O)NCCc1ccccc1)N=c1cccc[nH]1

>  <score_type>  (50) 
oracle

>  <origin>  (50) 
adg

>  <m_score__min__energy>  (50) 
-9.6300000000000008

>  <m_primary>  (50) 
energy

$$$$
50:0
     RDKit          3D

 65 68  0  0  0  0  0  0  0  0999 V2000
   58.9430   29.8680   49.2860 C   0  0  0  0  0  0  0  0  0  0  0  0
   60.1740   29.3270   48.5470 C   0  0  0  0  0  0  0  0  0  0  0  0
   60.3790   27.8410   48.8720 C   0  0  0  0  0  0  0  0  0  0  0  0
   61.4270   30.1530   48.9100 C   0  0  0  0  0  0  0  0  0  0  0  0
   61.2160   31.5960   48.6610 N   0  0  0  0  0  0  0  0  0  0  0  0
   62.0050   32.0490   47.5020 C   0  0  0  0  0  0  0  0  0  0  0  0
   61.6120   33.4890   47.1120 C   0  0  0  0  0  0  0  0  0  0  0  0
   61.1170   34.2960   48.2550 N   0  0  0  0  0  0  0  0  0  0  0  0
   59.6380   34.2980   48.3490 C   0  0  0  0  0  0  0  0  0  0  0  0
   59.0190   33.8230   47.0600 C   0  0  0  0  0  0  0  0  0  0  0  0
   58.6880   34.7470   46.0580 C   0  0  0  0  0  0  0  0  0  0  0  0
   58.0890   34.3160   44.8740 C   0  0  0  0  0  0  0  0  0  0  0  0
   57.8180   32.9600   44.6760 C   0  0  0  0  0  0  0  0  0  0  0  0
   58.1590   32.0180   45.6630 C   0  0  0  0  0  0  0  0  0  0  0  0
   57.8550   30.6210   45.5000 N   0  0  0  0  0  0  0  0  0  0  0  0
   58.8540   29.5900   45.3970 C   0  0  0  0  0  0  0  0  0  0  0  0
   60.0680   29.8730   45.5880 O   0  0  0  0  0  0  0  0  0  0  0  0
   58.4890   28.1900   45.0660 C   0  0  0  0  0  0  0  0  0  0  0  0
   58.4340   27.2260   46.0880 C   0  0  0  0  0  0  0  0  0  0  0  0
   58.0970   25.9000   45.8020 C   0  0  0  0  0  0  0  0  0  0  0  0
   57.7980   25.5080   44.4870 C   0  0  0  0  0  0  0  0  0  0  0  0
   57.4400   24.1000   44.1840 C   0  0  0  0  0  0  0  0  0  0  0  0
   56.5910   23.7920   43.1040 C   0  0  0  0  0  0  0  0  0  0  0  0
   56.2580   22.4660   42.8210 C   0  0  0  0  0  0  0  0  0  0  0  0
   56.7700   21.4310   43.6080 C   0  0  0  0  0  0  0  0  0  0  0  0
   57.6160   21.7210   44.6810 C   0  0  0  0  0  0  0  0  0  0  0  0
   57.9490   23.0490   44.9710 C   0  0  0  0  0  0  0  0  0  0  0  0
   57.8360   26.4720   43.4660 C   0  0  0  0  0  0  0  0  0  0  0  0
   58.1760   27.8000   43.7510 C   0  0  0  0  0  0  0  0  0  0  0  0
   58.7390   32.4600   46.8610 C   0  0  0  0  0  0  0  0  0  0  0  0
   61.7730   33.8990   49.5170 C   0  0  0  0  0  0  0  0  0  0  0  0
   61.5350   32.4110   49.8600 C   0  0  0  0  0  0  0  0  0  0  0  0
   59.1061   29.7963   50.3715 H   0  0  0  0  0  0  0  0  0  0  0  0
   58.7815   30.9200   49.0082 H   0  0  0  0  0  0  0  0  0  0  0  0
   58.0588   29.2755   49.0082 H   0  0  0  0  0  0  0  0  0  0  0  0
   60.0074   29.4210   47.4638 H   0  0  0  0  0  0  0  0  0  0  0  0
   60.3980   27.7036   49.9632 H   0  0  0  0  0  0  0  0  0  0  0  0
   59.5533   27.2545   48.4429 H   0  0  0  0  0  0  0  0  0  0  0  0
   61.3327   27.5000   48.4429 H   0  0  0  0  0  0  0  0  0  0  0  0
   61.6571   30.0040   49.9753 H   0  0  0  0  0  0  0  0  0  0  0  0
   62.2602   29.8119   48.2780 H   0  0  0  0  0  0  0  0  0  0  0  0
   63.0742   32.0223   47.7590 H   0  0  0  0  0  0  0  0  0  0  0  0
   61.8034   31.3818   46.6510 H   0  0  0  0  0  0  0  0  0  0  0  0
   62.4958   33.9891   46.6892 H   0  0  0  0  0  0  0  0  0  0  0  0
   60.7885   33.4152   46.3864 H   0  0  0  0  0  0  0  0  0  0  0  0
   59.3277   33.6297   49.1658 H   0  0  0  0  0  0  0  0  0  0  0  0
   59.2987   35.3258   48.5452 H   0  0  0  0  0  0  0  0  0  0  0  0
   58.9016   35.8158   46.2063 H   0  0  0  0  0  0  0  0  0  0  0  0
   57.8292   35.0465   44.0937 H   0  0  0  0  0  0  0  0  0  0  0  0
   57.3361   32.6278   43.7446 H   0  0  0  0  0  0  0  0  0  0  0  0
   56.8450   30.3580   45.5090 H   0  0  0  0  0  0  0  0  0  0  0  0
   58.6587   27.5186   47.1243 H   0  0  0  0  0  0  0  0  0  0  0  0
   58.0657   25.1577   46.6132 H   0  0  0  0  0  0  0  0  0  0  0  0
   56.1871   24.6019   42.4787 H   0  0  0  0  0  0  0  0  0  0  0  0
   55.5913   22.2356   41.9769 H   0  0  0  0  0  0  0  0  0  0  0  0
   56.5066   20.3871   43.3824 H   0  0  0  0  0  0  0  0  0  0  0  0
   58.0206   20.9053   45.2982 H   0  0  0  0  0  0  0  0  0  0  0  0
   58.6126   23.2733   45.8191 H   0  0  0  0  0  0  0  0  0  0  0  0
   57.5963   26.1808   42.4327 H   0  0  0  0  0  0  0  0  0  0  0  0
   58.1986   28.5438   42.9409 H   0  0  0  0  0  0  0  0  0  0  0  0
   58.9769   31.7335   47.6520 H   0  0  0  0  0  0  0  0  0  0  0  0
   62.8553   34.0713   49.4223 H   0  0  0  0  0  0  0  0  0  0  0  0
   61.3387   34.5041   50.3264 H   0  0  0  0  0  0  0  0  0  0  0  0
   62.4442   32.0073   50.3295 H   0  0  0  0  0  0  0  0  0  0  0  0
   60.6718   32.3583   50.5397 H   0  0  0  0  0  0  0  0  0  0  0  0
  1  2  1  0
  2  3  1  0
  2  4  1  0
  4  5  1  0
  5  6  1  0
  6  7  1  0
  7  8  1  0
  8  9  1  0
  9 10  1  0
 10 11  2  0
 11 12  1  0
 12 13  2  0
 13 14  1  0
 14 15  1  0
 15 16  1  0
 16 17  2  0
 16 18  1  0
 18 19  2  0
 19 20  1  0
 20 21  2  0
 21 22  1  0
 22 23  2  0
 23 24  1  0
 24 25  2  0
 25 26  1  0
 26 27  2  0
 21 28  1  0
 28 29  2  0
 14 30  2  0
  8 31  1  0
 31 32  1  0
 32  5  1  0
 30 10  1  0
 29 18  1  0
 27 22  1  0
  1 33  1  0
  1 34  1  0
  1 35  1  0
  2 36  1  0
  3 37  1  0
  3 38  1  0
  3 39  1  0
  4 40  1  0
  4 41  1  0
  6 42  1  0
  6 43  1  0
  7 44  1  0
  7 45  1  0
  9 46  1  0
  9 47  1  0
 11 48  1  0
 12 49  1  0
 13 50  1  0
 15 51  1  0
 19 52  1  0
 20 53  1  0
 23 54  1  0
 24 55  1  0
 25 56  1  0
 26 57  1  0
 27 58  1  0
 28 59  1  0
 29 60  1  0
 30 61  1  0
 31 62  1  0
 31 63  1  0
 32 64  1  0
 32 65  1  0
M  END
>  <UniqueID>  (51) 
47

>  <SMILES>  (51) 
CC(C)CN1CCN(Cc2cccc(NC(=O)c3ccc(-c4ccccc4)cc3)c2)CC1

>  <Energy>  (51) 
86.63817293813568

>  <Genealogy>  (51) 
CC(C)CN1CCN(Cc2cccc(NC(=O)c3ccc(-c4ccccc4)cc3)c2)CC1 (3D coordinates assigned)
CC(C)CN1CCN(Cc2cccc(NC(=O)c3ccc(-c4ccccc4)cc3)c2)CC1 (nonaromatic ring conformer: 86.63817293813568 kcal/mol)

>  <smiles>  (51) 
CC(C)CN1CCN(Cc2cccc(NC(=O)c3ccc(-c4ccccc4)cc3)c2)CC1

>  <score_type>  (51) 
oracle

>  <origin>  (51) 
adg

>  <m_score__min__energy>  (51) 
-9.7899999999999991

>  <m_primary>  (51) 
energy

$$$$
51:0
     RDKit          3D

 78 83  0  0  0  0  0  0  0  0999 V2000
   61.9660   30.6230   49.0620 C   0  0  0  0  0  0  0  0  0  0  0  0
   60.6190   30.1270   48.6350 C   0  0  0  0  0  0  0  0  0  0  0  0
   60.3230   29.8370   47.3890 O   0  0  0  0  0  0  0  0  0  0  0  0
   59.0840   29.4020   47.3460 C   0  0  0  0  0  0  0  0  0  0  0  0
   58.3970   28.9900   46.0850 C   0  0  0  0  0  0  0  0  0  0  0  0
   57.5220   30.0290   45.6480 O   0  0  0  0  0  0  0  0  0  0  0  0
   57.8870   31.3730   45.4690 C   0  0  0  0  0  0  0  0  0  0  0  0
   57.4540   32.0240   44.3110 C   0  0  0  0  0  0  0  0  0  0  0  0
   57.7940   33.3580   44.0790 C   0  0  0  0  0  0  0  0  0  0  0  0
   58.5590   34.0630   45.0110 C   0  0  0  0  0  0  0  0  0  0  0  0
   58.8820   35.3910   44.7490 O   0  0  0  0  0  0  0  0  0  0  0  0
   58.9980   33.4310   46.1920 C   0  0  0  0  0  0  0  0  0  0  0  0
   59.7410   34.1950   47.2300 C   0  0  0  0  0  0  0  0  0  0  0  0
   59.1240   35.0570   47.9130 O   0  0  0  0  0  0  0  0  0  0  0  0
   61.1800   33.9650   47.5100 C   0  0  0  0  0  0  0  0  0  0  0  0
   61.7190   34.1840   48.7920 C   0  0  0  0  0  0  0  0  0  0  0  0
   63.0690   33.9230   49.0430 C   0  0  0  0  0  0  0  0  0  0  0  0
   63.8960   33.4450   48.0250 C   0  0  0  0  0  0  0  0  0  0  0  0
   63.3710   33.2190   46.7520 C   0  0  0  0  0  0  0  0  0  0  0  0
   62.0200   33.4690   46.4940 C   0  0  0  0  0  0  0  0  0  0  0  0
   58.6600   32.0830   46.4120 C   0  0  0  0  0  0  0  0  0  0  0  0
   58.5300   29.3960   48.6100 C   0  0  0  0  0  0  0  0  0  0  0  0
   59.5150   29.8870   49.4420 C   0  0  0  0  0  0  0  0  0  0  0  0
   59.4020   30.0640   50.8980 C   0  0  0  0  0  0  0  0  0  0  0  0
   58.6040   29.3370   51.5470 O   0  0  0  0  0  0  0  0  0  0  0  0
   60.1840   31.0530   51.5850 N   0  0  0  0  0  0  0  0  0  0  0  0
   60.1720   32.4420   51.1090 C   0  0  0  0  0  0  0  0  0  0  0  0
   61.2390   33.2720   51.8310 C   0  0  0  0  0  0  0  0  0  0  0  0
   62.4250   32.4280   52.0730 N   0  0  0  0  0  0  0  0  0  0  0  0
   63.5850   33.2390   52.4920 C   0  0  0  0  0  0  0  0  0  0  0  0
   64.8550   32.6870   51.9000 C   0  0  0  0  0  0  0  0  0  0  0  0
   65.5310   33.3790   50.8830 C   0  0  0  0  0  0  0  0  0  0  0  0
   66.7080   32.8550   50.3410 C   0  0  0  0  0  0  0  0  0  0  0  0
   67.2230   31.6470   50.8140 C   0  0  0  0  0  0  0  0  0  0  0  0
   66.5700   30.9520   51.8380 C   0  0  0  0  0  0  0  0  0  0  0  0
   67.1150   29.7370   52.2820 O   0  0  0  0  0  0  0  0  0  0  0  0
   67.0820   28.5260   51.5750 C   0  0  0  0  0  0  0  0  0  0  0  0
   67.9220   28.2820   50.4720 C   0  0  0  0  0  0  0  0  0  0  0  0
   67.8460   27.0660   49.7840 C   0  0  0  0  0  0  0  0  0  0  0  0
   66.9220   26.0950   50.1820 C   0  0  0  0  0  0  0  0  0  0  0  0
   66.0710   26.3390   51.2620 C   0  0  0  0  0  0  0  0  0  0  0  0
   66.1480   27.5540   51.9530 C   0  0  0  0  0  0  0  0  0  0  0  0
   65.3670   31.4650   52.3620 C   0  0  0  0  0  0  0  0  0  0  0  0
   62.1310   31.3880   53.0850 C   0  0  0  0  0  0  0  0  0  0  0  0
   60.7360   30.7550   52.9120 C   0  0  0  0  0  0  0  0  0  0  0  0
   62.0183   30.6423   50.1606 H   0  0  0  0  0  0  0  0  0  0  0  0
   62.7449   29.9527   48.6695 H   0  0  0  0  0  0  0  0  0  0  0  0
   62.1242   31.6384   48.6695 H   0  0  0  0  0  0  0  0  0  0  0  0
   59.1493   28.7950   45.3065 H   0  0  0  0  0  0  0  0  0  0  0  0
   57.8115   28.0778   46.2724 H   0  0  0  0  0  0  0  0  0  0  0  0
   56.8406   31.4813   43.5766 H   0  0  0  0  0  0  0  0  0  0  0  0
   57.4578   33.8563   43.1578 H   0  0  0  0  0  0  0  0  0  0  0  0
   61.0749   34.5621   49.5996 H   0  0  0  0  0  0  0  0  0  0  0  0
   63.4819   34.0951   50.0479 H   0  0  0  0  0  0  0  0  0  0  0  0
   64.9592   33.2469   48.2259 H   0  0  0  0  0  0  0  0  0  0  0  0
   64.0222   32.8430   45.9491 H   0  0  0  0  0  0  0  0  0  0  0  0
   61.6104   33.2772   45.4913 H   0  0  0  0  0  0  0  0  0  0  0  0
   59.0015   31.5780   47.3276 H   0  0  0  0  0  0  0  0  0  0  0  0
   57.5186   29.0694   48.8937 H   0  0  0  0  0  0  0  0  0  0  0  0
   60.3750   32.4549   50.0280 H   0  0  0  0  0  0  0  0  0  0  0  0
   59.1840   32.8784   51.3173 H   0  0  0  0  0  0  0  0  0  0  0  0
   61.5207   34.1329   51.2070 H   0  0  0  0  0  0  0  0  0  0  0  0
   60.8403   33.6348   52.7899 H   0  0  0  0  0  0  0  0  0  0  0  0
   63.4457   34.2747   52.1487 H   0  0  0  0  0  0  0  0  0  0  0  0
   63.6617   33.2106   53.5890 H   0  0  0  0  0  0  0  0  0  0  0  0
   65.1338   34.3353   50.5119 H   0  0  0  0  0  0  0  0  0  0  0  0
   67.2304   33.3967   49.5387 H   0  0  0  0  0  0  0  0  0  0  0  0
   68.1474   31.2390   50.3793 H   0  0  0  0  0  0  0  0  0  0  0  0
   68.6406   29.0500   50.1499 H   0  0  0  0  0  0  0  0  0  0  0  0
   68.5128   26.8740   48.9305 H   0  0  0  0  0  0  0  0  0  0  0  0
   66.8653   25.1375   49.6436 H   0  0  0  0  0  0  0  0  0  0  0  0
   65.3402   25.5766   51.5697 H   0  0  0  0  0  0  0  0  0  0  0  0
   65.4706   27.7462   52.7981 H   0  0  0  0  0  0  0  0  0  0  0  0
   64.8257   30.9041   53.1381 H   0  0  0  0  0  0  0  0  0  0  0  0
   62.8884   30.5946   53.0023 H   0  0  0  0  0  0  0  0  0  0  0  0
   62.1511   31.8744   54.0714 H   0  0  0  0  0  0  0  0  0  0  0  0
   60.8186   29.6645   53.0306 H   0  0  0  0  0  0  0  0  0  0  0  0
   60.0633   31.1757   53.6739 H   0  0  0  0  0  0  0  0  0  0  0  0
  1  2  1  0
  2  3  1  0
  3  4  1  0
  4  5  1  0
  5  6  1  0
  6  7  1  0
  7  8  2  0
  8  9  1  0
  9 10  2  0
 10 11  1  0
 10 12  1  0
 12 13  1  0
 13 14  2  0
 13 15  1  0
 15 16  2  0
 16 17  1  0
 17 18  2  0
 18 19  1  0
 19 20  2  0
 12 21  2  0
  4 22  2  0
 22 23  1  0
 23 24  1  0
 24 25  2  0
 24 26  1  0
 26 27  1  0
 27 28  1  0
 28 29  1  0
 29 30  1  0
 30 31  1  0
 31 32  2  0
 32 33  1  0
 33 34  2  0
 34 35  1  0
 35 36  1  0
 36 37  1  0
 37 38  2  0
 38 39  1  0
 39 40  2  0
 40 41  1  0
 41 42  2  0
 35 43  2  0
 29 44  1  0
 44 45  1  0
 23  2  2  0
 45 26  1  0
 21  7  1  0
 43 31  1  0
 20 15  1  0
 42 37  1  0
  1 46  1  0
  1 47  1  0
  1 48  1  0
  5 49  1  0
  5 50  1  0
  8 51  1  0
  9 52  1  0
 16 53  1  0
 17 54  1  0
 18 55  1  0
 19 56  1  0
 20 57  1  0
 21 58  1  0
 22 59  1  0
 27 60  1  0
 27 61  1  0
 28 62  1  0
 28 63  1  0
 30 64  1  0
 30 65  1  0
 32 66  1  0
 33 67  1  0
 34 68  1  0
 38 69  1  0
 39 70  1  0
 40 71  1  0
 41 72  1  0
 42 73  1  0
 43 74  1  0
 44 75  1  0
 44 76  1  0
 45 77  1  0
 45 78  1  0
M  CHG  1  11  -1
M  END
>  <UniqueID>  (52) 
48

>  <SMILES>  (52) 
Cc1oc(COc2ccc([O-])c(C(=O)c3ccccc3)c2)cc1C(=O)N1CCN(Cc2cccc(Oc3ccccc3)c2)CC1

>  <Energy>  (52) 
128.58446999001745

>  <Genealogy>  (52) 
Cc1oc(COc2ccc([O-])c(C(=O)c3ccccc3)c2)cc1C(=O)N1CCN(Cc2cccc(Oc3ccccc3)c2)CC1 (protonated)
Cc1oc(COc2ccc([O-])c(C(=O)c3ccccc3)c2)cc1C(=O)N1CCN(Cc2cccc(Oc3ccccc3)c2)CC1 (3D coordinates assigned)
Cc1oc(COc2ccc([O-])c(C(=O)c3ccccc3)c2)cc1C(=O)N1CCN(Cc2cccc(Oc3ccccc3)c2)CC1 (nonaromatic ring conformer: 128.58446999001745 kcal/mol)

>  <smiles>  (52) 
Cc1oc(COc2ccc(O)c(C(=O)c3ccccc3)c2)cc1C(=O)N1CCN(Cc2cccc(Oc3ccccc3)c2)CC1

>  <score_type>  (52) 
oracle

>  <origin>  (52) 
adg

>  <m_score__min__energy>  (52) 
-13.24

>  <m_primary>  (52) 
energy

$$$$
52:0
     RDKit          3D

 43 46  0  0  0  0  0  0  0  0999 V2000
   55.1650   27.4660   45.2580 H   0  0  0  0  0  0  0  0  0  0  0  0
   55.2790   26.7840   45.9980 O   0  0  0  0  0  0  0  0  0  0  0  0
   56.0240   25.6130   45.8380 C   0  0  0  0  0  0  0  0  0  0  0  0
   55.5770   24.4450   46.4660 C   0  0  0  0  0  0  0  0  0  0  0  0
   54.6559   24.4705   47.0668 H   0  0  0  0  0  0  0  0  0  0  0  0
   56.2860   23.2450   46.3400 C   0  0  0  0  0  0  0  0  0  0  0  0
   55.7870   22.1060   46.9880 O   0  0  0  0  0  0  0  0  0  0  0  0
   55.4500   22.0490   48.3700 C   0  0  0  0  0  0  0  0  0  0  0  0
   56.3559   22.2022   48.9749 H   0  0  0  0  0  0  0  0  0  0  0  0
   54.7171   22.8359   48.6015 H   0  0  0  0  0  0  0  0  0  0  0  0
   55.0167   21.0648   48.6015 H   0  0  0  0  0  0  0  0  0  0  0  0
   57.4680   23.2220   45.5760 C   0  0  0  0  0  0  0  0  0  0  0  0
   58.0349   22.2852   45.4712 H   0  0  0  0  0  0  0  0  0  0  0  0
   57.9230   24.3840   44.9510 C   0  0  0  0  0  0  0  0  0  0  0  0
   58.8572   24.3612   44.3706 H   0  0  0  0  0  0  0  0  0  0  0  0
   57.1980   25.5820   45.0570 C   0  0  0  0  0  0  0  0  0  0  0  0
   57.7280   26.8050   44.4320 C   0  0  0  0  0  0  0  0  0  0  0  0
   57.7483   26.8439   43.3329 H   0  0  0  0  0  0  0  0  0  0  0  0
   58.1900   27.8800   45.0990 C   0  0  0  0  0  0  0  0  0  0  0  0
   57.4190   28.9780   45.4290 C   0  0  0  0  0  0  0  0  0  0  0  0
   56.0750   29.1680   45.1220 O   0  0  0  0  0  0  0  0  0  0  0  0
   58.2160   29.8470   46.1380 C   0  0  0  0  0  0  0  0  0  0  0  0
   57.8000   31.1660   46.7180 C   0  0  0  0  0  0  0  0  0  0  0  0
   56.9801   30.9290   47.4119 H   0  0  0  0  0  0  0  0  0  0  0  0
   58.9700   31.8680   47.3510 C   0  0  0  0  0  0  0  0  0  0  0  0
   59.6130   31.4390   48.3460 O   0  0  0  0  0  0  0  0  0  0  0  0
   59.2460   33.1220   46.6620 C   0  0  0  0  0  0  0  0  0  0  0  0
   60.2370   34.0730   46.9120 C   0  0  0  0  0  0  0  0  0  0  0  0
   60.9589   33.9351   47.7304 H   0  0  0  0  0  0  0  0  0  0  0  0
   60.2870   35.2120   46.0890 C   0  0  0  0  0  0  0  0  0  0  0  0
   61.0571   35.9785   46.2609 H   0  0  0  0  0  0  0  0  0  0  0  0
   59.3540   35.3760   45.0440 C   0  0  0  0  0  0  0  0  0  0  0  0
   59.4003   36.2700   44.4048 H   0  0  0  0  0  0  0  0  0  0  0  0
   58.3660   34.4040   44.8150 C   0  0  0  0  0  0  0  0  0  0  0  0
   57.6337   34.5239   44.0030 H   0  0  0  0  0  0  0  0  0  0  0  0
   58.3380   33.2820   45.6450 C   0  0  0  0  0  0  0  0  0  0  0  0
   57.4360   32.1400   45.6320 C   0  0  0  0  0  0  0  0  0  0  0  0
   56.4750   31.9950   44.8300 O   0  0  0  0  0  0  0  0  0  0  0  0
   59.4250   29.3430   46.2350 O   0  0  0  0  0  0  0  0  0  0  0  0
   59.4620   28.1800   45.6170 C   0  0  0  0  0  0  0  0  0  0  0  0
   60.5960   27.4860   45.5050 C   0  0  0  0  0  0  0  0  0  0  0  0
   60.5988   26.5173   44.9838 H   0  0  0  0  0  0  0  0  0  0  0  0
   61.5281   27.8825   45.9339 H   0  0  0  0  0  0  0  0  0  0  0  0
  1  2  1  0
  2  3  1  0
  3  4  2  0
  4  5  1  0
  4  6  1  0
  6  7  1  0
  7  8  1  0
  8  9  1  0
  8 10  1  0
  8 11  1  0
  6 12  2  0
 12 13  1  0
 12 14  1  0
 14 15  1  0
 14 16  2  0
 16 17  1  0
 17 18  1  0
 17 19  2  0
 19 20  1  0
 20 21  1  0
 20 22  2  0
 22 23  1  0
 23 24  1  0
 23 25  1  0
 25 26  2  0
 25 27  1  0
 27 28  2  0
 28 29  1  0
 28 30  1  0
 30 31  1  0
 30 32  2  0
 32 33  1  0
 32 34  1  0
 34 35  1  0
 34 36  2  0
 36 37  1  0
 37 38  2  0
 22 39  1  0
 39 40  1  0
 40 41  2  0
 41 42  1  0
 41 43  1  0
 16  3  1  0
 40 19  1  0
 37 23  1  0
 36 27  1  0
M  CHG  1  21  -1
M  END
>  <UniqueID>  (53) 
49

>  <SMILES>  (53) 
C=c1oc(C2C(=O)c3ccccc3C2=O)c([O-])/c1=C/c1ccc(OC)cc1O

>  <Energy>  (53) 
107.86893077040519

>  <Genealogy>  (53) 
C=c1oc(C2C(=O)c3ccccc3C2=O)c([O-])c1=Cc1ccc(OC)cc1O (protonated)
C=c1oc(C2C(=O)c3ccccc3C2=O)c([O-])/c1=C/c1ccc(OC)cc1O (cis-trans isomerization)
C=c1oc(C2C(=O)c3ccccc3C2=O)c([O-])/c1=C/c1ccc(OC)cc1O (3D coordinates assigned)
C=c1oc(C2C(=O)c3ccccc3C2=O)c([O-])/c1=C/c1ccc(OC)cc1O (nonaromatic ring conformer: 107.86893077040519 kcal/mol)

>  <smiles>  (53) 
C=c1oc(C2C(=O)c3ccccc3C2=O)c(O)c1=Cc1ccc(OC)cc1O

>  <score_type>  (53) 
oracle

>  <origin>  (53) 
adg

>  <m_score__min__energy>  (53) 
-12.199999999999999

>  <m_primary>  (53) 
energy

$$$$
53:0
     RDKit          3D

 55 58  0  0  0  0  0  0  0  0999 V2000
   59.5830   34.6180   46.1660 C   0  0  0  0  0  0  0  0  0  0  0  0
   58.9220   34.2970   47.2810 C   0  0  0  0  0  0  0  0  0  0  0  0
   59.5990   34.3500   48.6220 C   0  0  0  0  0  0  0  0  0  0  0  0
   59.6210   33.0180   49.2550 N   0  0  0  0  0  0  0  0  0  0  0  0
   60.4320   31.9650   48.6200 C   0  0  0  0  0  0  0  0  0  0  0  0
   61.9100   32.1840   48.8480 C   0  0  0  0  0  0  0  0  0  0  0  0
   62.4430   32.3050   50.1420 C   0  0  0  0  0  0  0  0  0  0  0  0
   63.8070   32.5420   50.3170 C   0  0  0  0  0  0  0  0  0  0  0  0
   64.6280   32.6760   49.1960 C   0  0  0  0  0  0  0  0  0  0  0  0
   64.0990   32.5780   47.9470 N   0  0  0  0  0  0  0  0  0  0  0  0
   62.7730   32.3420   47.7520 C   0  0  0  0  0  0  0  0  0  0  0  0
   58.9350   32.7700   50.5100 C   0  0  0  0  0  0  0  0  0  0  0  0
   58.9610   33.7230   51.5470 C   0  0  0  0  0  0  0  0  0  0  0  0
   58.3140   33.4770   52.7580 C   0  0  0  0  0  0  0  0  0  0  0  0
   57.6310   32.2770   52.9600 C   0  0  0  0  0  0  0  0  0  0  0  0
   57.5840   31.3100   51.9440 C   0  0  0  0  0  0  0  0  0  0  0  0
   56.8770   30.0260   52.1670 C   0  0  0  0  0  0  0  0  0  0  0  0
   57.5100   28.9420   52.0520 O   0  0  0  0  0  0  0  0  0  0  0  0
   55.4730   29.9920   52.4850 N   0  0  0  0  0  0  0  0  0  0  0  0
   54.9180   28.8390   53.1990 C   0  0  0  0  0  0  0  0  0  0  0  0
   53.8650   29.3100   54.2020 C   0  0  0  0  0  0  0  0  0  0  0  0
   52.8870   30.2710   53.5770 C   0  0  0  0  0  0  0  0  0  0  0  0
   51.6400   30.4690   54.1900 C   0  0  0  0  0  0  0  0  0  0  0  0
   50.7350   31.3950   53.6660 C   0  0  0  0  0  0  0  0  0  0  0  0
   51.0700   32.1410   52.5350 C   0  0  0  0  0  0  0  0  0  0  0  0
   50.1660   33.0590   52.0160 O   0  0  0  0  0  0  0  0  0  0  0  0
   52.3140   31.9620   51.9240 C   0  0  0  0  0  0  0  0  0  0  0  0
   53.2360   31.0400   52.4430 C   0  0  0  0  0  0  0  0  0  0  0  0
   54.5560   30.8540   51.7320 C   0  0  0  0  0  0  0  0  0  0  0  0
   58.2480   31.5590   50.7310 C   0  0  0  0  0  0  0  0  0  0  0  0
   59.0731   34.5740   45.1923 H   0  0  0  0  0  0  0  0  0  0  0  0
   60.6374   34.9264   46.2212 H   0  0  0  0  0  0  0  0  0  0  0  0
   57.8677   33.9896   47.2173 H   0  0  0  0  0  0  0  0  0  0  0  0
   60.6325   34.7027   48.4897 H   0  0  0  0  0  0  0  0  0  0  0  0
   59.0377   35.0379   49.2715 H   0  0  0  0  0  0  0  0  0  0  0  0
   60.1464   30.9909   49.0437 H   0  0  0  0  0  0  0  0  0  0  0  0
   60.2441   31.9939   47.5365 H   0  0  0  0  0  0  0  0  0  0  0  0
   61.7845   32.2128   51.0183 H   0  0  0  0  0  0  0  0  0  0  0  0
   64.2312   32.6225   51.3287 H   0  0  0  0  0  0  0  0  0  0  0  0
   65.7048   32.8612   49.3231 H   0  0  0  0  0  0  0  0  0  0  0  0
   64.7250   32.6880   47.1180 H   0  0  0  0  0  0  0  0  0  0  0  0
   62.3747   32.2746   46.7288 H   0  0  0  0  0  0  0  0  0  0  0  0
   59.4976   34.6719   51.4001 H   0  0  0  0  0  0  0  0  0  0  0  0
   58.3423   34.2322   53.5573 H   0  0  0  0  0  0  0  0  0  0  0  0
   57.1274   32.0882   53.9195 H   0  0  0  0  0  0  0  0  0  0  0  0
   54.4532   28.1514   52.4771 H   0  0  0  0  0  0  0  0  0  0  0  0
   55.7259   28.3209   53.7364 H   0  0  0  0  0  0  0  0  0  0  0  0
   53.3140   28.4349   54.5771 H   0  0  0  0  0  0  0  0  0  0  0  0
   54.3820   29.8324   55.0205 H   0  0  0  0  0  0  0  0  0  0  0  0
   51.3740   29.8919   55.0879 H   0  0  0  0  0  0  0  0  0  0  0  0
   49.7555   31.5367   54.1461 H   0  0  0  0  0  0  0  0  0  0  0  0
   52.5724   32.5481   51.0297 H   0  0  0  0  0  0  0  0  0  0  0  0
   54.3678   30.3980   50.7488 H   0  0  0  0  0  0  0  0  0  0  0  0
   55.0277   31.8425   51.6305 H   0  0  0  0  0  0  0  0  0  0  0  0
   58.2315   30.7952   49.9396 H   0  0  0  0  0  0  0  0  0  0  0  0
  1  2  2  0
  2  3  1  0
  3  4  1  0
  4  5  1  0
  5  6  1  0
  6  7  2  0
  7  8  1  0
  8  9  2  0
  9 10  1  0
 10 11  2  0
  4 12  1  0
 12 13  2  0
 13 14  1  0
 14 15  2  0
 15 16  1  0
 16 17  1  0
 17 18  2  0
 17 19  1  0
 19 20  1  0
 20 21  1  0
 21 22  1  0
 22 23  2  0
 23 24  1  0
 24 25  2  0
 25 26  1  0
 25 27  1  0
 27 28  2  0
 28 29  1  0
 16 30  2  0
 11  6  1  0
 30 12  1  0
 29 19  1  0
 28 22  1  0
  1 31  1  0
  1 32  1  0
  2 33  1  0
  3 34  1  0
  3 35  1  0
  5 36  1  0
  5 37  1  0
  7 38  1  0
  8 39  1  0
  9 40  1  0
 10 41  1  0
 11 42  1  0
 13 43  1  0
 14 44  1  0
 15 45  1  0
 20 46  1  0
 20 47  1  0
 21 48  1  0
 21 49  1  0
 23 50  1  0
 24 51  1  0
 27 52  1  0
 29 53  1  0
 29 54  1  0
 30 55  1  0
M  CHG  2  10   1  26  -1
M  END
>  <UniqueID>  (54) 
50

>  <SMILES>  (54) 
C=CCN(Cc1ccc[nH+]c1)c1cccc(C(=O)N2CCc3ccc([O-])cc3C2)c1

>  <Energy>  (54) 
64.96488234778442

>  <Genealogy>  (54) 
C=CCN(Cc1ccc[nH+]c1)c1cccc(C(=O)N2CCc3ccc([O-])cc3C2)c1 (protonated)
C=CCN(Cc1ccc[nH+]c1)c1cccc(C(=O)N2CCc3ccc([O-])cc3C2)c1 (3D coordinates assigned)
C=CCN(Cc1ccc[nH+]c1)c1cccc(C(=O)N2CCc3ccc([O-])cc3C2)c1 (nonaromatic ring conformer: 64.96488234778442 kcal/mol)

>  <smiles>  (54) 
C=CCN(Cc1cccnc1)c1cccc(C(=O)N2CCc3ccc(O)cc3C2)c1

>  <score_type>  (54) 
oracle

>  <origin>  (54) 
adg

>  <m_score__min__energy>  (54) 
-12.02

>  <m_primary>  (54) 
energy

$$$$
54:0
     RDKit          3D

 18 18  0  0  1  0  0  0  0  0999 V2000
   56.3470   31.0300   44.5250 O   0  0  0  0  0  0  0  0  0  0  0  0
   56.2260   29.8180   44.2640 C   0  0  0  0  0  0  0  0  0  0  0  0
   55.1880   29.1290   44.8640 O   0  0  0  0  0  0  0  0  0  0  0  0
   57.1160   29.0600   43.3550 C   0  0  0  0  0  0  0  0  0  0  0  0
   58.2860   28.5450   44.0370 N   0  0  0  0  0  0  0  0  0  0  0  0
   58.2070   27.7350   45.0400 C   0  0  0  0  0  0  0  0  0  0  0  0
   59.2880   27.5520   45.8390 N   0  0  0  0  0  0  0  0  0  0  0  0
   59.2440   26.7210   46.8860 N   0  0  0  0  0  0  0  0  0  0  0  0
   58.0890   26.0520   47.1440 C   0  0  0  0  0  0  0  0  0  0  0  0
   56.9780   26.2270   46.3410 C   0  0  0  0  0  0  0  0  0  0  0  0
   55.8850   25.6070   46.5690 O   0  0  0  0  0  0  0  0  0  0  0  0
   57.0580   27.0810   45.2830 N   0  0  0  0  0  0  0  0  0  0  0  0
   55.1460   28.1180   44.8720 H   0  0  0  0  0  0  0  0  0  0  0  0
   56.5529   28.2155   42.9311 H   0  0  0  0  0  0  0  0  0  0  0  0
   57.4596   29.7478   42.5683 H   0  0  0  0  0  0  0  0  0  0  0  0
   60.1650   28.0670   45.6330 H   0  0  0  0  0  0  0  0  0  0  0  0
   58.0382   25.3642   48.0009 H   0  0  0  0  0  0  0  0  0  0  0  0
   56.1970   27.1960   44.6870 H   0  0  0  0  0  0  0  0  0  0  0  0
  1  2  2  0
  2  3  1  0
  2  4  1  0
  4  5  1  0
  5  6  2  0
  6  7  1  0
  7  8  1  0
  8  9  2  0
  9 10  1  0
 10 11  2  0
 10 12  1  0
 12  6  1  0
  3 13  1  0
  4 14  1  0
  4 15  1  0
  7 16  1  0
  9 17  1  0
 12 18  1  0
M  END
>  <smiles>  (55) 
O=C(O)CN=c1[nH]ncc(=O)[nH]1

>  <score_type>  (55) 
oracle

>  <origin>  (55) 
adg

>  <m_score__min__energy>  (55) 
-6.1600000000000001

>  <m_primary>  (55) 
energy

$$$$
55:0
     RDKit          3D

 41 43  0  0  0  0  0  0  0  0999 V2000
   59.9780   34.5890   48.5920 C   0  0  0  0  0  0  0  0  0  0  0  0
   59.3880   33.8980   47.3980 C   0  0  0  0  0  0  0  0  0  0  0  0
   59.0520   34.6250   46.2480 C   0  0  0  0  0  0  0  0  0  0  0  0
   58.4700   33.9840   45.1510 C   0  0  0  0  0  0  0  0  0  0  0  0
   58.2210   32.6030   45.1880 C   0  0  0  0  0  0  0  0  0  0  0  0
   57.5570   31.9220   44.0270 C   0  0  0  0  0  0  0  0  0  0  0  0
   56.3560   31.2440   44.4960 N   0  0  0  0  0  0  0  0  0  0  0  0
   56.2690   29.8280   44.6730 C   0  0  0  0  0  0  0  0  0  0  0  0
   55.1490   29.2700   44.8240 O   0  0  0  0  0  0  0  0  0  0  0  0
   57.5180   29.0110   44.7270 C   0  0  0  0  0  0  0  0  0  0  0  0
   57.7750   28.3260   46.3970 S   0  0  0  0  0  0  0  0  0  0  0  0
   56.8840   26.8060   46.0810 C   0  0  0  0  0  0  0  0  0  0  0  0
   55.5650   26.6550   46.2910 N   0  0  0  0  0  0  0  0  0  0  0  0
   55.2760   25.4050   45.9700 N   0  0  0  0  0  0  0  0  0  0  0  0
   56.4320   24.8260   45.5800 C   0  0  0  0  0  0  0  0  0  0  0  0
   56.5190   23.4260   45.0930 C   0  0  0  0  0  0  0  0  0  0  0  0
   57.7170   23.0040   44.4810 C   0  0  0  0  0  0  0  0  0  0  0  0
   57.8840   21.6780   44.0800 C   0  0  0  0  0  0  0  0  0  0  0  0
   56.8630   20.7510   44.2870 C   0  0  0  0  0  0  0  0  0  0  0  0
   55.6600   21.1550   44.8680 C   0  0  0  0  0  0  0  0  0  0  0  0
   55.4640   22.4890   45.2490 C   0  0  0  0  0  0  0  0  0  0  0  0
   54.2030   22.8390   45.7400 O   0  0  0  0  0  0  0  0  0  0  0  0
   57.4700   25.6870   45.6160 N   0  0  0  0  0  0  0  0  0  0  0  0
   58.5190   31.8810   46.3550 C   0  0  0  0  0  0  0  0  0  0  0  0
   59.1000   32.5220   47.4530 C   0  0  0  0  0  0  0  0  0  0  0  0
   59.5863   34.1302   49.5118 H   0  0  0  0  0  0  0  0  0  0  0  0
   61.0732   34.4885   48.5698 H   0  0  0  0  0  0  0  0  0  0  0  0
   59.7071   35.6549   48.5698 H   0  0  0  0  0  0  0  0  0  0  0  0
   59.2475   35.7068   46.2086 H   0  0  0  0  0  0  0  0  0  0  0  0
   58.2058   34.5642   44.2546 H   0  0  0  0  0  0  0  0  0  0  0  0
   57.2851   32.6699   43.2675 H   0  0  0  0  0  0  0  0  0  0  0  0
   58.2469   31.1894   43.5828 H   0  0  0  0  0  0  0  0  0  0  0  0
   57.4386   28.1836   44.0065 H   0  0  0  0  0  0  0  0  0  0  0  0
   58.3721   29.6574   44.4768 H   0  0  0  0  0  0  0  0  0  0  0  0
   58.5289   23.7280   44.3179 H   0  0  0  0  0  0  0  0  0  0  0  0
   58.8224   21.3634   43.5999 H   0  0  0  0  0  0  0  0  0  0  0  0
   57.0058   19.7009   43.9922 H   0  0  0  0  0  0  0  0  0  0  0  0
   54.8582   20.4192   45.0283 H   0  0  0  0  0  0  0  0  0  0  0  0
   53.9680   23.7570   46.0940 H   0  0  0  0  0  0  0  0  0  0  0  0
   58.2941   30.8054   46.4054 H   0  0  0  0  0  0  0  0  0  0  0  0
   59.3327   31.9489   48.3626 H   0  0  0  0  0  0  0  0  0  0  0  0
  1  2  1  0
  2  3  2  0
  3  4  1  0
  4  5  2  0
  5  6  1  0
  6  7  1  0
  7  8  1  0
  8  9  2  0
  8 10  1  0
 10 11  1  0
 11 12  1  0
 12 13  2  0
 13 14  1  0
 14 15  1  0
 15 16  1  0
 16 17  2  0
 17 18  1  0
 18 19  2  0
 19 20  1  0
 20 21  2  0
 21 22  1  0
 15 23  2  0
  5 24  1  0
 24 25  2  0
 25  2  1  0
 23 12  1  0
 21 16  1  0
  1 26  1  0
  1 27  1  0
  1 28  1  0
  3 29  1  0
  4 30  1  0
  6 31  1  0
  6 32  1  0
 10 33  1  0
 10 34  1  0
 17 35  1  0
 18 36  1  0
 19 37  1  0
 20 38  1  0
 22 39  1  0
 24 40  1  0
 25 41  1  0
M  CHG  2   7  -1  14  -1
M  END
>  <UniqueID>  (56) 
51

>  <SMILES>  (56) 
Cc1ccc(C[N-]C(=O)CSc2n[n-]c(-c3ccccc3O)n2)cc1

>  <Energy>  (56) 
71.13961158227778

>  <Genealogy>  (56) 
Cc1ccc(C[N-]C(=O)CSc2n[n-]c(-c3ccccc3O)n2)cc1 (protonated)
Cc1ccc(C[N-]C(=O)CSc2n[n-]c(-c3ccccc3O)n2)cc1 (3D coordinates assigned)
Cc1ccc(C[N-]C(=O)CSc2n[n-]c(-c3ccccc3O)n2)cc1 (optimized conformer: 71.13961158227778 kcal/mol)

>  <smiles>  (56) 
Cc1ccc(CNC(=O)CSc2n[nH]c(-c3ccccc3O)n2)cc1

>  <score_type>  (56) 
oracle

>  <origin>  (56) 
adg

>  <m_score__min__energy>  (56) 
-12.390000000000001

>  <m_primary>  (56) 
energy

$$$$
56:0
     RDKit          3D

 69 73  0  0  0  0  0  0  0  0999 V2000
   56.2020   28.9740   44.7320 C   0  0  0  0  0  0  0  0  0  0  0  0
   56.0450   27.8780   45.6250 O   0  0  0  0  0  0  0  0  0  0  0  0
   56.8570   26.7300   45.6320 C   0  0  0  0  0  0  0  0  0  0  0  0
   56.4280   25.5200   45.0570 C   0  0  0  0  0  0  0  0  0  0  0  0
   57.2670   24.4040   45.0460 C   0  0  0  0  0  0  0  0  0  0  0  0
   58.5550   24.4690   45.6040 C   0  0  0  0  0  0  0  0  0  0  0  0
   59.4250   23.2680   45.5950 C   0  0  0  0  0  0  0  0  0  0  0  0
   60.8500   23.3800   45.5410 N   0  0  0  0  0  0  0  0  0  0  0  0
   58.9050   22.1230   45.6730 O   0  0  0  0  0  0  0  0  0  0  0  0
   58.9920   25.6810   46.1640 C   0  0  0  0  0  0  0  0  0  0  0  0
   58.1450   26.8020   46.2060 C   0  0  0  0  0  0  0  0  0  0  0  0
   58.6290   28.0460   46.8390 C   0  0  0  0  0  0  0  0  0  0  0  0
   59.2270   28.0260   48.1050 C   0  0  0  0  0  0  0  0  0  0  0  0
   59.6560   29.2330   48.6690 C   0  0  0  0  0  0  0  0  0  0  0  0
   60.2780   29.2740   50.0120 C   0  0  0  0  0  0  0  0  0  0  0  0
   60.3070   28.2290   50.7190 O   0  0  0  0  0  0  0  0  0  0  0  0
   60.8640   30.5260   50.5460 C   0  0  0  0  0  0  0  0  0  0  0  0
   62.2650   30.6520   50.5830 C   0  0  0  0  0  0  0  0  0  0  0  0
   62.8770   31.8310   51.0390 C   0  0  0  0  0  0  0  0  0  0  0  0
   64.3540   31.9790   51.0000 C   0  0  0  0  0  0  0  0  0  0  0  0
   65.1860   31.0960   51.7170 C   0  0  0  0  0  0  0  0  0  0  0  0
   66.5770   31.2330   51.6640 C   0  0  0  0  0  0  0  0  0  0  0  0
   67.1530   32.2480   50.8970 C   0  0  0  0  0  0  0  0  0  0  0  0
   68.5020   32.3810   50.8530 F   0  0  0  0  0  0  0  0  0  0  0  0
   66.3400   33.1270   50.1780 C   0  0  0  0  0  0  0  0  0  0  0  0
   64.9480   32.9950   50.2280 C   0  0  0  0  0  0  0  0  0  0  0  0
   62.0680   32.8760   51.5100 C   0  0  0  0  0  0  0  0  0  0  0  0
   60.6780   32.7550   51.4990 C   0  0  0  0  0  0  0  0  0  0  0  0
   60.0590   31.5970   51.0040 C   0  0  0  0  0  0  0  0  0  0  0  0
   58.2870   31.5680   50.9320 S   0  0  0  0  0  0  0  0  0  0  0  0
   57.6050   32.4970   52.2880 C   0  0  0  0  0  0  0  0  0  0  0  0
   57.7770   30.1550   50.9740 O   0  0  0  0  0  0  0  0  0  0  0  0
   57.8300   32.1920   49.6410 O   0  0  0  0  0  0  0  0  0  0  0  0
   59.4810   30.3850   47.9700 N   0  0  0  0  0  0  0  0  0  0  0  0
   58.9280   30.3990   46.7290 C   0  0  0  0  0  0  0  0  0  0  0  0
   58.7840   31.6450   46.0150 N   0  0  0  0  0  0  0  0  0  0  0  0
   59.3820   32.8710   46.5580 C   0  0  0  0  0  0  0  0  0  0  0  0
   58.6950   34.1090   45.9750 C   0  0  0  0  0  0  0  0  0  0  0  0
   58.6330   34.0360   44.5650 O   0  0  0  0  0  0  0  0  0  0  0  0
   57.7950   32.9640   44.1840 C   0  0  0  0  0  0  0  0  0  0  0  0
   58.4060   31.6230   44.5960 C   0  0  0  0  0  0  0  0  0  0  0  0
   58.5080   29.2280   46.1750 N   0  0  0  0  0  0  0  0  0  0  0  0
   56.3348   29.9010   45.3091 H   0  0  0  0  0  0  0  0  0  0  0  0
   57.0854   28.8069   44.0982 H   0  0  0  0  0  0  0  0  0  0  0  0
   55.3072   29.0616   44.0982 H   0  0  0  0  0  0  0  0  0  0  0  0
   55.4240   25.4525   44.6127 H   0  0  0  0  0  0  0  0  0  0  0  0
   56.9159   23.4638   44.5957 H   0  0  0  0  0  0  0  0  0  0  0  0
   61.4380   22.5190   45.5030 H   0  0  0  0  0  0  0  0  0  0  0  0
   61.3300   24.3010   45.6340 H   0  0  0  0  0  0  0  0  0  0  0  0
   60.0098   25.7537   46.5748 H   0  0  0  0  0  0  0  0  0  0  0  0
   59.3574   27.0778   48.6471 H   0  0  0  0  0  0  0  0  0  0  0  0
   62.8920   29.8122   50.2489 H   0  0  0  0  0  0  0  0  0  0  0  0
   64.7386   30.2938   52.3223 H   0  0  0  0  0  0  0  0  0  0  0  0
   67.2186   30.5398   52.2277 H   0  0  0  0  0  0  0  0  0  0  0  0
   66.7947   33.9242   49.5716 H   0  0  0  0  0  0  0  0  0  0  0  0
   64.3130   33.6905   49.6597 H   0  0  0  0  0  0  0  0  0  0  0  0
   62.5329   33.7974   51.8907 H   0  0  0  0  0  0  0  0  0  0  0  0
   60.0588   33.5788   51.8837 H   0  0  0  0  0  0  0  0  0  0  0  0
   57.9321   32.0514   53.2390 H   0  0  0  0  0  0  0  0  0  0  0  0
   57.9547   33.5384   52.2316 H   0  0  0  0  0  0  0  0  0  0  0  0
   56.5067   32.4754   52.2316 H   0  0  0  0  0  0  0  0  0  0  0  0
   59.2674   32.8754   47.6520 H   0  0  0  0  0  0  0  0  0  0  0  0
   60.4478   32.8960   46.2872 H   0  0  0  0  0  0  0  0  0  0  0  0
   57.6734   34.1765   46.3771 H   0  0  0  0  0  0  0  0  0  0  0  0
   59.2785   34.9985   46.2549 H   0  0  0  0  0  0  0  0  0  0  0  0
   56.8165   33.0798   44.6731 H   0  0  0  0  0  0  0  0  0  0  0  0
   57.6806   32.9778   43.0901 H   0  0  0  0  0  0  0  0  0  0  0  0
   57.6694   30.8231   44.4298 H   0  0  0  0  0  0  0  0  0  0  0  0
   59.3061   31.4409   43.9905 H   0  0  0  0  0  0  0  0  0  0  0  0
  1  2  1  0
  2  3  1  0
  3  4  2  0
  4  5  1  0
  5  6  2  0
  6  7  1  0
  7  8  1  0
  7  9  2  0
  6 10  1  0
 10 11  2  0
 11 12  1  0
 12 13  2  0
 13 14  1  0
 14 15  1  0
 15 16  2  0
 15 17  1  0
 17 18  2  0
 18 19  1  0
 19 20  1  0
 20 21  2  0
 21 22  1  0
 22 23  2  0
 23 24  1  0
 23 25  1  0
 25 26  2  0
 19 27  2  0
 27 28  1  0
 28 29  2  0
 29 30  1  0
 30 31  1  0
 30 32  2  0
 30 33  2  0
 14 34  2  0
 34 35  1  0
 35 36  1  0
 36 37  1  0
 37 38  1  0
 38 39  1  0
 39 40  1  0
 40 41  1  0
 35 42  2  0
 11  3  1  0
 42 12  1  0
 29 17  1  0
 41 36  1  0
 26 20  1  0
  1 43  1  0
  1 44  1  0
  1 45  1  0
  4 46  1  0
  5 47  1  0
  8 48  1  0
  8 49  1  0
 10 50  1  0
 13 51  1  0
 18 52  1  0
 21 53  1  0
 22 54  1  0
 25 55  1  0
 26 56  1  0
 27 57  1  0
 28 58  1  0
 31 59  1  0
 31 60  1  0
 31 61  1  0
 37 62  1  0
 37 63  1  0
 38 64  1  0
 38 65  1  0
 40 66  1  0
 40 67  1  0
 41 68  1  0
 41 69  1  0
M  END
>  <UniqueID>  (57) 
52

>  <SMILES>  (57) 
COc1ccc(C(N)=O)cc1-c1cc(C(=O)c2cc(-c3ccc(F)cc3)ccc2S(C)(=O)=O)nc(N2CCOCC2)n1

>  <Energy>  (57) 
93.04596310430856

>  <Genealogy>  (57) 
COc1ccc(C(N)=O)cc1-c1cc(C(=O)c2cc(-c3ccc(F)cc3)ccc2S(C)(=O)=O)nc(N2CCOCC2)n1 (3D coordinates assigned)
COc1ccc(C(N)=O)cc1-c1cc(C(=O)c2cc(-c3ccc(F)cc3)ccc2S(C)(=O)=O)nc(N2CCOCC2)n1 (nonaromatic ring conformer: 93.04596310430856 kcal/mol)

>  <smiles>  (57) 
COc1ccc(C(N)=O)cc1-c1cc(C(=O)c2cc(-c3ccc(F)cc3)ccc2S(C)(=O)=O)nc(N2CCOCC2)n1

>  <score_type>  (57) 
oracle

>  <origin>  (57) 
adg

>  <m_score__min__energy>  (57) 
-9.7100000000000009

>  <m_primary>  (57) 
energy

$$$$
57:0
     RDKit          3D

 29 30  0  0  0  0  0  0  0  0999 V2000
   57.0580   31.0970   43.7700 C   0  0  0  0  0  0  0  0  0  0  0  0
   57.8100   29.8530   43.5710 N   0  0  0  0  0  0  0  0  0  0  0  0
   57.6700   28.9340   44.6820 C   0  0  0  0  0  0  0  0  0  0  0  0
   56.5040   28.2450   44.8550 N   0  0  0  0  0  0  0  0  0  0  0  0
   56.3080   27.3820   45.8840 C   0  0  0  0  0  0  0  0  0  0  0  0
   55.1030   26.7030   45.9960 O   0  0  0  0  0  0  0  0  0  0  0  0
   57.3150   27.1810   46.8250 C   0  0  0  0  0  0  0  0  0  0  0  0
   58.5130   27.8870   46.7110 C   0  0  0  0  0  0  0  0  0  0  0  0
   59.4050   27.7280   47.5880 O   0  0  0  0  0  0  0  0  0  0  0  0
   58.7080   28.7810   45.6370 C   0  0  0  0  0  0  0  0  0  0  0  0
   59.9610   29.5690   45.5450 C   0  0  0  0  0  0  0  0  0  0  0  0
   60.7560   29.3330   44.5950 O   0  0  0  0  0  0  0  0  0  0  0  0
   60.2910   30.6420   46.5180 C   0  0  0  0  0  0  0  0  0  0  0  0
   61.5760   30.6880   47.0900 C   0  0  0  0  0  0  0  0  0  0  0  0
   61.9100   31.6880   48.0060 C   0  0  0  0  0  0  0  0  0  0  0  0
   60.9660   32.6490   48.3700 C   0  0  0  0  0  0  0  0  0  0  0  0
   59.6820   32.6080   47.8220 C   0  0  0  0  0  0  0  0  0  0  0  0
   59.3380   31.6110   46.9030 C   0  0  0  0  0  0  0  0  0  0  0  0
   58.0700   31.5770   46.4230 F   0  0  0  0  0  0  0  0  0  0  0  0
   56.9428   31.2875   44.8472 H   0  0  0  0  0  0  0  0  0  0  0  0
   57.6023   31.9327   43.3060 H   0  0  0  0  0  0  0  0  0  0  0  0
   56.0651   31.0034   43.3060 H   0  0  0  0  0  0  0  0  0  0  0  0
   57.4470   29.4120   42.6940 H   0  0  0  0  0  0  0  0  0  0  0  0
   58.8220   30.0830   43.4480 H   0  0  0  0  0  0  0  0  0  0  0  0
   57.1669   26.4709   47.6519 H   0  0  0  0  0  0  0  0  0  0  0  0
   62.3236   29.9300   46.8133 H   0  0  0  0  0  0  0  0  0  0  0  0
   62.9196   31.7181   48.4416 H   0  0  0  0  0  0  0  0  0  0  0  0
   61.2329   33.4384   49.0881 H   0  0  0  0  0  0  0  0  0  0  0  0
   58.9377   33.3633   48.1144 H   0  0  0  0  0  0  0  0  0  0  0  0
  1  2  1  0
  2  3  1  0
  3  4  1  0
  4  5  1  0
  5  6  1  0
  5  7  2  0
  7  8  1  0
  8  9  2  0
  8 10  1  0
 10 11  1  0
 11 12  2  0
 11 13  1  0
 13 14  2  0
 14 15  1  0
 15 16  2  0
 16 17  1  0
 17 18  2  0
 18 19  1  0
 10  3  2  0
 18 13  1  0
  1 20  1  0
  1 21  1  0
  1 22  1  0
  2 23  1  0
  2 24  1  0
  7 25  1  0
 14 26  1  0
 15 27  1  0
 16 28  1  0
 17 29  1  0
M  CHG  3   2   1   4  -1   6  -1
M  END
>  <UniqueID>  (58) 
53

>  <SMILES>  (58) 
C[NH2+]c1[n-]c([O-])cc(=O)c1C(=O)c1ccccc1F

>  <Energy>  (58) 
43.391531311959994

>  <Genealogy>  (58) 
C[NH2+]c1[n-]c([O-])cc(=O)c1C(=O)c1ccccc1F (protonated)
C[NH2+]c1[n-]c([O-])cc(=O)c1C(=O)c1ccccc1F (3D coordinates assigned)
C[NH2+]c1[n-]c([O-])cc(=O)c1C(=O)c1ccccc1F (optimized conformer: 43.391531311959994 kcal/mol)

>  <smiles>  (58) 
CNc1[nH]c(O)cc(=O)c1C(=O)c1ccccc1F

>  <score_type>  (58) 
oracle

>  <origin>  (58) 
adg

>  <m_score__min__energy>  (58) 
-10.43

>  <m_primary>  (58) 
energy

$$$$
58:0
     RDKit          3D

 46 48  0  0  0  0  0  0  0  0999 V2000
   56.8619   24.9471   48.3226 H   0  0  0  0  0  0  0  0  0  0  0  0
   56.3680   24.8360   47.3460 C   0  0  0  0  0  0  0  0  0  0  0  0
   56.2890   26.0390   46.4860 C   0  0  0  0  0  0  0  0  0  0  0  0
   55.1670   26.3490   46.0050 O   0  0  0  0  0  0  0  0  0  0  0  0
   57.4670   26.8680   46.1460 C   0  0  0  0  0  0  0  0  0  0  0  0
   58.7040   26.6070   46.7540 C   0  0  0  0  0  0  0  0  0  0  0  0
   58.7934   25.7902   47.4853 H   0  0  0  0  0  0  0  0  0  0  0  0
   59.8210   27.3790   46.4350 C   0  0  0  0  0  0  0  0  0  0  0  0
   60.7896   27.1629   46.9094 H   0  0  0  0  0  0  0  0  0  0  0  0
   59.7150   28.4250   45.5160 C   0  0  0  0  0  0  0  0  0  0  0  0
   60.6010   29.0285   45.2693 H   0  0  0  0  0  0  0  0  0  0  0  0
   58.4810   28.7110   44.9040 C   0  0  0  0  0  0  0  0  0  0  0  0
   58.3310   29.7820   43.9530 N   0  0  0  0  0  0  0  0  0  0  0  0
   58.8380   29.7260   43.0420 H   0  0  0  0  0  0  0  0  0  0  0  0
   57.3980   31.2170   44.2410 S   0  0  0  0  0  0  0  0  0  0  0  0
   57.3950   32.0650   43.0010 O   0  0  0  0  0  0  0  0  0  0  0  0
   55.9830   30.8300   44.5670 O   0  0  0  0  0  0  0  0  0  0  0  0
   58.1190   32.1410   45.5560 C   0  0  0  0  0  0  0  0  0  0  0  0
   58.5560   31.5030   46.7250 C   0  0  0  0  0  0  0  0  0  0  0  0
   58.4380   30.4147   46.8335 H   0  0  0  0  0  0  0  0  0  0  0  0
   59.1420   32.2480   47.7540 C   0  0  0  0  0  0  0  0  0  0  0  0
   59.4852   31.7448   48.6700 H   0  0  0  0  0  0  0  0  0  0  0  0
   59.2920   33.6330   47.6190 C   0  0  0  0  0  0  0  0  0  0  0  0
   60.0310   34.5650   48.9080 Cl  0  0  0  0  0  0  0  0  0  0  0  0
   58.8520   34.2720   46.4560 C   0  0  0  0  0  0  0  0  0  0  0  0
   58.9662   35.3610   46.3505 H   0  0  0  0  0  0  0  0  0  0  0  0
   58.2670   33.5280   45.4270 C   0  0  0  0  0  0  0  0  0  0  0  0
   57.9218   34.0335   44.5130 H   0  0  0  0  0  0  0  0  0  0  0  0
   57.3610   27.9310   45.2340 C   0  0  0  0  0  0  0  0  0  0  0  0
   56.3881   28.1553   44.7724 H   0  0  0  0  0  0  0  0  0  0  0  0
   55.8880   23.6210   47.0350 C   0  0  0  0  0  0  0  0  0  0  0  0
   54.8716   23.3722   47.3742 H   0  0  0  0  0  0  0  0  0  0  0  0
   56.6240   22.5960   46.2720 C   0  0  0  0  0  0  0  0  0  0  0  0
   57.3670   21.6500   46.8840 N   0  0  0  0  0  0  0  0  0  0  0  0
   57.9030   20.9420   45.8720 C   0  0  0  0  0  0  0  0  0  0  0  0
   58.5642   20.0707   45.9887 H   0  0  0  0  0  0  0  0  0  0  0  0
   57.4980   21.4740   44.6700 C   0  0  0  0  0  0  0  0  0  0  0  0
   57.7862   21.1084   43.6734 H   0  0  0  0  0  0  0  0  0  0  0  0
   56.6890   22.5180   44.9230 N   0  0  0  0  0  0  0  0  0  0  0  0
   56.2250   23.4860   43.9260 C   0  0  0  0  0  0  0  0  0  0  0  0
   55.3120   23.9770   44.2940 H   0  0  0  0  0  0  0  0  0  0  0  0
   56.0145   22.9577   42.9844 H   0  0  0  0  0  0  0  0  0  0  0  0
   57.2980   24.5410   43.6750 C   0  0  0  0  0  0  0  0  0  0  0  0
   57.6776   24.9142   44.6376 H   0  0  0  0  0  0  0  0  0  0  0  0
   58.1247   24.0943   43.1032 H   0  0  0  0  0  0  0  0  0  0  0  0
   56.8654   25.3752   43.1032 H   0  0  0  0  0  0  0  0  0  0  0  0
  1  2  1  0
  2  3  1  0
  3  4  2  0
  3  5  1  0
  5  6  2  0
  6  7  1  0
  6  8  1  0
  8  9  1  0
  8 10  2  0
 10 11  1  0
 10 12  1  0
 12 13  1  0
 13 14  1  0
 13 15  1  0
 15 16  2  0
 15 17  2  0
 15 18  1  0
 18 19  2  0
 19 20  1  0
 19 21  1  0
 21 22  1  0
 21 23  2  0
 23 24  1  0
 23 25  1  0
 25 26  1  0
 25 27  2  0
 27 28  1  0
 12 29  2  0
 29 30  1  0
  2 31  2  0
 31 32  1  0
 31 33  1  0
 33 34  2  0
 34 35  1  0
 35 36  1  0
 35 37  2  0
 37 38  1  0
 37 39  1  0
 39 40  1  0
 40 41  1  0
 40 42  1  0
 40 43  1  0
 43 44  1  0
 43 45  1  0
 43 46  1  0
 29  5  1  0
 39 33  1  0
 27 18  1  0
M  END
>  <UniqueID>  (59) 
54

>  <SMILES>  (59) 
CCn1ccnc1/C=C\C(=O)c1cccc(NS(=O)(=O)c2ccc(Cl)cc2)c1

>  <Energy>  (59) 
85.97811522457985

>  <Genealogy>  (59) 
CCn1ccnc1/C=C\C(=O)c1cccc(NS(=O)(=O)c2ccc(Cl)cc2)c1 (cis-trans isomerization)
CCn1ccnc1/C=C\C(=O)c1cccc(NS(=O)(=O)c2ccc(Cl)cc2)c1 (3D coordinates assigned)
CCn1ccnc1/C=C\C(=O)c1cccc(NS(=O)(=O)c2ccc(Cl)cc2)c1 (optimized conformer: 85.97811522457985 kcal/mol)

>  <smiles>  (59) 
CCn1ccnc1C=CC(=O)c1cccc(NS(=O)(=O)c2ccc(Cl)cc2)c1

>  <score_type>  (59) 
oracle

>  <origin>  (59) 
adg

>  <m_score__min__energy>  (59) 
-9.5500000000000007

>  <m_primary>  (59) 
energy

$$$$
59:0
     RDKit          3D

 83 88  0  0  0  0  0  0  0  0999 V2000
   58.9715   26.7283   48.9050 H   0  0  0  0  0  0  0  0  0  0  0  0
   58.8970   27.2510   47.9400 C   0  0  0  0  0  0  0  0  0  0  0  0
   58.8372   26.6742   47.0053 H   0  0  0  0  0  0  0  0  0  0  0  0
   58.8790   28.5950   47.9030 C   0  0  0  0  0  0  0  0  0  0  0  0
   58.7880   29.3800   46.7480 C   0  0  0  0  0  0  0  0  0  0  0  0
   58.5920   28.9450   45.4850 C   0  0  0  0  0  0  0  0  0  0  0  0
   59.1498   28.0580   45.1501 H   0  0  0  0  0  0  0  0  0  0  0  0
   57.6750   29.5890   44.5300 C   0  0  0  0  0  0  0  0  0  0  0  0
   58.0590   30.5380   43.6540 N   0  0  0  0  0  0  0  0  0  0  0  0
   56.9070   30.8840   43.0400 C   0  0  0  0  0  0  0  0  0  0  0  0
   56.8580   31.7580   42.1330 O   0  0  0  0  0  0  0  0  0  0  0  0
   55.8090   30.2330   43.4880 N   0  0  0  0  0  0  0  0  0  0  0  0
   56.3100   29.4240   44.4410 C   0  0  0  0  0  0  0  0  0  0  0  0
   55.5310   28.6030   45.2470 O   0  0  0  0  0  0  0  0  0  0  0  0
   58.8190   30.7020   47.1710 C   0  0  0  0  0  0  0  0  0  0  0  0
   58.7756   31.5963   46.5320 H   0  0  0  0  0  0  0  0  0  0  0  0
   58.9150   30.6780   48.5510 C   0  0  0  0  0  0  0  0  0  0  0  0
   58.8430   31.9000   49.4190 C   0  0  0  0  0  0  0  0  0  0  0  0
   58.8607   31.5997   50.4771 H   0  0  0  0  0  0  0  0  0  0  0  0
   59.7044   32.5508   49.2081 H   0  0  0  0  0  0  0  0  0  0  0  0
   57.9112   32.4452   49.2081 H   0  0  0  0  0  0  0  0  0  0  0  0
   58.9390   29.3970   49.0000 N   0  0  0  0  0  0  0  0  0  0  0  0
   58.9630   28.9600   50.4050 C   0  0  0  0  0  0  0  0  0  0  0  0
   58.1060   29.4025   50.9338 H   0  0  0  0  0  0  0  0  0  0  0  0
   58.9072   27.8617   50.4310 H   0  0  0  0  0  0  0  0  0  0  0  0
   60.2500   29.3960   51.0910 C   0  0  0  0  0  0  0  0  0  0  0  0
   61.4730   28.8610   50.6370 C   0  0  0  0  0  0  0  0  0  0  0  0
   61.4765   28.1626   49.7872 H   0  0  0  0  0  0  0  0  0  0  0  0
   62.6820   29.2050   51.2510 C   0  0  0  0  0  0  0  0  0  0  0  0
   63.6226   28.7753   50.8759 H   0  0  0  0  0  0  0  0  0  0  0  0
   62.7110   30.0900   52.3380 C   0  0  0  0  0  0  0  0  0  0  0  0
   63.9600   30.4340   53.0820 C   0  0  0  0  0  0  0  0  0  0  0  0
   64.1710   29.8210   54.1670 O   0  0  0  0  0  0  0  0  0  0  0  0
   64.9520   31.4050   52.6510 N   0  0  0  0  0  0  0  0  0  0  0  0
   64.4240   32.0620   52.0290 H   0  0  0  0  0  0  0  0  0  0  0  0
   66.0510   30.8300   51.8340 C   0  0  0  0  0  0  0  0  0  0  0  0
   66.2996   29.8344   52.2302 H   0  0  0  0  0  0  0  0  0  0  0  0
   65.6981   30.7786   50.7934 H   0  0  0  0  0  0  0  0  0  0  0  0
   67.3310   31.7030   51.8500 C   0  0  0  0  0  0  0  0  0  0  0  0
   67.9718   31.3738   52.6812 H   0  0  0  0  0  0  0  0  0  0  0  0
   67.8317   31.5787   50.8785 H   0  0  0  0  0  0  0  0  0  0  0  0
   67.0350   33.1410   52.0210 N   0  0  0  0  0  0  0  0  0  0  0  0
   66.4430   33.7300   50.7920 C   0  0  0  0  0  0  0  0  0  0  0  0
   65.6417   34.4168   51.1022 H   0  0  0  0  0  0  0  0  0  0  0  0
   67.2796   34.2145   50.2673 H   0  0  0  0  0  0  0  0  0  0  0  0
   65.8390   32.7300   49.7710 C   0  0  0  0  0  0  0  0  0  0  0  0
   66.0258   33.1165   48.7582 H   0  0  0  0  0  0  0  0  0  0  0  0
   66.3247   31.7602   49.9544 H   0  0  0  0  0  0  0  0  0  0  0  0
   64.3780   32.5100   49.9230 N   0  0  0  0  0  0  0  0  0  0  0  0
   63.7510   33.7790   50.3740 C   0  0  0  0  0  0  0  0  0  0  0  0
   63.9140   33.8886   51.4563 H   0  0  0  0  0  0  0  0  0  0  0  0
   64.2162   34.6019   49.8115 H   0  0  0  0  0  0  0  0  0  0  0  0
   62.2350   33.8160   50.0950 C   0  0  0  0  0  0  0  0  0  0  0  0
   61.7274   34.3448   50.9152 H   0  0  0  0  0  0  0  0  0  0  0  0
   62.0576   34.3397   49.1441 H   0  0  0  0  0  0  0  0  0  0  0  0
   61.7240   32.5010   50.0000 O   0  0  0  0  0  0  0  0  0  0  0  0
   62.2320   31.8820   48.8280 C   0  0  0  0  0  0  0  0  0  0  0  0
   61.9941   30.8088   48.8688 H   0  0  0  0  0  0  0  0  0  0  0  0
   61.7608   32.3785   47.9669 H   0  0  0  0  0  0  0  0  0  0  0  0
   63.7630   32.0400   48.6670 C   0  0  0  0  0  0  0  0  0  0  0  0
   64.1989   31.0676   48.3943 H   0  0  0  0  0  0  0  0  0  0  0  0
   63.9591   32.7829   47.8798 H   0  0  0  0  0  0  0  0  0  0  0  0
   66.3200   33.3920   53.3010 C   0  0  0  0  0  0  0  0  0  0  0  0
   67.0697   33.5959   54.0797 H   0  0  0  0  0  0  0  0  0  0  0  0
   65.6454   34.2423   53.1226 H   0  0  0  0  0  0  0  0  0  0  0  0
   65.4320   32.2150   53.7790 C   0  0  0  0  0  0  0  0  0  0  0  0
   66.0204   31.5750   54.4529 H   0  0  0  0  0  0  0  0  0  0  0  0
   64.5572   32.6336   54.2981 H   0  0  0  0  0  0  0  0  0  0  0  0
   61.4960   30.6390   52.7840 C   0  0  0  0  0  0  0  0  0  0  0  0
   61.5028   31.3369   53.6342 H   0  0  0  0  0  0  0  0  0  0  0  0
   60.2720   30.3180   52.1700 C   0  0  0  0  0  0  0  0  0  0  0  0
   59.0610   30.9900   52.6890 C   0  0  0  0  0  0  0  0  0  0  0  0
   58.0870   30.3070   53.1100 O   0  0  0  0  0  0  0  0  0  0  0  0
   58.9700   32.4130   52.6850 N   0  0  0  0  0  0  0  0  0  0  0  0
   59.8580   33.5570   52.4240 C   0  0  0  0  0  0  0  0  0  0  0  0
   60.7148   33.5953   53.1128 H   0  0  0  0  0  0  0  0  0  0  0  0
   60.3559   33.5913   51.4438 H   0  0  0  0  0  0  0  0  0  0  0  0
   58.8430   34.6130   52.7080 C   0  0  0  0  0  0  0  0  0  0  0  0
   59.0548   35.2539   53.5765 H   0  0  0  0  0  0  0  0  0  0  0  0
   58.5929   35.4279   52.0127 H   0  0  0  0  0  0  0  0  0  0  0  0
   57.9560   33.4400   52.9730 C   0  0  0  0  0  0  0  0  0  0  0  0
   57.5980   33.4041   54.0125 H   0  0  0  0  0  0  0  0  0  0  0  0
   57.0129   33.3863   52.4094 H   0  0  0  0  0  0  0  0  0  0  0  0
  1  2  1  0
  2  3  1  0
  2  4  2  0
  4  5  1  0
  5  6  2  0
  6  7  1  0
  6  8  1  0
  8  9  1  0
  9 10  1  0
 10 11  2  0
 10 12  1  0
 12 13  1  0
 13 14  1  0
  5 15  1  0
 15 16  1  0
 15 17  2  0
 17 18  1  0
 18 19  1  0
 18 20  1  0
 18 21  1  0
 17 22  1  0
 22 23  1  0
 23 24  1  0
 23 25  1  0
 23 26  1  0
 26 27  2  0
 27 28  1  0
 27 29  1  0
 29 30  1  0
 29 31  2  0
 31 32  1  0
 32 33  2  0
 32 34  1  0
 34 35  1  0
 34 36  1  0
 36 37  1  0
 36 38  1  0
 36 39  1  0
 39 40  1  0
 39 41  1  0
 39 42  1  0
 42 43  1  0
 43 44  1  0
 43 45  1  0
 43 46  1  0
 46 47  1  0
 46 48  1  0
 46 49  1  0
 49 50  1  0
 50 51  1  0
 50 52  1  0
 50 53  1  0
 53 54  1  0
 53 55  1  0
 53 56  1  0
 56 57  1  0
 57 58  1  0
 57 59  1  0
 57 60  1  0
 60 61  1  0
 60 62  1  0
 42 63  1  0
 63 64  1  0
 63 65  1  0
 63 66  1  0
 66 67  1  0
 66 68  1  0
 31 69  1  0
 69 70  1  0
 69 71  2  0
 71 72  1  0
 72 73  2  0
 72 74  1  0
 74 75  1  0
 75 76  1  0
 75 77  1  0
 75 78  1  0
 78 79  1  0
 78 80  1  0
 78 81  1  0
 81 82  1  0
 81 83  1  0
 22  4  1  0
 71 26  1  0
 81 74  1  0
 13  8  2  0
 66 34  1  0
 60 49  1  0
M  CHG  4   9  -1  12  -1  14  -1  34   1
M  END
>  <UniqueID>  (60) 
55

>  <SMILES>  (60) 
C=c1/c(=C/c2[n-]c(=O)[n-]c2[O-])cc(C)n1Cc1ccc(C(=O)[NH+]2CCN(CCN3CCOCC3)CC2)cc1C(=O)N1CCC1

>  <Energy>  (60) 
241.96025756355087

>  <Genealogy>  (60) 
C=c1c(=Cc2[n-]c(=O)[n-]c2[O-])cc(C)n1Cc1ccc(C(=O)[NH+]2CCN(CCN3CCOCC3)CC2)cc1C(=O)N1CCC1 (protonated)
C=c1/c(=C/c2[n-]c(=O)[n-]c2[O-])cc(C)n1Cc1ccc(C(=O)[NH+]2CCN(CCN3CCOCC3)CC2)cc1C(=O)N1CCC1 (cis-trans isomerization)
C=c1/c(=C/c2[n-]c(=O)[n-]c2[O-])cc(C)n1Cc1ccc(C(=O)[NH+]2CCN(CCN3CCOCC3)CC2)cc1C(=O)N1CCC1 (3D coordinates assigned)
C=c1/c(=C/c2[n-]c(=O)[n-]c2[O-])cc(C)n1Cc1ccc(C(=O)[NH+]2CCN(CCN3CCOCC3)CC2)cc1C(=O)N1CCC1 (nonaromatic ring conformer: 241.96025756355087 kcal/mol)

>  <smiles>  (60) 
C=c1c(=Cc2[nH]c(=O)[nH]c2O)cc(C)n1Cc1ccc(C(=O)N2CCN(CCN3CCOCC3)CC2)cc1C(=O)N1CCC1

>  <score_type>  (60) 
oracle

>  <origin>  (60) 
adg

>  <m_score__min__energy>  (60) 
-17.27

>  <m_primary>  (60) 
energy

$$$$
60:0
     RDKit          3D

 66 70  0  0  0  0  0  0  0  0999 V2000
   57.0350   30.8570   42.8370 C   0  0  0  0  0  0  0  0  0  0  0  0
   57.2270   29.5570   43.3850 O   0  0  0  0  0  0  0  0  0  0  0  0
   57.7730   29.3030   44.6520 C   0  0  0  0  0  0  0  0  0  0  0  0
   57.3720   28.2070   45.4430 C   0  0  0  0  0  0  0  0  0  0  0  0
   57.9470   27.9960   46.7010 C   0  0  0  0  0  0  0  0  0  0  0  0
   58.9470   28.8630   47.1820 C   0  0  0  0  0  0  0  0  0  0  0  0
   59.5440   28.6730   48.4830 N   0  0  0  0  0  0  0  0  0  0  0  0
   59.4650   29.6840   49.3490 N   0  0  0  0  0  0  0  0  0  0  0  0
   59.9950   29.6430   50.5970 C   0  0  0  0  0  0  0  0  0  0  0  0
   59.8070   30.8350   51.4480 C   0  0  0  0  0  0  0  0  0  0  0  0
   60.6780   31.1500   52.3050 O   0  0  0  0  0  0  0  0  0  0  0  0
   58.6050   31.6050   51.3320 N   0  0  0  0  0  0  0  0  0  0  0  0
   58.2520   32.6220   52.3200 C   0  0  0  0  0  0  0  0  0  0  0  0
   58.9900   33.9000   52.0570 C   0  0  0  0  0  0  0  0  0  0  0  0
   59.2360   34.6890   53.0100 O   0  0  0  0  0  0  0  0  0  0  0  0
   59.3630   34.2470   50.7190 N   0  0  0  0  0  0  0  0  0  0  0  0
   60.4910   33.6710   50.0470 C   0  0  0  0  0  0  0  0  0  0  0  0
   61.7750   33.9100   50.5550 C   0  0  0  0  0  0  0  0  0  0  0  0
   62.8980   33.3650   49.9250 C   0  0  0  0  0  0  0  0  0  0  0  0
   62.7450   32.5870   48.7750 C   0  0  0  0  0  0  0  0  0  0  0  0
   61.4720   32.3660   48.2410 C   0  0  0  0  0  0  0  0  0  0  0  0
   60.3370   32.9140   48.8620 C   0  0  0  0  0  0  0  0  0  0  0  0
   59.0180   32.7530   48.2180 C   0  0  0  0  0  0  0  0  0  0  0  0
   58.1320   32.0870   48.8180 O   0  0  0  0  0  0  0  0  0  0  0  0
   58.7300   33.3370   46.9270 N   0  0  0  0  0  0  0  0  0  0  0  0
   59.8310   33.7640   46.0470 C   0  0  0  0  0  0  0  0  0  0  0  0
   59.3380   34.7230   44.9560 C   0  0  0  0  0  0  0  0  0  0  0  0
   58.1620   34.2430   44.3390 O   0  0  0  0  0  0  0  0  0  0  0  0
   57.1130   34.2150   45.2850 C   0  0  0  0  0  0  0  0  0  0  0  0
   57.3890   33.1550   46.3500 C   0  0  0  0  0  0  0  0  0  0  0  0
   60.6880   28.4830   51.0080 C   0  0  0  0  0  0  0  0  0  0  0  0
   61.3300   28.3840   52.2600 C   0  0  0  0  0  0  0  0  0  0  0  0
   62.0110   27.2180   52.6200 C   0  0  0  0  0  0  0  0  0  0  0  0
   62.0730   26.1410   51.7380 C   0  0  0  0  0  0  0  0  0  0  0  0
   61.4680   26.2280   50.4830 C   0  0  0  0  0  0  0  0  0  0  0  0
   60.7810   27.3980   50.1020 C   0  0  0  0  0  0  0  0  0  0  0  0
   60.2040   27.5200   48.8230 C   0  0  0  0  0  0  0  0  0  0  0  0
   60.3310   26.5840   47.9840 O   0  0  0  0  0  0  0  0  0  0  0  0
   59.3230   29.9670   46.4000 C   0  0  0  0  0  0  0  0  0  0  0  0
   58.7480   30.1790   45.1440 C   0  0  0  0  0  0  0  0  0  0  0  0
   56.9272   31.5867   43.6531 H   0  0  0  0  0  0  0  0  0  0  0  0
   57.9032   31.1256   42.2173 H   0  0  0  0  0  0  0  0  0  0  0  0
   56.1262   30.8631   42.2173 H   0  0  0  0  0  0  0  0  0  0  0  0
   56.6034   27.5144   45.0694 H   0  0  0  0  0  0  0  0  0  0  0  0
   57.6159   27.1477   47.3180 H   0  0  0  0  0  0  0  0  0  0  0  0
   57.9600   31.4030   50.5330 H   0  0  0  0  0  0  0  0  0  0  0  0
   57.1700   32.8136   52.2692 H   0  0  0  0  0  0  0  0  0  0  0  0
   58.5298   32.2541   53.3187 H   0  0  0  0  0  0  0  0  0  0  0  0
   61.9002   34.5301   51.4549 H   0  0  0  0  0  0  0  0  0  0  0  0
   63.9020   33.5489   50.3350 H   0  0  0  0  0  0  0  0  0  0  0  0
   63.6281   32.1472   48.2885 H   0  0  0  0  0  0  0  0  0  0  0  0
   61.3584   31.7600   47.3300 H   0  0  0  0  0  0  0  0  0  0  0  0
   60.5954   34.2734   46.6521 H   0  0  0  0  0  0  0  0  0  0  0  0
   60.2493   32.8713   45.5590 H   0  0  0  0  0  0  0  0  0  0  0  0
   59.1295   35.7034   45.4092 H   0  0  0  0  0  0  0  0  0  0  0  0
   60.1218   34.8056   44.1886 H   0  0  0  0  0  0  0  0  0  0  0  0
   57.0318   35.2007   45.7664 H   0  0  0  0  0  0  0  0  0  0  0  0
   56.1726   33.9691   44.7700 H   0  0  0  0  0  0  0  0  0  0  0  0
   56.6373   33.2406   47.1485 H   0  0  0  0  0  0  0  0  0  0  0  0
   57.3363   32.1607   45.8825 H   0  0  0  0  0  0  0  0  0  0  0  0
   61.2943   29.2323   52.9594 H   0  0  0  0  0  0  0  0  0  0  0  0
   62.4998   27.1502   53.6031 H   0  0  0  0  0  0  0  0  0  0  0  0
   62.5995   25.2208   52.0312 H   0  0  0  0  0  0  0  0  0  0  0  0
   61.5279   25.3781   49.7872 H   0  0  0  0  0  0  0  0  0  0  0  0
   60.0774   30.6718   46.7797 H   0  0  0  0  0  0  0  0  0  0  0  0
   59.0638   31.0406   44.5374 H   0  0  0  0  0  0  0  0  0  0  0  0
  1  2  1  0
  2  3  1  0
  3  4  2  0
  4  5  1  0
  5  6  2  0
  6  7  1  0
  7  8  1  0
  8  9  2  0
  9 10  1  0
 10 11  2  0
 10 12  1  0
 12 13  1  0
 13 14  1  0
 14 15  2  0
 14 16  1  0
 16 17  1  0
 17 18  2  0
 18 19  1  0
 19 20  2  0
 20 21  1  0
 21 22  2  0
 22 23  1  0
 23 24  2  0
 23 25  1  0
 25 26  1  0
 26 27  1  0
 27 28  1  0
 28 29  1  0
 29 30  1  0
  9 31  1  0
 31 32  2  0
 32 33  1  0
 33 34  2  0
 34 35  1  0
 35 36  2  0
 36 37  1  0
 37 38  2  0
  6 39  1  0
 39 40  2  0
 40  3  1  0
 37  7  1  0
 22 17  1  0
 30 25  1  0
 36 31  1  0
  1 41  1  0
  1 42  1  0
  1 43  1  0
  4 44  1  0
  5 45  1  0
 12 46  1  0
 13 47  1  0
 13 48  1  0
 18 49  1  0
 19 50  1  0
 20 51  1  0
 21 52  1  0
 26 53  1  0
 26 54  1  0
 27 55  1  0
 27 56  1  0
 29 57  1  0
 29 58  1  0
 30 59  1  0
 30 60  1  0
 32 61  1  0
 33 62  1  0
 34 63  1  0
 35 64  1  0
 39 65  1  0
 40 66  1  0
M  CHG  1  16  -1
M  END
>  <UniqueID>  (61) 
56

>  <SMILES>  (61) 
COc1ccc(-n2nc(C(=O)NCC(=O)[N-]c3ccccc3C(=O)N3CCOCC3)c3ccccc3c2=O)cc1

>  <Energy>  (61) 
100.85874307452167

>  <Genealogy>  (61) 
COc1ccc(-n2nc(C(=O)NCC(=O)[N-]c3ccccc3C(=O)N3CCOCC3)c3ccccc3c2=O)cc1 (protonated)
COc1ccc(-n2nc(C(=O)NCC(=O)[N-]c3ccccc3C(=O)N3CCOCC3)c3ccccc3c2=O)cc1 (3D coordinates assigned)
COc1ccc(-n2nc(C(=O)NCC(=O)[N-]c3ccccc3C(=O)N3CCOCC3)c3ccccc3c2=O)cc1 (nonaromatic ring conformer: 100.85874307452167 kcal/mol)

>  <smiles>  (61) 
COc1ccc(-n2nc(C(=O)NCC(=O)Nc3ccccc3C(=O)N3CCOCC3)c3ccccc3c2=O)cc1

>  <score_type>  (61) 
oracle

>  <origin>  (61) 
adg

>  <m_score__min__energy>  (61) 
-11.66

>  <m_primary>  (61) 
energy

$$$$
61:0
     RDKit          3D

 60 64  0  0  0  0  0  0  0  0999 V2000
   57.8080   32.6720   43.3400 C   0  0  0  0  0  0  0  0  0  0  0  0
   57.6920   33.1910   44.7440 C   0  0  0  0  0  0  0  0  0  0  0  0
   57.0180   34.2400   44.9440 O   0  0  0  0  0  0  0  0  0  0  0  0
   58.3300   32.4950   45.8920 C   0  0  0  0  0  0  0  0  0  0  0  0
   58.6330   31.1240   45.8040 C   0  0  0  0  0  0  0  0  0  0  0  0
   59.2270   30.4550   46.8770 C   0  0  0  0  0  0  0  0  0  0  0  0
   59.5240   31.1350   48.0700 C   0  0  0  0  0  0  0  0  0  0  0  0
   60.1300   30.4440   49.1820 N   0  0  0  0  0  0  0  0  0  0  0  0
   61.5250   30.7110   49.5550 C   0  0  0  0  0  0  0  0  0  0  0  0
   61.7100   30.4960   51.0600 C   0  0  0  0  0  0  0  0  0  0  0  0
   61.3350   29.1220   51.4860 N   0  0  0  0  0  0  0  0  0  0  0  0
   60.9920   29.1050   52.8990 C   0  0  0  0  0  0  0  0  0  0  0  0
   61.9160   29.0750   53.7600 O   0  0  0  0  0  0  0  0  0  0  0  0
   59.5940   29.1180   53.3820 C   0  0  0  0  0  0  0  0  0  0  0  0
   59.1310   28.1470   54.2870 C   0  0  0  0  0  0  0  0  0  0  0  0
   57.8120   28.1860   54.7520 C   0  0  0  0  0  0  0  0  0  0  0  0
   56.9390   29.2000   54.3190 C   0  0  0  0  0  0  0  0  0  0  0  0
   55.5880   29.3000   54.7870 N   0  0  0  0  0  0  0  0  0  0  0  0
   54.2160   28.4900   54.1000 S   0  0  0  0  0  0  0  0  0  0  0  0
   54.6760   27.4660   53.1020 O   0  0  0  0  0  0  0  0  0  0  0  0
   53.4730   27.7820   55.1940 O   0  0  0  0  0  0  0  0  0  0  0  0
   53.1420   29.6740   53.3600 C   0  0  0  0  0  0  0  0  0  0  0  0
   52.4030   30.5860   54.1570 C   0  0  0  0  0  0  0  0  0  0  0  0
   51.5510   31.5320   53.5530 C   0  0  0  0  0  0  0  0  0  0  0  0
   51.4670   31.5320   52.1620 C   0  0  0  0  0  0  0  0  0  0  0  0
   50.7250   32.3350   51.3880 N   0  0  0  0  0  0  0  0  0  0  0  0
   51.0350   31.8910   50.1400 C   0  0  0  0  0  0  0  0  0  0  0  0
   50.5380   32.3990   49.1010 O   0  0  0  0  0  0  0  0  0  0  0  0
   51.9190   30.8630   50.0950 N   0  0  0  0  0  0  0  0  0  0  0  0
   52.1760   30.6560   51.3950 C   0  0  0  0  0  0  0  0  0  0  0  0
   53.0240   29.7070   51.9560 C   0  0  0  0  0  0  0  0  0  0  0  0
   57.3950   30.1440   53.3880 C   0  0  0  0  0  0  0  0  0  0  0  0
   58.7090   30.0960   52.9150 C   0  0  0  0  0  0  0  0  0  0  0  0
   60.3020   28.4670   50.6360 C   0  0  0  0  0  0  0  0  0  0  0  0
   59.3580   29.4710   49.9630 C   0  0  0  0  0  0  0  0  0  0  0  0
   59.2260   32.5040   48.1600 C   0  0  0  0  0  0  0  0  0  0  0  0
   58.6370   33.1770   47.0850 C   0  0  0  0  0  0  0  0  0  0  0  0
   58.0479   31.5988   43.3645 H   0  0  0  0  0  0  0  0  0  0  0  0
   56.8540   32.8226   42.8134 H   0  0  0  0  0  0  0  0  0  0  0  0
   58.6071   33.2144   42.8134 H   0  0  0  0  0  0  0  0  0  0  0  0
   58.3998   30.5731   44.8809 H   0  0  0  0  0  0  0  0  0  0  0  0
   59.4646   29.3848   46.7869 H   0  0  0  0  0  0  0  0  0  0  0  0
   62.1875   30.0271   49.0043 H   0  0  0  0  0  0  0  0  0  0  0  0
   61.7752   31.7522   49.3035 H   0  0  0  0  0  0  0  0  0  0  0  0
   62.7661   30.6690   51.3145 H   0  0  0  0  0  0  0  0  0  0  0  0
   61.0486   31.2020   51.5837 H   0  0  0  0  0  0  0  0  0  0  0  0
   62.1980   28.5370   51.3870 H   0  0  0  0  0  0  0  0  0  0  0  0
   59.8093   27.3524   54.6313 H   0  0  0  0  0  0  0  0  0  0  0  0
   57.4568   27.4213   55.4584 H   0  0  0  0  0  0  0  0  0  0  0  0
   52.4957   30.5544   55.2526 H   0  0  0  0  0  0  0  0  0  0  0  0
   50.9725   32.2454   54.1583 H   0  0  0  0  0  0  0  0  0  0  0  0
   53.5854   29.0038   51.3233 H   0  0  0  0  0  0  0  0  0  0  0  0
   56.7133   30.9283   53.0272 H   0  0  0  0  0  0  0  0  0  0  0  0
   59.0496   30.8314   52.1712 H   0  0  0  0  0  0  0  0  0  0  0  0
   60.8096   27.8838   49.8536 H   0  0  0  0  0  0  0  0  0  0  0  0
   59.6916   27.8286   51.2916 H   0  0  0  0  0  0  0  0  0  0  0  0
   58.6701   28.9320   49.2949 H   0  0  0  0  0  0  0  0  0  0  0  0
   58.7870   30.0034   50.7380 H   0  0  0  0  0  0  0  0  0  0  0  0
   59.4580   33.0524   49.0849 H   0  0  0  0  0  0  0  0  0  0  0  0
   58.4112   34.2500   47.1723 H   0  0  0  0  0  0  0  0  0  0  0  0
  1  2  1  0
  2  3  2  0
  2  4  1  0
  4  5  2  0
  5  6  1  0
  6  7  2  0
  7  8  1  0
  8  9  1  0
  9 10  1  0
 10 11  1  0
 11 12  1  0
 12 13  2  0
 12 14  1  0
 14 15  2  0
 15 16  1  0
 16 17  2  0
 17 18  1  0
 18 19  1  0
 19 20  2  0
 19 21  2  0
 19 22  1  0
 22 23  2  0
 23 24  1  0
 24 25  2  0
 25 26  1  0
 26 27  1  0
 27 28  2  0
 27 29  1  0
 29 30  1  0
 30 31  2  0
 17 32  1  0
 32 33  2  0
 11 34  1  0
 34 35  1  0
  7 36  1  0
 36 37  2  0
 37  4  1  0
 35  8  1  0
 33 14  1  0
 31 22  1  0
 30 25  1  0
  1 38  1  0
  1 39  1  0
  1 40  1  0
  5 41  1  0
  6 42  1  0
  9 43  1  0
  9 44  1  0
 10 45  1  0
 10 46  1  0
 11 47  1  0
 15 48  1  0
 16 49  1  0
 23 50  1  0
 24 51  1  0
 31 52  1  0
 32 53  1  0
 33 54  1  0
 34 55  1  0
 34 56  1  0
 35 57  1  0
 35 58  1  0
 36 59  1  0
 37 60  1  0
M  CHG  4  11   1  18  -1  26  -1  29  -1
M  END
>  <UniqueID>  (62) 
57

>  <SMILES>  (62) 
CC(=O)c1ccc(N2CC[NH+](C(=O)c3ccc([N-]S(=O)(=O)c4ccc5[n-]c(=O)[n-]c5c4)cc3)CC2)cc1

>  <Energy>  (62) 
125.42454694504588

>  <Genealogy>  (62) 
CC(=O)c1ccc(N2CC[NH+](C(=O)c3ccc([N-]S(=O)(=O)c4ccc5[n-]c(=O)[n-]c5c4)cc3)CC2)cc1 (protonated)
CC(=O)c1ccc(N2CC[NH+](C(=O)c3ccc([N-]S(=O)(=O)c4ccc5[n-]c(=O)[n-]c5c4)cc3)CC2)cc1 (3D coordinates assigned)
CC(=O)c1ccc(N2CC[NH+](C(=O)c3ccc([N-]S(=O)(=O)c4ccc5[n-]c(=O)[n-]c5c4)cc3)CC2)cc1 (nonaromatic ring conformer: 125.42454694504588 kcal/mol)

>  <smiles>  (62) 
CC(=O)c1ccc(N2CCN(C(=O)c3ccc(NS(=O)(=O)c4ccc5[nH]c(=O)[nH]c5c4)cc3)CC2)cc1

>  <score_type>  (62) 
oracle

>  <origin>  (62) 
adg

>  <m_score__min__energy>  (62) 
-14.52

>  <m_primary>  (62) 
energy

$$$$
62:0
     RDKit          3D

 37 39  0  0  0  0  0  0  0  0999 V2000
   50.2470   34.6070   51.7790 H   0  0  0  0  0  0  0  0  0  0  0  0
   50.2670   33.7430   52.3650 N   0  0  0  0  0  0  0  0  0  0  0  0
   50.9480   32.7060   52.0040 C   0  0  0  0  0  0  0  0  0  0  0  0
   51.0420   32.3130   50.7200 N   0  0  0  0  0  0  0  0  0  0  0  0
   51.8240   31.2200   50.7810 C   0  0  0  0  0  0  0  0  0  0  0  0
   52.1333   30.6099   49.9196 H   0  0  0  0  0  0  0  0  0  0  0  0
   52.1780   30.9840   52.0970 C   0  0  0  0  0  0  0  0  0  0  0  0
   53.0330   29.8880   52.6170 C   0  0  0  0  0  0  0  0  0  0  0  0
   52.4370   28.7430   53.1770 C   0  0  0  0  0  0  0  0  0  0  0  0
   51.3410   28.6719   53.2376 H   0  0  0  0  0  0  0  0  0  0  0  0
   53.2270   27.6970   53.6560 C   0  0  0  0  0  0  0  0  0  0  0  0
   52.7508   26.8026   54.0842 H   0  0  0  0  0  0  0  0  0  0  0  0
   54.6180   27.7810   53.5940 C   0  0  0  0  0  0  0  0  0  0  0  0
   55.2333   26.9476   53.9640 H   0  0  0  0  0  0  0  0  0  0  0  0
   55.2360   28.9210   53.0630 C   0  0  0  0  0  0  0  0  0  0  0  0
   56.6710   28.9720   52.9910 N   0  0  0  0  0  0  0  0  0  0  0  0
   57.2220   28.5290   53.7610 H   0  0  0  0  0  0  0  0  0  0  0  0
   57.4030   29.7050   51.9970 C   0  0  0  0  0  0  0  0  0  0  0  0
   56.8100   30.5080   51.2260 O   0  0  0  0  0  0  0  0  0  0  0  0
   58.8220   29.5440   51.9150 N   0  0  0  0  0  0  0  0  0  0  0  0
   59.7700   30.3080   52.7190 C   0  0  0  0  0  0  0  0  0  0  0  0
   59.7720   29.9156   53.7466 H   0  0  0  0  0  0  0  0  0  0  0  0
   60.7718   30.2122   52.2749 H   0  0  0  0  0  0  0  0  0  0  0  0
   59.3850   31.7660   52.7450 C   0  0  0  0  0  0  0  0  0  0  0  0
   59.1710   32.4060   53.9790 C   0  0  0  0  0  0  0  0  0  0  0  0
   59.2721   31.8362   54.9145 H   0  0  0  0  0  0  0  0  0  0  0  0
   58.8310   33.7600   54.0250 C   0  0  0  0  0  0  0  0  0  0  0  0
   58.6630   34.2511   54.9948 H   0  0  0  0  0  0  0  0  0  0  0  0
   58.7040   34.4910   52.8430 C   0  0  0  0  0  0  0  0  0  0  0  0
   58.4352   35.5569   52.8822 H   0  0  0  0  0  0  0  0  0  0  0  0
   58.9180   33.8700   51.6100 C   0  0  0  0  0  0  0  0  0  0  0  0
   58.8174   34.4494   50.6804 H   0  0  0  0  0  0  0  0  0  0  0  0
   59.2600   32.5130   51.5520 C   0  0  0  0  0  0  0  0  0  0  0  0
   59.5250   31.7830   49.9720 Cl  0  0  0  0  0  0  0  0  0  0  0  0
   54.4390   29.9630   52.5560 C   0  0  0  0  0  0  0  0  0  0  0  0
   54.9180   30.8457   52.1072 H   0  0  0  0  0  0  0  0  0  0  0  0
   51.6220   31.9310   52.8780 N   0  0  0  0  0  0  0  0  0  0  0  0
  1  2  1  0
  2  3  2  0
  3  4  1  0
  4  5  1  0
  5  6  1  0
  5  7  2  0
  7  8  1  0
  8  9  2  0
  9 10  1  0
  9 11  1  0
 11 12  1  0
 11 13  2  0
 13 14  1  0
 13 15  1  0
 15 16  1  0
 16 17  1  0
 16 18  1  0
 18 19  2  0
 18 20  1  0
 20 21  1  0
 21 22  1  0
 21 23  1  0
 21 24  1  0
 24 25  2  0
 25 26  1  0
 25 27  1  0
 27 28  1  0
 27 29  2  0
 29 30  1  0
 29 31  1  0
 31 32  1  0
 31 33  2  0
 33 34  1  0
 15 35  2  0
 35 36  1  0
  7 37  1  0
 37  3  1  0
 35  8  1  0
 33 24  1  0
M  CHG  3   4  -1  20  -1  37  -1
M  END
>  <UniqueID>  (63) 
58

>  <SMILES>  (63) 
[H]/N=c1/[n-]cc(-c2cccc(NC(=O)[N-]Cc3ccccc3Cl)c2)[n-]1

>  <Energy>  (63) 
70.64461623960602

>  <Genealogy>  (63) 
N=c1[n-]cc(-c2cccc(NC(=O)[N-]Cc3ccccc3Cl)c2)[n-]1 (protonated)
[H]/N=c1/[n-]cc(-c2cccc(NC(=O)[N-]Cc3ccccc3Cl)c2)[n-]1 (cis-trans isomerization)
[H]/N=c1/[n-]cc(-c2cccc(NC(=O)[N-]Cc3ccccc3Cl)c2)[n-]1 (3D coordinates assigned)
[H]/N=c1/[n-]cc(-c2cccc(NC(=O)[N-]Cc3ccccc3Cl)c2)[n-]1 (optimized conformer: 70.64461623960602 kcal/mol)

>  <smiles>  (63) 
N=c1[nH]cc(-c2cccc(NC(=O)NCc3ccccc3Cl)c2)[nH]1

>  <score_type>  (63) 
oracle

>  <origin>  (63) 
adg

>  <m_score__min__energy>  (63) 
-14.06

>  <m_primary>  (63) 
energy

$$$$
63:0
     RDKit          3D

 35 37  0  0  0  0  0  0  0  0999 V2000
   57.0030   28.9850   43.3800 C   0  0  0  0  0  0  0  0  0  0  0  0
   56.1710   29.8500   44.2750 C   0  0  0  0  0  0  0  0  0  0  0  0
   55.1520   29.3540   44.8230 O   0  0  0  0  0  0  0  0  0  0  0  0
   56.5030   31.2180   44.5500 N   0  0  0  0  0  0  0  0  0  0  0  0
   57.5490   31.7150   45.3950 C   0  0  0  0  0  0  0  0  0  0  0  0
   57.6750   33.0540   45.7510 C   0  0  0  0  0  0  0  0  0  0  0  0
   58.8200   33.2930   46.5180 C   0  0  0  0  0  0  0  0  0  0  0  0
   59.2190   34.5230   47.0410 C   0  0  0  0  0  0  0  0  0  0  0  0
   60.4030   34.5900   47.7920 C   0  0  0  0  0  0  0  0  0  0  0  0
   61.1910   33.4320   48.0150 C   0  0  0  0  0  0  0  0  0  0  0  0
   62.4350   33.5230   48.8160 C   0  0  0  0  0  0  0  0  0  0  0  0
   62.6210   34.5270   49.5590 O   0  0  0  0  0  0  0  0  0  0  0  0
   63.4480   32.5090   48.7250 N   0  0  0  0  0  0  0  0  0  0  0  0
   64.4770   32.3310   49.7160 C   0  0  0  0  0  0  0  0  0  0  0  0
   65.6530   33.1020   49.6700 C   0  0  0  0  0  0  0  0  0  0  0  0
   66.6410   32.9490   50.6470 C   0  0  0  0  0  0  0  0  0  0  0  0
   66.4620   32.0360   51.6860 C   0  0  0  0  0  0  0  0  0  0  0  0
   65.2940   31.2740   51.7520 C   0  0  0  0  0  0  0  0  0  0  0  0
   64.2980   31.4190   50.7780 C   0  0  0  0  0  0  0  0  0  0  0  0
   62.8550   30.4180   50.8970 Cl  0  0  0  0  0  0  0  0  0  0  0  0
   60.7640   32.1950   47.4810 C   0  0  0  0  0  0  0  0  0  0  0  0
   59.5840   32.1590   46.7420 C   0  0  0  0  0  0  0  0  0  0  0  0
   58.8670   30.8360   45.9980 S   0  0  0  0  0  0  0  0  0  0  0  0
   57.6365   28.3263   43.9922 H   0  0  0  0  0  0  0  0  0  0  0  0
   56.3446   28.3740   42.7451 H   0  0  0  0  0  0  0  0  0  0  0  0
   57.6392   29.6192   42.7451 H   0  0  0  0  0  0  0  0  0  0  0  0
   56.9565   33.8353   45.4623 H   0  0  0  0  0  0  0  0  0  0  0  0
   58.6154   35.4261   46.8677 H   0  0  0  0  0  0  0  0  0  0  0  0
   60.7242   35.5540   48.2134 H   0  0  0  0  0  0  0  0  0  0  0  0
   63.4910   31.9320   47.8570 H   0  0  0  0  0  0  0  0  0  0  0  0
   65.7961   33.8310   48.8588 H   0  0  0  0  0  0  0  0  0  0  0  0
   67.5611   33.5497   50.5963 H   0  0  0  0  0  0  0  0  0  0  0  0
   67.2410   31.9163   52.4534 H   0  0  0  0  0  0  0  0  0  0  0  0
   65.1552   30.5558   52.5735 H   0  0  0  0  0  0  0  0  0  0  0  0
   61.3514   31.2797   47.6456 H   0  0  0  0  0  0  0  0  0  0  0  0
  1  2  1  0
  2  3  2  0
  2  4  1  0
  4  5  1  0
  5  6  2  0
  6  7  1  0
  7  8  2  0
  8  9  1  0
  9 10  2  0
 10 11  1  0
 11 12  2  0
 11 13  1  0
 13 14  1  0
 14 15  2  0
 15 16  1  0
 16 17  2  0
 17 18  1  0
 18 19  2  0
 19 20  1  0
 10 21  1  0
 21 22  2  0
 22 23  1  0
 23  5  1  0
 22  7  1  0
 19 14  1  0
  1 24  1  0
  1 25  1  0
  1 26  1  0
  6 27  1  0
  8 28  1  0
  9 29  1  0
 13 30  1  0
 15 31  1  0
 16 32  1  0
 17 33  1  0
 18 34  1  0
 21 35  1  0
M  CHG  1   4  -1
M  END
>  <UniqueID>  (64) 
59

>  <SMILES>  (64) 
CC(=O)[N-]c1cc2ccc(C(=O)Nc3ccccc3Cl)cc2s1

>  <Energy>  (64) 
77.01724607862404

>  <Genealogy>  (64) 
CC(=O)[N-]c1cc2ccc(C(=O)Nc3ccccc3Cl)cc2s1 (protonated)
CC(=O)[N-]c1cc2ccc(C(=O)Nc3ccccc3Cl)cc2s1 (3D coordinates assigned)
CC(=O)[N-]c1cc2ccc(C(=O)Nc3ccccc3Cl)cc2s1 (optimized conformer: 77.01724607862404 kcal/mol)

>  <smiles>  (64) 
CC(=O)Nc1cc2ccc(C(=O)Nc3ccccc3Cl)cc2s1

>  <score_type>  (64) 
oracle

>  <origin>  (64) 
adg

>  <m_score__min__energy>  (64) 
-9.6199999999999992

>  <m_primary>  (64) 
energy

$$$$
64:0
     RDKit          3D

 56 59  0  0  0  0  0  0  0  0999 V2000
   58.3113   25.3287   44.6392 H   0  0  0  0  0  0  0  0  0  0  0  0
   57.2790   25.3850   45.0150 C   0  0  0  0  0  0  0  0  0  0  0  0
   55.9850   24.4420   44.4970 S   0  0  0  0  0  0  0  0  0  0  0  0
   54.9040   25.1570   45.5650 C   0  0  0  0  0  0  0  0  0  0  0  0
   53.6470   24.8330   45.6370 N   0  0  0  0  0  0  0  0  0  0  0  0
   53.0820   23.5120   45.5830 C   0  0  0  0  0  0  0  0  0  0  0  0
   52.5590   23.1340   44.5000 O   0  0  0  0  0  0  0  0  0  0  0  0
   53.0950   22.5780   46.7720 C   0  0  0  0  0  0  0  0  0  0  0  0
   53.0373   23.1816   47.6898 H   0  0  0  0  0  0  0  0  0  0  0  0
   52.2338   21.9025   46.6627 H   0  0  0  0  0  0  0  0  0  0  0  0
   54.3530   21.6990   46.8460 C   0  0  0  0  0  0  0  0  0  0  0  0
   54.1173   20.7868   47.4137 H   0  0  0  0  0  0  0  0  0  0  0  0
   54.6618   21.4559   45.8186 H   0  0  0  0  0  0  0  0  0  0  0  0
   55.4890   22.4100   47.5190 C   0  0  0  0  0  0  0  0  0  0  0  0
   56.6210   21.8180   47.9400 N   0  0  0  0  0  0  0  0  0  0  0  0
   57.3460   22.8020   48.4560 N   0  0  0  0  0  0  0  0  0  0  0  0
   56.6930   23.9500   48.3540 N   0  0  0  0  0  0  0  0  0  0  0  0
   55.5290   23.7290   47.7700 N   0  0  0  0  0  0  0  0  0  0  0  0
   54.8090   24.4520   47.5550 H   0  0  0  0  0  0  0  0  0  0  0  0
   55.4930   26.1170   46.3100 N   0  0  0  0  0  0  0  0  0  0  0  0
   56.8130   26.2500   46.0040 C   0  0  0  0  0  0  0  0  0  0  0  0
   57.6980   27.2110   46.7390 C   0  0  0  0  0  0  0  0  0  0  0  0
   58.5596   26.6631   47.1482 H   0  0  0  0  0  0  0  0  0  0  0  0
   57.1117   27.6744   47.5461 H   0  0  0  0  0  0  0  0  0  0  0  0
   58.1980   28.3020   45.8290 C   0  0  0  0  0  0  0  0  0  0  0  0
   58.0830   28.1700   44.5790 O   0  0  0  0  0  0  0  0  0  0  0  0
   58.8410   29.4760   46.3640 N   0  0  0  0  0  0  0  0  0  0  0  0
   59.7980   29.3620   47.4720 C   0  0  0  0  0  0  0  0  0  0  0  0
   60.8221   29.3824   47.0711 H   0  0  0  0  0  0  0  0  0  0  0  0
   59.6214   28.4149   48.0029 H   0  0  0  0  0  0  0  0  0  0  0  0
   59.6150   30.5230   48.4490 C   0  0  0  0  0  0  0  0  0  0  0  0
   60.4324   30.4933   49.1845 H   0  0  0  0  0  0  0  0  0  0  0  0
   58.6295   30.4005   48.9220 H   0  0  0  0  0  0  0  0  0  0  0  0
   59.6250   31.9030   47.7600 C   0  0  0  0  0  0  0  0  0  0  0  0
   59.1462   32.6014   48.4621 H   0  0  0  0  0  0  0  0  0  0  0  0
   61.0340   32.4590   47.5610 C   0  0  0  0  0  0  0  0  0  0  0  0
   61.3340   33.4120   46.5690 C   0  0  0  0  0  0  0  0  0  0  0  0
   60.5328   33.7887   45.9163 H   0  0  0  0  0  0  0  0  0  0  0  0
   62.6380   33.8840   46.4050 C   0  0  0  0  0  0  0  0  0  0  0  0
   62.8560   34.6341   45.6306 H   0  0  0  0  0  0  0  0  0  0  0  0
   63.6640   33.4080   47.2190 C   0  0  0  0  0  0  0  0  0  0  0  0
   64.6884   33.7855   47.0840 H   0  0  0  0  0  0  0  0  0  0  0  0
   63.4000   32.4540   48.2060 C   0  0  0  0  0  0  0  0  0  0  0  0
   64.4680   32.0040   48.9980 O   0  0  0  0  0  0  0  0  0  0  0  0
   65.2790   32.8450   49.8130 C   0  0  0  0  0  0  0  0  0  0  0  0
   65.0759   32.6344   50.8734 H   0  0  0  0  0  0  0  0  0  0  0  0
   66.3402   32.6516   49.5975 H   0  0  0  0  0  0  0  0  0  0  0  0
   65.0472   33.8985   49.5975 H   0  0  0  0  0  0  0  0  0  0  0  0
   62.0840   31.9800   48.3720 C   0  0  0  0  0  0  0  0  0  0  0  0
   61.8723   31.2261   49.1445 H   0  0  0  0  0  0  0  0  0  0  0  0
   58.7380   31.9510   46.4930 C   0  0  0  0  0  0  0  0  0  0  0  0
   59.0296   32.8340   45.9055 H   0  0  0  0  0  0  0  0  0  0  0  0
   57.6972   31.9867   46.8473 H   0  0  0  0  0  0  0  0  0  0  0  0
   58.8400   30.7170   45.5820 C   0  0  0  0  0  0  0  0  0  0  0  0
   59.7728   30.7759   45.0020 H   0  0  0  0  0  0  0  0  0  0  0  0
   57.9664   30.7056   44.9137 H   0  0  0  0  0  0  0  0  0  0  0  0
  1  2  1  0
  2  3  1  0
  3  4  1  0
  4  5  2  0
  5  6  1  0
  6  7  2  0
  6  8  1  0
  8  9  1  0
  8 10  1  0
  8 11  1  0
 11 12  1  0
 11 13  1  0
 11 14  1  0
 14 15  2  0
 15 16  1  0
 16 17  1  0
 17 18  2  0
 18 19  1  0
  4 20  1  0
 20 21  1  0
 21 22  1  0
 22 23  1  0
 22 24  1  0
 22 25  1  0
 25 26  2  0
 25 27  1  0
 27 28  1  0
 28 29  1  0
 28 30  1  0
 28 31  1  0
 31 32  1  0
 31 33  1  0
 31 34  1  0
 34 35  1  0
 34 36  1  0
 36 37  2  0
 37 38  1  0
 37 39  1  0
 39 40  1  0
 39 41  2  0
 41 42  1  0
 41 43  1  0
 43 44  1  0
 44 45  1  0
 45 46  1  0
 45 47  1  0
 45 48  1  0
 43 49  2  0
 49 50  1  0
 34 51  1  0
 51 52  1  0
 51 53  1  0
 51 54  1  0
 54 55  1  0
 54 56  1  0
 21  2  2  0
 54 27  1  0
 18 14  1  0
 49 36  1  0
M  CHG  3  16  -1  18   1  20  -1
M  END
>  <UniqueID>  (65) 
60

>  <SMILES>  (65) 
COc1cccc(C2CCN(C(=O)Cc3cs/c(=N/C(=O)CCc4n[n-]n[nH+]4)[n-]3)CC2)c1

>  <Energy>  (65) 
132.89239124494316

>  <Genealogy>  (65) 
COc1cccc(C2CCN(C(=O)Cc3csc(=NC(=O)CCc4n[n-]n[nH+]4)[n-]3)CC2)c1 (protonated)
COc1cccc(C2CCN(C(=O)Cc3cs/c(=N/C(=O)CCc4n[n-]n[nH+]4)[n-]3)CC2)c1 (cis-trans isomerization)
COc1cccc(C2CCN(C(=O)Cc3cs/c(=N/C(=O)CCc4n[n-]n[nH+]4)[n-]3)CC2)c1 (3D coordinates assigned)
COc1cccc(C2CCN(C(=O)Cc3cs/c(=N/C(=O)CCc4n[n-]n[nH+]4)[n-]3)CC2)c1 (nonaromatic ring conformer: 132.89239124494316 kcal/mol)

>  <smiles>  (65) 
COc1cccc(C2CCN(C(=O)Cc3csc(=NC(=O)CCc4nn[nH]n4)[nH]3)CC2)c1

>  <score_type>  (65) 
oracle

>  <origin>  (65) 
adg

>  <m_score__min__energy>  (65) 
-13.65

>  <m_primary>  (65) 
energy

$$$$
65:0
     RDKit          3D

 40 42  0  0  0  0  0  0  0  0999 V2000
   56.3830   29.0020   54.3640 C   0  0  0  0  0  0  0  0  0  0  0  0
   55.6040   29.6000   53.4580 C   0  0  0  0  0  0  0  0  0  0  0  0
   54.2640   29.6680   53.5850 N   0  0  0  0  0  0  0  0  0  0  0  0
   53.7890   30.3200   52.5030 C   0  0  0  0  0  0  0  0  0  0  0  0
   52.4770   30.5630   52.3280 C   0  0  0  0  0  0  0  0  0  0  0  0
   51.8160   30.8880   51.0430 C   0  0  0  0  0  0  0  0  0  0  0  0
   51.7390   30.0870   49.9650 N   0  0  0  0  0  0  0  0  0  0  0  0
   51.0430   30.8210   49.0710 C   0  0  0  0  0  0  0  0  0  0  0  0
   50.7640   30.4000   47.9190 O   0  0  0  0  0  0  0  0  0  0  0  0
   50.6700   32.0410   49.5110 N   0  0  0  0  0  0  0  0  0  0  0  0
   51.1660   32.0670   50.7590 C   0  0  0  0  0  0  0  0  0  0  0  0
   51.0260   33.1460   51.6210 O   0  0  0  0  0  0  0  0  0  0  0  0
   54.8410   30.6730   51.6680 C   0  0  0  0  0  0  0  0  0  0  0  0
   56.0000   30.2180   52.2740 C   0  0  0  0  0  0  0  0  0  0  0  0
   57.3550   30.4190   51.7200 C   0  0  0  0  0  0  0  0  0  0  0  0
   57.5910   30.2440   50.4960 O   0  0  0  0  0  0  0  0  0  0  0  0
   58.4150   30.7940   52.6030 N   0  0  0  0  0  0  0  0  0  0  0  0
   58.7970   32.1750   52.8670 C   0  0  0  0  0  0  0  0  0  0  0  0
   58.4070   33.0600   51.6820 C   0  0  0  0  0  0  0  0  0  0  0  0
   59.5980   33.3540   50.8030 C   0  0  0  0  0  0  0  0  0  0  0  0
   59.4240   33.5860   49.4280 C   0  0  0  0  0  0  0  0  0  0  0  0
   60.5210   33.9100   48.6250 C   0  0  0  0  0  0  0  0  0  0  0  0
   61.7960   34.0110   49.1870 C   0  0  0  0  0  0  0  0  0  0  0  0
   61.9790   33.7900   50.5590 C   0  0  0  0  0  0  0  0  0  0  0  0
   63.2450   33.8920   51.1320 O   0  0  0  0  0  0  0  0  0  0  0  0
   60.8800   33.4670   51.3640 C   0  0  0  0  0  0  0  0  0  0  0  0
   57.4728   28.9712   54.2177 H   0  0  0  0  0  0  0  0  0  0  0  0
   55.9345   28.5405   55.2561 H   0  0  0  0  0  0  0  0  0  0  0  0
   53.6960   29.2870   54.3780 H   0  0  0  0  0  0  0  0  0  0  0  0
   51.8368   30.5159   53.2212 H   0  0  0  0  0  0  0  0  0  0  0  0
   54.7678   31.2100   50.7108 H   0  0  0  0  0  0  0  0  0  0  0  0
   58.2813   32.5292   53.7718 H   0  0  0  0  0  0  0  0  0  0  0  0
   59.8858   32.2271   53.0143 H   0  0  0  0  0  0  0  0  0  0  0  0
   57.6403   32.5435   51.0859 H   0  0  0  0  0  0  0  0  0  0  0  0
   58.0195   34.0126   52.0723 H   0  0  0  0  0  0  0  0  0  0  0  0
   58.4211   33.5123   48.9822 H   0  0  0  0  0  0  0  0  0  0  0  0
   60.3802   34.0858   47.5483 H   0  0  0  0  0  0  0  0  0  0  0  0
   62.6576   34.2643   48.5518 H   0  0  0  0  0  0  0  0  0  0  0  0
   63.4760   33.4120   51.9940 H   0  0  0  0  0  0  0  0  0  0  0  0
   61.0218   33.3008   52.4421 H   0  0  0  0  0  0  0  0  0  0  0  0
  1  2  2  0
  2  3  1  0
  3  4  1  0
  4  5  2  3
  5  6  1  0
  6  7  1  0
  7  8  1  0
  8  9  2  0
  8 10  1  0
 10 11  1  0
 11 12  1  0
  4 13  1  0
 13 14  2  0
 14 15  1  0
 15 16  2  0
 15 17  1  0
 17 18  1  0
 18 19  1  0
 19 20  1  0
 20 21  2  0
 21 22  1  0
 22 23  2  0
 23 24  1  0
 24 25  1  0
 24 26  2  0
 14  2  1  0
 26 20  1  0
 11  6  2  0
  1 27  1  0
  1 28  1  0
  3 29  1  0
  5 30  1  0
 13 31  1  0
 18 32  1  0
 18 33  1  0
 19 34  1  0
 19 35  1  0
 21 36  1  0
 22 37  1  0
 23 38  1  0
 25 39  1  0
 26 40  1  0
M  CHG  4   7  -1  10  -1  12  -1  17  -1
M  END
>  <UniqueID>  (66) 
61

>  <SMILES>  (66) 
C=c1[nH]c(=Cc2[n-]c(=O)[n-]c2[O-])cc1C(=O)[N-]CCc1cccc(O)c1

>  <Energy>  (66) 
96.03545338882167

>  <Genealogy>  (66) 
C=c1[nH]c(=Cc2[n-]c(=O)[n-]c2[O-])cc1C(=O)[N-]CCc1cccc(O)c1 (protonated)
C=c1[nH]c(=Cc2[n-]c(=O)[n-]c2[O-])cc1C(=O)[N-]CCc1cccc(O)c1 (3D coordinates assigned)
C=c1[nH]c(=Cc2[n-]c(=O)[n-]c2[O-])cc1C(=O)[N-]CCc1cccc(O)c1 (optimized conformer: 96.03545338882167 kcal/mol)

>  <smiles>  (66) 
C=c1[nH]c(=Cc2[nH]c(=O)[nH]c2O)cc1C(=O)NCCc1cccc(O)c1

>  <score_type>  (66) 
oracle

>  <origin>  (66) 
adg

>  <m_score__min__energy>  (66) 
-17.420000000000002

>  <m_primary>  (66) 
energy

$$$$
66:0
     RDKit          3D

 51 55  0  0  0  0  0  0  0  0999 V2000
   61.1220   29.5520   50.0040 C   0  0  0  0  0  0  0  0  0  0  0  0
   60.6180   30.2120   48.8030 N   0  0  0  0  0  0  0  0  0  0  0  0
   59.5060   29.8700   48.1110 C   0  0  0  0  0  0  0  0  0  0  0  0
   59.3020   30.7600   47.0600 C   0  0  0  0  0  0  0  0  0  0  0  0
   58.1920   30.7290   46.0860 C   0  0  0  0  0  0  0  0  0  0  0  0
   57.7320   29.6600   45.4310 C   0  0  0  0  0  0  0  0  0  0  0  0
   58.1350   28.2480   45.6270 C   0  0  0  0  0  0  0  0  0  0  0  0
   59.4940   27.9070   45.6900 C   0  0  0  0  0  0  0  0  0  0  0  0
   59.8790   26.5810   45.8920 C   0  0  0  0  0  0  0  0  0  0  0  0
   58.9130   25.5800   46.0250 C   0  0  0  0  0  0  0  0  0  0  0  0
   57.5470   25.8960   45.9420 C   0  0  0  0  0  0  0  0  0  0  0  0
   56.5170   24.8440   46.1030 C   0  0  0  0  0  0  0  0  0  0  0  0
   55.7580   24.8680   47.1100 O   0  0  0  0  0  0  0  0  0  0  0  0
   56.3840   23.7810   45.1440 N   0  0  0  0  0  0  0  0  0  0  0  0
   56.0140   22.4410   45.6030 C   0  0  0  0  0  0  0  0  0  0  0  0
   56.4990   21.4000   44.5890 C   0  0  0  0  0  0  0  0  0  0  0  0
   56.0500   21.7180   43.2850 O   0  0  0  0  0  0  0  0  0  0  0  0
   56.6320   22.9360   42.8590 C   0  0  0  0  0  0  0  0  0  0  0  0
   56.1510   24.1000   43.7320 C   0  0  0  0  0  0  0  0  0  0  0  0
   57.1660   27.2350   45.7410 C   0  0  0  0  0  0  0  0  0  0  0  0
   56.7120   30.1340   44.4940 C   0  0  0  0  0  0  0  0  0  0  0  0
   56.0350   29.3980   43.7290 O   0  0  0  0  0  0  0  0  0  0  0  0
   56.5390   31.5440   44.5630 N   0  0  0  0  0  0  0  0  0  0  0  0
   57.4840   31.8990   45.5640 C   0  0  0  0  0  0  0  0  0  0  0  0
   57.7060   33.0910   45.9050 O   0  0  0  0  0  0  0  0  0  0  0  0
   60.3350   31.6780   47.1370 C   0  0  0  0  0  0  0  0  0  0  0  0
   60.6060   32.8250   46.3900 C   0  0  0  0  0  0  0  0  0  0  0  0
   61.7270   33.5960   46.7480 C   0  0  0  0  0  0  0  0  0  0  0  0
   62.5340   33.2170   47.8420 C   0  0  0  0  0  0  0  0  0  0  0  0
   62.2270   32.0680   48.5920 C   0  0  0  0  0  0  0  0  0  0  0  0
   61.1120   31.3170   48.2110 C   0  0  0  0  0  0  0  0  0  0  0  0
   60.7308   30.0642   50.8954 H   0  0  0  0  0  0  0  0  0  0  0  0
   60.7936   28.5022   50.0107 H   0  0  0  0  0  0  0  0  0  0  0  0
   62.2212   29.5924   50.0107 H   0  0  0  0  0  0  0  0  0  0  0  0
   58.8574   29.0130   48.3452 H   0  0  0  0  0  0  0  0  0  0  0  0
   60.2601   28.6886   45.5796 H   0  0  0  0  0  0  0  0  0  0  0  0
   60.9468   26.3227   45.9467 H   0  0  0  0  0  0  0  0  0  0  0  0
   59.2242   24.5388   46.1956 H   0  0  0  0  0  0  0  0  0  0  0  0
   56.4810   22.2464   46.5797 H   0  0  0  0  0  0  0  0  0  0  0  0
   54.9201   22.3762   45.6993 H   0  0  0  0  0  0  0  0  0  0  0  0
   57.5987   21.3760   44.5954 H   0  0  0  0  0  0  0  0  0  0  0  0
   56.0917   20.4179   44.8713 H   0  0  0  0  0  0  0  0  0  0  0  0
   57.7268   22.8582   42.9320 H   0  0  0  0  0  0  0  0  0  0  0  0
   56.3318   23.1267   41.8181 H   0  0  0  0  0  0  0  0  0  0  0  0
   56.7059   25.0117   43.4657 H   0  0  0  0  0  0  0  0  0  0  0  0
   55.0760   24.2632   43.5656 H   0  0  0  0  0  0  0  0  0  0  0  0
   56.0988   27.4926   45.6722 H   0  0  0  0  0  0  0  0  0  0  0  0
   59.9628   33.1174   45.5469 H   0  0  0  0  0  0  0  0  0  0  0  0
   61.9759   34.4994   46.1719 H   0  0  0  0  0  0  0  0  0  0  0  0
   63.4103   33.8254   48.1101 H   0  0  0  0  0  0  0  0  0  0  0  0
   62.8451   31.7697   49.4516 H   0  0  0  0  0  0  0  0  0  0  0  0
  1  2  1  0
  2  3  1  0
  3  4  2  0
  4  5  1  0
  5  6  2  0
  6  7  1  0
  7  8  2  0
  8  9  1  0
  9 10  2  0
 10 11  1  0
 11 12  1  0
 12 13  2  0
 12 14  1  0
 14 15  1  0
 15 16  1  0
 16 17  1  0
 17 18  1  0
 18 19  1  0
 11 20  2  0
  6 21  1  0
 21 22  2  0
 21 23  1  0
 23 24  1  0
 24 25  2  0
  4 26  1  0
 26 27  2  0
 27 28  1  0
 28 29  2  0
 29 30  1  0
 30 31  2  0
 31  2  1  0
 24  5  1  0
 31 26  1  0
 20  7  1  0
 19 14  1  0
  1 32  1  0
  1 33  1  0
  1 34  1  0
  3 35  1  0
  8 36  1  0
  9 37  1  0
 10 38  1  0
 15 39  1  0
 15 40  1  0
 16 41  1  0
 16 42  1  0
 18 43  1  0
 18 44  1  0
 19 45  1  0
 19 46  1  0
 20 47  1  0
 27 48  1  0
 28 49  1  0
 29 50  1  0
 30 51  1  0
M  CHG  1  23  -1
M  END
>  <UniqueID>  (67) 
62

>  <SMILES>  (67) 
Cn1cc(C2=C(c3cccc(C(=O)N4CCOCC4)c3)C(=O)[N-]C2=O)c2ccccc21

>  <Energy>  (67) 
127.72934867001544

>  <Genealogy>  (67) 
Cn1cc(C2=C(c3cccc(C(=O)N4CCOCC4)c3)C(=O)[N-]C2=O)c2ccccc21 (protonated)
Cn1cc(C2=C(c3cccc(C(=O)N4CCOCC4)c3)C(=O)[N-]C2=O)c2ccccc21 (3D coordinates assigned)
Cn1cc(C2=C(c3cccc(C(=O)N4CCOCC4)c3)C(=O)[N-]C2=O)c2ccccc21 (nonaromatic ring conformer: 127.72934867001544 kcal/mol)

>  <smiles>  (67) 
Cn1cc(C2=C(c3cccc(C(=O)N4CCOCC4)c3)C(=O)NC2=O)c2ccccc21

>  <score_type>  (67) 
oracle

>  <origin>  (67) 
adg

>  <m_score__min__energy>  (67) 
-11.24

>  <m_primary>  (67) 
energy

$$$$
67:0
     RDKit          3D

 47 50  0  0  0  0  0  0  0  0999 V2000
   61.3902   27.5096   48.7135 H   0  0  0  0  0  0  0  0  0  0  0  0
   60.5270   27.4240   48.0370 C   0  0  0  0  0  0  0  0  0  0  0  0
   60.2580   26.4468   47.6096 H   0  0  0  0  0  0  0  0  0  0  0  0
   59.8020   28.5120   47.7330 C   0  0  0  0  0  0  0  0  0  0  0  0
   58.6790   28.5680   46.8910 C   0  0  0  0  0  0  0  0  0  0  0  0
   58.1620   27.6570   46.0440 C   0  0  0  0  0  0  0  0  0  0  0  0
   58.2476   27.8669   44.9676 H   0  0  0  0  0  0  0  0  0  0  0  0
   57.4930   26.4060   46.4330 C   0  0  0  0  0  0  0  0  0  0  0  0
   58.1300   25.3720   47.0110 N   0  0  0  0  0  0  0  0  0  0  0  0
   57.1280   24.5150   47.3060 C   0  0  0  0  0  0  0  0  0  0  0  0
   57.3300   23.4000   47.8530 O   0  0  0  0  0  0  0  0  0  0  0  0
   55.8930   24.9500   46.9790 N   0  0  0  0  0  0  0  0  0  0  0  0
   56.1400   26.1560   46.4420 C   0  0  0  0  0  0  0  0  0  0  0  0
   55.1470   27.0190   45.9950 O   0  0  0  0  0  0  0  0  0  0  0  0
   58.1400   29.8320   47.0500 C   0  0  0  0  0  0  0  0  0  0  0  0
   57.2259   30.2179   46.5751 H   0  0  0  0  0  0  0  0  0  0  0  0
   58.9650   30.5160   47.9160 C   0  0  0  0  0  0  0  0  0  0  0  0
   58.7870   31.9350   48.2840 C   0  0  0  0  0  0  0  0  0  0  0  0
   58.2170   32.2150   49.3730 O   0  0  0  0  0  0  0  0  0  0  0  0
   59.2570   32.9960   47.4340 N   0  0  0  0  0  0  0  0  0  0  0  0
   59.2120   34.3930   47.8280 C   0  0  0  0  0  0  0  0  0  0  0  0
   58.2296   34.6379   48.2580 H   0  0  0  0  0  0  0  0  0  0  0  0
   59.9678   34.6214   48.5938 H   0  0  0  0  0  0  0  0  0  0  0  0
   59.4470   35.1930   46.5540 C   0  0  0  0  0  0  0  0  0  0  0  0
   58.5009   35.6220   46.1922 H   0  0  0  0  0  0  0  0  0  0  0  0
   60.1401   36.0296   46.7260 H   0  0  0  0  0  0  0  0  0  0  0  0
   60.0060   34.2050   45.5330 C   0  0  0  0  0  0  0  0  0  0  0  0
   59.5584   34.3832   44.5441 H   0  0  0  0  0  0  0  0  0  0  0  0
   61.0951   34.3131   45.4225 H   0  0  0  0  0  0  0  0  0  0  0  0
   59.6320   32.8190   46.0410 C   0  0  0  0  0  0  0  0  0  0  0  0
   58.7864   32.4151   45.4650 H   0  0  0  0  0  0  0  0  0  0  0  0
   60.4657   32.1095   45.9330 H   0  0  0  0  0  0  0  0  0  0  0  0
   59.9870   29.7240   48.3210 N   0  0  0  0  0  0  0  0  0  0  0  0
   61.0420   30.0860   49.2830 C   0  0  0  0  0  0  0  0  0  0  0  0
   60.5804   30.3053   50.2571 H   0  0  0  0  0  0  0  0  0  0  0  0
   61.7419   29.2418   49.3687 H   0  0  0  0  0  0  0  0  0  0  0  0
   61.8120   31.3050   48.8140 C   0  0  0  0  0  0  0  0  0  0  0  0
   62.5070   31.2520   47.5900 C   0  0  0  0  0  0  0  0  0  0  0  0
   62.4957   30.3258   46.9966 H   0  0  0  0  0  0  0  0  0  0  0  0
   63.2100   32.3640   47.1230 C   0  0  0  0  0  0  0  0  0  0  0  0
   63.7582   32.3064   46.1711 H   0  0  0  0  0  0  0  0  0  0  0  0
   63.2190   33.5470   47.8600 C   0  0  0  0  0  0  0  0  0  0  0  0
   63.7797   34.4193   47.4930 H   0  0  0  0  0  0  0  0  0  0  0  0
   62.5170   33.6250   49.0630 C   0  0  0  0  0  0  0  0  0  0  0  0
   62.5219   34.5628   49.6380 H   0  0  0  0  0  0  0  0  0  0  0  0
   61.8050   32.5170   49.5450 C   0  0  0  0  0  0  0  0  0  0  0  0
   60.9220   32.7030   51.0570 Cl  0  0  0  0  0  0  0  0  0  0  0  0
  1  2  1  0
  2  3  1  0
  2  4  2  0
  4  5  1  0
  5  6  2  0
  6  7  1  0
  6  8  1  0
  8  9  1  0
  9 10  1  0
 10 11  2  0
 10 12  1  0
 12 13  1  0
 13 14  1  0
  5 15  1  0
 15 16  1  0
 15 17  2  0
 17 18  1  0
 18 19  2  0
 18 20  1  0
 20 21  1  0
 21 22  1  0
 21 23  1  0
 21 24  1  0
 24 25  1  0
 24 26  1  0
 24 27  1  0
 27 28  1  0
 27 29  1  0
 27 30  1  0
 30 31  1  0
 30 32  1  0
 17 33  1  0
 33 34  1  0
 34 35  1  0
 34 36  1  0
 34 37  1  0
 37 38  2  0
 38 39  1  0
 38 40  1  0
 40 41  1  0
 40 42  2  0
 42 43  1  0
 42 44  1  0
 44 45  1  0
 44 46  2  0
 46 47  1  0
 33  4  1  0
 46 37  1  0
 13  8  2  0
 30 20  1  0
M  CHG  3   9  -1  12  -1  14  -1
M  END
>  <UniqueID>  (68) 
63

>  <SMILES>  (68) 
C=c1/c(=C\c2[n-]c(=O)[n-]c2[O-])cc(C(=O)N2CCCC2)n1Cc1ccccc1Cl

>  <Energy>  (68) 
126.20621432603583

>  <Genealogy>  (68) 
C=c1c(=Cc2[n-]c(=O)[n-]c2[O-])cc(C(=O)N2CCCC2)n1Cc1ccccc1Cl (protonated)
C=c1/c(=C\c2[n-]c(=O)[n-]c2[O-])cc(C(=O)N2CCCC2)n1Cc1ccccc1Cl (cis-trans isomerization)
C=c1/c(=C\c2[n-]c(=O)[n-]c2[O-])cc(C(=O)N2CCCC2)n1Cc1ccccc1Cl (3D coordinates assigned)
C=c1/c(=C\c2[n-]c(=O)[n-]c2[O-])cc(C(=O)N2CCCC2)n1Cc1ccccc1Cl (nonaromatic ring conformer: 126.20621432603583 kcal/mol)

>  <smiles>  (68) 
C=c1c(=Cc2[nH]c(=O)[nH]c2O)cc(C(=O)N2CCCC2)n1Cc1ccccc1Cl

>  <score_type>  (68) 
oracle

>  <origin>  (68) 
adg

>  <m_score__min__energy>  (68) 
-16.879999999999999

>  <m_primary>  (68) 
energy

$$$$
68:0
     RDKit          3D

 53 54  0  0  0  0  0  0  0  0999 V2000
   63.3020   33.8450   46.3580 C   0  0  0  0  0  0  0  0  0  0  0  0
   63.7500   33.4530   47.7610 C   0  0  0  0  0  0  0  0  0  0  0  0
   62.6180   32.9240   48.5350 N   0  0  0  0  0  0  0  0  0  0  0  0
   62.1000   33.7370   49.6510 C   0  0  0  0  0  0  0  0  0  0  0  0
   60.6330   33.5040   49.8810 C   0  0  0  0  0  0  0  0  0  0  0  0
   59.8240   34.4340   49.6140 O   0  0  0  0  0  0  0  0  0  0  0  0
   60.1460   32.2240   50.3160 N   0  0  0  0  0  0  0  0  0  0  0  0
   58.8720   32.0150   50.9540 C   0  0  0  0  0  0  0  0  0  0  0  0
   58.2510   33.0490   51.6860 C   0  0  0  0  0  0  0  0  0  0  0  0
   57.0630   32.8140   52.3770 C   0  0  0  0  0  0  0  0  0  0  0  0
   56.4750   31.5490   52.3480 C   0  0  0  0  0  0  0  0  0  0  0  0
   57.0820   30.5100   51.6400 C   0  0  0  0  0  0  0  0  0  0  0  0
   58.2900   30.7290   50.9480 C   0  0  0  0  0  0  0  0  0  0  0  0
   58.9390   29.6970   50.2470 O   0  0  0  0  0  0  0  0  0  0  0  0
   60.0850   28.9930   50.7200 C   0  0  0  0  0  0  0  0  0  0  0  0
   62.1260   31.5730   48.3460 C   0  0  0  0  0  0  0  0  0  0  0  0
   62.3050   30.7120   49.2510 O   0  0  0  0  0  0  0  0  0  0  0  0
   61.3700   31.1530   47.1150 C   0  0  0  0  0  0  0  0  0  0  0  0
   59.6100   30.8500   47.5050 S   0  0  0  0  0  0  0  0  0  0  0  0
   58.9750   32.1820   46.4710 C   0  0  0  0  0  0  0  0  0  0  0  0
   59.4120   33.4810   46.7640 C   0  0  0  0  0  0  0  0  0  0  0  0
   59.0230   34.5610   45.9700 C   0  0  0  0  0  0  0  0  0  0  0  0
   58.1910   34.3520   44.8720 C   0  0  0  0  0  0  0  0  0  0  0  0
   57.7370   33.0650   44.5720 C   0  0  0  0  0  0  0  0  0  0  0  0
   58.1190   31.9590   45.3590 C   0  0  0  0  0  0  0  0  0  0  0  0
   57.6150   30.6150   44.9750 C   0  0  0  0  0  0  0  0  0  0  0  0
   58.3690   29.6060   45.0160 O   0  0  0  0  0  0  0  0  0  0  0  0
   56.2800   30.4690   44.5770 O   0  0  0  0  0  0  0  0  0  0  0  0
   55.9060   29.7980   43.3800 C   0  0  0  0  0  0  0  0  0  0  0  0
   62.4757   34.5680   46.4255 H   0  0  0  0  0  0  0  0  0  0  0  0
   64.1449   34.3009   45.8179 H   0  0  0  0  0  0  0  0  0  0  0  0
   62.9620   32.9490   45.8179 H   0  0  0  0  0  0  0  0  0  0  0  0
   64.5310   32.6817   47.6891 H   0  0  0  0  0  0  0  0  0  0  0  0
   64.1430   34.3451   48.2707 H   0  0  0  0  0  0  0  0  0  0  0  0
   62.6496   33.4746   50.5670 H   0  0  0  0  0  0  0  0  0  0  0  0
   62.2404   34.7973   49.3940 H   0  0  0  0  0  0  0  0  0  0  0  0
   60.7670   31.3940   50.1680 H   0  0  0  0  0  0  0  0  0  0  0  0
   58.7080   34.0492   51.7118 H   0  0  0  0  0  0  0  0  0  0  0  0
   56.5886   33.6272   52.9459 H   0  0  0  0  0  0  0  0  0  0  0  0
   55.5313   31.3700   52.8840 H   0  0  0  0  0  0  0  0  0  0  0  0
   56.6145   29.5144   51.6222 H   0  0  0  0  0  0  0  0  0  0  0  0
   60.0866   28.9920   51.8200 H   0  0  0  0  0  0  0  0  0  0  0  0
   60.0562   27.9566   50.3525 H   0  0  0  0  0  0  0  0  0  0  0  0
   60.9964   29.4872   50.3525 H   0  0  0  0  0  0  0  0  0  0  0  0
   61.4399   31.9496   46.3597 H   0  0  0  0  0  0  0  0  0  0  0  0
   61.8113   30.2213   46.7313 H   0  0  0  0  0  0  0  0  0  0  0  0
   60.0691   33.6513   47.6296 H   0  0  0  0  0  0  0  0  0  0  0  0
   59.3728   35.5757   46.2107 H   0  0  0  0  0  0  0  0  0  0  0  0
   57.8912   35.2013   44.2405 H   0  0  0  0  0  0  0  0  0  0  0  0
   57.0719   32.9123   43.7093 H   0  0  0  0  0  0  0  0  0  0  0  0
   55.3846   28.8626   43.6316 H   0  0  0  0  0  0  0  0  0  0  0  0
   55.2375   30.4435   42.7913 H   0  0  0  0  0  0  0  0  0  0  0  0
   56.8066   29.5689   42.7913 H   0  0  0  0  0  0  0  0  0  0  0  0
  1  2  1  0
  2  3  1  0
  3  4  1  0
  4  5  1  0
  5  6  2  0
  5  7  1  0
  7  8  1  0
  8  9  2  0
  9 10  1  0
 10 11  2  0
 11 12  1  0
 12 13  2  0
 13 14  1  0
 14 15  1  0
  3 16  1  0
 16 17  2  0
 16 18  1  0
 18 19  1  0
 19 20  1  0
 20 21  2  0
 21 22  1  0
 22 23  2  0
 23 24  1  0
 24 25  2  0
 25 26  1  0
 26 27  2  0
 26 28  1  0
 28 29  1  0
 13  8  1  0
 25 20  1  0
  1 30  1  0
  1 31  1  0
  1 32  1  0
  2 33  1  0
  2 34  1  0
  4 35  1  0
  4 36  1  0
  7 37  1  0
  9 38  1  0
 10 39  1  0
 11 40  1  0
 12 41  1  0
 15 42  1  0
 15 43  1  0
 15 44  1  0
 18 45  1  0
 18 46  1  0
 21 47  1  0
 22 48  1  0
 23 49  1  0
 24 50  1  0
 29 51  1  0
 29 52  1  0
 29 53  1  0
M  END
>  <UniqueID>  (69) 
64

>  <SMILES>  (69) 
CCN(CC(=O)Nc1ccccc1OC)C(=O)CSc1ccccc1C(=O)OC

>  <Energy>  (69) 
47.60111629202734

>  <Genealogy>  (69) 
CCN(CC(=O)Nc1ccccc1OC)C(=O)CSc1ccccc1C(=O)OC (3D coordinates assigned)
CCN(CC(=O)Nc1ccccc1OC)C(=O)CSc1ccccc1C(=O)OC (optimized conformer: 47.60111629202734 kcal/mol)

>  <smiles>  (69) 
CCN(CC(=O)Nc1ccccc1OC)C(=O)CSc1ccccc1C(=O)OC

>  <score_type>  (69) 
oracle

>  <origin>  (69) 
adg

>  <m_score__min__energy>  (69) 
-8.2400000000000002

>  <m_primary>  (69) 
energy

$$$$
69:0
     RDKit          3D

 35 37  0  0  0  0  0  0  0  0999 V2000
   63.7440   31.2520   50.5120 C   0  0  0  0  0  0  0  0  0  0  0  0
   64.4900   32.6810   49.7550 S   0  0  0  0  0  0  0  0  0  0  0  0
   63.9040   33.9140   50.3820 O   0  0  0  0  0  0  0  0  0  0  0  0
   65.9760   32.6830   49.9850 O   0  0  0  0  0  0  0  0  0  0  0  0
   64.1500   32.7040   48.0530 N   0  0  0  0  0  0  0  0  0  0  0  0
   62.8290   32.7440   47.4810 C   0  0  0  0  0  0  0  0  0  0  0  0
   62.3640   33.9490   46.9310 C   0  0  0  0  0  0  0  0  0  0  0  0
   61.0880   34.0290   46.3700 C   0  0  0  0  0  0  0  0  0  0  0  0
   60.2600   32.9060   46.3470 C   0  0  0  0  0  0  0  0  0  0  0  0
   60.7030   31.6850   46.8850 C   0  0  0  0  0  0  0  0  0  0  0  0
   59.8250   30.4880   46.8560 C   0  0  0  0  0  0  0  0  0  0  0  0
   60.1450   29.3520   47.6180 C   0  0  0  0  0  0  0  0  0  0  0  0
   59.3220   28.2240   47.5960 C   0  0  0  0  0  0  0  0  0  0  0  0
   58.1620   28.2110   46.8100 C   0  0  0  0  0  0  0  0  0  0  0  0
   57.3320   27.0820   46.7850 C   0  0  0  0  0  0  0  0  0  0  0  0
   56.1810   27.0960   45.9960 C   0  0  0  0  0  0  0  0  0  0  0  0
   55.3490   25.9840   45.9610 O   0  0  0  0  0  0  0  0  0  0  0  0
   55.8700   28.1950   45.2600 N   0  0  0  0  0  0  0  0  0  0  0  0
   56.6490   29.3080   45.2580 C   0  0  0  0  0  0  0  0  0  0  0  0
   56.3080   30.2970   44.5550 O   0  0  0  0  0  0  0  0  0  0  0  0
   57.8230   29.3460   46.0380 C   0  0  0  0  0  0  0  0  0  0  0  0
   58.6590   30.4770   46.0670 C   0  0  0  0  0  0  0  0  0  0  0  0
   61.9910   31.6130   47.4490 C   0  0  0  0  0  0  0  0  0  0  0  0
   63.7944   31.3486   51.6066 H   0  0  0  0  0  0  0  0  0  0  0  0
   62.6922   31.1780   50.1985 H   0  0  0  0  0  0  0  0  0  0  0  0
   64.2846   30.3468   50.1985 H   0  0  0  0  0  0  0  0  0  0  0  0
   64.9760   32.7380   47.4130 H   0  0  0  0  0  0  0  0  0  0  0  0
   63.0110   34.8385   46.9421 H   0  0  0  0  0  0  0  0  0  0  0  0
   60.7344   34.9799   45.9449 H   0  0  0  0  0  0  0  0  0  0  0  0
   59.2550   32.9765   45.9054 H   0  0  0  0  0  0  0  0  0  0  0  0
   61.0533   29.3510   48.2385 H   0  0  0  0  0  0  0  0  0  0  0  0
   59.5854   27.3420   48.1982 H   0  0  0  0  0  0  0  0  0  0  0  0
   57.5854   26.1933   47.3816 H   0  0  0  0  0  0  0  0  0  0  0  0
   58.3991   31.3617   45.4672 H   0  0  0  0  0  0  0  0  0  0  0  0
   62.3471   30.6612   47.8700 H   0  0  0  0  0  0  0  0  0  0  0  0
  1  2  1  0
  2  3  2  0
  2  4  2  0
  2  5  1  0
  5  6  1  0
  6  7  2  0
  7  8  1  0
  8  9  2  0
  9 10  1  0
 10 11  1  0
 11 12  2  0
 12 13  1  0
 13 14  2  0
 14 15  1  0
 15 16  2  0
 16 17  1  0
 16 18  1  0
 18 19  1  0
 19 20  2  0
 19 21  1  0
 21 22  2  0
 10 23  2  0
 23  6  1  0
 22 11  1  0
 21 14  1  0
  1 24  1  0
  1 25  1  0
  1 26  1  0
  5 27  1  0
  7 28  1  0
  8 29  1  0
  9 30  1  0
 12 31  1  0
 13 32  1  0
 15 33  1  0
 22 34  1  0
 23 35  1  0
M  CHG  2  17  -1  18  -1
M  END
>  <UniqueID>  (70) 
65

>  <SMILES>  (70) 
CS(=O)(=O)Nc1cccc(-c2ccc3cc([O-])[n-]c(=O)c3c2)c1

>  <Energy>  (70) 
46.79585733943316

>  <Genealogy>  (70) 
CS(=O)(=O)Nc1cccc(-c2ccc3cc([O-])[n-]c(=O)c3c2)c1 (protonated)
CS(=O)(=O)Nc1cccc(-c2ccc3cc([O-])[n-]c(=O)c3c2)c1 (3D coordinates assigned)
CS(=O)(=O)Nc1cccc(-c2ccc3cc([O-])[n-]c(=O)c3c2)c1 (optimized conformer: 46.79585733943316 kcal/mol)

>  <smiles>  (70) 
CS(=O)(=O)Nc1cccc(-c2ccc3cc(O)[nH]c(=O)c3c2)c1

>  <score_type>  (70) 
oracle

>  <origin>  (70) 
adg

>  <m_score__min__energy>  (70) 
-13

>  <m_primary>  (70) 
energy

$$$$
70:0
     RDKit          3D

 37 38  0  0  0  0  0  0  0  0999 V2000
   60.1020   27.9950   46.1540 C   0  0  0  0  0  0  0  0  0  0  0  0
   59.0200   28.5980   45.6120 C   0  0  0  0  0  0  0  0  0  0  0  0
   58.8210   29.9970   45.8030 C   0  0  0  0  0  0  0  0  0  0  0  0
   59.4040   30.6870   47.0250 C   0  0  0  0  0  0  0  0  0  0  0  0
   58.4220   31.4730   47.6410 O   0  0  0  0  0  0  0  0  0  0  0  0
   58.0790   30.7400   44.8350 C   0  0  0  0  0  0  0  0  0  0  0  0
   58.0400   32.2630   44.8620 C   0  0  0  0  0  0  0  0  0  0  0  0
   56.9630   32.6960   45.6450 O   0  0  0  0  0  0  0  0  0  0  0  0
   57.3980   30.0390   43.8040 C   0  0  0  0  0  0  0  0  0  0  0  0
   56.5940   30.7300   42.7160 C   0  0  0  0  0  0  0  0  0  0  0  0
   57.4640   31.7050   41.9260 C   0  0  0  0  0  0  0  0  0  0  0  0
   57.4370   28.6420   43.7720 C   0  0  0  0  0  0  0  0  0  0  0  0
   58.1710   27.8960   44.7060 C   0  0  0  0  0  0  0  0  0  0  0  0
   58.0030   26.5480   44.6850 C   0  0  0  0  0  0  0  0  0  0  0  0
   57.3980   25.7390   45.7640 C   0  0  0  0  0  0  0  0  0  0  0  0
   58.0650   24.8330   46.5050 N   0  0  0  0  0  0  0  0  0  0  0  0
   57.1470   24.4320   47.4110 C   0  0  0  0  0  0  0  0  0  0  0  0
   57.3940   23.5650   48.2890 O   0  0  0  0  0  0  0  0  0  0  0  0
   55.9450   25.0390   47.3060 N   0  0  0  0  0  0  0  0  0  0  0  0
   56.1210   25.8700   46.2660 C   0  0  0  0  0  0  0  0  0  0  0  0
   55.1270   26.7210   45.7910 O   0  0  0  0  0  0  0  0  0  0  0  0
   60.2603   26.9161   46.0097 H   0  0  0  0  0  0  0  0  0  0  0  0
   60.8240   28.5834   46.7393 H   0  0  0  0  0  0  0  0  0  0  0  0
   59.7632   29.9283   47.7359 H   0  0  0  0  0  0  0  0  0  0  0  0
   60.2407   31.3298   46.7139 H   0  0  0  0  0  0  0  0  0  0  0  0
   57.5860   31.3220   47.1280 H   0  0  0  0  0  0  0  0  0  0  0  0
   58.9789   32.6448   45.2893 H   0  0  0  0  0  0  0  0  0  0  0  0
   57.9187   32.6415   43.8363 H   0  0  0  0  0  0  0  0  0  0  0  0
   57.3440   32.9580   46.5240 H   0  0  0  0  0  0  0  0  0  0  0  0
   56.1910   29.9707   42.0297 H   0  0  0  0  0  0  0  0  0  0  0  0
   55.7775   31.2947   43.1897 H   0  0  0  0  0  0  0  0  0  0  0  0
   58.0301   32.3395   42.6238 H   0  0  0  0  0  0  0  0  0  0  0  0
   58.1644   31.1410   41.2925 H   0  0  0  0  0  0  0  0  0  0  0  0
   56.8242   32.3369   41.2925 H   0  0  0  0  0  0  0  0  0  0  0  0
   56.8745   28.1111   42.9899 H   0  0  0  0  0  0  0  0  0  0  0  0
   58.3468   26.0125   43.7877 H   0  0  0  0  0  0  0  0  0  0  0  0
   54.7680   27.4820   46.3550 H   0  0  0  0  0  0  0  0  0  0  0  0
  1  2  2  0
  2  3  1  0
  3  4  1  0
  4  5  1  0
  3  6  2  0
  6  7  1  0
  7  8  1  0
  6  9  1  0
  9 10  1  0
 10 11  1  0
  9 12  2  0
 12 13  1  0
 13 14  2  3
 14 15  1  0
 15 16  1  0
 16 17  1  0
 17 18  2  0
 17 19  1  0
 19 20  1  0
 20 21  1  0
 13  2  1  0
 20 15  2  0
  1 22  1  0
  1 23  1  0
  4 24  1  0
  4 25  1  0
  5 26  1  0
  7 27  1  0
  7 28  1  0
  8 29  1  0
 10 30  1  0
 10 31  1  0
 11 32  1  0
 11 33  1  0
 11 34  1  0
 12 35  1  0
 14 36  1  0
 21 37  1  0
M  CHG  2  16  -1  19  -1
M  END
>  <UniqueID>  (71) 
66

>  <SMILES>  (71) 
C=c1c(CO)c(CO)c(CC)cc1=Cc1[n-]c(=O)[n-]c1O

>  <Energy>  (71) 
95.51811727975124

>  <Genealogy>  (71) 
C=c1c(CO)c(CO)c(CC)cc1=Cc1[n-]c(=O)[n-]c1O (protonated)
C=c1c(CO)c(CO)c(CC)cc1=Cc1[n-]c(=O)[n-]c1O (3D coordinates assigned)
C=c1c(CO)c(CO)c(CC)cc1=Cc1[n-]c(=O)[n-]c1O (optimized conformer: 95.51811727975124 kcal/mol)

>  <smiles>  (71) 
C=c1c(CO)c(CO)c(CC)cc1=Cc1[nH]c(=O)[nH]c1O

>  <score_type>  (71) 
oracle

>  <origin>  (71) 
adg

>  <m_score__min__energy>  (71) 
-11.050000000000001

>  <m_primary>  (71) 
energy

$$$$
71:0
     RDKit          3D

 52 55  0  0  0  0  0  0  0  0999 V2000
   56.1550   29.9350   43.3160 C   0  0  0  0  0  0  0  0  0  0  0  0
   56.8480   29.6210   44.4140 C   0  0  0  0  0  0  0  0  0  0  0  0
   56.8890   28.3720   44.9230 N   0  0  0  0  0  0  0  0  0  0  0  0
   57.7000   28.4150   46.0030 C   0  0  0  0  0  0  0  0  0  0  0  0
   58.0160   27.3840   46.8070 C   0  0  0  0  0  0  0  0  0  0  0  0
   57.3090   26.0870   46.8810 C   0  0  0  0  0  0  0  0  0  0  0  0
   57.8320   24.9210   47.3020 N   0  0  0  0  0  0  0  0  0  0  0  0
   56.8180   24.0440   47.1480 C   0  0  0  0  0  0  0  0  0  0  0  0
   56.9240   22.8250   47.4460 O   0  0  0  0  0  0  0  0  0  0  0  0
   55.6830   24.5740   46.6470 N   0  0  0  0  0  0  0  0  0  0  0  0
   56.0120   25.8640   46.4810 C   0  0  0  0  0  0  0  0  0  0  0  0
   55.1440   26.8210   45.9700 O   0  0  0  0  0  0  0  0  0  0  0  0
   58.1850   29.6990   46.1820 C   0  0  0  0  0  0  0  0  0  0  0  0
   57.6420   30.4750   45.1740 C   0  0  0  0  0  0  0  0  0  0  0  0
   57.8400   31.9340   45.0290 C   0  0  0  0  0  0  0  0  0  0  0  0
   57.2380   32.5610   44.1170 O   0  0  0  0  0  0  0  0  0  0  0  0
   58.6520   32.6610   45.9670 N   0  0  0  0  0  0  0  0  0  0  0  0
   58.2050   33.9890   46.4110 C   0  0  0  0  0  0  0  0  0  0  0  0
   58.9860   34.4560   47.6490 C   0  0  0  0  0  0  0  0  0  0  0  0
   59.3410   33.2590   48.5550 C   0  0  0  0  0  0  0  0  0  0  0  0
   58.1360   32.4880   48.9320 N   0  0  0  0  0  0  0  0  0  0  0  0
   58.1890   32.0010   50.3170 C   0  0  0  0  0  0  0  0  0  0  0  0
   59.0130   30.7440   50.3710 C   0  0  0  0  0  0  0  0  0  0  0  0
   59.9390   30.5410   51.4070 C   0  0  0  0  0  0  0  0  0  0  0  0
   60.7400   29.3960   51.4210 C   0  0  0  0  0  0  0  0  0  0  0  0
   60.6310   28.4510   50.3960 C   0  0  0  0  0  0  0  0  0  0  0  0
   61.4110   27.3430   50.4090 F   0  0  0  0  0  0  0  0  0  0  0  0
   59.7220   28.6540   49.3540 C   0  0  0  0  0  0  0  0  0  0  0  0
   58.9180   29.7990   49.3360 C   0  0  0  0  0  0  0  0  0  0  0  0
   60.3330   32.3450   47.7910 C   0  0  0  0  0  0  0  0  0  0  0  0
   60.0140   32.2030   46.2850 C   0  0  0  0  0  0  0  0  0  0  0  0
   56.1551   30.9697   42.9427 H   0  0  0  0  0  0  0  0  0  0  0  0
   55.5843   29.1588   42.7851 H   0  0  0  0  0  0  0  0  0  0  0  0
   56.3950   27.5480   44.5170 H   0  0  0  0  0  0  0  0  0  0  0  0
   58.8818   27.5181   47.4721 H   0  0  0  0  0  0  0  0  0  0  0  0
   58.8702   30.0371   46.9733 H   0  0  0  0  0  0  0  0  0  0  0  0
   58.3610   34.7107   45.5956 H   0  0  0  0  0  0  0  0  0  0  0  0
   57.1393   33.9258   46.6763 H   0  0  0  0  0  0  0  0  0  0  0  0
   59.9134   34.9509   47.3251 H   0  0  0  0  0  0  0  0  0  0  0  0
   58.3580   35.1563   48.2192 H   0  0  0  0  0  0  0  0  0  0  0  0
   59.7961   33.6355   49.4830 H   0  0  0  0  0  0  0  0  0  0  0  0
   58.0870   31.6370   48.3230 H   0  0  0  0  0  0  0  0  0  0  0  0
   58.6466   32.7681   50.9589 H   0  0  0  0  0  0  0  0  0  0  0  0
   57.1697   31.7889   50.6721 H   0  0  0  0  0  0  0  0  0  0  0  0
   60.0342   31.2861   52.2106 H   0  0  0  0  0  0  0  0  0  0  0  0
   61.4575   29.2378   52.2397 H   0  0  0  0  0  0  0  0  0  0  0  0
   59.6384   27.9120   48.5463 H   0  0  0  0  0  0  0  0  0  0  0  0
   58.2100   29.9595   48.5096 H   0  0  0  0  0  0  0  0  0  0  0  0
   61.3436   32.7672   47.8936 H   0  0  0  0  0  0  0  0  0  0  0  0
   60.2505   31.3411   48.2330 H   0  0  0  0  0  0  0  0  0  0  0  0
   60.7344   32.8039   45.7107 H   0  0  0  0  0  0  0  0  0  0  0  0
   60.0860   31.1378   46.0202 H   0  0  0  0  0  0  0  0  0  0  0  0
  1  2  2  0
  2  3  1  0
  3  4  1  0
  4  5  2  3
  5  6  1  0
  6  7  1  0
  7  8  1  0
  8  9  2  0
  8 10  1  0
 10 11  1  0
 11 12  1  0
  4 13  1  0
 13 14  2  0
 14 15  1  0
 15 16  2  0
 15 17  1  0
 17 18  1  0
 18 19  1  0
 19 20  1  0
 20 21  1  0
 21 22  1  0
 22 23  1  0
 23 24  2  0
 24 25  1  0
 25 26  2  0
 26 27  1  0
 26 28  1  0
 28 29  2  0
 20 30  1  0
 30 31  1  0
 14  2  1  0
 31 17  1  0
 11  6  2  0
 29 23  1  0
  1 32  1  0
  1 33  1  0
  3 34  1  0
  5 35  1  0
 13 36  1  0
 18 37  1  0
 18 38  1  0
 19 39  1  0
 19 40  1  0
 20 41  1  0
 21 42  1  0
 22 43  1  0
 22 44  1  0
 24 45  1  0
 25 46  1  0
 28 47  1  0
 29 48  1  0
 30 49  1  0
 30 50  1  0
 31 51  1  0
 31 52  1  0
M  CHG  3   7  -1  10  -1  12  -1
M  END
>  <UniqueID>  (72) 
67

>  <SMILES>  (72) 
C=c1[nH]c(=Cc2[n-]c(=O)[n-]c2[O-])cc1C(=O)N1CCC(NCc2ccc(F)cc2)CC1

>  <Energy>  (72) 
121.03414219172522

>  <Genealogy>  (72) 
C=c1[nH]c(=Cc2[n-]c(=O)[n-]c2[O-])cc1C(=O)N1CCC(NCc2ccc(F)cc2)CC1 (protonated)
C=c1[nH]c(=Cc2[n-]c(=O)[n-]c2[O-])cc1C(=O)N1CCC(NCc2ccc(F)cc2)CC1 (3D coordinates assigned)
C=c1[nH]c(=Cc2[n-]c(=O)[n-]c2[O-])cc1C(=O)N1CCC(NCc2ccc(F)cc2)CC1 (nonaromatic ring conformer: 121.03414219172522 kcal/mol)

>  <smiles>  (72) 
C=c1[nH]c(=Cc2[nH]c(=O)[nH]c2O)cc1C(=O)N1CCC(NCc2ccc(F)cc2)CC1

>  <score_type>  (72) 
oracle

>  <origin>  (72) 
adg

>  <m_score__min__energy>  (72) 
-17.969999999999999

>  <m_primary>  (72) 
energy

$$$$
72:0
     RDKit          3D

 51 54  0  0  0  0  0  0  0  0999 V2000
   57.5320   30.3060   44.3840 C   0  0  0  0  0  0  0  0  0  0  0  0
   58.0750   29.8220   45.5120 C   0  0  0  0  0  0  0  0  0  0  0  0
   58.0530   28.4910   45.9450 C   0  0  0  0  0  0  0  0  0  0  0  0
   57.4440   27.4500   45.3380 C   0  0  0  0  0  0  0  0  0  0  0  0
   57.1210   26.1610   45.9900 C   0  0  0  0  0  0  0  0  0  0  0  0
   58.0240   25.2320   46.3540 N   0  0  0  0  0  0  0  0  0  0  0  0
   57.2650   24.2190   46.8260 C   0  0  0  0  0  0  0  0  0  0  0  0
   57.7620   23.1520   47.2740 O   0  0  0  0  0  0  0  0  0  0  0  0
   55.9360   24.4380   46.7750 N   0  0  0  0  0  0  0  0  0  0  0  0
   55.8560   25.6670   46.2380 C   0  0  0  0  0  0  0  0  0  0  0  0
   54.6460   26.3130   45.9960 O   0  0  0  0  0  0  0  0  0  0  0  0
   58.7470   28.4660   47.1500 C   0  0  0  0  0  0  0  0  0  0  0  0
   59.1740   29.7570   47.3920 C   0  0  0  0  0  0  0  0  0  0  0  0
   59.8510   30.2020   48.6580 C   0  0  0  0  0  0  0  0  0  0  0  0
   58.9030   31.0210   49.4920 C   0  0  0  0  0  0  0  0  0  0  0  0
   59.2860   31.9690   50.3590 C   0  0  0  0  0  0  0  0  0  0  0  0
   60.5910   32.6520   50.3150 C   0  0  0  0  0  0  0  0  0  0  0  0
   61.1190   33.2510   51.4670 C   0  0  0  0  0  0  0  0  0  0  0  0
   62.3670   33.8730   51.4260 C   0  0  0  0  0  0  0  0  0  0  0  0
   63.1080   33.8810   50.2420 C   0  0  0  0  0  0  0  0  0  0  0  0
   62.6090   33.2570   49.0830 C   0  0  0  0  0  0  0  0  0  0  0  0
   63.3990   33.2530   47.8300 C   0  0  0  0  0  0  0  0  0  0  0  0
   63.7700   32.0230   47.2110 N   0  0  0  0  0  0  0  0  0  0  0  0
   63.7520   34.3390   47.2970 O   0  0  0  0  0  0  0  0  0  0  0  0
   61.3460   32.6350   49.1350 C   0  0  0  0  0  0  0  0  0  0  0  0
   58.7580   30.5810   46.4050 N   0  0  0  0  0  0  0  0  0  0  0  0
   58.9820   31.9990   46.3420 C   0  0  0  0  0  0  0  0  0  0  0  0
   60.2890   32.5050   46.2890 C   0  0  0  0  0  0  0  0  0  0  0  0
   60.5060   33.8850   46.2240 C   0  0  0  0  0  0  0  0  0  0  0  0
   59.4190   34.7640   46.2140 C   0  0  0  0  0  0  0  0  0  0  0  0
   59.6300   36.1020   46.1470 F   0  0  0  0  0  0  0  0  0  0  0  0
   58.1140   34.2640   46.2700 C   0  0  0  0  0  0  0  0  0  0  0  0
   57.8950   32.8850   46.3340 C   0  0  0  0  0  0  0  0  0  0  0  0
   57.6145   31.3776   44.1496 H   0  0  0  0  0  0  0  0  0  0  0  0
   57.0044   29.6311   43.6939 H   0  0  0  0  0  0  0  0  0  0  0  0
   57.1672   27.5687   44.2800 H   0  0  0  0  0  0  0  0  0  0  0  0
   54.0790   26.6860   46.7470 H   0  0  0  0  0  0  0  0  0  0  0  0
   58.9222   27.5870   47.7877 H   0  0  0  0  0  0  0  0  0  0  0  0
   60.1685   29.3181   49.2306 H   0  0  0  0  0  0  0  0  0  0  0  0
   60.7266   30.8163   48.4009 H   0  0  0  0  0  0  0  0  0  0  0  0
   57.8254   30.8292   49.3830 H   0  0  0  0  0  0  0  0  0  0  0  0
   58.5814   32.2552   51.1537 H   0  0  0  0  0  0  0  0  0  0  0  0
   60.5474   33.2305   52.4066 H   0  0  0  0  0  0  0  0  0  0  0  0
   62.7683   34.3582   52.3280 H   0  0  0  0  0  0  0  0  0  0  0  0
   64.0887   34.3785   50.2150 H   0  0  0  0  0  0  0  0  0  0  0  0
   64.5520   31.9840   46.5200 H   0  0  0  0  0  0  0  0  0  0  0  0
   60.9491   32.1315   48.2411 H   0  0  0  0  0  0  0  0  0  0  0  0
   61.1454   31.8147   46.2986 H   0  0  0  0  0  0  0  0  0  0  0  0
   61.5322   34.2789   46.1807 H   0  0  0  0  0  0  0  0  0  0  0  0
   57.2594   34.9565   46.2637 H   0  0  0  0  0  0  0  0  0  0  0  0
   56.8678   32.4939   46.3782 H   0  0  0  0  0  0  0  0  0  0  0  0
  1  2  2  0
  2  3  1  0
  3  4  2  3
  4  5  1  0
  5  6  1  0
  6  7  1  0
  7  8  2  0
  7  9  1  0
  9 10  1  0
 10 11  1  0
  3 12  1  0
 12 13  2  0
 13 14  1  0
 14 15  1  0
 15 16  2  3
 16 17  1  0
 17 18  2  0
 18 19  1  0
 19 20  2  0
 20 21  1  0
 21 22  1  0
 22 23  1  0
 22 24  2  0
 21 25  2  0
 13 26  1  0
 26 27  1  0
 27 28  2  0
 28 29  1  0
 29 30  2  0
 30 31  1  0
 30 32  1  0
 32 33  2  0
 26  2  1  0
 33 27  1  0
 10  5  2  0
 25 17  1  0
  1 34  1  0
  1 35  1  0
  4 36  1  0
 11 37  1  0
 12 38  1  0
 14 39  1  0
 14 40  1  0
 15 41  1  0
 16 42  1  0
 18 43  1  0
 19 44  1  0
 20 45  1  0
 23 46  1  0
 25 47  1  0
 28 48  1  0
 29 49  1  0
 32 50  1  0
 33 51  1  0
M  CHG  3   6  -1   9  -1  23  -1
M  END
>  <UniqueID>  (73) 
68

>  <SMILES>  (73) 
C=c1c(=Cc2[n-]c(=O)[n-]c2O)cc(CC=Cc2cccc(C([NH-])=O)c2)n1-c1ccc(F)cc1

>  <Energy>  (73) 
128.3579712456417

>  <Genealogy>  (73) 
C=c1c(=Cc2[n-]c(=O)[n-]c2O)cc(CC=Cc2cccc(C([NH-])=O)c2)n1-c1ccc(F)cc1 (protonated)
C=c1c(=Cc2[n-]c(=O)[n-]c2O)cc(CC=Cc2cccc(C([NH-])=O)c2)n1-c1ccc(F)cc1 (3D coordinates assigned)
C=c1c(=Cc2[n-]c(=O)[n-]c2O)cc(CC=Cc2cccc(C([NH-])=O)c2)n1-c1ccc(F)cc1 (optimized conformer: 128.3579712456417 kcal/mol)

>  <smiles>  (73) 
C=c1c(=Cc2[nH]c(=O)[nH]c2O)cc(CC=Cc2cccc(C(N)=O)c2)n1-c1ccc(F)cc1

>  <score_type>  (73) 
oracle

>  <origin>  (73) 
adg

>  <m_score__min__energy>  (73) 
-16.43

>  <m_primary>  (73) 
energy

$$$$
73:0
     RDKit          3D

 47 49  0  0  0  0  0  0  0  0999 V2000
   58.1276   35.1756   44.2133 H   0  0  0  0  0  0  0  0  0  0  0  0
   58.4170   34.3420   44.8700 C   0  0  0  0  0  0  0  0  0  0  0  0
   58.1760   33.0630   44.4890 N   0  0  0  0  0  0  0  0  0  0  0  0
   58.5150   31.9820   45.2470 C   0  0  0  0  0  0  0  0  0  0  0  0
   58.1640   30.8130   44.7800 N   0  0  0  0  0  0  0  0  0  0  0  0
   56.9510   30.0720   44.9480 C   0  0  0  0  0  0  0  0  0  0  0  0
   55.8720   30.5230   44.4820 O   0  0  0  0  0  0  0  0  0  0  0  0
   56.9950   28.7320   45.5570 C   0  0  0  0  0  0  0  0  0  0  0  0
   55.9010   27.9300   45.4750 N   0  0  0  0  0  0  0  0  0  0  0  0
   55.8920   26.6820   46.0200 C   0  0  0  0  0  0  0  0  0  0  0  0
   54.8430   25.9200   45.9290 N   0  0  0  0  0  0  0  0  0  0  0  0
   54.8690   24.4830   45.6440 C   0  0  0  0  0  0  0  0  0  0  0  0
   55.1628   23.9335   46.5505 H   0  0  0  0  0  0  0  0  0  0  0  0
   55.8850   24.2160   44.5330 C   0  0  0  0  0  0  0  0  0  0  0  0
   56.8575   23.9604   44.9791 H   0  0  0  0  0  0  0  0  0  0  0  0
   55.5360   23.3791   43.9103 H   0  0  0  0  0  0  0  0  0  0  0  0
   55.9925   25.1164   43.9103 H   0  0  0  0  0  0  0  0  0  0  0  0
   53.4780   23.9960   45.2250 C   0  0  0  0  0  0  0  0  0  0  0  0
   52.8774   23.7857   46.1223 H   0  0  0  0  0  0  0  0  0  0  0  0
   52.9822   24.7740   44.6259 H   0  0  0  0  0  0  0  0  0  0  0  0
   53.5757   23.0786   44.6259 H   0  0  0  0  0  0  0  0  0  0  0  0
   56.9930   26.2240   46.6720 N   0  0  0  0  0  0  0  0  0  0  0  0
   58.1110   26.9880   46.7790 C   0  0  0  0  0  0  0  0  0  0  0  0
   59.1170   26.5440   47.3950 O   0  0  0  0  0  0  0  0  0  0  0  0
   58.1400   28.2660   46.2190 C   0  0  0  0  0  0  0  0  0  0  0  0
   59.0403   28.8934   46.2952 H   0  0  0  0  0  0  0  0  0  0  0  0
   59.2280   32.2010   46.4720 C   0  0  0  0  0  0  0  0  0  0  0  0
   59.8890   31.1230   47.3100 C   0  0  0  0  0  0  0  0  0  0  0  0
   60.9654   31.3393   47.3773 H   0  0  0  0  0  0  0  0  0  0  0  0
   59.6998   30.1565   46.8200 H   0  0  0  0  0  0  0  0  0  0  0  0
   59.3260   31.0470   48.6990 C   0  0  0  0  0  0  0  0  0  0  0  0
   59.0500   32.1210   49.4750 N   0  0  0  0  0  0  0  0  0  0  0  0
   58.5160   31.7640   50.6730 C   0  0  0  0  0  0  0  0  0  0  0  0
   58.1560   32.7870   51.7050 C   0  0  0  0  0  0  0  0  0  0  0  0
   58.3051   32.3632   52.7091 H   0  0  0  0  0  0  0  0  0  0  0  0
   58.7964   33.6729   51.5821 H   0  0  0  0  0  0  0  0  0  0  0  0
   57.1019   33.0766   51.5821 H   0  0  0  0  0  0  0  0  0  0  0  0
   58.3800   30.3850   50.8630 C   0  0  0  0  0  0  0  0  0  0  0  0
   57.7760   29.6970   52.0460 C   0  0  0  0  0  0  0  0  0  0  0  0
   58.1691   30.1447   52.9707 H   0  0  0  0  0  0  0  0  0  0  0  0
   56.6824   29.8127   52.0186 H   0  0  0  0  0  0  0  0  0  0  0  0
   58.0323   28.6276   52.0186 H   0  0  0  0  0  0  0  0  0  0  0  0
   58.9160   29.6060   49.4700 S   0  0  0  0  0  0  0  0  0  0  0  0
   59.4360   33.5300   46.8860 C   0  0  0  0  0  0  0  0  0  0  0  0
   59.9260   33.7271   47.8509 H   0  0  0  0  0  0  0  0  0  0  0  0
   59.0300   34.5990   46.0910 C   0  0  0  0  0  0  0  0  0  0  0  0
   59.1924   35.6343   46.4252 H   0  0  0  0  0  0  0  0  0  0  0  0
  1  2  1  0
  2  3  1  0
  3  4  1  0
  4  5  2  3
  5  6  1  0
  6  7  2  0
  6  8  1  0
  8  9  1  0
  9 10  1  0
 10 11  2  0
 11 12  1  0
 12 13  1  0
 12 14  1  0
 14 15  1  0
 14 16  1  0
 14 17  1  0
 12 18  1  0
 18 19  1  0
 18 20  1  0
 18 21  1  0
 10 22  1  0
 22 23  1  0
 23 24  2  0
 23 25  1  0
 25 26  1  0
  4 27  1  0
 27 28  1  0
 28 29  1  0
 28 30  1  0
 28 31  1  0
 31 32  2  0
 32 33  1  0
 33 34  1  0
 34 35  1  0
 34 36  1  0
 34 37  1  0
 33 38  2  0
 38 39  1  0
 39 40  1  0
 39 41  1  0
 39 42  1  0
 38 43  1  0
 27 44  2  0
 44 45  1  0
 44 46  1  0
 46 47  1  0
 46  2  2  0
 25  8  2  0
 43 31  1  0
M  CHG  3   3  -1   9  -1  22  -1
M  END
>  <UniqueID>  (74) 
69

>  <SMILES>  (74) 
Cc1nc(Cc2ccc[n-]c2=NC(=O)c2cc(=O)[n-]/c(=N/C(C)C)[n-]2)sc1C

>  <Energy>  (74) 
90.03269865145005

>  <Genealogy>  (74) 
Cc1nc(Cc2ccc[n-]c2=NC(=O)c2cc(=O)[n-]c(=NC(C)C)[n-]2)sc1C (protonated)
Cc1nc(Cc2ccc[n-]c2=NC(=O)c2cc(=O)[n-]/c(=N/C(C)C)[n-]2)sc1C (cis-trans isomerization)
Cc1nc(Cc2ccc[n-]c2=NC(=O)c2cc(=O)[n-]/c(=N/C(C)C)[n-]2)sc1C (3D coordinates assigned)
Cc1nc(Cc2ccc[n-]c2=NC(=O)c2cc(=O)[n-]/c(=N/C(C)C)[n-]2)sc1C (optimized conformer: 90.03269865145005 kcal/mol)

>  <smiles>  (74) 
Cc1nc(Cc2ccc[nH]c2=NC(=O)c2cc(=O)[nH]c(=NC(C)C)[nH]2)sc1C

>  <score_type>  (74) 
oracle

>  <origin>  (74) 
adg

>  <m_score__min__energy>  (74) 
-13.93

>  <m_primary>  (74) 
energy

$$$$
74:0
     RDKit          3D

 53 56  0  0  0  0  0  0  0  0999 V2000
   58.4986   29.9306   47.1662 H   0  0  0  0  0  0  0  0  0  0  0  0
   58.4840   28.9870   46.6010 C   0  0  0  0  0  0  0  0  0  0  0  0
   58.9237   28.0778   47.0370 H   0  0  0  0  0  0  0  0  0  0  0  0
   57.9300   28.9450   45.3800 C   0  0  0  0  0  0  0  0  0  0  0  0
   57.8270   27.8320   44.5280 C   0  0  0  0  0  0  0  0  0  0  0  0
   58.0560   26.5230   44.7500 C   0  0  0  0  0  0  0  0  0  0  0  0
   58.7929   26.0257   44.1021 H   0  0  0  0  0  0  0  0  0  0  0  0
   57.4070   25.7000   45.7830 C   0  0  0  0  0  0  0  0  0  0  0  0
   58.0420   24.7980   46.5550 N   0  0  0  0  0  0  0  0  0  0  0  0
   57.0890   24.4130   47.4320 C   0  0  0  0  0  0  0  0  0  0  0  0
   57.2970   23.5490   48.3240 O   0  0  0  0  0  0  0  0  0  0  0  0
   55.8990   25.0330   47.2840 N   0  0  0  0  0  0  0  0  0  0  0  0
   56.1240   25.8540   46.2460 C   0  0  0  0  0  0  0  0  0  0  0  0
   55.1760   26.7330   45.7350 O   0  0  0  0  0  0  0  0  0  0  0  0
   57.3860   28.3190   43.3080 C   0  0  0  0  0  0  0  0  0  0  0  0
   57.2381   27.7379   42.3858 H   0  0  0  0  0  0  0  0  0  0  0  0
   57.1680   29.6700   43.4700 C   0  0  0  0  0  0  0  0  0  0  0  0
   56.6550   30.5850   42.4000 C   0  0  0  0  0  0  0  0  0  0  0  0
   56.1673   31.4549   42.8642 H   0  0  0  0  0  0  0  0  0  0  0  0
   57.4940   30.9251   41.7752 H   0  0  0  0  0  0  0  0  0  0  0  0
   55.9271   30.0467   41.7752 H   0  0  0  0  0  0  0  0  0  0  0  0
   57.5100   30.0530   44.7190 N   0  0  0  0  0  0  0  0  0  0  0  0
   57.4490   31.3940   45.2410 C   0  0  0  0  0  0  0  0  0  0  0  0
   56.3420   31.9970   45.2250 O   0  0  0  0  0  0  0  0  0  0  0  0
   58.6070   32.0470   45.8190 N   0  0  0  0  0  0  0  0  0  0  0  0
   59.4390   31.4680   45.5520 H   0  0  0  0  0  0  0  0  0  0  0  0
   58.5010   32.0510   47.3010 C   0  0  0  0  0  0  0  0  0  0  0  0
   57.4625   32.2833   47.5796 H   0  0  0  0  0  0  0  0  0  0  0  0
   58.8036   31.0563   47.6600 H   0  0  0  0  0  0  0  0  0  0  0  0
   59.4320   33.0880   47.9570 C   0  0  0  0  0  0  0  0  0  0  0  0
   58.8800   34.0251   48.1219 H   0  0  0  0  0  0  0  0  0  0  0  0
   59.7915   32.7021   48.9223 H   0  0  0  0  0  0  0  0  0  0  0  0
   60.5820   33.3430   47.0670 N   0  0  0  0  0  0  0  0  0  0  0  0
   61.7530   34.0180   47.6860 C   0  0  0  0  0  0  0  0  0  0  0  0
   61.4429   35.0731   47.7109 H   0  0  0  0  0  0  0  0  0  0  0  0
   62.0760   33.5690   49.1240 C   0  0  0  0  0  0  0  0  0  0  0  0
   61.7590   34.3371   49.8447 H   0  0  0  0  0  0  0  0  0  0  0  0
   61.5478   32.6400   49.3847 H   0  0  0  0  0  0  0  0  0  0  0  0
   63.5840   33.3860   49.1760 C   0  0  0  0  0  0  0  0  0  0  0  0
   64.0709   34.3083   49.5257 H   0  0  0  0  0  0  0  0  0  0  0  0
   63.8731   32.5856   49.8730 H   0  0  0  0  0  0  0  0  0  0  0  0
   64.0060   33.0710   47.7530 C   0  0  0  0  0  0  0  0  0  0  0  0
   65.0360   33.4129   47.5734 H   0  0  0  0  0  0  0  0  0  0  0  0
   63.9864   31.9896   47.5527 H   0  0  0  0  0  0  0  0  0  0  0  0
   63.0330   33.8260   46.8610 C   0  0  0  0  0  0  0  0  0  0  0  0
   63.4541   34.8021   46.5784 H   0  0  0  0  0  0  0  0  0  0  0  0
   62.8308   33.2731   45.9318 H   0  0  0  0  0  0  0  0  0  0  0  0
   60.1460   34.0130   45.8250 C   0  0  0  0  0  0  0  0  0  0  0  0
   59.9923   35.0825   46.0315 H   0  0  0  0  0  0  0  0  0  0  0  0
   60.9267   33.8677   45.0638 H   0  0  0  0  0  0  0  0  0  0  0  0
   58.8280   33.4120   45.2860 C   0  0  0  0  0  0  0  0  0  0  0  0
   57.9892   34.0561   45.5887 H   0  0  0  0  0  0  0  0  0  0  0  0
   58.8937   33.3526   44.1896 H   0  0  0  0  0  0  0  0  0  0  0  0
  1  2  1  0
  2  3  1  0
  2  4  2  0
  4  5  1  0
  5  6  2  0
  6  7  1  0
  6  8  1  0
  8  9  1  0
  9 10  1  0
 10 11  2  0
 10 12  1  0
 12 13  1  0
 13 14  1  0
  5 15  1  0
 15 16  1  0
 15 17  2  0
 17 18  1  0
 18 19  1  0
 18 20  1  0
 18 21  1  0
 17 22  1  0
 22 23  1  0
 23 24  2  0
 23 25  1  0
 25 26  1  0
 25 27  1  0
 27 28  1  0
 27 29  1  0
 27 30  1  0
 30 31  1  0
 30 32  1  0
 30 33  1  0
 33 34  1  0
 34 35  1  0
 34 36  1  0
 36 37  1  0
 36 38  1  0
 36 39  1  0
 39 40  1  0
 39 41  1  0
 39 42  1  0
 42 43  1  0
 42 44  1  0
 42 45  1  0
 45 46  1  0
 45 47  1  0
 33 48  1  0
 48 49  1  0
 48 50  1  0
 48 51  1  0
 51 52  1  0
 51 53  1  0
 22  4  1  0
 51 25  1  0
 13  8  2  0
 45 34  1  0
M  CHG  4   9  -1  12  -1  14  -1  25   1
M  END
>  <UniqueID>  (75) 
70

>  <SMILES>  (75) 
C=c1/c(=C\c2[n-]c(=O)[n-]c2[O-])cc(C)n1C(=O)[NH+]1CCN(C2CCCC2)CC1

>  <Energy>  (75) 
147.4390155673101

>  <Genealogy>  (75) 
C=c1c(=Cc2[n-]c(=O)[n-]c2[O-])cc(C)n1C(=O)[NH+]1CCN(C2CCCC2)CC1 (protonated)
C=c1/c(=C\c2[n-]c(=O)[n-]c2[O-])cc(C)n1C(=O)[NH+]1CCN(C2CCCC2)CC1 (cis-trans isomerization)
C=c1/c(=C\c2[n-]c(=O)[n-]c2[O-])cc(C)n1C(=O)[NH+]1CCN(C2CCCC2)CC1 (3D coordinates assigned)
C=c1/c(=C\c2[n-]c(=O)[n-]c2[O-])cc(C)n1C(=O)[NH+]1CCN(C2CCCC2)CC1 (nonaromatic ring conformer: 147.4390155673101 kcal/mol)

>  <smiles>  (75) 
C=c1c(=Cc2[nH]c(=O)[nH]c2O)cc(C)n1C(=O)N1CCN(C2CCCC2)CC1

>  <score_type>  (75) 
oracle

>  <origin>  (75) 
adg

>  <m_score__min__energy>  (75) 
-15.74

>  <m_primary>  (75) 
energy

$$$$
75:0
     RDKit          3D

 51 53  0  0  0  0  0  0  0  0999 V2000
   62.3040   31.2410   47.5780 C   0  0  0  0  0  0  0  0  0  0  0  0
   63.1920   32.4510   47.8440 C   0  0  0  0  0  0  0  0  0  0  0  0
   62.6710   33.6530   47.1240 C   0  0  0  0  0  0  0  0  0  0  0  0
   63.4050   34.2450   46.2880 O   0  0  0  0  0  0  0  0  0  0  0  0
   61.3370   34.1090   47.3850 N   0  0  0  0  0  0  0  0  0  0  0  0
   60.2100   33.9970   46.5040 C   0  0  0  0  0  0  0  0  0  0  0  0
   59.6820   35.1090   45.8260 C   0  0  0  0  0  0  0  0  0  0  0  0
   58.5760   34.9590   44.9880 C   0  0  0  0  0  0  0  0  0  0  0  0
   57.9760   33.7090   44.8310 C   0  0  0  0  0  0  0  0  0  0  0  0
   58.4660   32.5910   45.5290 C   0  0  0  0  0  0  0  0  0  0  0  0
   57.8210   31.2660   45.3620 C   0  0  0  0  0  0  0  0  0  0  0  0
   56.6770   31.1950   44.8330 O   0  0  0  0  0  0  0  0  0  0  0  0
   58.4610   30.0700   45.8370 N   0  0  0  0  0  0  0  0  0  0  0  0
   58.1390   28.7510   45.3610 C   0  0  0  0  0  0  0  0  0  0  0  0
   58.7890   28.2530   44.2220 C   0  0  0  0  0  0  0  0  0  0  0  0
   58.4860   26.9780   43.7360 C   0  0  0  0  0  0  0  0  0  0  0  0
   57.5140   26.1990   44.3690 C   0  0  0  0  0  0  0  0  0  0  0  0
   56.8190   26.7010   45.4820 C   0  0  0  0  0  0  0  0  0  0  0  0
   55.8180   25.9340   46.1650 N   0  0  0  0  0  0  0  0  0  0  0  0
   55.2020   24.7230   45.7040 C   0  0  0  0  0  0  0  0  0  0  0  0
   54.0050   24.4670   46.0080 O   0  0  0  0  0  0  0  0  0  0  0  0
   55.9880   23.7460   44.9130 C   0  0  0  0  0  0  0  0  0  0  0  0
   55.4940   23.2550   43.6910 C   0  0  0  0  0  0  0  0  0  0  0  0
   56.2290   22.3270   42.9500 C   0  0  0  0  0  0  0  0  0  0  0  0
   57.4680   21.8810   43.4150 C   0  0  0  0  0  0  0  0  0  0  0  0
   57.9870   22.3720   44.6200 C   0  0  0  0  0  0  0  0  0  0  0  0
   59.3010   21.8660   45.1390 C   0  0  0  0  0  0  0  0  0  0  0  0
   57.2390   23.2910   45.3730 C   0  0  0  0  0  0  0  0  0  0  0  0
   57.1470   27.9690   45.9810 C   0  0  0  0  0  0  0  0  0  0  0  0
   59.5870   32.7500   46.3650 C   0  0  0  0  0  0  0  0  0  0  0  0
   61.9833   30.8040   48.5352 H   0  0  0  0  0  0  0  0  0  0  0  0
   61.4199   31.5543   47.0034 H   0  0  0  0  0  0  0  0  0  0  0  0
   62.8680   30.4915   47.0034 H   0  0  0  0  0  0  0  0  0  0  0  0
   63.2097   32.6561   48.9246 H   0  0  0  0  0  0  0  0  0  0  0  0
   64.2075   32.2327   47.4820 H   0  0  0  0  0  0  0  0  0  0  0  0
   60.1415   36.0999   45.9561 H   0  0  0  0  0  0  0  0  0  0  0  0
   58.1755   35.8301   44.4488 H   0  0  0  0  0  0  0  0  0  0  0  0
   57.1140   33.5975   44.1568 H   0  0  0  0  0  0  0  0  0  0  0  0
   59.1120   30.1510   46.6490 H   0  0  0  0  0  0  0  0  0  0  0  0
   59.5415   28.8694   43.7084 H   0  0  0  0  0  0  0  0  0  0  0  0
   59.0137   26.5871   42.8535 H   0  0  0  0  0  0  0  0  0  0  0  0
   57.2921   25.1888   43.9945 H   0  0  0  0  0  0  0  0  0  0  0  0
   54.5209   23.6048   43.3159 H   0  0  0  0  0  0  0  0  0  0  0  0
   55.8310   21.9464   41.9978 H   0  0  0  0  0  0  0  0  0  0  0  0
   58.0382   21.1418   42.8332 H   0  0  0  0  0  0  0  0  0  0  0  0
   59.2873   21.8713   46.2389 H   0  0  0  0  0  0  0  0  0  0  0  0
   59.4667   20.8398   44.7793 H   0  0  0  0  0  0  0  0  0  0  0  0
   60.1122   22.5161   44.7793 H   0  0  0  0  0  0  0  0  0  0  0  0
   57.6338   23.6592   46.3314 H   0  0  0  0  0  0  0  0  0  0  0  0
   56.6232   28.3571   46.8670 H   0  0  0  0  0  0  0  0  0  0  0  0
   59.9794   31.8831   46.9169 H   0  0  0  0  0  0  0  0  0  0  0  0
  1  2  1  0
  2  3  1  0
  3  4  2  0
  3  5  1  0
  5  6  1  0
  6  7  2  0
  7  8  1  0
  8  9  2  0
  9 10  1  0
 10 11  1  0
 11 12  2  0
 11 13  1  0
 13 14  1  0
 14 15  2  0
 15 16  1  0
 16 17  2  0
 17 18  1  0
 18 19  1  0
 19 20  1  0
 20 21  2  0
 20 22  1  0
 22 23  2  0
 23 24  1  0
 24 25  2  0
 25 26  1  0
 26 27  1  0
 26 28  2  0
 18 29  2  0
 10 30  2  0
 30  6  1  0
 29 14  1  0
 28 22  1  0
  1 31  1  0
  1 32  1  0
  1 33  1  0
  2 34  1  0
  2 35  1  0
  7 36  1  0
  8 37  1  0
  9 38  1  0
 13 39  1  0
 15 40  1  0
 16 41  1  0
 17 42  1  0
 23 43  1  0
 24 44  1  0
 25 45  1  0
 27 46  1  0
 27 47  1  0
 27 48  1  0
 28 49  1  0
 29 50  1  0
 30 51  1  0
M  CHG  2   5  -1  19  -1
M  END
>  <UniqueID>  (76) 
71

>  <SMILES>  (76) 
CCC(=O)[N-]c1cccc(C(=O)Nc2cccc([N-]C(=O)c3cccc(C)c3)c2)c1

>  <Energy>  (76) 
61.86724328629945

>  <Genealogy>  (76) 
CCC(=O)[N-]c1cccc(C(=O)Nc2cccc([N-]C(=O)c3cccc(C)c3)c2)c1 (protonated)
CCC(=O)[N-]c1cccc(C(=O)Nc2cccc([N-]C(=O)c3cccc(C)c3)c2)c1 (3D coordinates assigned)
CCC(=O)[N-]c1cccc(C(=O)Nc2cccc([N-]C(=O)c3cccc(C)c3)c2)c1 (optimized conformer: 61.86724328629945 kcal/mol)

>  <smiles>  (76) 
CCC(=O)Nc1cccc(C(=O)Nc2cccc(NC(=O)c3cccc(C)c3)c2)c1

>  <score_type>  (76) 
oracle

>  <origin>  (76) 
adg

>  <m_score__min__energy>  (76) 
-12.869999999999999

>  <m_primary>  (76) 
energy

$$$$
76:0
     RDKit          3D

 57 61  0  0  0  0  0  0  0  0999 V2000
   58.9110   34.6060   47.8500 O   0  0  0  0  0  0  0  0  0  0  0  0
   60.0470   34.4460   47.3310 C   0  0  0  0  0  0  0  0  0  0  0  0
   60.1990   34.7610   45.9400 N   0  0  0  0  0  0  0  0  0  0  0  0
   59.1420   34.8700   44.9440 C   0  0  0  0  0  0  0  0  0  0  0  0
   58.5170   33.5200   44.7420 C   0  0  0  0  0  0  0  0  0  0  0  0
   58.1810   33.0860   43.4510 C   0  0  0  0  0  0  0  0  0  0  0  0
   57.6350   31.8140   43.2750 C   0  0  0  0  0  0  0  0  0  0  0  0
   57.4330   30.9830   44.3800 C   0  0  0  0  0  0  0  0  0  0  0  0
   56.7730   29.3610   44.1800 S   0  0  0  0  0  0  0  0  0  0  0  0
   56.5660   29.0700   42.7200 O   0  0  0  0  0  0  0  0  0  0  0  0
   55.4430   29.2920   44.8770 O   0  0  0  0  0  0  0  0  0  0  0  0
   57.8630   28.1840   44.8760 N   0  0  0  0  0  0  0  0  0  0  0  0
   57.7510   28.2060   46.3500 C   0  0  0  0  0  0  0  0  0  0  0  0
   58.9850   27.5730   47.0070 C   0  0  0  0  0  0  0  0  0  0  0  0
   60.2380   28.2910   46.6630 N   0  0  0  0  0  0  0  0  0  0  0  0
   60.6510   29.1680   47.7680 C   0  0  0  0  0  0  0  0  0  0  0  0
   59.6550   30.2770   48.0690 C   0  0  0  0  0  0  0  0  0  0  0  0
   60.9430   30.5930   47.3270 C   0  0  0  0  0  0  0  0  0  0  0  0
   60.1450   29.0780   45.4120 C   0  0  0  0  0  0  0  0  0  0  0  0
   59.2460   28.3820   44.3790 C   0  0  0  0  0  0  0  0  0  0  0  0
   57.8000   31.4400   45.6500 C   0  0  0  0  0  0  0  0  0  0  0  0
   58.3320   32.6840   45.8050 N   0  0  0  0  0  0  0  0  0  0  0  0
   61.1260   33.9440   48.1470 N   0  0  0  0  0  0  0  0  0  0  0  0
   62.4220   33.4740   47.6450 C   0  0  0  0  0  0  0  0  0  0  0  0
   63.2600   33.4110   48.8670 C   0  0  0  0  0  0  0  0  0  0  0  0
   64.5950   33.0280   48.9770 C   0  0  0  0  0  0  0  0  0  0  0  0
   65.1750   33.0370   50.2550 C   0  0  0  0  0  0  0  0  0  0  0  0
   64.4380   33.4120   51.3440 N   0  0  0  0  0  0  0  0  0  0  0  0
   63.1300   33.7840   51.2330 C   0  0  0  0  0  0  0  0  0  0  0  0
   62.5380   33.7800   49.9710 C   0  0  0  0  0  0  0  0  0  0  0  0
   61.1530   34.1490   49.6000 C   0  0  0  0  0  0  0  0  0  0  0  0
   58.3786   35.5809   45.2931 H   0  0  0  0  0  0  0  0  0  0  0  0
   59.5636   35.2294   43.9937 H   0  0  0  0  0  0  0  0  0  0  0  0
   58.3466   33.7431   42.5845 H   0  0  0  0  0  0  0  0  0  0  0  0
   57.3639   31.4658   42.2674 H   0  0  0  0  0  0  0  0  0  0  0  0
   57.6592   29.2488   46.6879 H   0  0  0  0  0  0  0  0  0  0  0  0
   56.8633   27.6256   46.6418 H   0  0  0  0  0  0  0  0  0  0  0  0
   58.8540   27.5937   48.0990 H   0  0  0  0  0  0  0  0  0  0  0  0
   59.0742   26.5427   46.6322 H   0  0  0  0  0  0  0  0  0  0  0  0
   61.1780   28.4098   48.3659 H   0  0  0  0  0  0  0  0  0  0  0  0
   58.6921   30.3105   47.5383 H   0  0  0  0  0  0  0  0  0  0  0  0
   59.1672   30.6588   48.9780 H   0  0  0  0  0  0  0  0  0  0  0  0
   60.9123   30.8554   46.2592 H   0  0  0  0  0  0  0  0  0  0  0  0
   61.7736   31.2985   47.4766 H   0  0  0  0  0  0  0  0  0  0  0  0
   59.7255   30.0684   45.6423 H   0  0  0  0  0  0  0  0  0  0  0  0
   61.1546   29.1720   44.9856 H   0  0  0  0  0  0  0  0  0  0  0  0
   59.2096   28.9994   43.4693 H   0  0  0  0  0  0  0  0  0  0  0  0
   59.6747   27.3896   44.1755 H   0  0  0  0  0  0  0  0  0  0  0  0
   57.6583   30.7918   46.5273 H   0  0  0  0  0  0  0  0  0  0  0  0
   58.6050   32.9940   46.7650 H   0  0  0  0  0  0  0  0  0  0  0  0
   62.3279   32.4814   47.1803 H   0  0  0  0  0  0  0  0  0  0  0  0
   62.8444   34.1271   46.8672 H   0  0  0  0  0  0  0  0  0  0  0  0
   65.1751   32.7285   48.0917 H   0  0  0  0  0  0  0  0  0  0  0  0
   66.2269   32.7411   50.3811 H   0  0  0  0  0  0  0  0  0  0  0  0
   62.5540   34.0812   52.1218 H   0  0  0  0  0  0  0  0  0  0  0  0
   60.4235   33.4975   50.1034 H   0  0  0  0  0  0  0  0  0  0  0  0
   60.8875   35.1750   49.8947 H   0  0  0  0  0  0  0  0  0  0  0  0
  1  2  2  0
  2  3  1  0
  3  4  1  0
  4  5  1  0
  5  6  2  0
  6  7  1  0
  7  8  2  0
  8  9  1  0
  9 10  2  0
  9 11  2  0
  9 12  1  0
 12 13  1  0
 13 14  1  0
 14 15  1  0
 15 16  1  0
 16 17  1  0
 17 18  1  0
 15 19  1  0
 19 20  1  0
  8 21  1  0
 21 22  2  0
  2 23  1  0
 23 24  1  0
 24 25  1  0
 25 26  2  0
 26 27  1  0
 27 28  2  0
 28 29  1  0
 29 30  2  0
 30 31  1  0
 22  5  1  0
 31 23  1  0
 20 12  1  0
 30 25  1  0
 18 16  1  0
  4 32  1  0
  4 33  1  0
  6 34  1  0
  7 35  1  0
 13 36  1  0
 13 37  1  0
 14 38  1  0
 14 39  1  0
 16 40  1  0
 17 41  1  0
 17 42  1  0
 18 43  1  0
 18 44  1  0
 19 45  1  0
 19 46  1  0
 20 47  1  0
 20 48  1  0
 21 49  1  0
 22 50  1  0
 24 51  1  0
 24 52  1  0
 26 53  1  0
 27 54  1  0
 29 55  1  0
 31 56  1  0
 31 57  1  0
M  CHG  2   3  -1  22   1
M  END
>  <UniqueID>  (77) 
72

>  <SMILES>  (77) 
O=C([N-]Cc1ccc(S(=O)(=O)N2CCN(C3CC3)CC2)c[nH+]1)N1Cc2ccncc2C1

>  <Energy>  (77) 
346.89435086119767

>  <Genealogy>  (77) 
O=C([N-]Cc1ccc(S(=O)(=O)N2CCN(C3CC3)CC2)c[nH+]1)N1Cc2ccncc2C1 (protonated)
O=C([N-]Cc1ccc(S(=O)(=O)N2CCN(C3CC3)CC2)c[nH+]1)N1Cc2ccncc2C1 (3D coordinates assigned)
O=C([N-]Cc1ccc(S(=O)(=O)N2CCN(C3CC3)CC2)c[nH+]1)N1Cc2ccncc2C1 (nonaromatic ring conformer: 346.89435086119767 kcal/mol)

>  <smiles>  (77) 
O=C(NCc1ccc(S(=O)(=O)N2CCN(C3CC3)CC2)cn1)N1Cc2ccncc2C1

>  <score_type>  (77) 
oracle

>  <origin>  (77) 
adg

>  <m_score__min__energy>  (77) 
-9.2899999999999991

>  <m_primary>  (77) 
energy

$$$$
77:0
     RDKit          3D

 54 57  0  0  0  0  0  0  0  0999 V2000
   59.9140   36.0460   45.9430 O   0  0  0  0  0  0  0  0  0  0  0  0
   59.6070   34.9760   46.5350 C   0  0  0  0  0  0  0  0  0  0  0  0
   58.1850   34.4800   46.4670 C   0  0  0  0  0  0  0  0  0  0  0  0
   58.0280   33.3590   45.4720 C   0  0  0  0  0  0  0  0  0  0  0  0
   57.6640   32.0720   45.9080 C   0  0  0  0  0  0  0  0  0  0  0  0
   57.5200   31.0290   44.9870 C   0  0  0  0  0  0  0  0  0  0  0  0
   57.7300   31.2620   43.6260 C   0  0  0  0  0  0  0  0  0  0  0  0
   58.0780   32.5400   43.1810 C   0  0  0  0  0  0  0  0  0  0  0  0
   58.2220   33.5870   44.0980 C   0  0  0  0  0  0  0  0  0  0  0  0
   60.6530   34.1960   47.1280 N   0  0  0  0  0  0  0  0  0  0  0  0
   60.5420   32.8290   47.5420 C   0  0  0  0  0  0  0  0  0  0  0  0
   61.2190   31.8130   46.8590 C   0  0  0  0  0  0  0  0  0  0  0  0
   61.1110   30.4880   47.2830 C   0  0  0  0  0  0  0  0  0  0  0  0
   60.2860   30.1510   48.3710 C   0  0  0  0  0  0  0  0  0  0  0  0
   60.2550   28.8100   48.8850 N   0  0  0  0  0  0  0  0  0  0  0  0
   60.4570   27.6030   48.1390 C   0  0  0  0  0  0  0  0  0  0  0  0
   60.9070   26.5640   48.6950 O   0  0  0  0  0  0  0  0  0  0  0  0
   60.1250   27.5800   46.6830 C   0  0  0  0  0  0  0  0  0  0  0  0
   58.6670   27.2660   46.4970 C   0  0  0  0  0  0  0  0  0  0  0  0
   58.1590   26.0160   46.8860 C   0  0  0  0  0  0  0  0  0  0  0  0
   56.8140   25.7040   46.6720 C   0  0  0  0  0  0  0  0  0  0  0  0
   55.9670   26.6320   46.0570 C   0  0  0  0  0  0  0  0  0  0  0  0
   54.6310   26.3120   45.8460 O   0  0  0  0  0  0  0  0  0  0  0  0
   56.4660   27.8770   45.6550 C   0  0  0  0  0  0  0  0  0  0  0  0
   55.6170   28.7940   45.0390 O   0  0  0  0  0  0  0  0  0  0  0  0
   57.8160   28.1920   45.8730 C   0  0  0  0  0  0  0  0  0  0  0  0
   59.5650   31.1710   49.0340 C   0  0  0  0  0  0  0  0  0  0  0  0
   58.6810   30.8770   50.1840 C   0  0  0  0  0  0  0  0  0  0  0  0
   58.1550   29.7350   50.2790 O   0  0  0  0  0  0  0  0  0  0  0  0
   58.4390   31.8730   51.2450 C   0  0  0  0  0  0  0  0  0  0  0  0
   59.3810   32.7330   51.7770 C   0  0  0  0  0  0  0  0  0  0  0  0
   58.7110   33.4800   52.7210 C   0  0  0  0  0  0  0  0  0  0  0  0
   57.4040   33.0350   52.7050 C   0  0  0  0  0  0  0  0  0  0  0  0
   57.2740   32.0800   51.8140 O   0  0  0  0  0  0  0  0  0  0  0  0
   59.7020   32.5020   48.6100 C   0  0  0  0  0  0  0  0  0  0  0  0
   57.8870   34.1170   47.4617 H   0  0  0  0  0  0  0  0  0  0  0  0
   57.5475   35.3157   46.1426 H   0  0  0  0  0  0  0  0  0  0  0  0
   57.4918   31.8849   46.9782 H   0  0  0  0  0  0  0  0  0  0  0  0
   57.2409   30.0236   45.3353 H   0  0  0  0  0  0  0  0  0  0  0  0
   57.6214   30.4391   42.9042 H   0  0  0  0  0  0  0  0  0  0  0  0
   58.2390   32.7232   42.1084 H   0  0  0  0  0  0  0  0  0  0  0  0
   58.4882   34.5933   43.7424 H   0  0  0  0  0  0  0  0  0  0  0  0
   61.8388   32.0596   45.9844 H   0  0  0  0  0  0  0  0  0  0  0  0
   61.6757   29.7007   46.7621 H   0  0  0  0  0  0  0  0  0  0  0  0
   60.3455   28.5637   46.2428 H   0  0  0  0  0  0  0  0  0  0  0  0
   60.7289   26.8068   46.1855 H   0  0  0  0  0  0  0  0  0  0  0  0
   58.8230   25.2791   47.3614 H   0  0  0  0  0  0  0  0  0  0  0  0
   56.4203   24.7266   46.9878 H   0  0  0  0  0  0  0  0  0  0  0  0
   54.7720   28.4990   44.5620 H   0  0  0  0  0  0  0  0  0  0  0  0
   58.2091   29.1685   45.5537 H   0  0  0  0  0  0  0  0  0  0  0  0
   60.4440   32.8059   51.5037 H   0  0  0  0  0  0  0  0  0  0  0  0
   59.1322   34.2712   53.3587 H   0  0  0  0  0  0  0  0  0  0  0  0
   56.5949   33.4219   53.3420 H   0  0  0  0  0  0  0  0  0  0  0  0
   59.1418   33.2968   49.1242 H   0  0  0  0  0  0  0  0  0  0  0  0
  1  2  2  0
  2  3  1  0
  3  4  1  0
  4  5  2  0
  5  6  1  0
  6  7  2  0
  7  8  1  0
  8  9  2  0
  2 10  1  0
 10 11  1  0
 11 12  2  0
 12 13  1  0
 13 14  2  0
 14 15  1  0
 15 16  1  0
 16 17  2  0
 16 18  1  0
 18 19  1  0
 19 20  2  0
 20 21  1  0
 21 22  2  0
 22 23  1  0
 22 24  1  0
 24 25  1  0
 24 26  2  0
 14 27  1  0
 27 28  1  0
 28 29  2  0
 28 30  1  0
 30 31  2  0
 31 32  1  0
 32 33  2  0
 33 34  1  0
 27 35  2  0
  9  4  1  0
 35 11  1  0
 26 19  1  0
 34 30  1  0
  3 36  1  0
  3 37  1  0
  5 38  1  0
  6 39  1  0
  7 40  1  0
  8 41  1  0
  9 42  1  0
 12 43  1  0
 13 44  1  0
 18 45  1  0
 18 46  1  0
 20 47  1  0
 21 48  1  0
 25 49  1  0
 26 50  1  0
 31 51  1  0
 32 52  1  0
 33 53  1  0
 35 54  1  0
M  CHG  3  10  -1  15  -1  23  -1
M  END
>  <UniqueID>  (78) 
73

>  <SMILES>  (78) 
O=C(Cc1ccccc1)[N-]c1ccc([N-]C(=O)Cc2ccc([O-])c(O)c2)c(C(=O)c2ccco2)c1

>  <Energy>  (78) 
95.04086416867987

>  <Genealogy>  (78) 
O=C(Cc1ccccc1)[N-]c1ccc([N-]C(=O)Cc2ccc([O-])c(O)c2)c(C(=O)c2ccco2)c1 (protonated)
O=C(Cc1ccccc1)[N-]c1ccc([N-]C(=O)Cc2ccc([O-])c(O)c2)c(C(=O)c2ccco2)c1 (3D coordinates assigned)
O=C(Cc1ccccc1)[N-]c1ccc([N-]C(=O)Cc2ccc([O-])c(O)c2)c(C(=O)c2ccco2)c1 (optimized conformer: 95.04086416867987 kcal/mol)

>  <smiles>  (78) 
O=C(Cc1ccccc1)Nc1ccc(NC(=O)Cc2ccc(O)c(O)c2)c(C(=O)c2ccco2)c1

>  <score_type>  (78) 
oracle

>  <origin>  (78) 
adg

>  <m_score__min__energy>  (78) 
-15.859999999999999

>  <m_primary>  (78) 
energy

$$$$
78:0
     RDKit          3D

 45 47  0  0  0  0  0  0  0  0999 V2000
   54.0320   26.3260   46.3780 H   0  0  0  0  0  0  0  0  0  0  0  0
   54.7940   26.2890   45.7150 O   0  0  0  0  0  0  0  0  0  0  0  0
   56.0280   25.6850   45.9830 C   0  0  0  0  0  0  0  0  0  0  0  0
   57.2450   26.3360   45.6690 C   0  0  0  0  0  0  0  0  0  0  0  0
   57.3080   27.7400   45.2010 C   0  0  0  0  0  0  0  0  0  0  0  0
   57.5764   27.9549   44.1561 H   0  0  0  0  0  0  0  0  0  0  0  0
   57.0490   28.7200   46.0140 N   0  0  0  0  0  0  0  0  0  0  0  0
   57.9170   29.8260   46.3190 C   0  0  0  0  0  0  0  0  0  0  0  0
   57.8650   31.0510   45.6250 C   0  0  0  0  0  0  0  0  0  0  0  0
   57.1456   31.1847   44.8037 H   0  0  0  0  0  0  0  0  0  0  0  0
   58.7230   32.0970   45.9750 C   0  0  0  0  0  0  0  0  0  0  0  0
   58.6805   33.0457   45.4199 H   0  0  0  0  0  0  0  0  0  0  0  0
   59.6390   31.9480   47.0290 C   0  0  0  0  0  0  0  0  0  0  0  0
   60.5340   33.0210   47.3790 N   0  0  0  0  0  0  0  0  0  0  0  0
   61.1980   33.8240   46.3490 C   0  0  0  0  0  0  0  0  0  0  0  0
   60.8412   34.8626   46.4126 H   0  0  0  0  0  0  0  0  0  0  0  0
   60.9614   33.4039   45.3603 H   0  0  0  0  0  0  0  0  0  0  0  0
   62.7250   33.7980   46.5520 C   0  0  0  0  0  0  0  0  0  0  0  0
   63.1442   34.7299   46.1448 H   0  0  0  0  0  0  0  0  0  0  0  0
   63.1003   32.9034   46.0335 H   0  0  0  0  0  0  0  0  0  0  0  0
   63.1430   33.6790   47.9740 N   0  0  0  0  0  0  0  0  0  0  0  0
   63.6240   32.3230   48.2920 C   0  0  0  0  0  0  0  0  0  0  0  0
   63.6689   32.1965   49.3838 H   0  0  0  0  0  0  0  0  0  0  0  0
   62.9346   31.5798   47.8648 H   0  0  0  0  0  0  0  0  0  0  0  0
   64.6276   32.1804   47.8648 H   0  0  0  0  0  0  0  0  0  0  0  0
   62.1090   34.1320   48.9280 C   0  0  0  0  0  0  0  0  0  0  0  0
   61.8915   35.1936   48.7392 H   0  0  0  0  0  0  0  0  0  0  0  0
   62.4956   33.9817   49.9468 H   0  0  0  0  0  0  0  0  0  0  0  0
   60.8070   33.3250   48.7880 C   0  0  0  0  0  0  0  0  0  0  0  0
   59.9724   33.9120   49.1990 H   0  0  0  0  0  0  0  0  0  0  0  0
   60.9163   32.3792   49.3390 H   0  0  0  0  0  0  0  0  0  0  0  0
   59.6840   30.7280   47.7230 C   0  0  0  0  0  0  0  0  0  0  0  0
   60.4011   30.5943   48.5464 H   0  0  0  0  0  0  0  0  0  0  0  0
   58.8240   29.6820   47.3750 C   0  0  0  0  0  0  0  0  0  0  0  0
   58.8607   28.7369   47.9366 H   0  0  0  0  0  0  0  0  0  0  0  0
   58.4360   25.6130   45.8330 C   0  0  0  0  0  0  0  0  0  0  0  0
   59.5500   26.1300   45.5470 O   0  0  0  0  0  0  0  0  0  0  0  0
   58.4000   24.3490   46.3140 N   0  0  0  0  0  0  0  0  0  0  0  0
   57.2340   23.7530   46.6600 C   0  0  0  0  0  0  0  0  0  0  0  0
   57.2620   22.5710   47.1000 O   0  0  0  0  0  0  0  0  0  0  0  0
   56.0470   24.4240   46.5240 N   0  0  0  0  0  0  0  0  0  0  0  0
   54.7760   23.7580   46.8590 C   0  0  0  0  0  0  0  0  0  0  0  0
   54.6686   23.7017   47.9523 H   0  0  0  0  0  0  0  0  0  0  0  0
   53.9384   24.3331   46.4374 H   0  0  0  0  0  0  0  0  0  0  0  0
   54.7722   22.7420   46.4374 H   0  0  0  0  0  0  0  0  0  0  0  0
  1  2  1  0
  2  3  1  0
  3  4  2  0
  4  5  1  0
  5  6  1  0
  5  7  2  0
  7  8  1  0
  8  9  2  0
  9 10  1  0
  9 11  1  0
 11 12  1  0
 11 13  2  0
 13 14  1  0
 14 15  1  0
 15 16  1  0
 15 17  1  0
 15 18  1  0
 18 19  1  0
 18 20  1  0
 18 21  1  0
 21 22  1  0
 22 23  1  0
 22 24  1  0
 22 25  1  0
 21 26  1  0
 26 27  1  0
 26 28  1  0
 26 29  1  0
 29 30  1  0
 29 31  1  0
 13 32  1  0
 32 33  1  0
 32 34  2  0
 34 35  1  0
  4 36  1  0
 36 37  2  0
 36 38  1  0
 38 39  1  0
 39 40  2  0
 39 41  1  0
 41 42  1  0
 42 43  1  0
 42 44  1  0
 42 45  1  0
 41  3  1  0
 34  8  1  0
 29 14  1  0
M  CHG  1  38  -1
M  END
>  <UniqueID>  (79) 
74

>  <SMILES>  (79) 
CN1CCN(c2ccc(/N=C/c3c(O)n(C)c(=O)[n-]c3=O)cc2)CC1

>  <Energy>  (79) 
70.40181792740238

>  <Genealogy>  (79) 
CN1CCN(c2ccc(N=Cc3c(O)n(C)c(=O)[n-]c3=O)cc2)CC1 (protonated)
CN1CCN(c2ccc(/N=C/c3c(O)n(C)c(=O)[n-]c3=O)cc2)CC1 (cis-trans isomerization)
CN1CCN(c2ccc(/N=C/c3c(O)n(C)c(=O)[n-]c3=O)cc2)CC1 (3D coordinates assigned)
CN1CCN(c2ccc(/N=C/c3c(O)n(C)c(=O)[n-]c3=O)cc2)CC1 (nonaromatic ring conformer: 70.40181792740238 kcal/mol)

>  <smiles>  (79) 
CN1CCN(c2ccc(N=Cc3c(O)n(C)c(=O)[nH]c3=O)cc2)CC1

>  <score_type>  (79) 
oracle

>  <origin>  (79) 
adg

>  <m_score__min__energy>  (79) 
-9.9100000000000001

>  <m_primary>  (79) 
energy

$$$$
79:0
     RDKit          3D

 53 55  0  0  0  0  0  0  0  0999 V2000
   60.6070   26.7290   46.7350 C   0  0  0  0  0  0  0  0  0  0  0  0
   59.5480   27.6020   46.1160 C   0  0  0  0  0  0  0  0  0  0  0  0
   58.8960   27.1540   44.9600 C   0  0  0  0  0  0  0  0  0  0  0  0
   57.9080   27.9270   44.3530 C   0  0  0  0  0  0  0  0  0  0  0  0
   57.5620   29.1650   44.8860 C   0  0  0  0  0  0  0  0  0  0  0  0
   56.3250   30.1570   44.1200 S   0  0  0  0  0  0  0  0  0  0  0  0
   54.7990   29.3410   44.2220 N   0  0  0  0  0  0  0  0  0  0  0  0
   56.2340   31.4900   44.8110 O   0  0  0  0  0  0  0  0  0  0  0  0
   56.6770   30.3900   42.6740 O   0  0  0  0  0  0  0  0  0  0  0  0
   58.2260   29.6360   46.0210 C   0  0  0  0  0  0  0  0  0  0  0  0
   59.2270   28.8750   46.6320 C   0  0  0  0  0  0  0  0  0  0  0  0
   59.8900   29.4210   47.8290 C   0  0  0  0  0  0  0  0  0  0  0  0
   60.6700   28.6790   48.4860 O   0  0  0  0  0  0  0  0  0  0  0  0
   59.6490   30.7750   48.2630 N   0  0  0  0  0  0  0  0  0  0  0  0
   58.8730   31.1240   49.4330 C   0  0  0  0  0  0  0  0  0  0  0  0
   59.0790   32.6280   49.6440 C   0  0  1  0  0  0  0  0  0  0  0  0
   59.9670   32.8950   50.8580 C   0  0  0  0  0  0  0  0  0  0  0  0
   59.7350   33.1810   48.3480 C   0  0  2  0  0  0  0  0  0  0  0  0
   58.7700   34.0100   47.5660 N   0  0  0  0  0  0  0  0  0  0  0  0
   57.7540   33.1990   46.8400 C   0  0  0  0  0  0  0  0  0  0  0  0
   57.2630   33.8710   45.5520 C   0  0  0  0  0  0  0  0  0  0  0  0
   58.3610   34.0750   44.5860 N   0  0  0  0  0  0  0  0  0  0  0  0
   58.5170   32.9060   43.7000 C   0  0  0  0  0  0  0  0  0  0  0  0
   59.6480   34.4290   45.2350 C   0  0  0  0  0  0  0  0  0  0  0  0
   59.4700   34.9680   46.6650 C   0  0  0  0  0  0  0  0  0  0  0  0
   60.2370   31.9200   47.5990 C   0  0  0  0  0  0  0  0  0  0  0  0
   60.5359   26.7876   47.8311 H   0  0  0  0  0  0  0  0  0  0  0  0
   60.4581   25.6878   46.4131 H   0  0  0  0  0  0  0  0  0  0  0  0
   61.6007   27.0738   46.4131 H   0  0  0  0  0  0  0  0  0  0  0  0
   59.1671   26.1802   44.5261 H   0  0  0  0  0  0  0  0  0  0  0  0
   57.4002   27.5575   43.4499 H   0  0  0  0  0  0  0  0  0  0  0  0
   54.5150   29.3370   45.2260 H   0  0  0  0  0  0  0  0  0  0  0  0
   57.9581   30.6175   46.4391 H   0  0  0  0  0  0  0  0  0  0  0  0
   57.8084   30.9040   49.2650 H   0  0  0  0  0  0  0  0  0  0  0  0
   59.1906   30.5466   50.3138 H   0  0  0  0  0  0  0  0  0  0  0  0
   58.1181   33.1264   49.8395 H   0  0  0  0  0  0  0  0  0  0  0  0
   59.3909   32.7218   51.7789 H   0  0  0  0  0  0  0  0  0  0  0  0
   60.8334   32.2176   50.8346 H   0  0  0  0  0  0  0  0  0  0  0  0
   60.3162   33.9379   50.8346 H   0  0  0  0  0  0  0  0  0  0  0  0
   60.5702   33.8700   48.5421 H   0  0  0  0  0  0  0  0  0  0  0  0
   58.2003   32.2276   46.5809 H   0  0  0  0  0  0  0  0  0  0  0  0
   56.8852   33.0861   47.5052 H   0  0  0  0  0  0  0  0  0  0  0  0
   56.4951   33.2341   45.0887 H   0  0  0  0  0  0  0  0  0  0  0  0
   56.8529   34.8569   45.8161 H   0  0  0  0  0  0  0  0  0  0  0  0
   58.6382   31.9980   44.3089 H   0  0  0  0  0  0  0  0  0  0  0  0
   57.6243   32.8053   43.0652 H   0  0  0  0  0  0  0  0  0  0  0  0
   59.4048   33.0429   43.0652 H   0  0  0  0  0  0  0  0  0  0  0  0
   60.2797   33.5294   45.2752 H   0  0  0  0  0  0  0  0  0  0  0  0
   60.1103   35.2279   44.6366 H   0  0  0  0  0  0  0  0  0  0  0  0
   60.4639   35.1818   47.0851 H   0  0  0  0  0  0  0  0  0  0  0  0
   58.8479   35.8728   46.6002 H   0  0  0  0  0  0  0  0  0  0  0  0
   59.9175   31.9526   46.5469 H   0  0  0  0  0  0  0  0  0  0  0  0
   61.3354   31.8635   47.6149 H   0  0  0  0  0  0  0  0  0  0  0  0
  1  2  1  0
  2  3  2  0
  3  4  1  0
  4  5  2  0
  5  6  1  0
  6  7  1  0
  6  8  2  0
  6  9  2  0
  5 10  1  0
 10 11  2  0
 11 12  1  0
 12 13  2  0
 12 14  1  0
 14 15  1  0
 15 16  1  0
 16 17  1  0
 16 18  1  0
 18 19  1  0
 19 20  1  0
 20 21  1  0
 21 22  1  0
 22 23  1  0
 22 24  1  0
 24 25  1  0
 18 26  1  0
 11  2  1  0
 26 14  1  0
 25 19  1  0
  1 27  1  0
  1 28  1  0
  1 29  1  0
  3 30  1  0
  4 31  1  0
  7 32  1  0
 10 33  1  0
 15 34  1  0
 15 35  1  0
 16 36  1  1
 17 37  1  0
 17 38  1  0
 17 39  1  0
 18 40  1  1
 20 41  1  0
 20 42  1  0
 21 43  1  0
 21 44  1  0
 23 45  1  0
 23 46  1  0
 23 47  1  0
 24 48  1  0
 24 49  1  0
 25 50  1  0
 25 51  1  0
 26 52  1  0
 26 53  1  0
M  CHG  1   7  -1
M  END
>  <UniqueID>  (80) 
75

>  <SMILES>  (80) 
Cc1ccc(S([NH-])(=O)=O)cc1C(=O)N1C[C@@H](C)[C@H](N2CCN(C)CC2)C1

>  <Energy>  (80) 
79.1854657840004

>  <Genealogy>  (80) 
Cc1ccc(S([NH-])(=O)=O)cc1C(=O)N1CC(C)C(N2CCN(C)CC2)C1 (protonated)
Cc1ccc(S([NH-])(=O)=O)cc1C(=O)N1C[C@@H](C)[C@H](N2CCN(C)CC2)C1 (chirality)
Cc1ccc(S([NH-])(=O)=O)cc1C(=O)N1C[C@@H](C)[C@H](N2CCN(C)CC2)C1 (3D coordinates assigned)
Cc1ccc(S([NH-])(=O)=O)cc1C(=O)N1C[C@@H](C)[C@H](N2CCN(C)CC2)C1 (nonaromatic ring conformer: 79.1854657840004 kcal/mol)

>  <smiles>  (80) 
Cc1ccc(S(N)(=O)=O)cc1C(=O)N1CC(C)C(N2CCN(C)CC2)C1

>  <score_type>  (80) 
oracle

>  <origin>  (80) 
adg

>  <m_score__min__energy>  (80) 
-12.039999999999999

>  <m_primary>  (80) 
energy

$$$$
80:0
     RDKit          3D

 40 42  0  0  0  0  0  0  0  0999 V2000
   57.0560   31.5580   46.4480 H   0  0  0  0  0  0  0  0  0  0  0  0
   57.5210   32.0990   47.1650 O   0  0  0  0  0  0  0  0  0  0  0  0
   58.3660   33.1570   46.8390 C   0  0  0  0  0  0  0  0  0  0  0  0
   59.4100   33.6450   47.5990 C   0  0  0  0  0  0  0  0  0  0  0  0
   59.7550   33.2250   48.9660 C   0  0  0  0  0  0  0  0  0  0  0  0
   60.5266   33.8041   49.4945 H   0  0  0  0  0  0  0  0  0  0  0  0
   59.2010   32.1880   49.6210 C   0  0  0  0  0  0  0  0  0  0  0  0
   59.1450   30.8150   49.3260 C   0  0  0  0  0  0  0  0  0  0  0  0
   59.5100   30.1890   48.2050 C   0  0  0  0  0  0  0  0  0  0  0  0
   60.0279   30.7439   47.4089 H   0  0  0  0  0  0  0  0  0  0  0  0
   59.2928   29.1182   48.0773 H   0  0  0  0  0  0  0  0  0  0  0  0
   58.5070   30.1630   50.3240 N   0  0  0  0  0  0  0  0  0  0  0  0
   58.1450   31.0560   51.2290 N   0  0  0  0  0  0  0  0  0  0  0  0
   57.3720   30.7370   52.4230 C   0  0  0  0  0  0  0  0  0  0  0  0
   57.9628   30.9808   53.3183 H   0  0  0  0  0  0  0  0  0  0  0  0
   56.4423   31.3250   52.4259 H   0  0  0  0  0  0  0  0  0  0  0  0
   57.1276   29.6645   52.4259 H   0  0  0  0  0  0  0  0  0  0  0  0
   58.5200   32.2800   50.8210 C   0  0  0  0  0  0  0  0  0  0  0  0
   58.2920   33.3410   51.4640 O   0  0  0  0  0  0  0  0  0  0  0  0
   59.9850   34.6840   46.9530 N   0  0  0  0  0  0  0  0  0  0  0  0
   59.2900   34.7670   45.7980 C   0  0  0  0  0  0  0  0  0  0  0  0
   59.5540   35.6110   44.9010 O   0  0  0  0  0  0  0  0  0  0  0  0
   58.2900   33.8650   45.7010 N   0  0  0  0  0  0  0  0  0  0  0  0
   57.4030   33.6260   44.5640 C   0  0  0  0  0  0  0  0  0  0  0  0
   56.3605   33.7948   44.8718 H   0  0  0  0  0  0  0  0  0  0  0  0
   57.6637   34.3157   43.7477 H   0  0  0  0  0  0  0  0  0  0  0  0
   57.5590   32.2170   44.0900 C   0  0  0  0  0  0  0  0  0  0  0  0
   58.5140   31.9180   43.3240 O   0  0  0  0  0  0  0  0  0  0  0  0
   56.6230   31.2230   44.5220 N   0  0  0  0  0  0  0  0  0  0  0  0
   56.9300   29.8750   44.9060 C   0  0  0  0  0  0  0  0  0  0  0  0
   58.2740   29.4990   45.0220 C   0  0  0  0  0  0  0  0  0  0  0  0
   59.0666   30.2295   44.8023 H   0  0  0  0  0  0  0  0  0  0  0  0
   58.6150   28.2020   45.4150 C   0  0  0  0  0  0  0  0  0  0  0  0
   59.6730   27.9104   45.4899 H   0  0  0  0  0  0  0  0  0  0  0  0
   57.6120   27.2750   45.7130 C   0  0  0  0  0  0  0  0  0  0  0  0
   57.8814   26.2523   46.0155 H   0  0  0  0  0  0  0  0  0  0  0  0
   56.2680   27.6460   45.6270 C   0  0  0  0  0  0  0  0  0  0  0  0
   55.2730   26.7300   45.9420 O   0  0  0  0  0  0  0  0  0  0  0  0
   55.9240   28.9440   45.2300 C   0  0  0  0  0  0  0  0  0  0  0  0
   54.8655   29.2373   45.1710 H   0  0  0  0  0  0  0  0  0  0  0  0
  1  2  1  0
  2  3  1  0
  3  4  2  0
  4  5  1  0
  5  6  1  0
  5  7  2  0
  7  8  1  0
  8  9  2  0
  9 10  1  0
  9 11  1  0
  8 12  1  0
 12 13  1  0
 13 14  1  0
 14 15  1  0
 14 16  1  0
 14 17  1  0
 13 18  1  0
 18 19  2  0
  4 20  1  0
 20 21  1  0
 21 22  2  0
 21 23  1  0
 23 24  1  0
 24 25  1  0
 24 26  1  0
 24 27  1  0
 27 28  2  0
 27 29  1  0
 29 30  1  0
 30 31  2  0
 31 32  1  0
 31 33  1  0
 33 34  1  0
 33 35  2  0
 35 36  1  0
 35 37  1  0
 37 38  1  0
 37 39  2  0
 39 40  1  0
 23  3  1  0
 39 30  1  0
 18  7  1  0
M  CHG  4  12  -1  20  -1  29  -1  38  -1
M  END
>  <UniqueID>  (81) 
76

>  <SMILES>  (81) 
C=c1[n-]n(C)c(=O)/c1=C/c1[n-]c(=O)n(CC(=O)[N-]c2cccc([O-])c2)c1O

>  <Energy>  (81) 
118.38790376057477

>  <Genealogy>  (81) 
C=c1[n-]n(C)c(=O)c1=Cc1[n-]c(=O)n(CC(=O)[N-]c2cccc([O-])c2)c1O (protonated)
C=c1[n-]n(C)c(=O)/c1=C/c1[n-]c(=O)n(CC(=O)[N-]c2cccc([O-])c2)c1O (cis-trans isomerization)
C=c1[n-]n(C)c(=O)/c1=C/c1[n-]c(=O)n(CC(=O)[N-]c2cccc([O-])c2)c1O (3D coordinates assigned)
C=c1[n-]n(C)c(=O)/c1=C/c1[n-]c(=O)n(CC(=O)[N-]c2cccc([O-])c2)c1O (optimized conformer: 118.38790376057477 kcal/mol)

>  <smiles>  (81) 
C=c1[nH]n(C)c(=O)c1=Cc1[nH]c(=O)n(CC(=O)Nc2cccc(O)c2)c1O

>  <score_type>  (81) 
oracle

>  <origin>  (81) 
adg

>  <m_score__min__energy>  (81) 
-14.31

>  <m_primary>  (81) 
energy

$$$$
81:0
     RDKit          3D

 53 55  0  0  0  0  0  0  0  0999 V2000
   56.7710   24.4110   46.7190 C   0  0  0  0  0  0  0  0  0  0  0  0
   57.4890   25.5360   47.2180 O   0  0  0  0  0  0  0  0  0  0  0  0
   57.7380   26.7070   46.4850 C   0  0  0  0  0  0  0  0  0  0  0  0
   57.5070   26.7910   45.1020 C   0  0  0  0  0  0  0  0  0  0  0  0
   57.7570   27.9830   44.4190 C   0  0  0  0  0  0  0  0  0  0  0  0
   58.2450   29.1110   45.0990 C   0  0  0  0  0  0  0  0  0  0  0  0
   58.4810   30.3890   44.3300 C   0  0  0  0  0  0  0  0  0  0  0  0
   57.5000   31.4590   44.7150 C   0  0  0  0  0  0  0  0  0  0  0  0
   56.2720   31.2880   44.4940 O   0  0  0  0  0  0  0  0  0  0  0  0
   57.9390   32.6480   45.3850 N   0  0  0  0  0  0  0  0  0  0  0  0
   58.9010   33.5590   44.7560 C   0  0  0  0  0  0  0  0  0  0  0  0
   60.0720   33.8150   45.7130 C   0  0  0  0  0  0  0  0  0  0  0  0
   59.6090   34.0080   47.1000 N   0  0  0  0  0  0  0  0  0  0  0  0
   60.5490   33.9350   48.1950 C   0  0  0  0  0  0  0  0  0  0  0  0
   60.1310   33.6560   49.3530 O   0  0  0  0  0  0  0  0  0  0  0  0
   61.9600   34.1180   47.9680 N   0  0  0  0  0  0  0  0  0  0  0  0
   62.9660   33.8910   48.9700 C   0  0  0  0  0  0  0  0  0  0  0  0
   62.9610   34.6010   50.1850 C   0  0  0  0  0  0  0  0  0  0  0  0
   63.9570   34.3720   51.1410 C   0  0  0  0  0  0  0  0  0  0  0  0
   64.9720   33.4460   50.8890 C   0  0  0  0  0  0  0  0  0  0  0  0
   65.0010   32.7570   49.6730 C   0  0  0  0  0  0  0  0  0  0  0  0
   64.0080   32.9840   48.7120 C   0  0  0  0  0  0  0  0  0  0  0  0
   64.0480   32.3030   47.5390 F   0  0  0  0  0  0  0  0  0  0  0  0
   58.1640   34.1230   47.3590 C   0  0  0  0  0  0  0  0  0  0  0  0
   57.4360   32.9270   46.7360 C   0  0  0  0  0  0  0  0  0  0  0  0
   58.4840   29.0340   46.4900 C   0  0  0  0  0  0  0  0  0  0  0  0
   58.9660   30.1690   47.1630 O   0  0  0  0  0  0  0  0  0  0  0  0
   60.3390   30.4270   47.4360 C   0  0  0  0  0  0  0  0  0  0  0  0
   58.2310   27.8230   47.1670 C   0  0  0  0  0  0  0  0  0  0  0  0
   56.3908   23.8153   47.5620 H   0  0  0  0  0  0  0  0  0  0  0  0
   55.9268   24.7578   46.1049 H   0  0  0  0  0  0  0  0  0  0  0  0
   57.4410   23.7914   46.1049 H   0  0  0  0  0  0  0  0  0  0  0  0
   57.1280   25.9150   44.5553 H   0  0  0  0  0  0  0  0  0  0  0  0
   57.5697   28.0392   43.3365 H   0  0  0  0  0  0  0  0  0  0  0  0
   59.4997   30.7476   44.5389 H   0  0  0  0  0  0  0  0  0  0  0  0
   58.3503   30.1736   43.2592 H   0  0  0  0  0  0  0  0  0  0  0  0
   59.2797   33.1068   43.8275 H   0  0  0  0  0  0  0  0  0  0  0  0
   58.4032   34.5126   44.5260 H   0  0  0  0  0  0  0  0  0  0  0  0
   60.7538   32.9524   45.6813 H   0  0  0  0  0  0  0  0  0  0  0  0
   60.5844   34.7336   45.3909 H   0  0  0  0  0  0  0  0  0  0  0  0
   62.2950   34.2850   46.9970 H   0  0  0  0  0  0  0  0  0  0  0  0
   62.1705   35.3395   50.3842 H   0  0  0  0  0  0  0  0  0  0  0  0
   63.9406   34.9225   52.0932 H   0  0  0  0  0  0  0  0  0  0  0  0
   65.7475   33.2592   51.6464 H   0  0  0  0  0  0  0  0  0  0  0  0
   65.8057   32.0349   49.4705 H   0  0  0  0  0  0  0  0  0  0  0  0
   57.9860   34.1356   48.4444 H   0  0  0  0  0  0  0  0  0  0  0  0
   57.7850   35.0549   46.9141 H   0  0  0  0  0  0  0  0  0  0  0  0
   57.5940   32.0409   47.3684 H   0  0  0  0  0  0  0  0  0  0  0  0
   56.3646   33.1667   46.6676 H   0  0  0  0  0  0  0  0  0  0  0  0
   60.4972   30.4567   48.5242 H   0  0  0  0  0  0  0  0  0  0  0  0
   60.9563   29.6291   46.9974 H   0  0  0  0  0  0  0  0  0  0  0  0
   60.6245   31.3945   46.9974 H   0  0  0  0  0  0  0  0  0  0  0  0
   58.4245   27.7557   48.2478 H   0  0  0  0  0  0  0  0  0  0  0  0
  1  2  1  0
  2  3  1  0
  3  4  2  0
  4  5  1  0
  5  6  2  0
  6  7  1  0
  7  8  1  0
  8  9  2  0
  8 10  1  0
 10 11  1  0
 11 12  1  0
 12 13  1  0
 13 14  1  0
 14 15  2  0
 14 16  1  0
 16 17  1  0
 17 18  2  0
 18 19  1  0
 19 20  2  0
 20 21  1  0
 21 22  2  0
 22 23  1  0
 13 24  1  0
 24 25  1  0
  6 26  1  0
 26 27  1  0
 27 28  1  0
 26 29  2  0
 29  3  1  0
 25 10  1  0
 22 17  1  0
  1 30  1  0
  1 31  1  0
  1 32  1  0
  4 33  1  0
  5 34  1  0
  7 35  1  0
  7 36  1  0
 11 37  1  0
 11 38  1  0
 12 39  1  0
 12 40  1  0
 16 41  1  0
 18 42  1  0
 19 43  1  0
 20 44  1  0
 21 45  1  0
 24 46  1  0
 24 47  1  0
 25 48  1  0
 25 49  1  0
 28 50  1  0
 28 51  1  0
 28 52  1  0
 29 53  1  0
M  END
>  <UniqueID>  (82) 
77

>  <SMILES>  (82) 
COc1ccc(CC(=O)N2CCN(C(=O)Nc3ccccc3F)CC2)c(OC)c1

>  <Energy>  (82) 
61.927570627709954

>  <Genealogy>  (82) 
COc1ccc(CC(=O)N2CCN(C(=O)Nc3ccccc3F)CC2)c(OC)c1 (3D coordinates assigned)
COc1ccc(CC(=O)N2CCN(C(=O)Nc3ccccc3F)CC2)c(OC)c1 (nonaromatic ring conformer: 61.927570627709954 kcal/mol)

>  <smiles>  (82) 
COc1ccc(CC(=O)N2CCN(C(=O)Nc3ccccc3F)CC2)c(OC)c1

>  <score_type>  (82) 
oracle

>  <origin>  (82) 
adg

>  <m_score__min__energy>  (82) 
-7.54

>  <m_primary>  (82) 
energy

$$$$
82:0
     RDKit          3D

 66 70  0  0  0  0  0  0  0  0999 V2000
   58.2457   35.6668   45.4796 H   0  0  0  0  0  0  0  0  0  0  0  0
   58.4290   34.5850   45.5570 C   0  0  0  0  0  0  0  0  0  0  0  0
   57.6380   33.6920   44.8320 C   0  0  0  0  0  0  0  0  0  0  0  0
   56.8219   34.0731   44.2005 H   0  0  0  0  0  0  0  0  0  0  0  0
   57.8780   32.3080   44.9040 C   0  0  0  0  0  0  0  0  0  0  0  0
   57.0390   31.3590   44.1380 C   0  0  0  0  0  0  0  0  0  0  0  0
   57.0580   31.3780   42.8770 O   0  0  0  0  0  0  0  0  0  0  0  0
   56.2120   30.4130   44.8260 N   0  0  0  0  0  0  0  0  0  0  0  0
   56.4880   28.9830   44.8770 C   0  0  0  0  0  0  0  0  0  0  0  0
   55.7619   28.4941   45.5431 H   0  0  0  0  0  0  0  0  0  0  0  0
   56.4046   28.5599   43.8650 H   0  0  0  0  0  0  0  0  0  0  0  0
   57.8780   28.7530   45.3990 C   0  0  0  0  0  0  0  0  0  0  0  0
   58.9560   28.6610   44.5060 C   0  0  0  0  0  0  0  0  0  0  0  0
   58.7753   28.7056   43.4219 H   0  0  0  0  0  0  0  0  0  0  0  0
   60.2570   28.5130   44.9890 C   0  0  0  0  0  0  0  0  0  0  0  0
   61.0984   28.4394   44.2843 H   0  0  0  0  0  0  0  0  0  0  0  0
   60.4940   28.4580   46.3650 C   0  0  0  0  0  0  0  0  0  0  0  0
   61.5230   28.3490   46.7382 H   0  0  0  0  0  0  0  0  0  0  0  0
   59.4270   28.5410   47.2750 C   0  0  0  0  0  0  0  0  0  0  0  0
   59.6910   28.4940   48.7690 C   0  0  0  0  0  0  0  0  0  0  0  0
   58.8082   28.0577   49.2592 H   0  0  0  0  0  0  0  0  0  0  0  0
   60.6027   27.8935   48.9043 H   0  0  0  0  0  0  0  0  0  0  0  0
   59.9620   29.8140   49.3940 N   0  0  0  0  0  0  0  0  0  0  0  0
   60.2870   29.7480   50.8230 C   0  0  0  0  0  0  0  0  0  0  0  0
   60.5918   28.7255   51.0905 H   0  0  0  0  0  0  0  0  0  0  0  0
   61.1164   30.4306   51.0601 H   0  0  0  0  0  0  0  0  0  0  0  0
   59.0390   30.1370   51.6030 C   0  0  0  0  0  0  0  0  0  0  0  0
   58.5468   29.2416   52.0104 H   0  0  0  0  0  0  0  0  0  0  0  0
   59.2799   30.7890   52.4555 H   0  0  0  0  0  0  0  0  0  0  0  0
   58.1300   30.8330   50.6040 C   0  0  0  0  0  0  0  0  0  0  0  0
   57.1633   30.3121   50.5385 H   0  0  0  0  0  0  0  0  0  0  0  0
   57.9201   31.8706   50.9030 H   0  0  0  0  0  0  0  0  0  0  0  0
   58.8560   30.7720   49.2680 C   0  0  0  0  0  0  0  0  0  0  0  0
   58.1625   30.4397   48.4815 H   0  0  0  0  0  0  0  0  0  0  0  0
   59.2414   31.7661   48.9976 H   0  0  0  0  0  0  0  0  0  0  0  0
   58.1210   28.7110   46.7830 C   0  0  0  0  0  0  0  0  0  0  0  0
   57.2820   28.8120   47.4872 H   0  0  0  0  0  0  0  0  0  0  0  0
   58.9140   31.8380   45.7330 C   0  0  0  0  0  0  0  0  0  0  0  0
   59.1233   30.7592   45.7825 H   0  0  0  0  0  0  0  0  0  0  0  0
   59.6830   32.7290   46.4970 C   0  0  0  0  0  0  0  0  0  0  0  0
   60.7150   32.2100   47.3520 N   0  0  0  0  0  0  0  0  0  0  0  0
   60.4710   31.3830   47.9410 H   0  0  0  0  0  0  0  0  0  0  0  0
   61.9870   32.8580   47.5530 C   0  0  0  0  0  0  0  0  0  0  0  0
   62.3220   33.8310   46.8260 O   0  0  0  0  0  0  0  0  0  0  0  0
   62.9160   32.4060   48.6180 C   0  0  0  0  0  0  0  0  0  0  0  0
   62.5280   31.3730   49.4890 C   0  0  0  0  0  0  0  0  0  0  0  0
   61.5291   30.9233   49.3885 H   0  0  0  0  0  0  0  0  0  0  0  0
   63.3970   30.9110   50.4810 C   0  0  0  0  0  0  0  0  0  0  0  0
   63.0779   30.1072   51.1607 H   0  0  0  0  0  0  0  0  0  0  0  0
   64.6740   31.4710   50.6100 C   0  0  0  0  0  0  0  0  0  0  0  0
   65.5670   31.0160   51.5900 C   0  0  0  0  0  0  0  0  0  0  0  0
   65.2633   30.2160   52.2812 H   0  0  0  0  0  0  0  0  0  0  0  0
   66.8070   31.5620   51.6870 N   0  0  0  0  0  0  0  0  0  0  0  0
   67.2280   32.5570   50.8550 C   0  0  0  0  0  0  0  0  0  0  0  0
   68.4230   33.0580   50.9670 N   0  0  0  0  0  0  0  0  0  0  0  0
   68.8070   34.3740   50.4680 C   0  0  0  0  0  0  0  0  0  0  0  0
   69.0029   35.0453   51.3171 H   0  0  0  0  0  0  0  0  0  0  0  0
   69.7160   34.2829   49.8553 H   0  0  0  0  0  0  0  0  0  0  0  0
   67.9916   34.7861   49.8553 H   0  0  0  0  0  0  0  0  0  0  0  0
   66.3690   33.0450   49.8650 C   0  0  0  0  0  0  0  0  0  0  0  0
   66.7002   33.8492   49.1916 H   0  0  0  0  0  0  0  0  0  0  0  0
   65.0830   32.5020   49.7370 C   0  0  0  0  0  0  0  0  0  0  0  0
   64.2030   32.9630   48.7440 C   0  0  0  0  0  0  0  0  0  0  0  0
   64.5213   33.7641   48.0606 H   0  0  0  0  0  0  0  0  0  0  0  0
   59.4520   34.1100   46.3800 C   0  0  0  0  0  0  0  0  0  0  0  0
   60.0796   34.8197   46.9390 H   0  0  0  0  0  0  0  0  0  0  0  0
  1  2  1  0
  2  3  2  0
  3  4  1  0
  3  5  1  0
  5  6  1  0
  6  7  2  0
  6  8  1  0
  8  9  1  0
  9 10  1  0
  9 11  1  0
  9 12  1  0
 12 13  2  0
 13 14  1  0
 13 15  1  0
 15 16  1  0
 15 17  2  0
 17 18  1  0
 17 19  1  0
 19 20  1  0
 20 21  1  0
 20 22  1  0
 20 23  1  0
 23 24  1  0
 24 25  1  0
 24 26  1  0
 24 27  1  0
 27 28  1  0
 27 29  1  0
 27 30  1  0
 30 31  1  0
 30 32  1  0
 30 33  1  0
 33 34  1  0
 33 35  1  0
 19 36  2  0
 36 37  1  0
  5 38  2  0
 38 39  1  0
 38 40  1  0
 40 41  1  0
 41 42  1  0
 41 43  1  0
 43 44  2  0
 43 45  1  0
 45 46  1  0
 46 47  1  0
 46 48  2  0
 48 49  1  0
 48 50  1  0
 50 51  2  0
 51 52  1  0
 51 53  1  0
 53 54  1  0
 54 55  2  0
 55 56  1  0
 56 57  1  0
 56 58  1  0
 56 59  1  0
 54 60  1  0
 60 61  1  0
 60 62  2  0
 62 63  1  0
 63 64  1  0
 40 65  2  0
 65 66  1  0
 65  2  1  0
 36 12  1  0
 63 45  2  0
 33 23  1  0
 62 50  1  0
M  CHG  2   8  -1  53  -1
M  END
>  <UniqueID>  (83) 
78

>  <SMILES>  (83) 
C/N=c1/cc2cc(C(=O)Nc3cccc(C(=O)[N-]Cc4cccc(CN5CCCC5)c4)c3)ccc2c[n-]1

>  <Energy>  (83) 
85.61138501474554

>  <Genealogy>  (83) 
CN=c1cc2cc(C(=O)Nc3cccc(C(=O)[N-]Cc4cccc(CN5CCCC5)c4)c3)ccc2c[n-]1 (protonated)
C/N=c1/cc2cc(C(=O)Nc3cccc(C(=O)[N-]Cc4cccc(CN5CCCC5)c4)c3)ccc2c[n-]1 (cis-trans isomerization)
C/N=c1/cc2cc(C(=O)Nc3cccc(C(=O)[N-]Cc4cccc(CN5CCCC5)c4)c3)ccc2c[n-]1 (3D coordinates assigned)
C/N=c1/cc2cc(C(=O)Nc3cccc(C(=O)[N-]Cc4cccc(CN5CCCC5)c4)c3)ccc2c[n-]1 (nonaromatic ring conformer: 85.61138501474554 kcal/mol)

>  <smiles>  (83) 
CN=c1cc2cc(C(=O)Nc3cccc(C(=O)NCc4cccc(CN5CCCC5)c4)c3)ccc2c[nH]1

>  <score_type>  (83) 
oracle

>  <origin>  (83) 
adg

>  <m_score__min__energy>  (83) 
-12.800000000000001

>  <m_primary>  (83) 
energy

$$$$
83:0
     RDKit          3D

 65 68  0  0  0  0  0  0  0  0999 V2000
   57.4430   32.3770   41.0070 C   0  0  0  0  0  0  0  0  0  0  0  0
   57.5420   31.5300   42.1480 O   0  0  0  0  0  0  0  0  0  0  0  0
   57.7620   31.9800   43.4600 C   0  0  0  0  0  0  0  0  0  0  0  0
   58.1870   33.2930   43.7310 C   0  0  0  0  0  0  0  0  0  0  0  0
   58.3960   33.7130   45.0450 C   0  0  0  0  0  0  0  0  0  0  0  0
   58.1860   32.8340   46.1210 C   0  0  0  0  0  0  0  0  0  0  0  0
   58.3960   33.2730   47.5280 C   0  0  0  0  0  0  0  0  0  0  0  0
   59.3450   34.3780   47.8810 C   0  0  0  0  0  0  0  0  0  0  0  0
   57.7660   32.7070   48.4610 O   0  0  0  0  0  0  0  0  0  0  0  0
   57.7680   31.5200   45.8480 C   0  0  0  0  0  0  0  0  0  0  0  0
   57.5550   31.0890   44.5290 C   0  0  0  0  0  0  0  0  0  0  0  0
   57.1080   29.6730   44.2640 C   0  0  0  0  0  0  0  0  0  0  0  0
   57.3360   28.8580   45.4110 O   0  0  0  0  0  0  0  0  0  0  0  0
   58.6100   28.4560   45.8290 C   0  0  0  0  0  0  0  0  0  0  0  0
   59.1920   27.4960   45.2500 O   0  0  0  0  0  0  0  0  0  0  0  0
   59.2510   29.1370   46.9240 N   0  0  0  0  0  0  0  0  0  0  0  0
   60.3980   30.0150   46.6300 C   0  0  0  0  0  0  0  0  0  0  0  0
   61.2340   30.3190   47.8750 C   0  0  0  0  0  0  0  0  0  0  0  0
   60.3540   30.7510   49.0150 C   0  0  0  0  0  0  0  0  0  0  0  0
   59.1250   30.1000   49.2010 C   0  0  0  0  0  0  0  0  0  0  0  0
   58.2990   30.4690   50.2710 C   0  0  0  0  0  0  0  0  0  0  0  0
   58.6960   31.5030   51.1240 C   0  0  0  0  0  0  0  0  0  0  0  0
   57.8410   31.9000   52.2850 C   0  0  0  0  0  0  0  0  0  0  0  0
   59.9000   32.1050   50.9390 N   0  0  0  0  0  0  0  0  0  0  0  0
   60.7400   31.7550   49.9280 C   0  0  0  0  0  0  0  0  0  0  0  0
   62.0010   32.4220   49.8080 N   0  0  0  0  0  0  0  0  0  0  0  0
   62.8360   32.6260   50.9960 C   0  0  0  0  0  0  0  0  0  0  0  0
   63.8910   33.7110   50.7390 C   0  0  0  0  0  0  0  0  0  0  0  0
   64.6620   33.4830   49.4920 N   0  0  0  0  0  0  0  0  0  0  0  0
   65.8610   32.6670   49.7440 C   0  0  0  0  0  0  0  0  0  0  0  0
   63.8780   32.9430   48.3500 C   0  0  0  0  0  0  0  0  0  0  0  0
   62.3640   33.0640   48.5470 C   0  0  0  0  0  0  0  0  0  0  0  0
   58.7300   28.9640   48.2930 C   0  0  0  0  0  0  0  0  0  0  0  0
   57.3211   33.4201   41.3342 H   0  0  0  0  0  0  0  0  0  0  0  0
   58.3578   32.2867   40.4029 H   0  0  0  0  0  0  0  0  0  0  0  0
   56.5737   32.0782   40.4029 H   0  0  0  0  0  0  0  0  0  0  0  0
   58.3559   33.9943   42.9005 H   0  0  0  0  0  0  0  0  0  0  0  0
   58.7287   34.7431   45.2407 H   0  0  0  0  0  0  0  0  0  0  0  0
   59.4180   34.4630   48.9753 H   0  0  0  0  0  0  0  0  0  0  0  0
   60.3381   34.1558   47.4634 H   0  0  0  0  0  0  0  0  0  0  0  0
   58.9754   35.3262   47.4634 H   0  0  0  0  0  0  0  0  0  0  0  0
   57.6054   30.8191   46.6801 H   0  0  0  0  0  0  0  0  0  0  0  0
   56.0343   29.6704   44.0250 H   0  0  0  0  0  0  0  0  0  0  0  0
   57.6840   29.2689   43.4185 H   0  0  0  0  0  0  0  0  0  0  0  0
   61.0396   29.5207   45.8857 H   0  0  0  0  0  0  0  0  0  0  0  0
   60.0019   30.9686   46.2509 H   0  0  0  0  0  0  0  0  0  0  0  0
   61.7865   29.4142   48.1684 H   0  0  0  0  0  0  0  0  0  0  0  0
   61.9336   31.1348   47.6401 H   0  0  0  0  0  0  0  0  0  0  0  0
   57.3445   29.9486   50.4387 H   0  0  0  0  0  0  0  0  0  0  0  0
   58.3616   31.6583   53.2234 H   0  0  0  0  0  0  0  0  0  0  0  0
   57.6445   32.9815   52.2428 H   0  0  0  0  0  0  0  0  0  0  0  0
   56.8880   31.3523   52.2428 H   0  0  0  0  0  0  0  0  0  0  0  0
   62.1978   32.9351   51.8370 H   0  0  0  0  0  0  0  0  0  0  0  0
   63.3498   31.6827   51.2329 H   0  0  0  0  0  0  0  0  0  0  0  0
   63.3830   34.6838   50.6646 H   0  0  0  0  0  0  0  0  0  0  0  0
   64.6031   33.6839   51.5769 H   0  0  0  0  0  0  0  0  0  0  0  0
   66.0129   32.5636   50.8285 H   0  0  0  0  0  0  0  0  0  0  0  0
   65.7277   31.6713   49.2959 H   0  0  0  0  0  0  0  0  0  0  0  0
   66.7384   33.1563   49.2959 H   0  0  0  0  0  0  0  0  0  0  0  0
   64.1577   33.4961   47.4413 H   0  0  0  0  0  0  0  0  0  0  0  0
   64.1127   31.8713   48.2699 H   0  0  0  0  0  0  0  0  0  0  0  0
   62.0787   34.1259   48.5771 H   0  0  0  0  0  0  0  0  0  0  0  0
   61.8382   32.5752   47.7136 H   0  0  0  0  0  0  0  0  0  0  0  0
   59.1270   28.0254   48.7070 H   0  0  0  0  0  0  0  0  0  0  0  0
   57.6317   28.9440   48.2359 H   0  0  0  0  0  0  0  0  0  0  0  0
  1  2  1  0
  2  3  1  0
  3  4  2  0
  4  5  1  0
  5  6  2  0
  6  7  1  0
  7  8  1  0
  7  9  2  0
  6 10  1  0
 10 11  2  0
 11 12  1  0
 12 13  1  0
 13 14  1  0
 14 15  2  0
 14 16  1  0
 16 17  1  0
 17 18  1  0
 18 19  1  0
 19 20  2  0
 20 21  1  0
 21 22  2  0
 22 23  1  0
 22 24  1  0
 24 25  2  0
 25 26  1  0
 26 27  1  0
 27 28  1  0
 28 29  1  0
 29 30  1  0
 29 31  1  0
 31 32  1  0
 20 33  1  0
 11  3  1  0
 33 16  1  0
 25 19  1  0
 32 26  1  0
  1 34  1  0
  1 35  1  0
  1 36  1  0
  4 37  1  0
  5 38  1  0
  8 39  1  0
  8 40  1  0
  8 41  1  0
 10 42  1  0
 12 43  1  0
 12 44  1  0
 17 45  1  0
 17 46  1  0
 18 47  1  0
 18 48  1  0
 21 49  1  0
 23 50  1  0
 23 51  1  0
 23 52  1  0
 27 53  1  0
 27 54  1  0
 28 55  1  0
 28 56  1  0
 30 57  1  0
 30 58  1  0
 30 59  1  0
 31 60  1  0
 31 61  1  0
 32 62  1  0
 32 63  1  0
 33 64  1  0
 33 65  1  0
M  END
>  <UniqueID>  (84) 
79

>  <SMILES>  (84) 
COc1ccc(C(C)=O)cc1COC(=O)N1CCc2c(cc(C)nc2N2CCN(C)CC2)C1

>  <Energy>  (84) 
78.34603060474679

>  <Genealogy>  (84) 
COc1ccc(C(C)=O)cc1COC(=O)N1CCc2c(cc(C)nc2N2CCN(C)CC2)C1 (3D coordinates assigned)
COc1ccc(C(C)=O)cc1COC(=O)N1CCc2c(cc(C)nc2N2CCN(C)CC2)C1 (nonaromatic ring conformer: 78.34603060474679 kcal/mol)

>  <smiles>  (84) 
COc1ccc(C(C)=O)cc1COC(=O)N1CCc2c(cc(C)nc2N2CCN(C)CC2)C1

>  <score_type>  (84) 
oracle

>  <origin>  (84) 
adg

>  <m_score__min__energy>  (84) 
-8.3599999999999994

>  <m_primary>  (84) 
energy

$$$$
84:0
     RDKit          3D

 46 48  0  0  0  0  0  0  0  0999 V2000
   57.5110   28.6290   43.7990 C   0  0  0  0  0  0  0  0  0  0  0  0
   56.6460   29.3420   43.0740 C   0  0  0  0  0  0  0  0  0  0  0  0
   56.6690   30.8440   43.1010 C   0  0  0  0  0  0  0  0  0  0  0  0
   56.5230   31.3370   44.4670 N   0  0  0  0  0  0  0  0  0  0  0  0
   57.4180   31.6830   45.3550 C   0  0  0  0  0  0  0  0  0  0  0  0
   57.9030   30.7690   46.2270 N   0  0  0  0  0  0  0  0  0  0  0  0
   58.7060   31.4740   47.0400 C   0  0  0  0  0  0  0  0  0  0  0  0
   58.7060   32.7800   46.6740 C   0  0  0  0  0  0  0  0  0  0  0  0
   59.4010   33.7090   47.4500 C   0  0  0  0  0  0  0  0  0  0  0  0
   59.3420   34.9410   47.1870 O   0  0  0  0  0  0  0  0  0  0  0  0
   60.1250   33.2580   48.5330 N   0  0  0  0  0  0  0  0  0  0  0  0
   60.8890   34.2290   49.3510 C   0  0  0  0  0  0  0  0  0  0  0  0
   62.3340   33.8000   49.5300 C   0  0  0  0  0  0  0  0  0  0  0  0
   62.8660   33.7470   50.8330 C   0  0  0  0  0  0  0  0  0  0  0  0
   64.1940   33.3780   51.0480 C   0  0  0  0  0  0  0  0  0  0  0  0
   65.0130   33.0550   49.9680 C   0  0  0  0  0  0  0  0  0  0  0  0
   64.5040   33.0900   48.6690 C   0  0  0  0  0  0  0  0  0  0  0  0
   63.1650   33.4480   48.4330 C   0  0  0  0  0  0  0  0  0  0  0  0
   62.6640   33.4780   47.0140 C   0  0  0  0  0  0  0  0  0  0  0  0
   60.0850   31.9170   48.8860 C   0  0  0  0  0  0  0  0  0  0  0  0
   60.6940   31.5200   49.9190 O   0  0  0  0  0  0  0  0  0  0  0  0
   59.3790   31.0100   48.1270 N   0  0  0  0  0  0  0  0  0  0  0  0
   59.3060   29.5850   48.4800 C   0  0  0  0  0  0  0  0  0  0  0  0
   57.9170   32.9430   45.5780 N   0  0  0  0  0  0  0  0  0  0  0  0
   57.6470   34.1980   44.8670 C   0  0  0  0  0  0  0  0  0  0  0  0
   57.4803   27.5299   43.7675 H   0  0  0  0  0  0  0  0  0  0  0  0
   58.2545   29.1406   44.4279 H   0  0  0  0  0  0  0  0  0  0  0  0
   55.9058   28.8223   42.4479 H   0  0  0  0  0  0  0  0  0  0  0  0
   57.6257   31.1981   42.6895 H   0  0  0  0  0  0  0  0  0  0  0  0
   55.8310   31.2218   42.4969 H   0  0  0  0  0  0  0  0  0  0  0  0
   57.6610   29.7540   46.2790 H   0  0  0  0  0  0  0  0  0  0  0  0
   60.8676   35.2094   48.8526 H   0  0  0  0  0  0  0  0  0  0  0  0
   60.4217   34.2813   50.3454 H   0  0  0  0  0  0  0  0  0  0  0  0
   62.2265   33.9997   51.6916 H   0  0  0  0  0  0  0  0  0  0  0  0
   64.5952   33.3420   52.0716 H   0  0  0  0  0  0  0  0  0  0  0  0
   66.0621   32.7721   50.1395 H   0  0  0  0  0  0  0  0  0  0  0  0
   65.1569   32.8349   47.8213 H   0  0  0  0  0  0  0  0  0  0  0  0
   61.5660   33.5437   47.0141 H   0  0  0  0  0  0  0  0  0  0  0  0
   63.0836   34.3526   46.4954 H   0  0  0  0  0  0  0  0  0  0  0  0
   62.9763   32.5595   46.4954 H   0  0  0  0  0  0  0  0  0  0  0  0
   59.3005   29.4783   49.5748 H   0  0  0  0  0  0  0  0  0  0  0  0
   58.3844   29.1511   48.0647 H   0  0  0  0  0  0  0  0  0  0  0  0
   60.1784   29.0592   48.0647 H   0  0  0  0  0  0  0  0  0  0  0  0
   57.4739   35.0028   45.5966 H   0  0  0  0  0  0  0  0  0  0  0  0
   58.5104   34.4549   44.2357 H   0  0  0  0  0  0  0  0  0  0  0  0
   56.7543   34.0771   44.2357 H   0  0  0  0  0  0  0  0  0  0  0  0
  1  2  2  0
  2  3  1  0
  3  4  1  0
  4  5  2  3
  5  6  1  0
  6  7  1  0
  7  8  2  0
  8  9  1  0
  9 10  2  0
  9 11  1  0
 11 12  1  0
 12 13  1  0
 13 14  2  0
 14 15  1  0
 15 16  2  0
 16 17  1  0
 17 18  2  0
 18 19  1  0
 11 20  1  0
 20 21  2  0
 20 22  1  0
 22 23  1  0
  8 24  1  0
 24 25  1  0
 24  5  1  0
 22  7  1  0
 18 13  1  0
  1 26  1  0
  1 27  1  0
  2 28  1  0
  3 29  1  0
  3 30  1  0
  6 31  1  0
 12 32  1  0
 12 33  1  0
 14 34  1  0
 15 35  1  0
 16 36  1  0
 17 37  1  0
 19 38  1  0
 19 39  1  0
 19 40  1  0
 23 41  1  0
 23 42  1  0
 23 43  1  0
 25 44  1  0
 25 45  1  0
 25 46  1  0
M  END
>  <UniqueID>  (85) 
80

>  <SMILES>  (85) 
C=CCN=c1[nH]c2c(c(=O)n(Cc3ccccc3C)c(=O)n2C)n1C

>  <Energy>  (85) 
104.10016258361722

>  <Genealogy>  (85) 
C=CCN=c1[nH]c2c(c(=O)n(Cc3ccccc3C)c(=O)n2C)n1C (3D coordinates assigned)
C=CCN=c1[nH]c2c(c(=O)n(Cc3ccccc3C)c(=O)n2C)n1C (optimized conformer: 104.10016258361722 kcal/mol)

>  <smiles>  (85) 
C=CCN=c1[nH]c2c(c(=O)n(Cc3ccccc3C)c(=O)n2C)n1C

>  <score_type>  (85) 
oracle

>  <origin>  (85) 
adg

>  <m_score__min__energy>  (85) 
-7.0599999999999996

>  <m_primary>  (85) 
energy

$$$$
85:0
     RDKit          3D

 49 52  0  0  0  0  0  0  0  0999 V2000
   59.0000   33.7020   51.7820 C   0  0  0  0  0  0  0  0  0  0  0  0
   59.6850   33.8510   50.5460 O   0  0  0  0  0  0  0  0  0  0  0  0
   60.3010   32.7750   49.9040 C   0  0  0  0  0  0  0  0  0  0  0  0
   59.9320   31.4790   50.0370 N   0  0  0  0  0  0  0  0  0  0  0  0
   60.7440   30.7480   49.2800 N   0  0  0  0  0  0  0  0  0  0  0  0
   60.6040   29.3040   49.1060 C   0  0  0  0  0  0  0  0  0  0  0  0
   59.8880   29.0090   47.8180 C   0  0  0  0  0  0  0  0  0  0  0  0
   58.9840   27.9380   47.7320 C   0  0  0  0  0  0  0  0  0  0  0  0
   58.3480   27.6490   46.5210 C   0  0  0  0  0  0  0  0  0  0  0  0
   58.6130   28.4210   45.3790 C   0  0  0  0  0  0  0  0  0  0  0  0
   57.9000   28.1210   44.0890 C   0  0  0  0  0  0  0  0  0  0  0  0
   57.1930   29.3070   43.6210 N   0  0  0  0  0  0  0  0  0  0  0  0
   56.2210   30.0090   44.4020 C   0  0  0  0  0  0  0  0  0  0  0  0
   55.3470   29.3720   45.0500 O   0  0  0  0  0  0  0  0  0  0  0  0
   56.2600   31.4360   44.5050 N   0  0  0  0  0  0  0  0  0  0  0  0
   57.3880   32.2170   44.9210 C   0  0  0  0  0  0  0  0  0  0  0  0
   58.0590   33.0860   44.0390 C   0  0  0  0  0  0  0  0  0  0  0  0
   59.1420   33.8470   44.4910 C   0  0  0  0  0  0  0  0  0  0  0  0
   59.5530   33.7610   45.8230 C   0  0  0  0  0  0  0  0  0  0  0  0
   58.8740   32.9210   46.7100 C   0  0  0  0  0  0  0  0  0  0  0  0
   57.7900   32.1590   46.2620 C   0  0  0  0  0  0  0  0  0  0  0  0
   59.5170   29.4910   45.4650 C   0  0  0  0  0  0  0  0  0  0  0  0
   60.1540   29.7780   46.6760 C   0  0  0  0  0  0  0  0  0  0  0  0
   61.6150   31.5710   48.6570 C   0  0  0  0  0  0  0  0  0  0  0  0
   62.6340   31.2620   47.7520 C   0  0  0  0  0  0  0  0  0  0  0  0
   63.3990   32.3270   47.2410 C   0  0  0  0  0  0  0  0  0  0  0  0
   63.1340   33.6590   47.6380 C   0  0  0  0  0  0  0  0  0  0  0  0
   63.8810   34.6720   47.1350 F   0  0  0  0  0  0  0  0  0  0  0  0
   62.0990   33.9380   48.5500 C   0  0  0  0  0  0  0  0  0  0  0  0
   61.3630   32.8600   49.0350 C   0  0  0  0  0  0  0  0  0  0  0  0
   59.7047   33.8553   52.6126 H   0  0  0  0  0  0  0  0  0  0  0  0
   58.1916   34.4453   51.8451 H   0  0  0  0  0  0  0  0  0  0  0  0
   58.5734   32.6901   51.8451 H   0  0  0  0  0  0  0  0  0  0  0  0
   61.6017   28.8414   49.0825 H   0  0  0  0  0  0  0  0  0  0  0  0
   60.0225   28.8937   49.9448 H   0  0  0  0  0  0  0  0  0  0  0  0
   58.7755   27.3242   48.6207 H   0  0  0  0  0  0  0  0  0  0  0  0
   57.6363   26.8123   46.4628 H   0  0  0  0  0  0  0  0  0  0  0  0
   58.6343   27.8120   43.3305 H   0  0  0  0  0  0  0  0  0  0  0  0
   57.1742   27.3119   44.2580 H   0  0  0  0  0  0  0  0  0  0  0  0
   57.7306   33.1664   42.9922 H   0  0  0  0  0  0  0  0  0  0  0  0
   59.6714   34.5149   43.7956 H   0  0  0  0  0  0  0  0  0  0  0  0
   60.4105   34.3540   46.1738 H   0  0  0  0  0  0  0  0  0  0  0  0
   59.1923   32.8591   47.7611 H   0  0  0  0  0  0  0  0  0  0  0  0
   57.2497   31.5101   46.9669 H   0  0  0  0  0  0  0  0  0  0  0  0
   59.7250   30.1058   44.5769 H   0  0  0  0  0  0  0  0  0  0  0  0
   60.8685   30.6124   46.7333 H   0  0  0  0  0  0  0  0  0  0  0  0
   62.8312   30.2229   47.4497 H   0  0  0  0  0  0  0  0  0  0  0  0
   64.2101   32.1221   46.5267 H   0  0  0  0  0  0  0  0  0  0  0  0
   61.8799   34.9681   48.8675 H   0  0  0  0  0  0  0  0  0  0  0  0
  1  2  1  0
  2  3  1  0
  3  4  2  0
  4  5  1  0
  5  6  1  0
  6  7  1  0
  7  8  2  0
  8  9  1  0
  9 10  2  0
 10 11  1  0
 11 12  1  0
 12 13  1  0
 13 14  2  0
 13 15  1  0
 15 16  1  0
 16 17  2  0
 17 18  1  0
 18 19  2  0
 19 20  1  0
 20 21  2  0
 10 22  1  0
 22 23  2  0
  5 24  1  0
 24 25  2  0
 25 26  1  0
 26 27  2  0
 27 28  1  0
 27 29  1  0
 29 30  2  0
 30  3  1  0
 23  7  1  0
 30 24  1  0
 21 16  1  0
  1 31  1  0
  1 32  1  0
  1 33  1  0
  6 34  1  0
  6 35  1  0
  8 36  1  0
  9 37  1  0
 11 38  1  0
 11 39  1  0
 17 40  1  0
 18 41  1  0
 19 42  1  0
 20 43  1  0
 21 44  1  0
 22 45  1  0
 23 46  1  0
 25 47  1  0
 26 48  1  0
 29 49  1  0
M  CHG  2  12  -1  15  -1
M  END
>  <UniqueID>  (86) 
81

>  <SMILES>  (86) 
COc1nn(Cc2ccc(C[N-]C(=O)[N-]c3ccccc3)cc2)c2ccc(F)cc12

>  <Energy>  (86) 
89.87736980734023

>  <Genealogy>  (86) 
COc1nn(Cc2ccc(C[N-]C(=O)[N-]c3ccccc3)cc2)c2ccc(F)cc12 (protonated)
COc1nn(Cc2ccc(C[N-]C(=O)[N-]c3ccccc3)cc2)c2ccc(F)cc12 (3D coordinates assigned)
COc1nn(Cc2ccc(C[N-]C(=O)[N-]c3ccccc3)cc2)c2ccc(F)cc12 (optimized conformer: 89.87736980734023 kcal/mol)

>  <smiles>  (86) 
COc1nn(Cc2ccc(CNC(=O)Nc3ccccc3)cc2)c2ccc(F)cc12

>  <score_type>  (86) 
oracle

>  <origin>  (86) 
adg

>  <m_score__min__energy>  (86) 
-12.92

>  <m_primary>  (86) 
energy

$$$$
