0:0
     RDKit          3D

 41 43  0  0  0  0  0  0  0  0999 V2000
   54.7830   26.3230   45.9840 O   0  0  0  0  0  0  0  0  0  0  0  0
   56.0280   26.1220   45.9930 C   0  0  0  0  0  0  0  0  0  0  0  0
   56.5540   24.8170   46.2720 N   0  0  0  0  0  0  0  0  0  0  0  0
   56.8650   23.7970   45.3120 C   0  0  0  0  0  0  0  0  0  0  0  0
   58.0010   22.9740   45.4370 C   0  0  0  0  0  0  0  0  0  0  0  0
   58.2540   21.9770   44.4890 C   0  0  0  0  0  0  0  0  0  0  0  0
   57.3720   21.7830   43.4220 C   0  0  0  0  0  0  0  0  0  0  0  0
   56.2310   22.5810   43.3060 C   0  0  0  0  0  0  0  0  0  0  0  0
   55.9750   23.5780   44.2520 C   0  0  0  0  0  0  0  0  0  0  0  0
   56.9620   27.2870   45.8140 C   0  0  1  0  0  0  0  0  0  0  0  0
   58.1790   26.8880   44.9490 C   0  0  0  0  0  0  0  0  0  0  0  0
   57.8000   26.3750   43.5510 C   0  0  0  0  0  0  0  0  0  0  0  0
   57.4450   27.4490   42.7240 O   0  0  0  0  0  0  0  0  0  0  0  0
   56.2340   28.4130   45.2190 N   0  0  0  0  0  0  0  0  0  0  0  0
   56.7150   29.5590   44.8270 C   0  0  0  0  0  0  0  0  0  0  0  0
   57.2380   30.3920   45.7640 N   0  0  0  0  0  0  0  0  0  0  0  0
   57.7550   31.6020   45.4330 C   0  0  0  0  0  0  0  0  0  0  0  0
   58.2830   32.4350   46.4270 C   0  0  0  0  0  0  0  0  0  0  0  0
   58.8140   33.6820   46.0850 C   0  0  0  0  0  0  0  0  0  0  0  0
   58.8190   34.1000   44.7500 C   0  0  0  0  0  0  0  0  0  0  0  0
   58.2940   33.2740   43.7510 C   0  0  0  0  0  0  0  0  0  0  0  0
   57.7570   32.0180   44.0870 C   0  0  0  0  0  0  0  0  0  0  0  0
   57.2190   31.1460   43.1280 C   0  0  0  0  0  0  0  0  0  0  0  0
   57.2000   31.4680   41.9080 O   0  0  0  0  0  0  0  0  0  0  0  0
   56.7130   29.9400   43.5110 N   0  0  0  0  0  0  0  0  0  0  0  0
   58.6909   23.1155   46.2820 H   0  0  0  0  0  0  0  0  0  0  0  0
   59.1489   21.3443   44.5833 H   0  0  0  0  0  0  0  0  0  0  0  0
   57.5761   21.0026   42.6742 H   0  0  0  0  0  0  0  0  0  0  0  0
   55.5337   22.4247   42.4698 H   0  0  0  0  0  0  0  0  0  0  0  0
   55.0686   24.1949   44.1636 H   0  0  0  0  0  0  0  0  0  0  0  0
   57.3455   27.5954   46.7978 H   0  0  0  0  0  0  0  0  0  0  0  0
   58.8262   27.7697   44.8320 H   0  0  0  0  0  0  0  0  0  0  0  0
   58.6863   26.0618   45.4686 H   0  0  0  0  0  0  0  0  0  0  0  0
   58.6590   25.8463   43.1122 H   0  0  0  0  0  0  0  0  0  0  0  0
   56.9440   25.6898   43.6387 H   0  0  0  0  0  0  0  0  0  0  0  0
   56.6670   27.8930   43.1500 H   0  0  0  0  0  0  0  0  0  0  0  0
   58.2799   32.1080   47.4773 H   0  0  0  0  0  0  0  0  0  0  0  0
   59.2285   34.3355   46.8667 H   0  0  0  0  0  0  0  0  0  0  0  0
   59.2375   35.0822   44.4850 H   0  0  0  0  0  0  0  0  0  0  0  0
   58.3010   33.6065   42.7025 H   0  0  0  0  0  0  0  0  0  0  0  0
   56.3320   29.3180   42.7670 H   0  0  0  0  0  0  0  0  0  0  0  0
  1  2  2  0
  2  3  1  0
  3  4  1  0
  4  5  2  0
  5  6  1  0
  6  7  2  0
  7  8  1  0
  8  9  2  0
  2 10  1  0
 10 11  1  0
 11 12  1  0
 12 13  1  0
 10 14  1  0
 14 15  2  3
 15 16  1  0
 16 17  1  0
 17 18  2  0
 18 19  1  0
 19 20  2  0
 20 21  1  0
 21 22  2  0
 22 23  1  0
 23 24  2  0
 23 25  1  0
  9  4  1  0
 25 15  1  0
 22 17  1  0
  5 26  1  0
  6 27  1  0
  7 28  1  0
  8 29  1  0
  9 30  1  0
 10 31  1  1
 11 32  1  0
 11 33  1  0
 12 34  1  0
 12 35  1  0
 13 36  1  0
 18 37  1  0
 19 38  1  0
 20 39  1  0
 21 40  1  0
 25 41  1  0
M  CHG  2   3  -1  16  -1
M  END
>  <UniqueID>  (1) 
1

>  <SMILES>  (1) 
O=C([N-]c1ccccc1)[C@@H](CCO)N=c1[n-]c2ccccc2c(=O)[nH]1

>  <Energy>  (1) 
50.12957422238406

>  <Genealogy>  (1) 
O=C([N-]c1ccccc1)C(CCO)N=c1[n-]c2ccccc2c(=O)[nH]1 (protonated)
O=C([N-]c1ccccc1)[C@@H](CCO)N=c1[n-]c2ccccc2c(=O)[nH]1 (chirality)
O=C([N-]c1ccccc1)[C@@H](CCO)N=c1[n-]c2ccccc2c(=O)[nH]1 (3D coordinates assigned)
O=C([N-]c1ccccc1)[C@@H](CCO)N=c1[n-]c2ccccc2c(=O)[nH]1 (optimized conformer: 50.12957422238406 kcal/mol)

>  <smiles>  (1) 
O=C(Nc1ccccc1)C(CCO)N=c1[nH]c(=O)c2ccccc2[nH]1

>  <score_type>  (1) 
oracle

>  <origin>  (1) 
adg

>  <m_score__min__energy>  (1) 
-11.76

>  <m_primary>  (1) 
energy

$$$$
1:0
     RDKit          3D

 56 58  0  0  0  0  0  0  0  0999 V2000
   56.2450   21.8220   49.1430 C   0  0  0  0  0  0  0  0  0  0  0  0
   57.0300   22.1720   48.0080 O   0  0  0  0  0  0  0  0  0  0  0  0
   56.5620   22.8820   46.8920 C   0  0  0  0  0  0  0  0  0  0  0  0
   56.3360   24.2710   46.9630 C   0  0  0  0  0  0  0  0  0  0  0  0
   55.8560   24.9810   45.8630 C   0  0  0  0  0  0  0  0  0  0  0  0
   55.6500   26.3960   45.9940 N   0  0  0  0  0  0  0  0  0  0  0  0
   56.6690   27.4030   46.0460 C   0  0  0  0  0  0  0  0  0  0  0  0
   57.4040   27.5170   47.0640 O   0  0  0  0  0  0  0  0  0  0  0  0
   56.8660   28.2940   44.8880 C   0  0  0  0  0  0  0  0  0  0  0  0
   57.4400   27.8460   43.8620 O   0  0  0  0  0  0  0  0  0  0  0  0
   56.3570   29.6340   44.8670 N   0  0  0  0  0  0  0  0  0  0  0  0
   57.0660   30.7970   44.4140 C   0  0  0  0  0  0  0  0  0  0  0  0
   57.0930   31.1590   43.0560 C   0  0  0  0  0  0  0  0  0  0  0  0
   57.7790   32.3050   42.6480 C   0  0  0  0  0  0  0  0  0  0  0  0
   58.4310   33.1040   43.5890 C   0  0  0  0  0  0  0  0  0  0  0  0
   58.3930   32.7650   44.9490 C   0  0  0  0  0  0  0  0  0  0  0  0
   59.2240   33.7670   46.1410 S   0  0  0  0  0  0  0  0  0  0  0  0
   58.4210   33.7890   47.4120 O   0  0  0  0  0  0  0  0  0  0  0  0
   59.3180   35.1760   45.6260 O   0  0  0  0  0  0  0  0  0  0  0  0
   60.8280   33.1670   46.4850 N   0  0  0  0  0  0  0  0  0  0  0  0
   60.7740   31.7510   46.8890 C   0  0  0  0  0  0  0  0  0  0  0  0
   62.1370   31.2890   47.4450 C   0  0  0  0  0  0  0  0  0  0  0  0
   63.1530   32.2220   47.1340 O   0  0  0  0  0  0  0  0  0  0  0  0
   62.8970   33.4510   47.7950 C   0  0  0  0  0  0  0  0  0  0  0  0
   61.4670   33.9710   47.5360 C   0  0  0  0  0  0  0  0  0  0  0  0
   57.6950   31.6180   45.3570 C   0  0  0  0  0  0  0  0  0  0  0  0
   55.6410   24.3100   44.6520 C   0  0  0  0  0  0  0  0  0  0  0  0
   55.8580   22.9250   44.5540 C   0  0  0  0  0  0  0  0  0  0  0  0
   55.6360   22.2230   43.3580 O   0  0  0  0  0  0  0  0  0  0  0  0
   56.6460   21.5470   42.6160 C   0  0  0  0  0  0  0  0  0  0  0  0
   56.3100   22.2030   45.6720 C   0  0  0  0  0  0  0  0  0  0  0  0
   56.4930   20.8170   45.4960 O   0  0  0  0  0  0  0  0  0  0  0  0
   57.5290   20.0190   46.0600 C   0  0  0  0  0  0  0  0  0  0  0  0
   56.7980   22.0685   50.0614 H   0  0  0  0  0  0  0  0  0  0  0  0
   55.2995   22.3838   49.1223 H   0  0  0  0  0  0  0  0  0  0  0  0
   56.0310   20.7432   49.1223 H   0  0  0  0  0  0  0  0  0  0  0  0
   56.5418   24.8046   47.9026 H   0  0  0  0  0  0  0  0  0  0  0  0
   56.5722   30.5378   42.3124 H   0  0  0  0  0  0  0  0  0  0  0  0
   57.8057   32.5787   41.5829 H   0  0  0  0  0  0  0  0  0  0  0  0
   58.9760   34.0020   43.2626 H   0  0  0  0  0  0  0  0  0  0  0  0
   60.0061   31.6266   47.6667 H   0  0  0  0  0  0  0  0  0  0  0  0
   60.5272   31.1413   46.0073 H   0  0  0  0  0  0  0  0  0  0  0  0
   62.0641   31.1873   48.5379 H   0  0  0  0  0  0  0  0  0  0  0  0
   62.3945   30.3236   46.9848 H   0  0  0  0  0  0  0  0  0  0  0  0
   63.0291   33.3044   48.8772 H   0  0  0  0  0  0  0  0  0  0  0  0
   63.6022   34.1975   47.4006 H   0  0  0  0  0  0  0  0  0  0  0  0
   60.8779   33.8963   48.4620 H   0  0  0  0  0  0  0  0  0  0  0  0
   61.5154   35.0209   47.2114 H   0  0  0  0  0  0  0  0  0  0  0  0
   57.6418   31.3623   46.4256 H   0  0  0  0  0  0  0  0  0  0  0  0
   55.2994   24.8721   43.7703 H   0  0  0  0  0  0  0  0  0  0  0  0
   57.3552   21.0723   43.3101 H   0  0  0  0  0  0  0  0  0  0  0  0
   56.1820   20.7768   41.9824 H   0  0  0  0  0  0  0  0  0  0  0  0
   57.1811   22.2696   41.9824 H   0  0  0  0  0  0  0  0  0  0  0  0
   57.4703   20.0642   47.1575 H   0  0  0  0  0  0  0  0  0  0  0  0
   57.4103   18.9767   45.7291 H   0  0  0  0  0  0  0  0  0  0  0  0
   58.5065   20.3998   45.7291 H   0  0  0  0  0  0  0  0  0  0  0  0
  1  2  1  0
  2  3  1  0
  3  4  2  0
  4  5  1  0
  5  6  1  0
  6  7  1  0
  7  8  2  0
  7  9  1  0
  9 10  2  0
  9 11  1  0
 11 12  1  0
 12 13  2  0
 13 14  1  0
 14 15  2  0
 15 16  1  0
 16 17  1  0
 17 18  2  0
 17 19  2  0
 17 20  1  0
 20 21  1  0
 21 22  1  0
 22 23  1  0
 23 24  1  0
 24 25  1  0
 16 26  2  0
  5 27  2  0
 27 28  1  0
 28 29  1  0
 29 30  1  0
 28 31  2  0
 31 32  1  0
 32 33  1  0
 31  3  1  0
 26 12  1  0
 25 20  1  0
  1 34  1  0
  1 35  1  0
  1 36  1  0
  4 37  1  0
 13 38  1  0
 14 39  1  0
 15 40  1  0
 21 41  1  0
 21 42  1  0
 22 43  1  0
 22 44  1  0
 24 45  1  0
 24 46  1  0
 25 47  1  0
 25 48  1  0
 26 49  1  0
 27 50  1  0
 30 51  1  0
 30 52  1  0
 30 53  1  0
 33 54  1  0
 33 55  1  0
 33 56  1  0
M  CHG  2   6  -1  11  -1
M  END
>  <UniqueID>  (2) 
2

>  <SMILES>  (2) 
COc1cc([N-]C(=O)C(=O)[N-]c2cccc(S(=O)(=O)N3CCOCC3)c2)cc(OC)c1OC

>  <Energy>  (2) 
73.8270088211984

>  <Genealogy>  (2) 
COc1cc([N-]C(=O)C(=O)[N-]c2cccc(S(=O)(=O)N3CCOCC3)c2)cc(OC)c1OC (protonated)
COc1cc([N-]C(=O)C(=O)[N-]c2cccc(S(=O)(=O)N3CCOCC3)c2)cc(OC)c1OC (3D coordinates assigned)
COc1cc([N-]C(=O)C(=O)[N-]c2cccc(S(=O)(=O)N3CCOCC3)c2)cc(OC)c1OC (nonaromatic ring conformer: 73.8270088211984 kcal/mol)

>  <smiles>  (2) 
COc1cc(NC(=O)C(=O)Nc2cccc(S(=O)(=O)N3CCOCC3)c2)cc(OC)c1OC

>  <score_type>  (2) 
oracle

>  <origin>  (2) 
adg

>  <m_score__min__energy>  (2) 
-12.27

>  <m_primary>  (2) 
energy

$$$$
2:0
     RDKit          3D

 49 51  0  0  0  0  0  0  0  0999 V2000
   56.4390   27.4790   41.9450 H   0  0  0  0  0  0  0  0  0  0  0  0
   57.3960   27.6120   42.2510 O   0  0  0  0  0  0  0  0  0  0  0  0
   57.7810   27.4470   43.5670 N   0  0  0  0  0  0  0  0  0  0  0  0
   58.1840   28.4220   44.3290 C   0  0  0  0  0  0  0  0  0  0  0  0
   58.7430   28.1120   45.6640 C   0  0  0  0  0  0  0  0  0  0  0  0
   58.0970   27.2150   46.5390 C   0  0  0  0  0  0  0  0  0  0  0  0
   56.8770   26.6330   46.1640 O   0  0  0  0  0  0  0  0  0  0  0  0
   56.7090   25.4220   45.4740 C   0  0  0  0  0  0  0  0  0  0  0  0
   55.4200   24.8810   45.4000 C   0  0  0  0  0  0  0  0  0  0  0  0
   54.5830   25.3975   45.8927 H   0  0  0  0  0  0  0  0  0  0  0  0
   55.1870   23.6910   44.7060 C   0  0  0  0  0  0  0  0  0  0  0  0
   54.1704   23.2727   44.6653 H   0  0  0  0  0  0  0  0  0  0  0  0
   56.2380   23.0270   44.0620 C   0  0  0  0  0  0  0  0  0  0  0  0
   55.9530   21.8360   43.3770 O   0  0  0  0  0  0  0  0  0  0  0  0
   56.9380   20.9070   42.9380 C   0  0  0  0  0  0  0  0  0  0  0  0
   57.4244   20.4482   43.8114 H   0  0  0  0  0  0  0  0  0  0  0  0
   56.4592   20.1240   42.3316 H   0  0  0  0  0  0  0  0  0  0  0  0
   57.6916   21.4308   42.3316 H   0  0  0  0  0  0  0  0  0  0  0  0
   57.5320   23.5750   44.1190 C   0  0  0  0  0  0  0  0  0  0  0  0
   58.3648   23.0660   43.6117 H   0  0  0  0  0  0  0  0  0  0  0  0
   57.7650   24.7630   44.8170 C   0  0  0  0  0  0  0  0  0  0  0  0
   58.7799   25.1857   44.8532 H   0  0  0  0  0  0  0  0  0  0  0  0
   58.6380   26.9680   47.7640 N   0  0  0  0  0  0  0  0  0  0  0  0
   59.7990   27.5430   48.1810 C   0  0  0  0  0  0  0  0  0  0  0  0
   60.3320   27.2470   49.4380 O   0  0  0  0  0  0  0  0  0  0  0  0
   60.7670   28.2540   50.3430 C   0  0  0  0  0  0  0  0  0  0  0  0
   60.6174   27.9078   51.3763 H   0  0  0  0  0  0  0  0  0  0  0  0
   61.8345   28.4604   50.1764 H   0  0  0  0  0  0  0  0  0  0  0  0
   60.1855   29.1728   50.1764 H   0  0  0  0  0  0  0  0  0  0  0  0
   60.4630   28.4400   47.3450 C   0  0  0  0  0  0  0  0  0  0  0  0
   61.3992   28.9153   47.6731 H   0  0  0  0  0  0  0  0  0  0  0  0
   59.9300   28.7290   46.0900 C   0  0  0  0  0  0  0  0  0  0  0  0
   60.4421   29.4444   45.4297 H   0  0  0  0  0  0  0  0  0  0  0  0
   58.0850   29.7820   43.8850 N   0  0  0  0  0  0  0  0  0  0  0  0
   58.5660   30.0500   42.9960 H   0  0  0  0  0  0  0  0  0  0  0  0
   57.0420   30.6640   44.4000 C   0  0  0  0  0  0  0  0  0  0  0  0
   56.3798   30.9606   43.5733 H   0  0  0  0  0  0  0  0  0  0  0  0
   56.4730   30.1245   45.1715 H   0  0  0  0  0  0  0  0  0  0  0  0
   57.6420   31.8960   45.0170 C   0  0  0  0  0  0  0  0  0  0  0  0
   57.7130   33.0950   44.2880 C   0  0  0  0  0  0  0  0  0  0  0  0
   57.3332   33.1329   43.2564 H   0  0  0  0  0  0  0  0  0  0  0  0
   58.2650   34.2400   44.8700 C   0  0  0  0  0  0  0  0  0  0  0  0
   58.3140   35.1777   44.2970 H   0  0  0  0  0  0  0  0  0  0  0  0
   58.7550   34.1960   46.1790 C   0  0  0  0  0  0  0  0  0  0  0  0
   59.2860   35.3080   46.7420 F   0  0  0  0  0  0  0  0  0  0  0  0
   58.6790   33.0080   46.9130 C   0  0  0  0  0  0  0  0  0  0  0  0
   59.0611   32.9738   47.9439 H   0  0  0  0  0  0  0  0  0  0  0  0
   58.1180   31.8640   46.3380 C   0  0  0  0  0  0  0  0  0  0  0  0
   58.0491   30.9348   46.9226 H   0  0  0  0  0  0  0  0  0  0  0  0
  1  2  1  0
  2  3  1  0
  3  4  2  0
  4  5  1  0
  5  6  1  0
  6  7  1  0
  7  8  1  0
  8  9  2  0
  9 10  1  0
  9 11  1  0
 11 12  1  0
 11 13  2  0
 13 14  1  0
 14 15  1  0
 15 16  1  0
 15 17  1  0
 15 18  1  0
 13 19  1  0
 19 20  1  0
 19 21  2  0
 21 22  1  0
  6 23  2  0
 23 24  1  0
 24 25  1  0
 25 26  1  0
 26 27  1  0
 26 28  1  0
 26 29  1  0
 24 30  2  0
 30 31  1  0
 30 32  1  0
 32 33  1  0
  4 34  1  0
 34 35  1  0
 34 36  1  0
 36 37  1  0
 36 38  1  0
 36 39  1  0
 39 40  2  0
 40 41  1  0
 40 42  1  0
 42 43  1  0
 42 44  2  0
 44 45  1  0
 44 46  1  0
 46 47  1  0
 46 48  2  0
 48 49  1  0
 32  5  2  0
 48 39  1  0
 21  8  1  0
M  END
>  <UniqueID>  (3) 
3

>  <SMILES>  (3) 
COc1ccc(Oc2nc(OC)ccc2/C(=N/O)NCc2ccc(F)cc2)cc1

>  <Energy>  (3) 
56.83203841706317

>  <Genealogy>  (3) 
COc1ccc(Oc2nc(OC)ccc2/C(=N/O)NCc2ccc(F)cc2)cc1 (cis-trans isomerization)
COc1ccc(Oc2nc(OC)ccc2/C(=N/O)NCc2ccc(F)cc2)cc1 (3D coordinates assigned)
COc1ccc(Oc2nc(OC)ccc2/C(=N/O)NCc2ccc(F)cc2)cc1 (optimized conformer: 56.83203841706317 kcal/mol)

>  <smiles>  (3) 
COc1ccc(Oc2nc(OC)ccc2C(=NO)NCc2ccc(F)cc2)cc1

>  <score_type>  (3) 
oracle

>  <origin>  (3) 
adg

>  <m_score__min__energy>  (3) 
-8.3900000000000006

>  <m_primary>  (3) 
energy

$$$$
3:0
     RDKit          3D

 50 53  0  0  0  0  0  0  0  0999 V2000
   64.5400   32.3300   47.1590 H   0  0  0  0  0  0  0  0  0  0  0  0
   63.7200   32.4690   47.7340 O   0  0  0  0  0  0  0  0  0  0  0  0
   63.8180   32.9640   49.0330 C   0  0  0  0  0  0  0  0  0  0  0  0
   64.9620   33.4270   49.5610 N   0  0  0  0  0  0  0  0  0  0  0  0
   64.5780   33.8320   50.7910 C   0  0  0  0  0  0  0  0  0  0  0  0
   65.3820   34.3370   51.6200 O   0  0  0  0  0  0  0  0  0  0  0  0
   63.2680   33.6560   51.0650 N   0  0  0  0  0  0  0  0  0  0  0  0
   62.7950   33.0730   49.9510 C   0  0  0  0  0  0  0  0  0  0  0  0
   61.3750   32.7660   49.7360 C   0  0  0  0  0  0  0  0  0  0  0  0
   60.9005   32.0625   50.4360 H   0  0  0  0  0  0  0  0  0  0  0  0
   60.6040   33.2730   48.7540 C   0  0  0  0  0  0  0  0  0  0  0  0
   60.9650   34.3970   48.0210 C   0  0  0  0  0  0  0  0  0  0  0  0
   61.8659   35.0114   48.1660 H   0  0  0  0  0  0  0  0  0  0  0  0
   59.9790   34.5960   47.0770 C   0  0  0  0  0  0  0  0  0  0  0  0
   59.9690   35.7020   46.0670 C   0  0  0  0  0  0  0  0  0  0  0  0
   59.9602   36.6720   46.5856 H   0  0  0  0  0  0  0  0  0  0  0  0
   60.8678   35.6312   45.4368 H   0  0  0  0  0  0  0  0  0  0  0  0
   59.0716   35.6150   45.4368 H   0  0  0  0  0  0  0  0  0  0  0  0
   59.0070   33.6740   47.2290 N   0  0  0  0  0  0  0  0  0  0  0  0
   57.8110   33.6030   46.4880 N   0  0  0  0  0  0  0  0  0  0  0  0
   56.9730   34.1200   46.8370 H   0  0  0  0  0  0  0  0  0  0  0  0
   57.7410   32.9340   45.2180 C   0  0  0  0  0  0  0  0  0  0  0  0
   58.3240   33.5270   44.0890 C   0  0  0  0  0  0  0  0  0  0  0  0
   58.8319   34.4982   44.1828 H   0  0  0  0  0  0  0  0  0  0  0  0
   58.2640   32.8920   42.8450 C   0  0  0  0  0  0  0  0  0  0  0  0
   58.7188   33.3668   41.9631 H   0  0  0  0  0  0  0  0  0  0  0  0
   57.6270   31.6550   42.7210 C   0  0  0  0  0  0  0  0  0  0  0  0
   57.5774   31.1593   41.7403 H   0  0  0  0  0  0  0  0  0  0  0  0
   57.0500   31.0430   43.8450 C   0  0  0  0  0  0  0  0  0  0  0  0
   56.2020   29.5060   43.7000 S   0  0  0  0  0  0  0  0  0  0  0  0
   54.8090   29.7060   43.1690 O   0  0  0  0  0  0  0  0  0  0  0  0
   56.9650   28.6170   42.7570 O   0  0  0  0  0  0  0  0  0  0  0  0
   56.1130   28.7460   45.2590 N   0  0  0  0  0  0  0  0  0  0  0  0
   56.8590   27.5850   45.6510 C   0  0  0  0  0  0  0  0  0  0  0  0
   58.2660   27.5770   45.6650 C   0  0  0  0  0  0  0  0  0  0  0  0
   58.8207   28.4854   45.3875 H   0  0  0  0  0  0  0  0  0  0  0  0
   58.9620   26.4230   46.0290 C   0  0  0  0  0  0  0  0  0  0  0  0
   60.0620   26.4248   46.0371 H   0  0  0  0  0  0  0  0  0  0  0  0
   58.2640   25.2660   46.3830 C   0  0  0  0  0  0  0  0  0  0  0  0
   58.8137   24.3560   46.6654 H   0  0  0  0  0  0  0  0  0  0  0  0
   56.8650   25.2660   46.3780 C   0  0  0  0  0  0  0  0  0  0  0  0
   56.3155   24.3561   46.6611 H   0  0  0  0  0  0  0  0  0  0  0  0
   56.1630   26.4200   46.0140 C   0  0  0  0  0  0  0  0  0  0  0  0
   54.7730   26.4030   46.0090 O   0  0  0  0  0  0  0  0  0  0  0  0
   57.1190   31.6790   45.0900 C   0  0  0  0  0  0  0  0  0  0  0  0
   56.6832   31.1933   45.9755 H   0  0  0  0  0  0  0  0  0  0  0  0
   59.3600   32.8550   48.2450 C   0  0  0  0  0  0  0  0  0  0  0  0
   58.5530   31.8940   48.7160 C   0  0  0  0  0  0  0  0  0  0  0  0
   57.6018   31.6767   48.2080 H   0  0  0  0  0  0  0  0  0  0  0  0
   58.8419   31.3227   49.6105 H   0  0  0  0  0  0  0  0  0  0  0  0
  1  2  1  0
  2  3  1  0
  3  4  1  0
  4  5  1  0
  5  6  2  0
  5  7  1  0
  7  8  1  0
  8  9  1  0
  9 10  1  0
  9 11  2  0
 11 12  1  0
 12 13  1  0
 12 14  2  0
 14 15  1  0
 15 16  1  0
 15 17  1  0
 15 18  1  0
 14 19  1  0
 19 20  1  0
 20 21  1  0
 20 22  1  0
 22 23  2  0
 23 24  1  0
 23 25  1  0
 25 26  1  0
 25 27  2  0
 27 28  1  0
 27 29  1  0
 29 30  1  0
 30 31  2  0
 30 32  2  0
 30 33  1  0
 33 34  1  0
 34 35  2  0
 35 36  1  0
 35 37  1  0
 37 38  1  0
 37 39  2  0
 39 40  1  0
 39 41  1  0
 41 42  1  0
 41 43  2  0
 43 44  1  0
 29 45  2  0
 45 46  1  0
 19 47  1  0
 47 48  2  0
 48 49  1  0
 48 50  1  0
  8  3  2  0
 47 11  1  0
 45 22  1  0
 43 34  1  0
M  CHG  4   4  -1   7  -1  33  -1  44  -1
M  END
>  <UniqueID>  (4) 
4

>  <SMILES>  (4) 
C=c1/c(=C\c2[n-]c(=O)[n-]c2O)cc(C)n1Nc1cccc(S(=O)(=O)[N-]c2ccccc2[O-])c1

>  <Energy>  (4) 
130.047376181874

>  <Genealogy>  (4) 
C=c1c(=Cc2[n-]c(=O)[n-]c2O)cc(C)n1Nc1cccc(S(=O)(=O)[N-]c2ccccc2[O-])c1 (protonated)
C=c1/c(=C\c2[n-]c(=O)[n-]c2O)cc(C)n1Nc1cccc(S(=O)(=O)[N-]c2ccccc2[O-])c1 (cis-trans isomerization)
C=c1/c(=C\c2[n-]c(=O)[n-]c2O)cc(C)n1Nc1cccc(S(=O)(=O)[N-]c2ccccc2[O-])c1 (3D coordinates assigned)
C=c1/c(=C\c2[n-]c(=O)[n-]c2O)cc(C)n1Nc1cccc(S(=O)(=O)[N-]c2ccccc2[O-])c1 (optimized conformer: 130.047376181874 kcal/mol)

>  <smiles>  (4) 
C=c1c(=Cc2[nH]c(=O)[nH]c2O)cc(C)n1Nc1cccc(S(=O)(=O)Nc2ccccc2O)c1

>  <score_type>  (4) 
oracle

>  <origin>  (4) 
adg

>  <m_score__min__energy>  (4) 
-17.550000000000001

>  <m_primary>  (4) 
energy

$$$$
4:0
     RDKit          3D

 72 76  0  0  0  0  0  0  0  0999 V2000
   61.2340   34.0380   53.9320 O   0  0  0  0  0  0  0  0  0  0  0  0
   61.7840   33.4310   52.9760 C   0  0  0  0  0  0  0  0  0  0  0  0
   61.3050   32.0870   52.6260 C   0  0  0  0  0  0  0  0  0  0  0  0
   60.0840   31.8630   52.1190 C   0  0  0  0  0  0  0  0  0  0  0  0
   59.8350   30.8740   51.0430 C   0  0  0  0  0  0  0  0  0  0  0  0
   60.7340   29.8090   50.8760 C   0  0  0  0  0  0  0  0  0  0  0  0
   60.5790   28.9070   49.8170 C   0  0  0  0  0  0  0  0  0  0  0  0
   59.5030   29.0360   48.9170 C   0  0  0  0  0  0  0  0  0  0  0  0
   59.3800   28.1610   47.7710 N   0  0  0  0  0  0  0  0  0  0  0  0
   60.5900   27.8030   47.0200 C   0  0  0  0  0  0  0  0  0  0  0  0
   60.3250   26.6330   46.0710 C   0  0  0  0  0  0  0  0  0  0  0  0
   59.1290   26.8680   45.2310 N   0  0  0  0  0  0  0  0  0  0  0  0
   59.3590   27.8470   44.1420 C   0  0  0  0  0  0  0  0  0  0  0  0
   58.3000   28.9230   44.1140 C   0  0  0  0  0  0  0  0  0  0  0  0
   57.1300   28.7410   43.3540 C   0  0  0  0  0  0  0  0  0  0  0  0
   56.1320   29.7200   43.3480 C   0  0  0  0  0  0  0  0  0  0  0  0
   56.2920   30.8850   44.1020 C   0  0  0  0  0  0  0  0  0  0  0  0
   57.4490   31.0740   44.8630 C   0  0  0  0  0  0  0  0  0  0  0  0
   58.4520   30.0990   44.8720 C   0  0  0  0  0  0  0  0  0  0  0  0
   59.5660   30.2940   45.6220 F   0  0  0  0  0  0  0  0  0  0  0  0
   57.9060   27.2000   46.0140 C   0  0  0  0  0  0  0  0  0  0  0  0
   58.1420   27.4090   47.5250 C   0  0  0  0  0  0  0  0  0  0  0  0
   58.5710   30.0710   49.1220 C   0  0  0  0  0  0  0  0  0  0  0  0
   58.7320   30.9760   50.1750 C   0  0  0  0  0  0  0  0  0  0  0  0
   62.8770   34.0330   52.2710 N   0  0  0  0  0  0  0  0  0  0  0  0
   63.2850   33.6930   50.9390 C   0  0  0  0  0  0  0  0  0  0  0  0
   64.5990   33.2630   50.7170 C   0  0  0  0  0  0  0  0  0  0  0  0
   65.0190   32.9110   49.4310 C   0  0  0  0  0  0  0  0  0  0  0  0
   64.1250   32.9680   48.3590 C   0  0  0  0  0  0  0  0  0  0  0  0
   62.7980   33.3660   48.5730 C   0  0  0  0  0  0  0  0  0  0  0  0
   61.6370   33.3730   47.2480 S   0  0  0  0  0  0  0  0  0  0  0  0
   61.0040   32.0110   47.1640 O   0  0  0  0  0  0  0  0  0  0  0  0
   62.3460   33.6680   45.9550 O   0  0  0  0  0  0  0  0  0  0  0  0
   60.4220   34.5950   47.5680 N   0  0  0  0  0  0  0  0  0  0  0  0
   59.8810   35.1720   46.3160 C   0  0  0  0  0  0  0  0  0  0  0  0
   58.5300   34.5510   45.9120 C   0  0  0  0  0  0  0  0  0  0  0  0
   58.4720   33.1970   46.3050 O   0  0  0  0  0  0  0  0  0  0  0  0
   58.4220   33.0920   47.7180 C   0  0  0  0  0  0  0  0  0  0  0  0
   59.3570   34.0860   48.4500 C   0  0  0  0  0  0  0  0  0  0  0  0
   62.3790   33.7190   49.8620 C   0  0  0  0  0  0  0  0  0  0  0  0
   61.9752   31.2296   52.7864 H   0  0  0  0  0  0  0  0  0  0  0  0
   59.2335   32.4357   52.5172 H   0  0  0  0  0  0  0  0  0  0  0  0
   61.5670   29.6823   51.5831 H   0  0  0  0  0  0  0  0  0  0  0  0
   61.3039   28.0900   49.6863 H   0  0  0  0  0  0  0  0  0  0  0  0
   60.9192   28.6735   46.4335 H   0  0  0  0  0  0  0  0  0  0  0  0
   61.3686   27.5016   47.7362 H   0  0  0  0  0  0  0  0  0  0  0  0
   61.1992   26.4998   45.4168 H   0  0  0  0  0  0  0  0  0  0  0  0
   60.1456   25.7335   46.6782 H   0  0  0  0  0  0  0  0  0  0  0  0
   60.3411   28.3194   44.2911 H   0  0  0  0  0  0  0  0  0  0  0  0
   59.3182   27.3059   43.1852 H   0  0  0  0  0  0  0  0  0  0  0  0
   56.9998   27.8235   42.7614 H   0  0  0  0  0  0  0  0  0  0  0  0
   55.2208   29.5729   42.7496 H   0  0  0  0  0  0  0  0  0  0  0  0
   55.5062   31.6548   44.0968 H   0  0  0  0  0  0  0  0  0  0  0  0
   57.5712   31.9920   45.4565 H   0  0  0  0  0  0  0  0  0  0  0  0
   57.4775   28.1261   45.6032 H   0  0  0  0  0  0  0  0  0  0  0  0
   57.2347   26.3334   45.9223 H   0  0  0  0  0  0  0  0  0  0  0  0
   57.2933   27.9674   47.9467 H   0  0  0  0  0  0  0  0  0  0  0  0
   58.2333   26.4224   48.0027 H   0  0  0  0  0  0  0  0  0  0  0  0
   57.7079   30.1684   48.4471 H   0  0  0  0  0  0  0  0  0  0  0  0
   57.9906   31.7744   50.3264 H   0  0  0  0  0  0  0  0  0  0  0  0
   65.3043   33.2019   51.5589 H   0  0  0  0  0  0  0  0  0  0  0  0
   66.0569   32.5880   49.2626 H   0  0  0  0  0  0  0  0  0  0  0  0
   64.4624   32.7005   47.3468 H   0  0  0  0  0  0  0  0  0  0  0  0
   59.7429   36.2540   46.4578 H   0  0  0  0  0  0  0  0  0  0  0  0
   60.6002   34.9564   45.5121 H   0  0  0  0  0  0  0  0  0  0  0  0
   57.7158   35.1054   46.4016 H   0  0  0  0  0  0  0  0  0  0  0  0
   58.4241   34.6093   44.8187 H   0  0  0  0  0  0  0  0  0  0  0  0
   57.3889   33.2828   48.0440 H   0  0  0  0  0  0  0  0  0  0  0  0
   58.7638   32.0791   47.9772 H   0  0  0  0  0  0  0  0  0  0  0  0
   58.7589   34.9356   48.8112 H   0  0  0  0  0  0  0  0  0  0  0  0
   59.8341   33.5513   49.2846 H   0  0  0  0  0  0  0  0  0  0  0  0
   61.3347   34.0186   50.0339 H   0  0  0  0  0  0  0  0  0  0  0  0
  1  2  2  0
  2  3  1  0
  3  4  2  3
  4  5  1  0
  5  6  2  0
  6  7  1  0
  7  8  2  0
  8  9  1  0
  9 10  1  0
 10 11  1  0
 11 12  1  0
 12 13  1  0
 13 14  1  0
 14 15  2  0
 15 16  1  0
 16 17  2  0
 17 18  1  0
 18 19  2  0
 19 20  1  0
 12 21  1  0
 21 22  1  0
  8 23  1  0
 23 24  2  0
  2 25  1  0
 25 26  1  0
 26 27  2  0
 27 28  1  0
 28 29  2  0
 29 30  1  0
 30 31  1  0
 31 32  2  0
 31 33  2  0
 31 34  1  0
 34 35  1  0
 35 36  1  0
 36 37  1  0
 37 38  1  0
 38 39  1  0
 30 40  2  0
 24  5  1  0
 40 26  1  0
 22  9  1  0
 39 34  1  0
 19 14  1  0
  3 41  1  0
  4 42  1  0
  6 43  1  0
  7 44  1  0
 10 45  1  0
 10 46  1  0
 11 47  1  0
 11 48  1  0
 13 49  1  0
 13 50  1  0
 15 51  1  0
 16 52  1  0
 17 53  1  0
 18 54  1  0
 21 55  1  0
 21 56  1  0
 22 57  1  0
 22 58  1  0
 23 59  1  0
 24 60  1  0
 27 61  1  0
 28 62  1  0
 29 63  1  0
 35 64  1  0
 35 65  1  0
 36 66  1  0
 36 67  1  0
 38 68  1  0
 38 69  1  0
 39 70  1  0
 39 71  1  0
 40 72  1  0
M  CHG  1  25  -1
M  END
>  <UniqueID>  (5) 
5

>  <SMILES>  (5) 
O=C(C=Cc1ccc(N2CCN(Cc3ccccc3F)CC2)cc1)[N-]c1cccc(S(=O)(=O)N2CCOCC2)c1

>  <Energy>  (5) 
105.97371140891073

>  <Genealogy>  (5) 
O=C(C=Cc1ccc(N2CCN(Cc3ccccc3F)CC2)cc1)[N-]c1cccc(S(=O)(=O)N2CCOCC2)c1 (protonated)
O=C(C=Cc1ccc(N2CCN(Cc3ccccc3F)CC2)cc1)[N-]c1cccc(S(=O)(=O)N2CCOCC2)c1 (3D coordinates assigned)
O=C(C=Cc1ccc(N2CCN(Cc3ccccc3F)CC2)cc1)[N-]c1cccc(S(=O)(=O)N2CCOCC2)c1 (nonaromatic ring conformer: 105.97371140891073 kcal/mol)

>  <smiles>  (5) 
O=C(C=Cc1ccc(N2CCN(Cc3ccccc3F)CC2)cc1)Nc1cccc(S(=O)(=O)N2CCOCC2)c1

>  <score_type>  (5) 
oracle

>  <origin>  (5) 
adg

>  <m_score__min__energy>  (5) 
-12.24

>  <m_primary>  (5) 
energy

$$$$
5:0
     RDKit          3D

 59 62  0  0  0  0  0  0  0  0999 V2000
   57.0918   30.6976   42.6033 H   0  0  0  0  0  0  0  0  0  0  0  0
   57.4440   31.7370   42.6780 C   0  0  0  0  0  0  0  0  0  0  0  0
   57.3074   32.4262   41.8316 H   0  0  0  0  0  0  0  0  0  0  0  0
   58.0400   32.1640   43.8010 C   0  0  0  0  0  0  0  0  0  0  0  0
   58.4450   33.4580   43.8130 N   0  0  0  0  0  0  0  0  0  0  0  0
   58.8680   34.0800   44.9350 C   0  0  0  0  0  0  0  0  0  0  0  0
   59.2390   35.2840   44.8570 O   0  0  0  0  0  0  0  0  0  0  0  0
   58.8610   33.4230   46.1350 N   0  0  0  0  0  0  0  0  0  0  0  0
   59.2330   34.1350   47.3770 C   0  0  0  0  0  0  0  0  0  0  0  0
   59.0910   35.2160   47.2315 H   0  0  0  0  0  0  0  0  0  0  0  0
   58.5947   33.7771   48.1983 H   0  0  0  0  0  0  0  0  0  0  0  0
   60.6740   33.8660   47.7250 C   0  0  0  0  0  0  0  0  0  0  0  0
   61.2530   34.4520   48.8640 C   0  0  0  0  0  0  0  0  0  0  0  0
   60.6463   35.0958   49.5178 H   0  0  0  0  0  0  0  0  0  0  0  0
   62.5990   34.2190   49.1690 C   0  0  0  0  0  0  0  0  0  0  0  0
   63.0466   34.6767   50.0635 H   0  0  0  0  0  0  0  0  0  0  0  0
   63.3750   33.4060   48.3390 C   0  0  0  0  0  0  0  0  0  0  0  0
   64.4324   33.2234   48.5808 H   0  0  0  0  0  0  0  0  0  0  0  0
   62.8080   32.8250   47.2020 C   0  0  0  0  0  0  0  0  0  0  0  0
   63.4202   32.1866   46.5481 H   0  0  0  0  0  0  0  0  0  0  0  0
   61.4630   33.0540   46.8940 C   0  0  0  0  0  0  0  0  0  0  0  0
   61.0212   32.5960   45.9968 H   0  0  0  0  0  0  0  0  0  0  0  0
   58.4910   32.1000   46.1830 C   0  0  0  0  0  0  0  0  0  0  0  0
   58.4970   31.4960   47.2950 O   0  0  0  0  0  0  0  0  0  0  0  0
   58.1440   31.3950   45.0000 C   0  0  0  0  0  0  0  0  0  0  0  0
   57.9590   30.0480   45.0730 C   0  0  0  0  0  0  0  0  0  0  0  0
   57.0557   29.6394   44.5965 H   0  0  0  0  0  0  0  0  0  0  0  0
   58.8620   29.0890   45.7340 C   0  0  0  0  0  0  0  0  0  0  0  0
   59.6830   27.8550   44.9410 S   0  0  0  0  0  0  0  0  0  0  0  0
   60.3700   27.2450   46.3520 C   0  0  0  0  0  0  0  0  0  0  0  0
   61.0574   26.3891   46.4218 H   0  0  0  0  0  0  0  0  0  0  0  0
   59.9120   28.0180   47.4130 C   0  0  0  0  0  0  0  0  0  0  0  0
   60.3950   27.7190   49.1120 S   0  0  0  0  0  0  0  0  0  0  0  0
   60.6290   29.4850   49.5240 C   0  0  0  0  0  0  0  0  0  0  0  0
   61.3075   29.5638   50.3862 H   0  0  0  0  0  0  0  0  0  0  0  0
   61.0527   29.9909   48.6439 H   0  0  0  0  0  0  0  0  0  0  0  0
   59.3240   30.1500   49.8670 C   0  0  0  0  0  0  0  0  0  0  0  0
   58.2600   29.6130   49.4530 O   0  0  0  0  0  0  0  0  0  0  0  0
   59.2620   31.3780   50.6330 N   0  0  0  0  0  0  0  0  0  0  0  0
   60.4920   32.1250   50.9510 C   0  0  0  0  0  0  0  0  0  0  0  0
   61.1204   31.5105   51.6124 H   0  0  0  0  0  0  0  0  0  0  0  0
   61.0098   32.3473   50.0063 H   0  0  0  0  0  0  0  0  0  0  0  0
   60.1880   33.4550   51.6510 C   0  0  0  0  0  0  0  0  0  0  0  0
   61.1290   33.9002   52.0063 H   0  0  0  0  0  0  0  0  0  0  0  0
   59.6957   34.1291   50.9347 H   0  0  0  0  0  0  0  0  0  0  0  0
   59.2490   33.2320   52.8500 C   0  0  0  0  0  0  0  0  0  0  0  0
   59.7948   32.6209   53.5839 H   0  0  0  0  0  0  0  0  0  0  0  0
   58.8840   34.5750   53.4970 C   0  0  0  0  0  0  0  0  0  0  0  0
   58.9115   34.4740   54.5920 H   0  0  0  0  0  0  0  0  0  0  0  0
   59.6062   35.3424   53.1814 H   0  0  0  0  0  0  0  0  0  0  0  0
   57.8728   34.8713   53.1814 H   0  0  0  0  0  0  0  0  0  0  0  0
   57.9760   32.4240   52.4720 C   0  0  0  0  0  0  0  0  0  0  0  0
   57.9175   31.5420   53.1268 H   0  0  0  0  0  0  0  0  0  0  0  0
   57.1172   33.0995   52.5994 H   0  0  0  0  0  0  0  0  0  0  0  0
   57.9580   31.9460   51.0120 C   0  0  0  0  0  0  0  0  0  0  0  0
   57.1811   31.1763   50.8939 H   0  0  0  0  0  0  0  0  0  0  0  0
   57.7453   32.8070   50.3612 H   0  0  0  0  0  0  0  0  0  0  0  0
   59.0650   29.0240   47.0690 N   0  0  0  0  0  0  0  0  0  0  0  0
   58.6230   29.6680   47.7630 H   0  0  0  0  0  0  0  0  0  0  0  0
  1  2  1  0
  2  3  1  0
  2  4  2  0
  4  5  1  0
  5  6  1  0
  6  7  2  0
  6  8  1  0
  8  9  1  0
  9 10  1  0
  9 11  1  0
  9 12  1  0
 12 13  2  0
 13 14  1  0
 13 15  1  0
 15 16  1  0
 15 17  2  0
 17 18  1  0
 17 19  1  0
 19 20  1  0
 19 21  2  0
 21 22  1  0
  8 23  1  0
 23 24  2  0
 23 25  1  0
 25 26  2  0
 26 27  1  0
 26 28  1  0
 28 29  1  0
 29 30  1  0
 30 31  1  0
 30 32  2  0
 32 33  1  0
 33 34  1  0
 34 35  1  0
 34 36  1  0
 34 37  1  0
 37 38  2  0
 37 39  1  0
 39 40  1  0
 40 41  1  0
 40 42  1  0
 40 43  1  0
 43 44  1  0
 43 45  1  0
 43 46  1  0
 46 47  1  0
 46 48  1  0
 48 49  1  0
 48 50  1  0
 48 51  1  0
 46 52  1  0
 52 53  1  0
 52 54  1  0
 52 55  1  0
 55 56  1  0
 55 57  1  0
 32 58  1  0
 58 59  1  0
 25  4  1  0
 58 28  2  0
 21 12  1  0
 55 39  1  0
M  CHG  2   5  -1  58   1
M  END
>  <UniqueID>  (6) 
6

>  <SMILES>  (6) 
C=c1[n-]c(=O)n(Cc2ccccc2)c(=O)/c1=C/c1[nH+]c(SCC(=O)N2CCC(C)CC2)cs1

>  <Energy>  (6) 
111.11805071115195

>  <Genealogy>  (6) 
C=c1[n-]c(=O)n(Cc2ccccc2)c(=O)c1=Cc1[nH+]c(SCC(=O)N2CCC(C)CC2)cs1 (protonated)
C=c1[n-]c(=O)n(Cc2ccccc2)c(=O)/c1=C/c1[nH+]c(SCC(=O)N2CCC(C)CC2)cs1 (cis-trans isomerization)
C=c1[n-]c(=O)n(Cc2ccccc2)c(=O)/c1=C/c1[nH+]c(SCC(=O)N2CCC(C)CC2)cs1 (3D coordinates assigned)
C=c1[n-]c(=O)n(Cc2ccccc2)c(=O)/c1=C/c1[nH+]c(SCC(=O)N2CCC(C)CC2)cs1 (nonaromatic ring conformer: 111.11805071115195 kcal/mol)

>  <smiles>  (6) 
C=c1[nH]c(=O)n(Cc2ccccc2)c(=O)c1=Cc1nc(SCC(=O)N2CCC(C)CC2)cs1

>  <score_type>  (6) 
oracle

>  <origin>  (6) 
adg

>  <m_score__min__energy>  (6) 
-10.359999999999999

>  <m_primary>  (6) 
energy

$$$$
6:0
     RDKit          3D

 51 54  0  0  0  0  0  0  0  0999 V2000
   51.9860   20.7780   46.0330 N   0  0  0  0  0  0  0  0  0  0  0  0
   52.8130   21.7700   45.9920 C   0  0  0  0  0  0  0  0  0  0  0  0
   52.5400   22.8600   45.2230 N   0  0  0  0  0  0  0  0  0  0  0  0
   53.3990   23.9110   45.1690 C   0  0  0  0  0  0  0  0  0  0  0  0
   54.5820   23.8800   45.9120 C   0  0  0  0  0  0  0  0  0  0  0  0
   55.5080   24.9790   45.8690 C   0  0  0  0  0  0  0  0  0  0  0  0
   56.2850   25.9010   45.8290 C   0  0  0  0  0  0  0  0  0  0  0  0
   57.2090   27.0040   45.7870 C   0  0  0  0  0  0  0  0  0  0  0  0
   58.4710   26.8850   46.3770 C   0  0  0  0  0  0  0  0  0  0  0  0
   59.3640   27.9590   46.3390 C   0  0  0  0  0  0  0  0  0  0  0  0
   59.0000   29.1560   45.7150 C   0  0  0  0  0  0  0  0  0  0  0  0
   59.8810   30.1900   45.7140 F   0  0  0  0  0  0  0  0  0  0  0  0
   57.7270   29.2920   45.1270 C   0  0  0  0  0  0  0  0  0  0  0  0
   57.3280   30.5590   44.4690 C   0  0  0  0  0  0  0  0  0  0  0  0
   57.2110   30.5980   43.2160 O   0  0  0  0  0  0  0  0  0  0  0  0
   57.0070   31.7380   45.2230 N   0  0  0  0  0  0  0  0  0  0  0  0
   57.8920   32.8350   45.4940 C   0  0  0  0  0  0  0  0  0  0  0  0
   58.0270   33.9120   44.6000 C   0  0  0  0  0  0  0  0  0  0  0  0
   58.9000   34.9610   44.8930 C   0  0  0  0  0  0  0  0  0  0  0  0
   59.6290   34.9570   46.0850 C   0  0  0  0  0  0  0  0  0  0  0  0
   59.4770   33.9080   47.0070 C   0  0  0  0  0  0  0  0  0  0  0  0
   60.2530   33.8950   48.2690 C   0  0  0  0  0  0  0  0  0  0  0  0
   59.7290   34.3440   49.3250 O   0  0  0  0  0  0  0  0  0  0  0  0
   61.5830   33.3520   48.3220 N   0  0  0  0  0  0  0  0  0  0  0  0
   62.6160   33.8350   47.3960 C   0  0  0  0  0  0  0  0  0  0  0  0
   63.6650   32.7350   47.1020 C   0  0  0  0  0  0  0  0  0  0  0  0
   63.5350   31.5850   47.9210 O   0  0  0  0  0  0  0  0  0  0  0  0
   63.3770   31.9640   49.2710 C   0  0  0  0  0  0  0  0  0  0  0  0
   61.9730   32.5360   49.4760 C   0  0  0  0  0  0  0  0  0  0  0  0
   58.6050   32.8480   46.7000 C   0  0  0  0  0  0  0  0  0  0  0  0
   56.8420   28.1980   45.1560 C   0  0  0  0  0  0  0  0  0  0  0  0
   54.8460   22.7540   46.6960 C   0  0  0  0  0  0  0  0  0  0  0  0
   53.9580   21.7250   46.7210 N   0  0  0  0  0  0  0  0  0  0  0  0
   51.7860   20.2690   46.9240 H   0  0  0  0  0  0  0  0  0  0  0  0
   53.1640   24.7839   44.5422 H   0  0  0  0  0  0  0  0  0  0  0  0
   58.7608   25.9459   46.8711 H   0  0  0  0  0  0  0  0  0  0  0  0
   60.3572   27.8624   46.8018 H   0  0  0  0  0  0  0  0  0  0  0  0
   57.4434   33.9278   43.6677 H   0  0  0  0  0  0  0  0  0  0  0  0
   59.0144   35.7935   44.1832 H   0  0  0  0  0  0  0  0  0  0  0  0
   60.3258   35.7798   46.3027 H   0  0  0  0  0  0  0  0  0  0  0  0
   62.1386   34.1367   46.4520 H   0  0  0  0  0  0  0  0  0  0  0  0
   63.1291   34.6890   47.8622 H   0  0  0  0  0  0  0  0  0  0  0  0
   63.5583   32.4263   46.0516 H   0  0  0  0  0  0  0  0  0  0  0  0
   64.6526   33.1697   47.3156 H   0  0  0  0  0  0  0  0  0  0  0  0
   63.5133   31.0846   49.9176 H   0  0  0  0  0  0  0  0  0  0  0  0
   64.1263   32.7268   49.5291 H   0  0  0  0  0  0  0  0  0  0  0  0
   61.2577   31.7087   49.5939 H   0  0  0  0  0  0  0  0  0  0  0  0
   61.9714   33.1666   50.3773 H   0  0  0  0  0  0  0  0  0  0  0  0
   58.4815   32.0206   47.4142 H   0  0  0  0  0  0  0  0  0  0  0  0
   55.8543   28.2821   44.6791 H   0  0  0  0  0  0  0  0  0  0  0  0
   55.7695   22.7003   47.2912 H   0  0  0  0  0  0  0  0  0  0  0  0
  1  2  2  3
  2  3  1  0
  3  4  2  0
  4  5  1  0
  5  6  1  0
  6  7  3  0
  7  8  1  0
  8  9  2  0
  9 10  1  0
 10 11  2  0
 11 12  1  0
 11 13  1  0
 13 14  1  0
 14 15  2  0
 14 16  1  0
 16 17  1  0
 17 18  2  0
 18 19  1  0
 19 20  2  0
 20 21  1  0
 21 22  1  0
 22 23  2  0
 22 24  1  0
 24 25  1  0
 25 26  1  0
 26 27  1  0
 27 28  1  0
 28 29  1  0
 21 30  2  0
 13 31  2  0
  5 32  2  0
 32 33  1  0
 33  2  1  0
 31  8  1  0
 30 17  1  0
 29 24  1  0
  1 34  1  0
  4 35  1  0
  9 36  1  0
 10 37  1  0
 18 38  1  0
 19 39  1  0
 20 40  1  0
 25 41  1  0
 25 42  1  0
 26 43  1  0
 26 44  1  0
 28 45  1  0
 28 46  1  0
 29 47  1  0
 29 48  1  0
 30 49  1  0
 31 50  1  0
 32 51  1  0
M  CHG  2  16  -1  33  -1
M  END
>  <UniqueID>  (7) 
7

>  <SMILES>  (7) 
N=c1ncc(C#Cc2ccc(F)c(C(=O)[N-]c3cccc(C(=O)N4CCOCC4)c3)c2)c[n-]1

>  <Energy>  (7) 
70.02000051725518

>  <Genealogy>  (7) 
N=c1ncc(C#Cc2ccc(F)c(C(=O)[N-]c3cccc(C(=O)N4CCOCC4)c3)c2)c[n-]1 (protonated)
N=c1ncc(C#Cc2ccc(F)c(C(=O)[N-]c3cccc(C(=O)N4CCOCC4)c3)c2)c[n-]1 (3D coordinates assigned)
N=c1ncc(C#Cc2ccc(F)c(C(=O)[N-]c3cccc(C(=O)N4CCOCC4)c3)c2)c[n-]1 (nonaromatic ring conformer: 70.02000051725518 kcal/mol)

>  <smiles>  (7) 
N=c1ncc(C#Cc2ccc(F)c(C(=O)Nc3cccc(C(=O)N4CCOCC4)c3)c2)c[nH]1

>  <score_type>  (7) 
oracle

>  <origin>  (7) 
adg

>  <m_score__min__energy>  (7) 
-12.140000000000001

>  <m_primary>  (7) 
energy

$$$$
7:0
     RDKit          3D

 53 56  0  0  0  0  0  0  0  0999 V2000
   55.1590   30.1340   44.5250 O   0  0  0  0  0  0  0  0  0  0  0  0
   56.2650   29.5680   44.7580 C   0  0  0  0  0  0  0  0  0  0  0  0
   57.5440   30.3030   44.5030 C   0  0  0  0  0  0  0  0  0  0  0  0
   57.2910   31.7740   44.1360 C   0  0  0  0  0  0  0  0  0  0  0  0
   58.1350   32.6690   44.9260 N   0  0  0  0  0  0  0  0  0  0  0  0
   57.8270   33.1490   46.2360 C   0  0  0  0  0  0  0  0  0  0  0  0
   56.7780   33.8260   46.3870 O   0  0  0  0  0  0  0  0  0  0  0  0
   58.7380   32.8800   47.3790 C   0  0  0  0  0  0  0  0  0  0  0  0
   58.1780   32.3890   48.5140 N   0  0  0  0  0  0  0  0  0  0  0  0
   58.8720   32.0520   49.5990 N   0  0  0  0  0  0  0  0  0  0  0  0
   58.1470   31.5240   50.7270 C   0  0  0  0  0  0  0  0  0  0  0  0
   57.4080   32.3900   51.5540 C   0  0  0  0  0  0  0  0  0  0  0  0
   56.7180   31.8890   52.6630 C   0  0  0  0  0  0  0  0  0  0  0  0
   56.7690   30.5200   52.9680 C   0  0  0  0  0  0  0  0  0  0  0  0
   56.0790   30.0080   54.0680 O   0  0  0  0  0  0  0  0  0  0  0  0
   57.5200   29.6590   52.1620 C   0  0  0  0  0  0  0  0  0  0  0  0
   58.2090   30.1570   51.0510 C   0  0  0  0  0  0  0  0  0  0  0  0
   60.2360   32.1580   49.6060 C   0  0  0  0  0  0  0  0  0  0  0  0
   60.9010   31.7570   50.6040 O   0  0  0  0  0  0  0  0  0  0  0  0
   60.8970   32.6920   48.4860 C   0  0  0  0  0  0  0  0  0  0  0  0
   62.2980   32.8490   48.4800 C   0  0  0  0  0  0  0  0  0  0  0  0
   62.9440   33.4340   47.3870 C   0  0  0  0  0  0  0  0  0  0  0  0
   62.2030   33.8790   46.2980 C   0  0  0  0  0  0  0  0  0  0  0  0
   60.8130   33.7190   46.2790 C   0  0  0  0  0  0  0  0  0  0  0  0
   60.1410   33.0910   47.3550 C   0  0  0  0  0  0  0  0  0  0  0  0
   56.3020   28.2310   45.2560 N   0  0  0  0  0  0  0  0  0  0  0  0
   57.5170   27.4210   45.3120 C   0  0  0  0  0  0  0  0  0  0  0  0
   58.5470   28.0620   46.2090 C   0  0  0  0  0  0  0  0  0  0  0  0
   58.3500   28.0950   47.6010 C   0  0  0  0  0  0  0  0  0  0  0  0
   59.3200   28.6450   48.4400 C   0  0  0  0  0  0  0  0  0  0  0  0
   60.4940   29.1830   47.8960 C   0  0  0  0  0  0  0  0  0  0  0  0
   61.4360   29.7200   48.7140 F   0  0  0  0  0  0  0  0  0  0  0  0
   60.6830   29.1880   46.5110 C   0  0  0  0  0  0  0  0  0  0  0  0
   59.7150   28.6260   45.6680 C   0  0  0  0  0  0  0  0  0  0  0  0
   58.1647   30.2636   45.4103 H   0  0  0  0  0  0  0  0  0  0  0  0
   58.0534   29.8209   43.6556 H   0  0  0  0  0  0  0  0  0  0  0  0
   57.5130   31.9208   43.0687 H   0  0  0  0  0  0  0  0  0  0  0  0
   56.2380   32.0099   44.3493 H   0  0  0  0  0  0  0  0  0  0  0  0
   57.3727   33.4658   51.3274 H   0  0  0  0  0  0  0  0  0  0  0  0
   56.1333   32.5705   53.2983 H   0  0  0  0  0  0  0  0  0  0  0  0
   56.5500   29.8370   54.9520 H   0  0  0  0  0  0  0  0  0  0  0  0
   57.5692   28.5867   52.4022 H   0  0  0  0  0  0  0  0  0  0  0  0
   58.8036   29.4743   50.4263 H   0  0  0  0  0  0  0  0  0  0  0  0
   62.8883   32.5080   49.3433 H   0  0  0  0  0  0  0  0  0  0  0  0
   64.0387   33.5423   47.3885 H   0  0  0  0  0  0  0  0  0  0  0  0
   62.7112   34.3585   45.4484 H   0  0  0  0  0  0  0  0  0  0  0  0
   60.2356   34.0857   45.4175 H   0  0  0  0  0  0  0  0  0  0  0  0
   57.2680   26.4238   45.7039 H   0  0  0  0  0  0  0  0  0  0  0  0
   57.9342   27.3403   44.2974 H   0  0  0  0  0  0  0  0  0  0  0  0
   57.4248   27.6844   48.0315 H   0  0  0  0  0  0  0  0  0  0  0  0
   59.1630   28.6562   49.5287 H   0  0  0  0  0  0  0  0  0  0  0  0
   61.5927   29.6337   46.0823 H   0  0  0  0  0  0  0  0  0  0  0  0
   59.8699   28.6263   44.5790 H   0  0  0  0  0  0  0  0  0  0  0  0
  1  2  2  0
  2  3  1  0
  3  4  1  0
  4  5  1  0
  5  6  1  0
  6  7  2  0
  6  8  1  0
  8  9  2  0
  9 10  1  0
 10 11  1  0
 11 12  2  0
 12 13  1  0
 13 14  2  0
 14 15  1  0
 14 16  1  0
 16 17  2  0
 10 18  1  0
 18 19  2  0
 18 20  1  0
 20 21  2  0
 21 22  1  0
 22 23  2  0
 23 24  1  0
 24 25  2  0
  2 26  1  0
 26 27  1  0
 27 28  1  0
 28 29  2  0
 29 30  1  0
 30 31  2  0
 31 32  1  0
 31 33  1  0
 33 34  2  0
 25  8  1  0
 34 28  1  0
 17 11  1  0
 25 20  1  0
  3 35  1  0
  3 36  1  0
  4 37  1  0
  4 38  1  0
 12 39  1  0
 13 40  1  0
 15 41  1  0
 16 42  1  0
 17 43  1  0
 21 44  1  0
 22 45  1  0
 23 46  1  0
 24 47  1  0
 27 48  1  0
 27 49  1  0
 29 50  1  0
 30 51  1  0
 33 52  1  0
 34 53  1  0
M  CHG  2   5  -1  26  -1
M  END
>  <UniqueID>  (8) 
8

>  <SMILES>  (8) 
O=C(CC[N-]C(=O)c1nn(-c2ccc(O)cc2)c(=O)c2ccccc12)[N-]Cc1ccc(F)cc1

>  <Energy>  (8) 
70.54511089802895

>  <Genealogy>  (8) 
O=C(CC[N-]C(=O)c1nn(-c2ccc(O)cc2)c(=O)c2ccccc12)[N-]Cc1ccc(F)cc1 (protonated)
O=C(CC[N-]C(=O)c1nn(-c2ccc(O)cc2)c(=O)c2ccccc12)[N-]Cc1ccc(F)cc1 (3D coordinates assigned)
O=C(CC[N-]C(=O)c1nn(-c2ccc(O)cc2)c(=O)c2ccccc12)[N-]Cc1ccc(F)cc1 (optimized conformer: 70.54511089802895 kcal/mol)

>  <smiles>  (8) 
O=C(CCNC(=O)c1nn(-c2ccc(O)cc2)c(=O)c2ccccc12)NCc1ccc(F)cc1

>  <score_type>  (8) 
oracle

>  <origin>  (8) 
adg

>  <m_score__min__energy>  (8) 
-12.76

>  <m_primary>  (8) 
energy

$$$$
8:0
     RDKit          3D

 42 44  0  0  0  0  0  0  0  0999 V2000
   55.1780   28.7660   42.6670 H   0  0  0  0  0  0  0  0  0  0  0  0
   55.5790   29.6940   42.7300 O   0  0  0  0  0  0  0  0  0  0  0  0
   56.4870   30.0410   43.7290 C   0  0  0  0  0  0  0  0  0  0  0  0
   57.4290   31.0430   43.4750 C   0  0  0  0  0  0  0  0  0  0  0  0
   57.4432   31.5456   42.4967 H   0  0  0  0  0  0  0  0  0  0  0  0
   58.3530   31.4090   44.4590 C   0  0  0  0  0  0  0  0  0  0  0  0
   59.0843   32.2049   44.2547 H   0  0  0  0  0  0  0  0  0  0  0  0
   58.3510   30.7650   45.7060 C   0  0  0  0  0  0  0  0  0  0  0  0
   59.3230   31.1820   46.7760 C   0  0  0  0  0  0  0  0  0  0  0  0
   58.7826   31.7292   47.5625 H   0  0  0  0  0  0  0  0  0  0  0  0
   60.0925   31.8262   46.3257 H   0  0  0  0  0  0  0  0  0  0  0  0
   60.0030   29.9550   47.3920 C   0  0  0  0  0  0  0  0  0  0  0  0
   60.5602   29.4196   46.6092 H   0  0  0  0  0  0  0  0  0  0  0  0
   59.2308   29.3017   47.8244 H   0  0  0  0  0  0  0  0  0  0  0  0
   60.9260   30.3550   48.4490 N   0  0  0  0  0  0  0  0  0  0  0  0
   60.7500   30.2020   49.8660 C   0  0  0  0  0  0  0  0  0  0  0  0
   61.7800   30.1090   50.5850 O   0  0  0  0  0  0  0  0  0  0  0  0
   59.4250   30.1410   50.5200 C   0  0  0  0  0  0  0  0  0  0  0  0
   58.9260   29.0750   51.1770 N   0  0  0  0  0  0  0  0  0  0  0  0
   57.7530   29.4150   51.6260 O   0  0  0  0  0  0  0  0  0  0  0  0
   57.4640   30.6520   51.2970 C   0  0  0  0  0  0  0  0  0  0  0  0
   56.2200   31.3540   51.6450 C   0  0  0  0  0  0  0  0  0  0  0  0
   55.9655   32.2886   51.1237 H   0  0  0  0  0  0  0  0  0  0  0  0
   55.3900   30.8800   52.5830 C   0  0  0  0  0  0  0  0  0  0  0  0
   55.8115   30.6255   53.5667 H   0  0  0  0  0  0  0  0  0  0  0  0
   53.9350   30.6780   52.3730 C   0  0  0  0  0  0  0  0  0  0  0  0
   53.2920   29.4540   52.6450 C   0  0  0  0  0  0  0  0  0  0  0  0
   53.8752   28.6020   53.0244 H   0  0  0  0  0  0  0  0  0  0  0  0
   51.9160   29.3170   52.4350 C   0  0  0  0  0  0  0  0  0  0  0  0
   51.4232   28.3554   52.6410 H   0  0  0  0  0  0  0  0  0  0  0  0
   51.1660   30.3960   51.9650 C   0  0  0  0  0  0  0  0  0  0  0  0
   50.0850   30.2826   51.7960 H   0  0  0  0  0  0  0  0  0  0  0  0
   51.7890   31.6210   51.7090 C   0  0  0  0  0  0  0  0  0  0  0  0
   51.0400   32.6980   51.2490 O   0  0  0  0  0  0  0  0  0  0  0  0
   53.1640   31.7630   51.9170 C   0  0  0  0  0  0  0  0  0  0  0  0
   53.6475   32.7317   51.7224 H   0  0  0  0  0  0  0  0  0  0  0  0
   58.5140   31.1790   50.5790 C   0  0  0  0  0  0  0  0  0  0  0  0
   58.6063   32.1888   50.1525 H   0  0  0  0  0  0  0  0  0  0  0  0
   57.3960   29.7680   45.9650 C   0  0  0  0  0  0  0  0  0  0  0  0
   57.3752   29.2723   46.9467 H   0  0  0  0  0  0  0  0  0  0  0  0
   56.4710   29.4020   44.9810 C   0  0  0  0  0  0  0  0  0  0  0  0
   55.5390   28.4080   45.2540 O   0  0  0  0  0  0  0  0  0  0  0  0
  1  2  1  0
  2  3  1  0
  3  4  2  0
  4  5  1  0
  4  6  1  0
  6  7  1  0
  6  8  2  0
  8  9  1  0
  9 10  1  0
  9 11  1  0
  9 12  1  0
 12 13  1  0
 12 14  1  0
 12 15  1  0
 15 16  1  0
 16 17  2  0
 16 18  1  0
 18 19  2  0
 19 20  1  0
 20 21  1  0
 21 22  1  0
 22 23  1  0
 22 24  2  0
 24 25  1  0
 24 26  1  0
 26 27  2  0
 27 28  1  0
 27 29  1  0
 29 30  1  0
 29 31  2  0
 31 32  1  0
 31 33  1  0
 33 34  1  0
 33 35  2  0
 35 36  1  0
 21 37  2  0
 37 38  1  0
  8 39  1  0
 39 40  1  0
 39 41  2  0
 41 42  1  0
 41  3  1  0
 37 18  1  0
 35 26  1  0
M  CHG  3  15  -1  34  -1  42  -1
M  END
>  <UniqueID>  (9) 
9

>  <SMILES>  (9) 
O=C([N-]CCc1ccc(O)c([O-])c1)c1cc(/C=C/c2cccc([O-])c2)on1

>  <Energy>  (9) 
73.60026102555062

>  <Genealogy>  (9) 
O=C([N-]CCc1ccc(O)c([O-])c1)c1cc(C=Cc2cccc([O-])c2)on1 (protonated)
O=C([N-]CCc1ccc(O)c([O-])c1)c1cc(/C=C/c2cccc([O-])c2)on1 (cis-trans isomerization)
O=C([N-]CCc1ccc(O)c([O-])c1)c1cc(/C=C/c2cccc([O-])c2)on1 (3D coordinates assigned)
O=C([N-]CCc1ccc(O)c([O-])c1)c1cc(/C=C/c2cccc([O-])c2)on1 (optimized conformer: 73.60026102555062 kcal/mol)

>  <smiles>  (9) 
O=C(NCCc1ccc(O)c(O)c1)c1cc(C=Cc2cccc(O)c2)on1

>  <score_type>  (9) 
oracle

>  <origin>  (9) 
adg

>  <m_score__min__energy>  (9) 
-16.510000000000002

>  <m_primary>  (9) 
energy

$$$$
9:0
     RDKit          3D

 52 54  0  0  0  0  0  0  0  0999 V2000
   58.1480   27.0230   42.3040 C   0  0  0  0  0  0  0  0  0  0  0  0
   57.9840   27.6510   43.6570 C   0  0  0  0  0  0  0  0  0  0  0  0
   57.7720   29.0310   43.7670 C   0  0  0  0  0  0  0  0  0  0  0  0
   57.6680   29.6160   45.0330 C   0  0  0  0  0  0  0  0  0  0  0  0
   57.4260   31.0610   45.1740 C   0  0  0  0  0  0  0  0  0  0  0  0
   56.3130   31.5170   44.7980 O   0  0  0  0  0  0  0  0  0  0  0  0
   58.4160   31.9480   45.7410 N   0  0  0  0  0  0  0  0  0  0  0  0
   58.6170   33.3200   45.2800 C   0  0  1  0  0  0  0  0  0  0  0  0
   57.4020   34.1990   45.6030 C   0  0  0  0  0  0  0  0  0  0  0  0
   59.8720   33.8230   46.0050 C   0  0  0  0  0  0  0  0  0  0  0  0
   60.5260   32.5910   46.6190 C   0  0  0  0  0  0  0  0  0  0  0  0
   59.4260   31.5360   46.7110 C   0  0  1  0  0  0  0  0  0  0  0  0
   58.8170   31.4740   48.1170 C   0  0  0  0  0  0  0  0  0  0  0  0
   57.7530   28.8100   46.1710 C   0  0  0  0  0  0  0  0  0  0  0  0
   57.9730   27.4330   46.0310 C   0  0  0  0  0  0  0  0  0  0  0  0
   58.0870   26.5660   47.2570 C   0  0  0  0  0  0  0  0  0  0  0  0
   57.1800   25.4650   47.1840 O   0  0  0  0  0  0  0  0  0  0  0  0
   57.1900   24.4560   46.2030 C   0  0  0  0  0  0  0  0  0  0  0  0
   58.3520   23.7000   45.9430 C   0  0  0  0  0  0  0  0  0  0  0  0
   58.3430   22.6910   44.9810 C   0  0  0  0  0  0  0  0  0  0  0  0
   57.1800   22.4170   44.2660 C   0  0  0  0  0  0  0  0  0  0  0  0
   56.0210   23.1540   44.5080 C   0  0  0  0  0  0  0  0  0  0  0  0
   56.0060   24.1830   45.4690 C   0  0  0  0  0  0  0  0  0  0  0  0
   54.7500   24.9560   45.6800 C   0  0  0  0  0  0  0  0  0  0  0  0
   54.7800   26.3470   45.9930 N   0  0  0  0  0  0  0  0  0  0  0  0
   53.6320   24.3840   45.5640 O   0  0  0  0  0  0  0  0  0  0  0  0
   58.1020   26.8910   44.7850 N   0  0  0  0  0  0  0  0  0  0  0  0
   58.4243   25.9648   42.4220 H   0  0  0  0  0  0  0  0  0  0  0  0
   57.2009   27.0950   41.7491 H   0  0  0  0  0  0  0  0  0  0  0  0
   58.9389   27.5488   41.7491 H   0  0  0  0  0  0  0  0  0  0  0  0
   57.6877   29.6514   42.8625 H   0  0  0  0  0  0  0  0  0  0  0  0
   58.7390   33.3616   44.1876 H   0  0  0  0  0  0  0  0  0  0  0  0
   57.2885   34.2811   46.6940 H   0  0  0  0  0  0  0  0  0  0  0  0
   57.5496   35.2008   45.1733 H   0  0  0  0  0  0  0  0  0  0  0  0
   56.4967   33.7454   45.1733 H   0  0  0  0  0  0  0  0  0  0  0  0
   59.5968   34.5413   46.7913 H   0  0  0  0  0  0  0  0  0  0  0  0
   60.5554   34.3398   45.3151 H   0  0  0  0  0  0  0  0  0  0  0  0
   60.9173   32.8243   47.6202 H   0  0  0  0  0  0  0  0  0  0  0  0
   61.3738   32.2391   46.0128 H   0  0  0  0  0  0  0  0  0  0  0  0
   59.8231   30.5313   46.5041 H   0  0  0  0  0  0  0  0  0  0  0  0
   59.6174   31.5555   48.8672 H   0  0  0  0  0  0  0  0  0  0  0  0
   58.1074   32.3046   48.2462 H   0  0  0  0  0  0  0  0  0  0  0  0
   58.2894   30.5175   48.2462 H   0  0  0  0  0  0  0  0  0  0  0  0
   57.6478   29.2540   47.1719 H   0  0  0  0  0  0  0  0  0  0  0  0
   59.1151   26.1822   47.3333 H   0  0  0  0  0  0  0  0  0  0  0  0
   57.8381   27.1706   48.1416 H   0  0  0  0  0  0  0  0  0  0  0  0
   59.2744   23.9086   46.5048 H   0  0  0  0  0  0  0  0  0  0  0  0
   59.2566   22.1101   44.7864 H   0  0  0  0  0  0  0  0  0  0  0  0
   57.1754   21.6184   43.5095 H   0  0  0  0  0  0  0  0  0  0  0  0
   55.1062   22.9284   43.9404 H   0  0  0  0  0  0  0  0  0  0  0  0
   55.4340   26.7210   46.7160 H   0  0  0  0  0  0  0  0  0  0  0  0
   58.2870   25.8660   44.6890 H   0  0  0  0  0  0  0  0  0  0  0  0
  1  2  1  0
  2  3  2  0
  3  4  1  0
  4  5  1  0
  5  6  2  0
  5  7  1  0
  7  8  1  0
  8  9  1  0
  8 10  1  0
 10 11  1  0
 11 12  1  0
 12 13  1  0
  4 14  2  0
 14 15  1  0
 15 16  1  0
 16 17  1  0
 17 18  1  0
 18 19  2  0
 19 20  1  0
 20 21  2  0
 21 22  1  0
 22 23  2  0
 23 24  1  0
 24 25  1  0
 24 26  2  0
 15 27  2  0
 27  2  1  0
 12  7  1  0
 23 18  1  0
  1 28  1  0
  1 29  1  0
  1 30  1  0
  3 31  1  0
  8 32  1  6
  9 33  1  0
  9 34  1  0
  9 35  1  0
 10 36  1  0
 10 37  1  0
 11 38  1  0
 11 39  1  0
 12 40  1  6
 13 41  1  0
 13 42  1  0
 13 43  1  0
 14 44  1  0
 16 45  1  0
 16 46  1  0
 19 47  1  0
 20 48  1  0
 21 49  1  0
 22 50  1  0
 25 51  1  0
 27 52  1  0
M  CHG  2  25  -1  27   1
M  END
>  <UniqueID>  (10) 
10

>  <SMILES>  (10) 
Cc1cc(C(=O)N2[C@H](C)CC[C@@H]2C)cc(COc2ccccc2C([NH-])=O)[nH+]1

>  <Energy>  (10) 
57.14561524144373

>  <Genealogy>  (10) 
Cc1cc(C(=O)N2C(C)CCC2C)cc(COc2ccccc2C([NH-])=O)[nH+]1 (protonated)
Cc1cc(C(=O)N2[C@H](C)CC[C@@H]2C)cc(COc2ccccc2C([NH-])=O)[nH+]1 (chirality)
Cc1cc(C(=O)N2[C@H](C)CC[C@@H]2C)cc(COc2ccccc2C([NH-])=O)[nH+]1 (3D coordinates assigned)
Cc1cc(C(=O)N2[C@H](C)CC[C@@H]2C)cc(COc2ccccc2C([NH-])=O)[nH+]1 (nonaromatic ring conformer: 57.14561524144373 kcal/mol)

>  <smiles>  (10) 
Cc1cc(C(=O)N2C(C)CCC2C)cc(COc2ccccc2C(N)=O)n1

>  <score_type>  (10) 
oracle

>  <origin>  (10) 
adg

>  <m_score__min__energy>  (10) 
-11.02

>  <m_primary>  (10) 
energy

$$$$
10:0
     RDKit          3D

 84 87  0  0  0  0  0  0  0  0999 V2000
   57.3610   33.6080   46.0610 C   0  0  0  0  0  0  0  0  0  0  0  0
   58.5710   34.0770   45.2590 C   0  0  0  0  0  0  0  0  0  0  0  0
   59.5720   34.5940   46.1300 O   0  0  0  0  0  0  0  0  0  0  0  0
   60.4510   33.7870   46.8620 C   0  0  0  0  0  0  0  0  0  0  0  0
   61.5610   33.4380   46.3710 O   0  0  0  0  0  0  0  0  0  0  0  0
   60.1010   33.3970   48.2450 C   0  0  0  0  0  0  0  0  0  0  0  0
   59.9610   34.4330   49.1830 C   0  0  0  0  0  0  0  0  0  0  0  0
   59.3660   34.2080   50.3770 N   0  0  0  0  0  0  0  0  0  0  0  0
   58.8730   32.9910   50.7210 C   0  0  0  0  0  0  0  0  0  0  0  0
   58.2330   32.8320   51.9610 C   0  0  0  0  0  0  0  0  0  0  0  0
   58.1220   33.9470   52.8070 O   0  0  0  0  0  0  0  0  0  0  0  0
   59.1750   34.4550   53.6160 C   0  0  0  0  0  0  0  0  0  0  0  0
   57.7260   31.5690   52.3190 C   0  0  0  0  0  0  0  0  0  0  0  0
   57.8650   30.4820   51.4550 C   0  0  0  0  0  0  0  0  0  0  0  0
   58.5070   30.6370   50.2250 C   0  0  0  0  0  0  0  0  0  0  0  0
   59.0150   31.8940   49.8350 C   0  0  0  0  0  0  0  0  0  0  0  0
   59.7120   32.0750   48.6130 C   0  0  0  0  0  0  0  0  0  0  0  0
   59.9950   31.0080   47.9030 N   0  0  0  0  0  0  0  0  0  0  0  0
   59.1350   30.0010   47.3480 C   0  0  0  0  0  0  0  0  0  0  0  0
   58.3140   30.2780   46.2450 C   0  0  0  0  0  0  0  0  0  0  0  0
   57.5580   29.2610   45.6570 C   0  0  0  0  0  0  0  0  0  0  0  0
   57.6580   27.9460   46.1230 C   0  0  0  0  0  0  0  0  0  0  0  0
   56.9140   26.9200   45.4490 N   0  0  0  0  0  0  0  0  0  0  0  0
   57.6040   25.6640   44.4720 S   0  0  0  0  0  0  0  0  0  0  0  0
   58.7610   25.0660   45.2280 O   0  0  0  0  0  0  0  0  0  0  0  0
   58.1120   26.2470   43.1790 O   0  0  0  0  0  0  0  0  0  0  0  0
   56.3680   24.4050   44.1440 C   0  0  0  0  0  0  0  0  0  0  0  0
   56.9850   23.0910   43.6520 C   0  0  0  0  0  0  0  0  0  0  0  0
   56.9020   21.9520   44.6950 C   0  0  0  0  0  0  0  0  0  0  0  0
   57.8510   22.1690   45.8350 C   0  0  0  0  0  0  0  0  0  0  0  0
   59.0900   22.2520   45.6110 O   0  0  0  0  0  0  0  0  0  0  0  0
   57.3520   22.2440   47.1760 N   0  0  0  0  0  0  0  0  0  0  0  0
   57.0380   23.5030   47.8330 C   0  0  0  0  0  0  0  0  0  0  0  0
   55.7750   24.0980   47.2000 C   0  0  0  0  0  0  0  0  0  0  0  0
   54.5660   23.2620   47.3650 N   0  0  0  0  0  0  0  0  0  0  0  0
   54.4180   22.5910   48.6810 C   0  0  0  0  0  0  0  0  0  0  0  0
   52.9810   22.2070   49.0510 C   0  0  0  0  0  0  0  0  0  0  0  0
   54.1670   22.4950   46.1640 C   0  0  0  0  0  0  0  0  0  0  0  0
   52.8260   22.9700   45.6660 C   0  0  0  0  0  0  0  0  0  0  0  0
   52.6520   24.3030   45.2540 C   0  0  0  0  0  0  0  0  0  0  0  0
   51.4150   24.7320   44.7650 C   0  0  0  0  0  0  0  0  0  0  0  0
   50.3440   23.8400   44.6860 C   0  0  0  0  0  0  0  0  0  0  0  0
   50.5090   22.5130   45.0860 C   0  0  0  0  0  0  0  0  0  0  0  0
   51.7430   22.0750   45.5740 C   0  0  0  0  0  0  0  0  0  0  0  0
   51.8860   20.7480   45.9630 O   0  0  0  0  0  0  0  0  0  0  0  0
   58.5040   27.6600   47.2090 C   0  0  0  0  0  0  0  0  0  0  0  0
   59.2440   28.6830   47.8080 C   0  0  0  0  0  0  0  0  0  0  0  0
   57.5785   33.6923   47.1360 H   0  0  0  0  0  0  0  0  0  0  0  0
   56.4914   34.2342   45.8127 H   0  0  0  0  0  0  0  0  0  0  0  0
   57.1406   32.5593   45.8127 H   0  0  0  0  0  0  0  0  0  0  0  0
   58.9841   33.2274   44.6955 H   0  0  0  0  0  0  0  0  0  0  0  0
   58.2549   34.8711   44.5665 H   0  0  0  0  0  0  0  0  0  0  0  0
   60.3392   35.4380   48.9443 H   0  0  0  0  0  0  0  0  0  0  0  0
   58.9151   34.3296   54.6775 H   0  0  0  0  0  0  0  0  0  0  0  0
   60.1026   33.9053   53.3982 H   0  0  0  0  0  0  0  0  0  0  0  0
   59.3221   35.5232   53.3982 H   0  0  0  0  0  0  0  0  0  0  0  0
   57.2172   31.4378   53.2854 H   0  0  0  0  0  0  0  0  0  0  0  0
   57.4668   29.4983   51.7445 H   0  0  0  0  0  0  0  0  0  0  0  0
   58.6176   29.7720   49.5545 H   0  0  0  0  0  0  0  0  0  0  0  0
   58.2652   31.3001   45.8414 H   0  0  0  0  0  0  0  0  0  0  0  0
   56.8803   29.4957   44.8229 H   0  0  0  0  0  0  0  0  0  0  0  0
   55.8108   24.2075   45.0716 H   0  0  0  0  0  0  0  0  0  0  0  0
   55.7086   24.7830   43.3489 H   0  0  0  0  0  0  0  0  0  0  0  0
   56.4524   22.7730   42.7436 H   0  0  0  0  0  0  0  0  0  0  0  0
   58.0511   23.2818   43.4598 H   0  0  0  0  0  0  0  0  0  0  0  0
   55.8764   21.9052   45.0898 H   0  0  0  0  0  0  0  0  0  0  0  0
   57.1776   21.0113   44.1958 H   0  0  0  0  0  0  0  0  0  0  0  0
   56.8645   23.3259   48.9047 H   0  0  0  0  0  0  0  0  0  0  0  0
   57.8778   24.2032   47.7128 H   0  0  0  0  0  0  0  0  0  0  0  0
   55.5842   25.0769   47.6641 H   0  0  0  0  0  0  0  0  0  0  0  0
   55.9657   24.1705   46.1191 H   0  0  0  0  0  0  0  0  0  0  0  0
   55.0242   21.6732   48.6668 H   0  0  0  0  0  0  0  0  0  0  0  0
   54.7476   23.3185   49.4373 H   0  0  0  0  0  0  0  0  0  0  0  0
   52.8791   22.1798   50.1459 H   0  0  0  0  0  0  0  0  0  0  0  0
   52.2844   22.9505   48.6363 H   0  0  0  0  0  0  0  0  0  0  0  0
   52.7482   21.2151   48.6363 H   0  0  0  0  0  0  0  0  0  0  0  0
   54.9195   22.6383   45.3746 H   0  0  0  0  0  0  0  0  0  0  0  0
   54.0961   21.4289   46.4256 H   0  0  0  0  0  0  0  0  0  0  0  0
   53.4920   25.0104   45.3167 H   0  0  0  0  0  0  0  0  0  0  0  0
   51.2849   25.7753   44.4415 H   0  0  0  0  0  0  0  0  0  0  0  0
   49.3695   24.1832   44.3083 H   0  0  0  0  0  0  0  0  0  0  0  0
   49.6656   21.8102   45.0169 H   0  0  0  0  0  0  0  0  0  0  0  0
   58.5835   26.6302   47.5874 H   0  0  0  0  0  0  0  0  0  0  0  0
   59.9168   28.4512   48.6468 H   0  0  0  0  0  0  0  0  0  0  0  0
  1  2  1  0
  2  3  1  0
  3  4  1  0
  4  5  2  0
  4  6  1  0
  6  7  2  0
  7  8  1  0
  8  9  1  0
  9 10  2  0
 10 11  1  0
 11 12  1  0
 10 13  1  0
 13 14  2  0
 14 15  1  0
 15 16  2  0
 16 17  1  0
 17 18  2  3
 18 19  1  0
 19 20  2  0
 20 21  1  0
 21 22  2  0
 22 23  1  0
 23 24  1  0
 24 25  2  0
 24 26  2  0
 24 27  1  0
 27 28  1  0
 28 29  1  0
 29 30  1  0
 30 31  2  0
 30 32  1  0
 32 33  1  0
 33 34  1  0
 34 35  1  0
 35 36  1  0
 36 37  1  0
 35 38  1  0
 38 39  1  0
 39 40  2  0
 40 41  1  0
 41 42  2  0
 42 43  1  0
 43 44  2  0
 44 45  1  0
 22 46  1  0
 46 47  2  0
 17  6  1  0
 47 19  1  0
 16  9  1  0
 44 39  1  0
  1 48  1  0
  1 49  1  0
  1 50  1  0
  2 51  1  0
  2 52  1  0
  7 53  1  0
 12 54  1  0
 12 55  1  0
 12 56  1  0
 13 57  1  0
 14 58  1  0
 15 59  1  0
 20 60  1  0
 21 61  1  0
 27 62  1  0
 27 63  1  0
 28 64  1  0
 28 65  1  0
 29 66  1  0
 29 67  1  0
 33 68  1  0
 33 69  1  0
 34 70  1  0
 34 71  1  0
 36 72  1  0
 36 73  1  0
 37 74  1  0
 37 75  1  0
 37 76  1  0
 38 77  1  0
 38 78  1  0
 40 79  1  0
 41 80  1  0
 42 81  1  0
 43 82  1  0
 46 83  1  0
 47 84  1  0
M  CHG  4   8  -1  23  -1  32  -1  45  -1
M  END
>  <UniqueID>  (11) 
11

>  <SMILES>  (11) 
CCOC(=O)c1c[n-]c2c(OC)cccc2c1=Nc1ccc([N-]S(=O)(=O)CCCC(=O)[N-]CCN(CC)Cc2ccccc2[O-])cc1

>  <Energy>  (11) 
113.70465144002657

>  <Genealogy>  (11) 
CCOC(=O)c1c[n-]c2c(OC)cccc2c1=Nc1ccc([N-]S(=O)(=O)CCCC(=O)[N-]CCN(CC)Cc2ccccc2[O-])cc1 (protonated)
CCOC(=O)c1c[n-]c2c(OC)cccc2c1=Nc1ccc([N-]S(=O)(=O)CCCC(=O)[N-]CCN(CC)Cc2ccccc2[O-])cc1 (3D coordinates assigned)
CCOC(=O)c1c[n-]c2c(OC)cccc2c1=Nc1ccc([N-]S(=O)(=O)CCCC(=O)[N-]CCN(CC)Cc2ccccc2[O-])cc1 (optimized conformer: 113.70465144002657 kcal/mol)

>  <smiles>  (11) 
CCOC(=O)c1c[nH]c2c(OC)cccc2c1=Nc1ccc(NS(=O)(=O)CCCC(=O)NCCN(CC)Cc2ccccc2O)cc1

>  <score_type>  (11) 
oracle

>  <origin>  (11) 
adg

>  <m_score__min__energy>  (11) 
-18.02

>  <m_primary>  (11) 
energy

$$$$
11:0
     RDKit          3D

 52 55  0  0  0  0  0  0  0  0999 V2000
   59.5910   27.2560   47.8670 C   0  0  0  0  0  0  0  0  0  0  0  0
   58.9910   28.2420   47.1790 C   0  0  0  0  0  0  0  0  0  0  0  0
   58.2940   28.0960   45.9700 C   0  0  0  0  0  0  0  0  0  0  0  0
   57.8610   26.9950   45.3220 C   0  0  0  0  0  0  0  0  0  0  0  0
   57.1950   25.8390   45.9440 C   0  0  0  0  0  0  0  0  0  0  0  0
   57.8310   24.7600   46.4340 N   0  0  0  0  0  0  0  0  0  0  0  0
   56.8400   24.0520   47.0180 C   0  0  0  0  0  0  0  0  0  0  0  0
   57.0390   22.9470   47.5870 O   0  0  0  0  0  0  0  0  0  0  0  0
   55.6190   24.6270   46.9550 N   0  0  0  0  0  0  0  0  0  0  0  0
   55.8660   25.7640   46.2840 C   0  0  0  0  0  0  0  0  0  0  0  0
   54.8980   26.7170   45.9940 O   0  0  0  0  0  0  0  0  0  0  0  0
   58.0480   29.3720   45.5070 C   0  0  0  0  0  0  0  0  0  0  0  0
   58.5220   30.2530   46.4590 C   0  0  0  0  0  0  0  0  0  0  0  0
   58.3670   31.7330   46.3760 C   0  0  0  0  0  0  0  0  0  0  0  0
   57.7770   32.3410   47.3120 O   0  0  0  0  0  0  0  0  0  0  0  0
   58.8780   32.4720   45.2290 N   0  0  0  0  0  0  0  0  0  0  0  0
   57.7710   33.0510   44.4380 C   0  0  0  0  0  0  0  0  0  0  0  0
   57.1060   34.2470   45.1610 C   0  0  0  0  0  0  0  0  0  0  0  0
   57.8040   34.6390   46.3270 O   0  0  0  0  0  0  0  0  0  0  0  0
   59.1670   34.8460   46.0230 C   0  0  0  0  0  0  0  0  0  0  0  0
   59.8540   33.5270   45.5980 C   0  0  0  0  0  0  0  0  0  0  0  0
   59.0970   29.5690   47.4860 N   0  0  0  0  0  0  0  0  0  0  0  0
   59.6260   30.1650   48.7280 C   0  0  0  0  0  0  0  0  0  0  0  0
   60.7060   31.1720   48.4200 C   0  0  0  0  0  0  0  0  0  0  0  0
   61.7470   30.8430   47.5370 C   0  0  0  0  0  0  0  0  0  0  0  0
   62.7420   31.7780   47.2380 C   0  0  0  0  0  0  0  0  0  0  0  0
   62.7120   33.0540   47.8190 C   0  0  0  0  0  0  0  0  0  0  0  0
   63.7630   34.0670   47.4770 C   0  0  0  0  0  0  0  0  0  0  0  0
   61.6530   33.3970   48.6730 C   0  0  0  0  0  0  0  0  0  0  0  0
   60.6580   32.4610   48.9730 C   0  0  0  0  0  0  0  0  0  0  0  0
   60.1128   27.4812   48.8088 H   0  0  0  0  0  0  0  0  0  0  0  0
   59.5604   26.2237   47.4884 H   0  0  0  0  0  0  0  0  0  0  0  0
   58.0194   26.9578   44.2341 H   0  0  0  0  0  0  0  0  0  0  0  0
   57.5640   29.6384   44.5558 H   0  0  0  0  0  0  0  0  0  0  0  0
   59.3920   31.7950   44.6190 H   0  0  0  0  0  0  0  0  0  0  0  0
   58.1675   33.3960   43.4717 H   0  0  0  0  0  0  0  0  0  0  0  0
   57.0081   32.2708   44.2992 H   0  0  0  0  0  0  0  0  0  0  0  0
   57.0709   35.1010   44.4685 H   0  0  0  0  0  0  0  0  0  0  0  0
   56.0987   33.9297   45.4687 H   0  0  0  0  0  0  0  0  0  0  0  0
   59.2445   35.5718   45.2001 H   0  0  0  0  0  0  0  0  0  0  0  0
   59.6704   35.2251   46.9246 H   0  0  0  0  0  0  0  0  0  0  0  0
   60.5000   33.7290   44.7309 H   0  0  0  0  0  0  0  0  0  0  0  0
   60.4343   33.1601   46.4574 H   0  0  0  0  0  0  0  0  0  0  0  0
   58.8073   30.6667   49.2647 H   0  0  0  0  0  0  0  0  0  0  0  0
   60.0560   29.3648   49.3483 H   0  0  0  0  0  0  0  0  0  0  0  0
   61.7796   29.8439   47.0780 H   0  0  0  0  0  0  0  0  0  0  0  0
   63.5525   31.5117   46.5436 H   0  0  0  0  0  0  0  0  0  0  0  0
   64.1904   34.4789   48.4031 H   0  0  0  0  0  0  0  0  0  0  0  0
   64.5582   33.5860   46.8885 H   0  0  0  0  0  0  0  0  0  0  0  0
   63.3116   34.8793   46.8885 H   0  0  0  0  0  0  0  0  0  0  0  0
   61.6051   34.4061   49.1083 H   0  0  0  0  0  0  0  0  0  0  0  0
   59.8330   32.7368   49.6463 H   0  0  0  0  0  0  0  0  0  0  0  0
  1  2  2  0
  2  3  1  0
  3  4  2  3
  4  5  1  0
  5  6  1  0
  6  7  1  0
  7  8  2  0
  7  9  1  0
  9 10  1  0
 10 11  1  0
  3 12  1  0
 12 13  2  0
 13 14  1  0
 14 15  2  0
 14 16  1  0
 16 17  1  0
 17 18  1  0
 18 19  1  0
 19 20  1  0
 20 21  1  0
 13 22  1  0
 22 23  1  0
 23 24  1  0
 24 25  2  0
 25 26  1  0
 26 27  2  0
 27 28  1  0
 27 29  1  0
 29 30  2  0
 22  2  1  0
 30 24  1  0
 10  5  2  0
 21 16  1  0
  1 31  1  0
  1 32  1  0
  4 33  1  0
 12 34  1  0
 16 35  1  0
 17 36  1  0
 17 37  1  0
 18 38  1  0
 18 39  1  0
 20 40  1  0
 20 41  1  0
 21 42  1  0
 21 43  1  0
 23 44  1  0
 23 45  1  0
 25 46  1  0
 26 47  1  0
 28 48  1  0
 28 49  1  0
 28 50  1  0
 29 51  1  0
 30 52  1  0
M  CHG  4   6  -1   9  -1  11  -1  16   1
M  END
>  <UniqueID>  (12) 
12

>  <SMILES>  (12) 
C=c1c(=Cc2[n-]c(=O)[n-]c2[O-])cc(C(=O)[NH+]2CCOCC2)n1Cc1ccc(C)cc1

>  <Energy>  (12) 
139.64606128417904

>  <Genealogy>  (12) 
C=c1c(=Cc2[n-]c(=O)[n-]c2[O-])cc(C(=O)[NH+]2CCOCC2)n1Cc1ccc(C)cc1 (protonated)
C=c1c(=Cc2[n-]c(=O)[n-]c2[O-])cc(C(=O)[NH+]2CCOCC2)n1Cc1ccc(C)cc1 (3D coordinates assigned)
C=c1c(=Cc2[n-]c(=O)[n-]c2[O-])cc(C(=O)[NH+]2CCOCC2)n1Cc1ccc(C)cc1 (nonaromatic ring conformer: 139.64606128417904 kcal/mol)

>  <smiles>  (12) 
C=c1c(=Cc2[nH]c(=O)[nH]c2O)cc(C(=O)N2CCOCC2)n1Cc1ccc(C)cc1

>  <score_type>  (12) 
oracle

>  <origin>  (12) 
adg

>  <m_score__min__energy>  (12) 
-15.210000000000001

>  <m_primary>  (12) 
energy

$$$$
12:0
     RDKit          3D

 45 47  0  0  0  0  0  0  0  0999 V2000
   58.5323   31.7482   51.6450 H   0  0  0  0  0  0  0  0  0  0  0  0
   58.6870   31.4450   50.5990 C   0  0  0  0  0  0  0  0  0  0  0  0
   58.9500   30.1460   50.3010 N   0  0  0  0  0  0  0  0  0  0  0  0
   59.1440   29.7490   49.0180 C   0  0  0  0  0  0  0  0  0  0  0  0
   59.3980   28.5000   48.7660 N   0  0  0  0  0  0  0  0  0  0  0  0
   60.5590   28.0140   48.0180 C   0  0  0  0  0  0  0  0  0  0  0  0
   60.9252   27.0896   48.4886 H   0  0  0  0  0  0  0  0  0  0  0  0
   61.3315   28.7969   48.0355 H   0  0  0  0  0  0  0  0  0  0  0  0
   60.2060   27.7210   46.5530 C   0  0  0  0  0  0  0  0  0  0  0  0
   60.8167   26.8768   46.2004 H   0  0  0  0  0  0  0  0  0  0  0  0
   60.4094   28.6261   45.9619 H   0  0  0  0  0  0  0  0  0  0  0  0
   58.7490   27.3710   46.3940 C   0  0  0  0  0  0  0  0  0  0  0  0
   58.2740   26.1160   46.8030 C   0  0  0  0  0  0  0  0  0  0  0  0
   58.9628   25.3927   47.2639 H   0  0  0  0  0  0  0  0  0  0  0  0
   56.9300   25.7820   46.6270 C   0  0  0  0  0  0  0  0  0  0  0  0
   56.5624   24.7985   46.9549 H   0  0  0  0  0  0  0  0  0  0  0  0
   56.0500   26.6920   46.0360 C   0  0  0  0  0  0  0  0  0  0  0  0
   54.7140   26.3440   45.8680 O   0  0  0  0  0  0  0  0  0  0  0  0
   56.5080   27.9470   45.6120 C   0  0  0  0  0  0  0  0  0  0  0  0
   55.5910   28.8290   45.0190 O   0  0  0  0  0  0  0  0  0  0  0  0
   55.9330   29.8160   44.0500 C   0  0  0  0  0  0  0  0  0  0  0  0
   56.2519   30.7364   44.5610 H   0  0  0  0  0  0  0  0  0  0  0  0
   56.7542   29.4427   43.4205 H   0  0  0  0  0  0  0  0  0  0  0  0
   55.0569   30.0308   43.4205 H   0  0  0  0  0  0  0  0  0  0  0  0
   57.8650   28.2810   45.7910 C   0  0  0  0  0  0  0  0  0  0  0  0
   58.2349   29.2614   45.4562 H   0  0  0  0  0  0  0  0  0  0  0  0
   59.0730   30.6650   48.0130 N   0  0  0  0  0  0  0  0  0  0  0  0
   58.8090   31.9780   48.2560 C   0  0  0  0  0  0  0  0  0  0  0  0
   58.7330   32.9330   47.1190 C   0  0  0  0  0  0  0  0  0  0  0  0
   57.7500   32.7650   46.1230 C   0  0  0  0  0  0  0  0  0  0  0  0
   57.0319   31.9354   46.2016 H   0  0  0  0  0  0  0  0  0  0  0  0
   57.6780   33.6400   45.0380 C   0  0  0  0  0  0  0  0  0  0  0  0
   56.9029   33.5001   44.2701 H   0  0  0  0  0  0  0  0  0  0  0  0
   58.5870   34.6910   44.9260 C   0  0  0  0  0  0  0  0  0  0  0  0
   58.5277   35.3795   44.0701 H   0  0  0  0  0  0  0  0  0  0  0  0
   59.5720   34.8710   45.8980 C   0  0  0  0  0  0  0  0  0  0  0  0
   60.2883   35.7002   45.8014 H   0  0  0  0  0  0  0  0  0  0  0  0
   59.6570   33.9990   47.0030 C   0  0  0  0  0  0  0  0  0  0  0  0
   60.6300   34.1750   48.0010 O   0  0  0  0  0  0  0  0  0  0  0  0
   61.9110   33.5520   48.0050 C   0  0  0  0  0  0  0  0  0  0  0  0
   62.2381   33.3929   49.0431 H   0  0  0  0  0  0  0  0  0  0  0  0
   61.8492   32.5833   47.4875 H   0  0  0  0  0  0  0  0  0  0  0  0
   62.6349   34.1987   47.4875 H   0  0  0  0  0  0  0  0  0  0  0  0
   58.6130   32.3940   49.5810 C   0  0  0  0  0  0  0  0  0  0  0  0
   58.4049   33.4491   49.8123 H   0  0  0  0  0  0  0  0  0  0  0  0
  1  2  1  0
  2  3  1  0
  3  4  1  0
  4  5  2  0
  5  6  1  0
  6  7  1  0
  6  8  1  0
  6  9  1  0
  9 10  1  0
  9 11  1  0
  9 12  1  0
 12 13  2  0
 13 14  1  0
 13 15  1  0
 15 16  1  0
 15 17  2  0
 17 18  1  0
 17 19  1  0
 19 20  1  0
 20 21  1  0
 21 22  1  0
 21 23  1  0
 21 24  1  0
 19 25  2  0
 25 26  1  0
  4 27  1  0
 27 28  2  0
 28 29  1  0
 29 30  2  0
 30 31  1  0
 30 32  1  0
 32 33  1  0
 32 34  2  0
 34 35  1  0
 34 36  1  0
 36 37  1  0
 36 38  2  0
 38 39  1  0
 39 40  1  0
 40 41  1  0
 40 42  1  0
 40 43  1  0
 28 44  1  0
 44 45  1  0
 44  2  2  0
 25 12  1  0
 38 29  1  0
M  CHG  2   3  -1  18  -1
M  END
>  <UniqueID>  (13) 
13

>  <SMILES>  (13) 
COc1cc(CC/N=c2\nc(-c3ccccc3OC)cc[n-]2)ccc1[O-]

>  <Energy>  (13) 
48.91587944714919

>  <Genealogy>  (13) 
COc1cc(CCN=c2nc(-c3ccccc3OC)cc[n-]2)ccc1[O-] (protonated)
COc1cc(CC/N=c2\nc(-c3ccccc3OC)cc[n-]2)ccc1[O-] (cis-trans isomerization)
COc1cc(CC/N=c2\nc(-c3ccccc3OC)cc[n-]2)ccc1[O-] (3D coordinates assigned)
COc1cc(CC/N=c2\nc(-c3ccccc3OC)cc[n-]2)ccc1[O-] (optimized conformer: 48.91587944714919 kcal/mol)

>  <smiles>  (13) 
COc1cc(CCN=c2nc(-c3ccccc3OC)cc[nH]2)ccc1O

>  <score_type>  (13) 
oracle

>  <origin>  (13) 
adg

>  <m_score__min__energy>  (13) 
-12.779999999999999

>  <m_primary>  (13) 
energy

$$$$
13:0
     RDKit          3D

 77 79  0  0  0  0  0  0  0  0999 V2000
   55.0970   22.2320   43.0690 H   0  0  0  0  0  0  0  0  0  0  0  0
   55.9260   22.3330   43.6390 O   0  0  0  0  0  0  0  0  0  0  0  0
   56.1620   23.4450   44.4490 C   0  0  0  0  0  0  0  0  0  0  0  0
   57.4760   23.7010   44.8420 C   0  0  0  0  0  0  0  0  0  0  0  0
   58.2743   23.0054   44.5439 H   0  0  0  0  0  0  0  0  0  0  0  0
   57.7970   24.8290   45.6100 C   0  0  0  0  0  0  0  0  0  0  0  0
   59.2390   25.0670   45.9850 C   0  0  0  0  0  0  0  0  0  0  0  0
   59.3351   25.0829   47.0807 H   0  0  0  0  0  0  0  0  0  0  0  0
   59.8628   24.2597   45.5739 H   0  0  0  0  0  0  0  0  0  0  0  0
   59.5703   26.0320   45.5739 H   0  0  0  0  0  0  0  0  0  0  0  0
   56.7660   25.7110   46.0180 C   0  0  0  0  0  0  0  0  0  0  0  0
   57.0720   26.9460   46.8410 C   0  0  0  0  0  0  0  0  0  0  0  0
   57.4379   26.6425   47.8330 H   0  0  0  0  0  0  0  0  0  0  0  0
   56.1562   27.5453   46.9514 H   0  0  0  0  0  0  0  0  0  0  0  0
   58.1290   27.7730   46.1480 C   0  0  0  0  0  0  0  0  0  0  0  0
   58.1293   27.7472   45.0483 H   0  0  0  0  0  0  0  0  0  0  0  0
   59.0790   28.5450   46.7360 C   0  0  0  0  0  0  0  0  0  0  0  0
   59.3160   28.3850   48.2180 C   0  0  0  0  0  0  0  0  0  0  0  0
   58.5296   28.9159   48.7745 H   0  0  0  0  0  0  0  0  0  0  0  0
   59.2930   27.3169   48.4798 H   0  0  0  0  0  0  0  0  0  0  0  0
   60.2981   28.8056   48.4798 H   0  0  0  0  0  0  0  0  0  0  0  0
   59.9910   29.5100   45.9940 C   0  0  0  0  0  0  0  0  0  0  0  0
   59.7589   29.4715   44.9194 H   0  0  0  0  0  0  0  0  0  0  0  0
   61.0357   29.2145   46.1710 H   0  0  0  0  0  0  0  0  0  0  0  0
   59.7950   30.9330   46.4960 C   0  0  0  0  0  0  0  0  0  0  0  0
   60.3660   31.3050   47.7270 C   0  0  0  0  0  0  0  0  0  0  0  0
   61.2190   30.4200   48.3820 O   0  0  0  0  0  0  0  0  0  0  0  0
   60.1020   32.5640   48.2970 C   0  0  0  0  0  0  0  0  0  0  0  0
   60.6620   32.9220   49.6700 C   0  0  0  0  0  0  0  0  0  0  0  0
   60.1375   33.8226   50.0218 H   0  0  0  0  0  0  0  0  0  0  0  0
   60.5013   32.0309   50.2946 H   0  0  0  0  0  0  0  0  0  0  0  0
   62.2040   33.2090   49.7370 C   0  0  0  0  0  0  0  0  0  0  0  0
   62.4050   34.2400   50.8790 C   0  0  0  0  0  0  0  0  0  0  0  0
   62.3064   33.7344   51.8510 H   0  0  0  0  0  0  0  0  0  0  0  0
   63.4071   34.6864   50.7978 H   0  0  0  0  0  0  0  0  0  0  0  0
   61.6440   35.0301   50.7978 H   0  0  0  0  0  0  0  0  0  0  0  0
   62.9840   31.9110   50.0920 C   0  0  0  0  0  0  0  0  0  0  0  0
   62.6244   31.5425   51.0641 H   0  0  0  0  0  0  0  0  0  0  0  0
   62.8017   31.1896   49.2818 H   0  0  0  0  0  0  0  0  0  0  0  0
   64.5110   32.1210   50.1820 C   0  0  0  0  0  0  0  0  0  0  0  0
   64.7482   32.5214   51.1787 H   0  0  0  0  0  0  0  0  0  0  0  0
   64.9810   31.1434   49.9994 H   0  0  0  0  0  0  0  0  0  0  0  0
   65.0670   33.0930   49.1220 C   0  0  0  0  0  0  0  0  0  0  0  0
   65.2372   34.0717   49.5944 H   0  0  0  0  0  0  0  0  0  0  0  0
   66.0030   32.6661   48.7326 H   0  0  0  0  0  0  0  0  0  0  0  0
   64.1110   33.2760   47.9430 C   0  0  0  0  0  0  0  0  0  0  0  0
   64.5572   33.9850   47.2301 H   0  0  0  0  0  0  0  0  0  0  0  0
   63.9521   32.2923   47.4771 H   0  0  0  0  0  0  0  0  0  0  0  0
   62.7410   33.8180   48.3930 C   0  0  0  0  0  0  0  0  0  0  0  0
   62.8286   34.9070   48.5211 H   0  0  0  0  0  0  0  0  0  0  0  0
   62.0214   33.5307   47.6122 H   0  0  0  0  0  0  0  0  0  0  0  0
   59.3660   33.5090   47.5590 C   0  0  0  0  0  0  0  0  0  0  0  0
   59.1840   34.7900   48.0740 O   0  0  0  0  0  0  0  0  0  0  0  0
   58.8100   33.1740   46.3080 C   0  0  0  0  0  0  0  0  0  0  0  0
   58.0270   34.1990   45.5650 C   0  0  0  0  0  0  0  0  0  0  0  0
   58.6140   35.0740   44.8760 O   0  0  0  0  0  0  0  0  0  0  0  0
   56.6380   34.2140   45.6230 O   0  0  0  0  0  0  0  0  0  0  0  0
   59.0150   31.8770   45.7790 C   0  0  0  0  0  0  0  0  0  0  0  0
   58.4650   31.5280   44.4480 C   0  0  0  0  0  0  0  0  0  0  0  0
   59.1691   31.4359   43.6079 H   0  0  0  0  0  0  0  0  0  0  0  0
   57.1620   31.3170   44.2020 C   0  0  0  0  0  0  0  0  0  0  0  0
   56.5274   32.2032   44.0541 H   0  0  0  0  0  0  0  0  0  0  0  0
   56.5070   29.9910   44.1130 C   0  0  0  0  0  0  0  0  0  0  0  0
   55.5280   29.6900   44.8500 O   0  0  0  0  0  0  0  0  0  0  0  0
   56.9870   28.9980   43.1030 C   0  0  0  0  0  0  0  0  0  0  0  0
   57.4095   28.1239   43.6202 H   0  0  0  0  0  0  0  0  0  0  0  0
   56.1436   28.6790   42.4729 H   0  0  0  0  0  0  0  0  0  0  0  0
   57.7609   29.4607   42.4729 H   0  0  0  0  0  0  0  0  0  0  0  0
   55.4380   25.4550   45.6130 C   0  0  0  0  0  0  0  0  0  0  0  0
   54.4170   26.3280   45.9850 O   0  0  0  0  0  0  0  0  0  0  0  0
   55.1280   24.3180   44.8450 C   0  0  0  0  0  0  0  0  0  0  0  0
   53.7190   24.0530   44.4860 C   0  0  0  0  0  0  0  0  0  0  0  0
   53.4340   23.6860   43.3130 O   0  0  0  0  0  0  0  0  0  0  0  0
   52.6160   24.2480   45.4780 C   0  0  0  0  0  0  0  0  0  0  0  0
   53.0228   24.1761   46.4975 H   0  0  0  0  0  0  0  0  0  0  0  0
   52.1635   25.2401   45.3329 H   0  0  0  0  0  0  0  0  0  0  0  0
   51.8508   23.4712   45.3329 H   0  0  0  0  0  0  0  0  0  0  0  0
  1  2  1  0
  2  3  1  0
  3  4  2  0
  4  5  1  0
  4  6  1  0
  6  7  1  0
  7  8  1  0
  7  9  1  0
  7 10  1  0
  6 11  2  0
 11 12  1  0
 12 13  1  0
 12 14  1  0
 12 15  1  0
 15 16  1  0
 15 17  2  3
 17 18  1  0
 18 19  1  0
 18 20  1  0
 18 21  1  0
 17 22  1  0
 22 23  1  0
 22 24  1  0
 22 25  1  0
 25 26  2  0
 26 27  1  0
 26 28  1  0
 28 29  1  0
 29 30  1  0
 29 31  1  0
 29 32  1  0
 32 33  1  0
 33 34  1  0
 33 35  1  0
 33 36  1  0
 32 37  1  0
 37 38  1  0
 37 39  1  0
 37 40  1  0
 40 41  1  0
 40 42  1  0
 40 43  1  0
 43 44  1  0
 43 45  1  0
 43 46  1  0
 46 47  1  0
 46 48  1  0
 46 49  1  0
 49 50  1  0
 49 51  1  0
 28 52  2  0
 52 53  1  0
 52 54  1  0
 54 55  1  0
 55 56  2  0
 55 57  1  0
 54 58  2  0
 58 59  1  0
 59 60  1  0
 59 61  2  0
 61 62  1  0
 61 63  1  0
 63 64  2  0
 63 65  1  0
 65 66  1  0
 65 67  1  0
 65 68  1  0
 11 69  1  0
 69 70  1  0
 69 71  2  0
 71 72  1  0
 72 73  2  0
 72 74  1  0
 74 75  1  0
 74 76  1  0
 74 77  1  0
 71  3  1  0
 58 25  1  0
 49 32  1  0
M  CHG  4  27  -1  53  -1  57  -1  70  -1
M  END
>  <UniqueID>  (14) 
14

>  <SMILES>  (14) 
CC(=O)/C=C\c1c(CC(C)=CCc2c(C)cc(O)c(C(C)=O)c2[O-])c([O-])c(CC2(C)CCCCC2)c([O-])c1C(=O)[O-]

>  <Energy>  (14) 
110.29478504064042

>  <Genealogy>  (14) 
CC(=O)C=Cc1c(CC(C)=CCc2c(C)cc(O)c(C(C)=O)c2[O-])c([O-])c(CC2(C)CCCCC2)c([O-])c1C(=O)[O-] (protonated)
CC(=O)/C=C\c1c(CC(C)=CCc2c(C)cc(O)c(C(C)=O)c2[O-])c([O-])c(CC2(C)CCCCC2)c([O-])c1C(=O)[O-] (cis-trans isomerization)
CC(=O)/C=C\c1c(CC(C)=CCc2c(C)cc(O)c(C(C)=O)c2[O-])c([O-])c(CC2(C)CCCCC2)c([O-])c1C(=O)[O-] (3D coordinates assigned)
CC(=O)/C=C\c1c(CC(C)=CCc2c(C)cc(O)c(C(C)=O)c2[O-])c([O-])c(CC2(C)CCCCC2)c([O-])c1C(=O)[O-] (nonaromatic ring conformer: 110.29478504064042 kcal/mol)

>  <smiles>  (14) 
CC(=O)C=Cc1c(CC(C)=CCc2c(C)cc(O)c(C(C)=O)c2O)c(O)c(CC2(C)CCCCC2)c(O)c1C(=O)O

>  <score_type>  (14) 
oracle

>  <origin>  (14) 
adg

>  <m_score__min__energy>  (14) 
-18.170000000000002

>  <m_primary>  (14) 
energy

$$$$
14:0
     RDKit          3D

 48 51  0  0  1  0  0  0  0  0999 V2000
   63.8120   31.8790   50.8680 O   0  0  0  0  0  0  0  0  0  0  0  0
   64.0690   32.3940   49.7350 C   0  0  0  0  0  0  0  0  0  0  0  0
   65.3910   32.6850   49.3620 N   0  0  0  0  0  0  0  0  0  0  0  0
   66.5060   32.4110   50.2500 C   0  0  0  0  0  0  0  0  0  0  0  0
   66.5210   33.2650   51.5150 C   0  0  0  0  0  0  0  0  0  0  0  0
   67.5390   33.4560   50.4390 C   0  0  0  0  0  0  0  0  0  0  0  0
   62.9170   32.6520   48.8780 C   0  0  0  0  0  0  0  0  0  0  0  0
   62.5220   31.6820   47.9820 C   0  0  0  0  0  0  0  0  0  0  0  0
   61.4240   31.8860   47.1400 C   0  0  0  0  0  0  0  0  0  0  0  0
   60.7110   33.0550   47.1840 C   0  0  0  0  0  0  0  0  0  0  0  0
   59.5750   33.2160   46.2850 C   0  0  0  0  0  0  0  0  0  0  0  0
   58.6750   32.2150   46.0080 C   0  0  0  0  0  0  0  0  0  0  0  0
   57.6180   32.4160   45.1520 C   0  0  0  0  0  0  0  0  0  0  0  0
   56.7570   31.5070   44.8670 N   0  0  0  0  0  0  0  0  0  0  0  0
   56.9170   30.6920   43.6730 C   0  0  0  0  0  0  0  0  0  0  0  0
   57.0690   29.2170   44.0520 C   0  0  0  0  0  0  0  0  0  0  0  0
   58.2270   29.0290   44.9630 C   0  0  0  0  0  0  0  0  0  0  0  0
   58.0250   28.8400   46.3330 C   0  0  0  0  0  0  0  0  0  0  0  0
   59.1310   28.6700   47.1410 C   0  0  0  0  0  0  0  0  0  0  0  0
   60.3950   28.6790   46.6570 N   0  0  0  0  0  0  0  0  0  0  0  0
   60.6060   28.8600   45.3380 C   0  0  0  0  0  0  0  0  0  0  0  0
   59.5330   29.0310   44.5100 C   0  0  0  0  0  0  0  0  0  0  0  0
   57.4680   33.6200   44.5790 N   0  0  0  0  0  0  0  0  0  0  0  0
   58.3650   34.5820   44.8680 C   0  0  0  0  0  0  0  0  0  0  0  0
   59.3980   34.3990   45.6990 N   0  0  0  0  0  0  0  0  0  0  0  0
   61.1150   34.0160   48.0820 C   0  0  0  0  0  0  0  0  0  0  0  0
   62.1960   33.8260   48.9180 C   0  0  0  0  0  0  0  0  0  0  0  0
   65.5990   33.1070   48.4350 H   0  0  0  0  0  0  0  0  0  0  0  0
   66.5509   31.3415   49.9965 H   0  0  0  0  0  0  0  0  0  0  0  0
   65.7414   34.0232   51.6802 H   0  0  0  0  0  0  0  0  0  0  0  0
   66.5496   33.0658   52.5964 H   0  0  0  0  0  0  0  0  0  0  0  0
   67.5143   34.3652   49.8203 H   0  0  0  0  0  0  0  0  0  0  0  0
   68.6387   33.4613   50.4151 H   0  0  0  0  0  0  0  0  0  0  0  0
   63.0780   30.7344   47.9284 H   0  0  0  0  0  0  0  0  0  0  0  0
   61.1289   31.0969   46.4327 H   0  0  0  0  0  0  0  0  0  0  0  0
   58.8032   31.2306   46.4819 H   0  0  0  0  0  0  0  0  0  0  0  0
   56.0322   30.8121   43.0306 H   0  0  0  0  0  0  0  0  0  0  0  0
   57.8201   31.0180   43.1361 H   0  0  0  0  0  0  0  0  0  0  0  0
   56.1527   28.8770   44.5568 H   0  0  0  0  0  0  0  0  0  0  0  0
   57.2385   28.6309   43.1367 H   0  0  0  0  0  0  0  0  0  0  0  0
   57.0100   28.8271   46.7567 H   0  0  0  0  0  0  0  0  0  0  0  0
   58.9793   28.5214   48.2203 H   0  0  0  0  0  0  0  0  0  0  0  0
   61.6289   28.8699   44.9336 H   0  0  0  0  0  0  0  0  0  0  0  0
   59.7164   29.1767   43.4352 H   0  0  0  0  0  0  0  0  0  0  0  0
   56.6690   33.8060   43.9180 H   0  0  0  0  0  0  0  0  0  0  0  0
   58.2424   35.5685   44.3970 H   0  0  0  0  0  0  0  0  0  0  0  0
   60.5596   34.9640   48.1350 H   0  0  0  0  0  0  0  0  0  0  0  0
   62.4852   34.6191   49.6232 H   0  0  0  0  0  0  0  0  0  0  0  0
  1  2  2  0
  2  3  1  0
  3  4  1  0
  4  5  1  0
  5  6  1  0
  2  7  1  0
  7  8  2  0
  8  9  1  0
  9 10  2  0
 10 11  1  0
 11 12  2  0
 12 13  1  0
 13 14  2  0
 14 15  1  0
 15 16  1  0
 16 17  1  0
 17 18  2  0
 18 19  1  0
 19 20  2  0
 20 21  1  0
 21 22  2  0
 13 23  1  0
 23 24  1  0
 24 25  2  0
 10 26  1  0
 26 27  2  0
  6  4  1  0
 27  7  1  0
 25 11  1  0
 22 17  1  0
  3 28  1  0
  4 29  1  0
  5 30  1  0
  5 31  1  0
  6 32  1  0
  6 33  1  0
  8 34  1  0
  9 35  1  0
 12 36  1  0
 15 37  1  0
 15 38  1  0
 16 39  1  0
 16 40  1  0
 18 41  1  0
 19 42  1  0
 21 43  1  0
 22 44  1  0
 23 45  1  0
 24 46  1  0
 26 47  1  0
 27 48  1  0
M  END
>  <smiles>  (15) 
O=C(NC1CC1)c1ccc(-c2cc(=NCCc3ccncc3)[nH]cn2)cc1

>  <score_type>  (15) 
oracle

>  <origin>  (15) 
adg

>  <m_score__min__energy>  (15) 
-8.1999999999999993

>  <m_primary>  (15) 
energy

$$$$
15:0
     RDKit          3D

 62 65  0  0  0  0  0  0  0  0999 V2000
   57.6970   25.6900   43.4120 C   0  0  0  0  0  0  0  0  0  0  0  0
   57.8950   26.0040   44.7040 C   0  0  0  0  0  0  0  0  0  0  0  0
   57.4580   25.2650   45.8170 C   0  0  0  0  0  0  0  0  0  0  0  0
   56.6100   24.2220   45.9140 C   0  0  0  0  0  0  0  0  0  0  0  0
   55.1610   24.2680   45.6590 C   0  0  0  0  0  0  0  0  0  0  0  0
   54.4250   23.2260   45.2280 N   0  0  0  0  0  0  0  0  0  0  0  0
   53.2090   23.7740   45.0110 C   0  0  0  0  0  0  0  0  0  0  0  0
   52.2250   23.1000   44.6090 O   0  0  0  0  0  0  0  0  0  0  0  0
   53.1340   25.1010   45.2500 N   0  0  0  0  0  0  0  0  0  0  0  0
   54.3820   25.3990   45.6460 C   0  0  0  0  0  0  0  0  0  0  0  0
   54.8000   26.6790   45.9880 O   0  0  0  0  0  0  0  0  0  0  0  0
   58.0600   25.8380   46.9230 C   0  0  0  0  0  0  0  0  0  0  0  0
   58.7720   26.9280   46.4720 C   0  0  0  0  0  0  0  0  0  0  0  0
   59.5460   27.8580   47.3570 C   0  0  0  0  0  0  0  0  0  0  0  0
   58.6810   27.0350   45.1260 N   0  0  0  0  0  0  0  0  0  0  0  0
   59.3520   28.0710   44.3210 C   0  0  0  0  0  0  0  0  0  0  0  0
   58.9160   29.4600   44.7470 C   0  0  0  0  0  0  0  0  0  0  0  0
   59.7440   30.1890   45.6190 C   0  0  0  0  0  0  0  0  0  0  0  0
   59.3760   31.4580   46.0640 C   0  0  0  0  0  0  0  0  0  0  0  0
   58.1640   32.0350   45.6620 C   0  0  0  0  0  0  0  0  0  0  0  0
   57.7860   33.3810   46.1740 C   0  0  0  0  0  0  0  0  0  0  0  0
   56.6700   33.8650   45.8320 O   0  0  0  0  0  0  0  0  0  0  0  0
   58.6710   34.1620   47.0210 N   0  0  2  0  0  0  0  0  0  0  0  0
   59.8620   34.6330   46.2450 C   0  0  0  0  0  0  0  0  0  0  0  0
   61.1390   33.8350   46.5470 C   0  0  0  0  0  0  0  0  0  0  0  0
   61.4180   33.9110   47.9810 N   0  0  0  0  0  0  0  0  0  0  0  0
   62.7600   34.2220   48.4890 C   0  0  0  0  0  0  0  0  0  0  0  0
   63.7050   33.0320   48.3030 C   0  0  0  0  0  0  0  0  0  0  0  0
   63.7780   32.6660   46.9520 O   0  0  0  0  0  0  0  0  0  0  0  0
   60.2960   33.7600   48.8590 C   0  0  0  0  0  0  0  0  0  0  0  0
   60.4200   33.9000   50.1060 O   0  0  0  0  0  0  0  0  0  0  0  0
   58.9700   33.3900   48.2630 C   0  0  0  0  0  0  0  0  0  0  0  0
   57.3150   31.3020   44.8140 C   0  0  0  0  0  0  0  0  0  0  0  0
   57.6720   30.0200   44.3570 C   0  0  0  0  0  0  0  0  0  0  0  0
   56.7050   29.2730   43.4740 C   0  0  0  0  0  0  0  0  0  0  0  0
   58.0868   26.3468   42.6204 H   0  0  0  0  0  0  0  0  0  0  0  0
   57.1452   24.7762   43.1464 H   0  0  0  0  0  0  0  0  0  0  0  0
   57.0377   23.2525   46.2093 H   0  0  0  0  0  0  0  0  0  0  0  0
   57.9846   25.4899   47.9637 H   0  0  0  0  0  0  0  0  0  0  0  0
   59.3437   27.6149   48.4105 H   0  0  0  0  0  0  0  0  0  0  0  0
   60.6215   27.7462   47.1549 H   0  0  0  0  0  0  0  0  0  0  0  0
   59.2408   28.8953   47.1549 H   0  0  0  0  0  0  0  0  0  0  0  0
   60.4403   27.9797   44.4527 H   0  0  0  0  0  0  0  0  0  0  0  0
   59.0772   27.9265   43.2657 H   0  0  0  0  0  0  0  0  0  0  0  0
   60.6958   29.7517   45.9549 H   0  0  0  0  0  0  0  0  0  0  0  0
   60.0449   32.0127   46.7385 H   0  0  0  0  0  0  0  0  0  0  0  0
   58.1680   35.0330   47.3080 H   0  0  0  0  0  0  0  0  0  0  0  0
   59.6382   34.5406   45.1720 H   0  0  0  0  0  0  0  0  0  0  0  0
   60.0519   35.6753   46.5409 H   0  0  0  0  0  0  0  0  0  0  0  0
   60.9958   32.7845   46.2540 H   0  0  0  0  0  0  0  0  0  0  0  0
   61.9833   34.2549   45.9806 H   0  0  0  0  0  0  0  0  0  0  0  0
   63.1601   35.0884   47.9419 H   0  0  0  0  0  0  0  0  0  0  0  0
   62.6854   34.4464   49.5633 H   0  0  0  0  0  0  0  0  0  0  0  0
   64.7089   33.3089   48.6572 H   0  0  0  0  0  0  0  0  0  0  0  0
   63.3192   32.1793   48.8809 H   0  0  0  0  0  0  0  0  0  0  0  0
   64.7170   32.3940   46.7790 H   0  0  0  0  0  0  0  0  0  0  0  0
   58.9789   32.3174   48.0191 H   0  0  0  0  0  0  0  0  0  0  0  0
   58.1910   33.6279   49.0023 H   0  0  0  0  0  0  0  0  0  0  0  0
   56.3547   31.7386   44.5023 H   0  0  0  0  0  0  0  0  0  0  0  0
   55.9891   28.7200   44.0998 H   0  0  0  0  0  0  0  0  0  0  0  0
   56.1611   29.9878   42.8389 H   0  0  0  0  0  0  0  0  0  0  0  0
   57.2592   28.5662   42.8389 H   0  0  0  0  0  0  0  0  0  0  0  0
  1  2  2  0
  2  3  1  0
  3  4  2  3
  4  5  1  0
  5  6  1  0
  6  7  1  0
  7  8  2  0
  7  9  1  0
  9 10  1  0
 10 11  1  0
  3 12  1  0
 12 13  2  0
 13 14  1  0
 13 15  1  0
 15 16  1  0
 16 17  1  0
 17 18  2  0
 18 19  1  0
 19 20  2  0
 20 21  1  0
 21 22  2  0
 21 23  1  0
 23 24  1  0
 24 25  1  0
 25 26  1  0
 26 27  1  0
 27 28  1  0
 28 29  1  0
 26 30  1  0
 30 31  2  0
 30 32  1  0
 20 33  1  0
 33 34  2  0
 34 35  1  0
 15  2  1  0
 34 17  1  0
 10  5  2  0
 32 23  1  0
  1 36  1  0
  1 37  1  0
  4 38  1  0
 12 39  1  0
 14 40  1  0
 14 41  1  0
 14 42  1  0
 16 43  1  0
 16 44  1  0
 18 45  1  0
 19 46  1  0
 23 47  1  1
 24 48  1  0
 24 49  1  0
 25 50  1  0
 25 51  1  0
 27 52  1  0
 27 53  1  0
 28 54  1  0
 28 55  1  0
 29 56  1  0
 32 57  1  0
 32 58  1  0
 33 59  1  0
 35 60  1  0
 35 61  1  0
 35 62  1  0
M  CHG  4   6  -1   9  -1  11  -1  23   1
M  END
>  <UniqueID>  (16) 
15

>  <SMILES>  (16) 
C=c1c(=Cc2[n-]c(=O)[n-]c2[O-])cc(C)n1Cc1ccc(C(=O)[N@@H+]2CCN(CCO)C(=O)C2)cc1C

>  <Energy>  (16) 
145.87390276346989

>  <Genealogy>  (16) 
C=c1c(=Cc2[n-]c(=O)[n-]c2[O-])cc(C)n1Cc1ccc(C(=O)[NH+]2CCN(CCO)C(=O)C2)cc1C (protonated)
C=c1c(=Cc2[n-]c(=O)[n-]c2[O-])cc(C)n1Cc1ccc(C(=O)[N@@H+]2CCN(CCO)C(=O)C2)cc1C (chirality)
C=c1c(=Cc2[n-]c(=O)[n-]c2[O-])cc(C)n1Cc1ccc(C(=O)[N@@H+]2CCN(CCO)C(=O)C2)cc1C (3D coordinates assigned)
C=c1c(=Cc2[n-]c(=O)[n-]c2[O-])cc(C)n1Cc1ccc(C(=O)[N@@H+]2CCN(CCO)C(=O)C2)cc1C (nonaromatic ring conformer: 145.87390276346989 kcal/mol)

>  <smiles>  (16) 
C=c1c(=Cc2[nH]c(=O)[nH]c2O)cc(C)n1Cc1ccc(C(=O)N2CCN(CCO)C(=O)C2)cc1C

>  <score_type>  (16) 
oracle

>  <origin>  (16) 
adg

>  <m_score__min__energy>  (16) 
-16.870000000000001

>  <m_primary>  (16) 
energy

$$$$
16:0
     RDKit          3D

 49 52  0  0  0  0  0  0  0  0999 V2000
   57.0230   28.6720   42.5510 O   0  0  0  0  0  0  0  0  0  0  0  0
   56.8490   29.5270   43.4600 C   0  0  0  0  0  0  0  0  0  0  0  0
   56.1110   29.1330   44.7150 C   0  0  0  0  0  0  0  0  0  0  0  0
   56.7790   27.9850   45.4130 C   0  0  0  0  0  0  0  0  0  0  0  0
   58.4450   27.8260   45.6330 S   0  0  0  0  0  0  0  0  0  0  0  0
   58.2810   26.3760   46.4650 C   0  0  0  0  0  0  0  0  0  0  0  0
   59.2430   25.7120   46.9300 O   0  0  0  0  0  0  0  0  0  0  0  0
   56.9940   25.9900   46.5900 N   0  0  0  0  0  0  0  0  0  0  0  0
   56.1570   26.8850   46.0040 C   0  0  0  0  0  0  0  0  0  0  0  0
   54.7800   26.6930   45.9960 O   0  0  0  0  0  0  0  0  0  0  0  0
   57.2020   30.8910   43.1920 N   0  0  0  0  0  0  0  0  0  0  0  0
   57.8550   31.7910   44.0960 C   0  0  0  0  0  0  0  0  0  0  0  0
   58.1300   31.3670   45.4000 C   0  0  0  0  0  0  0  0  0  0  0  0
   58.7390   32.2360   46.3120 C   0  0  0  0  0  0  0  0  0  0  0  0
   59.0550   33.5520   45.9370 C   0  0  0  0  0  0  0  0  0  0  0  0
   59.7160   34.4600   46.9000 C   0  0  0  0  0  0  0  0  0  0  0  0
   59.2160   35.5980   47.1130 O   0  0  0  0  0  0  0  0  0  0  0  0
   60.9180   34.0760   47.5950 N   0  0  0  0  0  0  0  0  0  0  0  0
   62.0120   33.4300   46.8500 C   0  0  0  0  0  0  0  0  0  0  0  0
   63.3510   33.5680   47.5810 C   0  0  0  0  0  0  0  0  0  0  0  0
   63.2100   33.1820   48.9940 N   0  0  0  0  0  0  0  0  0  0  0  0
   64.3050   32.5240   49.6720 C   0  0  0  0  0  0  0  0  0  0  0  0
   64.0920   31.3990   50.4930 C   0  0  0  0  0  0  0  0  0  0  0  0
   65.1770   30.7930   51.1320 C   0  0  0  0  0  0  0  0  0  0  0  0
   66.4630   31.3020   50.9500 C   0  0  0  0  0  0  0  0  0  0  0  0
   66.6450   32.4150   50.1290 C   0  0  0  0  0  0  0  0  0  0  0  0
   65.5780   32.9930   49.5190 N   0  0  0  0  0  0  0  0  0  0  0  0
   62.0160   33.6040   49.7470 C   0  0  0  0  0  0  0  0  0  0  0  0
   61.1550   34.5880   48.9480 C   0  0  0  0  0  0  0  0  0  0  0  0
   58.7650   33.9780   44.6290 C   0  0  0  0  0  0  0  0  0  0  0  0
   58.1530   33.1090   43.7220 C   0  0  0  0  0  0  0  0  0  0  0  0
   56.0804   29.9958   45.3966 H   0  0  0  0  0  0  0  0  0  0  0  0
   55.0955   28.8188   44.4319 H   0  0  0  0  0  0  0  0  0  0  0  0
   57.8662   30.3452   45.7103 H   0  0  0  0  0  0  0  0  0  0  0  0
   58.9716   31.8864   47.3287 H   0  0  0  0  0  0  0  0  0  0  0  0
   61.7796   32.3616   46.7296 H   0  0  0  0  0  0  0  0  0  0  0  0
   62.1015   33.9255   45.8720 H   0  0  0  0  0  0  0  0  0  0  0  0
   64.0947   32.9155   47.1002 H   0  0  0  0  0  0  0  0  0  0  0  0
   63.6772   34.6173   47.5301 H   0  0  0  0  0  0  0  0  0  0  0  0
   63.0763   30.9995   50.6304 H   0  0  0  0  0  0  0  0  0  0  0  0
   65.0174   29.9165   51.7771 H   0  0  0  0  0  0  0  0  0  0  0  0
   67.3234   30.8312   51.4480 H   0  0  0  0  0  0  0  0  0  0  0  0
   67.6541   32.8251   49.9754 H   0  0  0  0  0  0  0  0  0  0  0  0
   61.4129   32.7153   49.9845 H   0  0  0  0  0  0  0  0  0  0  0  0
   62.3524   34.1113   50.6632 H   0  0  0  0  0  0  0  0  0  0  0  0
   60.1902   34.7233   49.4587 H   0  0  0  0  0  0  0  0  0  0  0  0
   61.6834   35.5503   48.8784 H   0  0  0  0  0  0  0  0  0  0  0  0
   59.0214   35.0014   44.3178 H   0  0  0  0  0  0  0  0  0  0  0  0
   57.9039   33.4605   42.7099 H   0  0  0  0  0  0  0  0  0  0  0  0
  1  2  2  0
  2  3  1  0
  3  4  1  0
  4  5  1  0
  5  6  1  0
  6  7  2  0
  6  8  1  0
  8  9  1  0
  9 10  1  0
  2 11  1  0
 11 12  1  0
 12 13  2  0
 13 14  1  0
 14 15  2  0
 15 16  1  0
 16 17  2  0
 16 18  1  0
 18 19  1  0
 19 20  1  0
 20 21  1  0
 21 22  1  0
 22 23  2  0
 23 24  1  0
 24 25  2  0
 25 26  1  0
 26 27  2  0
 21 28  1  0
 28 29  1  0
 15 30  1  0
 30 31  2  0
  9  4  2  0
 31 12  1  0
 29 18  1  0
 27 22  1  0
  3 32  1  0
  3 33  1  0
 13 34  1  0
 14 35  1  0
 19 36  1  0
 19 37  1  0
 20 38  1  0
 20 39  1  0
 23 40  1  0
 24 41  1  0
 25 42  1  0
 26 43  1  0
 28 44  1  0
 28 45  1  0
 29 46  1  0
 29 47  1  0
 30 48  1  0
 31 49  1  0
M  CHG  3   8  -1  10  -1  11  -1
M  END
>  <UniqueID>  (17) 
16

>  <SMILES>  (17) 
O=C(Cc1sc(=O)[n-]c1[O-])[N-]c1ccc(C(=O)N2CCN(c3ccccn3)CC2)cc1

>  <Energy>  (17) 
96.00892721723444

>  <Genealogy>  (17) 
O=C(Cc1sc(=O)[n-]c1[O-])[N-]c1ccc(C(=O)N2CCN(c3ccccn3)CC2)cc1 (protonated)
O=C(Cc1sc(=O)[n-]c1[O-])[N-]c1ccc(C(=O)N2CCN(c3ccccn3)CC2)cc1 (3D coordinates assigned)
O=C(Cc1sc(=O)[n-]c1[O-])[N-]c1ccc(C(=O)N2CCN(c3ccccn3)CC2)cc1 (nonaromatic ring conformer: 96.00892721723444 kcal/mol)

>  <smiles>  (17) 
O=C(Cc1sc(=O)[nH]c1O)Nc1ccc(C(=O)N2CCN(c3ccccn3)CC2)cc1

>  <score_type>  (17) 
oracle

>  <origin>  (17) 
adg

>  <m_score__min__energy>  (17) 
-16.609999999999999

>  <m_primary>  (17) 
energy

$$$$
17:0
     RDKit          3D

 50 54  0  0  0  0  0  0  0  0999 V2000
   55.2358   30.2262   43.0697 H   0  0  0  0  0  0  0  0  0  0  0  0
   55.9550   30.2340   43.9020 C   0  0  0  0  0  0  0  0  0  0  0  0
   56.1860   29.1000   44.6100 N   0  0  0  0  0  0  0  0  0  0  0  0
   57.0690   29.0830   45.6430 C   0  0  0  0  0  0  0  0  0  0  0  0
   57.2460   27.9790   46.3070 N   0  0  0  0  0  0  0  0  0  0  0  0
   57.1890   26.6330   45.8020 C   0  0  0  0  0  0  0  0  0  0  0  0
   58.2260   25.8390   45.3310 C   0  0  0  0  0  0  0  0  0  0  0  0
   59.2944   26.0983   45.2942 H   0  0  0  0  0  0  0  0  0  0  0  0
   57.6410   24.6540   44.9170 C   0  0  0  0  0  0  0  0  0  0  0  0
   58.1867   23.7940   44.5016 H   0  0  0  0  0  0  0  0  0  0  0  0
   56.3040   24.7070   45.0970 N   0  0  0  0  0  0  0  0  0  0  0  0
   55.3550   23.6270   44.8390 C   0  0  0  0  0  0  0  0  0  0  0  0
   55.7433   22.9850   44.0346 H   0  0  0  0  0  0  0  0  0  0  0  0
   54.3892   24.0586   44.5376 H   0  0  0  0  0  0  0  0  0  0  0  0
   55.1630   22.8080   46.0790 C   0  0  0  0  0  0  0  0  0  0  0  0
   55.1040   21.5530   45.9850 O   0  0  0  0  0  0  0  0  0  0  0  0
   54.9620   23.4590   47.3430 N   0  0  0  0  0  0  0  0  0  0  0  0
   54.7580   24.4840   47.3370 H   0  0  0  0  0  0  0  0  0  0  0  0
   54.8930   22.7690   48.6010 C   0  0  0  0  0  0  0  0  0  0  0  0
   53.6640   22.6820   49.2740 C   0  0  0  0  0  0  0  0  0  0  0  0
   52.7632   23.1267   48.8259 H   0  0  0  0  0  0  0  0  0  0  0  0
   53.5770   22.0340   50.5100 C   0  0  0  0  0  0  0  0  0  0  0  0
   52.6076   21.9603   51.0247 H   0  0  0  0  0  0  0  0  0  0  0  0
   54.7200   21.4800   51.0920 C   0  0  0  0  0  0  0  0  0  0  0  0
   54.6497   20.9655   52.0617 H   0  0  0  0  0  0  0  0  0  0  0  0
   55.9530   21.5800   50.4410 C   0  0  0  0  0  0  0  0  0  0  0  0
   56.8538   21.1496   50.9028 H   0  0  0  0  0  0  0  0  0  0  0  0
   56.0440   22.2260   49.2040 C   0  0  0  0  0  0  0  0  0  0  0  0
   57.0182   22.3103   48.7002 H   0  0  0  0  0  0  0  0  0  0  0  0
   56.0310   25.9100   45.6370 C   0  0  0  0  0  0  0  0  0  0  0  0
   54.7560   26.3420   45.9810 O   0  0  0  0  0  0  0  0  0  0  0  0
   57.7280   30.2250   45.9760 N   0  0  0  0  0  0  0  0  0  0  0  0
   57.5460   31.3840   45.2900 C   0  0  0  0  0  0  0  0  0  0  0  0
   58.2740   32.5980   45.7180 C   0  0  0  0  0  0  0  0  0  0  0  0
   58.5360   33.6280   44.7850 C   0  0  0  0  0  0  0  0  0  0  0  0
   58.1929   33.5187   43.7456 H   0  0  0  0  0  0  0  0  0  0  0  0
   59.2310   34.7930   45.1690 C   0  0  0  0  0  0  0  0  0  0  0  0
   59.4347   35.5775   44.4253 H   0  0  0  0  0  0  0  0  0  0  0  0
   59.6650   34.9590   46.4940 C   0  0  0  0  0  0  0  0  0  0  0  0
   60.2124   35.8619   46.8024 H   0  0  0  0  0  0  0  0  0  0  0  0
   59.3810   33.9450   47.4060 C   0  0  0  0  0  0  0  0  0  0  0  0
   58.7080   32.8040   47.0390 C   0  0  0  0  0  0  0  0  0  0  0  0
   58.5400   32.0550   48.1900 C   0  0  0  0  0  0  0  0  0  0  0  0
   58.0320   31.0838   48.2833 H   0  0  0  0  0  0  0  0  0  0  0  0
   59.1470   32.7860   49.2030 C   0  0  0  0  0  0  0  0  0  0  0  0
   59.2026   32.4695   50.2550 H   0  0  0  0  0  0  0  0  0  0  0  0
   59.6600   33.9390   48.7200 N   0  0  0  0  0  0  0  0  0  0  0  0
   60.1490   34.6830   49.2660 H   0  0  0  0  0  0  0  0  0  0  0  0
   56.6300   31.4100   44.2300 C   0  0  0  0  0  0  0  0  0  0  0  0
   56.4470   32.3380   43.6684 H   0  0  0  0  0  0  0  0  0  0  0  0
  1  2  1  0
  2  3  1  0
  3  4  1  0
  4  5  2  0
  5  6  1  0
  6  7  1  0
  7  8  1  0
  7  9  2  0
  9 10  1  0
  9 11  1  0
 11 12  1  0
 12 13  1  0
 12 14  1  0
 12 15  1  0
 15 16  2  0
 15 17  1  0
 17 18  1  0
 17 19  1  0
 19 20  2  0
 20 21  1  0
 20 22  1  0
 22 23  1  0
 22 24  2  0
 24 25  1  0
 24 26  1  0
 26 27  1  0
 26 28  2  0
 28 29  1  0
 11 30  1  0
 30 31  1  0
  4 32  1  0
 32 33  2  0
 33 34  1  0
 34 35  2  0
 35 36  1  0
 35 37  1  0
 37 38  1  0
 37 39  2  0
 39 40  1  0
 39 41  1  0
 41 42  2  0
 42 43  1  0
 43 44  1  0
 43 45  2  0
 45 46  1  0
 45 47  1  0
 47 48  1  0
 33 49  1  0
 49 50  1  0
 49  2  2  0
 30  6  2  0
 42 34  1  0
 28 19  1  0
 47 41  1  0
M  CHG  2   3  -1  31  -1
M  END
>  <UniqueID>  (18) 
17

>  <SMILES>  (18) 
O=C(Cn1ccc(/N=c2\nc(-c3cccc4[nH]ccc34)cc[n-]2)c1[O-])Nc1ccccc1

>  <Energy>  (18) 
128.3345819240433

>  <Genealogy>  (18) 
O=C(Cn1ccc(N=c2nc(-c3cccc4[nH]ccc34)cc[n-]2)c1[O-])Nc1ccccc1 (protonated)
O=C(Cn1ccc(/N=c2\nc(-c3cccc4[nH]ccc34)cc[n-]2)c1[O-])Nc1ccccc1 (cis-trans isomerization)
O=C(Cn1ccc(/N=c2\nc(-c3cccc4[nH]ccc34)cc[n-]2)c1[O-])Nc1ccccc1 (3D coordinates assigned)
O=C(Cn1ccc(/N=c2\nc(-c3cccc4[nH]ccc34)cc[n-]2)c1[O-])Nc1ccccc1 (optimized conformer: 128.3345819240433 kcal/mol)

>  <smiles>  (18) 
O=C(Cn1ccc(N=c2nc(-c3cccc4[nH]ccc34)cc[nH]2)c1O)Nc1ccccc1

>  <score_type>  (18) 
oracle

>  <origin>  (18) 
adg

>  <m_score__min__energy>  (18) 
-15.109999999999999

>  <m_primary>  (18) 
energy

$$$$
18:0
     RDKit          3D

 30 31  0  0  0  0  0  0  0  0999 V2000
   55.1500   27.6090   45.2480 H   0  0  0  0  0  0  0  0  0  0  0  0
   55.5210   26.9510   45.9230 O   0  0  0  0  0  0  0  0  0  0  0  0
   56.8890   26.7000   46.0230 C   0  0  0  0  0  0  0  0  0  0  0  0
   57.3790   25.8370   47.0130 C   0  0  0  0  0  0  0  0  0  0  0  0
   56.6818   25.3588   47.7167 H   0  0  0  0  0  0  0  0  0  0  0  0
   58.7100   25.5890   47.1070 N   0  0  0  0  0  0  0  0  0  0  0  0
   59.6020   26.1580   46.2560 C   0  0  0  0  0  0  0  0  0  0  0  0
   60.6745   25.9357   46.3573 H   0  0  0  0  0  0  0  0  0  0  0  0
   59.1630   27.0240   45.2530 C   0  0  0  0  0  0  0  0  0  0  0  0
   59.8851   27.4761   44.5572 H   0  0  0  0  0  0  0  0  0  0  0  0
   57.7870   27.3160   45.1370 C   0  0  0  0  0  0  0  0  0  0  0  0
   57.3150   28.1120   44.2170 N   0  0  0  0  0  0  0  0  0  0  0  0
   56.7660   29.4220   44.4050 C   0  0  0  0  0  0  0  0  0  0  0  0
   55.6230   29.5400   44.9220 O   0  0  0  0  0  0  0  0  0  0  0  0
   57.5860   30.6550   44.1440 C   0  0  0  0  0  0  0  0  0  0  0  0
   56.9153   31.4944   43.9083 H   0  0  0  0  0  0  0  0  0  0  0  0
   58.2611   30.4649   43.2966 H   0  0  0  0  0  0  0  0  0  0  0  0
   58.4100   31.0010   45.3640 C   0  0  0  0  0  0  0  0  0  0  0  0
   59.2180   30.0060   45.9400 C   0  0  0  0  0  0  0  0  0  0  0  0
   59.2236   28.9928   45.5119 H   0  0  0  0  0  0  0  0  0  0  0  0
   60.0130   30.2920   47.0500 C   0  0  0  0  0  0  0  0  0  0  0  0
   60.6359   29.5030   47.4966 H   0  0  0  0  0  0  0  0  0  0  0  0
   60.0200   31.5760   47.5950 C   0  0  0  0  0  0  0  0  0  0  0  0
   60.6468   31.7944   48.4722 H   0  0  0  0  0  0  0  0  0  0  0  0
   59.2340   32.5880   47.0320 C   0  0  0  0  0  0  0  0  0  0  0  0
   59.2750   33.9070   47.6210 C   0  0  0  0  0  0  0  0  0  0  0  0
   59.3070   34.9620   48.0930 N   0  0  0  0  0  0  0  0  0  0  0  0
   58.4260   32.3090   45.9070 C   0  0  0  0  0  0  0  0  0  0  0  0
   57.6230   33.3610   45.3160 C   0  0  0  0  0  0  0  0  0  0  0  0
   56.9810   34.2010   44.8440 N   0  0  0  0  0  0  0  0  0  0  0  0
  1  2  1  0
  2  3  1  0
  3  4  2  0
  4  5  1  0
  4  6  1  0
  6  7  1  0
  7  8  1  0
  7  9  2  0
  9 10  1  0
  9 11  1  0
 11 12  2  0
 12 13  1  0
 13 14  2  0
 13 15  1  0
 15 16  1  0
 15 17  1  0
 15 18  1  0
 18 19  2  0
 19 20  1  0
 19 21  1  0
 21 22  1  0
 21 23  2  0
 23 24  1  0
 23 25  1  0
 25 26  1  0
 26 27  3  0
 25 28  2  0
 28 29  1  0
 29 30  3  0
 11  3  1  0
 28 18  1  0
M  CHG  1   6  -1
M  END
>  <UniqueID>  (19) 
18

>  <SMILES>  (19) 
N#Cc1cccc(CC(=O)/N=c2\cc[n-]cc2O)c1C#N

>  <Energy>  (19) 
40.774238015120865

>  <Genealogy>  (19) 
N#Cc1cccc(CC(=O)N=c2cc[n-]cc2O)c1C#N (protonated)
N#Cc1cccc(CC(=O)/N=c2\cc[n-]cc2O)c1C#N (cis-trans isomerization)
N#Cc1cccc(CC(=O)/N=c2\cc[n-]cc2O)c1C#N (3D coordinates assigned)
N#Cc1cccc(CC(=O)/N=c2\cc[n-]cc2O)c1C#N (optimized conformer: 40.774238015120865 kcal/mol)

>  <smiles>  (19) 
N#Cc1cccc(CC(=O)N=c2cc[nH]cc2O)c1C#N

>  <score_type>  (19) 
oracle

>  <origin>  (19) 
adg

>  <m_score__min__energy>  (19) 
-9.1899999999999995

>  <m_primary>  (19) 
energy

$$$$
19:0
     RDKit          3D

 62 66  0  0  0  0  0  0  0  0999 V2000
   51.1870   31.2360   49.8790 O   0  0  0  0  0  0  0  0  0  0  0  0
   51.5880   31.5920   51.0200 C   0  0  0  0  0  0  0  0  0  0  0  0
   51.0210   32.7440   51.6760 N   0  0  0  0  0  0  0  0  0  0  0  0
   50.0200   32.8500   52.7470 C   0  0  0  0  0  0  0  0  0  0  0  0
   50.4900   32.4560   54.1380 C   0  0  0  0  0  0  0  0  0  0  0  0
   50.2480   33.9270   53.7960 C   0  0  0  0  0  0  0  0  0  0  0  0
   52.6610   30.8200   51.6960 C   0  0  0  0  0  0  0  0  0  0  0  0
   52.3450   29.8860   52.6970 C   0  0  0  0  0  0  0  0  0  0  0  0
   53.3560   29.1730   53.3450 C   0  0  0  0  0  0  0  0  0  0  0  0
   54.6930   29.3840   53.0080 C   0  0  0  0  0  0  0  0  0  0  0  0
   55.0380   30.3060   52.0040 C   0  0  0  0  0  0  0  0  0  0  0  0
   56.4260   30.5240   51.6760 N   0  0  0  0  0  0  0  0  0  0  0  0
   56.9540   31.5850   51.0300 C   0  0  0  0  0  0  0  0  0  0  0  0
   58.3140   31.3890   50.9290 C   0  0  0  0  0  0  0  0  0  0  0  0
   59.3220   32.3180   50.3310 C   0  0  0  0  0  0  0  0  0  0  0  0
   59.0270   32.5600   48.9000 N   0  0  0  0  0  0  0  0  0  0  0  0
   59.4030   33.9130   48.4690 C   0  0  0  0  0  0  0  0  0  0  0  0
   60.9130   34.1590   48.5760 C   0  0  0  0  0  0  0  0  0  0  0  0
   61.7230   32.9830   48.2240 N   0  0  0  0  0  0  0  0  0  0  0  0
   63.1580   33.0910   48.2920 C   0  0  0  0  0  0  0  0  0  0  0  0
   63.8650   32.5870   47.3780 O   0  0  0  0  0  0  0  0  0  0  0  0
   63.8330   33.7200   49.4810 C   0  0  0  0  0  0  0  0  0  0  0  0
   64.8050   32.7540   50.1160 C   0  0  0  0  0  0  0  0  0  0  0  0
   66.1850   33.0250   50.1010 C   0  0  0  0  0  0  0  0  0  0  0  0
   67.0920   32.1060   50.6420 C   0  0  0  0  0  0  0  0  0  0  0  0
   66.6320   30.9160   51.2150 C   0  0  0  0  0  0  0  0  0  0  0  0
   67.5460   30.0090   51.7470 O   0  0  0  0  0  0  0  0  0  0  0  0
   65.2550   30.6500   51.2530 C   0  0  0  0  0  0  0  0  0  0  0  0
   64.3460   31.5660   50.7120 C   0  0  0  0  0  0  0  0  0  0  0  0
   61.1750   31.6380   47.9830 C   0  0  0  0  0  0  0  0  0  0  0  0
   59.6400   31.5750   47.9950 C   0  0  0  0  0  0  0  0  0  0  0  0
   58.5590   30.1790   51.5440 C   0  0  0  0  0  0  0  0  0  0  0  0
   57.3920   29.6700   51.9860 N   0  0  0  0  0  0  0  0  0  0  0  0
   54.0120   31.0220   51.3540 C   0  0  0  0  0  0  0  0  0  0  0  0
   49.1763   32.5711   52.0986 H   0  0  0  0  0  0  0  0  0  0  0  0
   49.8071   31.9301   54.8214 H   0  0  0  0  0  0  0  0  0  0  0  0
   51.3357   31.8787   54.5400 H   0  0  0  0  0  0  0  0  0  0  0  0
   49.3908   34.4601   54.2331 H   0  0  0  0  0  0  0  0  0  0  0  0
   50.8470   34.8480   53.8495 H   0  0  0  0  0  0  0  0  0  0  0  0
   51.2938   29.7152   52.9722 H   0  0  0  0  0  0  0  0  0  0  0  0
   53.0968   28.4417   54.1247 H   0  0  0  0  0  0  0  0  0  0  0  0
   55.4829   28.8253   53.5313 H   0  0  0  0  0  0  0  0  0  0  0  0
   56.3962   32.4539   50.6506 H   0  0  0  0  0  0  0  0  0  0  0  0
   59.2962   33.2755   50.8719 H   0  0  0  0  0  0  0  0  0  0  0  0
   60.3184   31.8594   50.4140 H   0  0  0  0  0  0  0  0  0  0  0  0
   59.0958   34.0488   47.4216 H   0  0  0  0  0  0  0  0  0  0  0  0
   58.8972   34.6303   49.1321 H   0  0  0  0  0  0  0  0  0  0  0  0
   61.1810   34.9826   47.8978 H   0  0  0  0  0  0  0  0  0  0  0  0
   61.1291   34.3991   49.6275 H   0  0  0  0  0  0  0  0  0  0  0  0
   64.3779   34.6178   49.1538 H   0  0  0  0  0  0  0  0  0  0  0  0
   63.0658   33.9882   50.2223 H   0  0  0  0  0  0  0  0  0  0  0  0
   66.5535   33.9638   49.6620 H   0  0  0  0  0  0  0  0  0  0  0  0
   68.1705   32.3207   50.6163 H   0  0  0  0  0  0  0  0  0  0  0  0
   67.7260   29.9630   52.7460 H   0  0  0  0  0  0  0  0  0  0  0  0
   64.8888   29.7186   51.7094 H   0  0  0  0  0  0  0  0  0  0  0  0
   63.2671   31.3557   50.7532 H   0  0  0  0  0  0  0  0  0  0  0  0
   61.5273   31.2924   46.9999 H   0  0  0  0  0  0  0  0  0  0  0  0
   61.5252   31.0002   48.8079 H   0  0  0  0  0  0  0  0  0  0  0  0
   59.2743   31.7625   46.9746 H   0  0  0  0  0  0  0  0  0  0  0  0
   59.3564   30.5762   48.3582 H   0  0  0  0  0  0  0  0  0  0  0  0
   59.5460   29.7064   51.6555 H   0  0  0  0  0  0  0  0  0  0  0  0
   54.2703   31.7482   50.5692 H   0  0  0  0  0  0  0  0  0  0  0  0
  1  2  2  0
  2  3  1  0
  3  4  1  0
  4  5  1  0
  5  6  1  0
  2  7  1  0
  7  8  2  0
  8  9  1  0
  9 10  2  0
 10 11  1  0
 11 12  1  0
 12 13  1  0
 13 14  2  0
 14 15  1  0
 15 16  1  0
 16 17  1  0
 17 18  1  0
 18 19  1  0
 19 20  1  0
 20 21  2  0
 20 22  1  0
 22 23  1  0
 23 24  2  0
 24 25  1  0
 25 26  2  0
 26 27  1  0
 26 28  1  0
 28 29  2  0
 19 30  1  0
 30 31  1  0
 14 32  1  0
 32 33  2  0
 11 34  2  0
  6  4  1  0
 34  7  1  0
 33 12  1  0
 31 16  1  0
 29 23  1  0
  4 35  1  0
  5 36  1  0
  5 37  1  0
  6 38  1  0
  6 39  1  0
  8 40  1  0
  9 41  1  0
 10 42  1  0
 13 43  1  0
 15 44  1  0
 15 45  1  0
 17 46  1  0
 17 47  1  0
 18 48  1  0
 18 49  1  0
 22 50  1  0
 22 51  1  0
 24 52  1  0
 25 53  1  0
 27 54  1  0
 28 55  1  0
 29 56  1  0
 30 57  1  0
 30 58  1  0
 31 59  1  0
 31 60  1  0
 32 61  1  0
 34 62  1  0
M  CHG  1   3  -1
M  END
>  <UniqueID>  (20) 
19

>  <SMILES>  (20) 
O=C([N-]C1CC1)c1cccc(-n2cc(CN3CCN(C(=O)Cc4ccc(O)cc4)CC3)cn2)c1

>  <Energy>  (20) 
373.6679598116505

>  <Genealogy>  (20) 
O=C([N-]C1CC1)c1cccc(-n2cc(CN3CCN(C(=O)Cc4ccc(O)cc4)CC3)cn2)c1 (protonated)
O=C([N-]C1CC1)c1cccc(-n2cc(CN3CCN(C(=O)Cc4ccc(O)cc4)CC3)cn2)c1 (3D coordinates assigned)
O=C([N-]C1CC1)c1cccc(-n2cc(CN3CCN(C(=O)Cc4ccc(O)cc4)CC3)cn2)c1 (nonaromatic ring conformer: 373.6679598116505 kcal/mol)

>  <smiles>  (20) 
O=C(NC1CC1)c1cccc(-n2cc(CN3CCN(C(=O)Cc4ccc(O)cc4)CC3)cn2)c1

>  <score_type>  (20) 
oracle

>  <origin>  (20) 
adg

>  <m_score__min__energy>  (20) 
-12.18

>  <m_primary>  (20) 
energy

$$$$
20:0
     RDKit          3D

 31 33  0  0  0  0  0  0  0  0999 V2000
   54.8200   26.3430   45.9890 N   0  0  0  0  0  0  0  0  0  0  0  0
   56.0410   25.1210   46.0410 S   0  0  0  0  0  0  0  0  0  0  0  0
   56.0390   24.3500   44.7510 O   0  0  0  0  0  0  0  0  0  0  0  0
   55.7540   24.1740   47.1710 O   0  0  0  0  0  0  0  0  0  0  0  0
   57.6130   25.8790   46.2730 C   0  0  0  0  0  0  0  0  0  0  0  0
   58.7890   25.1930   45.9390 C   0  0  0  0  0  0  0  0  0  0  0  0
   60.0310   25.8060   46.1140 C   0  0  0  0  0  0  0  0  0  0  0  0
   60.1080   27.0980   46.6400 C   0  0  0  0  0  0  0  0  0  0  0  0
   58.9450   27.7810   47.0170 C   0  0  0  0  0  0  0  0  0  0  0  0
   59.0660   29.1170   47.5340 N   0  0  0  0  0  0  0  0  0  0  0  0
   58.7740   30.2230   46.9140 C   0  0  0  0  0  0  0  0  0  0  0  0
   57.7480   30.2310   46.0210 N   0  0  0  0  0  0  0  0  0  0  0  0
   57.4140   31.3510   45.3300 C   0  0  0  0  0  0  0  0  0  0  0  0
   56.4520   31.3110   44.5170 O   0  0  0  0  0  0  0  0  0  0  0  0
   58.1430   32.5350   45.5270 C   0  0  0  0  0  0  0  0  0  0  0  0
   57.8490   33.7290   44.8440 C   0  0  0  0  0  0  0  0  0  0  0  0
   58.6120   34.8760   45.0820 C   0  0  0  0  0  0  0  0  0  0  0  0
   59.6690   34.8410   45.9960 C   0  0  0  0  0  0  0  0  0  0  0  0
   59.9700   33.6590   46.6790 C   0  0  0  0  0  0  0  0  0  0  0  0
   59.2110   32.5060   46.4490 C   0  0  0  0  0  0  0  0  0  0  0  0
   59.5010   31.3570   47.1110 N   0  0  0  0  0  0  0  0  0  0  0  0
   57.6920   27.1730   46.8060 C   0  0  0  0  0  0  0  0  0  0  0  0
   55.1520   27.0790   45.3280 H   0  0  0  0  0  0  0  0  0  0  0  0
   58.7331   24.1701   45.5384 H   0  0  0  0  0  0  0  0  0  0  0  0
   60.9511   25.2705   45.8371 H   0  0  0  0  0  0  0  0  0  0  0  0
   61.0886   27.5820   46.7588 H   0  0  0  0  0  0  0  0  0  0  0  0
   57.0190   33.7602   44.1228 H   0  0  0  0  0  0  0  0  0  0  0  0
   58.3797   35.8093   44.5481 H   0  0  0  0  0  0  0  0  0  0  0  0
   60.2660   35.7467   46.1785 H   0  0  0  0  0  0  0  0  0  0  0  0
   60.8031   33.6352   47.3969 H   0  0  0  0  0  0  0  0  0  0  0  0
   56.7704   27.7167   47.0609 H   0  0  0  0  0  0  0  0  0  0  0  0
  1  2  1  0
  2  3  2  0
  2  4  2  0
  2  5  1  0
  5  6  2  0
  6  7  1  0
  7  8  2  0
  8  9  1  0
  9 10  1  0
 10 11  2  3
 11 12  1  0
 12 13  1  0
 13 14  2  0
 13 15  1  0
 15 16  2  0
 16 17  1  0
 17 18  2  0
 18 19  1  0
 19 20  2  0
 20 21  1  0
  9 22  2  0
 22  5  1  0
 21 11  1  0
 20 15  1  0
  1 23  1  0
  6 24  1  0
  7 25  1  0
  8 26  1  0
 16 27  1  0
 17 28  1  0
 18 29  1  0
 19 30  1  0
 22 31  1  0
M  CHG  3   1  -1  12  -1  21  -1
M  END
>  <UniqueID>  (21) 
20

>  <SMILES>  (21) 
[NH-]S(=O)(=O)c1cccc(N=c2[n-]c(=O)c3ccccc3[n-]2)c1

>  <Energy>  (21) 
44.46080584140539

>  <Genealogy>  (21) 
[NH-]S(=O)(=O)c1cccc(N=c2[n-]c(=O)c3ccccc3[n-]2)c1 (protonated)
[NH-]S(=O)(=O)c1cccc(N=c2[n-]c(=O)c3ccccc3[n-]2)c1 (3D coordinates assigned)
[NH-]S(=O)(=O)c1cccc(N=c2[n-]c(=O)c3ccccc3[n-]2)c1 (optimized conformer: 44.46080584140539 kcal/mol)

>  <smiles>  (21) 
NS(=O)(=O)c1cccc(N=c2[nH]c(=O)c3ccccc3[nH]2)c1

>  <score_type>  (21) 
oracle

>  <origin>  (21) 
adg

>  <m_score__min__energy>  (21) 
-13.279999999999999

>  <m_primary>  (21) 
energy

$$$$
21:0
     RDKit          3D

 42 43  0  0  0  0  0  0  0  0999 V2000
   54.7770   26.3190   45.6710 O   0  0  0  0  0  0  0  0  0  0  0  0
   55.9310   26.4970   46.1450 C   0  0  0  0  0  0  0  0  0  0  0  0
   56.7400   27.6660   45.6960 C   0  0  0  0  0  0  0  0  0  0  0  0
   55.8550   28.6260   45.0520 N   0  0  0  0  0  0  0  0  0  0  0  0
   56.2750   29.4960   43.9980 C   0  0  0  0  0  0  0  0  0  0  0  0
   56.5990   29.0300   42.8730 O   0  0  0  0  0  0  0  0  0  0  0  0
   56.3320   30.9660   44.2480 C   0  0  0  0  0  0  0  0  0  0  0  0
   57.3680   31.2390   45.2410 N   0  0  0  0  0  0  0  0  0  0  0  0
   57.8510   32.9050   45.1570 S   0  0  0  0  0  0  0  0  0  0  0  0
   56.6500   33.7760   45.3990 O   0  0  0  0  0  0  0  0  0  0  0  0
   58.3920   33.2100   43.7870 O   0  0  0  0  0  0  0  0  0  0  0  0
   59.0630   33.2480   46.3900 C   0  0  0  0  0  0  0  0  0  0  0  0
   60.3900   33.5240   46.0320 C   0  0  0  0  0  0  0  0  0  0  0  0
   61.3450   33.7800   47.0220 C   0  0  0  0  0  0  0  0  0  0  0  0
   60.9800   33.7620   48.3710 C   0  0  0  0  0  0  0  0  0  0  0  0
   59.6600   33.4850   48.7310 C   0  0  0  0  0  0  0  0  0  0  0  0
   58.7030   33.2230   47.7450 C   0  0  0  0  0  0  0  0  0  0  0  0
   56.4350   25.6410   47.1740 N   0  0  0  0  0  0  0  0  0  0  0  0
   57.4890   24.6590   46.9560 C   0  0  0  0  0  0  0  0  0  0  0  0
   57.0600   23.6790   45.8940 C   0  0  0  0  0  0  0  0  0  0  0  0
   58.0240   23.1710   45.0060 C   0  0  0  0  0  0  0  0  0  0  0  0
   57.6710   22.2200   44.0460 C   0  0  0  0  0  0  0  0  0  0  0  0
   56.3540   21.7650   43.9610 C   0  0  0  0  0  0  0  0  0  0  0  0
   55.3870   22.2580   44.8410 C   0  0  0  0  0  0  0  0  0  0  0  0
   55.7300   23.2140   45.8100 C   0  0  0  0  0  0  0  0  0  0  0  0
   54.7560   23.6970   46.6840 O   0  0  0  0  0  0  0  0  0  0  0  0
   57.2262   28.1351   46.5641 H   0  0  0  0  0  0  0  0  0  0  0  0
   57.5144   27.3362   44.9878 H   0  0  0  0  0  0  0  0  0  0  0  0
   56.5715   31.4905   43.3112 H   0  0  0  0  0  0  0  0  0  0  0  0
   55.3584   31.3181   44.6198 H   0  0  0  0  0  0  0  0  0  0  0  0
   60.6809   33.5393   44.9713 H   0  0  0  0  0  0  0  0  0  0  0  0
   62.3855   33.9959   46.7379 H   0  0  0  0  0  0  0  0  0  0  0  0
   61.7317   33.9658   49.1478 H   0  0  0  0  0  0  0  0  0  0  0  0
   59.3718   33.4727   49.7925 H   0  0  0  0  0  0  0  0  0  0  0  0
   57.6658   32.9969   48.0332 H   0  0  0  0  0  0  0  0  0  0  0  0
   58.4055   25.1728   46.6304 H   0  0  0  0  0  0  0  0  0  0  0  0
   57.6817   24.1178   47.8940 H   0  0  0  0  0  0  0  0  0  0  0  0
   59.0637   23.5250   45.0676 H   0  0  0  0  0  0  0  0  0  0  0  0
   58.4325   21.8286   43.3553 H   0  0  0  0  0  0  0  0  0  0  0  0
   56.0776   21.0187   43.2016 H   0  0  0  0  0  0  0  0  0  0  0  0
   54.3508   21.8948   44.7740 H   0  0  0  0  0  0  0  0  0  0  0  0
   54.7910   24.6410   47.0500 H   0  0  0  0  0  0  0  0  0  0  0  0
  1  2  2  0
  2  3  1  0
  3  4  1  0
  4  5  1  0
  5  6  2  0
  5  7  1  0
  7  8  1  0
  8  9  1  0
  9 10  2  0
  9 11  2  0
  9 12  1  0
 12 13  2  0
 13 14  1  0
 14 15  2  0
 15 16  1  0
 16 17  2  0
  2 18  1  0
 18 19  1  0
 19 20  1  0
 20 21  2  0
 21 22  1  0
 22 23  2  0
 23 24  1  0
 24 25  2  0
 25 26  1  0
 17 12  1  0
 25 20  1  0
  3 27  1  0
  3 28  1  0
  7 29  1  0
  7 30  1  0
 13 31  1  0
 14 32  1  0
 15 33  1  0
 16 34  1  0
 17 35  1  0
 19 36  1  0
 19 37  1  0
 21 38  1  0
 22 39  1  0
 23 40  1  0
 24 41  1  0
 26 42  1  0
M  CHG  3   4  -1   8  -1  18  -1
M  END
>  <UniqueID>  (22) 
21

>  <SMILES>  (22) 
O=C(C[N-]C(=O)C[N-]S(=O)(=O)c1ccccc1)[N-]Cc1ccccc1O

>  <Energy>  (22) 
32.017005574819656

>  <Genealogy>  (22) 
O=C(C[N-]C(=O)C[N-]S(=O)(=O)c1ccccc1)[N-]Cc1ccccc1O (protonated)
O=C(C[N-]C(=O)C[N-]S(=O)(=O)c1ccccc1)[N-]Cc1ccccc1O (3D coordinates assigned)
O=C(C[N-]C(=O)C[N-]S(=O)(=O)c1ccccc1)[N-]Cc1ccccc1O (optimized conformer: 32.017005574819656 kcal/mol)

>  <smiles>  (22) 
O=C(CNC(=O)CNS(=O)(=O)c1ccccc1)NCc1ccccc1O

>  <score_type>  (22) 
oracle

>  <origin>  (22) 
adg

>  <m_score__min__energy>  (22) 
-12.94

>  <m_primary>  (22) 
energy

$$$$
22:0
     RDKit          3D

 56 58  0  0  1  0  0  0  0  0999 V2000
   63.0150   31.7200   47.4270 C   0  0  0  0  0  0  0  0  0  0  0  0
   62.8230   33.4910   47.3660 S   0  0  0  0  0  0  0  0  0  0  0  0
   63.7230   34.0440   48.4580 O   0  0  0  0  0  0  0  0  0  0  0  0
   63.3580   34.0290   46.0750 O   0  0  0  0  0  0  0  0  0  0  0  0
   61.2120   33.9650   47.6760 N   0  0  0  0  0  0  0  0  0  0  0  0
   60.2190   33.8820   46.6660 C   0  0  0  0  0  0  0  0  0  0  0  0
   59.7700   35.0490   46.0850 C   0  0  0  0  0  0  0  0  0  0  0  0
   58.8060   34.9440   45.1070 C   0  0  0  0  0  0  0  0  0  0  0  0
   58.3030   33.6960   44.7200 C   0  0  0  0  0  0  0  0  0  0  0  0
   58.7440   32.5230   45.2950 C   0  0  0  0  0  0  0  0  0  0  0  0
   58.2150   31.2320   44.8850 C   0  0  0  0  0  0  0  0  0  0  0  0
   58.8360   30.0570   45.2500 C   0  0  0  0  0  0  0  0  0  0  0  0
   58.3090   28.8250   44.8450 C   0  0  0  0  0  0  0  0  0  0  0  0
   58.8960   27.7260   45.1900 N   0  0  0  0  0  0  0  0  0  0  0  0
   58.1770   26.6240   45.7350 C   0  0  0  0  0  0  0  0  0  0  0  0
   56.9310   26.7450   46.3140 C   0  0  0  0  0  0  0  0  0  0  0  0
   56.2890   25.6380   46.8240 C   0  0  0  0  0  0  0  0  0  0  0  0
   56.9120   24.4070   46.7460 C   0  0  0  0  0  0  0  0  0  0  0  0
   56.2770   23.1830   47.2730 C   0  0  0  0  0  0  0  0  0  0  0  0
   56.7360   21.9750   46.5600 C   0  0  0  0  0  0  0  0  0  0  0  0
   57.4360   21.0870   47.0920 O   0  0  0  0  0  0  0  0  0  0  0  0
   56.3340   21.8510   45.1830 N   0  0  0  0  0  0  0  0  0  0  0  0
   56.7500   20.6850   44.4160 C   0  0  0  0  0  0  0  0  0  0  0  0
   57.0380   21.1330   42.9860 C   0  0  0  0  0  0  0  0  0  0  0  0
   56.0600   22.0720   42.6700 O   0  0  0  0  0  0  0  0  0  0  0  0
   58.1530   24.2900   46.1680 C   0  0  0  0  0  0  0  0  0  0  0  0
   58.8160   25.3840   45.6510 C   0  0  0  0  0  0  0  0  0  0  0  0
   57.2060   28.7530   44.1030 N   0  0  0  0  0  0  0  0  0  0  0  0
   56.6100   29.9050   43.7530 C   0  0  0  0  0  0  0  0  0  0  0  0
   55.5470   29.8230   43.0380 N   0  0  0  0  0  0  0  0  0  0  0  0
   57.1060   31.1200   44.1380 N   0  0  0  0  0  0  0  0  0  0  0  0
   59.7100   32.6370   46.2730 C   0  0  0  0  0  0  0  0  0  0  0  0
   63.0507   31.3910   48.4760 H   0  0  0  0  0  0  0  0  0  0  0  0
   62.1635   31.2412   46.9213 H   0  0  0  0  0  0  0  0  0  0  0  0
   63.9493   31.4348   46.9213 H   0  0  0  0  0  0  0  0  0  0  0  0
   60.9230   34.3250   48.6100 H   0  0  0  0  0  0  0  0  0  0  0  0
   60.1672   36.0280   46.3914 H   0  0  0  0  0  0  0  0  0  0  0  0
   58.4252   35.8551   44.6223 H   0  0  0  0  0  0  0  0  0  0  0  0
   57.5340   33.6500   43.9348 H   0  0  0  0  0  0  0  0  0  0  0  0
   59.7495   30.0874   45.8621 H   0  0  0  0  0  0  0  0  0  0  0  0
   56.4471   27.7313   46.3688 H   0  0  0  0  0  0  0  0  0  0  0  0
   55.2954   25.7325   47.2864 H   0  0  0  0  0  0  0  0  0  0  0  0
   56.5273   23.0833   48.3395 H   0  0  0  0  0  0  0  0  0  0  0  0
   55.1903   23.2727   47.1278 H   0  0  0  0  0  0  0  0  0  0  0  0
   55.7390   22.6100   44.7380 H   0  0  0  0  0  0  0  0  0  0  0  0
   57.6581   20.2515   44.8604 H   0  0  0  0  0  0  0  0  0  0  0  0
   55.9569   19.9228   44.4230 H   0  0  0  0  0  0  0  0  0  0  0  0
   58.0378   21.5873   42.9225 H   0  0  0  0  0  0  0  0  0  0  0  0
   57.0191   20.2833   42.2877 H   0  0  0  0  0  0  0  0  0  0  0  0
   56.3100   22.5970   41.8660 H   0  0  0  0  0  0  0  0  0  0  0  0
   58.6296   23.3000   46.1162 H   0  0  0  0  0  0  0  0  0  0  0  0
   59.8098   25.2840   45.1902 H   0  0  0  0  0  0  0  0  0  0  0  0
   56.8040   27.8460   43.7950 H   0  0  0  0  0  0  0  0  0  0  0  0
   55.4760   29.1510   42.2350 H   0  0  0  0  0  0  0  0  0  0  0  0
   56.5580   31.9380   43.8050 H   0  0  0  0  0  0  0  0  0  0  0  0
   60.0911   31.7260   46.7575 H   0  0  0  0  0  0  0  0  0  0  0  0
  1  2  1  0
  2  3  2  0
  2  4  2  0
  2  5  1  0
  5  6  1  0
  6  7  2  0
  7  8  1  0
  8  9  2  0
  9 10  1  0
 10 11  1  0
 11 12  2  0
 12 13  1  0
 13 14  2  0
 14 15  1  0
 15 16  2  0
 16 17  1  0
 17 18  2  0
 18 19  1  0
 19 20  1  0
 20 21  2  0
 20 22  1  0
 22 23  1  0
 23 24  1  0
 24 25  1  0
 18 26  1  0
 26 27  2  0
 13 28  1  0
 28 29  1  0
 29 30  2  3
 29 31  1  0
 10 32  2  0
 32  6  1  0
 31 11  1  0
 27 15  1  0
  1 33  1  0
  1 34  1  0
  1 35  1  0
  5 36  1  0
  7 37  1  0
  8 38  1  0
  9 39  1  0
 12 40  1  0
 16 41  1  0
 17 42  1  0
 19 43  1  0
 19 44  1  0
 22 45  1  0
 23 46  1  0
 23 47  1  0
 24 48  1  0
 24 49  1  0
 25 50  1  0
 26 51  1  0
 27 52  1  0
 28 53  1  0
 30 54  1  0
 31 55  1  0
 32 56  1  0
M  END
>  <smiles>  (23) 
CS(=O)(=O)Nc1cccc(-c2cc(=Nc3ccc(CC(=O)NCCO)cc3)[nH]c(=N)[nH]2)c1

>  <score_type>  (23) 
oracle

>  <origin>  (23) 
adg

>  <m_score__min__energy>  (23) 
-9.5099999999999998

>  <m_primary>  (23) 
energy

$$$$
23:0
     RDKit          3D

 36 37  0  0  0  0  0  0  0  0999 V2000
   59.2890   35.0030   47.4570 C   0  0  0  0  0  0  0  0  0  0  0  0
   59.0760   34.6200   46.1030 O   0  0  0  0  0  0  0  0  0  0  0  0
   58.8460   33.3030   45.6790 C   0  0  0  0  0  0  0  0  0  0  0  0
   58.0060   33.0940   44.5790 C   0  0  0  0  0  0  0  0  0  0  0  0
   57.7450   31.8000   44.1190 C   0  0  0  0  0  0  0  0  0  0  0  0
   58.3300   30.6930   44.7520 C   0  0  0  0  0  0  0  0  0  0  0  0
   58.0180   29.2960   44.2780 C   0  0  0  0  0  0  0  0  0  0  0  0
   59.2870   28.4500   44.1690 C   0  0  0  0  0  0  0  0  0  0  0  0
   59.7450   28.0570   45.4990 N   0  0  0  0  0  0  0  0  0  0  0  0
   59.7080   26.7210   46.0170 C   0  0  0  0  0  0  0  0  0  0  0  0
   60.7960   26.1460   46.2830 O   0  0  0  0  0  0  0  0  0  0  0  0
   58.4400   26.0160   46.2880 C   0  0  0  0  0  0  0  0  0  0  0  0
   57.2050   26.6380   46.0490 C   0  0  0  0  0  0  0  0  0  0  0  0
   56.0090   25.9550   46.2980 C   0  0  0  0  0  0  0  0  0  0  0  0
   54.7940   26.5870   46.0630 O   0  0  0  0  0  0  0  0  0  0  0  0
   56.0360   24.6390   46.7770 C   0  0  0  0  0  0  0  0  0  0  0  0
   54.8330   23.9770   47.0240 O   0  0  0  0  0  0  0  0  0  0  0  0
   57.2700   24.0050   46.9980 C   0  0  0  0  0  0  0  0  0  0  0  0
   57.3180   22.6960   47.4650 O   0  0  0  0  0  0  0  0  0  0  0  0
   58.4640   24.6900   46.7460 C   0  0  0  0  0  0  0  0  0  0  0  0
   59.1640   30.8970   45.8610 C   0  0  0  0  0  0  0  0  0  0  0  0
   59.4250   32.1910   46.3220 C   0  0  0  0  0  0  0  0  0  0  0  0
   58.8643   34.2394   48.1252 H   0  0  0  0  0  0  0  0  0  0  0  0
   60.3686   35.0963   47.6462 H   0  0  0  0  0  0  0  0  0  0  0  0
   58.7987   35.9694   47.6462 H   0  0  0  0  0  0  0  0  0  0  0  0
   57.5472   33.9557   44.0720 H   0  0  0  0  0  0  0  0  0  0  0  0
   57.0782   31.6491   43.2572 H   0  0  0  0  0  0  0  0  0  0  0  0
   57.3305   28.8202   44.9928 H   0  0  0  0  0  0  0  0  0  0  0  0
   57.5581   29.3622   43.2809 H   0  0  0  0  0  0  0  0  0  0  0  0
   59.0730   27.5480   43.5768 H   0  0  0  0  0  0  0  0  0  0  0  0
   60.0732   29.0426   43.6784 H   0  0  0  0  0  0  0  0  0  0  0  0
   57.1767   27.6680   45.6639 H   0  0  0  0  0  0  0  0  0  0  0  0
   53.9490   24.4680   47.0770 H   0  0  0  0  0  0  0  0  0  0  0  0
   59.4279   24.1854   46.9081 H   0  0  0  0  0  0  0  0  0  0  0  0
   59.6156   30.0335   46.3714 H   0  0  0  0  0  0  0  0  0  0  0  0
   60.0845   32.3413   47.1895 H   0  0  0  0  0  0  0  0  0  0  0  0
  1  2  1  0
  2  3  1  0
  3  4  2  0
  4  5  1  0
  5  6  2  0
  6  7  1  0
  7  8  1  0
  8  9  1  0
  9 10  1  0
 10 11  2  0
 10 12  1  0
 12 13  2  0
 13 14  1  0
 14 15  1  0
 14 16  2  0
 16 17  1  0
 16 18  1  0
 18 19  1  0
 18 20  2  0
  6 21  1  0
 21 22  2  0
 22  3  1  0
 20 12  1  0
  1 23  1  0
  1 24  1  0
  1 25  1  0
  4 26  1  0
  5 27  1  0
  7 28  1  0
  7 29  1  0
  8 30  1  0
  8 31  1  0
 13 32  1  0
 17 33  1  0
 20 34  1  0
 21 35  1  0
 22 36  1  0
M  CHG  3   9  -1  15  -1  19  -1
M  END
>  <UniqueID>  (24) 
22

>  <SMILES>  (24) 
COc1ccc(CC[N-]C(=O)c2cc([O-])c(O)c([O-])c2)cc1

>  <Energy>  (24) 
37.46198338085449

>  <Genealogy>  (24) 
COc1ccc(CC[N-]C(=O)c2cc([O-])c(O)c([O-])c2)cc1 (protonated)
COc1ccc(CC[N-]C(=O)c2cc([O-])c(O)c([O-])c2)cc1 (3D coordinates assigned)
COc1ccc(CC[N-]C(=O)c2cc([O-])c(O)c([O-])c2)cc1 (optimized conformer: 37.46198338085449 kcal/mol)

>  <smiles>  (24) 
COc1ccc(CCNC(=O)c2cc(O)c(O)c(O)c2)cc1

>  <score_type>  (24) 
oracle

>  <origin>  (24) 
adg

>  <m_score__min__energy>  (24) 
-13.359999999999999

>  <m_primary>  (24) 
energy

$$$$
24:0
     RDKit          3D

 50 53  0  0  0  0  0  0  0  0999 V2000
   58.8489   31.3057   44.1623 H   0  0  0  0  0  0  0  0  0  0  0  0
   58.3450   30.3280   44.1460 C   0  0  0  0  0  0  0  0  0  0  0  0
   57.6372   30.0874   43.3390 H   0  0  0  0  0  0  0  0  0  0  0  0
   58.5920   29.4350   45.1040 C   0  0  0  0  0  0  0  0  0  0  0  0
   59.4000   29.6200   46.2220 C   0  0  0  0  0  0  0  0  0  0  0  0
   60.2110   30.7950   46.6000 C   0  0  0  0  0  0  0  0  0  0  0  0
   61.4420   30.6210   46.8070 O   0  0  0  0  0  0  0  0  0  0  0  0
   59.6530   32.1270   46.6970 N   0  0  0  0  0  0  0  0  0  0  0  0
   58.2080   32.3320   46.9020 C   0  0  0  0  0  0  0  0  0  0  0  0
   57.7079   31.3540   46.9598 H   0  0  0  0  0  0  0  0  0  0  0  0
   58.0563   32.8904   47.8375 H   0  0  0  0  0  0  0  0  0  0  0  0
   57.6110   33.1370   45.7400 C   0  0  0  0  0  0  0  0  0  0  0  0
   57.5060   32.4690   44.8724 H   0  0  0  0  0  0  0  0  0  0  0  0
   56.6439   33.5313   46.0852 H   0  0  0  0  0  0  0  0  0  0  0  0
   58.4700   34.3510   45.3200 C   0  0  0  0  0  0  0  0  0  0  0  0
   58.8349   34.1833   44.2959 H   0  0  0  0  0  0  0  0  0  0  0  0
   57.8307   35.2433   45.3904 H   0  0  0  0  0  0  0  0  0  0  0  0
   59.6770   34.5830   46.2350 C   0  0  0  0  0  0  0  0  0  0  0  0
   60.3093   35.3749   45.8070 H   0  0  0  0  0  0  0  0  0  0  0  0
   59.3175   34.8827   47.2305 H   0  0  0  0  0  0  0  0  0  0  0  0
   60.5050   33.2900   46.3710 C   0  0  1  0  0  0  0  0  0  0  0  0
   60.9798   33.0898   45.3991 H   0  0  0  0  0  0  0  0  0  0  0  0
   61.5850   33.4700   47.4280 C   0  0  0  0  0  0  0  0  0  0  0  0
   61.2890   33.9000   48.7490 C   0  0  0  0  0  0  0  0  0  0  0  0
   59.8840   34.1910   49.2080 C   0  0  0  0  0  0  0  0  0  0  0  0
   59.8515   34.1977   50.3075 H   0  0  0  0  0  0  0  0  0  0  0  0
   59.5695   35.1734   48.8258 H   0  0  0  0  0  0  0  0  0  0  0  0
   59.2052   33.4144   48.8258 H   0  0  0  0  0  0  0  0  0  0  0  0
   62.3460   34.0600   49.6580 C   0  0  0  0  0  0  0  0  0  0  0  0
   62.1389   34.4074   50.6809 H   0  0  0  0  0  0  0  0  0  0  0  0
   63.6550   33.7820   49.2740 C   0  0  0  0  0  0  0  0  0  0  0  0
   64.4829   33.9136   49.9862 H   0  0  0  0  0  0  0  0  0  0  0  0
   63.9050   33.3360   47.9800 C   0  0  0  0  0  0  0  0  0  0  0  0
   64.9347   33.1047   47.6699 H   0  0  0  0  0  0  0  0  0  0  0  0
   62.8830   33.1850   47.0980 N   0  0  0  0  0  0  0  0  0  0  0  0
   63.1120   32.8330   46.1430 H   0  0  0  0  0  0  0  0  0  0  0  0
   59.2670   28.4760   46.9900 C   0  0  0  0  0  0  0  0  0  0  0  0
   59.7378   28.2777   47.9642 H   0  0  0  0  0  0  0  0  0  0  0  0
   58.4240   27.6310   46.2890 C   0  0  0  0  0  0  0  0  0  0  0  0
   58.0380   26.4210   46.7240 C   0  0  0  0  0  0  0  0  0  0  0  0
   58.7730   25.8094   47.2678 H   0  0  0  0  0  0  0  0  0  0  0  0
   56.6910   25.8620   46.5180 C   0  0  0  0  0  0  0  0  0  0  0  0
   56.3950   24.5640   46.7060 N   0  0  0  0  0  0  0  0  0  0  0  0
   55.1020   24.4780   46.3250 C   0  0  0  0  0  0  0  0  0  0  0  0
   54.4530   23.4020   46.3700 O   0  0  0  0  0  0  0  0  0  0  0  0
   54.5650   25.6340   45.8800 N   0  0  0  0  0  0  0  0  0  0  0  0
   55.5860   26.4980   45.9970 C   0  0  0  0  0  0  0  0  0  0  0  0
   55.5190   27.8250   45.5890 O   0  0  0  0  0  0  0  0  0  0  0  0
   58.0110   28.2200   45.1460 N   0  0  0  0  0  0  0  0  0  0  0  0
   57.3170   27.8510   44.4570 H   0  0  0  0  0  0  0  0  0  0  0  0
  1  2  1  0
  2  3  1  0
  2  4  2  0
  4  5  1  0
  5  6  1  0
  6  7  2  0
  6  8  1  0
  8  9  1  0
  9 10  1  0
  9 11  1  0
  9 12  1  0
 12 13  1  0
 12 14  1  0
 12 15  1  0
 15 16  1  0
 15 17  1  0
 15 18  1  0
 18 19  1  0
 18 20  1  0
 18 21  1  0
 21 22  1  6
 21 23  1  0
 23 24  2  0
 24 25  1  0
 25 26  1  0
 25 27  1  0
 25 28  1  0
 24 29  1  0
 29 30  1  0
 29 31  2  0
 31 32  1  0
 31 33  1  0
 33 34  1  0
 33 35  2  0
 35 36  1  0
  5 37  2  0
 37 38  1  0
 37 39  1  0
 39 40  2  0
 40 41  1  0
 40 42  1  0
 42 43  1  0
 43 44  1  0
 44 45  2  0
 44 46  1  0
 46 47  1  0
 47 48  1  0
 39 49  1  0
 49 50  1  0
 49  4  1  0
 21  8  1  0
 35 23  1  0
 47 42  2  0
M  CHG  4  35   1  43  -1  46  -1  48  -1
M  END
>  <UniqueID>  (25) 
23

>  <SMILES>  (25) 
C=c1[nH]/c(=C\c2[n-]c(=O)[n-]c2[O-])cc1C(=O)N1CCCC[C@H]1c1[nH+]cccc1C

>  <Energy>  (25) 
122.83067243841866

>  <Genealogy>  (25) 
C=c1[nH]c(=Cc2[n-]c(=O)[n-]c2[O-])cc1C(=O)N1CCCCC1c1[nH+]cccc1C (protonated)
C=c1[nH]c(=Cc2[n-]c(=O)[n-]c2[O-])cc1C(=O)N1CCCC[C@H]1c1[nH+]cccc1C (chirality)
C=c1[nH]/c(=C\c2[n-]c(=O)[n-]c2[O-])cc1C(=O)N1CCCC[C@H]1c1[nH+]cccc1C (cis-trans isomerization)
C=c1[nH]/c(=C\c2[n-]c(=O)[n-]c2[O-])cc1C(=O)N1CCCC[C@H]1c1[nH+]cccc1C (3D coordinates assigned)
C=c1[nH]/c(=C\c2[n-]c(=O)[n-]c2[O-])cc1C(=O)N1CCCC[C@H]1c1[nH+]cccc1C (nonaromatic ring conformer: 122.83067243841866 kcal/mol)

>  <smiles>  (25) 
C=c1[nH]c(=Cc2[nH]c(=O)[nH]c2O)cc1C(=O)N1CCCCC1c1ncccc1C

>  <score_type>  (25) 
oracle

>  <origin>  (25) 
adg

>  <m_score__min__energy>  (25) 
-16.170000000000002

>  <m_primary>  (25) 
energy

$$$$
25:0
     RDKit          3D

 44 47  0  0  0  0  0  0  0  0999 V2000
   59.2830   34.4510   44.8410 O   0  0  0  0  0  0  0  0  0  0  0  0
   58.3840   33.8760   45.5110 C   0  0  0  0  0  0  0  0  0  0  0  0
   57.0910   33.5090   44.8570 C   0  0  0  0  0  0  0  0  0  0  0  0
   56.7580   32.1040   45.0820 N   0  0  0  0  0  0  0  0  0  0  0  0
   57.0240   30.9960   44.2080 C   0  0  0  0  0  0  0  0  0  0  0  0
   56.9020   31.1720   42.9680 O   0  0  0  0  0  0  0  0  0  0  0  0
   57.4650   29.6690   44.6990 C   0  0  0  0  0  0  0  0  0  0  0  0
   58.8300   29.3970   44.8750 C   0  0  0  0  0  0  0  0  0  0  0  0
   59.2540   28.1530   45.3420 C   0  0  0  0  0  0  0  0  0  0  0  0
   58.3170   27.1740   45.6920 C   0  0  0  0  0  0  0  0  0  0  0  0
   58.7410   25.9270   46.1790 C   0  0  0  0  0  0  0  0  0  0  0  0
   57.8030   24.9680   46.5660 C   0  0  0  0  0  0  0  0  0  0  0  0
   56.4380   25.2450   46.4750 C   0  0  0  0  0  0  0  0  0  0  0  0
   56.0010   26.4780   45.9830 C   0  0  0  0  0  0  0  0  0  0  0  0
   56.9320   27.4520   45.5760 C   0  0  0  0  0  0  0  0  0  0  0  0
   56.5130   28.6960   45.0660 C   0  0  0  0  0  0  0  0  0  0  0  0
   55.1540   28.9660   44.9160 O   0  0  0  0  0  0  0  0  0  0  0  0
   58.5620   33.6320   46.9090 N   0  0  0  0  0  0  0  0  0  0  0  0
   59.1720   34.5850   47.8280 C   0  0  0  0  0  0  0  0  0  0  0  0
   60.5980   34.2190   48.1020 C   0  0  0  0  0  0  0  0  0  0  0  0
   61.4120   33.8450   47.0780 N   0  0  0  0  0  0  0  0  0  0  0  0
   62.6960   33.4640   47.2970 C   0  0  0  0  0  0  0  0  0  0  0  0
   63.4150   33.1270   46.3200 O   0  0  0  0  0  0  0  0  0  0  0  0
   63.2030   33.4470   48.6070 C   0  0  0  0  0  0  0  0  0  0  0  0
   64.5210   33.0570   48.9030 C   0  0  0  0  0  0  0  0  0  0  0  0
   64.9800   33.0900   50.2240 C   0  0  0  0  0  0  0  0  0  0  0  0
   64.1310   33.5080   51.2530 C   0  0  0  0  0  0  0  0  0  0  0  0
   62.8160   33.8860   50.9690 C   0  0  0  0  0  0  0  0  0  0  0  0
   62.3470   33.8570   49.6520 C   0  0  0  0  0  0  0  0  0  0  0  0
   61.0710   34.2260   49.3750 N   0  0  0  0  0  0  0  0  0  0  0  0
   56.2893   34.1375   45.2720 H   0  0  0  0  0  0  0  0  0  0  0  0
   57.1935   33.6707   43.7738 H   0  0  0  0  0  0  0  0  0  0  0  0
   59.5739   30.1732   44.6422 H   0  0  0  0  0  0  0  0  0  0  0  0
   60.3292   27.9405   45.4356 H   0  0  0  0  0  0  0  0  0  0  0  0
   59.8156   25.7050   46.2558 H   0  0  0  0  0  0  0  0  0  0  0  0
   58.1406   23.9916   46.9436 H   0  0  0  0  0  0  0  0  0  0  0  0
   55.7034   24.4900   46.7917 H   0  0  0  0  0  0  0  0  0  0  0  0
   54.9235   26.6884   45.9135 H   0  0  0  0  0  0  0  0  0  0  0  0
   59.1366   35.5899   47.3819 H   0  0  0  0  0  0  0  0  0  0  0  0
   58.6145   34.5679   48.7761 H   0  0  0  0  0  0  0  0  0  0  0  0
   65.1911   32.7260   48.0959 H   0  0  0  0  0  0  0  0  0  0  0  0
   66.0119   32.7862   50.4538 H   0  0  0  0  0  0  0  0  0  0  0  0
   64.4991   33.5394   52.2891 H   0  0  0  0  0  0  0  0  0  0  0  0
   62.1489   34.2068   51.7826 H   0  0  0  0  0  0  0  0  0  0  0  0
  1  2  2  0
  2  3  1  0
  3  4  1  0
  4  5  1  0
  5  6  2  0
  5  7  1  0
  7  8  2  0
  8  9  1  0
  9 10  2  0
 10 11  1  0
 11 12  2  0
 12 13  1  0
 13 14  2  0
 14 15  1  0
 15 16  2  0
 16 17  1  0
  2 18  1  0
 18 19  1  0
 19 20  1  0
 20 21  2  0
 21 22  1  0
 22 23  2  0
 22 24  1  0
 24 25  2  0
 25 26  1  0
 26 27  2  0
 27 28  1  0
 28 29  2  0
 29 30  1  0
 16  7  1  0
 30 20  1  0
 15 10  1  0
 29 24  1  0
  3 31  1  0
  3 32  1  0
  8 33  1  0
  9 34  1  0
 11 35  1  0
 12 36  1  0
 13 37  1  0
 14 38  1  0
 19 39  1  0
 19 40  1  0
 25 41  1  0
 26 42  1  0
 27 43  1  0
 28 44  1  0
M  CHG  4   4  -1  17  -1  18  -1  30  -1
M  END
>  <UniqueID>  (26) 
24

>  <SMILES>  (26) 
O=C(C[N-]C(=O)c1ccc2ccccc2c1[O-])[N-]Cc1nc(=O)c2ccccc2[n-]1

>  <Energy>  (26) 
51.77082768833407

>  <Genealogy>  (26) 
O=C(C[N-]C(=O)c1ccc2ccccc2c1[O-])[N-]Cc1nc(=O)c2ccccc2[n-]1 (protonated)
O=C(C[N-]C(=O)c1ccc2ccccc2c1[O-])[N-]Cc1nc(=O)c2ccccc2[n-]1 (3D coordinates assigned)
O=C(C[N-]C(=O)c1ccc2ccccc2c1[O-])[N-]Cc1nc(=O)c2ccccc2[n-]1 (optimized conformer: 51.77082768833407 kcal/mol)

>  <smiles>  (26) 
O=C(CNC(=O)c1ccc2ccccc2c1O)NCc1nc(=O)c2ccccc2[nH]1

>  <score_type>  (26) 
oracle

>  <origin>  (26) 
adg

>  <m_score__min__energy>  (26) 
-16.199999999999999

>  <m_primary>  (26) 
energy

$$$$
26:0
     RDKit          3D

 47 50  0  0  0  0  0  0  0  0999 V2000
   55.8280   25.4160   46.7200 O   0  0  0  0  0  0  0  0  0  0  0  0
   56.4750   26.3930   46.2620 C   0  0  0  0  0  0  0  0  0  0  0  0
   57.9770   26.3890   46.3160 C   0  0  0  0  0  0  0  0  0  0  0  0
   58.5420   27.7470   46.2100 N   0  0  0  0  0  0  0  0  0  0  0  0
   59.9200   27.9710   46.6720 C   0  0  0  0  0  0  0  0  0  0  0  0
   60.0640   29.3470   47.2690 C   0  0  0  0  0  0  0  0  0  0  0  0
   60.9090   30.2920   46.6660 C   0  0  0  0  0  0  0  0  0  0  0  0
   61.0250   31.5790   47.2000 C   0  0  0  0  0  0  0  0  0  0  0  0
   60.2930   31.9380   48.3390 C   0  0  0  0  0  0  0  0  0  0  0  0
   60.4670   33.5540   49.0200 S   0  0  0  0  0  0  0  0  0  0  0  0
   59.4770   33.7450   50.1360 O   0  0  0  0  0  0  0  0  0  0  0  0
   60.1780   34.5660   47.9470 O   0  0  0  0  0  0  0  0  0  0  0  0
   62.0940   33.7720   49.6120 N   0  0  0  0  0  0  0  0  0  0  0  0
   62.3570   32.8420   50.7230 C   0  0  0  0  0  0  0  0  0  0  0  0
   63.8080   32.9990   51.2360 C   0  0  0  0  0  0  0  0  0  0  0  0
   64.5870   33.8440   50.4070 O   0  0  0  0  0  0  0  0  0  0  0  0
   64.5020   33.4070   49.0660 C   0  0  0  0  0  0  0  0  0  0  0  0
   63.0690   33.5740   48.5200 C   0  0  0  0  0  0  0  0  0  0  0  0
   59.4560   30.9940   48.9500 C   0  0  0  0  0  0  0  0  0  0  0  0
   59.3390   29.7080   48.4170 C   0  0  0  0  0  0  0  0  0  0  0  0
   57.8420   28.7770   45.4780 C   0  0  0  0  0  0  0  0  0  0  0  0
   58.4850   29.9150   45.0890 N   0  0  0  0  0  0  0  0  0  0  0  0
   57.8500   30.9070   44.4110 C   0  0  0  0  0  0  0  0  0  0  0  0
   58.4870   31.9370   44.0660 O   0  0  0  0  0  0  0  0  0  0  0  0
   56.4930   30.7820   44.0970 C   0  0  0  0  0  0  0  0  0  0  0  0
   55.8050   29.6350   44.4930 C   0  0  0  0  0  0  0  0  0  0  0  0
   56.4780   28.6250   45.1850 C   0  0  0  0  0  0  0  0  0  0  0  0
   55.7790   27.4630   45.6230 N   0  0  0  0  0  0  0  0  0  0  0  0
   58.2959   25.9462   47.2711 H   0  0  0  0  0  0  0  0  0  0  0  0
   58.3440   25.8029   45.4606 H   0  0  0  0  0  0  0  0  0  0  0  0
   60.1724   27.2186   47.4337 H   0  0  0  0  0  0  0  0  0  0  0  0
   60.6000   27.8856   45.8116 H   0  0  0  0  0  0  0  0  0  0  0  0
   61.4830   30.0185   45.7684 H   0  0  0  0  0  0  0  0  0  0  0  0
   61.6932   32.3119   46.7242 H   0  0  0  0  0  0  0  0  0  0  0  0
   62.1690   34.7550   49.9660 H   0  0  0  0  0  0  0  0  0  0  0  0
   61.6582   33.0552   51.5454 H   0  0  0  0  0  0  0  0  0  0  0  0
   62.2191   31.8121   50.3621 H   0  0  0  0  0  0  0  0  0  0  0  0
   63.7799   33.4268   52.2490 H   0  0  0  0  0  0  0  0  0  0  0  0
   64.2744   32.0028   51.2311 H   0  0  0  0  0  0  0  0  0  0  0  0
   65.1932   34.0006   48.4497 H   0  0  0  0  0  0  0  0  0  0  0  0
   64.7698   32.3408   49.0272 H   0  0  0  0  0  0  0  0  0  0  0  0
   63.0403   34.4477   47.8523 H   0  0  0  0  0  0  0  0  0  0  0  0
   62.7974   32.6571   47.9764 H   0  0  0  0  0  0  0  0  0  0  0  0
   58.8893   31.2668   49.8524 H   0  0  0  0  0  0  0  0  0  0  0  0
   58.6759   28.9743   48.8986 H   0  0  0  0  0  0  0  0  0  0  0  0
   55.9742   31.5790   43.5441 H   0  0  0  0  0  0  0  0  0  0  0  0
   54.7353   29.5260   44.2610 H   0  0  0  0  0  0  0  0  0  0  0  0
  1  2  2  0
  2  3  1  0
  3  4  1  0
  4  5  1  0
  5  6  1  0
  6  7  2  0
  7  8  1  0
  8  9  2  0
  9 10  1  0
 10 11  2  0
 10 12  2  0
 10 13  1  0
 13 14  1  0
 14 15  1  0
 15 16  1  0
 16 17  1  0
 17 18  1  0
  9 19  1  0
 19 20  2  0
  4 21  1  0
 21 22  1  0
 22 23  1  0
 23 24  2  0
 23 25  1  0
 25 26  2  0
 26 27  1  0
 27 28  1  0
 28  2  1  0
 20  6  1  0
 27 21  2  0
 18 13  1  0
  3 29  1  0
  3 30  1  0
  5 31  1  0
  5 32  1  0
  7 33  1  0
  8 34  1  0
 13 35  1  0
 14 36  1  0
 14 37  1  0
 15 38  1  0
 15 39  1  0
 17 40  1  0
 17 41  1  0
 18 42  1  0
 18 43  1  0
 19 44  1  0
 20 45  1  0
 25 46  1  0
 26 47  1  0
M  CHG  3  13   1  22  -1  28  -1
M  END
>  <UniqueID>  (27) 
25

>  <SMILES>  (27) 
O=C1CN(Cc2ccc(S(=O)(=O)[NH+]3CCOCC3)cc2)c2[n-]c(=O)ccc2[N-]1

>  <Energy>  (27) 
57.82719613152462

>  <Genealogy>  (27) 
O=C1CN(Cc2ccc(S(=O)(=O)[NH+]3CCOCC3)cc2)c2[n-]c(=O)ccc2[N-]1 (protonated)
O=C1CN(Cc2ccc(S(=O)(=O)[NH+]3CCOCC3)cc2)c2[n-]c(=O)ccc2[N-]1 (3D coordinates assigned)
O=C1CN(Cc2ccc(S(=O)(=O)[NH+]3CCOCC3)cc2)c2[n-]c(=O)ccc2[N-]1 (nonaromatic ring conformer: 57.82719613152462 kcal/mol)

>  <smiles>  (27) 
O=C1CN(Cc2ccc(S(=O)(=O)N3CCOCC3)cc2)c2[nH]c(=O)ccc2N1

>  <score_type>  (27) 
oracle

>  <origin>  (27) 
adg

>  <m_score__min__energy>  (27) 
-9.9700000000000006

>  <m_primary>  (27) 
energy

$$$$
27:0
     RDKit          3D

 31 33  0  0  0  0  0  0  0  0999 V2000
   57.7520   27.0770   43.6220 O   0  0  0  0  0  0  0  0  0  0  0  0
   57.4480   27.6830   44.6850 C   0  0  0  0  0  0  0  0  0  0  0  0
   57.9610   27.1700   46.0090 C   0  0  0  0  0  0  0  0  0  0  0  0
   57.2410   25.9300   46.4570 C   0  0  0  0  0  0  0  0  0  0  0  0
   57.8530   24.8620   46.9970 N   0  0  0  0  0  0  0  0  0  0  0  0
   56.8290   24.0250   47.2760 C   0  0  0  0  0  0  0  0  0  0  0  0
   57.0010   22.8940   47.7980 O   0  0  0  0  0  0  0  0  0  0  0  0
   55.6060   24.4990   46.9540 N   0  0  0  0  0  0  0  0  0  0  0  0
   55.8810   25.7090   46.4410 C   0  0  0  0  0  0  0  0  0  0  0  0
   54.9060   26.5880   45.9800 O   0  0  0  0  0  0  0  0  0  0  0  0
   56.6050   28.8440   44.5820 N   0  0  0  0  0  0  0  0  0  0  0  0
   56.9630   30.0680   44.3280 C   0  0  0  0  0  0  0  0  0  0  0  0
   57.5090   30.9110   45.2300 N   0  0  0  0  0  0  0  0  0  0  0  0
   57.7630   32.1390   44.6980 C   0  0  0  0  0  0  0  0  0  0  0  0
   58.3890   33.2170   45.5070 C   0  0  0  0  0  0  0  0  0  0  0  0
   58.3660   33.1890   46.9150 C   0  0  0  0  0  0  0  0  0  0  0  0
   58.9570   34.2190   47.6550 C   0  0  0  0  0  0  0  0  0  0  0  0
   59.5780   35.2850   47.0000 C   0  0  0  0  0  0  0  0  0  0  0  0
   59.6130   35.3220   45.6060 C   0  0  0  0  0  0  0  0  0  0  0  0
   59.0260   34.2950   44.8610 C   0  0  0  0  0  0  0  0  0  0  0  0
   57.4080   32.2660   43.3500 C   0  0  0  0  0  0  0  0  0  0  0  0
   56.7600   30.8000   42.8350 S   0  0  0  0  0  0  0  0  0  0  0  0
   59.0321   26.9405   45.9085 H   0  0  0  0  0  0  0  0  0  0  0  0
   57.7869   27.9515   46.7633 H   0  0  0  0  0  0  0  0  0  0  0  0
   55.1510   27.4740   45.5580 H   0  0  0  0  0  0  0  0  0  0  0  0
   57.8799   32.3514   47.4366 H   0  0  0  0  0  0  0  0  0  0  0  0
   58.9325   34.1892   48.7543 H   0  0  0  0  0  0  0  0  0  0  0  0
   60.0395   36.0953   47.5835 H   0  0  0  0  0  0  0  0  0  0  0  0
   60.1037   36.1614   45.0916 H   0  0  0  0  0  0  0  0  0  0  0  0
   59.0617   34.3288   43.7621 H   0  0  0  0  0  0  0  0  0  0  0  0
   57.5312   33.1684   42.7332 H   0  0  0  0  0  0  0  0  0  0  0  0
  1  2  2  0
  2  3  1  0
  3  4  1  0
  4  5  1  0
  5  6  1  0
  6  7  2  0
  6  8  1  0
  8  9  1  0
  9 10  1  0
  2 11  1  0
 11 12  2  3
 12 13  1  0
 13 14  1  0
 14 15  1  0
 15 16  2  0
 16 17  1  0
 17 18  2  0
 18 19  1  0
 19 20  2  0
 14 21  2  0
 21 22  1  0
  9  4  2  0
 22 12  1  0
 20 15  1  0
  3 23  1  0
  3 24  1  0
 10 25  1  0
 16 26  1  0
 17 27  1  0
 18 28  1  0
 19 29  1  0
 20 30  1  0
 21 31  1  0
M  CHG  3   5  -1   8  -1  13  -1
M  END
>  <UniqueID>  (28) 
26

>  <SMILES>  (28) 
O=C(Cc1[n-]c(=O)[n-]c1O)N=c1[n-]c(-c2ccccc2)cs1

>  <Energy>  (28) 
97.36505628762922

>  <Genealogy>  (28) 
O=C(Cc1[n-]c(=O)[n-]c1O)N=c1[n-]c(-c2ccccc2)cs1 (protonated)
O=C(Cc1[n-]c(=O)[n-]c1O)N=c1[n-]c(-c2ccccc2)cs1 (3D coordinates assigned)
O=C(Cc1[n-]c(=O)[n-]c1O)N=c1[n-]c(-c2ccccc2)cs1 (optimized conformer: 97.36505628762922 kcal/mol)

>  <smiles>  (28) 
O=C(Cc1[nH]c(=O)[nH]c1O)N=c1[nH]c(-c2ccccc2)cs1

>  <score_type>  (28) 
oracle

>  <origin>  (28) 
adg

>  <m_score__min__energy>  (28) 
-13.859999999999999

>  <m_primary>  (28) 
energy

$$$$
28:0
     RDKit          3D

 51 53  0  0  0  0  0  0  0  0999 V2000
   61.9140   30.5600   49.3400 C   0  0  0  0  0  0  0  0  0  0  0  0
   62.0700   31.6870   48.3480 C   0  0  0  0  0  0  0  0  0  0  0  0
   63.3000   32.3810   48.2890 C   0  0  0  0  0  0  0  0  0  0  0  0
   64.3650   31.9890   49.1710 N   0  0  0  0  0  0  0  0  0  0  0  0
   64.8690   32.8270   50.6040 S   0  0  0  0  0  0  0  0  0  0  0  0
   66.6160   33.1640   50.5350 C   0  0  0  0  0  0  0  0  0  0  0  0
   64.1310   34.1330   50.6830 O   0  0  0  0  0  0  0  0  0  0  0  0
   64.5370   32.0110   51.8210 O   0  0  0  0  0  0  0  0  0  0  0  0
   63.4570   33.4380   47.3740 C   0  0  0  0  0  0  0  0  0  0  0  0
   62.4100   33.8070   46.5330 C   0  0  0  0  0  0  0  0  0  0  0  0
   61.1950   33.1300   46.5880 C   0  0  0  0  0  0  0  0  0  0  0  0
   61.0100   32.0710   47.4860 C   0  0  0  0  0  0  0  0  0  0  0  0
   59.7360   31.4040   47.5090 N   0  0  0  0  0  0  0  0  0  0  0  0
   58.5500   32.1520   47.9530 C   0  0  0  0  0  0  0  0  0  0  0  0
   58.6680   32.5260   49.4070 C   0  0  0  0  0  0  0  0  0  0  0  0
   59.5810   33.5130   49.8130 C   0  0  0  0  0  0  0  0  0  0  0  0
   59.7310   33.8190   51.1680 C   0  0  0  0  0  0  0  0  0  0  0  0
   58.9710   33.1470   52.1310 C   0  0  0  0  0  0  0  0  0  0  0  0
   59.1300   33.4630   53.4780 O   0  0  0  0  0  0  0  0  0  0  0  0
   58.0570   32.1630   51.7310 C   0  0  0  0  0  0  0  0  0  0  0  0
   57.9080   31.8520   50.3770 C   0  0  0  0  0  0  0  0  0  0  0  0
   59.5730   30.1710   46.7260 C   0  0  0  0  0  0  0  0  0  0  0  0
   58.4880   30.3380   45.6990 C   0  0  0  0  0  0  0  0  0  0  0  0
   58.6100   31.3100   44.6920 C   0  0  0  0  0  0  0  0  0  0  0  0
   57.5820   31.4930   43.7620 C   0  0  0  0  0  0  0  0  0  0  0  0
   56.4260   30.7110   43.8320 C   0  0  0  0  0  0  0  0  0  0  0  0
   56.2970   29.7420   44.8320 C   0  0  0  0  0  0  0  0  0  0  0  0
   55.1460   28.9660   44.9030 O   0  0  0  0  0  0  0  0  0  0  0  0
   57.3250   29.5540   45.7620 C   0  0  0  0  0  0  0  0  0  0  0  0
   61.9696   30.9614   50.3627 H   0  0  0  0  0  0  0  0  0  0  0  0
   60.9397   30.0718   49.1901 H   0  0  0  0  0  0  0  0  0  0  0  0
   62.7190   29.8255   49.1901 H   0  0  0  0  0  0  0  0  0  0  0  0
   67.0152   33.2410   51.5571 H   0  0  0  0  0  0  0  0  0  0  0  0
   67.1261   32.3477   50.0026 H   0  0  0  0  0  0  0  0  0  0  0  0
   66.7859   34.1115   50.0026 H   0  0  0  0  0  0  0  0  0  0  0  0
   64.4143   33.9773   47.3224 H   0  0  0  0  0  0  0  0  0  0  0  0
   62.5437   34.6363   45.8228 H   0  0  0  0  0  0  0  0  0  0  0  0
   60.3733   33.4291   45.9207 H   0  0  0  0  0  0  0  0  0  0  0  0
   58.4551   33.0680   47.3514 H   0  0  0  0  0  0  0  0  0  0  0  0
   57.6623   31.5155   47.8232 H   0  0  0  0  0  0  0  0  0  0  0  0
   60.1804   34.0473   49.0612 H   0  0  0  0  0  0  0  0  0  0  0  0
   60.4497   34.5916   51.4788 H   0  0  0  0  0  0  0  0  0  0  0  0
   59.9480   33.1660   53.9970 H   0  0  0  0  0  0  0  0  0  0  0  0
   57.4553   31.6341   52.4848 H   0  0  0  0  0  0  0  0  0  0  0  0
   57.1921   31.0756   50.0692 H   0  0  0  0  0  0  0  0  0  0  0  0
   60.5199   29.9376   46.2173 H   0  0  0  0  0  0  0  0  0  0  0  0
   59.2956   29.3522   47.4061 H   0  0  0  0  0  0  0  0  0  0  0  0
   59.5174   31.9292   44.6350 H   0  0  0  0  0  0  0  0  0  0  0  0
   57.6834   32.2538   42.9740 H   0  0  0  0  0  0  0  0  0  0  0  0
   55.6176   30.8576   43.1006 H   0  0  0  0  0  0  0  0  0  0  0  0
   57.2217   28.7890   46.5456 H   0  0  0  0  0  0  0  0  0  0  0  0
  1  2  1  0
  2  3  2  0
  3  4  1  0
  4  5  1  0
  5  6  1  0
  5  7  2  0
  5  8  2  0
  3  9  1  0
  9 10  2  0
 10 11  1  0
 11 12  2  0
 12 13  1  0
 13 14  1  0
 14 15  1  0
 15 16  2  0
 16 17  1  0
 17 18  2  0
 18 19  1  0
 18 20  1  0
 20 21  2  0
 13 22  1  0
 22 23  1  0
 23 24  2  0
 24 25  1  0
 25 26  2  0
 26 27  1  0
 27 28  1  0
 27 29  2  0
 12  2  1  0
 21 15  1  0
 29 23  1  0
  1 30  1  0
  1 31  1  0
  1 32  1  0
  6 33  1  0
  6 34  1  0
  6 35  1  0
  9 36  1  0
 10 37  1  0
 11 38  1  0
 14 39  1  0
 14 40  1  0
 16 41  1  0
 17 42  1  0
 19 43  1  0
 20 44  1  0
 21 45  1  0
 22 46  1  0
 22 47  1  0
 24 48  1  0
 25 49  1  0
 26 50  1  0
 29 51  1  0
M  CHG  2   4  -1  28  -1
M  END
>  <UniqueID>  (29) 
27

>  <SMILES>  (29) 
Cc1c([N-]S(C)(=O)=O)cccc1N(Cc1ccc(O)cc1)Cc1cccc([O-])c1

>  <Energy>  (29) 
53.92482423324283

>  <Genealogy>  (29) 
Cc1c([N-]S(C)(=O)=O)cccc1N(Cc1ccc(O)cc1)Cc1cccc([O-])c1 (protonated)
Cc1c([N-]S(C)(=O)=O)cccc1N(Cc1ccc(O)cc1)Cc1cccc([O-])c1 (3D coordinates assigned)
Cc1c([N-]S(C)(=O)=O)cccc1N(Cc1ccc(O)cc1)Cc1cccc([O-])c1 (optimized conformer: 53.92482423324283 kcal/mol)

>  <smiles>  (29) 
Cc1c(NS(C)(=O)=O)cccc1N(Cc1ccc(O)cc1)Cc1cccc(O)c1

>  <score_type>  (29) 
oracle

>  <origin>  (29) 
adg

>  <m_score__min__energy>  (29) 
-12.369999999999999

>  <m_primary>  (29) 
energy

$$$$
29:0
     RDKit          3D

 51 54  0  0  0  0  0  0  0  0999 V2000
   56.1240   32.2900   52.3620 C   0  0  0  0  0  0  0  0  0  0  0  0
   55.7480   31.0430   52.6920 C   0  0  0  0  0  0  0  0  0  0  0  0
   54.4280   30.5740   52.7550 C   0  0  0  0  0  0  0  0  0  0  0  0
   53.3040   31.2610   52.4580 C   0  0  0  0  0  0  0  0  0  0  0  0
   52.5460   31.1380   51.1960 C   0  0  0  0  0  0  0  0  0  0  0  0
   52.6560   29.8920   50.0590 S   0  0  0  0  0  0  0  0  0  0  0  0
   51.3830   30.4930   49.1420 C   0  0  0  0  0  0  0  0  0  0  0  0
   50.9650   29.9670   48.0790 O   0  0  0  0  0  0  0  0  0  0  0  0
   50.8430   31.6070   49.6750 N   0  0  0  0  0  0  0  0  0  0  0  0
   51.4800   31.9580   50.8230 C   0  0  0  0  0  0  0  0  0  0  0  0
   51.0840   33.0640   51.5660 O   0  0  0  0  0  0  0  0  0  0  0  0
   54.5090   29.2400   53.1230 C   0  0  0  0  0  0  0  0  0  0  0  0
   55.8470   28.9510   53.2850 C   0  0  0  0  0  0  0  0  0  0  0  0
   56.3750   27.5840   53.6040 C   0  0  0  0  0  0  0  0  0  0  0  0
   56.6070   30.0400   53.0240 N   0  0  0  0  0  0  0  0  0  0  0  0
   58.0810   30.0690   53.0320 C   0  0  0  0  0  0  0  0  0  0  0  0
   58.6210   29.9460   51.6300 C   0  0  0  0  0  0  0  0  0  0  0  0
   58.0500   30.6850   50.5820 C   0  0  0  0  0  0  0  0  0  0  0  0
   58.5410   30.5580   49.2800 C   0  0  0  0  0  0  0  0  0  0  0  0
   59.6100   29.6960   49.0100 C   0  0  0  0  0  0  0  0  0  0  0  0
   60.2290   29.5590   47.3670 S   0  0  0  0  0  0  0  0  0  0  0  0
   61.4610   30.4000   47.1880 O   0  0  0  0  0  0  0  0  0  0  0  0
   60.5750   28.1210   47.1020 O   0  0  0  0  0  0  0  0  0  0  0  0
   59.0190   30.0740   46.2350 N   0  0  0  0  0  0  0  0  0  0  0  0
   58.6940   31.4590   46.0020 C   0  0  0  0  0  0  0  0  0  0  0  0
   59.3520   32.4830   46.7120 C   0  0  0  0  0  0  0  0  0  0  0  0
   59.0360   33.8240   46.4830 C   0  0  0  0  0  0  0  0  0  0  0  0
   58.0640   34.1630   45.5400 C   0  0  0  0  0  0  0  0  0  0  0  0
   57.4080   33.1610   44.8240 C   0  0  0  0  0  0  0  0  0  0  0  0
   57.7160   31.8140   45.0460 C   0  0  0  0  0  0  0  0  0  0  0  0
   56.8310   30.5980   44.1320 Cl  0  0  0  0  0  0  0  0  0  0  0  0
   60.1840   28.9550   50.0510 C   0  0  0  0  0  0  0  0  0  0  0  0
   59.6940   29.0800   51.3550 C   0  0  0  0  0  0  0  0  0  0  0  0
   57.1912   32.5557   52.3429 H   0  0  0  0  0  0  0  0  0  0  0  0
   55.3646   33.0452   52.1110 H   0  0  0  0  0  0  0  0  0  0  0  0
   52.9242   31.9654   53.2127 H   0  0  0  0  0  0  0  0  0  0  0  0
   53.6671   28.5454   53.2595 H   0  0  0  0  0  0  0  0  0  0  0  0
   56.4246   27.4556   54.6953 H   0  0  0  0  0  0  0  0  0  0  0  0
   55.7060   26.8233   53.1753 H   0  0  0  0  0  0  0  0  0  0  0  0
   57.3817   27.4705   53.1753 H   0  0  0  0  0  0  0  0  0  0  0  0
   58.4216   31.0194   53.4687 H   0  0  0  0  0  0  0  0  0  0  0  0
   58.4494   29.2223   53.6298 H   0  0  0  0  0  0  0  0  0  0  0  0
   57.2119   31.3674   50.7867 H   0  0  0  0  0  0  0  0  0  0  0  0
   58.0854   31.1379   48.4638 H   0  0  0  0  0  0  0  0  0  0  0  0
   58.4500   29.3230   45.7880 H   0  0  0  0  0  0  0  0  0  0  0  0
   60.1219   32.2237   47.4537 H   0  0  0  0  0  0  0  0  0  0  0  0
   59.5537   34.6142   47.0465 H   0  0  0  0  0  0  0  0  0  0  0  0
   57.8154   35.2196   45.3615 H   0  0  0  0  0  0  0  0  0  0  0  0
   56.6439   33.4315   44.0804 H   0  0  0  0  0  0  0  0  0  0  0  0
   61.0218   28.2734   49.8425 H   0  0  0  0  0  0  0  0  0  0  0  0
   60.1503   28.4980   52.1693 H   0  0  0  0  0  0  0  0  0  0  0  0
  1  2  2  0
  2  3  1  0
  3  4  2  3
  4  5  1  0
  5  6  1  0
  6  7  1  0
  7  8  2  0
  7  9  1  0
  9 10  1  0
 10 11  1  0
  3 12  1  0
 12 13  2  0
 13 14  1  0
 13 15  1  0
 15 16  1  0
 16 17  1  0
 17 18  2  0
 18 19  1  0
 19 20  2  0
 20 21  1  0
 21 22  2  0
 21 23  2  0
 21 24  1  0
 24 25  1  0
 25 26  2  0
 26 27  1  0
 27 28  2  0
 28 29  1  0
 29 30  2  0
 30 31  1  0
 20 32  1  0
 32 33  2  0
 15  2  1  0
 33 17  1  0
 10  5  2  0
 30 25  1  0
  1 34  1  0
  1 35  1  0
  4 36  1  0
 12 37  1  0
 14 38  1  0
 14 39  1  0
 14 40  1  0
 16 41  1  0
 16 42  1  0
 18 43  1  0
 19 44  1  0
 24 45  1  0
 26 46  1  0
 27 47  1  0
 28 48  1  0
 29 49  1  0
 32 50  1  0
 33 51  1  0
M  CHG  2   9  -1  11  -1
M  END
>  <UniqueID>  (30) 
28

>  <SMILES>  (30) 
C=c1c(=Cc2sc(=O)[n-]c2[O-])cc(C)n1Cc1ccc(S(=O)(=O)Nc2ccccc2Cl)cc1

>  <Energy>  (30) 
124.62511644965883

>  <Genealogy>  (30) 
C=c1c(=Cc2sc(=O)[n-]c2[O-])cc(C)n1Cc1ccc(S(=O)(=O)Nc2ccccc2Cl)cc1 (protonated)
C=c1c(=Cc2sc(=O)[n-]c2[O-])cc(C)n1Cc1ccc(S(=O)(=O)Nc2ccccc2Cl)cc1 (3D coordinates assigned)
C=c1c(=Cc2sc(=O)[n-]c2[O-])cc(C)n1Cc1ccc(S(=O)(=O)Nc2ccccc2Cl)cc1 (optimized conformer: 124.62511644965883 kcal/mol)

>  <smiles>  (30) 
C=c1c(=Cc2sc(=O)[nH]c2O)cc(C)n1Cc1ccc(S(=O)(=O)Nc2ccccc2Cl)cc1

>  <score_type>  (30) 
oracle

>  <origin>  (30) 
adg

>  <m_score__min__energy>  (30) 
-16.190000000000001

>  <m_primary>  (30) 
energy

$$$$
30:0
     RDKit          3D

 32 34  0  0  0  0  0  0  0  0999 V2000
   59.2210   28.2240   46.7560 C   0  0  0  0  0  0  0  0  0  0  0  0
   58.5090   27.2080   46.2680 C   0  0  0  0  0  0  0  0  0  0  0  0
   58.0760   26.1780   47.0210 N   0  0  0  0  0  0  0  0  0  0  0  0
   57.3790   25.3610   46.2040 C   0  0  0  0  0  0  0  0  0  0  0  0
   56.7720   24.2430   46.6300 C   0  0  0  0  0  0  0  0  0  0  0  0
   55.4440   23.7990   46.1490 C   0  0  0  0  0  0  0  0  0  0  0  0
   54.4530   24.7360   45.7930 C   0  0  0  0  0  0  0  0  0  0  0  0
   54.6900   26.1100   45.8330 O   0  0  0  0  0  0  0  0  0  0  0  0
   53.2330   24.2990   45.3850 N   0  0  0  0  0  0  0  0  0  0  0  0
   52.9410   22.9760   45.3180 C   0  0  0  0  0  0  0  0  0  0  0  0
   51.8040   22.6010   44.9320 O   0  0  0  0  0  0  0  0  0  0  0  0
   53.8730   22.0560   45.6720 N   0  0  0  0  0  0  0  0  0  0  0  0
   55.1090   22.4330   46.0910 C   0  0  0  0  0  0  0  0  0  0  0  0
   55.9370   21.5500   46.4410 O   0  0  0  0  0  0  0  0  0  0  0  0
   57.3600   25.8730   44.9140 C   0  0  0  0  0  0  0  0  0  0  0  0
   58.0930   27.0450   44.9510 C   0  0  0  0  0  0  0  0  0  0  0  0
   58.2730   27.9910   43.7980 C   0  0  0  0  0  0  0  0  0  0  0  0
   57.6950   29.3320   44.1300 C   0  0  0  0  0  0  0  0  0  0  0  0
   58.4700   30.8080   43.8800 S   0  0  0  0  0  0  0  0  0  0  0  0
   57.1620   31.6880   44.4630 C   0  0  0  0  0  0  0  0  0  0  0  0
   57.1290   32.9430   44.5390 O   0  0  0  0  0  0  0  0  0  0  0  0
   56.1360   30.9000   44.8490 N   0  0  0  0  0  0  0  0  0  0  0  0
   56.4320   29.5870   44.6620 C   0  0  0  0  0  0  0  0  0  0  0  0
   55.5290   28.5850   44.9890 O   0  0  0  0  0  0  0  0  0  0  0  0
   59.5465   29.0372   46.0906 H   0  0  0  0  0  0  0  0  0  0  0  0
   59.4830   28.2491   47.8240 H   0  0  0  0  0  0  0  0  0  0  0  0
   58.2380   26.0440   48.0460 H   0  0  0  0  0  0  0  0  0  0  0  0
   57.2889   23.6227   47.3770 H   0  0  0  0  0  0  0  0  0  0  0  0
   54.3920   26.7410   45.0990 H   0  0  0  0  0  0  0  0  0  0  0  0
   56.8614   25.4341   44.0372 H   0  0  0  0  0  0  0  0  0  0  0  0
   59.3462   28.1016   43.5836 H   0  0  0  0  0  0  0  0  0  0  0  0
   57.7525   27.5852   42.9180 H   0  0  0  0  0  0  0  0  0  0  0  0
  1  2  2  0
  2  3  1  0
  3  4  1  0
  4  5  2  3
  5  6  1  0
  6  7  2  0
  7  8  1  0
  7  9  1  0
  9 10  1  0
 10 11  2  0
 10 12  1  0
 12 13  1  0
 13 14  2  0
  4 15  1  0
 15 16  2  0
 16 17  1  0
 17 18  1  0
 18 19  1  0
 19 20  1  0
 20 21  2  0
 20 22  1  0
 22 23  1  0
 23 24  1  0
 16  2  1  0
 23 18  2  0
 13  6  1  0
  1 25  1  0
  1 26  1  0
  3 27  1  0
  5 28  1  0
  8 29  1  0
 15 30  1  0
 17 31  1  0
 17 32  1  0
M  CHG  4   9  -1  12  -1  22  -1  24  -1
M  END
>  <UniqueID>  (31) 
29

>  <SMILES>  (31) 
C=c1[nH]c(=Cc2c(O)[n-]c(=O)[n-]c2=O)cc1Cc1sc(=O)[n-]c1[O-]

>  <Energy>  (31) 
99.61429590289748

>  <Genealogy>  (31) 
C=c1[nH]c(=Cc2c(O)[n-]c(=O)[n-]c2=O)cc1Cc1sc(=O)[n-]c1[O-] (protonated)
C=c1[nH]c(=Cc2c(O)[n-]c(=O)[n-]c2=O)cc1Cc1sc(=O)[n-]c1[O-] (3D coordinates assigned)
C=c1[nH]c(=Cc2c(O)[n-]c(=O)[n-]c2=O)cc1Cc1sc(=O)[n-]c1[O-] (optimized conformer: 99.61429590289748 kcal/mol)

>  <smiles>  (31) 
C=c1[nH]c(=Cc2c(O)[nH]c(=O)[nH]c2=O)cc1Cc1sc(=O)[nH]c1O

>  <score_type>  (31) 
oracle

>  <origin>  (31) 
adg

>  <m_score__min__energy>  (31) 
-16.789999999999999

>  <m_primary>  (31) 
energy

$$$$
31:0
     RDKit          3D

 49 51  0  0  0  0  0  0  0  0999 V2000
   62.9370   33.8280   46.3720 C   0  0  0  0  0  0  0  0  0  0  0  0
   62.4070   33.7240   47.6890 O   0  0  0  0  0  0  0  0  0  0  0  0
   62.9970   32.9910   48.7320 C   0  0  0  0  0  0  0  0  0  0  0  0
   64.3950   32.9570   48.9120 C   0  0  0  0  0  0  0  0  0  0  0  0
   64.9580   32.2170   49.9550 C   0  0  0  0  0  0  0  0  0  0  0  0
   64.1390   31.5030   50.8280 C   0  0  0  0  0  0  0  0  0  0  0  0
   62.7530   31.5270   50.6640 C   0  0  0  0  0  0  0  0  0  0  0  0
   62.1700   32.2700   49.6230 C   0  0  0  0  0  0  0  0  0  0  0  0
   60.6700   32.2490   49.4650 C   0  0  0  0  0  0  0  0  0  0  0  0
   60.3100   32.2800   48.0490 N   0  0  0  0  0  0  0  0  0  0  0  0
   58.9740   32.5630   47.6020 C   0  0  0  0  0  0  0  0  0  0  0  0
   58.0470   32.7100   48.4440 O   0  0  0  0  0  0  0  0  0  0  0  0
   58.6550   32.6860   46.1700 C   0  0  0  0  0  0  0  0  0  0  0  0
   58.8970   33.7780   45.3530 C   0  0  0  0  0  0  0  0  0  0  0  0
   58.4260   33.4260   44.1050 C   0  0  0  0  0  0  0  0  0  0  0  0
   57.9250   32.1460   44.2410 C   0  0  0  0  0  0  0  0  0  0  0  0
   57.3290   31.3190   43.1500 C   0  0  0  0  0  0  0  0  0  0  0  0
   56.6190   29.8290   43.8290 S   0  0  0  0  0  0  0  0  0  0  0  0
   56.1840   30.0840   45.2440 O   0  0  0  0  0  0  0  0  0  0  0  0
   55.4240   29.4270   43.0100 O   0  0  0  0  0  0  0  0  0  0  0  0
   57.8280   28.5130   43.8260 C   0  0  0  0  0  0  0  0  0  0  0  0
   58.6880   28.5660   45.0640 C   0  0  0  0  0  0  0  0  0  0  0  0
   59.8260   29.3920   45.0700 C   0  0  0  0  0  0  0  0  0  0  0  0
   60.6620   29.4420   46.1880 C   0  0  0  0  0  0  0  0  0  0  0  0
   60.3740   28.6660   47.3110 C   0  0  0  0  0  0  0  0  0  0  0  0
   59.2490   27.8370   47.3190 C   0  0  0  0  0  0  0  0  0  0  0  0
   58.4050   27.7790   46.2040 C   0  0  0  0  0  0  0  0  0  0  0  0
   57.0050   26.7140   46.2780 Cl  0  0  0  0  0  0  0  0  0  0  0  0
   58.0770   31.7310   45.4780 O   0  0  0  0  0  0  0  0  0  0  0  0
   64.0151   34.0396   46.4263 H   0  0  0  0  0  0  0  0  0  0  0  0
   62.7757   32.8811   45.8360 H   0  0  0  0  0  0  0  0  0  0  0  0
   62.4298   34.6437   45.8360 H   0  0  0  0  0  0  0  0  0  0  0  0
   65.0474   33.5173   48.2261 H   0  0  0  0  0  0  0  0  0  0  0  0
   66.0498   32.1979   50.0874 H   0  0  0  0  0  0  0  0  0  0  0  0
   64.5853   30.9200   51.6471 H   0  0  0  0  0  0  0  0  0  0  0  0
   62.1119   30.9599   51.3550 H   0  0  0  0  0  0  0  0  0  0  0  0
   60.2696   31.3318   49.9215 H   0  0  0  0  0  0  0  0  0  0  0  0
   60.2448   33.1332   49.9623 H   0  0  0  0  0  0  0  0  0  0  0  0
   61.0610   32.0780   47.3530 H   0  0  0  0  0  0  0  0  0  0  0  0
   59.3678   34.7298   45.6401 H   0  0  0  0  0  0  0  0  0  0  0  0
   58.4454   34.0378   43.1911 H   0  0  0  0  0  0  0  0  0  0  0  0
   56.5434   31.8979   42.6423 H   0  0  0  0  0  0  0  0  0  0  0  0
   58.1170   31.0479   42.4320 H   0  0  0  0  0  0  0  0  0  0  0  0
   57.3062   27.5453   43.7917 H   0  0  0  0  0  0  0  0  0  0  0  0
   58.4749   28.6336   42.9446 H   0  0  0  0  0  0  0  0  0  0  0  0
   60.0600   30.0042   44.1865 H   0  0  0  0  0  0  0  0  0  0  0  0
   61.5481   30.0938   46.1829 H   0  0  0  0  0  0  0  0  0  0  0  0
   61.0329   28.7067   48.1908 H   0  0  0  0  0  0  0  0  0  0  0  0
   59.0256   27.2267   48.2065 H   0  0  0  0  0  0  0  0  0  0  0  0
  1  2  1  0
  2  3  1  0
  3  4  2  0
  4  5  1  0
  5  6  2  0
  6  7  1  0
  7  8  2  0
  8  9  1  0
  9 10  1  0
 10 11  1  0
 11 12  2  0
 11 13  1  0
 13 14  2  0
 14 15  1  0
 15 16  2  0
 16 17  1  0
 17 18  1  0
 18 19  2  0
 18 20  2  0
 18 21  1  0
 21 22  1  0
 22 23  2  0
 23 24  1  0
 24 25  2  0
 25 26  1  0
 26 27  2  0
 27 28  1  0
 16 29  1  0
  8  3  1  0
 29 13  1  0
 27 22  1  0
  1 30  1  0
  1 31  1  0
  1 32  1  0
  4 33  1  0
  5 34  1  0
  6 35  1  0
  7 36  1  0
  9 37  1  0
  9 38  1  0
 10 39  1  0
 14 40  1  0
 15 41  1  0
 17 42  1  0
 17 43  1  0
 21 44  1  0
 21 45  1  0
 23 46  1  0
 24 47  1  0
 25 48  1  0
 26 49  1  0
M  END
>  <UniqueID>  (32) 
30

>  <SMILES>  (32) 
COc1ccccc1CNC(=O)c1ccc(CS(=O)(=O)Cc2ccccc2Cl)o1

>  <Energy>  (32) 
66.18147397690706

>  <Genealogy>  (32) 
COc1ccccc1CNC(=O)c1ccc(CS(=O)(=O)Cc2ccccc2Cl)o1 (3D coordinates assigned)
COc1ccccc1CNC(=O)c1ccc(CS(=O)(=O)Cc2ccccc2Cl)o1 (optimized conformer: 66.18147397690706 kcal/mol)

>  <smiles>  (32) 
COc1ccccc1CNC(=O)c1ccc(CS(=O)(=O)Cc2ccccc2Cl)o1

>  <score_type>  (32) 
oracle

>  <origin>  (32) 
adg

>  <m_score__min__energy>  (32) 
-9.5500000000000007

>  <m_primary>  (32) 
energy

$$$$
32:0
     RDKit          3D

 50 53  0  0  1  0  0  0  0  0999 V2000
   59.4500   33.4590   50.7640 C   0  0  0  0  0  0  0  0  0  0  0  0
   58.9980   32.0990   50.5090 N   0  0  0  0  0  0  0  0  0  0  0  0
   56.7520   21.5430   43.7900 C   0  0  0  0  0  0  0  0  0  0  0  0
   57.5050   31.7300   52.2670 O   0  0  0  0  0  0  0  0  0  0  0  0
   57.9580   30.1590   50.6700 N   0  0  0  0  0  0  0  0  0  0  0  0
   58.7750   30.1470   49.5750 C   0  0  0  0  0  0  0  0  0  0  0  0
   59.0040   29.1620   48.6490 C   0  0  0  0  0  0  0  0  0  0  0  0
   59.8570   29.2700   47.5800 C   0  0  0  0  0  0  0  0  0  0  0  0
   60.2250   28.3260   46.6560 N   0  0  0  0  0  0  0  0  0  0  0  0
   59.5830   27.3400   46.2450 C   0  0  0  0  0  0  0  0  0  0  0  0
   60.1710   26.1140   46.4360 N   0  0  0  0  0  0  0  0  0  0  0  0
   59.6330   24.9800   45.9740 C   0  0  0  0  0  0  0  0  0  0  0  0
   58.4500   25.0710   45.2870 C   0  0  0  0  0  0  0  0  0  0  0  0
   57.8770   23.8230   44.7770 C   0  0  0  0  0  0  0  0  0  0  0  0
   56.6750   23.8370   44.0940 C   0  0  0  0  0  0  0  0  0  0  0  0
   56.1230   22.7070   43.6080 N   0  0  0  0  0  0  0  0  0  0  0  0
   58.1140   31.3790   51.2340 C   0  0  0  0  0  0  0  0  0  0  0  0
   56.2080   20.4590   43.3170 N   0  0  0  0  0  0  0  0  0  0  0  0
   57.9210   21.4740   44.4480 N   0  0  0  0  0  0  0  0  0  0  0  0
   58.4860   22.5970   44.9390 C   0  0  0  0  0  0  0  0  0  0  0  0
   57.8440   26.2890   45.0890 C   0  0  0  0  0  0  0  0  0  0  0  0
   58.4000   27.4920   45.5740 C   0  0  0  0  0  0  0  0  0  0  0  0
   57.6000   28.6900   45.4450 C   0  0  0  0  0  0  0  0  0  0  0  0
   57.4070   29.2220   44.0410 C   0  0  0  0  0  0  0  0  0  0  0  0
   55.9730   29.7440   43.8050 C   0  0  0  0  0  0  0  0  0  0  0  0
   55.1500   29.3500   44.8760 O   0  0  0  0  0  0  0  0  0  0  0  0
   60.5220   30.5300   47.4920 C   0  0  0  0  0  0  0  0  0  0  0  0
   60.2940   31.5120   48.4160 C   0  0  0  0  0  0  0  0  0  0  0  0
   59.4270   31.3680   49.4770 C   0  0  0  0  0  0  0  0  0  0  0  0
   59.5066   33.6292   51.8493 H   0  0  0  0  0  0  0  0  0  0  0  0
   60.4448   33.6045   50.3177 H   0  0  0  0  0  0  0  0  0  0  0  0
   58.7402   34.1710   50.3177 H   0  0  0  0  0  0  0  0  0  0  0  0
   57.3380   29.3660   50.9930 H   0  0  0  0  0  0  0  0  0  0  0  0
   58.4623   28.2126   48.7727 H   0  0  0  0  0  0  0  0  0  0  0  0
   61.0750   26.0210   46.9560 H   0  0  0  0  0  0  0  0  0  0  0  0
   60.1223   24.0088   46.1394 H   0  0  0  0  0  0  0  0  0  0  0  0
   56.1556   24.7948   43.9432 H   0  0  0  0  0  0  0  0  0  0  0  0
   56.6640   19.5260   43.3500 H   0  0  0  0  0  0  0  0  0  0  0  0
   58.3830   20.5340   44.5700 H   0  0  0  0  0  0  0  0  0  0  0  0
   59.4444   22.5332   45.4751 H   0  0  0  0  0  0  0  0  0  0  0  0
   56.8948   26.3271   44.5345 H   0  0  0  0  0  0  0  0  0  0  0  0
   56.6048   28.4744   45.8610 H   0  0  0  0  0  0  0  0  0  0  0  0
   58.1574   29.4728   45.9803 H   0  0  0  0  0  0  0  0  0  0  0  0
   58.1157   30.0466   43.8745 H   0  0  0  0  0  0  0  0  0  0  0  0
   57.5836   28.3933   43.3395 H   0  0  0  0  0  0  0  0  0  0  0  0
   55.9884   30.8419   43.7386 H   0  0  0  0  0  0  0  0  0  0  0  0
   55.5798   29.3262   42.8665 H   0  0  0  0  0  0  0  0  0  0  0  0
   54.2990   28.9620   44.5020 H   0  0  0  0  0  0  0  0  0  0  0  0
   61.2282   30.7138   46.6689 H   0  0  0  0  0  0  0  0  0  0  0  0
   60.8305   32.4660   48.3065 H   0  0  0  0  0  0  0  0  0  0  0  0
  1  2  1  0
  2  3  1  0
  3  4  2  0
  3  5  1  0
  5  6  1  0
  6  7  2  0
  7  8  1  0
  8  9  1  0
  9 10  2  0
 10 11  1  0
 11 12  1  0
 12 13  2  0
 13 14  1  0
 14 15  1  0
 15 16  2  0
 16 17  1  0
 17 18  2  3
 17 19  1  0
 19 20  1  0
 13 21  1  0
 21 22  2  0
 22 23  1  0
 23 24  1  0
 24 25  1  0
 25 26  1  0
  8 27  2  0
 27 28  1  0
 28 29  2  0
 29  2  1  0
 29  6  1  0
 22 10  1  0
 20 14  2  0
  1 30  1  0
  1 31  1  0
  1 32  1  0
  5 33  1  0
  7 34  1  0
 11 35  1  0
 12 36  1  0
 15 37  1  0
 18 38  1  0
 19 39  1  0
 20 40  1  0
 21 41  1  0
 23 42  1  0
 23 43  1  0
 24 44  1  0
 24 45  1  0
 25 46  1  0
 25 47  1  0
 26 48  1  0
 27 49  1  0
 28 50  1  0
M  END
>  <smiles>  (33) 
Cn1c(=O)[nH]c2cc(N=c3[nH]cc(-c4cnc(=N)[nH]c4)cc3CCCO)ccc21

>  <score_type>  (33) 
oracle

>  <origin>  (33) 
adg

>  <m_score__min__energy>  (33) 
-9.4700000000000006

>  <m_primary>  (33) 
energy

$$$$
33:0
     RDKit          3D

 53 56  0  0  0  0  0  0  0  0999 V2000
   62.6310   29.0980   50.9010 O   0  0  0  0  0  0  0  0  0  0  0  0
   61.4940   29.6250   51.0150 C   0  0  0  0  0  0  0  0  0  0  0  0
   60.2600   28.7740   50.9790 C   0  0  0  0  0  0  0  0  0  0  0  0
   59.9710   28.3630   49.5960 N   0  0  0  0  0  0  0  0  0  0  0  0
   60.8050   27.4710   48.9820 C   0  0  0  0  0  0  0  0  0  0  0  0
   60.6490   27.1690   47.6690 N   0  0  0  0  0  0  0  0  0  0  0  0
   59.6730   27.7430   46.9260 C   0  0  0  0  0  0  0  0  0  0  0  0
   59.5690   27.4520   45.5620 C   0  0  0  0  0  0  0  0  0  0  0  0
   58.6050   28.0940   44.7810 C   0  0  0  0  0  0  0  0  0  0  0  0
   57.7280   29.0230   45.3620 C   0  0  0  0  0  0  0  0  0  0  0  0
   56.5630   29.9000   44.3710 S   0  0  0  0  0  0  0  0  0  0  0  0
   56.8930   29.7280   42.9140 O   0  0  0  0  0  0  0  0  0  0  0  0
   55.1960   29.3290   44.6250 O   0  0  0  0  0  0  0  0  0  0  0  0
   56.5430   31.6030   44.7530 N   0  0  0  0  0  0  0  0  0  0  0  0
   57.7630   32.2850   44.3100 C   0  0  0  0  0  0  0  0  0  0  0  0
   58.3630   33.1170   45.4110 C   0  0  0  0  0  0  0  0  0  0  0  0
   58.2620   32.7070   46.7500 C   0  0  0  0  0  0  0  0  0  0  0  0
   58.8500   33.4660   47.7640 C   0  0  0  0  0  0  0  0  0  0  0  0
   59.5360   34.6410   47.4510 C   0  0  0  0  0  0  0  0  0  0  0  0
   59.6420   35.0540   46.1230 C   0  0  0  0  0  0  0  0  0  0  0  0
   59.0610   34.2960   45.1030 C   0  0  0  0  0  0  0  0  0  0  0  0
   57.8000   29.2800   46.7370 C   0  0  0  0  0  0  0  0  0  0  0  0
   58.7860   28.6560   47.5230 C   0  0  0  0  0  0  0  0  0  0  0  0
   58.9530   28.9490   48.8860 C   0  0  0  0  0  0  0  0  0  0  0  0
   58.1790   29.7730   49.4510 O   0  0  0  0  0  0  0  0  0  0  0  0
   61.3710   31.0340   51.2060 N   0  0  0  0  0  0  0  0  0  0  0  0
   60.7390   31.9330   50.2540 C   0  0  0  0  0  0  0  0  0  0  0  0
   61.7290   32.2620   49.1730 C   0  0  0  0  0  0  0  0  0  0  0  0
   62.0080   31.3230   48.1640 C   0  0  0  0  0  0  0  0  0  0  0  0
   62.8770   31.6500   47.1200 C   0  0  0  0  0  0  0  0  0  0  0  0
   63.4700   32.9140   47.0700 C   0  0  0  0  0  0  0  0  0  0  0  0
   63.1810   33.8610   48.0570 C   0  0  0  0  0  0  0  0  0  0  0  0
   62.3080   33.5390   49.1000 C   0  0  0  0  0  0  0  0  0  0  0  0
   60.4165   27.8793   51.5995 H   0  0  0  0  0  0  0  0  0  0  0  0
   59.4103   29.3543   51.3678 H   0  0  0  0  0  0  0  0  0  0  0  0
   61.6108   26.9933   49.5586 H   0  0  0  0  0  0  0  0  0  0  0  0
   60.2469   26.7169   45.1037 H   0  0  0  0  0  0  0  0  0  0  0  0
   58.5330   27.8705   43.7063 H   0  0  0  0  0  0  0  0  0  0  0  0
   58.4978   31.5310   43.9913 H   0  0  0  0  0  0  0  0  0  0  0  0
   57.5003   32.9539   43.4772 H   0  0  0  0  0  0  0  0  0  0  0  0
   57.7178   31.7847   47.0012 H   0  0  0  0  0  0  0  0  0  0  0  0
   58.7726   33.1376   48.8110 H   0  0  0  0  0  0  0  0  0  0  0  0
   59.9929   35.2411   48.2517 H   0  0  0  0  0  0  0  0  0  0  0  0
   60.1845   35.9790   45.8779 H   0  0  0  0  0  0  0  0  0  0  0  0
   59.1506   34.6235   44.0567 H   0  0  0  0  0  0  0  0  0  0  0  0
   57.0834   29.9719   47.2037 H   0  0  0  0  0  0  0  0  0  0  0  0
   59.8575   31.4449   49.8127 H   0  0  0  0  0  0  0  0  0  0  0  0
   60.4196   32.8543   50.7632 H   0  0  0  0  0  0  0  0  0  0  0  0
   61.5405   30.3278   48.1968 H   0  0  0  0  0  0  0  0  0  0  0  0
   63.0948   30.9104   46.3354 H   0  0  0  0  0  0  0  0  0  0  0  0
   64.1642   33.1641   46.2542 H   0  0  0  0  0  0  0  0  0  0  0  0
   63.6406   34.8594   48.0128 H   0  0  0  0  0  0  0  0  0  0  0  0
   62.0732   34.2905   49.8682 H   0  0  0  0  0  0  0  0  0  0  0  0
  1  2  2  0
  2  3  1  0
  3  4  1  0
  4  5  1  0
  5  6  2  0
  6  7  1  0
  7  8  2  0
  8  9  1  0
  9 10  2  0
 10 11  1  0
 11 12  2  0
 11 13  2  0
 11 14  1  0
 14 15  1  0
 15 16  1  0
 16 17  2  0
 17 18  1  0
 18 19  2  0
 19 20  1  0
 20 21  2  0
 10 22  1  0
 22 23  2  0
 23 24  1  0
 24 25  2  0
  2 26  1  0
 26 27  1  0
 27 28  1  0
 28 29  2  0
 29 30  1  0
 30 31  2  0
 31 32  1  0
 32 33  2  0
 24  4  1  0
 33 28  1  0
 23  7  1  0
 21 16  1  0
  3 34  1  0
  3 35  1  0
  5 36  1  0
  8 37  1  0
  9 38  1  0
 15 39  1  0
 15 40  1  0
 17 41  1  0
 18 42  1  0
 19 43  1  0
 20 44  1  0
 21 45  1  0
 22 46  1  0
 27 47  1  0
 27 48  1  0
 29 49  1  0
 30 50  1  0
 31 51  1  0
 32 52  1  0
 33 53  1  0
M  CHG  2  14  -1  26  -1
M  END
>  <UniqueID>  (34) 
31

>  <SMILES>  (34) 
O=C(Cn1cnc2ccc(S(=O)(=O)[N-]Cc3ccccc3)cc2c1=O)[N-]Cc1ccccc1

>  <Energy>  (34) 
55.87487174254548

>  <Genealogy>  (34) 
O=C(Cn1cnc2ccc(S(=O)(=O)[N-]Cc3ccccc3)cc2c1=O)[N-]Cc1ccccc1 (protonated)
O=C(Cn1cnc2ccc(S(=O)(=O)[N-]Cc3ccccc3)cc2c1=O)[N-]Cc1ccccc1 (3D coordinates assigned)
O=C(Cn1cnc2ccc(S(=O)(=O)[N-]Cc3ccccc3)cc2c1=O)[N-]Cc1ccccc1 (optimized conformer: 55.87487174254548 kcal/mol)

>  <smiles>  (34) 
O=C(Cn1cnc2ccc(S(=O)(=O)NCc3ccccc3)cc2c1=O)NCc1ccccc1

>  <score_type>  (34) 
oracle

>  <origin>  (34) 
adg

>  <m_score__min__energy>  (34) 
-12.35

>  <m_primary>  (34) 
energy

$$$$
34:0
     RDKit          3D

 49 52  0  0  0  0  0  0  0  0999 V2000
   59.0600   27.0140   45.3390 O   0  0  0  0  0  0  0  0  0  0  0  0
   57.8350   26.8730   45.0800 C   0  0  0  0  0  0  0  0  0  0  0  0
   57.1450   27.9520   44.4340 N   0  0  0  0  0  0  0  0  0  0  0  0
   57.3780   29.3480   44.6670 C   0  0  0  0  0  0  0  0  0  0  0  0
   56.4190   30.2780   44.2490 C   0  0  0  0  0  0  0  0  0  0  0  0
   56.6030   31.6420   44.4980 C   0  0  0  0  0  0  0  0  0  0  0  0
   57.7620   32.0900   45.1450 C   0  0  0  0  0  0  0  0  0  0  0  0
   57.9710   33.7930   45.5460 S   0  0  0  0  0  0  0  0  0  0  0  0
   57.3000   34.6540   44.5120 O   0  0  0  0  0  0  0  0  0  0  0  0
   57.3550   34.0860   46.8840 O   0  0  0  0  0  0  0  0  0  0  0  0
   59.6670   34.1410   45.6340 N   0  0  0  0  0  0  0  0  0  0  0  0
   60.4180   34.0260   46.8450 C   0  0  0  0  0  0  0  0  0  0  0  0
   59.8370   34.3170   48.0890 C   0  0  0  0  0  0  0  0  0  0  0  0
   60.6000   34.2250   49.2560 C   0  0  0  0  0  0  0  0  0  0  0  0
   61.9450   33.8520   49.1890 C   0  0  0  0  0  0  0  0  0  0  0  0
   62.5340   33.5550   47.9500 C   0  0  0  0  0  0  0  0  0  0  0  0
   63.9870   33.1910   47.8590 C   0  0  0  0  0  0  0  0  0  0  0  0
   64.1160   31.8120   47.6530 O   0  0  0  0  0  0  0  0  0  0  0  0
   61.7590   33.6300   46.7820 C   0  0  0  0  0  0  0  0  0  0  0  0
   58.7470   31.1650   45.5170 C   0  0  0  0  0  0  0  0  0  0  0  0
   58.5570   29.8020   45.2810 C   0  0  0  0  0  0  0  0  0  0  0  0
   57.1650   25.5830   45.3830 C   0  0  0  0  0  0  0  0  0  0  0  0
   57.8650   24.3720   45.2400 C   0  0  0  0  0  0  0  0  0  0  0  0
   57.2450   23.1560   45.5510 C   0  0  0  0  0  0  0  0  0  0  0  0
   57.9230   21.9360   45.4150 C   0  0  0  0  0  0  0  0  0  0  0  0
   57.2840   20.7390   45.7530 C   0  0  0  0  0  0  0  0  0  0  0  0
   55.9690   20.7550   46.2280 C   0  0  0  0  0  0  0  0  0  0  0  0
   55.2820   21.9660   46.3580 C   0  0  0  0  0  0  0  0  0  0  0  0
   55.9150   23.1690   46.0220 C   0  0  0  0  0  0  0  0  0  0  0  0
   55.2550   24.3490   46.1550 N   0  0  0  0  0  0  0  0  0  0  0  0
   55.8370   25.5420   45.8530 C   0  0  0  0  0  0  0  0  0  0  0  0
   55.1010   26.7150   46.0000 O   0  0  0  0  0  0  0  0  0  0  0  0
   55.5165   29.9345   43.7222 H   0  0  0  0  0  0  0  0  0  0  0  0
   55.8354   32.3651   44.1849 H   0  0  0  0  0  0  0  0  0  0  0  0
   58.7804   34.6177   48.1453 H   0  0  0  0  0  0  0  0  0  0  0  0
   60.1404   34.4469   50.2305 H   0  0  0  0  0  0  0  0  0  0  0  0
   62.5438   33.7910   50.1097 H   0  0  0  0  0  0  0  0  0  0  0  0
   64.4473   33.7309   47.0184 H   0  0  0  0  0  0  0  0  0  0  0  0
   64.4914   33.4681   48.7965 H   0  0  0  0  0  0  0  0  0  0  0  0
   64.5990   31.7060   46.7930 H   0  0  0  0  0  0  0  0  0  0  0  0
   62.2086   33.3759   45.8108 H   0  0  0  0  0  0  0  0  0  0  0  0
   59.6733   31.5141   45.9967 H   0  0  0  0  0  0  0  0  0  0  0  0
   59.3334   29.0811   45.5770 H   0  0  0  0  0  0  0  0  0  0  0  0
   58.9051   24.3801   44.8820 H   0  0  0  0  0  0  0  0  0  0  0  0
   58.9578   21.9206   45.0423 H   0  0  0  0  0  0  0  0  0  0  0  0
   57.8170   19.7828   45.6450 H   0  0  0  0  0  0  0  0  0  0  0  0
   55.4732   19.8116   46.5004 H   0  0  0  0  0  0  0  0  0  0  0  0
   54.2447   21.9736   46.7241 H   0  0  0  0  0  0  0  0  0  0  0  0
   55.1790   27.4670   45.3260 H   0  0  0  0  0  0  0  0  0  0  0  0
  1  2  2  0
  2  3  1  0
  3  4  1  0
  4  5  2  0
  5  6  1  0
  6  7  2  0
  7  8  1  0
  8  9  2  0
  8 10  2  0
  8 11  1  0
 11 12  1  0
 12 13  2  0
 13 14  1  0
 14 15  2  0
 15 16  1  0
 16 17  1  0
 17 18  1  0
 16 19  2  0
  7 20  1  0
 20 21  2  0
  2 22  1  0
 22 23  2  0
 23 24  1  0
 24 25  2  0
 25 26  1  0
 26 27  2  0
 27 28  1  0
 28 29  2  0
 29 30  1  0
 30 31  2  0
 31 32  1  0
 21  4  1  0
 31 22  1  0
 19 12  1  0
 29 24  1  0
  5 33  1  0
  6 34  1  0
 13 35  1  0
 14 36  1  0
 15 37  1  0
 17 38  1  0
 17 39  1  0
 18 40  1  0
 19 41  1  0
 20 42  1  0
 21 43  1  0
 23 44  1  0
 25 45  1  0
 26 46  1  0
 27 47  1  0
 28 48  1  0
 32 49  1  0
M  CHG  2   3  -1  11  -1
M  END
>  <UniqueID>  (35) 
32

>  <SMILES>  (35) 
O=C([N-]c1ccc(S(=O)(=O)[N-]c2cccc(CO)c2)cc1)c1cc2ccccc2nc1O

>  <Energy>  (35) 
68.29515492593946

>  <Genealogy>  (35) 
O=C([N-]c1ccc(S(=O)(=O)[N-]c2cccc(CO)c2)cc1)c1cc2ccccc2nc1O (protonated)
O=C([N-]c1ccc(S(=O)(=O)[N-]c2cccc(CO)c2)cc1)c1cc2ccccc2nc1O (3D coordinates assigned)
O=C([N-]c1ccc(S(=O)(=O)[N-]c2cccc(CO)c2)cc1)c1cc2ccccc2nc1O (optimized conformer: 68.29515492593946 kcal/mol)

>  <smiles>  (35) 
O=C(Nc1ccc(S(=O)(=O)Nc2cccc(CO)c2)cc1)c1cc2ccccc2nc1O

>  <score_type>  (35) 
oracle

>  <origin>  (35) 
adg

>  <m_score__min__energy>  (35) 
-11.99

>  <m_primary>  (35) 
energy

$$$$
35:0
     RDKit          3D

 62 66  0  0  0  0  0  0  0  0999 V2000
   54.9346   30.0249   55.5215 H   0  0  0  0  0  0  0  0  0  0  0  0
   54.2200   30.0930   54.6880 C   0  0  0  0  0  0  0  0  0  0  0  0
   53.1493   29.9141   54.8655 H   0  0  0  0  0  0  0  0  0  0  0  0
   54.6540   30.3940   53.4560 C   0  0  0  0  0  0  0  0  0  0  0  0
   53.8900   30.5200   52.2950 C   0  0  0  0  0  0  0  0  0  0  0  0
   52.5530   30.4220   52.1870 C   0  0  0  0  0  0  0  0  0  0  0  0
   51.9892   30.0130   53.0384 H   0  0  0  0  0  0  0  0  0  0  0  0
   51.8040   30.8350   50.9850 C   0  0  0  0  0  0  0  0  0  0  0  0
   51.7400   30.0910   49.8650 N   0  0  0  0  0  0  0  0  0  0  0  0
   51.0220   30.8590   49.0160 C   0  0  0  0  0  0  0  0  0  0  0  0
   50.7360   30.4930   47.8460 O   0  0  0  0  0  0  0  0  0  0  0  0
   50.6470   32.0560   49.5160 N   0  0  0  0  0  0  0  0  0  0  0  0
   51.1530   32.0300   50.7590 C   0  0  0  0  0  0  0  0  0  0  0  0
   51.0700   33.1010   51.6420 O   0  0  0  0  0  0  0  0  0  0  0  0
   54.7040   30.8150   51.2570 N   0  0  0  0  0  0  0  0  0  0  0  0
   55.9340   30.8530   51.8020 C   0  0  0  0  0  0  0  0  0  0  0  0
   56.9700   31.0970   51.1270 O   0  0  0  0  0  0  0  0  0  0  0  0
   55.9500   30.6050   53.1280 N   0  0  0  0  0  0  0  0  0  0  0  0
   57.1340   30.5530   53.9960 C   0  0  0  0  0  0  0  0  0  0  0  0
   57.1603   31.4590   54.6193 H   0  0  0  0  0  0  0  0  0  0  0  0
   57.0648   29.6500   54.6203 H   0  0  0  0  0  0  0  0  0  0  0  0
   58.4080   30.4750   53.1900 C   0  0  0  0  0  0  0  0  0  0  0  0
   59.3580   31.5090   53.2350 C   0  0  0  0  0  0  0  0  0  0  0  0
   59.1662   32.4023   53.8475 H   0  0  0  0  0  0  0  0  0  0  0  0
   60.5460   31.4080   52.5050 C   0  0  0  0  0  0  0  0  0  0  0  0
   61.2658   32.2398   52.5132 H   0  0  0  0  0  0  0  0  0  0  0  0
   60.8240   30.2540   51.7640 C   0  0  0  0  0  0  0  0  0  0  0  0
   62.0710   30.1720   50.9780 C   0  0  0  0  0  0  0  0  0  0  0  0
   62.9970   29.4500   51.4450 O   0  0  0  0  0  0  0  0  0  0  0  0
   62.3070   30.9340   49.7530 N   0  0  0  0  0  0  0  0  0  0  0  0
   63.1540   30.5080   49.3050 H   0  0  0  0  0  0  0  0  0  0  0  0
   62.5980   32.3740   49.9460 C   0  0  0  0  0  0  0  0  0  0  0  0
   63.3671   32.4755   50.7259 H   0  0  0  0  0  0  0  0  0  0  0  0
   62.9399   32.7746   48.9803 H   0  0  0  0  0  0  0  0  0  0  0  0
   61.3550   33.1850   50.3710 C   0  0  0  0  0  0  0  0  0  0  0  0
   61.0686   32.8807   51.3885 H   0  0  0  0  0  0  0  0  0  0  0  0
   61.6239   34.2505   50.3225 H   0  0  0  0  0  0  0  0  0  0  0  0
   60.1960   32.9780   49.4720 N   0  0  0  0  0  0  0  0  0  0  0  0
   60.3100   33.7150   48.1930 C   0  0  0  0  0  0  0  0  0  0  0  0
   60.1419   34.7861   48.3788 H   0  0  0  0  0  0  0  0  0  0  0  0
   61.3163   33.5486   47.7811 H   0  0  0  0  0  0  0  0  0  0  0  0
   59.2950   33.2230   47.1940 C   0  0  0  0  0  0  0  0  0  0  0  0
   58.0200   33.8110   47.1230 C   0  0  0  0  0  0  0  0  0  0  0  0
   57.7607   34.6407   47.7971 H   0  0  0  0  0  0  0  0  0  0  0  0
   57.0810   33.3450   46.1990 C   0  0  0  0  0  0  0  0  0  0  0  0
   56.0857   33.8103   46.1450 H   0  0  0  0  0  0  0  0  0  0  0  0
   57.4050   32.2880   45.3430 C   0  0  0  0  0  0  0  0  0  0  0  0
   56.6641   31.9221   44.6169 H   0  0  0  0  0  0  0  0  0  0  0  0
   58.6690   31.6960   45.4090 C   0  0  0  0  0  0  0  0  0  0  0  0
   58.9198   30.8606   44.7388 H   0  0  0  0  0  0  0  0  0  0  0  0
   59.6160   32.1640   46.3260 C   0  0  0  0  0  0  0  0  0  0  0  0
   60.6138   31.7028   46.3683 H   0  0  0  0  0  0  0  0  0  0  0  0
   59.9310   31.5390   49.2670 C   0  0  0  0  0  0  0  0  0  0  0  0
   59.5853   31.1039   50.2163 H   0  0  0  0  0  0  0  0  0  0  0  0
   59.1668   31.4453   48.4813 H   0  0  0  0  0  0  0  0  0  0  0  0
   61.1840   30.7770   48.8000 C   0  0  0  0  0  0  0  0  0  0  0  0
   60.9388   29.7084   48.7107 H   0  0  0  0  0  0  0  0  0  0  0  0
   61.4963   31.1919   47.8303 H   0  0  0  0  0  0  0  0  0  0  0  0
   59.8690   29.2300   51.6990 C   0  0  0  0  0  0  0  0  0  0  0  0
   60.0591   28.3420   51.0782 H   0  0  0  0  0  0  0  0  0  0  0  0
   58.6760   29.3330   52.4200 C   0  0  0  0  0  0  0  0  0  0  0  0
   57.9428   28.5138   52.3836 H   0  0  0  0  0  0  0  0  0  0  0  0
  1  2  1  0
  2  3  1  0
  2  4  2  0
  4  5  1  0
  5  6  2  0
  6  7  1  0
  6  8  1  0
  8  9  1  0
  9 10  1  0
 10 11  2  0
 10 12  1  0
 12 13  1  0
 13 14  1  0
  5 15  1  0
 15 16  1  0
 16 17  2  0
 16 18  1  0
 18 19  1  0
 19 20  1  0
 19 21  1  0
 19 22  1  0
 22 23  2  0
 23 24  1  0
 23 25  1  0
 25 26  1  0
 25 27  2  0
 27 28  1  0
 28 29  2  0
 28 30  1  0
 30 31  1  0
 30 32  1  0
 32 33  1  0
 32 34  1  0
 32 35  1  0
 35 36  1  0
 35 37  1  0
 35 38  1  0
 38 39  1  0
 39 40  1  0
 39 41  1  0
 39 42  1  0
 42 43  2  0
 43 44  1  0
 43 45  1  0
 45 46  1  0
 45 47  2  0
 47 48  1  0
 47 49  1  0
 49 50  1  0
 49 51  2  0
 51 52  1  0
 38 53  1  0
 53 54  1  0
 53 55  1  0
 53 56  1  0
 56 57  1  0
 56 58  1  0
 27 59  1  0
 59 60  1  0
 59 61  2  0
 61 62  1  0
 18  4  1  0
 61 22  1  0
 13  8  2  0
 56 30  1  0
 51 42  1  0
M  CHG  5   9  -1  12  -1  14  -1  15  -1  30   1
M  END
>  <UniqueID>  (36) 
33

>  <SMILES>  (36) 
C=c1/c(=C/c2[n-]c(=O)[n-]c2[O-])[n-]c(=O)n1Cc1ccc(C(=O)[NH+]2CCN(Cc3ccccc3)CC2)cc1

>  <Energy>  (36) 
153.87466747602306

>  <Genealogy>  (36) 
C=c1c(=Cc2[n-]c(=O)[n-]c2[O-])[n-]c(=O)n1Cc1ccc(C(=O)[NH+]2CCN(Cc3ccccc3)CC2)cc1 (protonated)
C=c1/c(=C/c2[n-]c(=O)[n-]c2[O-])[n-]c(=O)n1Cc1ccc(C(=O)[NH+]2CCN(Cc3ccccc3)CC2)cc1 (cis-trans isomerization)
C=c1/c(=C/c2[n-]c(=O)[n-]c2[O-])[n-]c(=O)n1Cc1ccc(C(=O)[NH+]2CCN(Cc3ccccc3)CC2)cc1 (3D coordinates assigned)
C=c1/c(=C/c2[n-]c(=O)[n-]c2[O-])[n-]c(=O)n1Cc1ccc(C(=O)[NH+]2CCN(Cc3ccccc3)CC2)cc1 (nonaromatic ring conformer: 153.87466747602306 kcal/mol)

>  <smiles>  (36) 
C=c1c(=Cc2[nH]c(=O)[nH]c2O)[nH]c(=O)n1Cc1ccc(C(=O)N2CCN(Cc3ccccc3)CC2)cc1

>  <score_type>  (36) 
oracle

>  <origin>  (36) 
adg

>  <m_score__min__energy>  (36) 
-18.690000000000001

>  <m_primary>  (36) 
energy

$$$$
36:0
     RDKit          3D

 62 65  0  0  0  0  0  0  0  0999 V2000
   59.9130   28.7580   44.5020 C   0  0  0  0  0  0  0  0  0  0  0  0
   58.7570   28.0990   45.1050 N   0  0  0  0  0  0  0  0  0  0  0  0
   58.8120   27.0040   45.8900 C   0  0  0  0  0  0  0  0  0  0  0  0
   57.5420   26.6820   46.3080 C   0  0  0  0  0  0  0  0  0  0  0  0
   57.2140   25.6180   47.2080 N   0  0  0  0  0  0  0  0  0  0  0  0
   57.0640   24.2450   46.8260 C   0  0  0  0  0  0  0  0  0  0  0  0
   57.4200   23.3290   47.6160 O   0  0  0  0  0  0  0  0  0  0  0  0
   56.6020   23.9210   45.4590 C   0  0  0  0  0  0  0  0  0  0  0  0
   55.3710   24.0850   44.9710 C   0  0  0  0  0  0  0  0  0  0  0  0
   54.2500   24.7940   45.6210 C   0  0  0  0  0  0  0  0  0  0  0  0
   54.3770   26.0080   45.9330 O   0  0  0  0  0  0  0  0  0  0  0  0
   53.0840   24.1240   45.9720 O   0  0  0  0  0  0  0  0  0  0  0  0
   55.2230   23.4730   43.6230 C   0  0  0  0  0  0  0  0  0  0  0  0
   56.6380   23.0480   43.2320 C   0  0  0  0  0  0  0  0  0  0  0  0
   57.4920   23.2270   44.4860 C   0  0  0  0  0  0  0  0  0  0  0  0
   56.6670   27.5820   45.7330 C   0  0  0  0  0  0  0  0  0  0  0  0
   57.4540   28.4660   45.0120 C   0  0  0  0  0  0  0  0  0  0  0  0
   56.9440   29.6390   44.2560 C   0  0  0  0  0  0  0  0  0  0  0  0
   56.5760   29.4930   43.0610 O   0  0  0  0  0  0  0  0  0  0  0  0
   56.7910   30.9300   44.8630 N   0  0  0  0  0  0  0  0  0  0  0  0
   57.8380   31.7340   45.4240 C   0  0  0  0  0  0  0  0  0  0  0  0
   57.8560   33.1080   45.1600 C   0  0  0  0  0  0  0  0  0  0  0  0
   58.8160   33.9310   45.7570 C   0  0  0  0  0  0  0  0  0  0  0  0
   59.7820   33.3840   46.6170 C   0  0  0  0  0  0  0  0  0  0  0  0
   60.7710   34.2760   47.3230 C   0  0  0  0  0  0  0  0  0  0  0  0
   62.1810   33.7780   47.1560 C   0  0  0  0  0  0  0  0  0  0  0  0
   62.7840   33.9650   46.0660 O   0  0  0  0  0  0  0  0  0  0  0  0
   62.8770   33.1460   48.2350 N   0  0  0  0  0  0  0  0  0  0  0  0
   63.0420   31.7970   48.3040 O   0  0  0  0  0  0  0  0  0  0  0  0
   62.6100   31.3920   49.5830 C   0  0  0  0  0  0  0  0  0  0  0  0
   61.2250   30.8080   49.5120 C   0  0  0  0  0  0  0  0  0  0  0  0
   61.0010   29.5910   48.8470 C   0  0  0  0  0  0  0  0  0  0  0  0
   59.7170   29.0380   48.8080 C   0  0  0  0  0  0  0  0  0  0  0  0
   58.6530   29.6900   49.4400 C   0  0  0  0  0  0  0  0  0  0  0  0
   58.8730   30.8930   50.1150 C   0  0  0  0  0  0  0  0  0  0  0  0
   60.1550   31.4500   50.1570 C   0  0  0  0  0  0  0  0  0  0  0  0
   59.7940   31.9970   46.8390 C   0  0  0  0  0  0  0  0  0  0  0  0
   58.8410   31.1750   46.2340 C   0  0  0  0  0  0  0  0  0  0  0  0
   60.5750   29.1354   45.2953 H   0  0  0  0  0  0  0  0  0  0  0  0
   60.4620   28.0371   43.8783 H   0  0  0  0  0  0  0  0  0  0  0  0
   59.5724   29.5977   43.8783 H   0  0  0  0  0  0  0  0  0  0  0  0
   59.7279   26.4551   46.1543 H   0  0  0  0  0  0  0  0  0  0  0  0
   54.5536   22.6011   43.6643 H   0  0  0  0  0  0  0  0  0  0  0  0
   54.7821   24.1705   42.8956 H   0  0  0  0  0  0  0  0  0  0  0  0
   56.6462   21.9960   42.9107 H   0  0  0  0  0  0  0  0  0  0  0  0
   57.0220   23.6476   42.3936 H   0  0  0  0  0  0  0  0  0  0  0  0
   57.8101   22.2507   44.8804 H   0  0  0  0  0  0  0  0  0  0  0  0
   58.4103   23.7979   44.2841 H   0  0  0  0  0  0  0  0  0  0  0  0
   55.5712   27.5948   45.8277 H   0  0  0  0  0  0  0  0  0  0  0  0
   57.1103   33.5435   44.4786 H   0  0  0  0  0  0  0  0  0  0  0  0
   58.8145   35.0117   45.5520 H   0  0  0  0  0  0  0  0  0  0  0  0
   60.6987   35.2909   46.9049 H   0  0  0  0  0  0  0  0  0  0  0  0
   60.5302   34.2761   48.3963 H   0  0  0  0  0  0  0  0  0  0  0  0
   63.3029   30.6332   49.9755 H   0  0  0  0  0  0  0  0  0  0  0  0
   62.5922   32.2693   50.2464 H   0  0  0  0  0  0  0  0  0  0  0  0
   61.8373   29.0719   48.3559 H   0  0  0  0  0  0  0  0  0  0  0  0
   59.5436   28.0890   48.2796 H   0  0  0  0  0  0  0  0  0  0  0  0
   57.6431   29.2554   49.4055 H   0  0  0  0  0  0  0  0  0  0  0  0
   58.0362   31.4032   50.6145 H   0  0  0  0  0  0  0  0  0  0  0  0
   60.3259   32.3933   50.6965 H   0  0  0  0  0  0  0  0  0  0  0  0
   60.5594   31.5553   47.4940 H   0  0  0  0  0  0  0  0  0  0  0  0
   58.8755   30.0869   46.3919 H   0  0  0  0  0  0  0  0  0  0  0  0
  1  2  1  0
  2  3  1  0
  3  4  2  0
  4  5  1  0
  5  6  1  0
  6  7  2  0
  6  8  1  0
  8  9  2  0
  9 10  1  0
 10 11  2  0
 10 12  1  0
  9 13  1  0
 13 14  1  0
 14 15  1  0
  4 16  1  0
 16 17  2  0
 17 18  1  0
 18 19  2  0
 18 20  1  0
 20 21  1  0
 21 22  2  0
 22 23  1  0
 23 24  2  0
 24 25  1  0
 25 26  1  0
 26 27  2  0
 26 28  1  0
 28 29  1  0
 29 30  1  0
 30 31  1  0
 31 32  2  0
 32 33  1  0
 33 34  2  0
 34 35  1  0
 35 36  2  0
 24 37  1  0
 37 38  2  0
 17  2  1  0
 38 21  1  0
 15  8  1  0
 36 31  1  0
  1 39  1  0
  1 40  1  0
  1 41  1  0
  3 42  1  0
 13 43  1  0
 13 44  1  0
 14 45  1  0
 14 46  1  0
 15 47  1  0
 15 48  1  0
 16 49  1  0
 22 50  1  0
 23 51  1  0
 25 52  1  0
 25 53  1  0
 30 54  1  0
 30 55  1  0
 32 56  1  0
 33 57  1  0
 34 58  1  0
 35 59  1  0
 36 60  1  0
 37 61  1  0
 38 62  1  0
M  CHG  4   5  -1  12  -1  20  -1  28  -1
M  END
>  <UniqueID>  (37) 
34

>  <SMILES>  (37) 
Cn1cc([N-]C(=O)C2=C(C(=O)[O-])CCC2)cc1C(=O)[N-]c1ccc(CC(=O)[N-]OCc2ccccc2)cc1

>  <Energy>  (37) 
106.05083776074014

>  <Genealogy>  (37) 
Cn1cc([N-]C(=O)C2=C(C(=O)[O-])CCC2)cc1C(=O)[N-]c1ccc(CC(=O)[N-]OCc2ccccc2)cc1 (protonated)
Cn1cc([N-]C(=O)C2=C(C(=O)[O-])CCC2)cc1C(=O)[N-]c1ccc(CC(=O)[N-]OCc2ccccc2)cc1 (3D coordinates assigned)
Cn1cc([N-]C(=O)C2=C(C(=O)[O-])CCC2)cc1C(=O)[N-]c1ccc(CC(=O)[N-]OCc2ccccc2)cc1 (nonaromatic ring conformer: 106.05083776074014 kcal/mol)

>  <smiles>  (37) 
Cn1cc(NC(=O)C2=C(C(=O)O)CCC2)cc1C(=O)Nc1ccc(CC(=O)NOCc2ccccc2)cc1

>  <score_type>  (37) 
oracle

>  <origin>  (37) 
adg

>  <m_score__min__energy>  (37) 
-17.809999999999999

>  <m_primary>  (37) 
energy

$$$$
37:0
     RDKit          3D

 36 38  0  0  0  0  0  0  0  0999 V2000
   60.1040   26.2960   46.2200 C   0  0  0  0  0  0  0  0  0  0  0  0
   58.6050   26.3310   46.2220 C   0  0  0  0  0  0  0  0  0  0  0  0
   57.8730   25.2110   46.6360 C   0  0  0  0  0  0  0  0  0  0  0  0
   56.4700   25.2210   46.5970 C   0  0  0  0  0  0  0  0  0  0  0  0
   55.6980   23.9960   47.0030 C   0  0  0  0  0  0  0  0  0  0  0  0
   55.7970   26.3570   46.1110 C   0  0  0  0  0  0  0  0  0  0  0  0
   54.4100   26.3340   45.9850 O   0  0  0  0  0  0  0  0  0  0  0  0
   56.5280   27.4950   45.7170 C   0  0  0  0  0  0  0  0  0  0  0  0
   55.8830   28.6730   45.2140 N   0  0  0  0  0  0  0  0  0  0  0  0
   56.3340   29.4520   44.1000 C   0  0  0  0  0  0  0  0  0  0  0  0
   56.9080   28.9020   43.1210 O   0  0  0  0  0  0  0  0  0  0  0  0
   56.1190   30.9280   44.0970 C   0  0  0  0  0  0  0  0  0  0  0  0
   57.5360   31.7390   43.2910 S   0  0  0  0  0  0  0  0  0  0  0  0
   58.1610   32.4180   44.8240 C   0  0  0  0  0  0  0  0  0  0  0  0
   57.8830   31.8640   46.0360 N   0  0  0  0  0  0  0  0  0  0  0  0
   58.5370   32.6790   46.8740 C   0  0  0  0  0  0  0  0  0  0  0  0
   58.6170   32.6110   48.2600 C   0  0  0  0  0  0  0  0  0  0  0  0
   59.3780   33.6010   48.9090 C   0  0  0  0  0  0  0  0  0  0  0  0
   60.0190   34.6060   48.1450 C   0  0  0  0  0  0  0  0  0  0  0  0
   59.9050   34.6210   46.7820 N   0  0  0  0  0  0  0  0  0  0  0  0
   59.1670   33.6570   46.1780 C   0  0  0  0  0  0  0  0  0  0  0  0
   58.9510   33.5240   44.8630 N   0  0  0  0  0  0  0  0  0  0  0  0
   57.9260   27.4610   45.7430 C   0  0  0  0  0  0  0  0  0  0  0  0
   60.4719   26.2874   47.2566 H   0  0  0  0  0  0  0  0  0  0  0  0
   60.4489   25.3896   45.7010 H   0  0  0  0  0  0  0  0  0  0  0  0
   60.4908   27.1854   45.7010 H   0  0  0  0  0  0  0  0  0  0  0  0
   58.4022   24.3159   46.9948 H   0  0  0  0  0  0  0  0  0  0  0  0
   55.6591   23.9342   48.1006 H   0  0  0  0  0  0  0  0  0  0  0  0
   54.6753   24.0577   46.6027 H   0  0  0  0  0  0  0  0  0  0  0  0
   56.1950   23.1000   46.6027 H   0  0  0  0  0  0  0  0  0  0  0  0
   55.1973   31.1642   43.5450 H   0  0  0  0  0  0  0  0  0  0  0  0
   56.0262   31.2896   45.1317 H   0  0  0  0  0  0  0  0  0  0  0  0
   58.1072   31.8171   48.8255 H   0  0  0  0  0  0  0  0  0  0  0  0
   59.4744   33.5941   50.0047 H   0  0  0  0  0  0  0  0  0  0  0  0
   60.6133   35.3808   48.6515 H   0  0  0  0  0  0  0  0  0  0  0  0
   58.4986   28.3290   45.3843 H   0  0  0  0  0  0  0  0  0  0  0  0
  1  2  1  0
  2  3  2  0
  3  4  1  0
  4  5  1  0
  4  6  2  0
  6  7  1  0
  6  8  1  0
  8  9  1  0
  9 10  1  0
 10 11  2  0
 10 12  1  0
 12 13  1  0
 13 14  1  0
 14 15  2  0
 15 16  1  0
 16 17  2  0
 17 18  1  0
 18 19  2  0
 19 20  1  0
 20 21  2  0
 21 22  1  0
  8 23  2  0
 23  2  1  0
 22 14  1  0
 21 16  1  0
  1 24  1  0
  1 25  1  0
  1 26  1  0
  3 27  1  0
  5 28  1  0
  5 29  1  0
  5 30  1  0
 12 31  1  0
 12 32  1  0
 17 33  1  0
 18 34  1  0
 19 35  1  0
 23 36  1  0
M  CHG  3   7  -1   9  -1  22  -1
M  END
>  <UniqueID>  (38) 
35

>  <SMILES>  (38) 
Cc1cc(C)c([O-])c([N-]C(=O)CSc2nc3cccnc3[n-]2)c1

>  <Energy>  (38) 
74.96007291259612

>  <Genealogy>  (38) 
Cc1cc(C)c([O-])c([N-]C(=O)CSc2nc3cccnc3[n-]2)c1 (protonated)
Cc1cc(C)c([O-])c([N-]C(=O)CSc2nc3cccnc3[n-]2)c1 (3D coordinates assigned)
Cc1cc(C)c([O-])c([N-]C(=O)CSc2nc3cccnc3[n-]2)c1 (optimized conformer: 74.96007291259612 kcal/mol)

>  <smiles>  (38) 
Cc1cc(C)c(O)c(NC(=O)CSc2nc3cccnc3[nH]2)c1

>  <score_type>  (38) 
oracle

>  <origin>  (38) 
adg

>  <m_score__min__energy>  (38) 
-15.5

>  <m_primary>  (38) 
energy

$$$$
38:0
     RDKit          3D

 36 37  0  0  0  0  0  0  0  0999 V2000
   56.6160   29.5010   43.0320 C   0  0  0  0  0  0  0  0  0  0  0  0
   56.1140   29.7070   44.2530 C   0  0  0  0  0  0  0  0  0  0  0  0
   56.9670   29.6110   45.4870 C   0  0  0  0  0  0  0  0  0  0  0  0
   57.6630   28.2700   45.5570 C   0  0  0  0  0  0  0  0  0  0  0  0
   56.9160   27.0810   45.6230 C   0  0  0  0  0  0  0  0  0  0  0  0
   55.5240   27.1570   45.6240 O   0  0  0  0  0  0  0  0  0  0  0  0
   57.5430   25.8600   45.6770 N   0  0  0  0  0  0  0  0  0  0  0  0
   56.7190   24.6290   45.7410 C   0  0  2  0  0  0  0  0  0  0  0  0
   57.4100   23.5700   46.3750 O   0  0  0  0  0  0  0  0  0  0  0  0
   57.1510   22.3880   45.6450 C   0  0  1  0  0  0  0  0  0  0  0  0
   56.7140   21.2670   46.5960 C   0  0  0  0  0  0  0  0  0  0  0  0
   57.1630   21.5280   47.8980 O   0  0  0  0  0  0  0  0  0  0  0  0
   56.0980   22.6890   44.5700 C   0  0  2  0  0  0  0  0  0  0  0  0
   56.2640   21.9320   43.3940 O   0  0  0  0  0  0  0  0  0  0  0  0
   56.2490   24.1760   44.3580 C   0  0  2  0  0  0  0  0  0  0  0  0
   57.2220   24.4600   43.3830 O   0  0  0  0  0  0  0  0  0  0  0  0
   58.9160   25.8050   45.6030 C   0  0  0  0  0  0  0  0  0  0  0  0
   59.5190   24.6960   45.5860 O   0  0  0  0  0  0  0  0  0  0  0  0
   59.6490   26.9480   45.5310 N   0  0  0  0  0  0  0  0  0  0  0  0
   59.0590   28.1690   45.5090 C   0  0  0  0  0  0  0  0  0  0  0  0
   59.7770   29.2030   45.4370 O   0  0  0  0  0  0  0  0  0  0  0  0
   55.9645   29.5789   42.1491 H   0  0  0  0  0  0  0  0  0  0  0  0
   57.6808   29.2535   42.9097 H   0  0  0  0  0  0  0  0  0  0  0  0
   55.0472   29.9536   44.3581 H   0  0  0  0  0  0  0  0  0  0  0  0
   57.7237   30.4091   45.4651 H   0  0  0  0  0  0  0  0  0  0  0  0
   56.3211   29.7191   46.3708 H   0  0  0  0  0  0  0  0  0  0  0  0
   55.8337   24.8868   46.3408 H   0  0  0  0  0  0  0  0  0  0  0  0
   58.0635   22.0387   45.1398 H   0  0  0  0  0  0  0  0  0  0  0  0
   55.6160   21.2006   46.5977 H   0  0  0  0  0  0  0  0  0  0  0  0
   57.1495   20.3173   46.2520 H   0  0  0  0  0  0  0  0  0  0  0  0
   57.7640   22.3150   47.8280 H   0  0  0  0  0  0  0  0  0  0  0  0
   55.0810   22.4062   44.8793 H   0  0  0  0  0  0  0  0  0  0  0  0
   56.6720   22.5120   42.6980 H   0  0  0  0  0  0  0  0  0  0  0  0
   55.3343   24.6713   44.0004 H   0  0  0  0  0  0  0  0  0  0  0  0
   58.0940   24.5030   43.8540 H   0  0  0  0  0  0  0  0  0  0  0  0
   60.6920   26.8840   45.4820 H   0  0  0  0  0  0  0  0  0  0  0  0
  1  2  2  0
  2  3  1  0
  3  4  1  0
  4  5  2  0
  5  6  1  0
  5  7  1  0
  7  8  1  0
  8  9  1  0
  9 10  1  0
 10 11  1  0
 11 12  1  0
 10 13  1  0
 13 14  1  0
 13 15  1  0
 15 16  1  0
  7 17  1  0
 17 18  2  0
 17 19  1  0
 19 20  1  0
 20 21  2  0
 20  4  1  0
 15  8  1  0
  1 22  1  0
  1 23  1  0
  2 24  1  0
  3 25  1  0
  3 26  1  0
  8 27  1  1
 10 28  1  6
 11 29  1  0
 11 30  1  0
 12 31  1  0
 13 32  1  1
 14 33  1  0
 15 34  1  6
 16 35  1  0
 19 36  1  0
M  CHG  1   6  -1
M  END
>  <UniqueID>  (39) 
36

>  <SMILES>  (39) 
C=CCc1c([O-])n([C@@H]2O[C@@H](CO)C(O)C2O)c(=O)[nH]c1=O

>  <Energy>  (39) 
43.08979512530363

>  <Genealogy>  (39) 
C=CCc1c([O-])n(C2OC(CO)C(O)C2O)c(=O)[nH]c1=O (protonated)
C=CCc1c([O-])n([C@@H]2O[C@@H](CO)C(O)C2O)c(=O)[nH]c1=O (chirality)
C=CCc1c([O-])n([C@@H]2O[C@@H](CO)C(O)C2O)c(=O)[nH]c1=O (3D coordinates assigned)
C=CCc1c([O-])n([C@@H]2O[C@@H](CO)C(O)C2O)c(=O)[nH]c1=O (nonaromatic ring conformer: 43.08979512530363 kcal/mol)

>  <smiles>  (39) 
C=CCc1c(O)n(C2OC(CO)C(O)C2O)c(=O)[nH]c1=O

>  <score_type>  (39) 
oracle

>  <origin>  (39) 
adg

>  <m_score__min__energy>  (39) 
-8.8300000000000001

>  <m_primary>  (39) 
energy

$$$$
39:0
     RDKit          3D

 52 55  0  0  0  0  0  0  0  0999 V2000
   56.5988   30.3363   43.3260 H   0  0  0  0  0  0  0  0  0  0  0  0
   57.4790   30.6720   43.8940 C   0  0  0  0  0  0  0  0  0  0  0  0
   58.2270   29.6520   44.6620 C   0  0  0  0  0  0  0  0  0  0  0  0
   59.4670   29.7890   44.8410 O   0  0  0  0  0  0  0  0  0  0  0  0
   57.5580   28.4350   45.1660 C   0  0  0  0  0  0  0  0  0  0  0  0
   56.1910   28.2150   45.2380 C   0  0  0  0  0  0  0  0  0  0  0  0
   55.1880   29.1020   44.8680 O   0  0  0  0  0  0  0  0  0  0  0  0
   56.0050   26.9550   45.7570 C   0  0  0  0  0  0  0  0  0  0  0  0
   54.7710   26.3630   46.0040 O   0  0  0  0  0  0  0  0  0  0  0  0
   57.1940   26.3690   46.0010 N   0  0  0  0  0  0  0  0  0  0  0  0
   57.4190   25.0570   46.6130 C   0  0  0  0  0  0  0  0  0  0  0  0
   58.3413   24.6198   46.2030 H   0  0  0  0  0  0  0  0  0  0  0  0
   57.5105   25.1836   47.7019 H   0  0  0  0  0  0  0  0  0  0  0  0
   56.2330   24.1110   46.3180 C   0  0  0  0  0  0  0  0  0  0  0  0
   55.3795   24.7684   46.0958 H   0  0  0  0  0  0  0  0  0  0  0  0
   56.5060   23.2410   45.1060 C   0  0  0  0  0  0  0  0  0  0  0  0
   57.5210   22.2650   45.1260 C   0  0  0  0  0  0  0  0  0  0  0  0
   58.1142   22.1114   46.0395 H   0  0  0  0  0  0  0  0  0  0  0  0
   57.7790   21.4900   43.9910 C   0  0  0  0  0  0  0  0  0  0  0  0
   58.5715   20.7275   44.0155 H   0  0  0  0  0  0  0  0  0  0  0  0
   57.0330   21.6820   42.8270 C   0  0  0  0  0  0  0  0  0  0  0  0
   57.2371   21.0705   41.9357 H   0  0  0  0  0  0  0  0  0  0  0  0
   56.0270   22.6510   42.7940 C   0  0  0  0  0  0  0  0  0  0  0  0
   55.4404   22.8026   41.8759 H   0  0  0  0  0  0  0  0  0  0  0  0
   55.7650   23.4280   43.9260 C   0  0  0  0  0  0  0  0  0  0  0  0
   54.9735   24.1912   43.8933 H   0  0  0  0  0  0  0  0  0  0  0  0
   55.8170   23.2620   47.5110 C   0  0  0  0  0  0  0  0  0  0  0  0
   56.7910   22.8980   48.4600 C   0  0  0  0  0  0  0  0  0  0  0  0
   57.8370   23.2049   48.3126 H   0  0  0  0  0  0  0  0  0  0  0  0
   56.4410   22.1500   49.5880 C   0  0  0  0  0  0  0  0  0  0  0  0
   57.2126   21.8635   50.3178 H   0  0  0  0  0  0  0  0  0  0  0  0
   55.1140   21.7660   49.7900 C   0  0  0  0  0  0  0  0  0  0  0  0
   54.8410   21.1733   50.6756 H   0  0  0  0  0  0  0  0  0  0  0  0
   54.1340   22.1350   48.8670 C   0  0  0  0  0  0  0  0  0  0  0  0
   53.0879   21.8361   49.0295 H   0  0  0  0  0  0  0  0  0  0  0  0
   54.4770   22.8830   47.7370 C   0  0  0  0  0  0  0  0  0  0  0  0
   53.6972   23.1780   47.0195 H   0  0  0  0  0  0  0  0  0  0  0  0
   58.1380   27.2670   45.6450 C   0  0  0  0  0  0  0  0  0  0  0  0
   59.5040   27.0210   45.7420 O   0  0  0  0  0  0  0  0  0  0  0  0
   57.7930   31.9750   43.8380 C   0  0  0  0  0  0  0  0  0  0  0  0
   57.7236   32.4700   42.8581 H   0  0  0  0  0  0  0  0  0  0  0  0
   58.2250   32.8000   44.9870 C   0  0  0  0  0  0  0  0  0  0  0  0
   57.9130   32.4390   46.3100 C   0  0  0  0  0  0  0  0  0  0  0  0
   57.3634   31.5069   46.5079 H   0  0  0  0  0  0  0  0  0  0  0  0
   58.2980   33.2590   47.3750 C   0  0  0  0  0  0  0  0  0  0  0  0
   58.0663   32.9626   48.4087 H   0  0  0  0  0  0  0  0  0  0  0  0
   58.9770   34.4550   47.1270 C   0  0  0  0  0  0  0  0  0  0  0  0
   59.3470   35.2500   48.1600 F   0  0  0  0  0  0  0  0  0  0  0  0
   59.2640   34.8360   45.8130 C   0  0  0  0  0  0  0  0  0  0  0  0
   59.7918   35.7812   45.6180 H   0  0  0  0  0  0  0  0  0  0  0  0
   58.8810   34.0170   44.7460 C   0  0  0  0  0  0  0  0  0  0  0  0
   59.0950   34.3282   43.7129 H   0  0  0  0  0  0  0  0  0  0  0  0
  1  2  1  0
  2  3  1  0
  3  4  2  0
  3  5  1  0
  5  6  1  0
  6  7  1  0
  6  8  2  0
  8  9  1  0
  8 10  1  0
 10 11  1  0
 11 12  1  0
 11 13  1  0
 11 14  1  0
 14 15  1  0
 14 16  1  0
 16 17  2  0
 17 18  1  0
 17 19  1  0
 19 20  1  0
 19 21  2  0
 21 22  1  0
 21 23  1  0
 23 24  1  0
 23 25  2  0
 25 26  1  0
 14 27  1  0
 27 28  2  0
 28 29  1  0
 28 30  1  0
 30 31  1  0
 30 32  2  0
 32 33  1  0
 32 34  1  0
 34 35  1  0
 34 36  2  0
 36 37  1  0
 10 38  1  0
 38 39  1  0
  2 40  2  0
 40 41  1  0
 40 42  1  0
 42 43  2  0
 43 44  1  0
 43 45  1  0
 45 46  1  0
 45 47  2  0
 47 48  1  0
 47 49  1  0
 49 50  1  0
 49 51  2  0
 51 52  1  0
 38  5  2  0
 51 42  1  0
 25 16  1  0
 36 27  1  0
M  CHG  3   7  -1   9  -1  39  -1
M  END
>  <UniqueID>  (40) 
37

>  <SMILES>  (40) 
O=C(/C=C\c1ccc(F)cc1)c1c([O-])c([O-])n(CC(c2ccccc2)c2ccccc2)c1[O-]

>  <Energy>  (40) 
95.86171603416209

>  <Genealogy>  (40) 
O=C(C=Cc1ccc(F)cc1)c1c([O-])c([O-])n(CC(c2ccccc2)c2ccccc2)c1[O-] (protonated)
O=C(/C=C\c1ccc(F)cc1)c1c([O-])c([O-])n(CC(c2ccccc2)c2ccccc2)c1[O-] (cis-trans isomerization)
O=C(/C=C\c1ccc(F)cc1)c1c([O-])c([O-])n(CC(c2ccccc2)c2ccccc2)c1[O-] (3D coordinates assigned)
O=C(/C=C\c1ccc(F)cc1)c1c([O-])c([O-])n(CC(c2ccccc2)c2ccccc2)c1[O-] (optimized conformer: 95.86171603416209 kcal/mol)

>  <smiles>  (40) 
O=C(C=Cc1ccc(F)cc1)c1c(O)c(O)n(CC(c2ccccc2)c2ccccc2)c1O

>  <score_type>  (40) 
oracle

>  <origin>  (40) 
adg

>  <m_score__min__energy>  (40) 
-16.579999999999998

>  <m_primary>  (40) 
energy

$$$$
40:0
     RDKit          3D

 35 37  0  0  0  0  0  0  0  0999 V2000
   60.3370   29.5620   45.6180 C   0  0  0  0  0  0  0  0  0  0  0  0
   59.1260   28.9660   45.5610 C   0  0  0  0  0  0  0  0  0  0  0  0
   59.0220   27.5750   45.8060 C   0  0  0  0  0  0  0  0  0  0  0  0
   60.0600   26.8960   46.0450 O   0  0  0  0  0  0  0  0  0  0  0  0
   57.7500   26.9610   45.7480 C   0  0  0  0  0  0  0  0  0  0  0  0
   57.5210   25.6500   45.9800 C   0  0  0  0  0  0  0  0  0  0  0  0
   56.4010   24.8570   45.4370 C   0  0  0  0  0  0  0  0  0  0  0  0
   56.6760   23.7160   44.6710 C   0  0  0  0  0  0  0  0  0  0  0  0
   55.6310   22.9680   44.1170 C   0  0  0  0  0  0  0  0  0  0  0  0
   55.9110   21.8300   43.3710 O   0  0  0  0  0  0  0  0  0  0  0  0
   54.3060   23.3680   44.3130 C   0  0  0  0  0  0  0  0  0  0  0  0
   54.0240   24.5190   45.0530 C   0  0  0  0  0  0  0  0  0  0  0  0
   55.0650   25.2720   45.6080 C   0  0  0  0  0  0  0  0  0  0  0  0
   54.7680   26.4290   46.3210 O   0  0  0  0  0  0  0  0  0  0  0  0
   56.6800   27.7240   45.4140 N   0  0  0  0  0  0  0  0  0  0  0  0
   56.7780   29.0520   45.1700 C   0  0  0  0  0  0  0  0  0  0  0  0
   55.7330   29.6950   44.8750 O   0  0  0  0  0  0  0  0  0  0  0  0
   57.9880   29.6860   45.2520 N   0  0  0  0  0  0  0  0  0  0  0  0
   58.0320   31.1060   45.0070 C   0  0  0  0  0  0  0  0  0  0  0  0
   58.0560   32.0080   46.0810 C   0  0  0  0  0  0  0  0  0  0  0  0
   58.1000   33.3840   45.8410 C   0  0  0  0  0  0  0  0  0  0  0  0
   58.1240   33.8660   44.5280 C   0  0  0  0  0  0  0  0  0  0  0  0
   58.1030   32.9710   43.4530 C   0  0  0  0  0  0  0  0  0  0  0  0
   58.0600   31.5930   43.6910 C   0  0  0  0  0  0  0  0  0  0  0  0
   60.4280   30.6419   45.4292 H   0  0  0  0  0  0  0  0  0  0  0  0
   61.2321   28.9674   45.8532 H   0  0  0  0  0  0  0  0  0  0  0  0
   58.2343   25.1258   46.6331 H   0  0  0  0  0  0  0  0  0  0  0  0
   57.7184   23.4069   44.5044 H   0  0  0  0  0  0  0  0  0  0  0  0
   53.4843   22.7758   43.8840 H   0  0  0  0  0  0  0  0  0  0  0  0
   52.9805   24.8344   45.1999 H   0  0  0  0  0  0  0  0  0  0  0  0
   58.0402   31.6314   47.1144 H   0  0  0  0  0  0  0  0  0  0  0  0
   58.1158   34.0888   46.6854 H   0  0  0  0  0  0  0  0  0  0  0  0
   58.1594   34.9494   44.3407 H   0  0  0  0  0  0  0  0  0  0  0  0
   58.1203   33.3507   42.4207 H   0  0  0  0  0  0  0  0  0  0  0  0
   58.0481   30.8899   42.8451 H   0  0  0  0  0  0  0  0  0  0  0  0
  1  2  2  0
  2  3  1  0
  3  4  2  0
  3  5  1  0
  5  6  2  3
  6  7  1  0
  7  8  2  0
  8  9  1  0
  9 10  1  0
  9 11  2  0
 11 12  1  0
 12 13  2  0
 13 14  1  0
  5 15  1  0
 15 16  1  0
 16 17  2  0
 16 18  1  0
 18 19  1  0
 19 20  2  0
 20 21  1  0
 21 22  2  0
 22 23  1  0
 23 24  2  0
 18  2  1  0
 24 19  1  0
 13  7  1  0
  1 25  1  0
  1 26  1  0
  6 27  1  0
  8 28  1  0
 11 29  1  0
 12 30  1  0
 20 31  1  0
 21 32  1  0
 22 33  1  0
 23 34  1  0
 24 35  1  0
M  CHG  3  10  -1  14  -1  15  -1
M  END
>  <UniqueID>  (41) 
38

>  <SMILES>  (41) 
C=c1c(=O)c(=Cc2cc([O-])ccc2[O-])[n-]c(=O)n1-c1ccccc1

>  <Energy>  (41) 
67.44739856807777

>  <Genealogy>  (41) 
C=c1c(=O)c(=Cc2cc([O-])ccc2[O-])[n-]c(=O)n1-c1ccccc1 (protonated)
C=c1c(=O)c(=Cc2cc([O-])ccc2[O-])[n-]c(=O)n1-c1ccccc1 (3D coordinates assigned)
C=c1c(=O)c(=Cc2cc([O-])ccc2[O-])[n-]c(=O)n1-c1ccccc1 (optimized conformer: 67.44739856807777 kcal/mol)

>  <smiles>  (41) 
C=c1c(=O)c(=Cc2cc(O)ccc2O)[nH]c(=O)n1-c1ccccc1

>  <score_type>  (41) 
oracle

>  <origin>  (41) 
adg

>  <m_score__min__energy>  (41) 
-15.369999999999999

>  <m_primary>  (41) 
energy

$$$$
41:0
     RDKit          3D

 51 53  0  0  0  0  0  0  0  0999 V2000
   58.2070   22.4610   45.3370 C   0  0  0  0  0  0  0  0  0  0  0  0
   59.1850   23.5740   45.5760 C   0  0  0  0  0  0  0  0  0  0  0  0
   60.4110   23.2850   45.6390 O   0  0  0  0  0  0  0  0  0  0  0  0
   58.7630   24.9510   45.7250 N   0  0  0  0  0  0  0  0  0  0  0  0
   57.3350   25.2970   45.8780 C   0  0  0  0  0  0  0  0  0  0  0  0
   57.0010   26.6170   45.1720 C   0  0  0  0  0  0  0  0  0  0  0  0
   57.9700   27.6910   45.5720 C   0  0  0  0  0  0  0  0  0  0  0  0
   59.2690   27.3580   45.9300 C   0  0  0  0  0  0  0  0  0  0  0  0
   60.1730   28.7550   46.1490 S   0  0  0  0  0  0  0  0  0  0  0  0
   58.9190   29.8130   45.7940 C   0  0  0  0  0  0  0  0  0  0  0  0
   59.0660   31.2390   45.8390 N   0  0  0  0  0  0  0  0  0  0  0  0
   59.0930   32.0460   47.0230 C   0  0  0  0  0  0  0  0  0  0  0  0
   58.0280   32.6070   47.3950 O   0  0  0  0  0  0  0  0  0  0  0  0
   60.3350   32.2630   47.8010 C   0  0  0  0  0  0  0  0  0  0  0  0
   60.9650   31.2010   48.4640 C   0  0  0  0  0  0  0  0  0  0  0  0
   62.1120   31.4240   49.2290 C   0  0  0  0  0  0  0  0  0  0  0  0
   62.6740   32.7140   49.3470 C   0  0  0  0  0  0  0  0  0  0  0  0
   63.9300   32.9210   50.2200 C   0  0  0  0  0  0  0  0  0  0  0  0
   65.2240   33.0950   49.3890 C   0  0  0  0  0  0  0  0  0  0  0  0
   64.1240   31.6980   51.1400 C   0  0  0  0  0  0  0  0  0  0  0  0
   63.7520   34.1900   51.0810 C   0  0  0  0  0  0  0  0  0  0  0  0
   62.0450   33.7700   48.6470 C   0  0  0  0  0  0  0  0  0  0  0  0
   60.8980   33.5440   47.8830 C   0  0  0  0  0  0  0  0  0  0  0  0
   57.7650   29.0860   45.4600 C   0  0  0  0  0  0  0  0  0  0  0  0
   56.5340   29.7070   44.9290 C   0  0  0  0  0  0  0  0  0  0  0  0
   55.3130   28.9730   44.8820 N   0  0  0  0  0  0  0  0  0  0  0  0
   56.5520   30.9050   44.5420 O   0  0  0  0  0  0  0  0  0  0  0  0
   59.8000   25.9610   46.0100 C   0  0  0  0  0  0  0  0  0  0  0  0
   57.8590   22.0650   46.3025 H   0  0  0  0  0  0  0  0  0  0  0  0
   57.3479   22.8440   44.7667 H   0  0  0  0  0  0  0  0  0  0  0  0
   58.6972   21.6583   44.7667 H   0  0  0  0  0  0  0  0  0  0  0  0
   56.7232   24.4933   45.4424 H   0  0  0  0  0  0  0  0  0  0  0  0
   57.1197   25.4135   46.9504 H   0  0  0  0  0  0  0  0  0  0  0  0
   57.0554   26.4684   44.0834 H   0  0  0  0  0  0  0  0  0  0  0  0
   55.9871   26.9281   45.4639 H   0  0  0  0  0  0  0  0  0  0  0  0
   60.5531   30.1844   48.3812 H   0  0  0  0  0  0  0  0  0  0  0  0
   62.5865   30.5789   49.7493 H   0  0  0  0  0  0  0  0  0  0  0  0
   66.0825   33.2104   50.0670 H   0  0  0  0  0  0  0  0  0  0  0  0
   65.3743   32.2090   48.7547 H   0  0  0  0  0  0  0  0  0  0  0  0
   65.1349   33.9893   48.7547 H   0  0  0  0  0  0  0  0  0  0  0  0
   64.0732   32.0182   52.1911 H   0  0  0  0  0  0  0  0  0  0  0  0
   63.3315   30.9612   50.9424 H   0  0  0  0  0  0  0  0  0  0  0  0
   65.1056   31.2426   50.9424 H   0  0  0  0  0  0  0  0  0  0  0  0
   63.7901   33.9186   52.1463 H   0  0  0  0  0  0  0  0  0  0  0  0
   64.5590   34.9026   50.8551 H   0  0  0  0  0  0  0  0  0  0  0  0
   62.7801   34.6530   50.8551 H   0  0  0  0  0  0  0  0  0  0  0  0
   62.4657   34.7847   48.7053 H   0  0  0  0  0  0  0  0  0  0  0  0
   60.4318   34.3795   47.3402 H   0  0  0  0  0  0  0  0  0  0  0  0
   54.4480   29.3430   45.3320 H   0  0  0  0  0  0  0  0  0  0  0  0
   60.6134   25.8492   45.2780 H   0  0  0  0  0  0  0  0  0  0  0  0
   60.1582   25.7953   47.0368 H   0  0  0  0  0  0  0  0  0  0  0  0
  1  2  1  0
  2  3  2  0
  2  4  1  0
  4  5  1  0
  5  6  1  0
  6  7  1  0
  7  8  2  0
  8  9  1  0
  9 10  1  0
 10 11  1  0
 11 12  1  0
 12 13  2  0
 12 14  1  0
 14 15  2  0
 15 16  1  0
 16 17  2  0
 17 18  1  0
 18 19  1  0
 18 20  1  0
 18 21  1  0
 17 22  1  0
 22 23  2  0
 10 24  2  0
 24 25  1  0
 25 26  1  0
 25 27  2  0
  8 28  1  0
 28  4  1  0
 24  7  1  0
 23 14  1  0
  1 29  1  0
  1 30  1  0
  1 31  1  0
  5 32  1  0
  5 33  1  0
  6 34  1  0
  6 35  1  0
 15 36  1  0
 16 37  1  0
 19 38  1  0
 19 39  1  0
 19 40  1  0
 20 41  1  0
 20 42  1  0
 20 43  1  0
 21 44  1  0
 21 45  1  0
 21 46  1  0
 22 47  1  0
 23 48  1  0
 26 49  1  0
 28 50  1  0
 28 51  1  0
M  CHG  2  11  -1  26  -1
M  END
>  <UniqueID>  (42) 
39

>  <SMILES>  (42) 
CC(=O)N1CCc2c(sc([N-]C(=O)c3ccc(C(C)(C)C)cc3)c2C([NH-])=O)C1

>  <Energy>  (42) 
92.59481476115027

>  <Genealogy>  (42) 
CC(=O)N1CCc2c(sc([N-]C(=O)c3ccc(C(C)(C)C)cc3)c2C([NH-])=O)C1 (protonated)
CC(=O)N1CCc2c(sc([N-]C(=O)c3ccc(C(C)(C)C)cc3)c2C([NH-])=O)C1 (3D coordinates assigned)
CC(=O)N1CCc2c(sc([N-]C(=O)c3ccc(C(C)(C)C)cc3)c2C([NH-])=O)C1 (nonaromatic ring conformer: 92.59481476115027 kcal/mol)

>  <smiles>  (42) 
CC(=O)N1CCc2c(sc(NC(=O)c3ccc(C(C)(C)C)cc3)c2C(N)=O)C1

>  <score_type>  (42) 
oracle

>  <origin>  (42) 
adg

>  <m_score__min__energy>  (42) 
-11.93

>  <m_primary>  (42) 
energy

$$$$
42:0
     RDKit          3D

 50 53  0  0  0  0  0  0  0  0999 V2000
   55.6640   29.7610   45.0090 O   0  0  0  0  0  0  0  0  0  0  0  0
   56.3970   30.5820   44.3940 C   0  0  0  0  0  0  0  0  0  0  0  0
   57.0990   30.1730   43.1330 C   0  0  0  0  0  0  0  0  0  0  0  0
   58.0500   29.1330   43.3700 O   0  0  0  0  0  0  0  0  0  0  0  0
   58.1870   28.4100   44.5670 C   0  0  0  0  0  0  0  0  0  0  0  0
   59.0810   28.7880   45.5860 C   0  0  0  0  0  0  0  0  0  0  0  0
   59.1700   28.0320   46.7580 C   0  0  0  0  0  0  0  0  0  0  0  0
   58.3730   26.8960   46.9250 C   0  0  0  0  0  0  0  0  0  0  0  0
   57.4780   26.5040   45.9180 C   0  0  0  0  0  0  0  0  0  0  0  0
   56.6600   25.3330   46.0860 N   0  0  0  0  0  0  0  0  0  0  0  0
   57.0730   24.0810   46.3730 C   0  0  0  0  0  0  0  0  0  0  0  0
   58.4010   23.7240   46.5830 O   0  0  0  0  0  0  0  0  0  0  0  0
   56.0050   23.2110   46.4590 C   0  0  0  0  0  0  0  0  0  0  0  0
   54.8740   23.9670   46.2110 C   0  0  0  0  0  0  0  0  0  0  0  0
   55.3150   25.2560   45.9880 C   0  0  0  0  0  0  0  0  0  0  0  0
   54.4890   26.3300   45.6740 O   0  0  0  0  0  0  0  0  0  0  0  0
   57.3940   27.2680   44.7420 C   0  0  0  0  0  0  0  0  0  0  0  0
   56.6400   31.8890   44.9280 N   0  0  0  0  0  0  0  0  0  0  0  0
   57.8180   32.3300   45.6200 C   0  0  0  0  0  0  0  0  0  0  0  0
   58.2860   31.5690   46.6970 C   0  0  0  0  0  0  0  0  0  0  0  0
   59.4410   31.9480   47.3870 C   0  0  0  0  0  0  0  0  0  0  0  0
   60.1540   33.0960   47.0010 C   0  0  0  0  0  0  0  0  0  0  0  0
   61.3470   33.4940   47.7050 N   0  0  0  0  0  0  0  0  0  0  0  0
   62.6330   33.5200   47.0000 C   0  0  0  0  0  0  0  0  0  0  0  0
   63.7750   33.3180   48.0010 C   0  0  0  0  0  0  0  0  0  0  0  0
   63.6720   34.2340   49.0750 O   0  0  0  0  0  0  0  0  0  0  0  0
   62.4970   33.9690   49.8180 C   0  0  0  0  0  0  0  0  0  0  0  0
   61.2480   34.2290   48.9690 C   0  0  0  0  0  0  0  0  0  0  0  0
   59.7000   33.8440   45.9040 C   0  0  0  0  0  0  0  0  0  0  0  0
   58.5470   33.4610   45.2110 C   0  0  0  0  0  0  0  0  0  0  0  0
   56.3519   29.8146   42.4095 H   0  0  0  0  0  0  0  0  0  0  0  0
   57.6388   31.0482   42.7422 H   0  0  0  0  0  0  0  0  0  0  0  0
   59.7112   29.6807   45.4597 H   0  0  0  0  0  0  0  0  0  0  0  0
   59.8698   28.3320   47.5519 H   0  0  0  0  0  0  0  0  0  0  0  0
   58.4478   26.3063   47.8506 H   0  0  0  0  0  0  0  0  0  0  0  0
   56.0453   22.1342   46.6801 H   0  0  0  0  0  0  0  0  0  0  0  0
   53.8328   23.6127   46.1947 H   0  0  0  0  0  0  0  0  0  0  0  0
   56.6960   26.9655   43.9475 H   0  0  0  0  0  0  0  0  0  0  0  0
   57.7401   30.6645   47.0033 H   0  0  0  0  0  0  0  0  0  0  0  0
   59.7937   31.3447   48.2365 H   0  0  0  0  0  0  0  0  0  0  0  0
   62.6560   32.7142   46.2516 H   0  0  0  0  0  0  0  0  0  0  0  0
   62.7546   34.4922   46.5000 H   0  0  0  0  0  0  0  0  0  0  0  0
   63.7303   32.2925   48.3965 H   0  0  0  0  0  0  0  0  0  0  0  0
   64.7306   33.4885   47.4836 H   0  0  0  0  0  0  0  0  0  0  0  0
   62.5026   32.9169   50.1391 H   0  0  0  0  0  0  0  0  0  0  0  0
   62.4745   34.6354   50.6929 H   0  0  0  0  0  0  0  0  0  0  0  0
   60.3562   33.8929   49.5183 H   0  0  0  0  0  0  0  0  0  0  0  0
   61.1688   35.3058   48.7585 H   0  0  0  0  0  0  0  0  0  0  0  0
   60.2554   34.7388   45.5865 H   0  0  0  0  0  0  0  0  0  0  0  0
   58.2093   34.0464   44.3431 H   0  0  0  0  0  0  0  0  0  0  0  0
  1  2  2  0
  2  3  1  0
  3  4  1  0
  4  5  1  0
  5  6  2  0
  6  7  1  0
  7  8  2  0
  8  9  1  0
  9 10  1  0
 10 11  1  0
 11 12  1  0
 11 13  2  0
 13 14  1  0
 14 15  2  0
 15 16  1  0
  9 17  2  0
  2 18  1  0
 18 19  1  0
 19 20  2  0
 20 21  1  0
 21 22  2  0
 22 23  1  0
 23 24  1  0
 24 25  1  0
 25 26  1  0
 26 27  1  0
 27 28  1  0
 22 29  1  0
 29 30  2  0
 17  5  1  0
 30 19  1  0
 15 10  1  0
 28 23  1  0
  3 31  1  0
  3 32  1  0
  6 33  1  0
  7 34  1  0
  8 35  1  0
 13 36  1  0
 14 37  1  0
 17 38  1  0
 20 39  1  0
 21 40  1  0
 24 41  1  0
 24 42  1  0
 25 43  1  0
 25 44  1  0
 27 45  1  0
 27 46  1  0
 28 47  1  0
 28 48  1  0
 29 49  1  0
 30 50  1  0
M  CHG  3  12  -1  16  -1  18  -1
M  END
>  <UniqueID>  (43) 
40

>  <SMILES>  (43) 
O=C(COc1cccc(-n2c([O-])ccc2[O-])c1)[N-]c1ccc(N2CCOCC2)cc1

>  <Energy>  (43) 
95.99168368695373

>  <Genealogy>  (43) 
O=C(COc1cccc(-n2c([O-])ccc2[O-])c1)[N-]c1ccc(N2CCOCC2)cc1 (protonated)
O=C(COc1cccc(-n2c([O-])ccc2[O-])c1)[N-]c1ccc(N2CCOCC2)cc1 (3D coordinates assigned)
O=C(COc1cccc(-n2c([O-])ccc2[O-])c1)[N-]c1ccc(N2CCOCC2)cc1 (nonaromatic ring conformer: 95.99168368695373 kcal/mol)

>  <smiles>  (43) 
O=C(COc1cccc(-n2c(O)ccc2O)c1)Nc1ccc(N2CCOCC2)cc1

>  <score_type>  (43) 
oracle

>  <origin>  (43) 
adg

>  <m_score__min__energy>  (43) 
-15.56

>  <m_primary>  (43) 
energy

$$$$
43:0
     RDKit          3D

 48 50  0  0  0  0  0  0  0  0999 V2000
   54.0200   26.3070   46.4180 H   0  0  0  0  0  0  0  0  0  0  0  0
   54.9240   26.4180   45.9710 O   0  0  0  0  0  0  0  0  0  0  0  0
   55.9610   25.5210   46.2240 C   0  0  0  0  0  0  0  0  0  0  0  0
   55.7110   24.3770   46.9150 N   0  0  0  0  0  0  0  0  0  0  0  0
   56.7020   23.4800   47.1690 C   0  0  0  0  0  0  0  0  0  0  0  0
   56.4460   22.4310   47.8140 O   0  0  0  0  0  0  0  0  0  0  0  0
   57.9640   23.7170   46.7270 N   0  0  0  0  0  0  0  0  0  0  0  0
   58.2640   24.8450   46.0320 C   0  0  0  0  0  0  0  0  0  0  0  0
   59.4430   25.0280   45.6240 O   0  0  0  0  0  0  0  0  0  0  0  0
   57.2610   25.7940   45.7750 C   0  0  0  0  0  0  0  0  0  0  0  0
   57.5420   27.0030   44.9790 C   0  0  0  0  0  0  0  0  0  0  0  0
   57.6492   26.8900   43.8901 H   0  0  0  0  0  0  0  0  0  0  0  0
   57.6760   28.2400   45.5030 C   0  0  0  0  0  0  0  0  0  0  0  0
   57.0750   29.4390   45.1040 C   0  0  0  0  0  0  0  0  0  0  0  0
   56.1130   29.6700   43.9810 C   0  0  0  0  0  0  0  0  0  0  0  0
   55.1206   29.9083   44.3914 H   0  0  0  0  0  0  0  0  0  0  0  0
   56.4654   30.5091   43.3631 H   0  0  0  0  0  0  0  0  0  0  0  0
   56.0459   28.7624   43.3631 H   0  0  0  0  0  0  0  0  0  0  0  0
   57.4970   30.4400   45.9000 N   0  0  0  0  0  0  0  0  0  0  0  0
   58.3460   29.9420   46.7840 N   0  0  0  0  0  0  0  0  0  0  0  0
   58.9490   30.7380   47.8180 C   0  0  0  0  0  0  0  0  0  0  0  0
   59.3260   30.1730   48.8820 O   0  0  0  0  0  0  0  0  0  0  0  0
   59.1270   32.1650   47.6520 N   0  0  0  0  0  0  0  0  0  0  0  0
   58.8540   32.7940   46.3510 C   0  0  0  0  0  0  0  0  0  0  0  0
   59.3572   32.2140   45.5634 H   0  0  0  0  0  0  0  0  0  0  0  0
   57.7643   32.8061   46.2010 H   0  0  0  0  0  0  0  0  0  0  0  0
   59.3590   34.2500   46.2970 C   0  0  2  0  0  0  0  0  0  0  0  0
   58.7171   34.8607   46.9489 H   0  0  0  0  0  0  0  0  0  0  0  0
   59.2580   34.8060   44.8730 C   0  0  0  0  0  0  0  0  0  0  0  0
   59.0615   35.8875   44.9147 H   0  0  0  0  0  0  0  0  0  0  0  0
   60.2037   34.6254   44.3409 H   0  0  0  0  0  0  0  0  0  0  0  0
   58.4363   34.3043   44.3409 H   0  0  0  0  0  0  0  0  0  0  0  0
   60.8050   34.3480   46.8240 C   0  0  0  0  0  0  0  0  0  0  0  0
   61.4768   33.8861   46.0855 H   0  0  0  0  0  0  0  0  0  0  0  0
   61.0225   35.4156   46.9756 H   0  0  0  0  0  0  0  0  0  0  0  0
   61.0160   33.6390   48.1930 C   0  0  1  0  0  0  0  0  0  0  0  0
   61.7452   32.8351   48.0141 H   0  0  0  0  0  0  0  0  0  0  0  0
   61.6000   34.5970   49.2390 C   0  0  0  0  0  0  0  0  0  0  0  0
   61.3715   34.2221   50.2476 H   0  0  0  0  0  0  0  0  0  0  0  0
   62.6905   34.6604   49.1097 H   0  0  0  0  0  0  0  0  0  0  0  0
   61.1568   35.5954   49.1097 H   0  0  0  0  0  0  0  0  0  0  0  0
   59.7310   32.9790   48.7200 C   0  0  0  0  0  0  0  0  0  0  0  0
   59.9741   32.3360   49.5788 H   0  0  0  0  0  0  0  0  0  0  0  0
   59.0206   33.7572   49.0358 H   0  0  0  0  0  0  0  0  0  0  0  0
   58.4840   28.6110   46.5810 C   0  0  0  0  0  0  0  0  0  0  0  0
   59.3030   27.8150   47.2860 C   0  0  0  0  0  0  0  0  0  0  0  0
   59.8909   28.2296   48.1182 H   0  0  0  0  0  0  0  0  0  0  0  0
   59.3863   26.7481   47.0316 H   0  0  0  0  0  0  0  0  0  0  0  0
  1  2  1  0
  2  3  1  0
  3  4  1  0
  4  5  1  0
  5  6  2  0
  5  7  1  0
  7  8  1  0
  8  9  2  0
  8 10  1  0
 10 11  1  0
 11 12  1  0
 11 13  2  0
 13 14  1  0
 14 15  1  0
 15 16  1  0
 15 17  1  0
 15 18  1  0
 14 19  2  0
 19 20  1  0
 20 21  1  0
 21 22  2  0
 21 23  1  0
 23 24  1  0
 24 25  1  0
 24 26  1  0
 24 27  1  0
 27 28  1  1
 27 29  1  0
 29 30  1  0
 29 31  1  0
 29 32  1  0
 27 33  1  0
 33 34  1  0
 33 35  1  0
 33 36  1  0
 36 37  1  6
 36 38  1  0
 38 39  1  0
 38 40  1  0
 38 41  1  0
 36 42  1  0
 42 43  1  0
 42 44  1  0
 20 45  1  0
 45 46  2  0
 46 47  1  0
 46 48  1  0
 10  3  2  0
 45 13  1  0
 42 23  1  0
M  CHG  2   4  -1   7  -1
M  END
>  <UniqueID>  (44) 
41

>  <SMILES>  (44) 
C=c1/c(=C/c2c(O)[n-]c(=O)[n-]c2=O)c(C)nn1C(=O)N1C[C@H](C)C[C@@H](C)C1

>  <Energy>  (44) 
97.61139627709808

>  <Genealogy>  (44) 
C=c1c(=Cc2c(O)[n-]c(=O)[n-]c2=O)c(C)nn1C(=O)N1CC(C)CC(C)C1 (protonated)
C=c1c(=Cc2c(O)[n-]c(=O)[n-]c2=O)c(C)nn1C(=O)N1C[C@H](C)C[C@@H](C)C1 (chirality)
C=c1/c(=C/c2c(O)[n-]c(=O)[n-]c2=O)c(C)nn1C(=O)N1C[C@H](C)C[C@@H](C)C1 (cis-trans isomerization)
C=c1/c(=C/c2c(O)[n-]c(=O)[n-]c2=O)c(C)nn1C(=O)N1C[C@H](C)C[C@@H](C)C1 (3D coordinates assigned)
C=c1/c(=C/c2c(O)[n-]c(=O)[n-]c2=O)c(C)nn1C(=O)N1C[C@H](C)C[C@@H](C)C1 (nonaromatic ring conformer: 97.61139627709808 kcal/mol)

>  <smiles>  (44) 
C=c1c(=Cc2c(O)[nH]c(=O)[nH]c2=O)c(C)nn1C(=O)N1CC(C)CC(C)C1

>  <score_type>  (44) 
oracle

>  <origin>  (44) 
adg

>  <m_score__min__energy>  (44) 
-13.85

>  <m_primary>  (44) 
energy

$$$$
44:0
     RDKit          3D

 43 45  0  0  0  0  0  0  0  0999 V2000
   60.7300   27.7760   45.6610 C   0  0  0  0  0  0  0  0  0  0  0  0
   59.5000   27.7860   46.5840 C   0  0  0  0  0  0  0  0  0  0  0  0
   59.9140   28.0650   48.0390 C   0  0  0  0  0  0  0  0  0  0  0  0
   58.6770   26.4550   46.4510 C   0  0  0  0  0  0  0  0  0  0  0  0
   57.3520   26.7770   45.6680 C   0  0  1  0  0  0  0  0  0  0  0  0
   57.4010   26.2200   44.2350 C   0  0  0  0  0  0  0  0  0  0  0  0
   56.1340   26.2440   46.3870 C   0  0  0  0  0  0  0  0  0  0  0  0
   54.9770   26.6590   46.1040 O   0  0  0  0  0  0  0  0  0  0  0  0
   56.2760   25.2340   47.3320 O   0  0  0  0  0  0  0  0  0  0  0  0
   57.3820   28.2630   45.6440 C   0  0  0  0  0  0  0  0  0  0  0  0
   58.5150   28.7920   46.1230 C   0  0  0  0  0  0  0  0  0  0  0  0
   58.5210   30.1300   45.7930 C   0  0  0  0  0  0  0  0  0  0  0  0
   59.5590   31.0230   46.0300 O   0  0  0  0  0  0  0  0  0  0  0  0
   57.3750   30.4390   45.1370 N   0  0  0  0  0  0  0  0  0  0  0  0
   57.0440   31.7190   44.5150 C   0  0  0  0  0  0  0  0  0  0  0  0
   56.6480   32.7400   45.5850 C   0  0  0  0  0  0  0  0  0  0  0  0
   57.8530   33.4870   46.0750 C   0  0  0  0  0  0  0  0  0  0  0  0
   58.2690   33.3780   47.4100 C   0  0  0  0  0  0  0  0  0  0  0  0
   59.3760   34.1120   47.8440 C   0  0  0  0  0  0  0  0  0  0  0  0
   60.0480   34.9480   46.9510 C   0  0  0  0  0  0  0  0  0  0  0  0
   59.5980   35.0410   45.6320 C   0  0  0  0  0  0  0  0  0  0  0  0
   58.5200   34.3190   45.2280 N   0  0  0  0  0  0  0  0  0  0  0  0
   56.6920   29.2750   45.0090 C   0  0  0  0  0  0  0  0  0  0  0  0
   55.5110   29.1300   44.2890 O   0  0  0  0  0  0  0  0  0  0  0  0
   61.6457   27.7686   46.2705 H   0  0  0  0  0  0  0  0  0  0  0  0
   60.7048   26.8780   45.0262 H   0  0  0  0  0  0  0  0  0  0  0  0
   60.7194   28.6743   45.0262 H   0  0  0  0  0  0  0  0  0  0  0  0
   59.1992   27.5833   48.7224 H   0  0  0  0  0  0  0  0  0  0  0  0
   60.9214   27.6608   48.2175 H   0  0  0  0  0  0  0  0  0  0  0  0
   59.9175   29.1504   48.2175 H   0  0  0  0  0  0  0  0  0  0  0  0
   59.2644   25.7069   45.8984 H   0  0  0  0  0  0  0  0  0  0  0  0
   58.4428   26.0503   47.4467 H   0  0  0  0  0  0  0  0  0  0  0  0
   57.4973   25.1248   44.2704 H   0  0  0  0  0  0  0  0  0  0  0  0
   56.4757   26.4897   43.7049 H   0  0  0  0  0  0  0  0  0  0  0  0
   58.2650   26.6471   43.7049 H   0  0  0  0  0  0  0  0  0  0  0  0
   57.9194   32.0920   43.9631 H   0  0  0  0  0  0  0  0  0  0  0  0
   56.1989   31.5753   43.8257 H   0  0  0  0  0  0  0  0  0  0  0  0
   55.9303   33.4542   45.1550 H   0  0  0  0  0  0  0  0  0  0  0  0
   56.1931   32.2065   46.4326 H   0  0  0  0  0  0  0  0  0  0  0  0
   57.7293   32.7214   48.1083 H   0  0  0  0  0  0  0  0  0  0  0  0
   59.7169   34.0311   48.8867 H   0  0  0  0  0  0  0  0  0  0  0  0
   60.9224   35.5273   47.2823 H   0  0  0  0  0  0  0  0  0  0  0  0
   60.1167   35.6993   44.9196 H   0  0  0  0  0  0  0  0  0  0  0  0
  1  2  1  0
  2  3  1  0
  2  4  1  0
  4  5  1  0
  5  6  1  6
  5  7  1  0
  7  8  2  0
  7  9  1  0
  5 10  1  0
 10 11  1  0
 11 12  2  0
 12 13  1  0
 12 14  1  0
 14 15  1  0
 15 16  1  0
 16 17  1  0
 17 18  2  0
 18 19  1  0
 19 20  2  0
 20 21  1  0
 21 22  2  0
 14 23  1  0
 23 24  1  0
 11  2  1  0
 22 17  1  0
 23 10  2  0
  1 25  1  0
  1 26  1  0
  1 27  1  0
  3 28  1  0
  3 29  1  0
  3 30  1  0
  4 31  1  0
  4 32  1  0
  6 33  1  0
  6 34  1  0
  6 35  1  0
 15 36  1  0
 15 37  1  0
 16 38  1  0
 16 39  1  0
 18 40  1  0
 19 41  1  0
 20 42  1  0
 21 43  1  0
M  CHG  3   9  -1  13  -1  24  -1
M  END
>  <UniqueID>  (45) 
42

>  <SMILES>  (45) 
CC1(C)C[C@@](C)(C(=O)[O-])c2c1c([O-])n(CCc1ccccn1)c2[O-]

>  <Energy>  (45) 
89.460808474966

>  <Genealogy>  (45) 
CC1(C)CC(C)(C(=O)[O-])c2c1c([O-])n(CCc1ccccn1)c2[O-] (protonated)
CC1(C)C[C@@](C)(C(=O)[O-])c2c1c([O-])n(CCc1ccccn1)c2[O-] (chirality)
CC1(C)C[C@@](C)(C(=O)[O-])c2c1c([O-])n(CCc1ccccn1)c2[O-] (3D coordinates assigned)
CC1(C)C[C@@](C)(C(=O)[O-])c2c1c([O-])n(CCc1ccccn1)c2[O-] (nonaromatic ring conformer: 89.460808474966 kcal/mol)

>  <smiles>  (45) 
CC1(C)CC(C)(C(=O)O)c2c1c(O)n(CCc1ccccn1)c2O

>  <score_type>  (45) 
oracle

>  <origin>  (45) 
adg

>  <m_score__min__energy>  (45) 
-14.41

>  <m_primary>  (45) 
energy

$$$$
45:0
     RDKit          3D

 41 44  0  0  0  0  0  0  0  0999 V2000
   58.6623   31.0338   49.9335 H   0  0  0  0  0  0  0  0  0  0  0  0
   58.0450   30.6960   50.7790 C   0  0  0  0  0  0  0  0  0  0  0  0
   56.8170   31.2170   51.0480 N   0  0  0  0  0  0  0  0  0  0  0  0
   56.2600   30.6510   52.1400 C   0  0  0  0  0  0  0  0  0  0  0  0
   55.0670   30.9720   52.5470 N   0  0  0  0  0  0  0  0  0  0  0  0
   53.8550   30.9100   51.7780 C   0  0  0  0  0  0  0  0  0  0  0  0
   53.6350   29.8950   50.8290 C   0  0  0  0  0  0  0  0  0  0  0  0
   54.4150   29.1432   50.6385 H   0  0  0  0  0  0  0  0  0  0  0  0
   52.4260   29.8400   50.1270 C   0  0  0  0  0  0  0  0  0  0  0  0
   52.2633   29.0548   49.3740 H   0  0  0  0  0  0  0  0  0  0  0  0
   51.4250   30.7810   50.3810 C   0  0  0  0  0  0  0  0  0  0  0  0
   50.4793   30.7427   49.8205 H   0  0  0  0  0  0  0  0  0  0  0  0
   51.6250   31.7710   51.3470 C   0  0  0  0  0  0  0  0  0  0  0  0
   50.6230   32.6960   51.6100 O   0  0  0  0  0  0  0  0  0  0  0  0
   52.8320   31.8280   52.0520 C   0  0  0  0  0  0  0  0  0  0  0  0
   52.9788   32.5968   52.8249 H   0  0  0  0  0  0  0  0  0  0  0  0
   57.2560   29.4600   52.8100 S   0  0  0  0  0  0  0  0  0  0  0  0
   58.4550   29.7040   51.6580 C   0  0  0  0  0  0  0  0  0  0  0  0
   60.0010   28.8090   51.5770 S   0  0  0  0  0  0  0  0  0  0  0  0
   60.0890   28.9670   49.7990 C   0  0  0  0  0  0  0  0  0  0  0  0
   59.3810   28.1230   49.0090 N   0  0  0  0  0  0  0  0  0  0  0  0
   59.4250   28.2250   47.6560 C   0  0  0  0  0  0  0  0  0  0  0  0
   58.6830   27.3370   46.8860 O   0  0  0  0  0  0  0  0  0  0  0  0
   60.2110   29.2210   47.0500 C   0  0  0  0  0  0  0  0  0  0  0  0
   60.3080   29.3320   45.5450 C   0  0  0  0  0  0  0  0  0  0  0  0
   61.0716   30.0802   45.2860 H   0  0  0  0  0  0  0  0  0  0  0  0
   60.5835   28.3498   45.1335 H   0  0  0  0  0  0  0  0  0  0  0  0
   58.9850   29.7510   44.9590 C   0  0  0  0  0  0  0  0  0  0  0  0
   58.5200   31.0670   45.1230 C   0  0  0  0  0  0  0  0  0  0  0  0
   59.1129   31.7888   45.7039 H   0  0  0  0  0  0  0  0  0  0  0  0
   57.3070   31.4630   44.5510 C   0  0  0  0  0  0  0  0  0  0  0  0
   56.9465   32.4935   44.6859 H   0  0  0  0  0  0  0  0  0  0  0  0
   56.5520   30.5510   43.8080 C   0  0  0  0  0  0  0  0  0  0  0  0
   55.5977   30.8635   43.3589 H   0  0  0  0  0  0  0  0  0  0  0  0
   57.0100   29.2420   43.6360 C   0  0  0  0  0  0  0  0  0  0  0  0
   56.4155   28.5249   43.0509 H   0  0  0  0  0  0  0  0  0  0  0  0
   58.2220   28.8420   44.2060 C   0  0  0  0  0  0  0  0  0  0  0  0
   58.5801   27.8116   44.0647 H   0  0  0  0  0  0  0  0  0  0  0  0
   60.9410   30.0790   47.8950 C   0  0  0  0  0  0  0  0  0  0  0  0
   61.6710   30.9880   47.4180 O   0  0  0  0  0  0  0  0  0  0  0  0
   60.8620   29.9340   49.2430 N   0  0  0  0  0  0  0  0  0  0  0  0
  1  2  1  0
  2  3  1  0
  3  4  1  0
  4  5  2  0
  5  6  1  0
  6  7  2  0
  7  8  1  0
  7  9  1  0
  9 10  1  0
  9 11  2  0
 11 12  1  0
 11 13  1  0
 13 14  1  0
 13 15  2  0
 15 16  1  0
  4 17  1  0
 17 18  1  0
 18 19  1  0
 19 20  1  0
 20 21  2  0
 21 22  1  0
 22 23  1  0
 22 24  2  0
 24 25  1  0
 25 26  1  0
 25 27  1  0
 25 28  1  0
 28 29  2  0
 29 30  1  0
 29 31  1  0
 31 32  1  0
 31 33  2  0
 33 34  1  0
 33 35  1  0
 35 36  1  0
 35 37  2  0
 37 38  1  0
 24 39  1  0
 39 40  2  0
 39 41  1  0
 18  2  2  0
 41 20  1  0
 15  6  1  0
 37 28  1  0
M  CHG  4   3  -1  14  -1  23  -1  41  -1
M  END
>  <UniqueID>  (46) 
43

>  <SMILES>  (46) 
O=c1[n-]c(Sc2c[n-]/c(=N/c3cccc([O-])c3)s2)nc([O-])c1Cc1ccccc1

>  <Energy>  (46) 
81.45929032152158

>  <Genealogy>  (46) 
O=c1[n-]c(Sc2c[n-]c(=Nc3cccc([O-])c3)s2)nc([O-])c1Cc1ccccc1 (protonated)
O=c1[n-]c(Sc2c[n-]/c(=N/c3cccc([O-])c3)s2)nc([O-])c1Cc1ccccc1 (cis-trans isomerization)
O=c1[n-]c(Sc2c[n-]/c(=N/c3cccc([O-])c3)s2)nc([O-])c1Cc1ccccc1 (3D coordinates assigned)
O=c1[n-]c(Sc2c[n-]/c(=N/c3cccc([O-])c3)s2)nc([O-])c1Cc1ccccc1 (optimized conformer: 81.45929032152158 kcal/mol)

>  <smiles>  (46) 
O=c1[nH]c(Sc2c[nH]c(=Nc3cccc(O)c3)s2)nc(O)c1Cc1ccccc1

>  <score_type>  (46) 
oracle

>  <origin>  (46) 
adg

>  <m_score__min__energy>  (46) 
-15.789999999999999

>  <m_primary>  (46) 
energy

$$$$
46:0
     RDKit          3D

 53 56  0  0  0  0  0  0  0  0999 V2000
   58.0365   33.0736   40.4368 H   0  0  0  0  0  0  0  0  0  0  0  0
   58.1630   32.3960   41.2940 C   0  0  0  0  0  0  0  0  0  0  0  0
   59.1689   32.1910   41.6893 H   0  0  0  0  0  0  0  0  0  0  0  0
   57.0970   31.8230   41.8540 C   0  0  0  0  0  0  0  0  0  0  0  0
   56.1079   32.0523   41.4309 H   0  0  0  0  0  0  0  0  0  0  0  0
   57.1590   30.8960   43.0110 C   0  0  0  0  0  0  0  0  0  0  0  0
   56.0540   30.1290   43.4290 C   0  0  0  0  0  0  0  0  0  0  0  0
   55.1009   30.2019   42.8847 H   0  0  0  0  0  0  0  0  0  0  0  0
   56.1610   29.2750   44.5320 C   0  0  0  0  0  0  0  0  0  0  0  0
   55.2886   28.6884   44.8559 H   0  0  0  0  0  0  0  0  0  0  0  0
   57.3770   29.1620   45.2290 C   0  0  0  0  0  0  0  0  0  0  0  0
   57.5200   28.3170   46.3840 N   0  0  0  0  0  0  0  0  0  0  0  0
   58.4370   28.4030   47.3030 C   0  0  0  0  0  0  0  0  0  0  0  0
   58.5430   29.5060   48.0930 N   0  0  0  0  0  0  0  0  0  0  0  0
   59.4810   29.5920   49.0760 C   0  0  0  0  0  0  0  0  0  0  0  0
   59.5760   30.7910   49.8690 N   0  0  0  0  0  0  0  0  0  0  0  0
   58.6780   31.9000   49.6550 C   0  0  0  0  0  0  0  0  0  0  0  0
   57.5500   31.9200   50.2160 O   0  0  0  0  0  0  0  0  0  0  0  0
   59.0840   32.9940   48.8200 N   0  0  0  0  0  0  0  0  0  0  0  0
   58.6790   33.2510   47.4650 C   0  0  0  0  0  0  0  0  0  0  0  0
   57.3250   33.4360   47.1290 C   0  0  0  0  0  0  0  0  0  0  0  0
   56.5542   33.3673   47.9107 H   0  0  0  0  0  0  0  0  0  0  0  0
   56.9530   33.7060   45.8110 C   0  0  0  0  0  0  0  0  0  0  0  0
   55.8929   33.8591   45.5605 H   0  0  0  0  0  0  0  0  0  0  0  0
   57.9210   33.7820   44.8120 C   0  0  0  0  0  0  0  0  0  0  0  0
   57.6255   34.0078   43.7768 H   0  0  0  0  0  0  0  0  0  0  0  0
   59.2650   33.5720   45.1230 C   0  0  0  0  0  0  0  0  0  0  0  0
   60.0240   33.6284   44.3288 H   0  0  0  0  0  0  0  0  0  0  0  0
   59.6570   33.2890   46.4430 C   0  0  0  0  0  0  0  0  0  0  0  0
   61.0910   33.0520   46.7380 C   0  0  0  0  0  0  0  0  0  0  0  0
   61.5040   31.8370   47.3140 C   0  0  0  0  0  0  0  0  0  0  0  0
   60.7606   31.0594   47.5437 H   0  0  0  0  0  0  0  0  0  0  0  0
   62.8550   31.6130   47.5960 C   0  0  0  0  0  0  0  0  0  0  0  0
   63.1722   30.6585   48.0413 H   0  0  0  0  0  0  0  0  0  0  0  0
   63.8030   32.6000   47.3130 C   0  0  0  0  0  0  0  0  0  0  0  0
   64.8658   32.4211   47.5330 H   0  0  0  0  0  0  0  0  0  0  0  0
   63.4010   33.8130   46.7510 C   0  0  0  0  0  0  0  0  0  0  0  0
   64.1480   34.5899   46.5311 H   0  0  0  0  0  0  0  0  0  0  0  0
   62.0520   34.0430   46.4670 C   0  0  0  0  0  0  0  0  0  0  0  0
   61.7404   35.0030   46.0297 H   0  0  0  0  0  0  0  0  0  0  0  0
   60.7350   30.9670   50.7500 C   0  0  0  0  0  0  0  0  0  0  0  0
   60.4088   30.9175   51.7993 H   0  0  0  0  0  0  0  0  0  0  0  0
   61.4676   30.1698   50.5558 H   0  0  0  0  0  0  0  0  0  0  0  0
   61.1980   31.9457   50.5558 H   0  0  0  0  0  0  0  0  0  0  0  0
   60.3650   28.5230   49.2690 C   0  0  0  0  0  0  0  0  0  0  0  0
   61.1453   28.5728   50.0427 H   0  0  0  0  0  0  0  0  0  0  0  0
   60.2360   27.3950   48.4610 C   0  0  0  0  0  0  0  0  0  0  0  0
   60.9118   26.5384   48.6007 H   0  0  0  0  0  0  0  0  0  0  0  0
   59.2760   27.3530   47.5010 N   0  0  0  0  0  0  0  0  0  0  0  0
   58.4600   29.9590   44.8430 C   0  0  0  0  0  0  0  0  0  0  0  0
   59.4012   29.9129   45.4104 H   0  0  0  0  0  0  0  0  0  0  0  0
   58.3550   30.8140   43.7410 C   0  0  0  0  0  0  0  0  0  0  0  0
   59.2179   31.4280   43.4436 H   0  0  0  0  0  0  0  0  0  0  0  0
  1  2  1  0
  2  3  1  0
  2  4  2  0
  4  5  1  0
  4  6  1  0
  6  7  2  0
  7  8  1  0
  7  9  1  0
  9 10  1  0
  9 11  2  0
 11 12  1  0
 12 13  2  0
 13 14  1  0
 14 15  2  0
 15 16  1  0
 16 17  1  0
 17 18  2  0
 17 19  1  0
 19 20  1  0
 20 21  2  0
 21 22  1  0
 21 23  1  0
 23 24  1  0
 23 25  2  0
 25 26  1  0
 25 27  1  0
 27 28  1  0
 27 29  2  0
 29 30  1  0
 30 31  2  0
 31 32  1  0
 31 33  1  0
 33 34  1  0
 33 35  2  0
 35 36  1  0
 35 37  1  0
 37 38  1  0
 37 39  2  0
 39 40  1  0
 16 41  1  0
 41 42  1  0
 41 43  1  0
 41 44  1  0
 15 45  1  0
 45 46  1  0
 45 47  2  0
 47 48  1  0
 47 49  1  0
 11 50  1  0
 50 51  1  0
 50 52  2  0
 52 53  1  0
 52  6  1  0
 49 13  1  0
 29 20  1  0
 39 30  1  0
M  CHG  2  19  -1  49  -1
M  END
>  <UniqueID>  (47) 
44

>  <SMILES>  (47) 
C=Cc1ccc(/N=c2\nc(N(C)C(=O)[N-]c3ccccc3-c3ccccc3)cc[n-]2)cc1

>  <Energy>  (47) 
80.00918487312786

>  <Genealogy>  (47) 
C=Cc1ccc(N=c2nc(N(C)C(=O)[N-]c3ccccc3-c3ccccc3)cc[n-]2)cc1 (protonated)
C=Cc1ccc(/N=c2\nc(N(C)C(=O)[N-]c3ccccc3-c3ccccc3)cc[n-]2)cc1 (cis-trans isomerization)
C=Cc1ccc(/N=c2\nc(N(C)C(=O)[N-]c3ccccc3-c3ccccc3)cc[n-]2)cc1 (3D coordinates assigned)
C=Cc1ccc(/N=c2\nc(N(C)C(=O)[N-]c3ccccc3-c3ccccc3)cc[n-]2)cc1 (optimized conformer: 80.00918487312786 kcal/mol)

>  <smiles>  (47) 
C=Cc1ccc(N=c2nc(N(C)C(=O)Nc3ccccc3-c3ccccc3)cc[nH]2)cc1

>  <score_type>  (47) 
oracle

>  <origin>  (47) 
adg

>  <m_score__min__energy>  (47) 
-11.800000000000001

>  <m_primary>  (47) 
energy

$$$$
47:0
     RDKit          3D

 48 50  0  0  0  0  0  0  0  0999 V2000
   58.4580   32.3530   48.7000 N   0  0  0  0  0  0  0  0  0  0  0  0
   59.8260   33.0590   49.4870 S   0  0  0  0  0  0  0  0  0  0  0  0
   60.0390   32.4070   50.8230 O   0  0  0  0  0  0  0  0  0  0  0  0
   59.5340   34.5170   49.7070 O   0  0  0  0  0  0  0  0  0  0  0  0
   61.2900   32.8830   48.4990 C   0  0  0  0  0  0  0  0  0  0  0  0
   61.7530   34.0170   47.8080 C   0  0  0  0  0  0  0  0  0  0  0  0
   62.8920   33.9500   47.0050 C   0  0  0  0  0  0  0  0  0  0  0  0
   63.5850   32.7500   46.8770 C   0  0  0  0  0  0  0  0  0  0  0  0
   63.1490   31.6140   47.5580 C   0  0  0  0  0  0  0  0  0  0  0  0
   62.0130   31.6610   48.3900 C   0  0  0  0  0  0  0  0  0  0  0  0
   61.6040   30.3910   49.1070 C   0  0  0  0  0  0  0  0  0  0  0  0
   60.1700   30.1300   48.9720 N   0  0  0  0  0  0  0  0  0  0  0  0
   59.5890   29.2240   48.0100 C   0  0  0  0  0  0  0  0  0  0  0  0
   59.5670   27.8390   48.2300 C   0  0  0  0  0  0  0  0  0  0  0  0
   59.0070   26.9880   47.2830 C   0  0  0  0  0  0  0  0  0  0  0  0
   58.4700   27.5190   46.1140 C   0  0  0  0  0  0  0  0  0  0  0  0
   58.4850   28.8670   45.8880 N   0  0  0  0  0  0  0  0  0  0  0  0
   57.9430   29.3770   44.6190 C   0  0  0  0  0  0  0  0  0  0  0  0
   56.5370   29.8460   44.8160 C   0  0  0  0  0  0  0  0  0  0  0  0
   55.6410   29.0140   45.1220 O   0  0  0  0  0  0  0  0  0  0  0  0
   56.2250   31.2350   44.6530 N   0  0  0  0  0  0  0  0  0  0  0  0
   57.1130   32.3380   44.8890 C   0  0  0  0  0  0  0  0  0  0  0  0
   57.0190   33.1310   46.0500 C   0  0  0  0  0  0  0  0  0  0  0  0
   57.8820   34.2150   46.2320 C   0  0  0  0  0  0  0  0  0  0  0  0
   58.8340   34.5250   45.2580 C   0  0  0  0  0  0  0  0  0  0  0  0
   58.9180   33.7570   44.0940 C   0  0  0  0  0  0  0  0  0  0  0  0
   58.0540   32.6720   43.9050 C   0  0  0  0  0  0  0  0  0  0  0  0
   58.1420   31.9390   42.7670 F   0  0  0  0  0  0  0  0  0  0  0  0
   59.0470   29.7210   46.8060 C   0  0  0  0  0  0  0  0  0  0  0  0
   59.0810   30.9620   46.5770 O   0  0  0  0  0  0  0  0  0  0  0  0
   58.6150   31.3200   48.6840 H   0  0  0  0  0  0  0  0  0  0  0  0
   58.4740   32.6780   47.7070 H   0  0  0  0  0  0  0  0  0  0  0  0
   61.2101   34.9691   47.9018 H   0  0  0  0  0  0  0  0  0  0  0  0
   63.2425   34.8465   46.4726 H   0  0  0  0  0  0  0  0  0  0  0  0
   64.4784   32.6975   46.2374 H   0  0  0  0  0  0  0  0  0  0  0  0
   63.6994   30.6684   47.4441 H   0  0  0  0  0  0  0  0  0  0  0  0
   62.1620   29.5449   48.6794 H   0  0  0  0  0  0  0  0  0  0  0  0
   61.8308   30.5132   50.1764 H   0  0  0  0  0  0  0  0  0  0  0  0
   59.5370   30.6430   49.6280 H   0  0  0  0  0  0  0  0  0  0  0  0
   59.9942   27.4242   49.1549 H   0  0  0  0  0  0  0  0  0  0  0  0
   58.9887   25.9020   47.4570 H   0  0  0  0  0  0  0  0  0  0  0  0
   58.0287   26.8465   45.3637 H   0  0  0  0  0  0  0  0  0  0  0  0
   58.5617   30.2168   44.2698 H   0  0  0  0  0  0  0  0  0  0  0  0
   57.9534   28.5702   43.8713 H   0  0  0  0  0  0  0  0  0  0  0  0
   56.2643   32.8962   46.8151 H   0  0  0  0  0  0  0  0  0  0  0  0
   57.8114   34.8255   47.1443 H   0  0  0  0  0  0  0  0  0  0  0  0
   59.5175   35.3738   45.4075 H   0  0  0  0  0  0  0  0  0  0  0  0
   59.6642   34.0053   43.3249 H   0  0  0  0  0  0  0  0  0  0  0  0
  1  2  1  0
  2  3  2  0
  2  4  2  0
  2  5  1  0
  5  6  2  0
  6  7  1  0
  7  8  2  0
  8  9  1  0
  9 10  2  0
 10 11  1  0
 11 12  1  0
 12 13  1  0
 13 14  2  0
 14 15  1  0
 15 16  2  0
 16 17  1  0
 17 18  1  0
 18 19  1  0
 19 20  2  0
 19 21  1  0
 21 22  1  0
 22 23  2  0
 23 24  1  0
 24 25  2  0
 25 26  1  0
 26 27  2  0
 27 28  1  0
 17 29  1  0
 29 30  2  0
 10  5  1  0
 29 13  1  0
 27 22  1  0
  1 31  1  0
  1 32  1  0
  6 33  1  0
  7 34  1  0
  8 35  1  0
  9 36  1  0
 11 37  1  0
 11 38  1  0
 12 39  1  0
 14 40  1  0
 15 41  1  0
 16 42  1  0
 18 43  1  0
 18 44  1  0
 23 45  1  0
 24 46  1  0
 25 47  1  0
 26 48  1  0
M  CHG  1  21  -1
M  END
>  <UniqueID>  (48) 
45

>  <SMILES>  (48) 
NS(=O)(=O)c1ccccc1CNc1cccn(CC(=O)[N-]c2ccccc2F)c1=O

>  <Energy>  (48) 
57.094402535118846

>  <Genealogy>  (48) 
NS(=O)(=O)c1ccccc1CNc1cccn(CC(=O)[N-]c2ccccc2F)c1=O (protonated)
NS(=O)(=O)c1ccccc1CNc1cccn(CC(=O)[N-]c2ccccc2F)c1=O (3D coordinates assigned)
NS(=O)(=O)c1ccccc1CNc1cccn(CC(=O)[N-]c2ccccc2F)c1=O (optimized conformer: 57.094402535118846 kcal/mol)

>  <smiles>  (48) 
NS(=O)(=O)c1ccccc1CNc1cccn(CC(=O)Nc2ccccc2F)c1=O

>  <score_type>  (48) 
oracle

>  <origin>  (48) 
adg

>  <m_score__min__energy>  (48) 
-10.27

>  <m_primary>  (48) 
energy

$$$$
48:0
     RDKit          3D

 42 44  0  0  0  0  0  0  0  0999 V2000
   59.2580   35.3600   45.1390 O   0  0  0  0  0  0  0  0  0  0  0  0
   58.9850   34.0560   45.8350 S   0  0  0  0  0  0  0  0  0  0  0  0
   57.8160   34.2330   46.7630 O   0  0  0  0  0  0  0  0  0  0  0  0
   58.5880   32.8490   44.6490 N   0  0  0  0  0  0  0  0  0  0  0  0
   57.9430   31.7360   44.8600 C   0  0  0  0  0  0  0  0  0  0  0  0
   56.8110   31.3580   44.1120 C   0  0  0  0  0  0  0  0  0  0  0  0
   56.1770   30.1450   44.3900 C   0  0  0  0  0  0  0  0  0  0  0  0
   56.6500   29.3370   45.3740 N   0  0  0  0  0  0  0  0  0  0  0  0
   57.7400   29.6740   46.1160 C   0  0  0  0  0  0  0  0  0  0  0  0
   58.2130   28.8270   47.1220 O   0  0  0  0  0  0  0  0  0  0  0  0
   59.5670   28.3910   47.1900 C   0  0  0  0  0  0  0  0  0  0  0  0
   59.9010   27.5070   45.9850 C   0  0  0  0  0  0  0  0  0  0  0  0
   59.6420   26.0150   46.2420 C   0  0  0  0  0  0  0  0  0  0  0  0
   58.1930   25.6620   46.0820 C   0  0  0  0  0  0  0  0  0  0  0  0
   57.1830   26.5520   46.1800 N   0  0  0  0  0  0  0  0  0  0  0  0
   55.9720   25.9840   45.9450 C   0  0  0  0  0  0  0  0  0  0  0  0
   54.7930   26.7160   45.9940 O   0  0  0  0  0  0  0  0  0  0  0  0
   56.0000   24.6260   45.6480 C   0  0  0  0  0  0  0  0  0  0  0  0
   57.6100   24.1340   45.6830 S   0  0  0  0  0  0  0  0  0  0  0  0
   58.4010   30.8800   45.8700 C   0  0  0  0  0  0  0  0  0  0  0  0
   60.3830   33.5460   46.7780 C   0  0  0  0  0  0  0  0  0  0  0  0
   61.6770   33.8400   46.3270 C   0  0  0  0  0  0  0  0  0  0  0  0
   62.7890   33.4450   47.0770 C   0  0  0  0  0  0  0  0  0  0  0  0
   62.6130   32.7510   48.2770 C   0  0  0  0  0  0  0  0  0  0  0  0
   63.6910   32.3680   49.0050 F   0  0  0  0  0  0  0  0  0  0  0  0
   61.3240   32.4500   48.7290 C   0  0  0  0  0  0  0  0  0  0  0  0
   60.2100   32.8450   47.9800 C   0  0  0  0  0  0  0  0  0  0  0  0
   56.4292   32.0131   43.3150 H   0  0  0  0  0  0  0  0  0  0  0  0
   55.2921   29.8432   43.8104 H   0  0  0  0  0  0  0  0  0  0  0  0
   60.2311   29.2679   47.1921 H   0  0  0  0  0  0  0  0  0  0  0  0
   59.7098   27.8085   48.1121 H   0  0  0  0  0  0  0  0  0  0  0  0
   59.2831   27.8280   45.1334 H   0  0  0  0  0  0  0  0  0  0  0  0
   60.9757   27.6229   45.7810 H   0  0  0  0  0  0  0  0  0  0  0  0
   60.2329   25.4234   45.5273 H   0  0  0  0  0  0  0  0  0  0  0  0
   59.9341   25.7925   47.2789 H   0  0  0  0  0  0  0  0  0  0  0  0
   57.3140   27.5650   46.4060 H   0  0  0  0  0  0  0  0  0  0  0  0
   55.1297   23.9895   45.4301 H   0  0  0  0  0  0  0  0  0  0  0  0
   59.2808   31.1573   46.4692 H   0  0  0  0  0  0  0  0  0  0  0  0
   61.8181   34.3828   45.3807 H   0  0  0  0  0  0  0  0  0  0  0  0
   63.8031   33.6807   46.7221 H   0  0  0  0  0  0  0  0  0  0  0  0
   61.1860   31.9028   49.6732 H   0  0  0  0  0  0  0  0  0  0  0  0
   59.1968   32.6052   48.3348 H   0  0  0  0  0  0  0  0  0  0  0  0
  1  2  2  0
  2  3  2  0
  2  4  1  0
  4  5  2  3
  5  6  1  0
  6  7  2  0
  7  8  1  0
  8  9  1  0
  9 10  1  0
 10 11  1  0
 11 12  1  0
 12 13  1  0
 13 14  1  0
 14 15  2  0
 15 16  1  0
 16 17  1  0
 16 18  2  0
 18 19  1  0
  9 20  2  0
  2 21  1  0
 21 22  2  0
 22 23  1  0
 23 24  2  0
 24 25  1  0
 24 26  1  0
 26 27  2  0
 20  5  1  0
 27 21  1  0
 19 14  1  0
  6 28  1  0
  7 29  1  0
 11 30  1  0
 11 31  1  0
 12 32  1  0
 12 33  1  0
 13 34  1  0
 13 35  1  0
 15 36  1  0
 18 37  1  0
 20 38  1  0
 22 39  1  0
 23 40  1  0
 26 41  1  0
 27 42  1  0
M  CHG  3   8  -1  15   1  17  -1
M  END
>  <UniqueID>  (49) 
46

>  <SMILES>  (49) 
O=S(=O)(N=c1cc[n-]c(OCCCc2[nH+]c([O-])cs2)c1)c1ccc(F)cc1

>  <Energy>  (49) 
72.54801858782886

>  <Genealogy>  (49) 
O=S(=O)(N=c1cc[n-]c(OCCCc2[nH+]c([O-])cs2)c1)c1ccc(F)cc1 (protonated)
O=S(=O)(N=c1cc[n-]c(OCCCc2[nH+]c([O-])cs2)c1)c1ccc(F)cc1 (3D coordinates assigned)
O=S(=O)(N=c1cc[n-]c(OCCCc2[nH+]c([O-])cs2)c1)c1ccc(F)cc1 (optimized conformer: 72.54801858782886 kcal/mol)

>  <smiles>  (49) 
O=S(=O)(N=c1cc[nH]c(OCCCc2nc(O)cs2)c1)c1ccc(F)cc1

>  <score_type>  (49) 
oracle

>  <origin>  (49) 
adg

>  <m_score__min__energy>  (49) 
-11.359999999999999

>  <m_primary>  (49) 
energy

$$$$
49:0
     RDKit          3D

 67 72  0  0  0  0  0  0  0  0999 V2000
   56.9320   30.0630   43.2920 C   0  0  0  0  0  0  0  0  0  0  0  0
   57.5100   31.1830   44.1050 C   0  0  0  0  0  0  0  0  0  0  0  0
   57.8440   32.4070   43.5040 C   0  0  0  0  0  0  0  0  0  0  0  0
   58.4060   33.4360   44.2640 C   0  0  0  0  0  0  0  0  0  0  0  0
   58.6540   33.2530   45.6320 C   0  0  0  0  0  0  0  0  0  0  0  0
   59.2260   34.3790   46.4540 C   0  0  0  0  0  0  0  0  0  0  0  0
   60.5030   33.9670   47.0650 N   0  0  0  0  0  0  0  0  0  0  0  0
   61.6600   34.1630   46.3660 C   0  0  0  0  0  0  0  0  0  0  0  0
   62.8920   33.8480   46.9260 C   0  0  0  0  0  0  0  0  0  0  0  0
   62.9520   33.3270   48.2130 C   0  0  0  0  0  0  0  0  0  0  0  0
   64.1670   33.0610   48.7610 N   0  0  0  0  0  0  0  0  0  0  0  0
   64.3110   32.5720   50.0190 C   0  0  0  0  0  0  0  0  0  0  0  0
   65.6690   32.3190   50.5440 C   0  0  0  0  0  0  0  0  0  0  0  0
   66.7370   33.2090   50.4880 C   0  0  0  0  0  0  0  0  0  0  0  0
   67.9100   32.7100   51.0690 C   0  0  0  0  0  0  0  0  0  0  0  0
   67.7760   31.4300   51.5880 C   0  0  0  0  0  0  0  0  0  0  0  0
   66.1980   30.9190   51.3210 S   0  0  0  0  0  0  0  0  0  0  0  0
   63.1690   32.3160   50.7870 C   0  0  0  0  0  0  0  0  0  0  0  0
   61.8920   32.5580   50.2620 C   0  0  0  0  0  0  0  0  0  0  0  0
   60.7340   32.2030   51.1150 C   0  0  0  0  0  0  0  0  0  0  0  0
   60.1940   33.1040   51.8180 O   0  0  0  0  0  0  0  0  0  0  0  0
   60.2240   30.8450   51.1480 N   0  0  0  0  0  0  0  0  0  0  0  0
   61.2020   29.8930   50.5420 C   0  0  0  0  0  0  0  0  0  0  0  0
   60.5350   28.7820   49.7180 C   0  0  0  0  0  0  0  0  0  0  0  0
   59.6550   29.3720   48.7000 N   0  0  0  0  0  0  0  0  0  0  0  0
   59.4670   28.7330   47.4160 C   0  0  0  0  0  0  0  0  0  0  0  0
   60.3490   28.9930   46.3470 C   0  0  0  0  0  0  0  0  0  0  0  0
   60.1620   28.3730   45.1070 C   0  0  0  0  0  0  0  0  0  0  0  0
   59.1020   27.4850   44.9180 C   0  0  0  0  0  0  0  0  0  0  0  0
   58.2250   27.2130   45.9710 C   0  0  0  0  0  0  0  0  0  0  0  0
   58.4030   27.8330   47.2110 C   0  0  0  0  0  0  0  0  0  0  0  0
   58.8830   30.5750   49.0420 C   0  0  0  0  0  0  0  0  0  0  0  0
   58.8620   30.7950   50.5590 C   0  0  0  0  0  0  0  0  0  0  0  0
   61.7660   33.0920   48.9460 C   0  0  0  0  0  0  0  0  0  0  0  0
   60.5290   33.4450   48.3360 C   0  0  0  0  0  0  0  0  0  0  0  0
   59.4440   33.2960   48.9610 O   0  0  0  0  0  0  0  0  0  0  0  0
   58.3270   32.0260   46.2330 C   0  0  0  0  0  0  0  0  0  0  0  0
   57.7640   30.9960   45.4720 C   0  0  0  0  0  0  0  0  0  0  0  0
   56.5329   29.2896   43.9647 H   0  0  0  0  0  0  0  0  0  0  0  0
   56.1215   30.4509   42.6575 H   0  0  0  0  0  0  0  0  0  0  0  0
   57.7177   29.6271   42.6575 H   0  0  0  0  0  0  0  0  0  0  0  0
   57.6624   32.5567   42.4295 H   0  0  0  0  0  0  0  0  0  0  0  0
   58.6553   34.3951   43.7865 H   0  0  0  0  0  0  0  0  0  0  0  0
   59.3982   35.2508   45.8057 H   0  0  0  0  0  0  0  0  0  0  0  0
   58.5141   34.6382   47.2515 H   0  0  0  0  0  0  0  0  0  0  0  0
   61.6159   34.5753   45.3472 H   0  0  0  0  0  0  0  0  0  0  0  0
   63.8166   34.0104   46.3527 H   0  0  0  0  0  0  0  0  0  0  0  0
   66.6671   34.2075   50.0318 H   0  0  0  0  0  0  0  0  0  0  0  0
   68.8500   33.2799   51.1100 H   0  0  0  0  0  0  0  0  0  0  0  0
   68.5661   30.8503   52.0877 H   0  0  0  0  0  0  0  0  0  0  0  0
   63.2744   31.9225   51.8088 H   0  0  0  0  0  0  0  0  0  0  0  0
   60.1120   30.5670   52.1520 H   0  0  0  0  0  0  0  0  0  0  0  0
   61.8780   30.4584   49.8837 H   0  0  0  0  0  0  0  0  0  0  0  0
   61.7405   29.4075   51.3692 H   0  0  0  0  0  0  0  0  0  0  0  0
   61.3109   28.1790   49.2238 H   0  0  0  0  0  0  0  0  0  0  0  0
   59.9377   28.1449   50.3868 H   0  0  0  0  0  0  0  0  0  0  0  0
   61.1897   29.6880   46.4891 H   0  0  0  0  0  0  0  0  0  0  0  0
   60.8529   28.5861   44.2780 H   0  0  0  0  0  0  0  0  0  0  0  0
   58.9573   27.0000   43.9414 H   0  0  0  0  0  0  0  0  0  0  0  0
   57.3925   26.5093   45.8239 H   0  0  0  0  0  0  0  0  0  0  0  0
   57.7061   27.6162   48.0340 H   0  0  0  0  0  0  0  0  0  0  0  0
   59.3430   31.4487   48.5572 H   0  0  0  0  0  0  0  0  0  0  0  0
   57.8491   30.4424   48.6905 H   0  0  0  0  0  0  0  0  0  0  0  0
   58.3519   31.7465   50.7699 H   0  0  0  0  0  0  0  0  0  0  0  0
   58.3345   29.9425   51.0118 H   0  0  0  0  0  0  0  0  0  0  0  0
   58.5144   31.8746   47.3063 H   0  0  0  0  0  0  0  0  0  0  0  0
   57.5193   30.0349   45.9477 H   0  0  0  0  0  0  0  0  0  0  0  0
  1  2  1  0
  2  3  2  0
  3  4  1  0
  4  5  2  0
  5  6  1  0
  6  7  1  0
  7  8  1  0
  8  9  2  0
  9 10  1  0
 10 11  2  0
 11 12  1  0
 12 13  1  0
 13 14  2  0
 14 15  1  0
 15 16  2  0
 16 17  1  0
 12 18  2  0
 18 19  1  0
 19 20  1  0
 20 21  2  0
 20 22  1  0
 22 23  1  0
 23 24  1  0
 24 25  1  0
 25 26  1  0
 26 27  2  0
 27 28  1  0
 28 29  2  0
 29 30  1  0
 30 31  2  0
 25 32  1  0
 32 33  1  0
 19 34  2  0
 34 35  1  0
 35 36  2  0
  5 37  1  0
 37 38  2  0
 38  2  1  0
 35  7  1  0
 34 10  1  0
 17 13  1  0
 33 22  1  0
 31 26  1  0
  1 39  1  0
  1 40  1  0
  1 41  1  0
  3 42  1  0
  4 43  1  0
  6 44  1  0
  6 45  1  0
  8 46  1  0
  9 47  1  0
 14 48  1  0
 15 49  1  0
 16 50  1  0
 18 51  1  0
 22 52  1  0
 23 53  1  0
 23 54  1  0
 24 55  1  0
 24 56  1  0
 27 57  1  0
 28 58  1  0
 29 59  1  0
 30 60  1  0
 31 61  1  0
 32 62  1  0
 32 63  1  0
 33 64  1  0
 33 65  1  0
 37 66  1  0
 38 67  1  0
M  CHG  1  22   1
M  END
>  <UniqueID>  (50) 
47

>  <SMILES>  (50) 
Cc1ccc(Cn2ccc3nc(-c4cccs4)cc(C(=O)[NH+]4CCN(c5ccccc5)CC4)c3c2=O)cc1

>  <Energy>  (50) 
128.1904564243069

>  <Genealogy>  (50) 
Cc1ccc(Cn2ccc3nc(-c4cccs4)cc(C(=O)[NH+]4CCN(c5ccccc5)CC4)c3c2=O)cc1 (protonated)
Cc1ccc(Cn2ccc3nc(-c4cccs4)cc(C(=O)[NH+]4CCN(c5ccccc5)CC4)c3c2=O)cc1 (3D coordinates assigned)
Cc1ccc(Cn2ccc3nc(-c4cccs4)cc(C(=O)[NH+]4CCN(c5ccccc5)CC4)c3c2=O)cc1 (nonaromatic ring conformer: 128.1904564243069 kcal/mol)

>  <smiles>  (50) 
Cc1ccc(Cn2ccc3nc(-c4cccs4)cc(C(=O)N4CCN(c5ccccc5)CC4)c3c2=O)cc1

>  <score_type>  (50) 
oracle

>  <origin>  (50) 
adg

>  <m_score__min__energy>  (50) 
-8.7699999999999996

>  <m_primary>  (50) 
energy

$$$$
50:0
     RDKit          3D

 30 32  0  0  0  0  0  0  0  0999 V2000
   52.3070   27.5430   53.5050 C   0  0  0  0  0  0  0  0  0  0  0  0
   53.4500   28.3920   53.1410 N   0  0  0  0  0  0  0  0  0  0  0  0
   54.7530   27.9730   53.3000 C   0  0  0  0  0  0  0  0  0  0  0  0
   55.0090   26.8360   53.7800 O   0  0  0  0  0  0  0  0  0  0  0  0
   55.7930   28.7830   52.9340 N   0  0  0  0  0  0  0  0  0  0  0  0
   55.5980   30.0250   52.4030 C   0  0  0  0  0  0  0  0  0  0  0  0
   56.7650   30.8540   52.0320 C   0  0  0  0  0  0  0  0  0  0  0  0
   56.8480   32.1840   52.4810 C   0  0  0  0  0  0  0  0  0  0  0  0
   57.9360   32.9850   52.1220 C   0  0  0  0  0  0  0  0  0  0  0  0
   58.9450   32.4710   51.3040 C   0  0  0  0  0  0  0  0  0  0  0  0
   58.8630   31.1570   50.8360 C   0  0  0  0  0  0  0  0  0  0  0  0
   57.7760   30.3520   51.1930 C   0  0  0  0  0  0  0  0  0  0  0  0
   54.2780   30.4390   52.2190 C   0  0  0  0  0  0  0  0  0  0  0  0
   53.7260   31.5660   51.6390 C   0  0  0  0  0  0  0  0  0  0  0  0
   52.3500   31.3680   51.7060 C   0  0  0  0  0  0  0  0  0  0  0  0
   51.3330   32.2990   51.1970 C   0  0  0  0  0  0  0  0  0  0  0  0
   51.3980   32.7300   50.0170 O   0  0  0  0  0  0  0  0  0  0  0  0
   50.2930   32.7110   52.0200 O   0  0  0  0  0  0  0  0  0  0  0  0
   52.0570   30.1800   52.2850 N   0  0  0  0  0  0  0  0  0  0  0  0
   53.2450   29.6230   52.5870 C   0  0  0  0  0  0  0  0  0  0  0  0
   52.2280   27.4843   54.6006 H   0  0  0  0  0  0  0  0  0  0  0  0
   51.3832   27.9756   53.0934 H   0  0  0  0  0  0  0  0  0  0  0  0
   52.4543   26.5336   53.0934 H   0  0  0  0  0  0  0  0  0  0  0  0
   56.0521   32.5965   53.1185 H   0  0  0  0  0  0  0  0  0  0  0  0
   57.9977   34.0218   52.4843 H   0  0  0  0  0  0  0  0  0  0  0  0
   59.8039   33.1006   51.0284 H   0  0  0  0  0  0  0  0  0  0  0  0
   59.6542   30.7550   50.1860 H   0  0  0  0  0  0  0  0  0  0  0  0
   57.7117   29.3208   50.8155 H   0  0  0  0  0  0  0  0  0  0  0  0
   54.2584   32.4309   51.2165 H   0  0  0  0  0  0  0  0  0  0  0  0
   51.1060   29.7760   52.4370 H   0  0  0  0  0  0  0  0  0  0  0  0
  1  2  1  0
  2  3  1  0
  3  4  2  0
  3  5  1  0
  5  6  2  0
  6  7  1  0
  7  8  2  0
  8  9  1  0
  9 10  2  0
 10 11  1  0
 11 12  2  0
  6 13  1  0
 13 14  1  0
 14 15  2  0
 15 16  1  0
 16 17  2  0
 16 18  1  0
 15 19  1  0
 19 20  1  0
 20  2  1  0
 12  7  1  0
 20 13  2  0
  1 21  1  0
  1 22  1  0
  1 23  1  0
  8 24  1  0
  9 25  1  0
 10 26  1  0
 11 27  1  0
 12 28  1  0
 14 29  1  0
 19 30  1  0
M  CHG  1  18  -1
M  END
>  <UniqueID>  (51) 
48

>  <SMILES>  (51) 
Cn1c(=O)nc(-c2ccccc2)c2cc(C(=O)[O-])[nH]c21

>  <Energy>  (51) 
74.1935244772537

>  <Genealogy>  (51) 
Cn1c(=O)nc(-c2ccccc2)c2cc(C(=O)[O-])[nH]c21 (protonated)
Cn1c(=O)nc(-c2ccccc2)c2cc(C(=O)[O-])[nH]c21 (3D coordinates assigned)
Cn1c(=O)nc(-c2ccccc2)c2cc(C(=O)[O-])[nH]c21 (optimized conformer: 74.1935244772537 kcal/mol)

>  <smiles>  (51) 
Cn1c(=O)nc(-c2ccccc2)c2cc(C(=O)O)[nH]c21

>  <score_type>  (51) 
oracle

>  <origin>  (51) 
adg

>  <m_score__min__energy>  (51) 
-9.8699999999999992

>  <m_primary>  (51) 
energy

$$$$
51:0
     RDKit          3D

 70 75  0  0  0  0  0  0  0  0999 V2000
   60.2830   34.2510   49.3820 C   0  0  0  0  0  0  0  0  0  0  0  0
   59.5390   34.0020   48.1020 C   0  0  0  0  0  0  0  0  0  0  0  0
   59.9120   34.6700   46.9240 C   0  0  0  0  0  0  0  0  0  0  0  0
   59.2480   34.4090   45.7230 C   0  0  0  0  0  0  0  0  0  0  0  0
   58.1980   33.4790   45.6810 C   0  0  0  0  0  0  0  0  0  0  0  0
   57.5170   33.1740   44.3750 C   0  0  0  0  0  0  0  0  0  0  0  0
   57.6440   31.7560   44.0500 N   0  0  0  0  0  0  0  0  0  0  0  0
   56.7200   30.7210   44.4170 C   0  0  0  0  0  0  0  0  0  0  0  0
   55.5150   30.8350   44.0710 O   0  0  0  0  0  0  0  0  0  0  0  0
   57.1400   29.5160   45.1530 C   0  0  0  0  0  0  0  0  0  0  0  0
   56.3660   28.3710   45.3040 C   0  0  0  0  0  0  0  0  0  0  0  0
   57.1430   27.4980   46.0470 C   0  0  0  0  0  0  0  0  0  0  0  0
   58.3220   28.1490   46.3170 C   0  0  0  0  0  0  0  0  0  0  0  0
   58.3250   29.3860   45.7900 N   0  0  0  0  0  0  0  0  0  0  0  0
   59.3390   27.5250   47.0480 C   0  0  0  0  0  0  0  0  0  0  0  0
   60.6400   28.2080   47.3640 C   0  0  0  0  0  0  0  0  0  0  0  0
   60.4290   29.6580   47.6790 C   0  0  0  0  0  0  0  0  0  0  0  0
   59.3070   30.0570   48.0980 O   0  0  0  0  0  0  0  0  0  0  0  0
   61.4710   30.5960   47.3900 N   0  0  0  0  0  0  0  0  0  0  0  0
   62.1380   31.4260   48.3490 C   0  0  0  0  0  0  0  0  0  0  0  0
   63.1180   32.3210   47.9040 C   0  0  0  0  0  0  0  0  0  0  0  0
   63.7900   33.1450   48.8110 C   0  0  0  0  0  0  0  0  0  0  0  0
   63.5100   33.0610   50.1810 C   0  0  0  0  0  0  0  0  0  0  0  0
   64.3580   34.1060   51.3270 S   0  0  0  0  0  0  0  0  0  0  0  0
   64.2130   33.5430   52.7140 O   0  0  0  0  0  0  0  0  0  0  0  0
   63.7210   35.4690   51.3090 O   0  0  0  0  0  0  0  0  0  0  0  0
   66.0570   34.2530   50.9460 N   0  0  0  0  0  0  0  0  0  0  0  0
   66.7290   35.1420   51.9100 C   0  0  0  0  0  0  0  0  0  0  0  0
   68.2610   35.0360   51.7790 C   0  0  0  0  0  0  0  0  0  0  0  0
   68.6210   34.4360   50.5490 O   0  0  0  0  0  0  0  0  0  0  0  0
   68.1830   33.0860   50.5220 C   0  0  0  0  0  0  0  0  0  0  0  0
   66.7030   32.9340   50.9310 C   0  0  0  0  0  0  0  0  0  0  0  0
   62.5500   32.1450   50.6350 C   0  0  0  0  0  0  0  0  0  0  0  0
   61.8680   31.3310   49.7260 C   0  0  0  0  0  0  0  0  0  0  0  0
   59.1130   26.2590   47.5100 N   0  0  0  0  0  0  0  0  0  0  0  0
   57.9470   25.5880   47.2660 C   0  0  0  0  0  0  0  0  0  0  0  0
   57.7820   24.3300   47.7490 N   0  0  0  0  0  0  0  0  0  0  0  0
   56.6360   23.6360   47.5220 C   0  0  0  0  0  0  0  0  0  0  0  0
   56.5070   22.4710   47.9800 O   0  0  0  0  0  0  0  0  0  0  0  0
   55.6300   24.1960   46.8010 N   0  0  0  0  0  0  0  0  0  0  0  0
   55.7350   25.4510   46.2920 C   0  0  0  0  0  0  0  0  0  0  0  0
   54.7750   25.9240   45.6280 O   0  0  0  0  0  0  0  0  0  0  0  0
   56.9100   26.1940   46.5120 C   0  0  0  0  0  0  0  0  0  0  0  0
   57.8270   32.8070   46.8590 C   0  0  0  0  0  0  0  0  0  0  0  0
   58.4980   33.0580   48.0590 C   0  0  0  0  0  0  0  0  0  0  0  0
   58.1390   32.3730   49.1770 F   0  0  0  0  0  0  0  0  0  0  0  0
   59.6262   34.0312   50.2366 H   0  0  0  0  0  0  0  0  0  0  0  0
   61.1690   33.6004   49.4236 H   0  0  0  0  0  0  0  0  0  0  0  0
   60.5989   35.3038   49.4236 H   0  0  0  0  0  0  0  0  0  0  0  0
   60.7318   35.4030   46.9473 H   0  0  0  0  0  0  0  0  0  0  0  0
   59.5498   34.9352   44.8054 H   0  0  0  0  0  0  0  0  0  0  0  0
   56.4509   33.4331   44.4537 H   0  0  0  0  0  0  0  0  0  0  0  0
   57.9936   33.7651   43.5791 H   0  0  0  0  0  0  0  0  0  0  0  0
   55.3518   28.1957   44.9158 H   0  0  0  0  0  0  0  0  0  0  0  0
   59.0650   30.1150   45.8910 H   0  0  0  0  0  0  0  0  0  0  0  0
   61.1018   27.7158   48.2326 H   0  0  0  0  0  0  0  0  0  0  0  0
   61.2945   28.1349   46.4830 H   0  0  0  0  0  0  0  0  0  0  0  0
   63.3610   32.3762   46.8326 H   0  0  0  0  0  0  0  0  0  0  0  0
   64.5412   33.8618   48.4479 H   0  0  0  0  0  0  0  0  0  0  0  0
   66.4219   36.1805   51.7172 H   0  0  0  0  0  0  0  0  0  0  0  0
   66.4411   34.8394   52.9276 H   0  0  0  0  0  0  0  0  0  0  0  0
   68.6977   36.0443   51.8296 H   0  0  0  0  0  0  0  0  0  0  0  0
   68.6422   34.4114   52.6003 H   0  0  0  0  0  0  0  0  0  0  0  0
   68.3084   32.6953   49.5014 H   0  0  0  0  0  0  0  0  0  0  0  0
   68.7888   32.5246   51.2486 H   0  0  0  0  0  0  0  0  0  0  0  0
   66.1888   32.2829   50.2087 H   0  0  0  0  0  0  0  0  0  0  0  0
   66.6458   32.4883   51.9350 H   0  0  0  0  0  0  0  0  0  0  0  0
   62.3329   32.0668   51.7105 H   0  0  0  0  0  0  0  0  0  0  0  0
   61.1174   30.6135   50.0890 H   0  0  0  0  0  0  0  0  0  0  0  0
   57.0030   32.0787   46.8360 H   0  0  0  0  0  0  0  0  0  0  0  0
  1  2  1  0
  2  3  2  0
  3  4  1  0
  4  5  2  0
  5  6  1  0
  6  7  1  0
  7  8  1  0
  8  9  2  0
  8 10  1  0
 10 11  2  0
 11 12  1  0
 12 13  2  0
 13 14  1  0
 13 15  1  0
 15 16  1  0
 16 17  1  0
 17 18  2  0
 17 19  1  0
 19 20  1  0
 20 21  2  0
 21 22  1  0
 22 23  2  0
 23 24  1  0
 24 25  2  0
 24 26  2  0
 24 27  1  0
 27 28  1  0
 28 29  1  0
 29 30  1  0
 30 31  1  0
 31 32  1  0
 23 33  1  0
 33 34  2  0
 15 35  2  0
 35 36  1  0
 36 37  1  0
 37 38  1  0
 38 39  2  0
 38 40  1  0
 40 41  1  0
 41 42  2  0
 41 43  1  0
  5 44  1  0
 44 45  2  0
 45 46  1  0
 45  2  1  0
 14 10  1  0
 34 20  1  0
 43 36  2  0
 43 12  1  0
 32 27  1  0
  1 47  1  0
  1 48  1  0
  1 49  1  0
  3 50  1  0
  4 51  1  0
  6 52  1  0
  6 53  1  0
 11 54  1  0
 14 55  1  0
 16 56  1  0
 16 57  1  0
 21 58  1  0
 22 59  1  0
 28 60  1  0
 28 61  1  0
 29 62  1  0
 29 63  1  0
 31 64  1  0
 31 65  1  0
 32 66  1  0
 32 67  1  0
 33 68  1  0
 34 69  1  0
 44 70  1  0
M  CHG  4   7  -1  19  -1  37  -1  40  -1
M  END
>  <UniqueID>  (52) 
49

>  <SMILES>  (52) 
Cc1ccc(C[N-]C(=O)c2cc3c([nH]2)c(CC(=O)[N-]c2ccc(S(=O)(=O)N4CCOCC4)cc2)nc2[n-]c(=O)[n-]c(=O)c23)cc1F

>  <Energy>  (52) 
127.11871430686972

>  <Genealogy>  (52) 
Cc1ccc(C[N-]C(=O)c2cc3c([nH]2)c(CC(=O)[N-]c2ccc(S(=O)(=O)N4CCOCC4)cc2)nc2[n-]c(=O)[n-]c(=O)c23)cc1F (protonated)
Cc1ccc(C[N-]C(=O)c2cc3c([nH]2)c(CC(=O)[N-]c2ccc(S(=O)(=O)N4CCOCC4)cc2)nc2[n-]c(=O)[n-]c(=O)c23)cc1F (3D coordinates assigned)
Cc1ccc(C[N-]C(=O)c2cc3c([nH]2)c(CC(=O)[N-]c2ccc(S(=O)(=O)N4CCOCC4)cc2)nc2[n-]c(=O)[n-]c(=O)c23)cc1F (nonaromatic ring conformer: 127.11871430686972 kcal/mol)

>  <smiles>  (52) 
Cc1ccc(CNC(=O)c2cc3c([nH]2)c(CC(=O)Nc2ccc(S(=O)(=O)N4CCOCC4)cc2)nc2[nH]c(=O)[nH]c(=O)c23)cc1F

>  <score_type>  (52) 
oracle

>  <origin>  (52) 
adg

>  <m_score__min__energy>  (52) 
-15.49

>  <m_primary>  (52) 
energy

$$$$
52:0
     RDKit          3D

 61 64  0  0  0  0  0  0  0  0999 V2000
   53.4427   28.7880   54.0408 H   0  0  0  0  0  0  0  0  0  0  0  0
   53.9720   29.3620   53.2660 C   0  0  0  0  0  0  0  0  0  0  0  0
   55.3190   29.2610   53.2270 C   0  0  0  0  0  0  0  0  0  0  0  0
   55.9830   28.0810   53.7380 C   0  0  0  0  0  0  0  0  0  0  0  0
   56.5160   27.1370   54.1370 N   0  0  0  0  0  0  0  0  0  0  0  0
   56.1440   30.4040   52.7420 C   0  0  0  0  0  0  0  0  0  0  0  0
   55.9660   31.5490   53.2460 O   0  0  0  0  0  0  0  0  0  0  0  0
   57.1160   30.2230   51.6880 N   0  0  0  0  0  0  0  0  0  0  0  0
   57.1380   29.3030   51.1920 H   0  0  0  0  0  0  0  0  0  0  0  0
   58.0690   31.2160   51.2750 C   0  0  0  0  0  0  0  0  0  0  0  0
   58.3020   31.7780   49.7070 S   0  0  0  0  0  0  0  0  0  0  0  0
   59.5020   32.8970   50.0840 C   0  0  0  0  0  0  0  0  0  0  0  0
   60.1370   33.7820   49.0850 C   0  0  0  0  0  0  0  0  0  0  0  0
   59.5510   34.8450   48.7340 O   0  0  0  0  0  0  0  0  0  0  0  0
   61.3470   33.3900   48.4240 N   0  0  0  0  0  0  0  0  0  0  0  0
   61.4500   33.4410   46.9660 C   0  0  0  0  0  0  0  0  0  0  0  0
   61.2186   32.4498   46.5490 H   0  0  0  0  0  0  0  0  0  0  0  0
   60.7367   34.1831   46.5780 H   0  0  0  0  0  0  0  0  0  0  0  0
   62.8710   33.8450   46.5580 C   0  0  0  0  0  0  0  0  0  0  0  0
   62.9798   33.7200   45.4705 H   0  0  0  0  0  0  0  0  0  0  0  0
   63.0286   34.8939   46.8495 H   0  0  0  0  0  0  0  0  0  0  0  0
   63.8460   33.0500   47.2130 O   0  0  0  0  0  0  0  0  0  0  0  0
   63.7780   33.2570   48.6130 C   0  0  0  0  0  0  0  0  0  0  0  0
   64.5967   32.7061   49.0991 H   0  0  0  0  0  0  0  0  0  0  0  0
   63.8685   34.3346   48.8146 H   0  0  0  0  0  0  0  0  0  0  0  0
   62.4400   32.7640   49.1720 C   0  0  0  0  0  0  0  0  0  0  0  0
   62.3781   31.6706   49.0684 H   0  0  0  0  0  0  0  0  0  0  0  0
   62.3618   33.0325   50.2359 H   0  0  0  0  0  0  0  0  0  0  0  0
   59.7250   32.8700   51.4700 C   0  0  0  0  0  0  0  0  0  0  0  0
   60.7590   33.7220   52.1540 C   0  0  0  0  0  0  0  0  0  0  0  0
   60.6471   33.6298   53.2444 H   0  0  0  0  0  0  0  0  0  0  0  0
   61.7641   33.3865   51.8589 H   0  0  0  0  0  0  0  0  0  0  0  0
   60.6219   34.7728   51.8589 H   0  0  0  0  0  0  0  0  0  0  0  0
   58.9190   31.9180   52.1330 C   0  0  0  0  0  0  0  0  0  0  0  0
   58.9590   31.6680   53.5860 C   0  0  0  0  0  0  0  0  0  0  0  0
   58.7710   32.6400   54.3740 O   0  0  0  0  0  0  0  0  0  0  0  0
   59.1450   30.3400   54.1180 N   0  0  0  0  0  0  0  0  0  0  0  0
   58.7380   30.0430   55.5010 C   0  0  0  0  0  0  0  0  0  0  0  0
   58.9281   30.9244   56.1311 H   0  0  0  0  0  0  0  0  0  0  0  0
   57.6668   29.7933   55.5099 H   0  0  0  0  0  0  0  0  0  0  0  0
   59.5300   28.8480   56.0520 C   0  0  0  0  0  0  0  0  0  0  0  0
   59.7129   28.9992   57.1261 H   0  0  0  0  0  0  0  0  0  0  0  0
   58.9456   27.9298   55.8924 H   0  0  0  0  0  0  0  0  0  0  0  0
   60.7670   28.7240   55.3830 O   0  0  0  0  0  0  0  0  0  0  0  0
   60.5410   28.2830   54.0570 C   0  0  0  0  0  0  0  0  0  0  0  0
   61.5087   28.2117   53.5389 H   0  0  0  0  0  0  0  0  0  0  0  0
   60.0386   27.3059   54.1100 H   0  0  0  0  0  0  0  0  0  0  0  0
   59.6240   29.2410   53.2650 C   0  0  0  0  0  0  0  0  0  0  0  0
   60.1882   29.6618   52.4197 H   0  0  0  0  0  0  0  0  0  0  0  0
   58.7536   28.6735   52.9039 H   0  0  0  0  0  0  0  0  0  0  0  0
   53.1520   30.1860   52.3460 C   0  0  0  0  0  0  0  0  0  0  0  0
   52.9650   29.7520   51.0240 C   0  0  0  0  0  0  0  0  0  0  0  0
   53.4737   28.8435   50.6694 H   0  0  0  0  0  0  0  0  0  0  0  0
   52.1360   30.4680   50.1560 C   0  0  0  0  0  0  0  0  0  0  0  0
   52.0069   30.1310   49.1169 H   0  0  0  0  0  0  0  0  0  0  0  0
   51.4700   31.6130   50.6070 C   0  0  0  0  0  0  0  0  0  0  0  0
   50.6480   32.3270   49.7410 O   0  0  0  0  0  0  0  0  0  0  0  0
   51.6230   32.0340   51.9320 C   0  0  0  0  0  0  0  0  0  0  0  0
   51.0924   32.9288   52.2894 H   0  0  0  0  0  0  0  0  0  0  0  0
   52.4500   31.3180   52.8020 C   0  0  0  0  0  0  0  0  0  0  0  0
   52.5529   31.6407   53.8486 H   0  0  0  0  0  0  0  0  0  0  0  0
  1  2  1  0
  2  3  2  0
  3  4  1  0
  4  5  3  0
  3  6  1  0
  6  7  2  0
  6  8  1  0
  8  9  1  0
  8 10  1  0
 10 11  1  0
 11 12  1  0
 12 13  1  0
 13 14  2  0
 13 15  1  0
 15 16  1  0
 16 17  1  0
 16 18  1  0
 16 19  1  0
 19 20  1  0
 19 21  1  0
 19 22  1  0
 22 23  1  0
 23 24  1  0
 23 25  1  0
 23 26  1  0
 26 27  1  0
 26 28  1  0
 12 29  2  0
 29 30  1  0
 30 31  1  0
 30 32  1  0
 30 33  1  0
 29 34  1  0
 34 35  1  0
 35 36  2  0
 35 37  1  0
 37 38  1  0
 38 39  1  0
 38 40  1  0
 38 41  1  0
 41 42  1  0
 41 43  1  0
 41 44  1  0
 44 45  1  0
 45 46  1  0
 45 47  1  0
 45 48  1  0
 48 49  1  0
 48 50  1  0
  2 51  1  0
 51 52  2  0
 52 53  1  0
 52 54  1  0
 54 55  1  0
 54 56  2  0
 56 57  1  0
 56 58  1  0
 58 59  1  0
 58 60  2  0
 60 61  1  0
 34 10  2  0
 48 37  1  0
 60 51  1  0
 26 15  1  0
M  CHG  1  57  -1
M  END
>  <UniqueID>  (53) 
50

>  <SMILES>  (53) 
Cc1c(C(=O)N2CCOCC2)sc(NC(=O)/C(C#N)=C/c2ccc([O-])cc2)c1C(=O)N1CCOCC1

>  <Energy>  (53) 
118.54110037677884

>  <Genealogy>  (53) 
Cc1c(C(=O)N2CCOCC2)sc(NC(=O)C(C#N)=Cc2ccc([O-])cc2)c1C(=O)N1CCOCC1 (protonated)
Cc1c(C(=O)N2CCOCC2)sc(NC(=O)/C(C#N)=C/c2ccc([O-])cc2)c1C(=O)N1CCOCC1 (cis-trans isomerization)
Cc1c(C(=O)N2CCOCC2)sc(NC(=O)/C(C#N)=C/c2ccc([O-])cc2)c1C(=O)N1CCOCC1 (3D coordinates assigned)
Cc1c(C(=O)N2CCOCC2)sc(NC(=O)/C(C#N)=C/c2ccc([O-])cc2)c1C(=O)N1CCOCC1 (nonaromatic ring conformer: 118.54110037677884 kcal/mol)

>  <smiles>  (53) 
Cc1c(C(=O)N2CCOCC2)sc(NC(=O)C(C#N)=Cc2ccc(O)cc2)c1C(=O)N1CCOCC1

>  <score_type>  (53) 
oracle

>  <origin>  (53) 
adg

>  <m_score__min__energy>  (53) 
-12.44

>  <m_primary>  (53) 
energy

$$$$
53:0
     RDKit          3D

 43 45  0  0  0  0  0  0  0  0999 V2000
   54.0500   25.2890   46.3840 H   0  0  0  0  0  0  0  0  0  0  0  0
   53.9600   24.3110   46.1310 O   0  0  0  0  0  0  0  0  0  0  0  0
   54.9190   23.3700   46.5050 C   0  0  0  0  0  0  0  0  0  0  0  0
   54.6970   22.0040   46.2870 C   0  0  0  0  0  0  0  0  0  0  0  0
   53.7606   21.6666   45.8188 H   0  0  0  0  0  0  0  0  0  0  0  0
   55.6640   21.0720   46.6640 C   0  0  0  0  0  0  0  0  0  0  0  0
   55.4976   19.9981   46.4934 H   0  0  0  0  0  0  0  0  0  0  0  0
   56.8450   21.5170   47.2600 C   0  0  0  0  0  0  0  0  0  0  0  0
   57.6142   20.7921   47.5647 H   0  0  0  0  0  0  0  0  0  0  0  0
   57.0450   22.8460   47.4640 N   0  0  0  0  0  0  0  0  0  0  0  0
   56.1200   23.7830   47.1050 C   0  0  0  0  0  0  0  0  0  0  0  0
   56.3300   25.0520   47.3090 N   0  0  0  0  0  0  0  0  0  0  0  0
   56.3260   26.1010   46.3260 C   0  0  0  0  0  0  0  0  0  0  0  0
   55.2530   26.6770   45.9970 O   0  0  0  0  0  0  0  0  0  0  0  0
   57.6060   26.5280   45.7280 C   0  0  0  0  0  0  0  0  0  0  0  0
   58.1460   25.7820   44.8640 O   0  0  0  0  0  0  0  0  0  0  0  0
   58.2870   27.7850   46.1190 C   0  0  0  0  0  0  0  0  0  0  0  0
   58.8800   28.5920   45.1340 C   0  0  0  0  0  0  0  0  0  0  0  0
   58.8524   28.2764   44.0806 H   0  0  0  0  0  0  0  0  0  0  0  0
   59.5050   29.7930   45.4820 C   0  0  0  0  0  0  0  0  0  0  0  0
   59.9837   30.4060   44.7041 H   0  0  0  0  0  0  0  0  0  0  0  0
   59.5250   30.2220   46.8220 C   0  0  0  0  0  0  0  0  0  0  0  0
   60.1030   31.4390   47.2220 O   0  0  0  0  0  0  0  0  0  0  0  0
   59.4830   32.7230   47.1380 C   0  0  0  0  0  0  0  0  0  0  0  0
   59.7872   33.3249   48.0070 H   0  0  0  0  0  0  0  0  0  0  0  0
   58.3923   32.5807   47.1244 H   0  0  0  0  0  0  0  0  0  0  0  0
   59.8890   33.4560   45.8580 C   0  0  0  0  0  0  0  0  0  0  0  0
   60.3478   32.7392   45.1611 H   0  0  0  0  0  0  0  0  0  0  0  0
   60.6066   34.2488   46.1161 H   0  0  0  0  0  0  0  0  0  0  0  0
   58.4290   34.2190   45.0610 S   0  0  0  0  0  0  0  0  0  0  0  0
   57.6790   32.6660   44.5740 C   0  0  0  0  0  0  0  0  0  0  0  0
   56.9590   31.8880   45.4080 N   0  0  0  0  0  0  0  0  0  0  0  0
   56.4740   30.7970   44.8170 N   0  0  0  0  0  0  0  0  0  0  0  0
   56.8170   30.6990   43.5140 C   0  0  0  0  0  0  0  0  0  0  0  0
   56.3310   29.6170   42.6120 C   0  0  0  0  0  0  0  0  0  0  0  0
   55.9542   28.7781   43.2156 H   0  0  0  0  0  0  0  0  0  0  0  0
   55.5207   30.0051   41.9773 H   0  0  0  0  0  0  0  0  0  0  0  0
   57.1593   29.2691   41.9773 H   0  0  0  0  0  0  0  0  0  0  0  0
   57.7430   32.0180   43.0220 S   0  0  0  0  0  0  0  0  0  0  0  0
   58.9390   29.4150   47.8050 C   0  0  0  0  0  0  0  0  0  0  0  0
   58.9420   29.8150   49.1010 F   0  0  0  0  0  0  0  0  0  0  0  0
   58.3170   28.2130   47.4570 C   0  0  0  0  0  0  0  0  0  0  0  0
   57.8468   27.5965   48.2373 H   0  0  0  0  0  0  0  0  0  0  0  0
  1  2  1  0
  2  3  1  0
  3  4  2  0
  4  5  1  0
  4  6  1  0
  6  7  1  0
  6  8  2  0
  8  9  1  0
  8 10  1  0
 10 11  1  0
 11 12  2  0
 12 13  1  0
 13 14  2  0
 13 15  1  0
 15 16  2  0
 15 17  1  0
 17 18  2  0
 18 19  1  0
 18 20  1  0
 20 21  1  0
 20 22  2  0
 22 23  1  0
 23 24  1  0
 24 25  1  0
 24 26  1  0
 24 27  1  0
 27 28  1  0
 27 29  1  0
 27 30  1  0
 30 31  1  0
 31 32  2  0
 32 33  1  0
 33 34  2  0
 34 35  1  0
 35 36  1  0
 35 37  1  0
 35 38  1  0
 34 39  1  0
 22 40  1  0
 40 41  1  0
 40 42  2  0
 42 43  1  0
 11  3  1  0
 42 17  1  0
 39 31  1  0
M  CHG  1  10  -1
M  END
>  <UniqueID>  (54) 
51

>  <SMILES>  (54) 
Cc1nnc(SCCOc2ccc(C(=O)C(=O)/N=c3\[n-]cccc3O)cc2F)s1

>  <Energy>  (54) 
79.59196343181218

>  <Genealogy>  (54) 
Cc1nnc(SCCOc2ccc(C(=O)C(=O)N=c3[n-]cccc3O)cc2F)s1 (protonated)
Cc1nnc(SCCOc2ccc(C(=O)C(=O)/N=c3\[n-]cccc3O)cc2F)s1 (cis-trans isomerization)
Cc1nnc(SCCOc2ccc(C(=O)C(=O)/N=c3\[n-]cccc3O)cc2F)s1 (3D coordinates assigned)
Cc1nnc(SCCOc2ccc(C(=O)C(=O)/N=c3\[n-]cccc3O)cc2F)s1 (optimized conformer: 79.59196343181218 kcal/mol)

>  <smiles>  (54) 
Cc1nnc(SCCOc2ccc(C(=O)C(=O)N=c3[nH]cccc3O)cc2F)s1

>  <score_type>  (54) 
oracle

>  <origin>  (54) 
adg

>  <m_score__min__energy>  (54) 
-10.24

>  <m_primary>  (54) 
energy

$$$$
54:0
     RDKit          3D

 67 70  0  0  0  0  0  0  0  0999 V2000
   55.7111   25.8603   45.8383 H   0  0  0  0  0  0  0  0  0  0  0  0
   56.3210   26.7740   45.8940 C   0  0  0  0  0  0  0  0  0  0  0  0
   55.9210   27.8970   45.2480 N   0  0  0  0  0  0  0  0  0  0  0  0
   56.6410   29.0580   45.2980 C   0  0  0  0  0  0  0  0  0  0  0  0
   56.2420   30.1140   44.6530 N   0  0  0  0  0  0  0  0  0  0  0  0
   57.1310   31.0990   44.1030 C   0  0  0  0  0  0  0  0  0  0  0  0
   57.3660   31.0940   42.8660 O   0  0  0  0  0  0  0  0  0  0  0  0
   57.7360   32.1350   44.9690 C   0  0  0  0  0  0  0  0  0  0  0  0
   58.3470   33.2710   44.4150 C   0  0  0  0  0  0  0  0  0  0  0  0
   58.3039   33.4412   43.3291 H   0  0  0  0  0  0  0  0  0  0  0  0
   59.0100   34.1870   45.2370 C   0  0  0  0  0  0  0  0  0  0  0  0
   59.4977   35.0668   44.7918 H   0  0  0  0  0  0  0  0  0  0  0  0
   59.0580   33.9920   46.6280 C   0  0  0  0  0  0  0  0  0  0  0  0
   59.8040   34.9600   47.5130 C   0  0  0  0  0  0  0  0  0  0  0  0
   59.8092   35.9457   47.0247 H   0  0  0  0  0  0  0  0  0  0  0  0
   59.2853   34.9785   48.4828 H   0  0  0  0  0  0  0  0  0  0  0  0
   61.2050   34.5590   47.7750 N   0  0  0  0  0  0  0  0  0  0  0  0
   61.8640   33.7750   46.7120 C   0  0  0  0  0  0  0  0  0  0  0  0
   61.3842   34.0182   45.7525 H   0  0  0  0  0  0  0  0  0  0  0  0
   62.9304   34.0442   46.7269 H   0  0  0  0  0  0  0  0  0  0  0  0
   61.7800   32.2530   46.9260 C   0  0  0  0  0  0  0  0  0  0  0  0
   60.8945   31.8788   46.3913 H   0  0  0  0  0  0  0  0  0  0  0  0
   62.7215   31.8302   46.5454 H   0  0  0  0  0  0  0  0  0  0  0  0
   61.6700   31.8240   48.3960 C   0  0  0  0  0  0  0  0  0  0  0  0
   60.6080   31.6627   48.6329 H   0  0  0  0  0  0  0  0  0  0  0  0
   62.2674   30.9075   48.5108 H   0  0  0  0  0  0  0  0  0  0  0  0
   62.2350   32.8560   49.3790 C   0  0  1  0  0  0  0  0  0  0  0  0
   62.0013   32.5417   50.4069 H   0  0  0  0  0  0  0  0  0  0  0  0
   63.7530   32.9090   49.3100 C   0  0  0  0  0  0  0  0  0  0  0  0
   64.3220   32.9550   48.1830 O   0  0  0  0  0  0  0  0  0  0  0  0
   64.5630   32.8240   50.5030 N   0  0  0  0  0  0  0  0  0  0  0  0
   65.9440   32.3440   50.3890 C   0  0  0  0  0  0  0  0  0  0  0  0
   66.3654   32.1975   51.3944 H   0  0  0  0  0  0  0  0  0  0  0  0
   65.9564   31.3889   49.8435 H   0  0  0  0  0  0  0  0  0  0  0  0
   66.5461   33.0856   49.8435 H   0  0  0  0  0  0  0  0  0  0  0  0
   64.0340   33.2370   51.8100 C   0  0  0  0  0  0  0  0  0  0  0  0
   64.6292   32.7723   52.6099 H   0  0  0  0  0  0  0  0  0  0  0  0
   64.0911   34.3319   51.8993 H   0  0  0  0  0  0  0  0  0  0  0  0
   62.9857   32.9160   51.8993 H   0  0  0  0  0  0  0  0  0  0  0  0
   61.5440   34.2320   49.1840 C   0  0  0  0  0  0  0  0  0  0  0  0
   60.6134   34.2349   49.7705 H   0  0  0  0  0  0  0  0  0  0  0  0
   62.2653   34.9932   49.5161 H   0  0  0  0  0  0  0  0  0  0  0  0
   58.3950   32.8890   47.1850 C   0  0  0  0  0  0  0  0  0  0  0  0
   58.3828   32.7523   48.2764 H   0  0  0  0  0  0  0  0  0  0  0  0
   57.7500   31.9630   46.3620 C   0  0  0  0  0  0  0  0  0  0  0  0
   57.2489   31.0918   46.8091 H   0  0  0  0  0  0  0  0  0  0  0  0
   57.7990   29.1180   46.0800 C   0  0  0  0  0  0  0  0  0  0  0  0
   58.3457   30.0666   46.1861 H   0  0  0  0  0  0  0  0  0  0  0  0
   58.2590   27.9650   46.7270 C   0  0  0  0  0  0  0  0  0  0  0  0
   59.4850   28.0190   47.4070 O   0  0  0  0  0  0  0  0  0  0  0  0
   59.7140   28.7600   48.5710 C   0  0  0  0  0  0  0  0  0  0  0  0
   60.7910   28.4170   49.3940 C   0  0  0  0  0  0  0  0  0  0  0  0
   61.4667   27.6003   49.0998 H   0  0  0  0  0  0  0  0  0  0  0  0
   61.0130   29.1080   50.5900 C   0  0  0  0  0  0  0  0  0  0  0  0
   61.8484   28.8159   51.2432 H   0  0  0  0  0  0  0  0  0  0  0  0
   60.1790   30.1680   50.9600 C   0  0  0  0  0  0  0  0  0  0  0  0
   60.4250   30.8120   52.1850 O   0  0  0  0  0  0  0  0  0  0  0  0
   60.5640   32.2200   52.3360 C   0  0  0  0  0  0  0  0  0  0  0  0
   60.5890   32.4733   53.4061 H   0  0  0  0  0  0  0  0  0  0  0  0
   61.4990   32.5494   51.8593 H   0  0  0  0  0  0  0  0  0  0  0  0
   59.7114   32.7258   51.8593 H   0  0  0  0  0  0  0  0  0  0  0  0
   59.1210   30.5430   50.1070 C   0  0  0  0  0  0  0  0  0  0  0  0
   58.4732   31.3903   50.3763 H   0  0  0  0  0  0  0  0  0  0  0  0
   58.8930   29.8410   48.9200 C   0  0  0  0  0  0  0  0  0  0  0  0
   58.0665   30.1379   48.2576 H   0  0  0  0  0  0  0  0  0  0  0  0
   57.5060   26.7780   46.6290 C   0  0  0  0  0  0  0  0  0  0  0  0
   57.8506   25.8608   47.1289 H   0  0  0  0  0  0  0  0  0  0  0  0
  1  2  1  0
  2  3  1  0
  3  4  1  0
  4  5  2  0
  5  6  1  0
  6  7  2  0
  6  8  1  0
  8  9  2  0
  9 10  1  0
  9 11  1  0
 11 12  1  0
 11 13  2  0
 13 14  1  0
 14 15  1  0
 14 16  1  0
 14 17  1  0
 17 18  1  0
 18 19  1  0
 18 20  1  0
 18 21  1  0
 21 22  1  0
 21 23  1  0
 21 24  1  0
 24 25  1  0
 24 26  1  0
 24 27  1  0
 27 28  1  1
 27 29  1  0
 29 30  2  0
 29 31  1  0
 31 32  1  0
 32 33  1  0
 32 34  1  0
 32 35  1  0
 31 36  1  0
 36 37  1  0
 36 38  1  0
 36 39  1  0
 27 40  1  0
 40 41  1  0
 40 42  1  0
 13 43  1  0
 43 44  1  0
 43 45  2  0
 45 46  1  0
  4 47  1  0
 47 48  1  0
 47 49  2  0
 49 50  1  0
 50 51  1  0
 51 52  2  0
 52 53  1  0
 52 54  1  0
 54 55  1  0
 54 56  2  0
 56 57  1  0
 57 58  1  0
 58 59  1  0
 58 60  1  0
 58 61  1  0
 56 62  1  0
 62 63  1  0
 62 64  2  0
 64 65  1  0
 49 66  1  0
 66 67  1  0
 66  2  2  0
 45  8  1  0
 64 51  1  0
 40 17  1  0
M  CHG  1   3  -1
M  END
>  <UniqueID>  (55) 
52

>  <SMILES>  (55) 
COc1ccc(Oc2cc[n-]/c(=N\C(=O)c3ccc(CN4CCC[C@@H](C(=O)N(C)C)C4)cc3)c2)cc1

>  <Energy>  (55) 
99.2516841243519

>  <Genealogy>  (55) 
COc1ccc(Oc2cc[n-]c(=NC(=O)c3ccc(CN4CCCC(C(=O)N(C)C)C4)cc3)c2)cc1 (protonated)
COc1ccc(Oc2cc[n-]c(=NC(=O)c3ccc(CN4CCC[C@@H](C(=O)N(C)C)C4)cc3)c2)cc1 (chirality)
COc1ccc(Oc2cc[n-]/c(=N\C(=O)c3ccc(CN4CCC[C@@H](C(=O)N(C)C)C4)cc3)c2)cc1 (cis-trans isomerization)
COc1ccc(Oc2cc[n-]/c(=N\C(=O)c3ccc(CN4CCC[C@@H](C(=O)N(C)C)C4)cc3)c2)cc1 (3D coordinates assigned)
COc1ccc(Oc2cc[n-]/c(=N\C(=O)c3ccc(CN4CCC[C@@H](C(=O)N(C)C)C4)cc3)c2)cc1 (nonaromatic ring conformer: 99.2516841243519 kcal/mol)

>  <smiles>  (55) 
COc1ccc(Oc2cc[nH]c(=NC(=O)c3ccc(CN4CCCC(C(=O)N(C)C)C4)cc3)c2)cc1

>  <score_type>  (55) 
oracle

>  <origin>  (55) 
adg

>  <m_score__min__energy>  (55) 
-11.609999999999999

>  <m_primary>  (55) 
energy

$$$$
55:0
     RDKit          3D

 62 65  0  0  0  0  0  0  0  0999 V2000
   59.0420   33.5360   53.8470 C   0  0  0  0  0  0  0  0  0  0  0  0
   59.6670   33.6150   52.6690 C   0  0  0  0  0  0  0  0  0  0  0  0
   58.9260   33.9370   51.4000 C   0  0  0  0  0  0  0  0  0  0  0  0
   59.1290   32.8830   50.3940 N   0  0  0  0  0  0  0  0  0  0  0  0
   58.4210   31.6200   50.4320 C   0  0  0  0  0  0  0  0  0  0  0  0
   58.2470   30.9810   49.3550 O   0  0  0  0  0  0  0  0  0  0  0  0
   57.7860   31.0880   51.7030 C   0  0  0  0  0  0  0  0  0  0  0  0
   58.1810   29.6270   51.9800 C   0  0  0  0  0  0  0  0  0  0  0  0
   57.4730   29.1000   53.2520 C   0  0  0  0  0  0  0  0  0  0  0  0
   56.4360   29.9550   53.7110 O   0  0  0  0  0  0  0  0  0  0  0  0
   55.5620   30.2780   52.6470 C   0  0  0  0  0  0  0  0  0  0  0  0
   56.2500   31.2130   51.6310 C   0  0  0  0  0  0  0  0  0  0  0  0
   60.1310   33.0910   49.3830 C   0  0  0  0  0  0  0  0  0  0  0  0
   61.4770   32.8400   49.6940 C   0  0  0  0  0  0  0  0  0  0  0  0
   62.4770   33.0660   48.7470 C   0  0  0  0  0  0  0  0  0  0  0  0
   62.1450   33.5450   47.4790 C   0  0  0  0  0  0  0  0  0  0  0  0
   63.4050   33.8350   46.2940 Cl  0  0  0  0  0  0  0  0  0  0  0  0
   60.8070   33.7880   47.1520 C   0  0  0  0  0  0  0  0  0  0  0  0
   59.7860   33.5500   48.0890 C   0  0  0  0  0  0  0  0  0  0  0  0
   58.3500   33.7960   47.6820 C   0  0  0  0  0  0  0  0  0  0  0  0
   57.8300   32.6620   46.9200 N   0  0  0  0  0  0  0  0  0  0  0  0
   57.3110   32.8020   45.5920 C   0  0  0  0  0  0  0  0  0  0  0  0
   57.3110   33.9300   45.0260 O   0  0  0  0  0  0  0  0  0  0  0  0
   56.8390   31.6400   44.8980 N   0  0  0  0  0  0  0  0  0  0  0  0
   57.5040   30.3710   44.8220 C   0  0  0  0  0  0  0  0  0  0  0  0
   57.1140   29.3820   43.9020 C   0  0  0  0  0  0  0  0  0  0  0  0
   57.7730   28.1530   43.8750 C   0  0  0  0  0  0  0  0  0  0  0  0
   58.8150   27.8900   44.7690 C   0  0  0  0  0  0  0  0  0  0  0  0
   59.2070   28.8620   45.7160 C   0  0  0  0  0  0  0  0  0  0  0  0
   60.3250   28.6550   46.7290 C   0  0  0  0  0  0  0  0  0  0  0  0
   60.7280   29.8530   47.5780 C   0  0  0  0  0  0  0  0  0  0  0  0
   59.9470   28.7010   48.2030 C   0  0  0  0  0  0  0  0  0  0  0  0
   58.5330   30.0950   45.7330 C   0  0  0  0  0  0  0  0  0  0  0  0
   59.6121   33.2986   54.7573 H   0  0  0  0  0  0  0  0  0  0  0  0
   57.9572   33.7084   53.9067 H   0  0  0  0  0  0  0  0  0  0  0  0
   60.7521   33.4400   52.6257 H   0  0  0  0  0  0  0  0  0  0  0  0
   57.8519   34.0220   51.6214 H   0  0  0  0  0  0  0  0  0  0  0  0
   59.3108   34.8861   50.9985 H   0  0  0  0  0  0  0  0  0  0  0  0
   58.1644   31.6998   52.5352 H   0  0  0  0  0  0  0  0  0  0  0  0
   57.8896   29.0051   51.1207 H   0  0  0  0  0  0  0  0  0  0  0  0
   59.2689   29.5783   52.1351 H   0  0  0  0  0  0  0  0  0  0  0  0
   57.0395   28.1142   53.0276 H   0  0  0  0  0  0  0  0  0  0  0  0
   58.2296   29.0475   54.0488 H   0  0  0  0  0  0  0  0  0  0  0  0
   55.2595   29.3520   52.1362 H   0  0  0  0  0  0  0  0  0  0  0  0
   54.6832   30.7950   53.0599 H   0  0  0  0  0  0  0  0  0  0  0  0
   55.9163   30.9476   50.6170 H   0  0  0  0  0  0  0  0  0  0  0  0
   55.9749   32.2502   51.8729 H   0  0  0  0  0  0  0  0  0  0  0  0
   61.7454   32.4623   50.6917 H   0  0  0  0  0  0  0  0  0  0  0  0
   63.5286   32.8662   49.0005 H   0  0  0  0  0  0  0  0  0  0  0  0
   60.5510   34.1689   46.1523 H   0  0  0  0  0  0  0  0  0  0  0  0
   57.7373   33.9364   48.5847 H   0  0  0  0  0  0  0  0  0  0  0  0
   58.3094   34.6960   47.0509 H   0  0  0  0  0  0  0  0  0  0  0  0
   57.8510   31.7120   47.3530 H   0  0  0  0  0  0  0  0  0  0  0  0
   56.2880   29.5777   43.2025 H   0  0  0  0  0  0  0  0  0  0  0  0
   57.4711   27.3864   43.1462 H   0  0  0  0  0  0  0  0  0  0  0  0
   59.3329   26.9201   44.7348 H   0  0  0  0  0  0  0  0  0  0  0  0
   60.8617   27.9424   46.0855 H   0  0  0  0  0  0  0  0  0  0  0  0
   61.7841   30.0094   47.8428 H   0  0  0  0  0  0  0  0  0  0  0  0
   60.5853   30.9413   47.5058 H   0  0  0  0  0  0  0  0  0  0  0  0
   60.4398   28.0265   48.9187 H   0  0  0  0  0  0  0  0  0  0  0  0
   59.0075   28.6141   48.7685 H   0  0  0  0  0  0  0  0  0  0  0  0
   58.8178   30.8566   46.4739 H   0  0  0  0  0  0  0  0  0  0  0  0
  1  2  2  0
  2  3  1  0
  3  4  1  0
  4  5  1  0
  5  6  2  0
  5  7  1  0
  7  8  1  0
  8  9  1  0
  9 10  1  0
 10 11  1  0
 11 12  1  0
  4 13  1  0
 13 14  2  0
 14 15  1  0
 15 16  2  0
 16 17  1  0
 16 18  1  0
 18 19  2  0
 19 20  1  0
 20 21  1  0
 21 22  1  0
 22 23  2  0
 22 24  1  0
 24 25  1  0
 25 26  2  0
 26 27  1  0
 27 28  2  0
 28 29  1  0
 29 30  1  0
 30 31  1  0
 31 32  1  0
 29 33  2  0
 12  7  1  0
 19 13  1  0
 33 25  1  0
 32 30  1  0
  1 34  1  0
  1 35  1  0
  2 36  1  0
  3 37  1  0
  3 38  1  0
  7 39  1  0
  8 40  1  0
  8 41  1  0
  9 42  1  0
  9 43  1  0
 11 44  1  0
 11 45  1  0
 12 46  1  0
 12 47  1  0
 14 48  1  0
 15 49  1  0
 18 50  1  0
 20 51  1  0
 20 52  1  0
 21 53  1  0
 26 54  1  0
 27 55  1  0
 28 56  1  0
 30 57  1  0
 31 58  1  0
 31 59  1  0
 32 60  1  0
 32 61  1  0
 33 62  1  0
M  CHG  1  24  -1
M  END
>  <UniqueID>  (56) 
53

>  <SMILES>  (56) 
C=CCN(C(=O)C1CCOCC1)c1ccc(Cl)cc1CNC(=O)[N-]c1cccc(C2CC2)c1

>  <Energy>  (56) 
342.27926383999954

>  <Genealogy>  (56) 
C=CCN(C(=O)C1CCOCC1)c1ccc(Cl)cc1CNC(=O)[N-]c1cccc(C2CC2)c1 (protonated)
C=CCN(C(=O)C1CCOCC1)c1ccc(Cl)cc1CNC(=O)[N-]c1cccc(C2CC2)c1 (3D coordinates assigned)
C=CCN(C(=O)C1CCOCC1)c1ccc(Cl)cc1CNC(=O)[N-]c1cccc(C2CC2)c1 (nonaromatic ring conformer: 342.27926383999954 kcal/mol)

>  <smiles>  (56) 
C=CCN(C(=O)C1CCOCC1)c1ccc(Cl)cc1CNC(=O)Nc1cccc(C2CC2)c1

>  <score_type>  (56) 
oracle

>  <origin>  (56) 
adg

>  <m_score__min__energy>  (56) 
-11.02

>  <m_primary>  (56) 
energy

$$$$
56:0
     RDKit          3D

 47 49  0  0  0  0  0  0  0  0999 V2000
   65.3340   32.9930   49.7930 C   0  0  0  0  0  0  0  0  0  0  0  0
   64.2110   31.9560   49.8040 C   0  0  0  0  0  0  0  0  0  0  0  0
   62.9290   32.4500   49.0980 C   0  0  1  0  0  0  0  0  0  0  0  0
   63.3070   33.3510   47.9000 C   0  0  0  0  0  0  0  0  0  0  0  0
   62.0660   33.9590   47.2210 C   0  0  0  0  0  0  0  0  0  0  0  0
   60.9850   32.9340   46.9970 C   0  0  0  0  0  0  0  0  0  0  0  0
   60.9740   31.7270   47.6930 C   0  0  0  0  0  0  0  0  0  0  0  0
   59.6330   30.8270   47.2370 S   0  0  0  0  0  0  0  0  0  0  0  0
   59.0200   31.9880   46.1790 C   0  0  0  0  0  0  0  0  0  0  0  0
   57.8000   31.8720   45.4390 N   0  0  0  0  0  0  0  0  0  0  0  0
   57.4840   30.8050   44.5350 C   0  0  0  0  0  0  0  0  0  0  0  0
   57.0900   31.1000   43.3770 O   0  0  0  0  0  0  0  0  0  0  0  0
   57.5750   29.3770   44.9430 C   0  0  0  0  0  0  0  0  0  0  0  0
   58.8330   28.7470   45.0230 C   0  0  0  0  0  0  0  0  0  0  0  0
   58.9320   27.3970   45.3630 C   0  0  0  0  0  0  0  0  0  0  0  0
   57.7820   26.6600   45.6500 C   0  0  0  0  0  0  0  0  0  0  0  0
   56.5190   27.2770   45.6230 C   0  0  0  0  0  0  0  0  0  0  0  0
   55.3280   26.5630   45.9780 N   0  0  0  0  0  0  0  0  0  0  0  0
   55.1870   24.8350   45.9990 S   0  0  0  0  0  0  0  0  0  0  0  0
   55.9590   24.1730   44.5350 C   0  0  0  0  0  0  0  0  0  0  0  0
   53.7290   24.4710   45.9810 O   0  0  0  0  0  0  0  0  0  0  0  0
   55.8250   24.2660   47.2300 O   0  0  0  0  0  0  0  0  0  0  0  0
   56.4140   28.6340   45.2710 C   0  0  0  0  0  0  0  0  0  0  0  0
   55.1480   29.2310   45.2310 O   0  0  0  0  0  0  0  0  0  0  0  0
   59.8700   33.0960   46.1450 C   0  0  0  0  0  0  0  0  0  0  0  0
   59.5940   34.3050   45.3430 C   0  0  0  0  0  0  0  0  0  0  0  0
   59.2650   34.2020   44.1300 O   0  0  0  0  0  0  0  0  0  0  0  0
   59.6360   35.5640   45.9260 O   0  0  0  0  0  0  0  0  0  0  0  0
   62.0570   31.2650   48.6200 C   0  0  0  0  0  0  0  0  0  0  0  0
   65.6089   33.2468   50.8274 H   0  0  0  0  0  0  0  0  0  0  0  0
   66.2100   32.5794   49.2718 H   0  0  0  0  0  0  0  0  0  0  0  0
   64.9913   33.8991   49.2718 H   0  0  0  0  0  0  0  0  0  0  0  0
   64.5659   31.0490   49.2927 H   0  0  0  0  0  0  0  0  0  0  0  0
   63.9538   31.7595   50.8553 H   0  0  0  0  0  0  0  0  0  0  0  0
   62.3390   33.0310   49.8221 H   0  0  0  0  0  0  0  0  0  0  0  0
   63.9511   34.1673   48.2589 H   0  0  0  0  0  0  0  0  0  0  0  0
   63.8292   32.7286   47.1584 H   0  0  0  0  0  0  0  0  0  0  0  0
   61.6681   34.7604   47.8609 H   0  0  0  0  0  0  0  0  0  0  0  0
   62.3730   34.3485   46.2392 H   0  0  0  0  0  0  0  0  0  0  0  0
   59.7457   29.3248   44.8155 H   0  0  0  0  0  0  0  0  0  0  0  0
   59.9187   26.9127   45.4049 H   0  0  0  0  0  0  0  0  0  0  0  0
   57.8642   25.5916   45.8984 H   0  0  0  0  0  0  0  0  0  0  0  0
   56.7644   23.4824   44.8255 H   0  0  0  0  0  0  0  0  0  0  0  0
   55.2099   23.6323   43.9380 H   0  0  0  0  0  0  0  0  0  0  0  0
   56.3792   24.9959   43.9380 H   0  0  0  0  0  0  0  0  0  0  0  0
   61.5980   30.7817   49.4950 H   0  0  0  0  0  0  0  0  0  0  0  0
   62.7002   30.5564   48.0777 H   0  0  0  0  0  0  0  0  0  0  0  0
  1  2  1  0
  2  3  1  0
  3  4  1  0
  4  5  1  0
  5  6  1  0
  6  7  2  0
  7  8  1  0
  8  9  1  0
  9 10  1  0
 10 11  1  0
 11 12  2  0
 11 13  1  0
 13 14  2  0
 14 15  1  0
 15 16  2  0
 16 17  1  0
 17 18  1  0
 18 19  1  0
 19 20  1  0
 19 21  2  0
 19 22  2  0
 17 23  2  0
 23 24  1  0
  9 25  2  0
 25 26  1  0
 26 27  2  0
 26 28  1  0
  7 29  1  0
 29  3  1  0
 25  6  1  0
 23 13  1  0
  1 30  1  0
  1 31  1  0
  1 32  1  0
  2 33  1  0
  2 34  1  0
  3 35  1  1
  4 36  1  0
  4 37  1  0
  5 38  1  0
  5 39  1  0
 14 40  1  0
 15 41  1  0
 16 42  1  0
 20 43  1  0
 20 44  1  0
 20 45  1  0
 29 46  1  0
 29 47  1  0
M  CHG  4  10  -1  18  -1  24  -1  28  -1
M  END
>  <UniqueID>  (57) 
54

>  <SMILES>  (57) 
CC[C@H]1CCc2c(sc([N-]C(=O)c3cccc([N-]S(C)(=O)=O)c3[O-])c2C(=O)[O-])C1

>  <Energy>  (57) 
82.58306920129806

>  <Genealogy>  (57) 
CCC1CCc2c(sc([N-]C(=O)c3cccc([N-]S(C)(=O)=O)c3[O-])c2C(=O)[O-])C1 (protonated)
CC[C@H]1CCc2c(sc([N-]C(=O)c3cccc([N-]S(C)(=O)=O)c3[O-])c2C(=O)[O-])C1 (chirality)
CC[C@H]1CCc2c(sc([N-]C(=O)c3cccc([N-]S(C)(=O)=O)c3[O-])c2C(=O)[O-])C1 (3D coordinates assigned)
CC[C@H]1CCc2c(sc([N-]C(=O)c3cccc([N-]S(C)(=O)=O)c3[O-])c2C(=O)[O-])C1 (nonaromatic ring conformer: 82.58306920129806 kcal/mol)

>  <smiles>  (57) 
CCC1CCc2c(sc(NC(=O)c3cccc(NS(C)(=O)=O)c3O)c2C(=O)O)C1

>  <score_type>  (57) 
oracle

>  <origin>  (57) 
adg

>  <m_score__min__energy>  (57) 
-18.809999999999999

>  <m_primary>  (57) 
energy

$$$$
57:0
     RDKit          3D

 66 71  0  0  0  0  0  0  0  0999 V2000
   56.9730   28.7820   42.2540 O   0  0  0  0  0  0  0  0  0  0  0  0
   56.8410   29.1660   43.4460 C   0  0  0  0  0  0  0  0  0  0  0  0
   56.0920   30.4240   43.7400 C   0  0  0  0  0  0  0  0  0  0  0  0
   56.6700   31.0370   44.8720 O   0  0  0  0  0  0  0  0  0  0  0  0
   57.4010   32.1830   44.4800 C   0  0  0  0  0  0  0  0  0  0  0  0
   58.0680   32.8010   45.6740 C   0  0  0  0  0  0  0  0  0  0  0  0
   58.7440   34.0380   45.5740 C   0  0  0  0  0  0  0  0  0  0  0  0
   59.3110   34.5960   46.7260 C   0  0  0  0  0  0  0  0  0  0  0  0
   59.9310   35.6910   46.6670 O   0  0  0  0  0  0  0  0  0  0  0  0
   59.1740   33.9380   47.9070 N   0  0  0  0  0  0  0  0  0  0  0  0
   59.6480   34.3670   49.0740 N   0  0  0  0  0  0  0  0  0  0  0  0
   59.3550   33.5180   50.0900 C   0  0  0  0  0  0  0  0  0  0  0  0
   59.7150   33.7980   51.5150 C   0  0  0  0  0  0  0  0  0  0  0  0
   58.6530   34.5290   52.3240 C   0  0  0  0  0  0  0  0  0  0  0  0
   58.8650   33.0370   52.5230 C   0  0  0  0  0  0  0  0  0  0  0  0
   58.4420   32.1870   49.5570 S   0  0  0  0  0  0  0  0  0  0  0  0
   58.5000   32.7710   47.9840 C   0  0  0  0  0  0  0  0  0  0  0  0
   57.9430   32.1960   46.8910 N   0  0  0  0  0  0  0  0  0  0  0  0
   57.4000   28.4130   44.5320 N   0  0  0  0  0  0  0  0  0  0  0  0
   58.3930   28.8470   45.4720 C   0  0  0  0  0  0  0  0  0  0  0  0
   58.1180   28.9920   46.8450 C   0  0  0  0  0  0  0  0  0  0  0  0
   59.1010   29.4850   47.7110 C   0  0  0  0  0  0  0  0  0  0  0  0
   60.3590   29.8550   47.2130 C   0  0  0  0  0  0  0  0  0  0  0  0
   61.3890   30.4030   48.1090 C   0  0  0  0  0  0  0  0  0  0  0  0
   62.1890   31.2620   47.6490 O   0  0  0  0  0  0  0  0  0  0  0  0
   61.4580   30.0150   49.4970 N   0  0  0  0  0  0  0  0  0  0  0  0
   60.7990   28.7760   49.9500 C   0  0  0  0  0  0  0  0  0  0  0  0
   60.9970   28.5540   51.4530 C   0  0  0  0  0  0  0  0  0  0  0  0
   60.7290   29.8050   52.1720 N   0  0  0  0  0  0  0  0  0  0  0  0
   59.6790   29.8680   53.1570 C   0  0  0  0  0  0  0  0  0  0  0  0
   60.0000   30.0170   54.5190 C   0  0  0  0  0  0  0  0  0  0  0  0
   58.9880   30.0840   55.4810 C   0  0  0  0  0  0  0  0  0  0  0  0
   57.6490   30.0010   55.0940 C   0  0  0  0  0  0  0  0  0  0  0  0
   57.3180   29.8490   53.7440 C   0  0  0  0  0  0  0  0  0  0  0  0
   58.3260   29.7820   52.7750 C   0  0  0  0  0  0  0  0  0  0  0  0
   57.9780   29.6760   51.4680 F   0  0  0  0  0  0  0  0  0  0  0  0
   61.3950   31.0430   51.7400 C   0  0  0  0  0  0  0  0  0  0  0  0
   62.2170   30.8290   50.4600 C   0  0  0  0  0  0  0  0  0  0  0  0
   60.6320   29.7140   45.8480 C   0  0  0  0  0  0  0  0  0  0  0  0
   59.6520   29.2180   44.9830 C   0  0  0  0  0  0  0  0  0  0  0  0
   56.1556   31.1036   42.8774 H   0  0  0  0  0  0  0  0  0  0  0  0
   55.0340   30.1950   43.9353 H   0  0  0  0  0  0  0  0  0  0  0  0
   58.1663   31.8929   43.7450 H   0  0  0  0  0  0  0  0  0  0  0  0
   56.7120   32.9147   44.0329 H   0  0  0  0  0  0  0  0  0  0  0  0
   58.8234   34.5544   44.6060 H   0  0  0  0  0  0  0  0  0  0  0  0
   60.7910   33.9466   51.3416 H   0  0  0  0  0  0  0  0  0  0  0  0
   58.9518   35.2367   53.1113 H   0  0  0  0  0  0  0  0  0  0  0  0
   57.7902   35.1658   52.0788 H   0  0  0  0  0  0  0  0  0  0  0  0
   59.3173   32.6652   53.4542 H   0  0  0  0  0  0  0  0  0  0  0  0
   58.2193   32.1475   52.4813 H   0  0  0  0  0  0  0  0  0  0  0  0
   57.1281   28.7172   47.2383 H   0  0  0  0  0  0  0  0  0  0  0  0
   58.8863   29.5826   48.7854 H   0  0  0  0  0  0  0  0  0  0  0  0
   59.7220   28.8453   49.7374 H   0  0  0  0  0  0  0  0  0  0  0  0
   61.2495   27.9283   49.4129 H   0  0  0  0  0  0  0  0  0  0  0  0
   60.3043   27.7744   51.8028 H   0  0  0  0  0  0  0  0  0  0  0  0
   62.0328   28.2365   51.6433 H   0  0  0  0  0  0  0  0  0  0  0  0
   61.0536   30.0811   54.8285 H   0  0  0  0  0  0  0  0  0  0  0  0
   59.2467   30.2022   56.5436 H   0  0  0  0  0  0  0  0  0  0  0  0
   56.8537   30.0552   55.8520 H   0  0  0  0  0  0  0  0  0  0  0  0
   56.2623   29.7819   53.4425 H   0  0  0  0  0  0  0  0  0  0  0  0
   60.6309   31.8108   51.5488 H   0  0  0  0  0  0  0  0  0  0  0  0
   62.0811   31.3601   52.5392 H   0  0  0  0  0  0  0  0  0  0  0  0
   62.4467   31.8054   50.0085 H   0  0  0  0  0  0  0  0  0  0  0  0
   63.1492   30.3043   50.7163 H   0  0  0  0  0  0  0  0  0  0  0  0
   61.6202   29.9941   45.4544 H   0  0  0  0  0  0  0  0  0  0  0  0
   59.8715   29.1183   43.9097 H   0  0  0  0  0  0  0  0  0  0  0  0
  1  2  2  0
  2  3  1  0
  3  4  1  0
  4  5  1  0
  5  6  1  0
  6  7  2  0
  7  8  1  0
  8  9  2  0
  8 10  1  0
 10 11  1  0
 11 12  2  0
 12 13  1  0
 13 14  1  0
 14 15  1  0
 12 16  1  0
 16 17  1  0
 17 18  2  0
  2 19  1  0
 19 20  1  0
 20 21  2  0
 21 22  1  0
 22 23  2  0
 23 24  1  0
 24 25  2  0
 24 26  1  0
 26 27  1  0
 27 28  1  0
 28 29  1  0
 29 30  1  0
 30 31  2  0
 31 32  1  0
 32 33  2  0
 33 34  1  0
 34 35  2  0
 35 36  1  0
 29 37  1  0
 37 38  1  0
 23 39  1  0
 39 40  2  0
 18  6  1  0
 40 20  1  0
 17 10  1  0
 38 26  1  0
 15 13  1  0
 35 30  1  0
  3 41  1  0
  3 42  1  0
  5 43  1  0
  5 44  1  0
  7 45  1  0
 13 46  1  0
 14 47  1  0
 14 48  1  0
 15 49  1  0
 15 50  1  0
 21 51  1  0
 22 52  1  0
 27 53  1  0
 27 54  1  0
 28 55  1  0
 28 56  1  0
 31 57  1  0
 32 58  1  0
 33 59  1  0
 34 60  1  0
 37 61  1  0
 37 62  1  0
 38 63  1  0
 38 64  1  0
 39 65  1  0
 40 66  1  0
M  CHG  1  19  -1
M  END
>  <UniqueID>  (58) 
55

>  <SMILES>  (58) 
O=C(COCc1cc(=O)n2nc(C3CC3)sc2n1)[N-]c1ccc(C(=O)N2CCN(c3ccccc3F)CC2)cc1

>  <Energy>  (58) 
390.9971298942494

>  <Genealogy>  (58) 
O=C(COCc1cc(=O)n2nc(C3CC3)sc2n1)[N-]c1ccc(C(=O)N2CCN(c3ccccc3F)CC2)cc1 (protonated)
O=C(COCc1cc(=O)n2nc(C3CC3)sc2n1)[N-]c1ccc(C(=O)N2CCN(c3ccccc3F)CC2)cc1 (3D coordinates assigned)
O=C(COCc1cc(=O)n2nc(C3CC3)sc2n1)[N-]c1ccc(C(=O)N2CCN(c3ccccc3F)CC2)cc1 (nonaromatic ring conformer: 390.9971298942494 kcal/mol)

>  <smiles>  (58) 
O=C(COCc1cc(=O)n2nc(C3CC3)sc2n1)Nc1ccc(C(=O)N2CCN(c3ccccc3F)CC2)cc1

>  <score_type>  (58) 
oracle

>  <origin>  (58) 
adg

>  <m_score__min__energy>  (58) 
-10.050000000000001

>  <m_primary>  (58) 
energy

$$$$
58:0
     RDKit          3D

 56 59  0  0  0  0  0  0  0  0999 V2000
   61.4660   27.5110   50.6980 O   0  0  0  0  0  0  0  0  0  0  0  0
   61.1100   28.4390   49.9220 C   0  0  0  0  0  0  0  0  0  0  0  0
   61.0290   29.8630   50.3410 C   0  0  0  0  0  0  0  0  0  0  0  0
   61.6150   30.7700   49.3250 C   0  0  0  0  0  0  0  0  0  0  0  0
   60.9870   30.9270   48.1220 N   0  0  0  0  0  0  0  0  0  0  0  0
   61.4520   31.7170   47.1700 N   0  0  0  0  0  0  0  0  0  0  0  0
   62.5920   32.3930   47.4050 C   0  0  0  0  0  0  0  0  0  0  0  0
   63.0950   33.1750   46.5270 O   0  0  0  0  0  0  0  0  0  0  0  0
   63.2860   32.2900   48.5920 C   0  0  0  0  0  0  0  0  0  0  0  0
   64.4530   32.9960   48.8080 C   0  0  0  0  0  0  0  0  0  0  0  0
   65.1030   32.8510   50.0190 C   0  0  0  0  0  0  0  0  0  0  0  0
   64.6230   32.0240   51.0220 C   0  0  0  0  0  0  0  0  0  0  0  0
   63.4490   31.3300   50.7770 C   0  0  0  0  0  0  0  0  0  0  0  0
   62.7850   31.4590   49.5740 C   0  0  0  0  0  0  0  0  0  0  0  0
   60.7540   28.1450   48.5570 N   0  0  0  0  0  0  0  0  0  0  0  0
   60.8180   26.7770   48.1090 C   0  0  0  0  0  0  0  0  0  0  0  0
   60.2050   26.5340   46.7700 C   0  0  0  0  0  0  0  0  0  0  0  0
   59.4440   27.6480   46.2010 C   0  0  0  0  0  0  0  0  0  0  0  0
   60.0090   28.4860   45.2370 C   0  0  0  0  0  0  0  0  0  0  0  0
   59.2480   29.5240   44.7260 C   0  0  0  0  0  0  0  0  0  0  0  0
   57.9510   29.7720   45.1250 C   0  0  0  0  0  0  0  0  0  0  0  0
   57.1090   31.1120   44.3990 S   0  0  0  0  0  0  0  0  0  0  0  0
   57.7840   31.4280   43.0950 O   0  0  0  0  0  0  0  0  0  0  0  0
   55.6820   30.7660   44.0750 O   0  0  0  0  0  0  0  0  0  0  0  0
   57.1020   32.5230   45.3520 N   0  0  0  0  0  0  0  0  0  0  0  0
   57.4320   33.7300   44.6700 C   0  0  0  0  0  0  0  0  0  0  0  0
   58.8090   34.2640   44.9230 C   0  0  0  0  0  0  0  0  0  0  0  0
   59.6060   33.4060   45.6790 O   0  0  0  0  0  0  0  0  0  0  0  0
   58.9190   33.2200   46.8810 C   0  0  0  0  0  0  0  0  0  0  0  0
   57.7650   32.3190   46.5960 C   0  0  0  0  0  0  0  0  0  0  0  0
   57.3930   28.9430   46.0780 C   0  0  0  0  0  0  0  0  0  0  0  0
   58.1410   27.8920   46.6070 C   0  0  0  0  0  0  0  0  0  0  0  0
   59.9726   30.1307   50.4903 H   0  0  0  0  0  0  0  0  0  0  0  0
   61.6016   29.9783   51.2731 H   0  0  0  0  0  0  0  0  0  0  0  0
   60.9780   31.8380   46.2570 H   0  0  0  0  0  0  0  0  0  0  0  0
   64.8576   33.6612   48.0309 H   0  0  0  0  0  0  0  0  0  0  0  0
   66.0335   33.4114   50.1927 H   0  0  0  0  0  0  0  0  0  0  0  0
   65.1554   31.9220   51.9792 H   0  0  0  0  0  0  0  0  0  0  0  0
   63.0401   30.6662   51.5530 H   0  0  0  0  0  0  0  0  0  0  0  0
   60.4620   28.9310   47.9380 H   0  0  0  0  0  0  0  0  0  0  0  0
   61.8762   26.4805   48.0612 H   0  0  0  0  0  0  0  0  0  0  0  0
   60.2369   26.1843   48.8309 H   0  0  0  0  0  0  0  0  0  0  0  0
   61.0155   26.2870   46.0686 H   0  0  0  0  0  0  0  0  0  0  0  0
   59.4769   25.7232   46.9198 H   0  0  0  0  0  0  0  0  0  0  0  0
   61.0402   28.3243   44.8898 H   0  0  0  0  0  0  0  0  0  0  0  0
   59.6984   30.1808   43.9672 H   0  0  0  0  0  0  0  0  0  0  0  0
   57.3343   33.5454   43.5900 H   0  0  0  0  0  0  0  0  0  0  0  0
   56.7393   34.4919   45.0570 H   0  0  0  0  0  0  0  0  0  0  0  0
   59.3008   34.4330   43.9537 H   0  0  0  0  0  0  0  0  0  0  0  0
   58.6955   35.1937   45.4998 H   0  0  0  0  0  0  0  0  0  0  0  0
   59.5827   32.7577   47.6265 H   0  0  0  0  0  0  0  0  0  0  0  0
   58.5718   34.1825   47.2847 H   0  0  0  0  0  0  0  0  0  0  0  0
   58.1352   31.2833   46.6135 H   0  0  0  0  0  0  0  0  0  0  0  0
   57.0164   32.5445   47.3698 H   0  0  0  0  0  0  0  0  0  0  0  0
   56.3608   29.1114   46.4190 H   0  0  0  0  0  0  0  0  0  0  0  0
   57.6854   27.2394   47.3663 H   0  0  0  0  0  0  0  0  0  0  0  0
  1  2  2  0
  2  3  1  0
  3  4  1  0
  4  5  2  0
  5  6  1  0
  6  7  1  0
  7  8  2  0
  7  9  1  0
  9 10  2  0
 10 11  1  0
 11 12  2  0
 12 13  1  0
 13 14  2  0
  2 15  1  0
 15 16  1  0
 16 17  1  0
 17 18  1  0
 18 19  2  0
 19 20  1  0
 20 21  2  0
 21 22  1  0
 22 23  2  0
 22 24  2  0
 22 25  1  0
 25 26  1  0
 26 27  1  0
 27 28  1  0
 28 29  1  0
 29 30  1  0
 21 31  1  0
 31 32  2  0
 14  4  1  0
 32 18  1  0
 14  9  1  0
 30 25  1  0
  3 33  1  0
  3 34  1  0
  6 35  1  0
 10 36  1  0
 11 37  1  0
 12 38  1  0
 13 39  1  0
 15 40  1  0
 16 41  1  0
 16 42  1  0
 17 43  1  0
 17 44  1  0
 19 45  1  0
 20 46  1  0
 26 47  1  0
 26 48  1  0
 27 49  1  0
 27 50  1  0
 29 51  1  0
 29 52  1  0
 30 53  1  0
 30 54  1  0
 31 55  1  0
 32 56  1  0
M  END
>  <smiles>  (59) 
O=C(Cc1n[nH]c(=O)c2ccccc12)NCCc1ccc(S(=O)(=O)N2CCOCC2)cc1

>  <score_type>  (59) 
oracle

>  <origin>  (59) 
adg

>  <m_score__min__energy>  (59) 
-10.01

>  <m_primary>  (59) 
energy

$$$$
59:0
     RDKit          3D

 65 68  0  0  0  0  0  0  0  0999 V2000
   59.8140   32.7660   49.7140 C   0  0  0  0  0  0  0  0  0  0  0  0
   60.9950   32.6760   48.7860 C   0  0  0  0  0  0  0  0  0  0  0  0
   61.6460   33.8670   48.4170 C   0  0  0  0  0  0  0  0  0  0  0  0
   62.7760   33.8360   47.5980 C   0  0  0  0  0  0  0  0  0  0  0  0
   63.2730   32.6180   47.1370 C   0  0  0  0  0  0  0  0  0  0  0  0
   62.6270   31.4280   47.4760 C   0  0  0  0  0  0  0  0  0  0  0  0
   61.4710   31.4420   48.2690 C   0  0  0  0  0  0  0  0  0  0  0  0
   60.8470   30.1850   48.5620 N   0  0  0  0  0  0  0  0  0  0  0  0
   59.5120   29.8160   48.1850 C   0  0  0  0  0  0  0  0  0  0  0  0
   58.5340   30.4310   48.6960 O   0  0  0  0  0  0  0  0  0  0  0  0
   59.2840   28.8360   47.0350 C   0  0  0  0  0  0  0  0  0  0  0  0
   59.8030   27.4050   47.4090 C   0  0  0  0  0  0  0  0  0  0  0  0
   59.8640   26.3820   46.2560 C   0  0  0  0  0  0  0  0  0  0  0  0
   58.5550   25.6460   46.1420 C   0  0  0  0  0  0  0  0  0  0  0  0
   58.0630   25.2650   44.8810 C   0  0  0  0  0  0  0  0  0  0  0  0
   56.8330   24.6060   44.7750 C   0  0  0  0  0  0  0  0  0  0  0  0
   56.0830   24.3330   45.9240 C   0  0  0  0  0  0  0  0  0  0  0  0
   56.5600   24.7220   47.1800 C   0  0  0  0  0  0  0  0  0  0  0  0
   57.7890   25.3810   47.2890 C   0  0  0  0  0  0  0  0  0  0  0  0
   57.7650   28.7840   46.6470 C   0  0  0  0  0  0  0  0  0  0  0  0
   57.5590   28.4820   45.1520 C   0  0  0  0  0  0  0  0  0  0  0  0
   58.1980   29.4880   44.2680 N   0  0  0  0  0  0  0  0  0  0  0  0
   57.0250   30.5850   43.5760 S   0  0  0  0  0  0  0  0  0  0  0  0
   55.8950   30.7680   44.5510 O   0  0  0  0  0  0  0  0  0  0  0  0
   56.4740   29.9900   42.3090 O   0  0  0  0  0  0  0  0  0  0  0  0
   57.7450   32.1840   43.2120 C   0  0  0  0  0  0  0  0  0  0  0  0
   58.0660   32.9150   44.4860 C   0  0  0  0  0  0  0  0  0  0  0  0
   57.2890   32.7100   45.6380 C   0  0  0  0  0  0  0  0  0  0  0  0
   57.5740   33.4130   46.8120 C   0  0  0  0  0  0  0  0  0  0  0  0
   58.6290   34.3300   46.8430 C   0  0  0  0  0  0  0  0  0  0  0  0
   59.3990   34.5480   45.6980 C   0  0  0  0  0  0  0  0  0  0  0  0
   59.1180   33.8470   44.5200 C   0  0  0  0  0  0  0  0  0  0  0  0
   59.3040   30.2430   44.8930 C   0  0  0  0  0  0  0  0  0  0  0  0
   60.1270   29.3420   45.8200 C   0  0  0  0  0  0  0  0  0  0  0  0
   60.1640   32.7393   50.7565 H   0  0  0  0  0  0  0  0  0  0  0  0
   59.2756   33.7078   49.5320 H   0  0  0  0  0  0  0  0  0  0  0  0
   59.1391   31.9167   49.5320 H   0  0  0  0  0  0  0  0  0  0  0  0
   61.2609   34.8323   48.7773 H   0  0  0  0  0  0  0  0  0  0  0  0
   63.2753   34.7747   47.3158 H   0  0  0  0  0  0  0  0  0  0  0  0
   64.1739   32.5946   46.5063 H   0  0  0  0  0  0  0  0  0  0  0  0
   63.0292   30.4691   47.1172 H   0  0  0  0  0  0  0  0  0  0  0  0
   60.8188   27.5121   47.8173 H   0  0  0  0  0  0  0  0  0  0  0  0
   59.0694   27.0020   48.1228 H   0  0  0  0  0  0  0  0  0  0  0  0
   60.0671   26.9099   45.3126 H   0  0  0  0  0  0  0  0  0  0  0  0
   60.6657   25.6575   46.4619 H   0  0  0  0  0  0  0  0  0  0  0  0
   58.6467   25.4856   43.9751 H   0  0  0  0  0  0  0  0  0  0  0  0
   56.4556   24.3024   43.7874 H   0  0  0  0  0  0  0  0  0  0  0  0
   55.1178   23.8122   45.8396 H   0  0  0  0  0  0  0  0  0  0  0  0
   55.9683   24.5096   48.0826 H   0  0  0  0  0  0  0  0  0  0  0  0
   58.1572   25.6931   48.2775 H   0  0  0  0  0  0  0  0  0  0  0  0
   57.2746   27.9969   47.2386 H   0  0  0  0  0  0  0  0  0  0  0  0
   57.3281   29.7716   46.8563 H   0  0  0  0  0  0  0  0  0  0  0  0
   57.9906   27.4948   44.9303 H   0  0  0  0  0  0  0  0  0  0  0  0
   56.4771   28.5083   44.9552 H   0  0  0  0  0  0  0  0  0  0  0  0
   58.6691   32.0422   42.6325 H   0  0  0  0  0  0  0  0  0  0  0  0
   57.0230   32.7773   42.6317 H   0  0  0  0  0  0  0  0  0  0  0  0
   56.4540   31.9943   45.6162 H   0  0  0  0  0  0  0  0  0  0  0  0
   56.9669   33.2444   47.7136 H   0  0  0  0  0  0  0  0  0  0  0  0
   58.8527   34.8798   47.7691 H   0  0  0  0  0  0  0  0  0  0  0  0
   60.2272   35.2716   45.7225 H   0  0  0  0  0  0  0  0  0  0  0  0
   59.7219   34.0257   43.6181 H   0  0  0  0  0  0  0  0  0  0  0  0
   59.9587   30.6416   44.1041 H   0  0  0  0  0  0  0  0  0  0  0  0
   58.8767   31.0629   45.4889 H   0  0  0  0  0  0  0  0  0  0  0  0
   60.4838   28.4731   45.2475 H   0  0  0  0  0  0  0  0  0  0  0  0
   60.9700   29.9313   46.2101 H   0  0  0  0  0  0  0  0  0  0  0  0
  1  2  1  0
  2  3  2  0
  3  4  1  0
  4  5  2  0
  5  6  1  0
  6  7  2  0
  7  8  1  0
  8  9  1  0
  9 10  2  0
  9 11  1  0
 11 12  1  0
 12 13  1  0
 13 14  1  0
 14 15  2  0
 15 16  1  0
 16 17  2  0
 17 18  1  0
 18 19  2  0
 11 20  1  0
 20 21  1  0
 21 22  1  0
 22 23  1  0
 23 24  2  0
 23 25  2  0
 23 26  1  0
 26 27  1  0
 27 28  2  0
 28 29  1  0
 29 30  2  0
 30 31  1  0
 31 32  2  0
 22 33  1  0
 33 34  1  0
  7  2  1  0
 34 11  1  0
 19 14  1  0
 32 27  1  0
  1 35  1  0
  1 36  1  0
  1 37  1  0
  3 38  1  0
  4 39  1  0
  5 40  1  0
  6 41  1  0
 12 42  1  0
 12 43  1  0
 13 44  1  0
 13 45  1  0
 15 46  1  0
 16 47  1  0
 17 48  1  0
 18 49  1  0
 19 50  1  0
 20 51  1  0
 20 52  1  0
 21 53  1  0
 21 54  1  0
 26 55  1  0
 26 56  1  0
 28 57  1  0
 29 58  1  0
 30 59  1  0
 31 60  1  0
 32 61  1  0
 33 62  1  0
 33 63  1  0
 34 64  1  0
 34 65  1  0
M  CHG  1   8  -1
M  END
>  <UniqueID>  (60) 
56

>  <SMILES>  (60) 
Cc1ccccc1[N-]C(=O)C1(CCc2ccccc2)CCN(S(=O)(=O)Cc2ccccc2)CC1

>  <Energy>  (60) 
79.6945258228781

>  <Genealogy>  (60) 
Cc1ccccc1[N-]C(=O)C1(CCc2ccccc2)CCN(S(=O)(=O)Cc2ccccc2)CC1 (protonated)
Cc1ccccc1[N-]C(=O)C1(CCc2ccccc2)CCN(S(=O)(=O)Cc2ccccc2)CC1 (3D coordinates assigned)
Cc1ccccc1[N-]C(=O)C1(CCc2ccccc2)CCN(S(=O)(=O)Cc2ccccc2)CC1 (nonaromatic ring conformer: 79.6945258228781 kcal/mol)

>  <smiles>  (60) 
Cc1ccccc1NC(=O)C1(CCc2ccccc2)CCN(S(=O)(=O)Cc2ccccc2)CC1

>  <score_type>  (60) 
oracle

>  <origin>  (60) 
adg

>  <m_score__min__energy>  (60) 
-12.16

>  <m_primary>  (60) 
energy

$$$$
60:0
     RDKit          3D

 33 35  0  0  0  0  0  0  0  0999 V2000
   55.4770   29.0090   44.8840 O   0  0  0  0  0  0  0  0  0  0  0  0
   56.6840   28.8770   45.2160 C   0  0  0  0  0  0  0  0  0  0  0  0
   57.3960   27.5940   44.9040 C   0  0  0  0  0  0  0  0  0  0  0  0
   57.3510   26.4930   46.3600 S   0  0  0  0  0  0  0  0  0  0  0  0
   56.1120   25.4000   45.6720 C   0  0  0  0  0  0  0  0  0  0  0  0
   56.4810   24.3980   44.8300 N   0  0  0  0  0  0  0  0  0  0  0  0
   55.5500   23.5730   44.2820 C   0  0  0  0  0  0  0  0  0  0  0  0
   55.9100   22.6500   43.5050 O   0  0  0  0  0  0  0  0  0  0  0  0
   54.1980   23.7520   44.5820 C   0  0  0  0  0  0  0  0  0  0  0  0
   53.8420   24.7850   45.4490 C   0  0  0  0  0  0  0  0  0  0  0  0
   54.8020   25.5860   45.9770 N   0  0  0  0  0  0  0  0  0  0  0  0
   57.3540   29.9780   45.8470 N   0  0  0  0  0  0  0  0  0  0  0  0
   57.7320   31.1840   45.1720 C   0  0  0  0  0  0  0  0  0  0  0  0
   57.5780   31.2470   43.7810 C   0  0  0  0  0  0  0  0  0  0  0  0
   57.9700   32.3850   43.0750 C   0  0  0  0  0  0  0  0  0  0  0  0
   58.5110   33.4810   43.7500 C   0  0  0  0  0  0  0  0  0  0  0  0
   58.6490   33.4520   45.1450 C   0  0  0  0  0  0  0  0  0  0  0  0
   59.1850   34.5570   45.8250 C   0  0  0  0  0  0  0  0  0  0  0  0
   59.3060   34.5350   47.2150 C   0  0  0  0  0  0  0  0  0  0  0  0
   58.8880   33.4170   47.9390 C   0  0  0  0  0  0  0  0  0  0  0  0
   58.3560   32.3070   47.2770 C   0  0  0  0  0  0  0  0  0  0  0  0
   58.2440   32.3010   45.8720 C   0  0  0  0  0  0  0  0  0  0  0  0
   56.9011   27.0984   44.0558 H   0  0  0  0  0  0  0  0  0  0  0  0
   58.4427   27.8126   44.6457 H   0  0  0  0  0  0  0  0  0  0  0  0
   53.4322   23.0942   44.1451 H   0  0  0  0  0  0  0  0  0  0  0  0
   52.7849   24.9502   45.7044 H   0  0  0  0  0  0  0  0  0  0  0  0
   57.1445   30.3924   43.2409 H   0  0  0  0  0  0  0  0  0  0  0  0
   57.8523   32.4188   41.9818 H   0  0  0  0  0  0  0  0  0  0  0  0
   58.8299   34.3698   43.1857 H   0  0  0  0  0  0  0  0  0  0  0  0
   59.5107   35.4430   45.2603 H   0  0  0  0  0  0  0  0  0  0  0  0
   59.7321   35.4014   47.7420 H   0  0  0  0  0  0  0  0  0  0  0  0
   58.9777   33.4096   49.0353 H   0  0  0  0  0  0  0  0  0  0  0  0
   58.0228   31.4330   47.8558 H   0  0  0  0  0  0  0  0  0  0  0  0
  1  2  2  0
  2  3  1  0
  3  4  1  0
  4  5  1  0
  5  6  2  0
  6  7  1  0
  7  8  2  0
  7  9  1  0
  9 10  2  0
 10 11  1  0
  2 12  1  0
 12 13  1  0
 13 14  2  0
 14 15  1  0
 15 16  2  0
 16 17  1  0
 17 18  2  0
 18 19  1  0
 19 20  2  0
 20 21  1  0
 21 22  2  0
 11  5  1  0
 22 13  1  0
 22 17  1  0
  3 23  1  0
  3 24  1  0
  9 25  1  0
 10 26  1  0
 14 27  1  0
 15 28  1  0
 16 29  1  0
 18 30  1  0
 19 31  1  0
 20 32  1  0
 21 33  1  0
M  CHG  2  11  -1  12  -1
M  END
>  <UniqueID>  (61) 
57

>  <SMILES>  (61) 
O=C(CSc1nc(=O)cc[n-]1)[N-]c1cccc2ccccc12

>  <Energy>  (61) 
41.73178523514161

>  <Genealogy>  (61) 
O=C(CSc1nc(=O)cc[n-]1)[N-]c1cccc2ccccc12 (protonated)
O=C(CSc1nc(=O)cc[n-]1)[N-]c1cccc2ccccc12 (3D coordinates assigned)
O=C(CSc1nc(=O)cc[n-]1)[N-]c1cccc2ccccc12 (optimized conformer: 41.73178523514161 kcal/mol)

>  <smiles>  (61) 
O=C(CSc1nc(=O)cc[nH]1)Nc1cccc2ccccc12

>  <score_type>  (61) 
oracle

>  <origin>  (61) 
adg

>  <m_score__min__energy>  (61) 
-11.5

>  <m_primary>  (61) 
energy

$$$$
61:0
     RDKit          3D

 65 69  0  0  0  0  0  0  0  0999 V2000
   58.3810   29.8570   44.3850 C   0  0  0  0  0  0  0  0  0  0  0  0
   58.3750   29.5300   45.6860 C   0  0  0  0  0  0  0  0  0  0  0  0
   58.3380   28.2360   46.2330 C   0  0  0  0  0  0  0  0  0  0  0  0
   58.1460   27.0300   45.6630 C   0  0  0  0  0  0  0  0  0  0  0  0
   57.4020   25.8990   46.2390 C   0  0  0  0  0  0  0  0  0  0  0  0
   57.9990   24.8610   46.8510 N   0  0  0  0  0  0  0  0  0  0  0  0
   56.9630   24.1450   47.3390 C   0  0  0  0  0  0  0  0  0  0  0  0
   57.1210   23.0700   47.9740 O   0  0  0  0  0  0  0  0  0  0  0  0
   55.7460   24.6790   47.1040 N   0  0  0  0  0  0  0  0  0  0  0  0
   56.0420   25.7980   46.4220 C   0  0  0  0  0  0  0  0  0  0  0  0
   55.0900   26.7140   45.9980 O   0  0  0  0  0  0  0  0  0  0  0  0
   58.5520   28.3890   47.5910 C   0  0  0  0  0  0  0  0  0  0  0  0
   58.6560   29.7400   47.8360 C   0  0  0  0  0  0  0  0  0  0  0  0
   58.8950   30.3230   49.1980 C   0  0  0  0  0  0  0  0  0  0  0  0
   58.5230   30.4400   46.6850 N   0  0  0  0  0  0  0  0  0  0  0  0
   58.7460   31.8590   46.5410 C   0  0  0  0  0  0  0  0  0  0  0  0
   57.6780   32.6830   46.1480 C   0  0  0  0  0  0  0  0  0  0  0  0
   57.8750   34.0480   45.9340 C   0  0  0  0  0  0  0  0  0  0  0  0
   59.1440   34.6040   46.0910 C   0  0  0  0  0  0  0  0  0  0  0  0
   60.2190   33.7980   46.4700 C   0  0  0  0  0  0  0  0  0  0  0  0
   60.0320   32.4270   46.7070 C   0  0  0  0  0  0  0  0  0  0  0  0
   61.2040   31.6120   47.0800 C   0  0  0  0  0  0  0  0  0  0  0  0
   61.3730   30.5030   46.5070 O   0  0  0  0  0  0  0  0  0  0  0  0
   62.1760   32.0800   48.0310 N   0  0  0  0  0  0  0  0  0  0  0  0
   63.3860   32.7820   47.6370 C   0  0  0  0  0  0  0  0  0  0  0  0
   64.2680   32.8400   48.8800 C   0  0  0  0  0  0  0  0  0  0  0  0
   63.6440   31.8880   49.8990 C   0  0  0  0  0  0  0  0  0  0  0  0
   62.2250   31.5900   49.4010 C   0  0  1  0  0  0  0  0  0  0  0  0
   61.1560   32.2700   50.2440 C   0  0  0  0  0  0  0  0  0  0  0  0
   60.5710   33.4670   49.7910 C   0  0  0  0  0  0  0  0  0  0  0  0
   59.6130   34.1270   50.5570 C   0  0  0  0  0  0  0  0  0  0  0  0
   59.2090   33.5960   51.7790 C   0  0  0  0  0  0  0  0  0  0  0  0
   59.7630   32.4030   52.2400 C   0  0  0  0  0  0  0  0  0  0  0  0
   60.7360   31.7210   51.4800 C   0  0  0  0  0  0  0  0  0  0  0  0
   61.3080   30.5130   51.9200 O   0  0  0  0  0  0  0  0  0  0  0  0
   60.7420   29.2110   51.7620 C   0  0  0  0  0  0  0  0  0  0  0  0
   61.8060   28.1840   51.3680 C   0  0  0  0  0  0  0  0  0  0  0  0
   63.0880   28.6900   51.6200 O   0  0  0  0  0  0  0  0  0  0  0  0
   58.4117   30.9145   44.0838 H   0  0  0  0  0  0  0  0  0  0  0  0
   58.3553   29.0676   43.6194 H   0  0  0  0  0  0  0  0  0  0  0  0
   58.5896   26.8760   44.6683 H   0  0  0  0  0  0  0  0  0  0  0  0
   58.6253   27.5826   48.3356 H   0  0  0  0  0  0  0  0  0  0  0  0
   58.5964   29.5945   49.9662 H   0  0  0  0  0  0  0  0  0  0  0  0
   59.9629   30.5602   49.3131 H   0  0  0  0  0  0  0  0  0  0  0  0
   58.3009   31.2416   49.3131 H   0  0  0  0  0  0  0  0  0  0  0  0
   56.6773   32.2483   46.0077 H   0  0  0  0  0  0  0  0  0  0  0  0
   57.0281   34.6860   45.6411 H   0  0  0  0  0  0  0  0  0  0  0  0
   59.2983   35.6790   45.9160 H   0  0  0  0  0  0  0  0  0  0  0  0
   61.2197   34.2403   46.5837 H   0  0  0  0  0  0  0  0  0  0  0  0
   63.8983   32.2361   46.8310 H   0  0  0  0  0  0  0  0  0  0  0  0
   63.1596   33.7898   47.2587 H   0  0  0  0  0  0  0  0  0  0  0  0
   65.2909   32.5178   48.6356 H   0  0  0  0  0  0  0  0  0  0  0  0
   64.3289   33.8639   49.2773 H   0  0  0  0  0  0  0  0  0  0  0  0
   64.2291   30.9584   49.9591 H   0  0  0  0  0  0  0  0  0  0  0  0
   63.6282   32.3345   50.9042 H   0  0  0  0  0  0  0  0  0  0  0  0
   62.0162   30.5122   49.4696 H   0  0  0  0  0  0  0  0  0  0  0  0
   60.8739   33.8865   48.8203 H   0  0  0  0  0  0  0  0  0  0  0  0
   59.1750   35.0692   50.1959 H   0  0  0  0  0  0  0  0  0  0  0  0
   58.4515   34.1187   52.3815 H   0  0  0  0  0  0  0  0  0  0  0  0
   59.4382   31.9893   53.2061 H   0  0  0  0  0  0  0  0  0  0  0  0
   60.2818   28.9030   52.7125 H   0  0  0  0  0  0  0  0  0  0  0  0
   59.9898   29.2553   50.9606 H   0  0  0  0  0  0  0  0  0  0  0  0
   61.6573   27.2647   51.9535 H   0  0  0  0  0  0  0  0  0  0  0  0
   61.7123   27.9663   50.2938 H   0  0  0  0  0  0  0  0  0  0  0  0
   62.9670   29.6180   51.9460 H   0  0  0  0  0  0  0  0  0  0  0  0
  1  2  2  0
  2  3  1  0
  3  4  2  3
  4  5  1  0
  5  6  1  0
  6  7  1  0
  7  8  2  0
  7  9  1  0
  9 10  1  0
 10 11  1  0
  3 12  1  0
 12 13  2  0
 13 14  1  0
 13 15  1  0
 15 16  1  0
 16 17  2  0
 17 18  1  0
 18 19  2  0
 19 20  1  0
 20 21  2  0
 21 22  1  0
 22 23  2  0
 22 24  1  0
 24 25  1  0
 25 26  1  0
 26 27  1  0
 27 28  1  0
 28 29  1  0
 29 30  2  0
 30 31  1  0
 31 32  2  0
 32 33  1  0
 33 34  2  0
 34 35  1  0
 35 36  1  0
 36 37  1  0
 37 38  1  0
 15  2  1  0
 21 16  1  0
 28 24  1  0
 34 29  1  0
 10  5  2  0
  1 39  1  0
  1 40  1  0
  4 41  1  0
 12 42  1  0
 14 43  1  0
 14 44  1  0
 14 45  1  0
 17 46  1  0
 18 47  1  0
 19 48  1  0
 20 49  1  0
 25 50  1  0
 25 51  1  0
 26 52  1  0
 26 53  1  0
 27 54  1  0
 27 55  1  0
 28 56  1  6
 30 57  1  0
 31 58  1  0
 32 59  1  0
 33 60  1  0
 36 61  1  0
 36 62  1  0
 37 63  1  0
 37 64  1  0
 38 65  1  0
M  CHG  3   6  -1   9  -1  11  -1
M  END
>  <UniqueID>  (62) 
58

>  <SMILES>  (62) 
C=c1c(=Cc2[n-]c(=O)[n-]c2[O-])cc(C)n1-c1ccccc1C(=O)N1CCC[C@H]1c1ccccc1OCCO

>  <Energy>  (62) 
145.79269622854045

>  <Genealogy>  (62) 
C=c1c(=Cc2[n-]c(=O)[n-]c2[O-])cc(C)n1-c1ccccc1C(=O)N1CCCC1c1ccccc1OCCO (protonated)
C=c1c(=Cc2[n-]c(=O)[n-]c2[O-])cc(C)n1-c1ccccc1C(=O)N1CCC[C@H]1c1ccccc1OCCO (chirality)
C=c1c(=Cc2[n-]c(=O)[n-]c2[O-])cc(C)n1-c1ccccc1C(=O)N1CCC[C@H]1c1ccccc1OCCO (3D coordinates assigned)
C=c1c(=Cc2[n-]c(=O)[n-]c2[O-])cc(C)n1-c1ccccc1C(=O)N1CCC[C@H]1c1ccccc1OCCO (nonaromatic ring conformer: 145.79269622854045 kcal/mol)

>  <smiles>  (62) 
C=c1c(=Cc2[nH]c(=O)[nH]c2O)cc(C)n1-c1ccccc1C(=O)N1CCCC1c1ccccc1OCCO

>  <score_type>  (62) 
oracle

>  <origin>  (62) 
adg

>  <m_score__min__energy>  (62) 
-16.989999999999998

>  <m_primary>  (62) 
energy

$$$$
62:0
     RDKit          3D

 49 52  0  0  0  0  0  0  0  0999 V2000
   61.7154   27.1494   47.9555 H   0  0  0  0  0  0  0  0  0  0  0  0
   60.8060   27.1310   47.3370 C   0  0  0  0  0  0  0  0  0  0  0  0
   60.6754   26.3493   46.5742 H   0  0  0  0  0  0  0  0  0  0  0  0
   59.8560   28.0620   47.5130 C   0  0  0  0  0  0  0  0  0  0  0  0
   58.6470   28.1730   46.8080 C   0  0  0  0  0  0  0  0  0  0  0  0
   58.0300   27.3250   45.9590 C   0  0  0  0  0  0  0  0  0  0  0  0
   58.0057   27.6081   44.8963 H   0  0  0  0  0  0  0  0  0  0  0  0
   57.3870   26.0550   46.3300 C   0  0  0  0  0  0  0  0  0  0  0  0
   58.0290   24.9980   46.8580 N   0  0  0  0  0  0  0  0  0  0  0  0
   57.0230   24.1520   47.1780 C   0  0  0  0  0  0  0  0  0  0  0  0
   57.2250   23.0250   47.6950 O   0  0  0  0  0  0  0  0  0  0  0  0
   55.7830   24.6180   46.9130 N   0  0  0  0  0  0  0  0  0  0  0  0
   56.0330   25.8280   46.3910 C   0  0  0  0  0  0  0  0  0  0  0  0
   55.0420   26.7110   45.9820 O   0  0  0  0  0  0  0  0  0  0  0  0
   58.1230   29.4110   47.1350 C   0  0  0  0  0  0  0  0  0  0  0  0
   57.2002   29.8567   46.7351 H   0  0  0  0  0  0  0  0  0  0  0  0
   58.9760   29.9810   48.0570 C   0  0  0  0  0  0  0  0  0  0  0  0
   58.8100   31.3460   48.5950 C   0  0  0  0  0  0  0  0  0  0  0  0
   58.6750   31.5030   49.8380 O   0  0  0  0  0  0  0  0  0  0  0  0
   58.8790   32.4990   47.7360 N   0  0  0  0  0  0  0  0  0  0  0  0
   59.8480   33.5580   47.9950 C   0  0  0  0  0  0  0  0  0  0  0  0
   59.4042   34.3035   48.6713 H   0  0  0  0  0  0  0  0  0  0  0  0
   60.7457   33.1269   48.4622 H   0  0  0  0  0  0  0  0  0  0  0  0
   60.2320   34.2290   46.6810 C   0  0  0  0  0  0  0  0  0  0  0  0
   60.8952   35.0796   46.8969 H   0  0  0  0  0  0  0  0  0  0  0  0
   60.7370   33.4812   46.0519 H   0  0  0  0  0  0  0  0  0  0  0  0
   59.0990   34.7000   45.9770 O   0  0  0  0  0  0  0  0  0  0  0  0
   58.1770   33.6660   45.6510 C   0  0  1  0  0  0  0  0  0  0  0  0
   57.2449   34.1742   45.3631 H   0  0  0  0  0  0  0  0  0  0  0  0
   58.5740   32.8710   44.3790 C   0  0  0  0  0  0  0  0  0  0  0  0
   58.6411   33.5827   43.5429 H   0  0  0  0  0  0  0  0  0  0  0  0
   59.5258   32.3752   44.6203 H   0  0  0  0  0  0  0  0  0  0  0  0
   57.6310   31.7730   43.9760 C   0  0  0  0  0  0  0  0  0  0  0  0
   57.4500   31.4660   42.6630 N   0  0  0  0  0  0  0  0  0  0  0  0
   56.6100   30.4660   42.2870 C   0  0  0  0  0  0  0  0  0  0  0  0
   56.4689   30.2373   41.2203 H   0  0  0  0  0  0  0  0  0  0  0  0
   55.9270   29.7300   43.2550 C   0  0  0  0  0  0  0  0  0  0  0  0
   55.2385   28.9221   42.9665 H   0  0  0  0  0  0  0  0  0  0  0  0
   56.1380   30.0430   44.5970 C   0  0  0  0  0  0  0  0  0  0  0  0
   55.6172   29.4765   45.3830 H   0  0  0  0  0  0  0  0  0  0  0  0
   56.9880   31.0490   44.9330 N   0  0  0  0  0  0  0  0  0  0  0  0
   57.7460   32.8070   46.8640 C   0  0  0  0  0  0  0  0  0  0  0  0
   56.9906   33.3594   47.4421 H   0  0  0  0  0  0  0  0  0  0  0  0
   57.3357   31.8591   46.4856 H   0  0  0  0  0  0  0  0  0  0  0  0
   60.0180   29.1530   48.3070 N   0  0  0  0  0  0  0  0  0  0  0  0
   61.1550   29.4410   49.1860 C   0  0  0  0  0  0  0  0  0  0  0  0
   60.8365   29.3603   50.2358 H   0  0  0  0  0  0  0  0  0  0  0  0
   61.9614   28.7188   48.9909 H   0  0  0  0  0  0  0  0  0  0  0  0
   61.5204   30.4601   48.9909 H   0  0  0  0  0  0  0  0  0  0  0  0
  1  2  1  0
  2  3  1  0
  2  4  2  0
  4  5  1  0
  5  6  2  0
  6  7  1  0
  6  8  1  0
  8  9  1  0
  9 10  1  0
 10 11  2  0
 10 12  1  0
 12 13  1  0
 13 14  1  0
  5 15  1  0
 15 16  1  0
 15 17  2  0
 17 18  1  0
 18 19  2  0
 18 20  1  0
 20 21  1  0
 21 22  1  0
 21 23  1  0
 21 24  1  0
 24 25  1  0
 24 26  1  0
 24 27  1  0
 27 28  1  0
 28 29  1  6
 28 30  1  0
 30 31  1  0
 30 32  1  0
 30 33  1  0
 33 34  2  0
 34 35  1  0
 35 36  1  0
 35 37  2  0
 37 38  1  0
 37 39  1  0
 39 40  1  0
 39 41  2  0
 28 42  1  0
 42 43  1  0
 42 44  1  0
 17 45  1  0
 45 46  1  0
 46 47  1  0
 46 48  1  0
 46 49  1  0
 45  4  1  0
 13  8  2  0
 42 20  1  0
 41 33  1  0
M  CHG  3   9  -1  12  -1  14  -1
M  END
>  <UniqueID>  (63) 
59

>  <SMILES>  (63) 
C=c1/c(=C\c2[n-]c(=O)[n-]c2[O-])cc(C(=O)N2CCO[C@@H](Cc3ncccn3)C2)n1C

>  <Energy>  (63) 
134.74418650813703

>  <Genealogy>  (63) 
C=c1c(=Cc2[n-]c(=O)[n-]c2[O-])cc(C(=O)N2CCOC(Cc3ncccn3)C2)n1C (protonated)
C=c1c(=Cc2[n-]c(=O)[n-]c2[O-])cc(C(=O)N2CCO[C@@H](Cc3ncccn3)C2)n1C (chirality)
C=c1/c(=C\c2[n-]c(=O)[n-]c2[O-])cc(C(=O)N2CCO[C@@H](Cc3ncccn3)C2)n1C (cis-trans isomerization)
C=c1/c(=C\c2[n-]c(=O)[n-]c2[O-])cc(C(=O)N2CCO[C@@H](Cc3ncccn3)C2)n1C (3D coordinates assigned)
C=c1/c(=C\c2[n-]c(=O)[n-]c2[O-])cc(C(=O)N2CCO[C@@H](Cc3ncccn3)C2)n1C (nonaromatic ring conformer: 134.74418650813703 kcal/mol)

>  <smiles>  (63) 
C=c1c(=Cc2[nH]c(=O)[nH]c2O)cc(C(=O)N2CCOC(Cc3ncccn3)C2)n1C

>  <score_type>  (63) 
oracle

>  <origin>  (63) 
adg

>  <m_score__min__energy>  (63) 
-17.859999999999999

>  <m_primary>  (63) 
energy

$$$$
63:0
     RDKit          3D

 51 53  0  0  0  0  0  0  0  0999 V2000
   57.1230   24.6900   43.3950 C   0  0  0  0  0  0  0  0  0  0  0  0
   56.7520   23.9960   44.6450 N   0  0  0  0  0  0  0  0  0  0  0  0
   55.9580   24.8720   45.5510 C   0  0  0  0  0  0  0  0  0  0  0  0
   56.7650   25.4620   46.7270 C   0  0  0  0  0  0  0  0  0  0  0  0
   58.1720   25.6300   46.3440 N   0  0  0  0  0  0  0  0  0  0  0  0
   58.8240   26.9170   46.3890 C   0  0  0  0  0  0  0  0  0  0  0  0
   59.3400   27.4200   47.5970 C   0  0  0  0  0  0  0  0  0  0  0  0
   59.8440   28.7220   47.6670 C   0  0  0  0  0  0  0  0  0  0  0  0
   59.8320   29.5430   46.5290 C   0  0  0  0  0  0  0  0  0  0  0  0
   60.2410   30.9160   46.6360 N   0  0  0  0  0  0  0  0  0  0  0  0
   59.5550   31.8500   47.4830 C   0  0  0  0  0  0  0  0  0  0  0  0
   58.5440   31.4930   48.1440 O   0  0  0  0  0  0  0  0  0  0  0  0
   60.0430   33.1820   47.6370 N   0  0  0  0  0  0  0  0  0  0  0  0
   59.6330   34.2150   46.7270 C   0  0  0  0  0  0  0  0  0  0  0  0
   59.3320   35.3550   47.1810 O   0  0  0  0  0  0  0  0  0  0  0  0
   59.5580   33.9550   45.2740 C   0  0  0  0  0  0  0  0  0  0  0  0
   58.3900   33.9350   44.6150 C   0  0  0  0  0  0  0  0  0  0  0  0
   57.7480   32.6920   44.1200 C   0  0  0  0  0  0  0  0  0  0  0  0
   57.1430   31.7530   44.9830 C   0  0  0  0  0  0  0  0  0  0  0  0
   56.6140   30.5620   44.4720 C   0  0  0  0  0  0  0  0  0  0  0  0
   56.6730   30.2950   43.1020 C   0  0  0  0  0  0  0  0  0  0  0  0
   57.2640   31.2180   42.2370 C   0  0  0  0  0  0  0  0  0  0  0  0
   57.7930   32.4130   42.7400 C   0  0  0  0  0  0  0  0  0  0  0  0
   59.3930   29.0180   45.3070 C   0  0  0  0  0  0  0  0  0  0  0  0
   58.8920   27.7150   45.2380 C   0  0  0  0  0  0  0  0  0  0  0  0
   58.9050   24.4670   45.8290 C   0  0  0  0  0  0  0  0  0  0  0  0
   57.9270   23.3980   45.3100 C   0  0  0  0  0  0  0  0  0  0  0  0
   57.6289   25.6363   43.6372 H   0  0  0  0  0  0  0  0  0  0  0  0
   57.8003   24.0519   42.8084 H   0  0  0  0  0  0  0  0  0  0  0  0
   56.2161   24.8987   42.8084 H   0  0  0  0  0  0  0  0  0  0  0  0
   55.5532   25.7052   44.9579 H   0  0  0  0  0  0  0  0  0  0  0  0
   55.1717   24.2415   45.9917 H   0  0  0  0  0  0  0  0  0  0  0  0
   56.3441   26.4405   47.0016 H   0  0  0  0  0  0  0  0  0  0  0  0
   56.7063   24.7737   47.5830 H   0  0  0  0  0  0  0  0  0  0  0  0
   59.3470   26.7835   48.4941 H   0  0  0  0  0  0  0  0  0  0  0  0
   60.2505   29.1034   48.6153 H   0  0  0  0  0  0  0  0  0  0  0  0
   61.1440   31.2040   46.1940 H   0  0  0  0  0  0  0  0  0  0  0  0
   60.3150   33.4810   48.6040 H   0  0  0  0  0  0  0  0  0  0  0  0
   60.4883   33.7724   44.7162 H   0  0  0  0  0  0  0  0  0  0  0  0
   57.8801   34.8922   44.4314 H   0  0  0  0  0  0  0  0  0  0  0  0
   57.0870   31.9582   46.0622 H   0  0  0  0  0  0  0  0  0  0  0  0
   56.1497   29.8329   45.1523 H   0  0  0  0  0  0  0  0  0  0  0  0
   56.2542   29.3585   42.7051 H   0  0  0  0  0  0  0  0  0  0  0  0
   57.3141   31.0061   41.1588 H   0  0  0  0  0  0  0  0  0  0  0  0
   58.2477   33.1403   42.0514 H   0  0  0  0  0  0  0  0  0  0  0  0
   59.4428   29.6341   44.3971 H   0  0  0  0  0  0  0  0  0  0  0  0
   58.5485   27.3126   44.2736 H   0  0  0  0  0  0  0  0  0  0  0  0
   59.5602   24.7879   45.0058 H   0  0  0  0  0  0  0  0  0  0  0  0
   59.5034   24.0348   46.6446 H   0  0  0  0  0  0  0  0  0  0  0  0
   58.4537   22.7555   44.5891 H   0  0  0  0  0  0  0  0  0  0  0  0
   57.5689   22.8186   46.1738 H   0  0  0  0  0  0  0  0  0  0  0  0
  1  2  1  0
  2  3  1  0
  3  4  1  0
  4  5  1  0
  5  6  1  0
  6  7  2  0
  7  8  1  0
  8  9  2  0
  9 10  1  0
 10 11  1  0
 11 12  2  0
 11 13  1  0
 13 14  1  0
 14 15  2  0
 14 16  1  0
 16 17  2  3
 17 18  1  0
 18 19  2  0
 19 20  1  0
 20 21  2  0
 21 22  1  0
 22 23  2  0
  9 24  1  0
 24 25  2  0
  5 26  1  0
 26 27  1  0
 27  2  1  0
 25  6  1  0
 23 18  1  0
  1 28  1  0
  1 29  1  0
  1 30  1  0
  3 31  1  0
  3 32  1  0
  4 33  1  0
  4 34  1  0
  7 35  1  0
  8 36  1  0
 10 37  1  0
 13 38  1  0
 16 39  1  0
 17 40  1  0
 19 41  1  0
 20 42  1  0
 21 43  1  0
 22 44  1  0
 23 45  1  0
 24 46  1  0
 25 47  1  0
 26 48  1  0
 26 49  1  0
 27 50  1  0
 27 51  1  0
M  END
>  <UniqueID>  (64) 
60

>  <SMILES>  (64) 
CN1CCN(c2ccc(NC(=O)NC(=O)C=Cc3ccccc3)cc2)CC1

>  <Energy>  (64) 
78.74212175821732

>  <Genealogy>  (64) 
CN1CCN(c2ccc(NC(=O)NC(=O)C=Cc3ccccc3)cc2)CC1 (3D coordinates assigned)
CN1CCN(c2ccc(NC(=O)NC(=O)C=Cc3ccccc3)cc2)CC1 (nonaromatic ring conformer: 78.74212175821732 kcal/mol)

>  <smiles>  (64) 
CN1CCN(c2ccc(NC(=O)NC(=O)C=Cc3ccccc3)cc2)CC1

>  <score_type>  (64) 
oracle

>  <origin>  (64) 
adg

>  <m_score__min__energy>  (64) 
-7.4000000000000004

>  <m_primary>  (64) 
energy

$$$$
64:0
     RDKit          3D

 41 42  0  0  0  0  0  0  0  0999 V2000
   58.3367   23.9018   47.4840 H   0  0  0  0  0  0  0  0  0  0  0  0
   57.7430   24.7230   47.0560 C   0  0  0  0  0  0  0  0  0  0  0  0
   58.2400   25.9880   47.0490 N   0  0  0  0  0  0  0  0  0  0  0  0
   57.5400   27.0380   46.5280 C   0  0  0  0  0  0  0  0  0  0  0  0
   58.0280   28.2460   46.5350 N   0  0  0  0  0  0  0  0  0  0  0  0
   58.6750   28.9120   47.6330 C   0  0  0  0  0  0  0  0  0  0  0  0
   59.1150   28.2570   48.6180 O   0  0  0  0  0  0  0  0  0  0  0  0
   58.8630   30.3770   47.5880 C   0  0  0  0  0  0  0  0  0  0  0  0
   59.6650   30.9860   48.5700 C   0  0  0  0  0  0  0  0  0  0  0  0
   60.2588   30.3612   49.2533 H   0  0  0  0  0  0  0  0  0  0  0  0
   59.7140   32.3750   48.6850 C   0  0  0  0  0  0  0  0  0  0  0  0
   60.3480   32.8401   49.4542 H   0  0  0  0  0  0  0  0  0  0  0  0
   58.9610   33.1750   47.8270 C   0  0  0  0  0  0  0  0  0  0  0  0
   58.9643   34.2677   47.9532 H   0  0  0  0  0  0  0  0  0  0  0  0
   58.2010   32.5940   46.8060 C   0  0  0  0  0  0  0  0  0  0  0  0
   57.2150   33.6500   45.7330 S   0  0  0  0  0  0  0  0  0  0  0  0
   58.6430   34.4590   44.9420 C   0  0  0  0  0  0  0  0  0  0  0  0
   59.3222   34.8438   45.7171 H   0  0  0  0  0  0  0  0  0  0  0  0
   59.1772   33.7294   44.3157 H   0  0  0  0  0  0  0  0  0  0  0  0
   58.2918   35.2923   44.3157 H   0  0  0  0  0  0  0  0  0  0  0  0
   58.1700   31.1930   46.6590 C   0  0  0  0  0  0  0  0  0  0  0  0
   57.4080   30.6390   45.6240 O   0  0  0  0  0  0  0  0  0  0  0  0
   58.0750   30.0830   44.1420 S   0  0  0  0  0  0  0  0  0  0  0  0
   58.0430   31.1640   43.0980 O   0  0  0  0  0  0  0  0  0  0  0  0
   59.5090   29.7160   44.4010 O   0  0  0  0  0  0  0  0  0  0  0  0
   57.2070   28.6800   43.5660 N   0  0  0  0  0  0  0  0  0  0  0  0
   56.5430   28.3770   44.3130 H   0  0  0  0  0  0  0  0  0  0  0  0
   58.1460   27.5810   43.2980 C   0  0  0  0  0  0  0  0  0  0  0  0
   58.5030   27.1632   44.2509 H   0  0  0  0  0  0  0  0  0  0  0  0
   57.6359   26.7953   42.7213 H   0  0  0  0  0  0  0  0  0  0  0  0
   59.0016   27.9622   42.7213 H   0  0  0  0  0  0  0  0  0  0  0  0
   56.4540   29.0090   42.3460 C   0  0  0  0  0  0  0  0  0  0  0  0
   55.4781   29.4354   42.6213 H   0  0  0  0  0  0  0  0  0  0  0  0
   57.0200   29.7418   41.7522 H   0  0  0  0  0  0  0  0  0  0  0  0
   56.3008   28.0958   41.7522 H   0  0  0  0  0  0  0  0  0  0  0  0
   56.2670   26.8120   45.9830 C   0  0  0  0  0  0  0  0  0  0  0  0
   55.5270   27.8610   45.4460 O   0  0  0  0  0  0  0  0  0  0  0  0
   55.7400   25.5180   45.9810 C   0  0  0  0  0  0  0  0  0  0  0  0
   54.7436   25.3293   45.5550 H   0  0  0  0  0  0  0  0  0  0  0  0
   56.4810   24.4650   46.5210 C   0  0  0  0  0  0  0  0  0  0  0  0
   56.0739   23.4431   46.5245 H   0  0  0  0  0  0  0  0  0  0  0  0
  1  2  1  0
  2  3  1  0
  3  4  1  0
  4  5  2  0
  5  6  1  0
  6  7  2  0
  6  8  1  0
  8  9  2  0
  9 10  1  0
  9 11  1  0
 11 12  1  0
 11 13  2  0
 13 14  1  0
 13 15  1  0
 15 16  1  0
 16 17  1  0
 17 18  1  0
 17 19  1  0
 17 20  1  0
 15 21  2  0
 21 22  1  0
 22 23  1  0
 23 24  2  0
 23 25  2  0
 23 26  1  0
 26 27  1  0
 26 28  1  0
 28 29  1  0
 28 30  1  0
 28 31  1  0
 26 32  1  0
 32 33  1  0
 32 34  1  0
 32 35  1  0
  4 36  1  0
 36 37  1  0
 36 38  2  0
 38 39  1  0
 38 40  1  0
 40 41  1  0
 40  2  2  0
 21  8  1  0
M  CHG  3   3  -1  26   1  37  -1
M  END
>  <UniqueID>  (65) 
61

>  <SMILES>  (65) 
CSc1cccc(C(=O)/N=c2\[n-]cccc2[O-])c1OS(=O)(=O)[NH+](C)C

>  <Energy>  (65) 
48.04276936013251

>  <Genealogy>  (65) 
CSc1cccc(C(=O)N=c2[n-]cccc2[O-])c1OS(=O)(=O)[NH+](C)C (protonated)
CSc1cccc(C(=O)/N=c2\[n-]cccc2[O-])c1OS(=O)(=O)[NH+](C)C (cis-trans isomerization)
CSc1cccc(C(=O)/N=c2\[n-]cccc2[O-])c1OS(=O)(=O)[NH+](C)C (3D coordinates assigned)
CSc1cccc(C(=O)/N=c2\[n-]cccc2[O-])c1OS(=O)(=O)[NH+](C)C (optimized conformer: 48.04276936013251 kcal/mol)

>  <smiles>  (65) 
CSc1cccc(C(=O)N=c2[nH]cccc2O)c1OS(=O)(=O)N(C)C

>  <score_type>  (65) 
oracle

>  <origin>  (65) 
adg

>  <m_score__min__energy>  (65) 
-11.18

>  <m_primary>  (65) 
energy

$$$$
65:0
     RDKit          3D

 68 72  0  0  0  0  0  0  0  0999 V2000
   59.7460   33.2130   50.4640 O   0  0  0  0  0  0  0  0  0  0  0  0
   60.2540   33.7240   49.4320 C   0  0  0  0  0  0  0  0  0  0  0  0
   59.4130   34.4860   48.5560 N   0  0  0  0  0  0  0  0  0  0  0  0
   59.1360   34.1790   47.1820 C   0  0  0  0  0  0  0  0  0  0  0  0
   59.3570   35.1590   46.2080 C   0  0  0  0  0  0  0  0  0  0  0  0
   59.0760   34.8950   44.8670 C   0  0  0  0  0  0  0  0  0  0  0  0
   58.5900   33.6420   44.4830 C   0  0  0  0  0  0  0  0  0  0  0  0
   58.3990   32.6300   45.4400 C   0  0  0  0  0  0  0  0  0  0  0  0
   57.8920   31.2990   45.0310 C   0  0  0  0  0  0  0  0  0  0  0  0
   56.6650   31.1520   44.7750 O   0  0  0  0  0  0  0  0  0  0  0  0
   58.7900   30.1870   44.8760 N   0  0  0  0  0  0  0  0  0  0  0  0
   58.3730   28.8120   44.9080 C   0  0  0  0  0  0  0  0  0  0  0  0
   58.0530   28.1710   46.1170 C   0  0  0  0  0  0  0  0  0  0  0  0
   57.6840   26.8220   46.1260 C   0  0  0  0  0  0  0  0  0  0  0  0
   57.6350   26.0870   44.9290 C   0  0  0  0  0  0  0  0  0  0  0  0
   57.2570   24.6510   44.9370 C   0  0  0  0  0  0  0  0  0  0  0  0
   58.2230   23.6550   44.7040 C   0  0  0  0  0  0  0  0  0  0  0  0
   57.8590   22.3060   44.6790 C   0  0  0  0  0  0  0  0  0  0  0  0
   56.5280   21.9310   44.9000 C   0  0  0  0  0  0  0  0  0  0  0  0
   56.1320   20.5160   44.8300 C   0  0  0  0  0  0  0  0  0  0  0  0
   55.9420   20.0160   43.6860 O   0  0  0  0  0  0  0  0  0  0  0  0
   55.9160   19.7120   46.0150 N   0  0  0  0  0  0  0  0  0  0  0  0
   57.0730   19.4690   46.8990 C   0  0  0  0  0  0  0  0  0  0  0  0
   56.7630   19.5420   48.3990 C   0  0  0  0  0  0  0  0  0  0  0  0
   55.4350   18.8530   48.7630 C   0  0  0  0  0  0  0  0  0  0  0  0
   54.2820   19.7580   48.6570 N   0  0  0  0  0  0  0  0  0  0  0  0
   53.8030   19.9210   47.2800 C   0  0  0  0  0  0  0  0  0  0  0  0
   54.6100   19.0840   46.2780 C   0  0  0  0  0  0  0  0  0  0  0  0
   55.5610   22.9150   45.1350 C   0  0  0  0  0  0  0  0  0  0  0  0
   55.9220   24.2650   45.1570 C   0  0  0  0  0  0  0  0  0  0  0  0
   57.9700   26.7290   43.7240 C   0  0  0  0  0  0  0  0  0  0  0  0
   58.3440   28.0750   43.7170 C   0  0  0  0  0  0  0  0  0  0  0  0
   58.6780   32.9070   46.7910 C   0  0  0  0  0  0  0  0  0  0  0  0
   61.6920   33.4980   49.1410 C   0  0  0  0  0  0  0  0  0  0  0  0
   62.1080   33.1910   47.8330 C   0  0  0  0  0  0  0  0  0  0  0  0
   63.4610   32.9660   47.5550 C   0  0  0  0  0  0  0  0  0  0  0  0
   64.4110   33.0510   48.5770 C   0  0  0  0  0  0  0  0  0  0  0  0
   64.0110   33.3740   49.8750 C   0  0  0  0  0  0  0  0  0  0  0  0
   62.6600   33.6030   50.1580 C   0  0  0  0  0  0  0  0  0  0  0  0
   59.7541   36.1421   46.5008 H   0  0  0  0  0  0  0  0  0  0  0  0
   59.2375   35.6758   44.1092 H   0  0  0  0  0  0  0  0  0  0  0  0
   58.3557   33.4466   43.4262 H   0  0  0  0  0  0  0  0  0  0  0  0
   59.7820   30.3920   44.6240 H   0  0  0  0  0  0  0  0  0  0  0  0
   58.0930   28.7334   47.0615 H   0  0  0  0  0  0  0  0  0  0  0  0
   57.4301   26.3322   47.0777 H   0  0  0  0  0  0  0  0  0  0  0  0
   59.2727   23.9403   44.5403 H   0  0  0  0  0  0  0  0  0  0  0  0
   58.6205   21.5362   44.4851 H   0  0  0  0  0  0  0  0  0  0  0  0
   57.4666   18.4656   46.6794 H   0  0  0  0  0  0  0  0  0  0  0  0
   57.7946   20.2732   46.6925 H   0  0  0  0  0  0  0  0  0  0  0  0
   57.5777   19.0511   48.9515 H   0  0  0  0  0  0  0  0  0  0  0  0
   56.6724   20.6044   48.6693 H   0  0  0  0  0  0  0  0  0  0  0  0
   55.2802   18.0036   48.0814 H   0  0  0  0  0  0  0  0  0  0  0  0
   55.5059   18.5245   49.8104 H   0  0  0  0  0  0  0  0  0  0  0  0
   54.5140   20.6920   49.0730 H   0  0  0  0  0  0  0  0  0  0  0  0
   52.7492   19.6092   47.2331 H   0  0  0  0  0  0  0  0  0  0  0  0
   53.9221   20.9797   47.0061 H   0  0  0  0  0  0  0  0  0  0  0  0
   54.7692   18.0776   46.6924 H   0  0  0  0  0  0  0  0  0  0  0  0
   54.0490   19.0210   45.3339 H   0  0  0  0  0  0  0  0  0  0  0  0
   54.5133   22.6249   45.3029 H   0  0  0  0  0  0  0  0  0  0  0  0
   55.1566   25.0316   45.3478 H   0  0  0  0  0  0  0  0  0  0  0  0
   57.9374   26.1669   42.7790 H   0  0  0  0  0  0  0  0  0  0  0  0
   58.6180   28.5601   42.7685 H   0  0  0  0  0  0  0  0  0  0  0  0
   58.5368   32.1221   47.5486 H   0  0  0  0  0  0  0  0  0  0  0  0
   61.3656   33.1274   47.0238 H   0  0  0  0  0  0  0  0  0  0  0  0
   63.7776   32.7218   46.5302 H   0  0  0  0  0  0  0  0  0  0  0  0
   65.4727   32.8636   48.3587 H   0  0  0  0  0  0  0  0  0  0  0  0
   64.7599   33.4487   50.6773 H   0  0  0  0  0  0  0  0  0  0  0  0
   62.3524   33.8665   51.1807 H   0  0  0  0  0  0  0  0  0  0  0  0
  1  2  2  0
  2  3  1  0
  3  4  1  0
  4  5  2  0
  5  6  1  0
  6  7  2  0
  7  8  1  0
  8  9  1  0
  9 10  2  0
  9 11  1  0
 11 12  1  0
 12 13  2  0
 13 14  1  0
 14 15  2  0
 15 16  1  0
 16 17  2  0
 17 18  1  0
 18 19  2  0
 19 20  1  0
 20 21  2  0
 20 22  1  0
 22 23  1  0
 23 24  1  0
 24 25  1  0
 25 26  1  0
 26 27  1  0
 27 28  1  0
 19 29  1  0
 29 30  2  0
 15 31  1  0
 31 32  2  0
  8 33  2  0
  2 34  1  0
 34 35  2  0
 35 36  1  0
 36 37  2  0
 37 38  1  0
 38 39  2  0
 33  4  1  0
 39 34  1  0
 32 12  1  0
 30 16  1  0
 28 22  1  0
  5 40  1  0
  6 41  1  0
  7 42  1  0
 11 43  1  0
 13 44  1  0
 14 45  1  0
 17 46  1  0
 18 47  1  0
 23 48  1  0
 23 49  1  0
 24 50  1  0
 24 51  1  0
 25 52  1  0
 25 53  1  0
 26 54  1  0
 27 55  1  0
 27 56  1  0
 28 57  1  0
 28 58  1  0
 29 59  1  0
 30 60  1  0
 31 61  1  0
 32 62  1  0
 33 63  1  0
 35 64  1  0
 36 65  1  0
 37 66  1  0
 38 67  1  0
 39 68  1  0
M  CHG  1   3  -1
M  END
>  <UniqueID>  (66) 
62

>  <SMILES>  (66) 
O=C([N-]c1cccc(C(=O)Nc2ccc(-c3ccc(C(=O)N4CCCNCC4)cc3)cc2)c1)c1ccccc1

>  <Energy>  (66) 
102.41782275492872

>  <Genealogy>  (66) 
O=C([N-]c1cccc(C(=O)Nc2ccc(-c3ccc(C(=O)N4CCCNCC4)cc3)cc2)c1)c1ccccc1 (protonated)
O=C([N-]c1cccc(C(=O)Nc2ccc(-c3ccc(C(=O)N4CCCNCC4)cc3)cc2)c1)c1ccccc1 (3D coordinates assigned)
O=C([N-]c1cccc(C(=O)Nc2ccc(-c3ccc(C(=O)N4CCCNCC4)cc3)cc2)c1)c1ccccc1 (nonaromatic ring conformer: 102.41782275492872 kcal/mol)

>  <smiles>  (66) 
O=C(Nc1cccc(C(=O)Nc2ccc(-c3ccc(C(=O)N4CCCNCC4)cc3)cc2)c1)c1ccccc1

>  <score_type>  (66) 
oracle

>  <origin>  (66) 
adg

>  <m_score__min__energy>  (66) 
-8.1899999999999995

>  <m_primary>  (66) 
energy

$$$$
66:0
     RDKit          3D

 64 68  0  0  0  0  0  0  0  0999 V2000
   54.9380   26.2370   45.9110 O   0  0  0  0  0  0  0  0  0  0  0  0
   55.8070   25.3340   46.0490 C   0  0  0  0  0  0  0  0  0  0  0  0
   55.5460   24.1340   46.7440 N   0  0  0  0  0  0  0  0  0  0  0  0
   56.7470   23.3200   46.7350 C   0  0  0  0  0  0  0  0  0  0  0  0
   57.7170   23.9810   45.7400 C   0  0  0  0  0  0  0  0  0  0  0  0
   57.1790   25.4100   45.4840 C   0  0  2  0  0  0  0  0  0  0  0  0
   57.9900   26.4990   46.1070 N   0  0  0  0  0  0  0  0  0  0  0  0
   58.6050   27.3660   45.0610 C   0  0  0  0  0  0  0  0  0  0  0  0
   59.9630   27.9790   45.4610 C   0  0  0  0  0  0  0  0  0  0  0  0
   60.0300   28.2450   46.9040 N   0  0  0  0  0  0  0  0  0  0  0  0
   60.7180   29.4180   47.3920 C   0  0  0  0  0  0  0  0  0  0  0  0
   61.4310   30.0980   46.6020 O   0  0  0  0  0  0  0  0  0  0  0  0
   60.6080   29.8330   48.8400 C   0  0  0  0  0  0  0  0  0  0  0  0
   60.6710   31.2920   49.0110 N   0  0  0  0  0  0  0  0  0  0  0  0
   59.4750   31.9810   49.3960 C   0  0  0  0  0  0  0  0  0  0  0  0
   58.5710   31.3720   50.0280 O   0  0  0  0  0  0  0  0  0  0  0  0
   59.3010   33.4220   49.0730 C   0  0  0  0  0  0  0  0  0  0  0  0
   59.4340   33.6170   47.6350 N   0  0  0  0  0  0  0  0  0  0  0  0
   58.2630   33.8960   46.7970 C   0  0  0  0  0  0  0  0  0  0  0  0
   58.1240   32.8560   45.7190 C   0  0  0  0  0  0  0  0  0  0  0  0
   57.9090   31.5090   46.0530 C   0  0  0  0  0  0  0  0  0  0  0  0
   57.7990   30.5440   45.0480 C   0  0  0  0  0  0  0  0  0  0  0  0
   57.9110   30.9140   43.7040 C   0  0  0  0  0  0  0  0  0  0  0  0
   58.1330   32.2510   43.3650 C   0  0  0  0  0  0  0  0  0  0  0  0
   58.2420   33.2200   44.3680 C   0  0  0  0  0  0  0  0  0  0  0  0
   60.7370   33.5830   47.0420 C   0  0  0  0  0  0  0  0  0  0  0  0
   60.8600   33.8550   45.8160 O   0  0  0  0  0  0  0  0  0  0  0  0
   61.9160   33.1200   47.8070 C   0  0  0  0  0  0  0  0  0  0  0  0
   63.1190   33.8300   47.6290 C   0  0  0  0  0  0  0  0  0  0  0  0
   64.2780   33.4610   48.3110 C   0  0  0  0  0  0  0  0  0  0  0  0
   64.2540   32.3840   49.1890 C   0  0  0  0  0  0  0  0  0  0  0  0
   63.0710   31.6750   49.3950 C   0  0  0  0  0  0  0  0  0  0  0  0
   61.8860   32.0210   48.7140 C   0  0  0  0  0  0  0  0  0  0  0  0
   59.5970   27.2050   47.8450 C   0  0  0  0  0  0  0  0  0  0  0  0
   58.9760   26.0150   47.1050 C   0  0  0  0  0  0  0  0  0  0  0  0
   57.1942   23.2918   47.7396 H   0  0  0  0  0  0  0  0  0  0  0  0
   56.5224   22.2838   46.4420 H   0  0  0  0  0  0  0  0  0  0  0  0
   58.7287   24.0272   46.1694 H   0  0  0  0  0  0  0  0  0  0  0  0
   57.7794   23.4062   44.8042 H   0  0  0  0  0  0  0  0  0  0  0  0
   57.2156   25.6813   44.4186 H   0  0  0  0  0  0  0  0  0  0  0  0
   57.3090   27.1030   46.6290 H   0  0  0  0  0  0  0  0  0  0  0  0
   58.7543   26.7597   44.1554 H   0  0  0  0  0  0  0  0  0  0  0  0
   57.9141   28.2074   44.9038 H   0  0  0  0  0  0  0  0  0  0  0  0
   60.7656   27.2776   45.1893 H   0  0  0  0  0  0  0  0  0  0  0  0
   60.0805   28.9343   44.9284 H   0  0  0  0  0  0  0  0  0  0  0  0
   59.6488   29.4716   49.2392 H   0  0  0  0  0  0  0  0  0  0  0  0
   61.4601   29.3948   49.3803 H   0  0  0  0  0  0  0  0  0  0  0  0
   58.3031   33.7525   49.3971 H   0  0  0  0  0  0  0  0  0  0  0  0
   60.0697   34.0103   49.5954 H   0  0  0  0  0  0  0  0  0  0  0  0
   57.3595   33.8894   47.4244 H   0  0  0  0  0  0  0  0  0  0  0  0
   58.3911   34.8813   46.3250 H   0  0  0  0  0  0  0  0  0  0  0  0
   57.8269   31.2124   47.1091 H   0  0  0  0  0  0  0  0  0  0  0  0
   57.6240   29.4913   45.3147 H   0  0  0  0  0  0  0  0  0  0  0  0
   57.8244   30.1530   42.9145 H   0  0  0  0  0  0  0  0  0  0  0  0
   58.2222   32.5421   42.3080 H   0  0  0  0  0  0  0  0  0  0  0  0
   58.4208   34.2711   44.0973 H   0  0  0  0  0  0  0  0  0  0  0  0
   63.1449   34.6885   46.9417 H   0  0  0  0  0  0  0  0  0  0  0  0
   65.2110   34.0222   48.1541 H   0  0  0  0  0  0  0  0  0  0  0  0
   65.1700   32.0902   49.7225 H   0  0  0  0  0  0  0  0  0  0  0  0
   63.0622   30.8314   50.1009 H   0  0  0  0  0  0  0  0  0  0  0  0
   60.4673   26.8559   48.4200 H   0  0  0  0  0  0  0  0  0  0  0  0
   58.8377   27.6344   48.5151 H   0  0  0  0  0  0  0  0  0  0  0  0
   59.7685   25.4514   46.5909 H   0  0  0  0  0  0  0  0  0  0  0  0
   58.4668   25.3634   47.8304 H   0  0  0  0  0  0  0  0  0  0  0  0
  1  2  2  0
  2  3  1  0
  3  4  1  0
  4  5  1  0
  5  6  1  0
  6  7  1  0
  7  8  1  0
  8  9  1  0
  9 10  1  0
 10 11  1  0
 11 12  2  0
 11 13  1  0
 13 14  1  0
 14 15  1  0
 15 16  2  0
 15 17  1  0
 17 18  1  0
 18 19  1  0
 19 20  1  0
 20 21  2  0
 21 22  1  0
 22 23  2  0
 23 24  1  0
 24 25  2  0
 18 26  1  0
 26 27  2  0
 26 28  1  0
 28 29  2  0
 29 30  1  0
 30 31  2  0
 31 32  1  0
 32 33  2  0
 10 34  1  0
 34 35  1  0
  6  2  1  0
 35  7  1  0
 33 14  1  0
 25 20  1  0
 33 28  1  0
  4 36  1  0
  4 37  1  0
  5 38  1  0
  5 39  1  0
  6 40  1  6
  7 41  1  0
  8 42  1  0
  8 43  1  0
  9 44  1  0
  9 45  1  0
 13 46  1  0
 13 47  1  0
 17 48  1  0
 17 49  1  0
 19 50  1  0
 19 51  1  0
 21 52  1  0
 22 53  1  0
 23 54  1  0
 24 55  1  0
 25 56  1  0
 29 57  1  0
 30 58  1  0
 31 59  1  0
 32 60  1  0
 34 61  1  0
 34 62  1  0
 35 63  1  0
 35 64  1  0
M  CHG  2   3  -1   7   1
M  END
>  <UniqueID>  (67) 
63

>  <SMILES>  (67) 
O=C1[N-]CC[C@@H]1[NH+]1CCN(C(=O)CN2C(=O)CN(Cc3ccccc3)C(=O)c3ccccc32)CC1

>  <Energy>  (67) 
109.95250312798365

>  <Genealogy>  (67) 
O=C1[N-]CCC1[NH+]1CCN(C(=O)CN2C(=O)CN(Cc3ccccc3)C(=O)c3ccccc32)CC1 (protonated)
O=C1[N-]CC[C@@H]1[NH+]1CCN(C(=O)CN2C(=O)CN(Cc3ccccc3)C(=O)c3ccccc32)CC1 (chirality)
O=C1[N-]CC[C@@H]1[NH+]1CCN(C(=O)CN2C(=O)CN(Cc3ccccc3)C(=O)c3ccccc32)CC1 (3D coordinates assigned)
O=C1[N-]CC[C@@H]1[NH+]1CCN(C(=O)CN2C(=O)CN(Cc3ccccc3)C(=O)c3ccccc32)CC1 (nonaromatic ring conformer: 109.95250312798365 kcal/mol)

>  <smiles>  (67) 
O=C1NCCC1N1CCN(C(=O)CN2C(=O)CN(Cc3ccccc3)C(=O)c3ccccc32)CC1

>  <score_type>  (67) 
oracle

>  <origin>  (67) 
adg

>  <m_score__min__energy>  (67) 
-8.1699999999999999

>  <m_primary>  (67) 
energy

$$$$
67:0
     RDKit          3D

 62 65  0  0  0  0  0  0  0  0999 V2000
   55.5370   26.8530   46.9420 H   0  0  0  0  0  0  0  0  0  0  0  0
   55.1660   26.6330   46.0270 O   0  0  0  0  0  0  0  0  0  0  0  0
   54.9590   25.3170   45.6210 C   0  0  0  0  0  0  0  0  0  0  0  0
   53.8880   24.5970   45.9880 N   0  0  0  0  0  0  0  0  0  0  0  0
   54.0640   23.4370   45.3220 C   0  0  0  0  0  0  0  0  0  0  0  0
   53.2530   22.4800   45.4020 O   0  0  0  0  0  0  0  0  0  0  0  0
   55.1770   23.3840   44.5620 N   0  0  0  0  0  0  0  0  0  0  0  0
   55.7560   24.5780   44.7720 C   0  0  0  0  0  0  0  0  0  0  0  0
   57.0050   24.9970   44.1140 C   0  0  0  0  0  0  0  0  0  0  0  0
   57.1666   24.6999   43.0673 H   0  0  0  0  0  0  0  0  0  0  0  0
   57.9610   25.7250   44.7250 C   0  0  0  0  0  0  0  0  0  0  0  0
   58.8040   25.2800   45.7300 C   0  0  0  0  0  0  0  0  0  0  0  0
   58.8015   24.2834   46.1955 H   0  0  0  0  0  0  0  0  0  0  0  0
   59.6470   26.3280   46.0340 C   0  0  0  0  0  0  0  0  0  0  0  0
   60.7550   26.2530   47.0410 C   0  0  0  0  0  0  0  0  0  0  0  0
   60.3309   26.2817   48.0556 H   0  0  0  0  0  0  0  0  0  0  0  0
   61.3129   25.3150   46.9032 H   0  0  0  0  0  0  0  0  0  0  0  0
   61.4342   27.1072   46.9032 H   0  0  0  0  0  0  0  0  0  0  0  0
   59.3710   27.4040   45.2590 N   0  0  0  0  0  0  0  0  0  0  0  0
   60.1010   28.6810   45.2970 C   0  0  0  0  0  0  0  0  0  0  0  0
   61.1668   28.4929   45.1006 H   0  0  0  0  0  0  0  0  0  0  0  0
   59.6820   29.3492   44.5302 H   0  0  0  0  0  0  0  0  0  0  0  0
   59.9560   29.3420   46.6450 C   0  0  0  0  0  0  0  0  0  0  0  0
   60.9220   30.2550   47.0960 C   0  0  0  0  0  0  0  0  0  0  0  0
   61.7942   30.4842   46.4661 H   0  0  0  0  0  0  0  0  0  0  0  0
   60.7820   30.8740   48.3400 C   0  0  0  0  0  0  0  0  0  0  0  0
   61.5471   31.5848   48.6855 H   0  0  0  0  0  0  0  0  0  0  0  0
   59.6700   30.5950   49.1540 C   0  0  0  0  0  0  0  0  0  0  0  0
   59.5130   31.2460   50.4310 N   0  0  0  0  0  0  0  0  0  0  0  0
   59.2020   32.6790   50.5060 C   0  0  0  0  0  0  0  0  0  0  0  0
   60.1265   33.2428   50.6994 H   0  0  0  0  0  0  0  0  0  0  0  0
   58.7601   33.0031   49.5522 H   0  0  0  0  0  0  0  0  0  0  0  0
   58.2050   32.9390   51.6350 C   0  0  0  0  0  0  0  0  0  0  0  0
   58.1346   34.0217   51.8164 H   0  0  0  0  0  0  0  0  0  0  0  0
   57.2203   32.5441   51.3446 H   0  0  0  0  0  0  0  0  0  0  0  0
   58.6490   32.2690   52.8620 N   0  0  0  0  0  0  0  0  0  0  0  0
   58.4120   32.8760   54.1420 C   0  0  0  0  0  0  0  0  0  0  0  0
   57.7820   32.2390   55.0300 O   0  0  0  0  0  0  0  0  0  0  0  0
   58.9590   34.2300   54.4630 C   0  0  0  0  0  0  0  0  0  0  0  0
   58.8470   34.8839   53.5856 H   0  0  0  0  0  0  0  0  0  0  0  0
   58.4045   34.6466   55.3168 H   0  0  0  0  0  0  0  0  0  0  0  0
   60.6870   34.1140   54.8940 S   0  0  0  0  0  0  0  0  0  0  0  0
   61.2050   35.4850   55.2180 O   0  0  0  0  0  0  0  0  0  0  0  0
   60.8530   33.2220   56.0960 O   0  0  0  0  0  0  0  0  0  0  0  0
   61.6100   33.4500   53.5210 C   0  0  0  0  0  0  0  0  0  0  0  0
   62.4482   32.8470   53.9001 H   0  0  0  0  0  0  0  0  0  0  0  0
   60.9511   32.8176   52.9079 H   0  0  0  0  0  0  0  0  0  0  0  0
   62.0001   34.2757   52.9079 H   0  0  0  0  0  0  0  0  0  0  0  0
   58.9530   30.8370   52.7870 C   0  0  0  0  0  0  0  0  0  0  0  0
   59.3840   30.5047   53.7429 H   0  0  0  0  0  0  0  0  0  0  0  0
   58.0268   30.2794   52.5841 H   0  0  0  0  0  0  0  0  0  0  0  0
   59.9550   30.5780   51.6610 C   0  0  0  0  0  0  0  0  0  0  0  0
   60.9407   30.9690   51.9536 H   0  0  0  0  0  0  0  0  0  0  0  0
   60.0216   29.4951   51.4794 H   0  0  0  0  0  0  0  0  0  0  0  0
   58.7020   29.6860   48.7000 C   0  0  0  0  0  0  0  0  0  0  0  0
   57.8274   29.4602   49.3277 H   0  0  0  0  0  0  0  0  0  0  0  0
   58.8420   29.0660   47.4560 C   0  0  0  0  0  0  0  0  0  0  0  0
   58.0755   28.3574   47.1091 H   0  0  0  0  0  0  0  0  0  0  0  0
   58.3430   27.0420   44.4440 C   0  0  0  0  0  0  0  0  0  0  0  0
   57.7880   27.8380   43.5140 C   0  0  0  0  0  0  0  0  0  0  0  0
   58.1636   28.8620   43.3715 H   0  0  0  0  0  0  0  0  0  0  0  0
   56.9582   27.4654   42.8954 H   0  0  0  0  0  0  0  0  0  0  0  0
  1  2  1  0
  2  3  1  0
  3  4  1  0
  4  5  1  0
  5  6  2  0
  5  7  1  0
  7  8  1  0
  8  9  1  0
  9 10  1  0
  9 11  2  0
 11 12  1  0
 12 13  1  0
 12 14  2  0
 14 15  1  0
 15 16  1  0
 15 17  1  0
 15 18  1  0
 14 19  1  0
 19 20  1  0
 20 21  1  0
 20 22  1  0
 20 23  1  0
 23 24  2  0
 24 25  1  0
 24 26  1  0
 26 27  1  0
 26 28  2  0
 28 29  1  0
 29 30  1  0
 30 31  1  0
 30 32  1  0
 30 33  1  0
 33 34  1  0
 33 35  1  0
 33 36  1  0
 36 37  1  0
 37 38  2  0
 37 39  1  0
 39 40  1  0
 39 41  1  0
 39 42  1  0
 42 43  2  0
 42 44  2  0
 42 45  1  0
 45 46  1  0
 45 47  1  0
 45 48  1  0
 36 49  1  0
 49 50  1  0
 49 51  1  0
 49 52  1  0
 52 53  1  0
 52 54  1  0
 28 55  1  0
 55 56  1  0
 55 57  2  0
 57 58  1  0
 19 59  1  0
 59 60  2  0
 60 61  1  0
 60 62  1  0
  8  3  2  0
 59 11  1  0
 57 23  1  0
 52 29  1  0
M  CHG  2   4  -1   7  -1
M  END
>  <UniqueID>  (68) 
64

>  <SMILES>  (68) 
C=c1/c(=C/c2[n-]c(=O)[n-]c2O)cc(C)n1Cc1ccc(N2CCN(C(=O)CS(C)(=O)=O)CC2)cc1

>  <Energy>  (68) 
126.00071538633551

>  <Genealogy>  (68) 
C=c1c(=Cc2[n-]c(=O)[n-]c2O)cc(C)n1Cc1ccc(N2CCN(C(=O)CS(C)(=O)=O)CC2)cc1 (protonated)
C=c1/c(=C/c2[n-]c(=O)[n-]c2O)cc(C)n1Cc1ccc(N2CCN(C(=O)CS(C)(=O)=O)CC2)cc1 (cis-trans isomerization)
C=c1/c(=C/c2[n-]c(=O)[n-]c2O)cc(C)n1Cc1ccc(N2CCN(C(=O)CS(C)(=O)=O)CC2)cc1 (3D coordinates assigned)
C=c1/c(=C/c2[n-]c(=O)[n-]c2O)cc(C)n1Cc1ccc(N2CCN(C(=O)CS(C)(=O)=O)CC2)cc1 (nonaromatic ring conformer: 126.00071538633551 kcal/mol)

>  <smiles>  (68) 
C=c1c(=Cc2[nH]c(=O)[nH]c2O)cc(C)n1Cc1ccc(N2CCN(C(=O)CS(C)(=O)=O)CC2)cc1

>  <score_type>  (68) 
oracle

>  <origin>  (68) 
adg

>  <m_score__min__energy>  (68) 
-12.94

>  <m_primary>  (68) 
energy

$$$$
68:0
     RDKit          3D

 38 40  0  0  0  0  0  0  0  0999 V2000
   56.8520   22.2440   43.7190 C   0  0  0  0  0  0  0  0  0  0  0  0
   56.9040   22.4310   45.2330 C   0  0  0  0  0  0  0  0  0  0  0  0
   57.5230   23.7620   45.5950 C   0  0  0  0  0  0  0  0  0  0  0  0
   58.9080   23.9750   45.5610 C   0  0  0  0  0  0  0  0  0  0  0  0
   59.9640   22.9630   45.2410 C   0  0  0  0  0  0  0  0  0  0  0  0
   59.2390   25.5770   45.9330 S   0  0  0  0  0  0  0  0  0  0  0  0
   57.6400   26.0310   46.1480 C   0  0  0  0  0  0  0  0  0  0  0  0
   57.2070   27.3510   46.4910 N   0  0  0  0  0  0  0  0  0  0  0  0
   57.0950   28.4540   45.5800 C   0  0  0  0  0  0  0  0  0  0  0  0
   55.9460   28.8210   45.2200 O   0  0  0  0  0  0  0  0  0  0  0  0
   58.2890   29.2550   45.1030 C   0  0  2  0  0  0  0  0  0  0  0  0
   59.5500   29.0560   45.9970 C   0  0  0  0  0  0  0  0  0  0  0  0
   60.0800   30.4620   46.3870 C   0  0  0  0  0  0  0  0  0  0  0  0
   59.0510   31.3530   45.8260 C   0  0  0  0  0  0  0  0  0  0  0  0
   58.7800   33.0060   45.8490 S   0  0  0  0  0  0  0  0  0  0  0  0
   57.3650   32.9020   44.9100 C   0  0  0  0  0  0  0  0  0  0  0  0
   57.1200   31.5650   44.5860 C   0  0  0  0  0  0  0  0  0  0  0  0
   58.0860   30.7230   45.1350 C   0  0  0  0  0  0  0  0  0  0  0  0
   56.7950   24.9440   45.9080 C   0  0  0  0  0  0  0  0  0  0  0  0
   55.3180   25.0640   45.9950 C   0  0  0  0  0  0  0  0  0  0  0  0
   54.6720   26.3320   45.9380 N   0  0  0  0  0  0  0  0  0  0  0  0
   54.6090   24.0270   46.0950 O   0  0  0  0  0  0  0  0  0  0  0  0
   56.5639   21.2080   43.4872 H   0  0  0  0  0  0  0  0  0  0  0  0
   56.1120   22.9352   43.2894 H   0  0  0  0  0  0  0  0  0  0  0  0
   57.8426   22.4540   43.2894 H   0  0  0  0  0  0  0  0  0  0  0  0
   55.8812   22.3888   45.6357 H   0  0  0  0  0  0  0  0  0  0  0  0
   57.5219   21.6292   45.6635 H   0  0  0  0  0  0  0  0  0  0  0  0
   60.3826   22.5618   46.1758 H   0  0  0  0  0  0  0  0  0  0  0  0
   59.5212   22.1434   44.6561 H   0  0  0  0  0  0  0  0  0  0  0  0
   60.7640   23.4403   44.6561 H   0  0  0  0  0  0  0  0  0  0  0  0
   58.4197   28.8788   44.0776 H   0  0  0  0  0  0  0  0  0  0  0  0
   59.2817   28.4924   46.9028 H   0  0  0  0  0  0  0  0  0  0  0  0
   60.3217   28.4909   45.4537 H   0  0  0  0  0  0  0  0  0  0  0  0
   60.1498   30.5724   47.4792 H   0  0  0  0  0  0  0  0  0  0  0  0
   61.0934   30.6696   46.0129 H   0  0  0  0  0  0  0  0  0  0  0  0
   56.7403   33.7546   44.6054 H   0  0  0  0  0  0  0  0  0  0  0  0
   56.2724   31.2206   43.9752 H   0  0  0  0  0  0  0  0  0  0  0  0
   55.1130   27.1800   46.3580 H   0  0  0  0  0  0  0  0  0  0  0  0
  1  2  1  0
  2  3  1  0
  3  4  2  0
  4  5  1  0
  4  6  1  0
  6  7  1  0
  7  8  1  0
  8  9  1  0
  9 10  2  0
  9 11  1  0
 11 12  1  0
 12 13  1  0
 13 14  1  0
 14 15  1  0
 15 16  1  0
 16 17  2  0
 17 18  1  0
  7 19  2  0
 19 20  1  0
 20 21  1  0
 20 22  2  0
 19  3  1  0
 18 11  1  0
 18 14  2  0
  1 23  1  0
  1 24  1  0
  1 25  1  0
  2 26  1  0
  2 27  1  0
  5 28  1  0
  5 29  1  0
  5 30  1  0
 11 31  1  6
 12 32  1  0
 12 33  1  0
 13 34  1  0
 13 35  1  0
 16 36  1  0
 17 37  1  0
 21 38  1  0
M  CHG  2   8  -1  21  -1
M  END
>  <UniqueID>  (69) 
65

>  <SMILES>  (69) 
CCc1c(C)sc([N-]C(=O)[C@@H]2CCc3sccc32)c1C([NH-])=O

>  <Energy>  (69) 
112.7772212064973

>  <Genealogy>  (69) 
CCc1c(C)sc([N-]C(=O)C2CCc3sccc32)c1C([NH-])=O (protonated)
CCc1c(C)sc([N-]C(=O)[C@@H]2CCc3sccc32)c1C([NH-])=O (chirality)
CCc1c(C)sc([N-]C(=O)[C@@H]2CCc3sccc32)c1C([NH-])=O (3D coordinates assigned)
CCc1c(C)sc([N-]C(=O)[C@@H]2CCc3sccc32)c1C([NH-])=O (nonaromatic ring conformer: 112.7772212064973 kcal/mol)

>  <smiles>  (69) 
CCc1c(C)sc(NC(=O)C2CCc3sccc32)c1C(N)=O

>  <score_type>  (69) 
oracle

>  <origin>  (69) 
adg

>  <m_score__min__energy>  (69) 
-12.56

>  <m_primary>  (69) 
energy

$$$$
69:0
     RDKit          3D

 67 72  0  0  0  0  0  0  0  0999 V2000
   54.0450   25.2240   46.3600 H   0  0  0  0  0  0  0  0  0  0  0  0
   55.0000   24.9170   46.2230 O   0  0  0  0  0  0  0  0  0  0  0  0
   55.5430   23.9110   47.0200 C   0  0  0  0  0  0  0  0  0  0  0  0
   54.8920   23.3330   48.0440 N   0  0  0  0  0  0  0  0  0  0  0  0
   55.8260   22.5060   48.5580 C   0  0  0  0  0  0  0  0  0  0  0  0
   55.6050   21.7710   49.5580 O   0  0  0  0  0  0  0  0  0  0  0  0
   57.0200   22.5380   47.9270 N   0  0  0  0  0  0  0  0  0  0  0  0
   56.8210   23.4030   46.9190 C   0  0  0  0  0  0  0  0  0  0  0  0
   57.8950   23.8860   46.0400 C   0  0  0  0  0  0  0  0  0  0  0  0
   58.7719   23.2332   45.9183 H   0  0  0  0  0  0  0  0  0  0  0  0
   57.9050   25.0550   45.3690 C   0  0  0  0  0  0  0  0  0  0  0  0
   57.8260   25.1200   43.9870 C   0  0  0  0  0  0  0  0  0  0  0  0
   57.7077   24.2715   43.2970 H   0  0  0  0  0  0  0  0  0  0  0  0
   57.9240   26.4510   43.6420 C   0  0  0  0  0  0  0  0  0  0  0  0
   57.8280   26.9810   42.2440 C   0  0  0  0  0  0  0  0  0  0  0  0
   57.6320   28.0630   42.2747 H   0  0  0  0  0  0  0  0  0  0  0  0
   58.7745   26.7947   41.7154 H   0  0  0  0  0  0  0  0  0  0  0  0
   57.0070   26.4745   41.7154 H   0  0  0  0  0  0  0  0  0  0  0  0
   58.0280   27.2160   44.7520 N   0  0  0  0  0  0  0  0  0  0  0  0
   58.0370   28.6550   44.7640 C   0  0  0  0  0  0  0  0  0  0  0  0
   59.1350   29.3500   45.2910 C   0  0  0  0  0  0  0  0  0  0  0  0
   60.0194   28.7962   45.6390 H   0  0  0  0  0  0  0  0  0  0  0  0
   59.1080   30.7440   45.3750 C   0  0  0  0  0  0  0  0  0  0  0  0
   59.9748   31.2821   45.7863 H   0  0  0  0  0  0  0  0  0  0  0  0
   57.9840   31.4650   44.9390 C   0  0  0  0  0  0  0  0  0  0  0  0
   57.9250   32.8920   45.1280 N   0  0  0  0  0  0  0  0  0  0  0  0
   58.8500   33.7560   44.3730 C   0  0  0  0  0  0  0  0  0  0  0  0
   59.7344   33.1704   44.0817 H   0  0  0  0  0  0  0  0  0  0  0  0
   58.3311   34.1340   43.4798 H   0  0  0  0  0  0  0  0  0  0  0  0
   59.2960   34.9510   45.2270 C   0  0  0  0  0  0  0  0  0  0  0  0
   60.2778   35.3059   44.8805 H   0  0  0  0  0  0  0  0  0  0  0  0
   58.5641   35.7670   45.1353 H   0  0  0  0  0  0  0  0  0  0  0  0
   59.3930   34.5260   46.6320 N   0  0  0  0  0  0  0  0  0  0  0  0
   60.6910   34.3070   47.2400 C   0  0  0  0  0  0  0  0  0  0  0  0
   61.7180   34.2430   46.5070 O   0  0  0  0  0  0  0  0  0  0  0  0
   60.8280   34.0330   48.7270 C   0  0  2  0  0  0  0  0  0  0  0  0
   59.9841   34.5565   49.2001 H   0  0  0  0  0  0  0  0  0  0  0  0
   62.1620   34.5660   49.3210 C   0  0  0  0  0  0  0  0  0  0  0  0
   62.7473   35.0952   48.5546 H   0  0  0  0  0  0  0  0  0  0  0  0
   62.0038   35.2881   50.1355 H   0  0  0  0  0  0  0  0  0  0  0  0
   62.8680   33.3440   49.7720 C   0  0  0  0  0  0  0  0  0  0  0  0
   64.1530   33.2720   50.3180 C   0  0  0  0  0  0  0  0  0  0  0  0
   64.7555   34.1823   50.4531 H   0  0  0  0  0  0  0  0  0  0  0  0
   64.6610   32.0170   50.6910 C   0  0  0  0  0  0  0  0  0  0  0  0
   65.6724   31.9394   51.1166 H   0  0  0  0  0  0  0  0  0  0  0  0
   63.8800   30.8580   50.5220 C   0  0  0  0  0  0  0  0  0  0  0  0
   64.2816   29.8768   50.8153 H   0  0  0  0  0  0  0  0  0  0  0  0
   62.5880   30.9540   49.9790 C   0  0  0  0  0  0  0  0  0  0  0  0
   61.8310   29.8410   49.8070 F   0  0  0  0  0  0  0  0  0  0  0  0
   62.1070   32.2120   49.6040 C   0  0  0  0  0  0  0  0  0  0  0  0
   60.7860   32.5100   49.0090 C   0  0  0  0  0  0  0  0  0  0  0  0
   60.6423   31.9448   48.0763 H   0  0  0  0  0  0  0  0  0  0  0  0
   59.9537   32.2279   49.6706 H   0  0  0  0  0  0  0  0  0  0  0  0
   58.1550   34.0560   47.2830 C   0  0  0  0  0  0  0  0  0  0  0  0
   58.4063   33.2705   48.0109 H   0  0  0  0  0  0  0  0  0  0  0  0
   57.6773   34.9082   47.7884 H   0  0  0  0  0  0  0  0  0  0  0  0
   57.1740   33.4860   46.2450 C   0  0  0  0  0  0  0  0  0  0  0  0
   56.5494   32.7137   46.7175 H   0  0  0  0  0  0  0  0  0  0  0  0
   56.5344   34.2960   45.8645 H   0  0  0  0  0  0  0  0  0  0  0  0
   56.8900   30.7620   44.4030 C   0  0  0  0  0  0  0  0  0  0  0  0
   56.0058   31.3138   44.0513 H   0  0  0  0  0  0  0  0  0  0  0  0
   56.9180   29.3680   44.3140 C   0  0  0  0  0  0  0  0  0  0  0  0
   56.0587   28.8285   43.8892 H   0  0  0  0  0  0  0  0  0  0  0  0
   57.9890   26.3820   45.8220 C   0  0  0  0  0  0  0  0  0  0  0  0
   57.9320   26.8150   47.0910 C   0  0  0  0  0  0  0  0  0  0  0  0
   58.0113   27.8902   47.3093 H   0  0  0  0  0  0  0  0  0  0  0  0
   57.8060   26.0947   47.9128 H   0  0  0  0  0  0  0  0  0  0  0  0
  1  2  1  0
  2  3  1  0
  3  4  1  0
  4  5  1  0
  5  6  2  0
  5  7  1  0
  7  8  1  0
  8  9  1  0
  9 10  1  0
  9 11  2  0
 11 12  1  0
 12 13  1  0
 12 14  2  0
 14 15  1  0
 15 16  1  0
 15 17  1  0
 15 18  1  0
 14 19  1  0
 19 20  1  0
 20 21  2  0
 21 22  1  0
 21 23  1  0
 23 24  1  0
 23 25  2  0
 25 26  1  0
 26 27  1  0
 27 28  1  0
 27 29  1  0
 27 30  1  0
 30 31  1  0
 30 32  1  0
 30 33  1  0
 33 34  1  0
 34 35  2  0
 34 36  1  0
 36 37  1  1
 36 38  1  0
 38 39  1  0
 38 40  1  0
 38 41  1  0
 41 42  2  0
 42 43  1  0
 42 44  1  0
 44 45  1  0
 44 46  2  0
 46 47  1  0
 46 48  1  0
 48 49  1  0
 48 50  2  0
 50 51  1  0
 51 52  1  0
 51 53  1  0
 33 54  1  0
 54 55  1  0
 54 56  1  0
 54 57  1  0
 57 58  1  0
 57 59  1  0
 25 60  1  0
 60 61  1  0
 60 62  2  0
 62 63  1  0
 19 64  1  0
 64 65  2  0
 65 66  1  0
 65 67  1  0
  8  3  2  0
 64 11  1  0
 62 20  1  0
 57 26  1  0
 51 36  1  0
 50 41  1  0
M  CHG  2   4  -1   7  -1
M  END
>  <UniqueID>  (70) 
66

>  <SMILES>  (70) 
C=c1/c(=C\c2[n-]c(=O)[n-]c2O)cc(C)n1-c1ccc(N2CCN(C(=O)[C@@H]3Cc4cccc(F)c4C3)CC2)cc1

>  <Energy>  (70) 
167.01038706789504

>  <Genealogy>  (70) 
C=c1c(=Cc2[n-]c(=O)[n-]c2O)cc(C)n1-c1ccc(N2CCN(C(=O)C3Cc4cccc(F)c4C3)CC2)cc1 (protonated)
C=c1c(=Cc2[n-]c(=O)[n-]c2O)cc(C)n1-c1ccc(N2CCN(C(=O)[C@@H]3Cc4cccc(F)c4C3)CC2)cc1 (chirality)
C=c1/c(=C\c2[n-]c(=O)[n-]c2O)cc(C)n1-c1ccc(N2CCN(C(=O)[C@@H]3Cc4cccc(F)c4C3)CC2)cc1 (cis-trans isomerization)
C=c1/c(=C\c2[n-]c(=O)[n-]c2O)cc(C)n1-c1ccc(N2CCN(C(=O)[C@@H]3Cc4cccc(F)c4C3)CC2)cc1 (3D coordinates assigned)
C=c1/c(=C\c2[n-]c(=O)[n-]c2O)cc(C)n1-c1ccc(N2CCN(C(=O)[C@@H]3Cc4cccc(F)c4C3)CC2)cc1 (nonaromatic ring conformer: 167.01038706789504 kcal/mol)

>  <smiles>  (70) 
C=c1c(=Cc2[nH]c(=O)[nH]c2O)cc(C)n1-c1ccc(N2CCN(C(=O)C3Cc4cccc(F)c4C3)CC2)cc1

>  <score_type>  (70) 
oracle

>  <origin>  (70) 
adg

>  <m_score__min__energy>  (70) 
-14.07

>  <m_primary>  (70) 
energy

$$$$
70:0
     RDKit          3D

 47 49  0  0  0  0  0  0  0  0999 V2000
   59.2264   29.2666   49.2347 H   0  0  0  0  0  0  0  0  0  0  0  0
   58.8330   29.1950   48.2100 C   0  0  0  0  0  0  0  0  0  0  0  0
   58.4518   28.2345   47.8331 H   0  0  0  0  0  0  0  0  0  0  0  0
   58.8180   30.2900   47.4120 C   0  0  0  0  0  0  0  0  0  0  0  0
   58.3110   30.2200   46.0760 C   0  0  0  0  0  0  0  0  0  0  0  0
   58.3680   29.0520   45.3690 C   0  0  0  0  0  0  0  0  0  0  0  0
   59.0245   29.0308   44.4866 H   0  0  0  0  0  0  0  0  0  0  0  0
   57.6210   27.8090   45.6880 C   0  0  0  0  0  0  0  0  0  0  0  0
   56.2200   27.8000   45.6250 C   0  0  0  0  0  0  0  0  0  0  0  0
   55.5220   28.9370   45.2330 O   0  0  0  0  0  0  0  0  0  0  0  0
   55.5320   26.6710   45.9350 N   0  0  0  0  0  0  0  0  0  0  0  0
   56.1770   25.5430   46.3250 C   0  0  0  0  0  0  0  0  0  0  0  0
   55.5190   24.5070   46.6000 O   0  0  0  0  0  0  0  0  0  0  0  0
   57.5300   25.5320   46.4240 N   0  0  0  0  0  0  0  0  0  0  0  0
   58.2650   26.6360   46.1290 C   0  0  0  0  0  0  0  0  0  0  0  0
   59.5160   26.5980   46.2710 O   0  0  0  0  0  0  0  0  0  0  0  0
   57.8530   31.4310   45.4880 C   0  0  0  0  0  0  0  0  0  0  0  0
   56.6610   31.4380   44.5260 C   0  0  0  0  0  0  0  0  0  0  0  0
   55.8547   30.8266   44.9574 H   0  0  0  0  0  0  0  0  0  0  0  0
   56.3443   32.4826   44.3902 H   0  0  0  0  0  0  0  0  0  0  0  0
   57.0240   30.8730   43.1430 C   0  0  0  0  0  0  0  0  0  0  0  0
   57.7858   30.0890   43.2657 H   0  0  0  0  0  0  0  0  0  0  0  0
   56.1109   30.4631   42.6867 H   0  0  0  0  0  0  0  0  0  0  0  0
   57.5640   31.9400   42.2390 C   0  0  0  0  0  0  0  0  0  0  0  0
   58.4630   32.7210   42.6480 O   0  0  0  0  0  0  0  0  0  0  0  0
   57.0390   32.1010   40.9640 O   0  0  0  0  0  0  0  0  0  0  0  0
   58.3520   32.6560   45.9820 C   0  0  0  0  0  0  0  0  0  0  0  0
   58.1250   33.9280   45.2470 C   0  0  0  0  0  0  0  0  0  0  0  0
   56.9520   34.2620   44.9290 O   0  0  0  0  0  0  0  0  0  0  0  0
   59.2640   34.8060   44.8320 C   0  0  0  0  0  0  0  0  0  0  0  0
   59.7707   35.1966   45.7268 H   0  0  0  0  0  0  0  0  0  0  0  0
   59.9775   34.2220   44.2321 H   0  0  0  0  0  0  0  0  0  0  0  0
   58.8808   35.6446   44.2321 H   0  0  0  0  0  0  0  0  0  0  0  0
   59.0950   32.6580   47.1730 C   0  0  0  0  0  0  0  0  0  0  0  0
   59.6070   33.7380   47.5840 O   0  0  0  0  0  0  0  0  0  0  0  0
   59.2560   31.5080   47.8990 N   0  0  0  0  0  0  0  0  0  0  0  0
   59.9390   31.6100   49.1690 C   0  0  0  0  0  0  0  0  0  0  0  0
   59.2450   32.0410   50.3110 C   0  0  0  0  0  0  0  0  0  0  0  0
   58.1774   32.2964   50.2410 H   0  0  0  0  0  0  0  0  0  0  0  0
   59.9090   32.1460   51.5370 C   0  0  0  0  0  0  0  0  0  0  0  0
   59.3631   32.4839   52.4302 H   0  0  0  0  0  0  0  0  0  0  0  0
   61.2660   31.8220   51.6290 C   0  0  0  0  0  0  0  0  0  0  0  0
   61.7861   31.9023   52.5949 H   0  0  0  0  0  0  0  0  0  0  0  0
   61.9620   31.3960   50.4940 C   0  0  0  0  0  0  0  0  0  0  0  0
   63.0300   31.1430   50.5673 H   0  0  0  0  0  0  0  0  0  0  0  0
   61.3020   31.2910   49.2650 C   0  0  0  0  0  0  0  0  0  0  0  0
   61.8523   30.9579   48.3727 H   0  0  0  0  0  0  0  0  0  0  0  0
  1  2  1  0
  2  3  1  0
  2  4  2  0
  4  5  1  0
  5  6  2  0
  6  7  1  0
  6  8  1  0
  8  9  2  0
  9 10  1  0
  9 11  1  0
 11 12  1  0
 12 13  2  0
 12 14  1  0
 14 15  1  0
 15 16  2  0
  5 17  1  0
 17 18  1  0
 18 19  1  0
 18 20  1  0
 18 21  1  0
 21 22  1  0
 21 23  1  0
 21 24  1  0
 24 25  2  0
 24 26  1  0
 17 27  2  0
 27 28  1  0
 28 29  2  0
 28 30  1  0
 30 31  1  0
 30 32  1  0
 30 33  1  0
 27 34  1  0
 34 35  2  0
 34 36  1  0
 36 37  1  0
 37 38  2  0
 38 39  1  0
 38 40  1  0
 40 41  1  0
 40 42  2  0
 42 43  1  0
 42 44  1  0
 44 45  1  0
 44 46  2  0
 46 47  1  0
 36  4  1  0
 46 37  1  0
 15  8  1  0
M  CHG  4  10  -1  11  -1  14  -1  26  -1
M  END
>  <UniqueID>  (71) 
67

>  <SMILES>  (71) 
C=c1/c(=C/c2c([O-])[n-]c(=O)[n-]c2=O)c(CCC(=O)[O-])c(C(C)=O)c(=O)n1-c1ccccc1

>  <Energy>  (71) 
102.62612546592662

>  <Genealogy>  (71) 
C=c1c(=Cc2c([O-])[n-]c(=O)[n-]c2=O)c(CCC(=O)[O-])c(C(C)=O)c(=O)n1-c1ccccc1 (protonated)
C=c1/c(=C/c2c([O-])[n-]c(=O)[n-]c2=O)c(CCC(=O)[O-])c(C(C)=O)c(=O)n1-c1ccccc1 (cis-trans isomerization)
C=c1/c(=C/c2c([O-])[n-]c(=O)[n-]c2=O)c(CCC(=O)[O-])c(C(C)=O)c(=O)n1-c1ccccc1 (3D coordinates assigned)
C=c1/c(=C/c2c([O-])[n-]c(=O)[n-]c2=O)c(CCC(=O)[O-])c(C(C)=O)c(=O)n1-c1ccccc1 (optimized conformer: 102.62612546592662 kcal/mol)

>  <smiles>  (71) 
C=c1c(=Cc2c(O)[nH]c(=O)[nH]c2=O)c(CCC(=O)O)c(C(C)=O)c(=O)n1-c1ccccc1

>  <score_type>  (71) 
oracle

>  <origin>  (71) 
adg

>  <m_score__min__energy>  (71) 
-16.280000000000001

>  <m_primary>  (71) 
energy

$$$$
71:0
     RDKit          3D

 38 40  0  0  0  0  0  0  0  0999 V2000
   60.1450   29.6700   49.3980 C   0  0  0  0  0  0  0  0  0  0  0  0
   60.5170   30.7120   48.3910 C   0  0  0  0  0  0  0  0  0  0  0  0
   61.5770   31.3700   48.5730 O   0  0  0  0  0  0  0  0  0  0  0  0
   59.6920   31.0020   47.1940 C   0  0  0  0  0  0  0  0  0  0  0  0
   59.2040   30.0270   46.3250 C   0  0  0  0  0  0  0  0  0  0  0  0
   58.4850   30.5930   45.3290 N   0  0  0  0  0  0  0  0  0  0  0  0
   57.7720   29.8700   44.2710 C   0  0  0  0  0  0  0  0  0  0  0  0
   56.3770   29.4980   44.7000 C   0  0  0  0  0  0  0  0  0  0  0  0
   55.4370   30.3320   44.5940 O   0  0  0  0  0  0  0  0  0  0  0  0
   56.0900   28.2060   45.2400 N   0  0  0  0  0  0  0  0  0  0  0  0
   56.9960   27.4660   46.1110 C   0  0  0  0  0  0  0  0  0  0  0  0
   57.1100   26.0220   45.6250 C   0  0  0  0  0  0  0  0  0  0  0  0
   55.7630   25.3670   45.5930 C   0  0  0  0  0  0  0  0  0  0  0  0
   54.6220   25.9960   45.9390 N   0  0  0  0  0  0  0  0  0  0  0  0
   53.6530   25.1020   45.8370 N   0  0  0  0  0  0  0  0  0  0  0  0
   54.2400   23.9600   45.4410 C   0  0  0  0  0  0  0  0  0  0  0  0
   53.6060   22.8890   45.2470 O   0  0  0  0  0  0  0  0  0  0  0  0
   55.5710   24.0700   45.2760 N   0  0  0  0  0  0  0  0  0  0  0  0
   58.4910   31.9220   45.5610 C   0  0  0  0  0  0  0  0  0  0  0  0
   57.8510   32.9180   44.8170 C   0  0  0  0  0  0  0  0  0  0  0  0
   57.9720   34.2480   45.2520 C   0  0  0  0  0  0  0  0  0  0  0  0
   58.7120   34.5560   46.4110 C   0  0  0  0  0  0  0  0  0  0  0  0
   59.3410   33.5370   47.1480 C   0  0  0  0  0  0  0  0  0  0  0  0
   59.2200   32.2170   46.6950 C   0  0  0  0  0  0  0  0  0  0  0  0
   60.2885   30.0720   50.4118 H   0  0  0  0  0  0  0  0  0  0  0  0
   59.0906   29.3879   49.2613 H   0  0  0  0  0  0  0  0  0  0  0  0
   60.7823   28.7839   49.2613 H   0  0  0  0  0  0  0  0  0  0  0  0
   59.3795   28.9466   46.4343 H   0  0  0  0  0  0  0  0  0  0  0  0
   57.7127   30.5099   43.3783 H   0  0  0  0  0  0  0  0  0  0  0  0
   58.3245   28.9441   44.0532 H   0  0  0  0  0  0  0  0  0  0  0  0
   57.9893   27.9381   46.0917 H   0  0  0  0  0  0  0  0  0  0  0  0
   56.6034   27.4754   47.1385 H   0  0  0  0  0  0  0  0  0  0  0  0
   57.5395   26.0145   44.6123 H   0  0  0  0  0  0  0  0  0  0  0  0
   57.7580   25.4653   46.3180 H   0  0  0  0  0  0  0  0  0  0  0  0
   57.2698   32.6673   43.9174 H   0  0  0  0  0  0  0  0  0  0  0  0
   57.4857   35.0548   44.6840 H   0  0  0  0  0  0  0  0  0  0  0  0
   58.7982   35.6016   46.7417 H   0  0  0  0  0  0  0  0  0  0  0  0
   59.9138   33.7706   48.0576 H   0  0  0  0  0  0  0  0  0  0  0  0
  1  2  1  0
  2  3  2  0
  2  4  1  0
  4  5  2  0
  5  6  1  0
  6  7  1  0
  7  8  1  0
  8  9  2  0
  8 10  1  0
 10 11  1  0
 11 12  1  0
 12 13  1  0
 13 14  2  0
 14 15  1  0
 15 16  1  0
 16 17  2  0
 16 18  1  0
  6 19  1  0
 19 20  2  0
 20 21  1  0
 21 22  2  0
 22 23  1  0
 23 24  2  0
 24  4  1  0
 18 13  1  0
 24 19  1  0
  1 25  1  0
  1 26  1  0
  1 27  1  0
  5 28  1  0
  7 29  1  0
  7 30  1  0
 11 31  1  0
 11 32  1  0
 12 33  1  0
 12 34  1  0
 20 35  1  0
 21 36  1  0
 22 37  1  0
 23 38  1  0
M  CHG  3  10  -1  15  -1  18  -1
M  END
>  <UniqueID>  (72) 
68

>  <SMILES>  (72) 
CC(=O)c1cn(CC(=O)[N-]CCc2n[n-]c(=O)[n-]2)c2ccccc12

>  <Energy>  (72) 
101.24449923353241

>  <Genealogy>  (72) 
CC(=O)c1cn(CC(=O)[N-]CCc2n[n-]c(=O)[n-]2)c2ccccc12 (protonated)
CC(=O)c1cn(CC(=O)[N-]CCc2n[n-]c(=O)[n-]2)c2ccccc12 (3D coordinates assigned)
CC(=O)c1cn(CC(=O)[N-]CCc2n[n-]c(=O)[n-]2)c2ccccc12 (optimized conformer: 101.24449923353241 kcal/mol)

>  <smiles>  (72) 
CC(=O)c1cn(CC(=O)NCCc2n[nH]c(=O)[nH]2)c2ccccc12

>  <score_type>  (72) 
oracle

>  <origin>  (72) 
adg

>  <m_score__min__energy>  (72) 
-13.56

>  <m_primary>  (72) 
energy

$$$$
72:0
     RDKit          3D

 49 52  0  0  0  0  0  0  0  0999 V2000
   60.4540   28.8240   49.9040 C   0  0  0  0  0  0  0  0  0  0  0  0
   59.5750   29.5310   48.5290 S   0  0  0  0  0  0  0  0  0  0  0  0
   60.4870   29.6250   47.3380 O   0  0  0  0  0  0  0  0  0  0  0  0
   58.4210   28.6360   48.1790 O   0  0  0  0  0  0  0  0  0  0  0  0
   58.9540   31.1050   48.9110 N   0  0  0  0  0  0  0  0  0  0  0  0
   58.8450   32.1670   47.9590 C   0  0  0  0  0  0  0  0  0  0  0  0
   59.3760   33.4240   48.2800 C   0  0  0  0  0  0  0  0  0  0  0  0
   59.2330   34.4950   47.3930 C   0  0  0  0  0  0  0  0  0  0  0  0
   58.5790   34.3080   46.1710 C   0  0  0  0  0  0  0  0  0  0  0  0
   58.0740   33.0480   45.8170 C   0  0  0  0  0  0  0  0  0  0  0  0
   57.4980   32.8900   44.5090 N   0  0  0  0  0  0  0  0  0  0  0  0
   57.4090   31.7050   43.7060 C   0  0  0  0  0  0  0  0  0  0  0  0
   57.0090   31.8200   42.5150 O   0  0  0  0  0  0  0  0  0  0  0  0
   57.7220   30.3540   44.2280 C   0  0  0  0  0  0  0  0  0  0  0  0
   59.0320   29.8520   44.2010 C   0  0  0  0  0  0  0  0  0  0  0  0
   59.3040   28.5660   44.6720 C   0  0  0  0  0  0  0  0  0  0  0  0
   58.2760   27.7680   45.1830 C   0  0  0  0  0  0  0  0  0  0  0  0
   56.9570   28.2650   45.2200 C   0  0  0  0  0  0  0  0  0  0  0  0
   56.6940   29.5580   44.7610 C   0  0  0  0  0  0  0  0  0  0  0  0
   55.8600   27.4310   45.6220 N   0  0  0  0  0  0  0  0  0  0  0  0
   55.9470   26.0040   45.6150 C   0  0  0  0  0  0  0  0  0  0  0  0
   54.9410   25.3130   45.9260 O   0  0  0  0  0  0  0  0  0  0  0  0
   57.2230   25.3710   45.2560 C   0  0  0  0  0  0  0  0  0  0  0  0
   57.3460   24.2520   44.5250 C   0  0  0  0  0  0  0  0  0  0  0  0
   57.1200   22.8750   45.0240 C   0  0  0  0  0  0  0  0  0  0  0  0
   56.6220   21.9040   44.1390 C   0  0  0  0  0  0  0  0  0  0  0  0
   56.3690   20.6050   44.5870 C   0  0  0  0  0  0  0  0  0  0  0  0
   56.5870   20.2690   45.9260 C   0  0  0  0  0  0  0  0  0  0  0  0
   57.0450   21.2360   46.8280 C   0  0  0  0  0  0  0  0  0  0  0  0
   57.2250   20.8970   48.1670 O   0  0  0  0  0  0  0  0  0  0  0  0
   57.3070   22.5380   46.3790 C   0  0  0  0  0  0  0  0  0  0  0  0
   58.6820   26.1730   45.9100 S   0  0  0  0  0  0  0  0  0  0  0  0
   58.2280   31.9710   46.7100 C   0  0  0  0  0  0  0  0  0  0  0  0
   60.0104   29.1808   50.8453 H   0  0  0  0  0  0  0  0  0  0  0  0
   60.3847   27.7271   49.8586 H   0  0  0  0  0  0  0  0  0  0  0  0
   61.5105   29.1268   49.8586 H   0  0  0  0  0  0  0  0  0  0  0  0
   59.9068   33.5681   49.2326 H   0  0  0  0  0  0  0  0  0  0  0  0
   59.6348   35.4846   47.6561 H   0  0  0  0  0  0  0  0  0  0  0  0
   58.4595   35.1565   45.4813 H   0  0  0  0  0  0  0  0  0  0  0  0
   59.8487   30.4746   43.8068 H   0  0  0  0  0  0  0  0  0  0  0  0
   60.3330   28.1785   44.6408 H   0  0  0  0  0  0  0  0  0  0  0  0
   55.6706   29.9575   44.8175 H   0  0  0  0  0  0  0  0  0  0  0  0
   57.6381   24.3663   43.4707 H   0  0  0  0  0  0  0  0  0  0  0  0
   56.4304   22.1677   43.0884 H   0  0  0  0  0  0  0  0  0  0  0  0
   55.9973   19.8449   43.8841 H   0  0  0  0  0  0  0  0  0  0  0  0
   56.3981   19.2420   46.2717 H   0  0  0  0  0  0  0  0  0  0  0  0
   56.7920   20.0740   48.5670 H   0  0  0  0  0  0  0  0  0  0  0  0
   57.6605   23.3006   47.0886 H   0  0  0  0  0  0  0  0  0  0  0  0
   57.8642   30.9714   46.4300 H   0  0  0  0  0  0  0  0  0  0  0  0
  1  2  1  0
  2  3  2  0
  2  4  2  0
  2  5  1  0
  5  6  1  0
  6  7  2  0
  7  8  1  0
  8  9  2  0
  9 10  1  0
 10 11  1  0
 11 12  1  0
 12 13  2  0
 12 14  1  0
 14 15  2  0
 15 16  1  0
 16 17  2  0
 17 18  1  0
 18 19  2  0
 18 20  1  0
 20 21  1  0
 21 22  2  0
 21 23  1  0
 23 24  2  3
 24 25  1  0
 25 26  2  0
 26 27  1  0
 27 28  2  0
 28 29  1  0
 29 30  1  0
 29 31  2  0
 23 32  1  0
 10 33  2  0
 33  6  1  0
 19 14  1  0
 31 25  1  0
 32 17  1  0
  1 34  1  0
  1 35  1  0
  1 36  1  0
  7 37  1  0
  8 38  1  0
  9 39  1  0
 15 40  1  0
 16 41  1  0
 19 42  1  0
 24 43  1  0
 26 44  1  0
 27 45  1  0
 28 46  1  0
 30 47  1  0
 31 48  1  0
 33 49  1  0
M  CHG  3   5  -1  11  -1  20  -1
M  END
>  <UniqueID>  (73) 
69

>  <SMILES>  (73) 
CS(=O)(=O)[N-]c1cccc([N-]C(=O)c2ccc3c(c2)[N-]C(=O)C(=Cc2cccc(O)c2)S3)c1

>  <Energy>  (73) 
76.00242620467188

>  <Genealogy>  (73) 
CS(=O)(=O)[N-]c1cccc([N-]C(=O)c2ccc3c(c2)[N-]C(=O)C(=Cc2cccc(O)c2)S3)c1 (protonated)
CS(=O)(=O)[N-]c1cccc([N-]C(=O)c2ccc3c(c2)[N-]C(=O)C(=Cc2cccc(O)c2)S3)c1 (3D coordinates assigned)
CS(=O)(=O)[N-]c1cccc([N-]C(=O)c2ccc3c(c2)[N-]C(=O)C(=Cc2cccc(O)c2)S3)c1 (nonaromatic ring conformer: 76.00242620467188 kcal/mol)

>  <smiles>  (73) 
CS(=O)(=O)Nc1cccc(NC(=O)c2ccc3c(c2)NC(=O)C(=Cc2cccc(O)c2)S3)c1

>  <score_type>  (73) 
oracle

>  <origin>  (73) 
adg

>  <m_score__min__energy>  (73) 
-14.41

>  <m_primary>  (73) 
energy

$$$$
73:0
     RDKit          3D

 57 61  0  0  0  0  0  0  0  0999 V2000
   57.4514   24.4519   44.2983 H   0  0  0  0  0  0  0  0  0  0  0  0
   56.5710   23.9610   43.8580 C   0  0  0  0  0  0  0  0  0  0  0  0
   56.6454   23.4799   42.8716 H   0  0  0  0  0  0  0  0  0  0  0  0
   55.4120   23.9490   44.5210 C   0  0  0  0  0  0  0  0  0  0  0  0
   54.3150   23.3580   44.0130 N   0  0  0  0  0  0  0  0  0  0  0  0
   53.4200   23.4270   45.0160 C   0  0  0  0  0  0  0  0  0  0  0  0
   52.2540   22.9640   44.9210 O   0  0  0  0  0  0  0  0  0  0  0  0
   53.8740   24.0280   46.1320 N   0  0  0  0  0  0  0  0  0  0  0  0
   55.1350   24.3880   45.8220 C   0  0  0  0  0  0  0  0  0  0  0  0
   55.9020   25.0610   46.7000 C   0  0  0  0  0  0  0  0  0  0  0  0
   55.9452   24.6732   47.7285 H   0  0  0  0  0  0  0  0  0  0  0  0
   56.6860   26.2670   46.4060 C   0  0  0  0  0  0  0  0  0  0  0  0
   56.2420   27.2580   45.6090 N   0  0  0  0  0  0  0  0  0  0  0  0
   57.2720   28.1290   45.4850 C   0  0  0  0  0  0  0  0  0  0  0  0
   57.1800   29.3810   44.6880 C   0  0  0  0  0  0  0  0  0  0  0  0
   56.7170   29.3350   43.3640 C   0  0  0  0  0  0  0  0  0  0  0  0
   56.4128   28.3763   42.9186 H   0  0  0  0  0  0  0  0  0  0  0  0
   56.6440   30.5090   42.6150 C   0  0  0  0  0  0  0  0  0  0  0  0
   56.2910   30.4735   41.5738 H   0  0  0  0  0  0  0  0  0  0  0  0
   57.0070   31.6960   43.1660 N   0  0  0  0  0  0  0  0  0  0  0  0
   57.4450   31.7950   44.4500 C   0  0  0  0  0  0  0  0  0  0  0  0
   57.7830   32.9710   44.9020 N   0  0  0  0  0  0  0  0  0  0  0  0
   58.5030   33.2480   46.1120 C   0  0  0  0  0  0  0  0  0  0  0  0
   59.5830   34.1370   46.0840 C   0  0  0  0  0  0  0  0  0  0  0  0
   59.8563   34.6379   45.1436 H   0  0  0  0  0  0  0  0  0  0  0  0
   60.3160   34.3910   47.2470 C   0  0  0  0  0  0  0  0  0  0  0  0
   61.1701   35.0835   47.2154 H   0  0  0  0  0  0  0  0  0  0  0  0
   59.9670   33.7660   48.4560 C   0  0  0  0  0  0  0  0  0  0  0  0
   60.8010   33.9800   49.6950 C   0  0  0  0  0  0  0  0  0  0  0  0
   60.2663   34.6755   50.3585 H   0  0  0  0  0  0  0  0  0  0  0  0
   60.9513   32.9934   50.1576 H   0  0  0  0  0  0  0  0  0  0  0  0
   62.2080   34.5650   49.4020 C   0  0  0  0  0  0  0  0  0  0  0  0
   62.0954   35.3350   48.6246 H   0  0  0  0  0  0  0  0  0  0  0  0
   62.5745   34.9439   50.3675 H   0  0  0  0  0  0  0  0  0  0  0  0
   63.2370   33.6030   48.9390 N   0  0  0  0  0  0  0  0  0  0  0  0
   63.7450   33.8320   47.5790 C   0  0  0  0  0  0  0  0  0  0  0  0
   63.2285   34.6926   47.1290 H   0  0  0  0  0  0  0  0  0  0  0  0
   64.8240   34.0440   47.6082 H   0  0  0  0  0  0  0  0  0  0  0  0
   63.4780   32.5800   46.7510 C   0  0  0  0  0  0  0  0  0  0  0  0
   62.8994   32.8337   45.8505 H   0  0  0  0  0  0  0  0  0  0  0  0
   64.4152   32.1117   46.4159 H   0  0  0  0  0  0  0  0  0  0  0  0
   62.6810   31.6490   47.6440 C   0  0  0  0  0  0  0  0  0  0  0  0
   61.6185   31.6590   47.3596 H   0  0  0  0  0  0  0  0  0  0  0  0
   63.0246   30.6075   47.5593 H   0  0  0  0  0  0  0  0  0  0  0  0
   62.8590   32.1890   49.0500 C   0  0  0  0  0  0  0  0  0  0  0  0
   61.9165   32.0957   49.6095 H   0  0  0  0  0  0  0  0  0  0  0  0
   63.6355   31.6229   49.5853 H   0  0  0  0  0  0  0  0  0  0  0  0
   58.8320   32.9400   48.4970 C   0  0  0  0  0  0  0  0  0  0  0  0
   58.5151   32.4925   49.4506 H   0  0  0  0  0  0  0  0  0  0  0  0
   58.1040   32.6840   47.3340 C   0  0  0  0  0  0  0  0  0  0  0  0
   57.2146   32.0381   47.3751 H   0  0  0  0  0  0  0  0  0  0  0  0
   57.5530   30.6230   45.2290 C   0  0  0  0  0  0  0  0  0  0  0  0
   57.9296   30.6820   46.2608 H   0  0  0  0  0  0  0  0  0  0  0  0
   58.3880   27.6760   46.1820 C   0  0  0  0  0  0  0  0  0  0  0  0
   59.3686   28.1677   46.2641 H   0  0  0  0  0  0  0  0  0  0  0  0
   58.0040   26.4850   46.7450 C   0  0  0  0  0  0  0  0  0  0  0  0
   58.8150   25.6450   47.4990 O   0  0  0  0  0  0  0  0  0  0  0  0
  1  2  1  0
  2  3  1  0
  2  4  2  0
  4  5  1  0
  5  6  1  0
  6  7  2  0
  6  8  1  0
  8  9  1  0
  9 10  2  0
 10 11  1  0
 10 12  1  0
 12 13  1  0
 13 14  1  0
 14 15  1  0
 15 16  1  0
 16 17  1  0
 16 18  2  0
 18 19  1  0
 18 20  1  0
 20 21  1  0
 21 22  2  3
 22 23  1  0
 23 24  2  0
 24 25  1  0
 24 26  1  0
 26 27  1  0
 26 28  2  0
 28 29  1  0
 29 30  1  0
 29 31  1  0
 29 32  1  0
 32 33  1  0
 32 34  1  0
 32 35  1  0
 35 36  1  0
 36 37  1  0
 36 38  1  0
 36 39  1  0
 39 40  1  0
 39 41  1  0
 39 42  1  0
 42 43  1  0
 42 44  1  0
 42 45  1  0
 45 46  1  0
 45 47  1  0
 28 48  1  0
 48 49  1  0
 48 50  2  0
 50 51  1  0
 21 52  1  0
 52 53  1  0
 14 54  2  0
 54 55  1  0
 54 56  1  0
 56 57  1  0
  9  4  1  0
 56 12  2  0
 52 15  2  0
 50 23  1  0
 45 35  1  0
M  CHG  5   5  -1   8  -1  13  -1  20  -1  57  -1
M  END
>  <UniqueID>  (74) 
70

>  <SMILES>  (74) 
C=c1[n-]c(=O)[n-]/c1=C/c1[n-]c(-c2cc[n-]c(=Nc3ccc(CCN4CCCC4)cc3)c2)cc1[O-]

>  <Energy>  (74) 
146.27002723809372

>  <Genealogy>  (74) 
C=c1[n-]c(=O)[n-]c1=Cc1[n-]c(-c2cc[n-]c(=Nc3ccc(CCN4CCCC4)cc3)c2)cc1[O-] (protonated)
C=c1[n-]c(=O)[n-]/c1=C/c1[n-]c(-c2cc[n-]c(=Nc3ccc(CCN4CCCC4)cc3)c2)cc1[O-] (cis-trans isomerization)
C=c1[n-]c(=O)[n-]/c1=C/c1[n-]c(-c2cc[n-]c(=Nc3ccc(CCN4CCCC4)cc3)c2)cc1[O-] (3D coordinates assigned)
C=c1[n-]c(=O)[n-]/c1=C/c1[n-]c(-c2cc[n-]c(=Nc3ccc(CCN4CCCC4)cc3)c2)cc1[O-] (nonaromatic ring conformer: 146.27002723809372 kcal/mol)

>  <smiles>  (74) 
C=c1[nH]c(=O)[nH]c1=Cc1[nH]c(-c2cc[nH]c(=Nc3ccc(CCN4CCCC4)cc3)c2)cc1O

>  <score_type>  (74) 
oracle

>  <origin>  (74) 
adg

>  <m_score__min__energy>  (74) 
-18.07

>  <m_primary>  (74) 
energy

$$$$
74:0
     RDKit          3D

 51 54  0  0  0  0  0  0  0  0999 V2000
   58.2160   30.4100   45.7390 C   0  0  0  0  0  0  0  0  0  0  0  0
   58.5410   29.7310   46.8520 C   0  0  0  0  0  0  0  0  0  0  0  0
   58.5710   28.3340   46.9980 C   0  0  0  0  0  0  0  0  0  0  0  0
   58.1170   27.3480   46.1990 C   0  0  0  0  0  0  0  0  0  0  0  0
   57.4000   26.1420   46.6460 C   0  0  0  0  0  0  0  0  0  0  0  0
   57.9870   25.0540   47.1790 N   0  0  0  0  0  0  0  0  0  0  0  0
   56.9680   24.1760   47.2920 C   0  0  0  0  0  0  0  0  0  0  0  0
   57.1180   23.0230   47.7740 O   0  0  0  0  0  0  0  0  0  0  0  0
   55.7780   24.6250   46.8390 N   0  0  0  0  0  0  0  0  0  0  0  0
   56.0740   25.8670   46.4200 C   0  0  0  0  0  0  0  0  0  0  0  0
   55.1540   26.7310   45.8350 O   0  0  0  0  0  0  0  0  0  0  0  0
   59.1520   28.0830   48.2280 C   0  0  0  0  0  0  0  0  0  0  0  0
   59.3860   29.3070   48.8140 C   0  0  0  0  0  0  0  0  0  0  0  0
   59.9050   29.4880   50.1820 C   0  0  0  0  0  0  0  0  0  0  0  0
   61.1070   29.1880   50.4090 O   0  0  0  0  0  0  0  0  0  0  0  0
   59.0730   30.0250   51.2350 N   0  0  0  0  0  0  0  0  0  0  0  0
   59.5540   30.0670   52.6250 C   0  0  0  0  0  0  0  0  0  0  0  0
   59.4300   31.4900   53.1860 C   0  0  0  0  0  0  0  0  0  0  0  0
   58.0730   32.1590   52.8740 C   0  0  0  0  0  0  0  0  0  0  0  0
   57.0910   31.2350   52.1430 C   0  0  0  0  0  0  0  0  0  0  0  0
   57.7520   30.5960   50.9150 C   0  0  0  0  0  0  0  0  0  0  0  0
   59.0270   30.3140   47.9840 N   0  0  0  0  0  0  0  0  0  0  0  0
   59.0690   31.7430   48.3360 C   0  0  0  0  0  0  0  0  0  0  0  0
   60.3010   32.3830   47.7530 C   0  0  0  0  0  0  0  0  0  0  0  0
   61.5780   31.8840   48.0620 C   0  0  0  0  0  0  0  0  0  0  0  0
   62.7200   32.5050   47.5480 C   0  0  0  0  0  0  0  0  0  0  0  0
   62.5970   33.6350   46.7330 C   0  0  0  0  0  0  0  0  0  0  0  0
   63.7340   34.2560   46.2320 O   0  0  0  0  0  0  0  0  0  0  0  0
   61.3290   34.1380   46.4240 C   0  0  0  0  0  0  0  0  0  0  0  0
   60.1860   33.5140   46.9300 C   0  0  0  0  0  0  0  0  0  0  0  0
   58.2277   31.5099   45.7426 H   0  0  0  0  0  0  0  0  0  0  0  0
   57.9382   29.8659   44.8242 H   0  0  0  0  0  0  0  0  0  0  0  0
   58.2978   27.4534   45.1191 H   0  0  0  0  0  0  0  0  0  0  0  0
   54.3850   27.1090   46.3770 H   0  0  0  0  0  0  0  0  0  0  0  0
   59.3826   27.0961   48.6555 H   0  0  0  0  0  0  0  0  0  0  0  0
   58.9520   29.3808   53.2387 H   0  0  0  0  0  0  0  0  0  0  0  0
   60.6108   29.7628   52.6484 H   0  0  0  0  0  0  0  0  0  0  0  0
   59.5535   31.4457   54.2782 H   0  0  0  0  0  0  0  0  0  0  0  0
   60.2092   32.0976   52.7025 H   0  0  0  0  0  0  0  0  0  0  0  0
   57.6140   32.4750   53.8224 H   0  0  0  0  0  0  0  0  0  0  0  0
   58.2765   33.0092   52.2064 H   0  0  0  0  0  0  0  0  0  0  0  0
   56.7641   30.4408   52.8303 H   0  0  0  0  0  0  0  0  0  0  0  0
   56.2297   31.8317   51.8081 H   0  0  0  0  0  0  0  0  0  0  0  0
   57.1003   29.7943   50.5374 H   0  0  0  0  0  0  0  0  0  0  0  0
   57.8949   31.3813   50.1581 H   0  0  0  0  0  0  0  0  0  0  0  0
   58.1749   32.2429   47.9353 H   0  0  0  0  0  0  0  0  0  0  0  0
   59.0946   31.8437   49.4311 H   0  0  0  0  0  0  0  0  0  0  0  0
   61.6792   31.0015   48.7108 H   0  0  0  0  0  0  0  0  0  0  0  0
   63.7167   32.1044   47.7848 H   0  0  0  0  0  0  0  0  0  0  0  0
   61.2316   35.0258   45.7819 H   0  0  0  0  0  0  0  0  0  0  0  0
   59.1907   33.9112   46.6820 H   0  0  0  0  0  0  0  0  0  0  0  0
  1  2  2  0
  2  3  1  0
  3  4  2  3
  4  5  1  0
  5  6  1  0
  6  7  1  0
  7  8  2  0
  7  9  1  0
  9 10  1  0
 10 11  1  0
  3 12  1  0
 12 13  2  0
 13 14  1  0
 14 15  2  0
 14 16  1  0
 16 17  1  0
 17 18  1  0
 18 19  1  0
 19 20  1  0
 20 21  1  0
 13 22  1  0
 22 23  1  0
 23 24  1  0
 24 25  2  0
 25 26  1  0
 26 27  2  0
 27 28  1  0
 27 29  1  0
 29 30  2  0
 22  2  1  0
 30 24  1  0
 10  5  2  0
 21 16  1  0
  1 31  1  0
  1 32  1  0
  4 33  1  0
 11 34  1  0
 12 35  1  0
 17 36  1  0
 17 37  1  0
 18 38  1  0
 18 39  1  0
 19 40  1  0
 19 41  1  0
 20 42  1  0
 20 43  1  0
 21 44  1  0
 21 45  1  0
 23 46  1  0
 23 47  1  0
 25 48  1  0
 26 49  1  0
 29 50  1  0
 30 51  1  0
M  CHG  3   6  -1   9  -1  28  -1
M  END
>  <UniqueID>  (75) 
71

>  <SMILES>  (75) 
C=c1c(=Cc2[n-]c(=O)[n-]c2O)cc(C(=O)N2CCCCC2)n1Cc1ccc([O-])cc1

>  <Energy>  (75) 
126.77368693967227

>  <Genealogy>  (75) 
C=c1c(=Cc2[n-]c(=O)[n-]c2O)cc(C(=O)N2CCCCC2)n1Cc1ccc([O-])cc1 (protonated)
C=c1c(=Cc2[n-]c(=O)[n-]c2O)cc(C(=O)N2CCCCC2)n1Cc1ccc([O-])cc1 (3D coordinates assigned)
C=c1c(=Cc2[n-]c(=O)[n-]c2O)cc(C(=O)N2CCCCC2)n1Cc1ccc([O-])cc1 (nonaromatic ring conformer: 126.77368693967227 kcal/mol)

>  <smiles>  (75) 
C=c1c(=Cc2[nH]c(=O)[nH]c2O)cc(C(=O)N2CCCCC2)n1Cc1ccc(O)cc1

>  <score_type>  (75) 
oracle

>  <origin>  (75) 
adg

>  <m_score__min__energy>  (75) 
-13.67

>  <m_primary>  (75) 
energy

$$$$
75:0
     RDKit          3D

 57 59  0  0  0  0  0  0  0  0999 V2000
   58.0900   23.2040   45.2800 C   0  0  0  0  0  0  0  0  0  0  0  0
   57.9920   24.2180   46.4130 C   0  0  0  0  0  0  0  0  0  0  0  0
   57.6660   25.5400   45.8830 N   0  0  0  0  0  0  0  0  0  0  0  0
   58.4730   26.2410   45.0960 N   0  0  0  0  0  0  0  0  0  0  0  0
   57.8360   27.3920   44.7760 C   0  0  0  0  0  0  0  0  0  0  0  0
   58.3750   28.4390   43.8470 C   0  0  0  0  0  0  0  0  0  0  0  0
   58.1890   29.8450   44.4010 C   0  0  0  0  0  0  0  0  0  0  0  0
   58.9280   30.3070   45.5250 C   0  0  0  0  0  0  0  0  0  0  0  0
   60.0250   29.5310   46.1380 C   0  0  0  0  0  0  0  0  0  0  0  0
   61.1810   30.0310   46.2080 O   0  0  0  0  0  0  0  0  0  0  0  0
   59.7630   28.2400   46.7060 N   0  0  0  0  0  0  0  0  0  0  0  0
   60.7690   27.4900   47.4540 C   0  0  0  0  0  0  0  0  0  0  0  0
   60.1190   26.3790   48.2820 C   0  0  0  0  0  0  0  0  0  0  0  0
   58.7210   26.4750   48.2250 O   0  0  0  0  0  0  0  0  0  0  0  0
   58.6610   31.5760   46.0560 C   0  0  0  0  0  0  0  0  0  0  0  0
   57.6840   32.3860   45.4750 C   0  0  0  0  0  0  0  0  0  0  0  0
   57.4080   33.7420   45.9840 C   0  0  0  0  0  0  0  0  0  0  0  0
   56.4950   34.4160   45.4410 O   0  0  0  0  0  0  0  0  0  0  0  0
   58.1060   34.3070   47.1050 N   0  0  0  0  0  0  0  0  0  0  0  0
   59.4000   34.9860   47.0690 C   0  0  0  0  0  0  0  0  0  0  0  0
   60.5100   34.0660   47.5030 C   0  0  0  0  0  0  0  0  0  0  0  0
   61.6300   33.8680   46.6800 C   0  0  0  0  0  0  0  0  0  0  0  0
   62.6670   33.0250   47.0910 C   0  0  0  0  0  0  0  0  0  0  0  0
   62.5940   32.3750   48.3260 C   0  0  0  0  0  0  0  0  0  0  0  0
   63.6020   31.5610   48.7250 F   0  0  0  0  0  0  0  0  0  0  0  0
   61.4860   32.5730   49.1540 C   0  0  0  0  0  0  0  0  0  0  0  0
   60.4500   33.4190   48.7490 C   0  0  0  0  0  0  0  0  0  0  0  0
   57.0290   31.9530   44.3700 N   0  0  0  0  0  0  0  0  0  0  0  0
   57.2460   30.7320   43.8140 C   0  0  0  0  0  0  0  0  0  0  0  0
   56.4380   30.3650   42.6020 C   0  0  0  0  0  0  0  0  0  0  0  0
   56.5810   27.3900   45.3530 C   0  0  0  0  0  0  0  0  0  0  0  0
   55.5970   28.3670   45.2460 O   0  0  0  0  0  0  0  0  0  0  0  0
   56.5080   26.2100   46.0430 C   0  0  0  0  0  0  0  0  0  0  0  0
   55.5230   25.7990   46.7120 O   0  0  0  0  0  0  0  0  0  0  0  0
   58.1878   22.1924   45.7008 H   0  0  0  0  0  0  0  0  0  0  0  0
   57.1825   23.2574   44.6606 H   0  0  0  0  0  0  0  0  0  0  0  0
   58.9705   23.4302   44.6606 H   0  0  0  0  0  0  0  0  0  0  0  0
   57.2048   23.9038   47.1142 H   0  0  0  0  0  0  0  0  0  0  0  0
   58.9604   24.2693   46.9323 H   0  0  0  0  0  0  0  0  0  0  0  0
   59.4489   28.2576   43.6925 H   0  0  0  0  0  0  0  0  0  0  0  0
   57.8192   28.3711   42.9002 H   0  0  0  0  0  0  0  0  0  0  0  0
   58.8280   27.8000   46.5560 H   0  0  0  0  0  0  0  0  0  0  0  0
   61.4830   27.0417   46.7474 H   0  0  0  0  0  0  0  0  0  0  0  0
   61.2859   28.1803   48.1369 H   0  0  0  0  0  0  0  0  0  0  0  0
   60.4309   25.4020   47.8843 H   0  0  0  0  0  0  0  0  0  0  0  0
   60.4394   26.4832   49.3291 H   0  0  0  0  0  0  0  0  0  0  0  0
   58.4810   26.5670   47.2660 H   0  0  0  0  0  0  0  0  0  0  0  0
   59.2220   31.9342   46.9317 H   0  0  0  0  0  0  0  0  0  0  0  0
   59.5977   35.3272   46.0421 H   0  0  0  0  0  0  0  0  0  0  0  0
   59.3646   35.8399   47.7615 H   0  0  0  0  0  0  0  0  0  0  0  0
   61.6920   34.3783   45.7075 H   0  0  0  0  0  0  0  0  0  0  0  0
   63.5416   32.8732   46.4413 H   0  0  0  0  0  0  0  0  0  0  0  0
   61.4291   32.0620   50.1264 H   0  0  0  0  0  0  0  0  0  0  0  0
   59.5841   33.5791   49.4082 H   0  0  0  0  0  0  0  0  0  0  0  0
   55.4789   29.9294   42.9189 H   0  0  0  0  0  0  0  0  0  0  0  0
   56.2503   31.2662   41.9998 H   0  0  0  0  0  0  0  0  0  0  0  0
   56.9931   29.6307   41.9998 H   0  0  0  0  0  0  0  0  0  0  0  0
  1  2  1  0
  2  3  1  0
  3  4  1  0
  4  5  1  0
  5  6  1  0
  6  7  1  0
  7  8  2  0
  8  9  1  0
  9 10  2  0
  9 11  1  0
 11 12  1  0
 12 13  1  0
 13 14  1  0
  8 15  1  0
 15 16  2  0
 16 17  1  0
 17 18  2  0
 17 19  1  0
 19 20  1  0
 20 21  1  0
 21 22  2  0
 22 23  1  0
 23 24  2  0
 24 25  1  0
 24 26  1  0
 26 27  2  0
 16 28  1  0
 28 29  2  0
 29 30  1  0
  5 31  2  0
 31 32  1  0
 31 33  1  0
 33 34  2  0
 33  3  1  0
 29  7  1  0
 27 21  1  0
  1 35  1  0
  1 36  1  0
  1 37  1  0
  2 38  1  0
  2 39  1  0
  6 40  1  0
  6 41  1  0
 11 42  1  0
 12 43  1  0
 12 44  1  0
 13 45  1  0
 13 46  1  0
 14 47  1  0
 15 48  1  0
 20 49  1  0
 20 50  1  0
 22 51  1  0
 23 52  1  0
 26 53  1  0
 27 54  1  0
 30 55  1  0
 30 56  1  0
 30 57  1  0
M  CHG  3   4  -1  19  -1  32  -1
M  END
>  <UniqueID>  (76) 
72

>  <SMILES>  (76) 
CCn1[n-]c(Cc2c(C(=O)NCCO)cc(C(=O)[N-]Cc3ccc(F)cc3)nc2C)c([O-])c1=O

>  <Energy>  (76) 
92.83857101803291

>  <Genealogy>  (76) 
CCn1[n-]c(Cc2c(C(=O)NCCO)cc(C(=O)[N-]Cc3ccc(F)cc3)nc2C)c([O-])c1=O (protonated)
CCn1[n-]c(Cc2c(C(=O)NCCO)cc(C(=O)[N-]Cc3ccc(F)cc3)nc2C)c([O-])c1=O (3D coordinates assigned)
CCn1[n-]c(Cc2c(C(=O)NCCO)cc(C(=O)[N-]Cc3ccc(F)cc3)nc2C)c([O-])c1=O (optimized conformer: 92.83857101803291 kcal/mol)

>  <smiles>  (76) 
CCn1[nH]c(Cc2c(C(=O)NCCO)cc(C(=O)NCc3ccc(F)cc3)nc2C)c(O)c1=O

>  <score_type>  (76) 
oracle

>  <origin>  (76) 
adg

>  <m_score__min__energy>  (76) 
-12.880000000000001

>  <m_primary>  (76) 
energy

$$$$
76:0
     RDKit          3D

 51 53  0  0  0  0  0  0  0  0999 V2000
   65.3140   34.0040   51.4870 C   0  0  0  0  0  0  0  0  0  0  0  0
   65.2410   33.1030   50.2820 C   0  0  0  0  0  0  0  0  0  0  0  0
   66.2880   32.7860   49.7330 O   0  0  0  0  0  0  0  0  0  0  0  0
   63.9810   32.5980   49.7640 N   0  0  0  0  0  0  0  0  0  0  0  0
   63.9460   32.6740   48.2820 C   0  0  0  0  0  0  0  0  0  0  0  0
   62.9120   31.7180   47.6480 C   0  0  0  0  0  0  0  0  0  0  0  0
   61.8710   31.3440   48.6150 N   0  0  0  0  0  0  0  0  0  0  0  0
   60.4990   31.2200   48.1990 C   0  0  0  0  0  0  0  0  0  0  0  0
   59.8530   30.1810   48.5050 O   0  0  0  0  0  0  0  0  0  0  0  0
   59.8230   32.3010   47.4450 C   0  0  0  0  0  0  0  0  0  0  0  0
   60.1780   33.6460   47.6500 C   0  0  0  0  0  0  0  0  0  0  0  0
   59.5290   34.6630   46.9460 C   0  0  0  0  0  0  0  0  0  0  0  0
   58.5140   34.3520   46.0390 C   0  0  0  0  0  0  0  0  0  0  0  0
   58.1340   33.0170   45.8350 C   0  0  0  0  0  0  0  0  0  0  0  0
   57.0240   32.6780   44.8750 C   0  0  0  0  0  0  0  0  0  0  0  0
   57.4890   31.7750   43.8200 N   0  0  0  0  0  0  0  0  0  0  0  0
   56.7640   30.1980   43.9610 S   0  0  0  0  0  0  0  0  0  0  0  0
   56.4120   29.6860   42.5920 O   0  0  0  0  0  0  0  0  0  0  0  0
   55.4980   30.3130   44.7630 O   0  0  0  0  0  0  0  0  0  0  0  0
   57.8470   29.0680   44.7760 C   0  0  0  0  0  0  0  0  0  0  0  0
   59.2380   29.2430   44.7090 C   0  0  0  0  0  0  0  0  0  0  0  0
   60.0920   28.3550   45.3710 C   0  0  0  0  0  0  0  0  0  0  0  0
   59.5620   27.2900   46.1040 C   0  0  0  0  0  0  0  0  0  0  0  0
   58.1780   27.1100   46.1760 C   0  0  0  0  0  0  0  0  0  0  0  0
   57.3190   27.9970   45.5160 C   0  0  0  0  0  0  0  0  0  0  0  0
   55.9780   27.8130   45.6020 F   0  0  0  0  0  0  0  0  0  0  0  0
   58.7910   31.9960   46.5400 C   0  0  0  0  0  0  0  0  0  0  0  0
   62.2650   30.8350   49.9340 C   0  0  0  0  0  0  0  0  0  0  0  0
   63.7100   31.2340   50.2630 C   0  0  0  0  0  0  0  0  0  0  0  0
   65.2648   33.3964   52.4027 H   0  0  0  0  0  0  0  0  0  0  0  0
   66.2605   34.5642   51.4691 H   0  0  0  0  0  0  0  0  0  0  0  0
   64.4701   34.7093   51.4691 H   0  0  0  0  0  0  0  0  0  0  0  0
   63.2190   33.2210   50.1280 H   0  0  0  0  0  0  0  0  0  0  0  0
   63.6941   33.7044   47.9906 H   0  0  0  0  0  0  0  0  0  0  0  0
   64.9382   32.3718   47.9157 H   0  0  0  0  0  0  0  0  0  0  0  0
   62.4407   32.2179   46.7889 H   0  0  0  0  0  0  0  0  0  0  0  0
   63.4335   30.8043   47.3270 H   0  0  0  0  0  0  0  0  0  0  0  0
   60.9713   33.8988   48.3689 H   0  0  0  0  0  0  0  0  0  0  0  0
   59.8184   35.7120   47.1066 H   0  0  0  0  0  0  0  0  0  0  0  0
   58.0107   35.1564   45.4826 H   0  0  0  0  0  0  0  0  0  0  0  0
   56.2076   32.1914   45.4288 H   0  0  0  0  0  0  0  0  0  0  0  0
   56.6751   33.6095   44.4053 H   0  0  0  0  0  0  0  0  0  0  0  0
   59.6579   30.0814   44.1339 H   0  0  0  0  0  0  0  0  0  0  0  0
   61.1816   28.4951   45.3146 H   0  0  0  0  0  0  0  0  0  0  0  0
   60.2347   26.5927   46.6248 H   0  0  0  0  0  0  0  0  0  0  0  0
   57.7628   26.2700   46.7522 H   0  0  0  0  0  0  0  0  0  0  0  0
   58.4958   30.9481   46.3830 H   0  0  0  0  0  0  0  0  0  0  0  0
   61.5927   31.2533   50.6975 H   0  0  0  0  0  0  0  0  0  0  0  0
   62.1962   29.7372   49.9231 H   0  0  0  0  0  0  0  0  0  0  0  0
   63.8563   31.2086   51.3529 H   0  0  0  0  0  0  0  0  0  0  0  0
   64.4001   30.5274   49.7787 H   0  0  0  0  0  0  0  0  0  0  0  0
  1  2  1  0
  2  3  2  0
  2  4  1  0
  4  5  1  0
  5  6  1  0
  6  7  1  0
  7  8  1  0
  8  9  2  0
  8 10  1  0
 10 11  2  0
 11 12  1  0
 12 13  2  0
 13 14  1  0
 14 15  1  0
 15 16  1  0
 16 17  1  0
 17 18  2  0
 17 19  2  0
 17 20  1  0
 20 21  2  0
 21 22  1  0
 22 23  2  0
 23 24  1  0
 24 25  2  0
 25 26  1  0
 14 27  2  0
  7 28  1  0
 28 29  1  0
 29  4  1  0
 27 10  1  0
 25 20  1  0
  1 30  1  0
  1 31  1  0
  1 32  1  0
  4 33  1  0
  5 34  1  0
  5 35  1  0
  6 36  1  0
  6 37  1  0
 11 38  1  0
 12 39  1  0
 13 40  1  0
 15 41  1  0
 15 42  1  0
 21 43  1  0
 22 44  1  0
 23 45  1  0
 24 46  1  0
 27 47  1  0
 28 48  1  0
 28 49  1  0
 29 50  1  0
 29 51  1  0
M  CHG  2   4   1  16  -1
M  END
>  <UniqueID>  (77) 
73

>  <SMILES>  (77) 
CC(=O)[NH+]1CCN(C(=O)c2cccc(C[N-]S(=O)(=O)c3ccccc3F)c2)CC1

>  <Energy>  (77) 
61.61035964693101

>  <Genealogy>  (77) 
CC(=O)[NH+]1CCN(C(=O)c2cccc(C[N-]S(=O)(=O)c3ccccc3F)c2)CC1 (protonated)
CC(=O)[NH+]1CCN(C(=O)c2cccc(C[N-]S(=O)(=O)c3ccccc3F)c2)CC1 (3D coordinates assigned)
CC(=O)[NH+]1CCN(C(=O)c2cccc(C[N-]S(=O)(=O)c3ccccc3F)c2)CC1 (nonaromatic ring conformer: 61.61035964693101 kcal/mol)

>  <smiles>  (77) 
CC(=O)N1CCN(C(=O)c2cccc(CNS(=O)(=O)c3ccccc3F)c2)CC1

>  <score_type>  (77) 
oracle

>  <origin>  (77) 
adg

>  <m_score__min__energy>  (77) 
-9.6500000000000004

>  <m_primary>  (77) 
energy

$$$$
77:0
     RDKit          3D

 50 52  0  0  0  0  0  0  0  0999 V2000
   57.4840   31.6960   42.8850 O   0  0  0  0  0  0  0  0  0  0  0  0
   57.0250   31.0330   43.8520 C   0  0  0  0  0  0  0  0  0  0  0  0
   56.3630   29.7050   43.5930 C   0  0  0  0  0  0  0  0  0  0  0  0
   57.3950   28.5820   43.4470 C   0  0  0  0  0  0  0  0  0  0  0  0
   57.5350   27.6450   44.9610 S   0  0  0  0  0  0  0  0  0  0  0  0
   57.9960   26.2500   44.6420 O   0  0  0  0  0  0  0  0  0  0  0  0
   56.1900   27.5620   45.6280 O   0  0  0  0  0  0  0  0  0  0  0  0
   58.6940   28.4120   46.0430 C   0  0  0  0  0  0  0  0  0  0  0  0
   59.8070   29.0890   45.5240 C   0  0  0  0  0  0  0  0  0  0  0  0
   60.7370   29.6770   46.3880 C   0  0  0  0  0  0  0  0  0  0  0  0
   60.5610   29.5870   47.7720 C   0  0  0  0  0  0  0  0  0  0  0  0
   59.4570   28.9060   48.2940 C   0  0  0  0  0  0  0  0  0  0  0  0
   58.5260   28.3170   47.4320 C   0  0  0  0  0  0  0  0  0  0  0  0
   57.1300   31.5780   45.1740 N   0  0  0  0  0  0  0  0  0  0  0  0
   58.0200   32.6200   45.5960 C   0  0  0  0  0  0  0  0  0  0  0  0
   58.1210   33.8320   44.8920 C   0  0  0  0  0  0  0  0  0  0  0  0
   58.9770   34.8390   45.3460 C   0  0  0  0  0  0  0  0  0  0  0  0
   59.7200   34.6530   46.5130 C   0  0  0  0  0  0  0  0  0  0  0  0
   59.6000   33.4640   47.2440 C   0  0  0  0  0  0  0  0  0  0  0  0
   60.5100   33.2420   48.7390 S   0  0  0  0  0  0  0  0  0  0  0  0
   60.9420   34.5910   49.2470 O   0  0  0  0  0  0  0  0  0  0  0  0
   59.6110   32.6300   49.7770 O   0  0  0  0  0  0  0  0  0  0  0  0
   61.9230   32.2280   48.5260 N   0  0  0  0  0  0  0  0  0  0  0  0
   62.4630   32.2920   47.1550 C   0  0  0  0  0  0  0  0  0  0  0  0
   63.3800   33.5150   46.9190 C   0  0  0  0  0  0  0  0  0  0  0  0
   63.6930   34.2170   48.1060 O   0  0  0  0  0  0  0  0  0  0  0  0
   64.1210   33.3090   49.0950 C   0  0  0  0  0  0  0  0  0  0  0  0
   62.9450   32.4420   49.5740 C   0  0  0  0  0  0  0  0  0  0  0  0
   58.7470   32.4520   46.7810 C   0  0  0  0  0  0  0  0  0  0  0  0
   55.6944   29.4689   44.4340 H   0  0  0  0  0  0  0  0  0  0  0  0
   55.7979   29.7788   42.6521 H   0  0  0  0  0  0  0  0  0  0  0  0
   57.0828   27.9093   42.6346 H   0  0  0  0  0  0  0  0  0  0  0  0
   58.3732   29.0308   43.2195 H   0  0  0  0  0  0  0  0  0  0  0  0
   59.9491   29.1579   44.4354 H   0  0  0  0  0  0  0  0  0  0  0  0
   61.6073   30.2105   45.9781 H   0  0  0  0  0  0  0  0  0  0  0  0
   61.2913   30.0521   48.4505 H   0  0  0  0  0  0  0  0  0  0  0  0
   59.3205   28.8334   49.3831 H   0  0  0  0  0  0  0  0  0  0  0  0
   57.6603   27.7782   47.8446 H   0  0  0  0  0  0  0  0  0  0  0  0
   57.5246   33.9885   43.9810 H   0  0  0  0  0  0  0  0  0  0  0  0
   59.0654   35.7798   44.7828 H   0  0  0  0  0  0  0  0  0  0  0  0
   60.4023   35.4430   46.8599 H   0  0  0  0  0  0  0  0  0  0  0  0
   63.0438   31.3774   46.9647 H   0  0  0  0  0  0  0  0  0  0  0  0
   61.6074   32.3874   46.4703 H   0  0  0  0  0  0  0  0  0  0  0  0
   64.3178   33.1653   46.4626 H   0  0  0  0  0  0  0  0  0  0  0  0
   62.8340   34.2099   46.2640 H   0  0  0  0  0  0  0  0  0  0  0  0
   64.9030   32.6589   48.6757 H   0  0  0  0  0  0  0  0  0  0  0  0
   64.5177   33.8752   49.9506 H   0  0  0  0  0  0  0  0  0  0  0  0
   63.3359   31.4630   49.8881 H   0  0  0  0  0  0  0  0  0  0  0  0
   62.4592   32.9747   50.4048 H   0  0  0  0  0  0  0  0  0  0  0  0
   58.6480   31.5180   47.3536 H   0  0  0  0  0  0  0  0  0  0  0  0
  1  2  2  0
  2  3  1  0
  3  4  1  0
  4  5  1  0
  5  6  2  0
  5  7  2  0
  5  8  1  0
  8  9  2  0
  9 10  1  0
 10 11  2  0
 11 12  1  0
 12 13  2  0
  2 14  1  0
 14 15  1  0
 15 16  2  0
 16 17  1  0
 17 18  2  0
 18 19  1  0
 19 20  1  0
 20 21  2  0
 20 22  2  0
 20 23  1  0
 23 24  1  0
 24 25  1  0
 25 26  1  0
 26 27  1  0
 27 28  1  0
 19 29  2  0
 13  8  1  0
 29 15  1  0
 28 23  1  0
  3 30  1  0
  3 31  1  0
  4 32  1  0
  4 33  1  0
  9 34  1  0
 10 35  1  0
 11 36  1  0
 12 37  1  0
 13 38  1  0
 16 39  1  0
 17 40  1  0
 18 41  1  0
 24 42  1  0
 24 43  1  0
 25 44  1  0
 25 45  1  0
 27 46  1  0
 27 47  1  0
 28 48  1  0
 28 49  1  0
 29 50  1  0
M  CHG  1  14  -1
M  END
>  <UniqueID>  (78) 
74

>  <SMILES>  (78) 
O=C(CCS(=O)(=O)c1ccccc1)[N-]c1cccc(S(=O)(=O)N2CCOCC2)c1

>  <Energy>  (78) 
60.853685170058725

>  <Genealogy>  (78) 
O=C(CCS(=O)(=O)c1ccccc1)[N-]c1cccc(S(=O)(=O)N2CCOCC2)c1 (protonated)
O=C(CCS(=O)(=O)c1ccccc1)[N-]c1cccc(S(=O)(=O)N2CCOCC2)c1 (3D coordinates assigned)
O=C(CCS(=O)(=O)c1ccccc1)[N-]c1cccc(S(=O)(=O)N2CCOCC2)c1 (nonaromatic ring conformer: 60.853685170058725 kcal/mol)

>  <smiles>  (78) 
O=C(CCS(=O)(=O)c1ccccc1)Nc1cccc(S(=O)(=O)N2CCOCC2)c1

>  <score_type>  (78) 
oracle

>  <origin>  (78) 
adg

>  <m_score__min__energy>  (78) 
-12.08

>  <m_primary>  (78) 
energy

$$$$
78:0
     RDKit          3D

 54 57  0  0  0  0  0  0  0  0999 V2000
   60.7730   26.1060   46.7380 O   0  0  0  0  0  0  0  0  0  0  0  0
   59.6130   25.8540   46.3170 C   0  0  0  0  0  0  0  0  0  0  0  0
   59.1080   24.5200   46.4730 N   0  0  0  0  0  0  0  0  0  0  0  0
   58.5100   23.7030   45.4560 C   0  0  0  0  0  0  0  0  0  0  0  0
   57.3240   24.1460   44.8570 C   0  0  0  0  0  0  0  0  0  0  0  0
   56.6890   23.3690   43.8840 C   0  0  0  0  0  0  0  0  0  0  0  0
   57.2460   22.1520   43.4880 C   0  0  0  0  0  0  0  0  0  0  0  0
   58.4470   21.7170   44.0530 C   0  0  0  0  0  0  0  0  0  0  0  0
   59.0940   22.4910   45.0280 C   0  0  0  0  0  0  0  0  0  0  0  0
   60.3160   22.0710   45.5490 O   0  0  0  0  0  0  0  0  0  0  0  0
   58.8420   26.9240   45.6320 C   0  0  0  0  0  0  0  0  0  0  0  0
   57.4610   27.0550   45.8700 C   0  0  0  0  0  0  0  0  0  0  0  0
   56.7270   28.0760   45.2580 C   0  0  0  0  0  0  0  0  0  0  0  0
   57.3590   28.9760   44.3890 C   0  0  0  0  0  0  0  0  0  0  0  0
   56.4640   30.3160   43.6690 S   0  0  0  0  0  0  0  0  0  0  0  0
   55.1010   29.8520   43.2400 O   0  0  0  0  0  0  0  0  0  0  0  0
   57.1980   30.8370   42.4660 O   0  0  0  0  0  0  0  0  0  0  0  0
   56.2780   31.5700   44.8510 N   0  0  0  0  0  0  0  0  0  0  0  0
   57.4170   32.1180   45.5120 C   0  0  0  0  0  0  0  0  0  0  0  0
   58.1790   31.3330   46.3880 C   0  0  0  0  0  0  0  0  0  0  0  0
   59.1800   31.9210   47.1680 C   0  0  0  0  0  0  0  0  0  0  0  0
   59.4100   33.3010   47.0900 C   0  0  0  0  0  0  0  0  0  0  0  0
   60.3750   33.9380   48.0020 C   0  0  0  0  0  0  0  0  0  0  0  0
   60.0150   34.9480   48.6640 O   0  0  0  0  0  0  0  0  0  0  0  0
   61.7230   33.4490   48.1130 N   0  0  0  0  0  0  0  0  0  0  0  0
   62.6750   33.9770   49.0750 C   0  0  0  0  0  0  0  0  0  0  0  0
   64.0410   33.4730   48.6260 C   0  0  0  0  0  0  0  0  0  0  0  0
   63.7730   32.3520   47.6250 C   0  0  0  0  0  0  0  0  0  0  0  0
   62.3380   32.5420   47.1540 C   0  0  0  0  0  0  0  0  0  0  0  0
   58.6870   34.0740   46.1690 C   0  0  0  0  0  0  0  0  0  0  0  0
   57.7000   33.4820   45.3770 C   0  0  0  0  0  0  0  0  0  0  0  0
   58.7310   28.8410   44.1390 C   0  0  0  0  0  0  0  0  0  0  0  0
   59.4720   27.8420   44.7740 C   0  0  0  0  0  0  0  0  0  0  0  0
   56.8894   25.1118   45.1542 H   0  0  0  0  0  0  0  0  0  0  0  0
   55.7494   23.7169   43.4299 H   0  0  0  0  0  0  0  0  0  0  0  0
   56.7392   21.5355   42.7310 H   0  0  0  0  0  0  0  0  0  0  0  0
   58.8882   20.7620   43.7316 H   0  0  0  0  0  0  0  0  0  0  0  0
   61.1360   21.9630   44.9630 H   0  0  0  0  0  0  0  0  0  0  0  0
   56.9545   26.3479   46.5434 H   0  0  0  0  0  0  0  0  0  0  0  0
   55.6499   28.1731   45.4593 H   0  0  0  0  0  0  0  0  0  0  0  0
   57.9894   30.2520   46.4622 H   0  0  0  0  0  0  0  0  0  0  0  0
   59.7870   31.2998   47.8430 H   0  0  0  0  0  0  0  0  0  0  0  0
   62.6525   35.0768   49.0722 H   0  0  0  0  0  0  0  0  0  0  0  0
   62.4394   33.6509   50.0988 H   0  0  0  0  0  0  0  0  0  0  0  0
   64.6084   34.2845   48.1469 H   0  0  0  0  0  0  0  0  0  0  0  0
   64.6366   33.1152   49.4788 H   0  0  0  0  0  0  0  0  0  0  0  0
   64.4669   32.4253   46.7747 H   0  0  0  0  0  0  0  0  0  0  0  0
   63.9188   31.3618   48.0814 H   0  0  0  0  0  0  0  0  0  0  0  0
   62.3207   32.9813   46.1457 H   0  0  0  0  0  0  0  0  0  0  0  0
   61.7995   31.5844   47.0993 H   0  0  0  0  0  0  0  0  0  0  0  0
   58.8978   35.1491   46.0702 H   0  0  0  0  0  0  0  0  0  0  0  0
   57.1447   34.0886   44.6465 H   0  0  0  0  0  0  0  0  0  0  0  0
   59.2282   29.5270   43.4374 H   0  0  0  0  0  0  0  0  0  0  0  0
   60.5562   27.7730   44.6015 H   0  0  0  0  0  0  0  0  0  0  0  0
  1  2  2  0
  2  3  1  0
  3  4  1  0
  4  5  2  0
  5  6  1  0
  6  7  2  0
  7  8  1  0
  8  9  2  0
  9 10  1  0
  2 11  1  0
 11 12  2  0
 12 13  1  0
 13 14  2  0
 14 15  1  0
 15 16  2  0
 15 17  2  0
 15 18  1  0
 18 19  1  0
 19 20  2  0
 20 21  1  0
 21 22  2  0
 22 23  1  0
 23 24  2  0
 23 25  1  0
 25 26  1  0
 26 27  1  0
 27 28  1  0
 28 29  1  0
 22 30  1  0
 30 31  2  0
 14 32  1  0
 32 33  2  0
  9  4  1  0
 33 11  1  0
 31 19  1  0
 29 25  1  0
  5 34  1  0
  6 35  1  0
  7 36  1  0
  8 37  1  0
 10 38  1  0
 12 39  1  0
 13 40  1  0
 20 41  1  0
 21 42  1  0
 26 43  1  0
 26 44  1  0
 27 45  1  0
 27 46  1  0
 28 47  1  0
 28 48  1  0
 29 49  1  0
 29 50  1  0
 30 51  1  0
 31 52  1  0
 32 53  1  0
 33 54  1  0
M  CHG  2   3  -1  18  -1
M  END
>  <UniqueID>  (79) 
75

>  <SMILES>  (79) 
O=C([N-]c1ccccc1O)c1ccc(S(=O)(=O)[N-]c2ccc(C(=O)N3CCCC3)cc2)cc1

>  <Energy>  (79) 
77.38764295241754

>  <Genealogy>  (79) 
O=C([N-]c1ccccc1O)c1ccc(S(=O)(=O)[N-]c2ccc(C(=O)N3CCCC3)cc2)cc1 (protonated)
O=C([N-]c1ccccc1O)c1ccc(S(=O)(=O)[N-]c2ccc(C(=O)N3CCCC3)cc2)cc1 (3D coordinates assigned)
O=C([N-]c1ccccc1O)c1ccc(S(=O)(=O)[N-]c2ccc(C(=O)N3CCCC3)cc2)cc1 (nonaromatic ring conformer: 77.38764295241754 kcal/mol)

>  <smiles>  (79) 
O=C(Nc1ccccc1O)c1ccc(S(=O)(=O)Nc2ccc(C(=O)N3CCCC3)cc2)cc1

>  <score_type>  (79) 
oracle

>  <origin>  (79) 
adg

>  <m_score__min__energy>  (79) 
-14.039999999999999

>  <m_primary>  (79) 
energy

$$$$
79:0
     RDKit          3D

 61 64  0  0  0  0  0  0  0  0999 V2000
   60.5990   29.7350   48.2130 C   0  0  0  0  0  0  0  0  0  0  0  0
   59.5330   28.9340   48.1550 C   0  0  0  0  0  0  0  0  0  0  0  0
   59.6730   27.2500   47.6510 S   0  0  0  0  0  0  0  0  0  0  0  0
   60.7690   27.1480   46.6300 O   0  0  0  0  0  0  0  0  0  0  0  0
   60.0340   26.3870   48.8290 O   0  0  0  0  0  0  0  0  0  0  0  0
   58.1830   26.7070   46.9380 N   0  0  0  0  0  0  0  0  0  0  0  0
   58.4650   25.6880   45.9220 C   0  0  0  0  0  0  0  0  0  0  0  0
   57.5800   25.8670   44.6760 C   0  0  0  0  0  0  0  0  0  0  0  0
   58.1290   26.8680   43.6400 C   0  0  0  0  0  0  0  0  0  0  0  0
   58.1630   28.2830   44.1620 C   0  0  0  0  0  0  0  0  0  0  0  0
   59.3560   28.8250   44.6600 C   0  0  0  0  0  0  0  0  0  0  0  0
   59.4100   30.1590   45.0720 C   0  0  0  0  0  0  0  0  0  0  0  0
   58.2680   30.9760   44.9980 C   0  0  0  0  0  0  0  0  0  0  0  0
   58.3260   32.3590   45.4060 N   0  0  0  0  0  0  0  0  0  0  0  0
   57.9530   32.7070   46.7880 C   0  0  0  0  0  0  0  0  0  0  0  0
   58.0950   34.2080   47.0560 C   0  0  0  0  0  0  0  0  0  0  0  0
   59.3960   34.7440   46.4410 C   0  0  0  0  0  0  0  0  0  0  0  0
   60.5720   34.0850   47.0490 N   0  0  0  0  0  0  0  0  0  0  0  0
   61.7750   33.5990   46.3580 C   0  0  0  0  0  0  0  0  0  0  0  0
   62.6000   32.8230   47.4110 C   0  0  0  0  0  0  0  0  0  0  0  0
   61.8510   33.0610   48.6710 C   0  0  0  0  0  0  0  0  0  0  0  0
   62.2000   32.6610   49.9630 C   0  0  0  0  0  0  0  0  0  0  0  0
   61.3540   33.0170   51.0250 C   0  0  0  0  0  0  0  0  0  0  0  0
   60.1860   33.7630   50.7820 C   0  0  0  0  0  0  0  0  0  0  0  0
   59.8560   34.1540   49.4740 C   0  0  0  0  0  0  0  0  0  0  0  0
   60.7080   33.7750   48.4290 C   0  0  0  0  0  0  0  0  0  0  0  0
   59.3500   34.5990   44.8980 C   0  0  0  0  0  0  0  0  0  0  0  0
   58.5030   33.4110   44.3900 C   0  0  0  0  0  0  0  0  0  0  0  0
   57.0700   30.4260   44.5070 C   0  0  0  0  0  0  0  0  0  0  0  0
   57.0190   29.0930   44.0930 C   0  0  0  0  0  0  0  0  0  0  0  0
   60.4838   30.7818   48.5308 H   0  0  0  0  0  0  0  0  0  0  0  0
   61.5928   29.3484   47.9430 H   0  0  0  0  0  0  0  0  0  0  0  0
   58.5450   29.3333   48.4277 H   0  0  0  0  0  0  0  0  0  0  0  0
   57.6400   26.2730   47.7170 H   0  0  0  0  0  0  0  0  0  0  0  0
   59.5209   25.7649   45.6234 H   0  0  0  0  0  0  0  0  0  0  0  0
   58.2494   24.7009   46.3570 H   0  0  0  0  0  0  0  0  0  0  0  0
   57.4751   24.8880   44.1856 H   0  0  0  0  0  0  0  0  0  0  0  0
   56.6220   26.2762   45.0291 H   0  0  0  0  0  0  0  0  0  0  0  0
   59.1518   26.5681   43.3680 H   0  0  0  0  0  0  0  0  0  0  0  0
   57.4560   26.8499   42.7701 H   0  0  0  0  0  0  0  0  0  0  0  0
   60.2558   28.1958   44.7269 H   0  0  0  0  0  0  0  0  0  0  0  0
   60.3533   30.5734   45.4573 H   0  0  0  0  0  0  0  0  0  0  0  0
   56.9071   32.4124   46.9592 H   0  0  0  0  0  0  0  0  0  0  0  0
   58.6315   32.1729   47.4695 H   0  0  0  0  0  0  0  0  0  0  0  0
   57.2395   34.7375   46.6113 H   0  0  0  0  0  0  0  0  0  0  0  0
   58.1208   34.3742   48.1431 H   0  0  0  0  0  0  0  0  0  0  0  0
   59.4946   35.8169   46.6627 H   0  0  0  0  0  0  0  0  0  0  0  0
   61.4944   32.9333   45.5285 H   0  0  0  0  0  0  0  0  0  0  0  0
   62.3541   34.4317   45.9323 H   0  0  0  0  0  0  0  0  0  0  0  0
   62.6371   31.7502   47.1707 H   0  0  0  0  0  0  0  0  0  0  0  0
   63.6489   33.1502   47.4641 H   0  0  0  0  0  0  0  0  0  0  0  0
   63.1166   32.0804   50.1440 H   0  0  0  0  0  0  0  0  0  0  0  0
   61.6052   32.7115   52.0514 H   0  0  0  0  0  0  0  0  0  0  0  0
   59.5291   34.0409   51.6194 H   0  0  0  0  0  0  0  0  0  0  0  0
   58.9494   34.7442   49.2749 H   0  0  0  0  0  0  0  0  0  0  0  0
   58.9294   35.5248   44.4785 H   0  0  0  0  0  0  0  0  0  0  0  0
   60.3829   34.4085   44.5712 H   0  0  0  0  0  0  0  0  0  0  0  0
   57.5115   33.7865   44.0968 H   0  0  0  0  0  0  0  0  0  0  0  0
   59.0381   32.9630   43.5398 H   0  0  0  0  0  0  0  0  0  0  0  0
   56.1664   31.0505   44.4486 H   0  0  0  0  0  0  0  0  0  0  0  0
   56.0760   28.6754   43.7104 H   0  0  0  0  0  0  0  0  0  0  0  0
  1  2  2  0
  2  3  1  0
  3  4  2  0
  3  5  2  0
  3  6  1  0
  6  7  1  0
  7  8  1  0
  8  9  1  0
  9 10  1  0
 10 11  2  0
 11 12  1  0
 12 13  2  0
 13 14  1  0
 14 15  1  0
 15 16  1  0
 16 17  1  0
 17 18  1  0
 18 19  1  0
 19 20  1  0
 20 21  1  0
 21 22  2  0
 22 23  1  0
 23 24  2  0
 24 25  1  0
 25 26  2  0
 17 27  1  0
 27 28  1  0
 13 29  1  0
 29 30  2  0
 30 10  1  0
 28 14  1  0
 26 18  1  0
 26 21  1  0
  1 31  1  0
  1 32  1  0
  2 33  1  0
  6 34  1  0
  7 35  1  0
  7 36  1  0
  8 37  1  0
  8 38  1  0
  9 39  1  0
  9 40  1  0
 11 41  1  0
 12 42  1  0
 15 43  1  0
 15 44  1  0
 16 45  1  0
 16 46  1  0
 17 47  1  0
 19 48  1  0
 19 49  1  0
 20 50  1  0
 20 51  1  0
 22 52  1  0
 23 53  1  0
 24 54  1  0
 25 55  1  0
 27 56  1  0
 27 57  1  0
 28 58  1  0
 28 59  1  0
 29 60  1  0
 30 61  1  0
M  END
>  <UniqueID>  (80) 
76

>  <SMILES>  (80) 
C=CS(=O)(=O)NCCCc1ccc(N2CCC(N3CCc4ccccc43)CC2)cc1

>  <Energy>  (80) 
76.1584596372122

>  <Genealogy>  (80) 
C=CS(=O)(=O)NCCCc1ccc(N2CCC(N3CCc4ccccc43)CC2)cc1 (3D coordinates assigned)
C=CS(=O)(=O)NCCCc1ccc(N2CCC(N3CCc4ccccc43)CC2)cc1 (nonaromatic ring conformer: 76.1584596372122 kcal/mol)

>  <smiles>  (80) 
C=CS(=O)(=O)NCCCc1ccc(N2CCC(N3CCc4ccccc43)CC2)cc1

>  <score_type>  (80) 
oracle

>  <origin>  (80) 
adg

>  <m_score__min__energy>  (80) 
-10.23

>  <m_primary>  (80) 
energy

$$$$
80:0
     RDKit          3D

 42 44  0  0  0  0  0  0  0  0999 V2000
   59.9843   25.7045   45.4395 H   0  0  0  0  0  0  0  0  0  0  0  0
   59.5340   24.8680   45.9940 C   0  0  0  0  0  0  0  0  0  0  0  0
   60.1756   24.0863   46.4268 H   0  0  0  0  0  0  0  0  0  0  0  0
   58.1980   24.8010   46.1430 C   0  0  0  0  0  0  0  0  0  0  0  0
   57.6900   23.7050   46.8630 C   0  0  0  0  0  0  0  0  0  0  0  0
   58.3466   22.8556   47.1026 H   0  0  0  0  0  0  0  0  0  0  0  0
   56.3630   23.6900   47.2730 C   0  0  0  0  0  0  0  0  0  0  0  0
   55.9705   22.8289   47.8337 H   0  0  0  0  0  0  0  0  0  0  0  0
   55.5530   24.7340   46.9830 N   0  0  0  0  0  0  0  0  0  0  0  0
   55.9700   25.7910   46.2420 C   0  0  0  0  0  0  0  0  0  0  0  0
   55.1420   26.7130   45.9990 O   0  0  0  0  0  0  0  0  0  0  0  0
   57.2930   25.8340   45.7210 C   0  0  0  0  0  0  0  0  0  0  0  0
   57.6040   26.8250   44.8370 C   0  0  0  0  0  0  0  0  0  0  0  0
   57.7998   26.5195   43.7986 H   0  0  0  0  0  0  0  0  0  0  0  0
   57.7040   28.2710   45.1370 C   0  0  0  0  0  0  0  0  0  0  0  0
   58.2380   28.7440   46.3500 C   0  0  0  0  0  0  0  0  0  0  0  0
   58.6870   27.8410   47.3210 O   0  0  0  0  0  0  0  0  0  0  0  0
   59.6500   28.1860   48.3090 C   0  0  0  0  0  0  0  0  0  0  0  0
   59.2200   28.0320   49.3097 H   0  0  0  0  0  0  0  0  0  0  0  0
   60.5403   27.5509   48.1907 H   0  0  0  0  0  0  0  0  0  0  0  0
   59.9345   29.2420   48.1907 H   0  0  0  0  0  0  0  0  0  0  0  0
   58.3280   30.0860   46.5680 N   0  0  0  0  0  0  0  0  0  0  0  0
   57.9310   31.0070   45.6470 C   0  0  0  0  0  0  0  0  0  0  0  0
   58.0690   32.4100   45.9400 N   0  0  0  0  0  0  0  0  0  0  0  0
   57.5970   33.4400   45.0060 C   0  0  0  0  0  0  0  0  0  0  0  0
   57.4595   32.9899   44.0118 H   0  0  0  0  0  0  0  0  0  0  0  0
   56.6438   33.8439   45.3778 H   0  0  0  0  0  0  0  0  0  0  0  0
   58.6170   34.5930   44.9030 C   0  0  0  0  0  0  0  0  0  0  0  0
   59.2884   34.3862   44.0565 H   0  0  0  0  0  0  0  0  0  0  0  0
   58.0381   35.5186   44.7685 H   0  0  0  0  0  0  0  0  0  0  0  0
   59.4410   34.7770   46.1150 N   0  0  0  0  0  0  0  0  0  0  0  0
   60.3240   34.2230   46.0110 H   0  0  0  0  0  0  0  0  0  0  0  0
   58.7550   34.3330   47.3350 C   0  0  0  0  0  0  0  0  0  0  0  0
   59.3827   34.5638   48.2083 H   0  0  0  0  0  0  0  0  0  0  0  0
   57.7911   34.8572   47.4135 H   0  0  0  0  0  0  0  0  0  0  0  0
   58.4970   32.8210   47.2830 C   0  0  0  0  0  0  0  0  0  0  0  0
   59.4229   32.2881   47.5450 H   0  0  0  0  0  0  0  0  0  0  0  0
   57.6979   32.5753   47.9978 H   0  0  0  0  0  0  0  0  0  0  0  0
   57.4470   30.5670   44.4060 C   0  0  0  0  0  0  0  0  0  0  0  0
   57.1529   31.2960   43.6365 H   0  0  0  0  0  0  0  0  0  0  0  0
   57.3410   29.1990   44.1540 C   0  0  0  0  0  0  0  0  0  0  0  0
   56.9708   28.8484   43.1793 H   0  0  0  0  0  0  0  0  0  0  0  0
  1  2  1  0
  2  3  1  0
  2  4  2  0
  4  5  1  0
  5  6  1  0
  5  7  2  0
  7  8  1  0
  7  9  1  0
  9 10  1  0
 10 11  2  0
 10 12  1  0
 12 13  2  0
 13 14  1  0
 13 15  1  0
 15 16  2  0
 16 17  1  0
 17 18  1  0
 18 19  1  0
 18 20  1  0
 18 21  1  0
 16 22  1  0
 22 23  2  0
 23 24  1  0
 24 25  1  0
 25 26  1  0
 25 27  1  0
 25 28  1  0
 28 29  1  0
 28 30  1  0
 28 31  1  0
 31 32  1  0
 31 33  1  0
 33 34  1  0
 33 35  1  0
 33 36  1  0
 36 37  1  0
 36 38  1  0
 23 39  1  0
 39 40  1  0
 39 41  2  0
 41 42  1  0
 12  4  1  0
 41 15  1  0
 36 24  1  0
M  CHG  1   9  -1
M  END
>  <UniqueID>  (81) 
77

>  <SMILES>  (81) 
C=c1cc[n-]c(=O)/c1=C/c1ccc(N2CCNCC2)nc1OC

>  <Energy>  (81) 
73.6630936322017

>  <Genealogy>  (81) 
C=c1cc[n-]c(=O)c1=Cc1ccc(N2CCNCC2)nc1OC (protonated)
C=c1cc[n-]c(=O)/c1=C/c1ccc(N2CCNCC2)nc1OC (cis-trans isomerization)
C=c1cc[n-]c(=O)/c1=C/c1ccc(N2CCNCC2)nc1OC (3D coordinates assigned)
C=c1cc[n-]c(=O)/c1=C/c1ccc(N2CCNCC2)nc1OC (nonaromatic ring conformer: 73.6630936322017 kcal/mol)

>  <smiles>  (81) 
C=c1cc[nH]c(=O)c1=Cc1ccc(N2CCNCC2)nc1OC

>  <score_type>  (81) 
oracle

>  <origin>  (81) 
adg

>  <m_score__min__energy>  (81) 
-10.25

>  <m_primary>  (81) 
energy

$$$$
81:0
     RDKit          3D

 56 59  0  0  1  0  0  0  0  0999 V2000
   62.3660   33.8220   49.2610 C   0  0  0  0  0  0  0  0  0  0  0  0
   61.3540   33.8110   48.1170 C   0  0  1  0  0  0  0  0  0  0  0  0
   61.1620   32.4670   47.7940 O   0  0  0  0  0  0  0  0  0  0  0  0
   60.0560   34.4540   48.5550 C   0  0  0  0  0  0  0  0  0  0  0  0
   58.8830   33.7840   48.0740 N   0  0  0  0  0  0  0  0  0  0  0  0
   58.7180   33.6420   46.8070 C   0  0  0  0  0  0  0  0  0  0  0  0
   58.2500   32.4350   46.3760 N   0  0  0  0  0  0  0  0  0  0  0  0
   58.0400   32.1780   45.0720 C   0  0  0  0  0  0  0  0  0  0  0  0
   57.5520   30.9350   44.5860 N   0  0  0  0  0  0  0  0  0  0  0  0
   56.2870   30.7890   44.1370 C   0  0  0  0  0  0  0  0  0  0  0  0
   56.1950   29.4660   43.7570 C   0  0  0  0  0  0  0  0  0  0  0  0
   57.3650   28.8840   43.9830 N   0  0  0  0  0  0  0  0  0  0  0  0
   58.2300   29.7950   44.5040 C   0  0  0  0  0  0  0  0  0  0  0  0
   59.6110   29.4760   44.8690 C   0  0  0  0  0  0  0  0  0  0  0  0
   59.6230   29.1320   46.3350 C   0  0  0  0  0  0  0  0  0  0  0  0
   59.6460   27.8130   46.7300 C   0  0  0  0  0  0  0  0  0  0  0  0
   59.6500   27.5550   48.0760 C   0  0  0  0  0  0  0  0  0  0  0  0
   59.6310   28.5680   48.9980 C   0  0  0  0  0  0  0  0  0  0  0  0
   59.6070   29.9200   48.6340 C   0  0  0  0  0  0  0  0  0  0  0  0
   59.5890   30.8890   49.6510 N   0  0  0  0  0  0  0  0  0  0  0  0
   58.6790   30.9830   50.7220 C   0  0  0  0  0  0  0  0  0  0  0  0
   57.7630   30.1550   50.8500 O   0  0  0  0  0  0  0  0  0  0  0  0
   58.7480   32.0460   51.7440 C   0  0  0  0  0  0  0  0  0  0  0  0
   58.8540   31.7830   53.0840 C   0  0  0  0  0  0  0  0  0  0  0  0
   58.9150   32.8140   54.0200 C   0  0  0  0  0  0  0  0  0  0  0  0
   58.8700   34.1380   53.6120 C   0  0  0  0  0  0  0  0  0  0  0  0
   58.9230   35.0860   54.4320 O   0  0  0  0  0  0  0  0  0  0  0  0
   58.7650   34.3830   52.2810 N   0  0  0  0  0  0  0  0  0  0  0  0
   58.7060   33.3870   51.3790 C   0  0  0  0  0  0  0  0  0  0  0  0
   59.6050   30.1650   47.2830 C   0  0  0  0  0  0  0  0  0  0  0  0
   58.3090   33.1730   44.1240 C   0  0  0  0  0  0  0  0  0  0  0  0
   58.7800   34.3690   44.6180 C   0  0  0  0  0  0  0  0  0  0  0  0
   58.9810   34.6070   45.9090 N   0  0  0  0  0  0  0  0  0  0  0  0
   61.8322   33.8162   50.2228 H   0  0  0  0  0  0  0  0  0  0  0  0
   63.0071   32.9308   49.1920 H   0  0  0  0  0  0  0  0  0  0  0  0
   62.9875   34.7270   49.1920 H   0  0  0  0  0  0  0  0  0  0  0  0
   61.7123   34.3827   47.2482 H   0  0  0  0  0  0  0  0  0  0  0  0
   60.2860   32.3350   47.3240 H   0  0  0  0  0  0  0  0  0  0  0  0
   60.0257   34.4584   49.6546 H   0  0  0  0  0  0  0  0  0  0  0  0
   60.0421   35.4674   48.1274 H   0  0  0  0  0  0  0  0  0  0  0  0
   55.5014   31.5572   44.0855 H   0  0  0  0  0  0  0  0  0  0  0  0
   55.3031   28.9771   43.3379 H   0  0  0  0  0  0  0  0  0  0  0  0
   59.9671   28.6186   44.2790 H   0  0  0  0  0  0  0  0  0  0  0  0
   60.2730   30.3307   44.6658 H   0  0  0  0  0  0  0  0  0  0  0  0
   59.6606   26.9968   45.9927 H   0  0  0  0  0  0  0  0  0  0  0  0
   59.6689   26.5115   48.4236 H   0  0  0  0  0  0  0  0  0  0  0  0
   59.6347   28.3090   50.0671 H   0  0  0  0  0  0  0  0  0  0  0  0
   60.3390   31.6340   49.6170 H   0  0  0  0  0  0  0  0  0  0  0  0
   58.8917   30.7388   53.4279 H   0  0  0  0  0  0  0  0  0  0  0  0
   58.9995   32.5752   55.0904 H   0  0  0  0  0  0  0  0  0  0  0  0
   58.7310   35.3610   51.9650 H   0  0  0  0  0  0  0  0  0  0  0  0
   58.6213   33.6430   50.3125 H   0  0  0  0  0  0  0  0  0  0  0  0
   59.5887   31.2075   46.9323 H   0  0  0  0  0  0  0  0  0  0  0  0
   58.1532   33.0088   43.0476 H   0  0  0  0  0  0  0  0  0  0  0  0
   59.0026   35.1738   43.9019 H   0  0  0  0  0  0  0  0  0  0  0  0
   59.3390   35.5330   46.2230 H   0  0  0  0  0  0  0  0  0  0  0  0
  1  2  1  0
  2  3  1  0
  2  4  1  0
  4  5  1  0
  5  6  2  0
  6  7  1  0
  7  8  2  0
  8  9  1  0
  9 10  1  0
 10 11  2  0
 11 12  1  0
 12 13  2  0
 13 14  1  0
 14 15  1  0
 15 16  2  0
 16 17  1  0
 17 18  2  0
 18 19  1  0
 19 20  1  0
 20 21  1  0
 21 22  2  0
 21 23  1  0
 23 24  1  0
 24 25  2  0
 25 26  1  0
 26 27  2  0
 26 28  1  0
 28 29  1  0
 19 30  2  0
  8 31  1  0
 31 32  2  0
 32 33  1  0
 33  6  1  0
 13  9  1  0
 30 15  1  0
 29 23  2  0
  1 34  1  0
  1 35  1  0
  1 36  1  0
  2 37  1  6
  3 38  1  0
  4 39  1  0
  4 40  1  0
 10 41  1  0
 11 42  1  0
 14 43  1  0
 14 44  1  0
 16 45  1  0
 17 46  1  0
 18 47  1  0
 20 48  1  0
 24 49  1  0
 25 50  1  0
 28 51  1  0
 29 52  1  0
 30 53  1  0
 31 54  1  0
 32 55  1  0
 33 56  1  0
M  END
>  <smiles>  (82) 
CC(O)CN=c1nc(-n2ccnc2Cc2cccc(NC(=O)c3ccc(=O)[nH]c3)c2)cc[nH]1

>  <score_type>  (82) 
oracle

>  <origin>  (82) 
adg

>  <m_score__min__energy>  (82) 
-9.7300000000000004

>  <m_primary>  (82) 
energy

$$$$
82:0
     RDKit          3D

 54 58  0  0  0  0  0  0  0  0999 V2000
   53.7370   25.6560   45.6240 O   0  0  0  0  0  0  0  0  0  0  0  0
   54.9000   24.7130   45.7550 S   0  0  0  0  0  0  0  0  0  0  0  0
   54.5980   23.7070   46.8270 O   0  0  0  0  0  0  0  0  0  0  0  0
   55.1310   23.8900   44.2450 N   0  0  0  0  0  0  0  0  0  0  0  0
   56.1260   23.0940   44.0030 C   0  0  0  0  0  0  0  0  0  0  0  0
   57.3270   23.3290   44.5950 N   0  0  0  0  0  0  0  0  0  0  0  0
   58.3960   22.5240   44.3540 C   0  0  0  0  0  0  0  0  0  0  0  0
   58.2700   21.4410   43.4860 C   0  0  0  0  0  0  0  0  0  0  0  0
   57.0330   21.2100   42.8870 C   0  0  0  0  0  0  0  0  0  0  0  0
   55.9880   22.0360   43.1560 N   0  0  0  0  0  0  0  0  0  0  0  0
   56.3620   25.5930   46.1880 C   0  0  0  0  0  0  0  0  0  0  0  0
   57.1530   25.1440   47.2500 C   0  0  0  0  0  0  0  0  0  0  0  0
   58.3340   25.8140   47.5800 C   0  0  0  0  0  0  0  0  0  0  0  0
   58.7430   26.9380   46.8390 C   0  0  0  0  0  0  0  0  0  0  0  0
   59.9490   27.6540   47.1520 N   0  0  0  0  0  0  0  0  0  0  0  0
   60.0120   28.8880   47.5590 C   0  0  0  0  0  0  0  0  0  0  0  0
   60.4710   29.2510   48.7750 N   0  0  0  0  0  0  0  0  0  0  0  0
   60.3730   30.5910   48.7740 C   0  0  0  0  0  0  0  0  0  0  0  0
   60.9100   31.4400   49.8930 C   0  0  0  0  0  0  0  0  0  0  0  0
   59.7780   32.0720   50.6570 C   0  0  0  0  0  0  0  0  0  0  0  0
   58.5690   31.3820   50.8390 C   0  0  0  0  0  0  0  0  0  0  0  0
   57.5400   31.9520   51.5960 C   0  0  0  0  0  0  0  0  0  0  0  0
   57.7140   33.2070   52.1840 C   0  0  0  0  0  0  0  0  0  0  0  0
   58.9160   33.8970   52.0130 C   0  0  0  0  0  0  0  0  0  0  0  0
   59.9460   33.3330   51.2540 C   0  0  0  0  0  0  0  0  0  0  0  0
   59.8810   31.0040   47.5440 C   0  0  0  0  0  0  0  0  0  0  0  0
   59.6250   32.3820   47.0860 C   0  0  0  0  0  0  0  0  0  0  0  0
   60.6920   33.2880   46.9660 C   0  0  0  0  0  0  0  0  0  0  0  0
   60.4640   34.5880   46.5050 C   0  0  0  0  0  0  0  0  0  0  0  0
   59.1750   34.9890   46.1460 C   0  0  0  0  0  0  0  0  0  0  0  0
   58.1120   34.0860   46.2390 C   0  0  0  0  0  0  0  0  0  0  0  0
   58.3360   32.7860   46.7000 C   0  0  0  0  0  0  0  0  0  0  0  0
   59.6630   29.9240   46.7700 N   0  0  0  0  0  0  0  0  0  0  0  0
   57.9220   27.4110   45.8070 C   0  0  0  0  0  0  0  0  0  0  0  0
   56.7430   26.7380   45.4750 C   0  0  0  0  0  0  0  0  0  0  0  0
   59.3597   22.7275   44.8439 H   0  0  0  0  0  0  0  0  0  0  0  0
   59.1272   20.7836   43.2784 H   0  0  0  0  0  0  0  0  0  0  0  0
   56.9030   20.3618   42.1987 H   0  0  0  0  0  0  0  0  0  0  0  0
   56.8445   24.2602   47.8277 H   0  0  0  0  0  0  0  0  0  0  0  0
   58.9466   25.4612   48.4227 H   0  0  0  0  0  0  0  0  0  0  0  0
   61.5014   30.8108   50.5745 H   0  0  0  0  0  0  0  0  0  0  0  0
   61.5430   32.2334   49.4688 H   0  0  0  0  0  0  0  0  0  0  0  0
   58.4304   30.3898   50.3848 H   0  0  0  0  0  0  0  0  0  0  0  0
   56.5916   31.4107   51.7285 H   0  0  0  0  0  0  0  0  0  0  0  0
   56.9045   33.6517   52.7815 H   0  0  0  0  0  0  0  0  0  0  0  0
   59.0527   34.8854   52.4760 H   0  0  0  0  0  0  0  0  0  0  0  0
   60.8921   33.8788   51.1236 H   0  0  0  0  0  0  0  0  0  0  0  0
   61.7109   32.9733   47.2358 H   0  0  0  0  0  0  0  0  0  0  0  0
   61.3015   35.2966   46.4248 H   0  0  0  0  0  0  0  0  0  0  0  0
   58.9966   36.0145   45.7904 H   0  0  0  0  0  0  0  0  0  0  0  0
   57.0982   34.3991   45.9490 H   0  0  0  0  0  0  0  0  0  0  0  0
   57.4987   32.0753   46.7610 H   0  0  0  0  0  0  0  0  0  0  0  0
   58.2073   28.3182   45.2543 H   0  0  0  0  0  0  0  0  0  0  0  0
   56.1129   27.1076   44.6526 H   0  0  0  0  0  0  0  0  0  0  0  0
  1  2  2  0
  2  3  2  0
  2  4  1  0
  4  5  2  3
  5  6  1  0
  6  7  2  0
  7  8  1  0
  8  9  2  0
  9 10  1  0
  2 11  1  0
 11 12  2  0
 12 13  1  0
 13 14  2  0
 14 15  1  0
 15 16  2  3
 16 17  1  0
 17 18  1  0
 18 19  1  0
 19 20  1  0
 20 21  2  0
 21 22  1  0
 22 23  2  0
 23 24  1  0
 24 25  2  0
 18 26  2  0
 26 27  1  0
 27 28  2  0
 28 29  1  0
 29 30  2  0
 30 31  1  0
 31 32  2  0
 26 33  1  0
 14 34  1  0
 34 35  2  0
 10  5  1  0
 35 11  1  0
 33 16  1  0
 25 20  1  0
 32 27  1  0
  7 36  1  0
  8 37  1  0
  9 38  1  0
 12 39  1  0
 13 40  1  0
 19 41  1  0
 19 42  1  0
 21 43  1  0
 22 44  1  0
 23 45  1  0
 24 46  1  0
 25 47  1  0
 28 48  1  0
 29 49  1  0
 30 50  1  0
 31 51  1  0
 32 52  1  0
 34 53  1  0
 35 54  1  0
M  CHG  3  10  -1  17  -1  33  -1
M  END
>  <UniqueID>  (83) 
78

>  <SMILES>  (83) 
O=S(=O)(N=c1nccc[n-]1)c1ccc(N=c2[n-]c(Cc3ccccc3)c(-c3ccccc3)[n-]2)cc1

>  <Energy>  (83) 
101.78614732349186

>  <Genealogy>  (83) 
O=S(=O)(N=c1nccc[n-]1)c1ccc(N=c2[n-]c(Cc3ccccc3)c(-c3ccccc3)[n-]2)cc1 (protonated)
O=S(=O)(N=c1nccc[n-]1)c1ccc(N=c2[n-]c(Cc3ccccc3)c(-c3ccccc3)[n-]2)cc1 (3D coordinates assigned)
O=S(=O)(N=c1nccc[n-]1)c1ccc(N=c2[n-]c(Cc3ccccc3)c(-c3ccccc3)[n-]2)cc1 (optimized conformer: 101.78614732349186 kcal/mol)

>  <smiles>  (83) 
O=S(=O)(N=c1nccc[nH]1)c1ccc(N=c2[nH]c(Cc3ccccc3)c(-c3ccccc3)[nH]2)cc1

>  <score_type>  (83) 
oracle

>  <origin>  (83) 
adg

>  <m_score__min__energy>  (83) 
-12.779999999999999

>  <m_primary>  (83) 
energy

$$$$
83:0
     RDKit          3D

 40 42  0  0  0  0  0  0  0  0999 V2000
   55.2200   25.5550   46.2790 O   0  0  0  0  0  0  0  0  0  0  0  0
   56.1860   25.3520   45.4940 C   0  0  0  0  0  0  0  0  0  0  0  0
   57.1350   26.3970   45.2410 N   0  0  0  0  0  0  0  0  0  0  0  0
   57.8340   27.1720   46.2260 C   0  0  0  0  0  0  0  0  0  0  0  0
   58.6800   26.5430   47.1610 C   0  0  0  0  0  0  0  0  0  0  0  0
   59.4310   27.3010   48.0600 C   0  0  0  0  0  0  0  0  0  0  0  0
   59.3640   28.6940   48.0270 C   0  0  0  0  0  0  0  0  0  0  0  0
   58.5440   29.3330   47.0960 C   0  0  0  0  0  0  0  0  0  0  0  0
   57.7670   28.5860   46.1910 C   0  0  0  0  0  0  0  0  0  0  0  0
   56.8860   29.3010   45.2380 C   0  0  0  0  0  0  0  0  0  0  0  0
   55.6470   29.0670   45.2340 O   0  0  0  0  0  0  0  0  0  0  0  0
   57.4390   30.2210   44.2900 N   0  0  0  0  0  0  0  0  0  0  0  0
   57.0110   31.6090   44.1590 C   0  0  0  0  0  0  0  0  0  0  0  0
   57.9440   32.5100   44.9190 C   0  0  0  0  0  0  0  0  0  0  0  0
   58.9880   31.9710   45.6880 C   0  0  0  0  0  0  0  0  0  0  0  0
   59.8730   32.8170   46.3650 C   0  0  0  0  0  0  0  0  0  0  0  0
   59.7240   34.2040   46.2740 C   0  0  0  0  0  0  0  0  0  0  0  0
   58.6910   34.7480   45.5050 C   0  0  0  0  0  0  0  0  0  0  0  0
   57.8060   33.9050   44.8260 C   0  0  0  0  0  0  0  0  0  0  0  0
   56.3120   24.0560   44.7920 C   0  0  0  0  0  0  0  0  0  0  0  0
   57.3380   23.1550   45.1210 C   0  0  0  0  0  0  0  0  0  0  0  0
   57.4440   21.9350   44.4510 C   0  0  0  0  0  0  0  0  0  0  0  0
   56.5210   21.6210   43.4510 C   0  0  0  0  0  0  0  0  0  0  0  0
   56.6020   20.5250   42.8360 O   0  0  0  0  0  0  0  0  0  0  0  0
   55.5300   22.4970   43.1430 N   0  0  0  0  0  0  0  0  0  0  0  0
   55.4040   23.6920   43.7820 C   0  0  0  0  0  0  0  0  0  0  0  0
   58.7489   25.4454   47.1823 H   0  0  0  0  0  0  0  0  0  0  0  0
   60.0768   26.7995   48.7958 H   0  0  0  0  0  0  0  0  0  0  0  0
   59.9583   29.2895   48.7357 H   0  0  0  0  0  0  0  0  0  0  0  0
   58.5045   30.4320   47.0692 H   0  0  0  0  0  0  0  0  0  0  0  0
   57.0161   31.8928   43.0962 H   0  0  0  0  0  0  0  0  0  0  0  0
   55.9955   31.7134   44.5688 H   0  0  0  0  0  0  0  0  0  0  0  0
   59.1104   30.8801   45.7583 H   0  0  0  0  0  0  0  0  0  0  0  0
   60.6869   32.3903   46.9695 H   0  0  0  0  0  0  0  0  0  0  0  0
   60.4200   34.8678   46.8078 H   0  0  0  0  0  0  0  0  0  0  0  0
   58.5744   35.8395   45.4341 H   0  0  0  0  0  0  0  0  0  0  0  0
   56.9982   34.3359   44.2163 H   0  0  0  0  0  0  0  0  0  0  0  0
   58.0607   23.4117   45.9096 H   0  0  0  0  0  0  0  0  0  0  0  0
   58.2465   21.2280   44.7081 H   0  0  0  0  0  0  0  0  0  0  0  0
   54.5879   24.3764   43.5070 H   0  0  0  0  0  0  0  0  0  0  0  0
  1  2  2  0
  2  3  1  0
  3  4  1  0
  4  5  2  0
  5  6  1  0
  6  7  2  0
  7  8  1  0
  8  9  2  0
  9 10  1  0
 10 11  2  0
 10 12  1  0
 12 13  1  0
 13 14  1  0
 14 15  2  0
 15 16  1  0
 16 17  2  0
 17 18  1  0
 18 19  2  0
  2 20  1  0
 20 21  1  0
 21 22  2  0
 22 23  1  0
 23 24  2  0
 23 25  1  0
 25 26  1  0
  9  4  1  0
 19 14  1  0
 26 20  2  0
  5 27  1  0
  6 28  1  0
  7 29  1  0
  8 30  1  0
 13 31  1  0
 13 32  1  0
 15 33  1  0
 16 34  1  0
 17 35  1  0
 18 36  1  0
 19 37  1  0
 21 38  1  0
 22 39  1  0
 26 40  1  0
M  CHG  3   3  -1  12  -1  25  -1
M  END
>  <UniqueID>  (84) 
79

>  <SMILES>  (84) 
O=C([N-]c1ccccc1C(=O)[N-]Cc1ccccc1)c1ccc(=O)[n-]c1

>  <Energy>  (84) 
47.53864565981739

>  <Genealogy>  (84) 
O=C([N-]c1ccccc1C(=O)[N-]Cc1ccccc1)c1ccc(=O)[n-]c1 (protonated)
O=C([N-]c1ccccc1C(=O)[N-]Cc1ccccc1)c1ccc(=O)[n-]c1 (3D coordinates assigned)
O=C([N-]c1ccccc1C(=O)[N-]Cc1ccccc1)c1ccc(=O)[n-]c1 (optimized conformer: 47.53864565981739 kcal/mol)

>  <smiles>  (84) 
O=C(Nc1ccccc1C(=O)NCc1ccccc1)c1ccc(=O)[nH]c1

>  <score_type>  (84) 
oracle

>  <origin>  (84) 
adg

>  <m_score__min__energy>  (84) 
-14.6

>  <m_primary>  (84) 
energy

$$$$
84:0
     RDKit          3D

 72 77  0  0  0  0  0  0  0  0999 V2000
   58.8270   32.2970   50.7290 C   0  0  0  0  0  0  0  0  0  0  0  0
   59.5320   31.1040   50.1650 C   0  0  0  0  0  0  0  0  0  0  0  0
   60.8730   30.7900   50.3650 C   0  0  0  0  0  0  0  0  0  0  0  0
   61.2960   29.6650   49.7200 N   0  0  0  0  0  0  0  0  0  0  0  0
   60.3050   29.0840   49.0060 C   0  0  0  0  0  0  0  0  0  0  0  0
   60.4970   27.8480   48.1790 C   0  0  0  0  0  0  0  0  0  0  0  0
   59.8120   27.9760   46.8750 N   0  0  0  0  0  0  0  0  0  0  0  0
   60.5570   28.2000   45.7500 C   0  0  0  0  0  0  0  0  0  0  0  0
   59.9530   28.3130   44.4990 C   0  0  0  0  0  0  0  0  0  0  0  0
   58.5750   28.2110   44.3950 C   0  0  0  0  0  0  0  0  0  0  0  0
   57.7820   27.9990   45.5400 C   0  0  0  0  0  0  0  0  0  0  0  0
   56.3000   27.8780   45.3890 C   0  0  0  0  0  0  0  0  0  0  0  0
   55.7130   26.8210   45.7630 O   0  0  0  0  0  0  0  0  0  0  0  0
   55.5230   28.9590   44.8610 N   0  0  0  0  0  0  0  0  0  0  0  0
   56.1180   29.9990   44.0420 C   0  0  0  0  0  0  0  0  0  0  0  0
   57.0480   30.7720   44.8690 C   0  0  0  0  0  0  0  0  0  0  0  0
   57.7770   31.4660   45.5310 C   0  0  0  0  0  0  0  0  0  0  0  0
   58.6560   32.2610   46.3390 C   0  0  0  0  0  0  0  0  0  0  0  0
   58.1970   33.4650   46.8880 C   0  0  0  0  0  0  0  0  0  0  0  0
   59.0470   34.2450   47.6790 C   0  0  0  0  0  0  0  0  0  0  0  0
   60.3600   33.8300   47.9170 C   0  0  0  0  0  0  0  0  0  0  0  0
   61.1840   34.6000   48.6760 N   0  0  0  0  0  0  0  0  0  0  0  0
   62.4750   34.2520   48.9000 C   0  0  0  0  0  0  0  0  0  0  0  0
   63.0050   33.0790   48.3360 C   0  0  0  0  0  0  0  0  0  0  0  0
   64.3810   32.6960   48.5310 N   0  0  0  0  0  0  0  0  0  0  0  0
   64.9030   31.9020   49.6530 C   0  0  0  0  0  0  0  0  0  0  0  0
   63.9010   31.8410   50.8170 C   0  0  0  0  0  0  0  0  0  0  0  0
   64.5870   31.2200   52.0350 C   0  0  0  0  0  0  0  0  0  0  0  0
   65.7240   32.0420   52.5280 N   0  0  0  0  0  0  0  0  0  0  0  0
   66.7080   31.2000   53.2390 C   0  0  0  0  0  0  0  0  0  0  0  0
   66.8840   29.8890   52.5310 C   0  0  0  0  0  0  0  0  0  0  0  0
   66.4840   28.7030   53.0470 N   0  0  0  0  0  0  0  0  0  0  0  0
   66.8510   27.8550   52.0650 C   0  0  0  0  0  0  0  0  0  0  0  0
   67.4070   28.4970   51.0590 O   0  0  0  0  0  0  0  0  0  0  0  0
   67.4600   29.7690   51.3150 N   0  0  0  0  0  0  0  0  0  0  0  0
   66.3660   32.9190   51.5120 C   0  0  0  0  0  0  0  0  0  0  0  0
   66.3330   32.3240   50.0950 C   0  0  0  0  0  0  0  0  0  0  0  0
   62.1640   32.2570   47.5740 C   0  0  0  0  0  0  0  0  0  0  0  0
   60.8340   32.6300   47.3490 C   0  0  0  0  0  0  0  0  0  0  0  0
   59.9780   31.8450   46.5580 C   0  0  0  0  0  0  0  0  0  0  0  0
   58.4390   27.8740   46.7940 C   0  0  0  0  0  0  0  0  0  0  0  0
   57.7600   27.6750   47.8500 O   0  0  0  0  0  0  0  0  0  0  0  0
   58.8690   29.9770   49.1010 S   0  0  0  0  0  0  0  0  0  0  0  0
   58.8531   32.2528   51.8278 H   0  0  0  0  0  0  0  0  0  0  0  0
   59.3280   33.2146   50.3869 H   0  0  0  0  0  0  0  0  0  0  0  0
   57.7815   32.3007   50.3869 H   0  0  0  0  0  0  0  0  0  0  0  0
   61.5386   31.4003   50.9931 H   0  0  0  0  0  0  0  0  0  0  0  0
   61.5724   27.6925   48.0075 H   0  0  0  0  0  0  0  0  0  0  0  0
   60.0673   26.9920   48.7200 H   0  0  0  0  0  0  0  0  0  0  0  0
   61.6499   28.2924   45.8339 H   0  0  0  0  0  0  0  0  0  0  0  0
   60.5655   28.4819   43.6011 H   0  0  0  0  0  0  0  0  0  0  0  0
   58.0955   28.2964   43.4087 H   0  0  0  0  0  0  0  0  0  0  0  0
   56.6613   29.5430   43.2012 H   0  0  0  0  0  0  0  0  0  0  0  0
   55.3328   30.6584   43.6438 H   0  0  0  0  0  0  0  0  0  0  0  0
   57.1661   33.7978   46.6968 H   0  0  0  0  0  0  0  0  0  0  0  0
   58.6813   35.1866   48.1144 H   0  0  0  0  0  0  0  0  0  0  0  0
   63.1122   34.8923   49.5277 H   0  0  0  0  0  0  0  0  0  0  0  0
   65.0950   33.2700   48.0280 H   0  0  0  0  0  0  0  0  0  0  0  0
   65.0195   30.8731   49.2818 H   0  0  0  0  0  0  0  0  0  0  0  0
   63.5609   32.8575   51.0641 H   0  0  0  0  0  0  0  0  0  0  0  0
   63.0336   31.2294   50.5280 H   0  0  0  0  0  0  0  0  0  0  0  0
   63.8477   31.1194   52.8433 H   0  0  0  0  0  0  0  0  0  0  0  0
   64.9884   30.2422   51.7305 H   0  0  0  0  0  0  0  0  0  0  0  0
   67.6742   31.7245   53.2758 H   0  0  0  0  0  0  0  0  0  0  0  0
   66.3425   31.0083   54.2586 H   0  0  0  0  0  0  0  0  0  0  0  0
   66.7045   26.7654   52.1000 H   0  0  0  0  0  0  0  0  0  0  0  0
   65.8383   33.8841   51.4989 H   0  0  0  0  0  0  0  0  0  0  0  0
   67.4227   33.0314   51.7962 H   0  0  0  0  0  0  0  0  0  0  0  0
   66.7115   33.0773   49.3884 H   0  0  0  0  0  0  0  0  0  0  0  0
   66.9590   31.4195   50.1004 H   0  0  0  0  0  0  0  0  0  0  0  0
   62.5497   31.3172   47.1521 H   0  0  0  0  0  0  0  0  0  0  0  0
   60.3430   30.9079   46.1122 H   0  0  0  0  0  0  0  0  0  0  0  0
  1  2  1  0
  2  3  2  0
  3  4  1  0
  4  5  2  0
  5  6  1  0
  6  7  1  0
  7  8  1  0
  8  9  2  0
  9 10  1  0
 10 11  2  0
 11 12  1  0
 12 13  2  0
 12 14  1  0
 14 15  1  0
 15 16  1  0
 16 17  3  0
 17 18  1  0
 18 19  2  0
 19 20  1  0
 20 21  2  0
 21 22  1  0
 22 23  2  0
 23 24  1  0
 24 25  1  0
 25 26  1  0
 26 27  1  0
 27 28  1  0
 28 29  1  0
 29 30  1  0
 30 31  1  0
 31 32  1  0
 32 33  2  0
 33 34  1  0
 34 35  1  0
 29 36  1  0
 36 37  1  0
 24 38  2  0
 38 39  1  0
 39 40  2  0
 11 41  1  0
 41 42  2  0
  5 43  1  0
 43  2  1  0
 41  7  1  0
 40 18  1  0
 39 21  1  0
 37 26  1  0
 35 31  2  0
  1 44  1  0
  1 45  1  0
  1 46  1  0
  3 47  1  0
  6 48  1  0
  6 49  1  0
  8 50  1  0
  9 51  1  0
 10 52  1  0
 15 53  1  0
 15 54  1  0
 19 55  1  0
 20 56  1  0
 23 57  1  0
 25 58  1  0
 26 59  1  0
 27 60  1  0
 27 61  1  0
 28 62  1  0
 28 63  1  0
 30 64  1  0
 30 65  1  0
 33 66  1  0
 36 67  1  0
 36 68  1  0
 37 69  1  0
 37 70  1  0
 38 71  1  0
 40 72  1  0
M  CHG  1  14  -1
M  END
>  <UniqueID>  (85) 
80

>  <SMILES>  (85) 
Cc1cnc(Cn2cccc(C(=O)[N-]CC#Cc3ccc4ncc(NC5CCN(Cc6ncon6)CC5)cc4c3)c2=O)s1

>  <Energy>  (85) 
155.35359734880228

>  <Genealogy>  (85) 
Cc1cnc(Cn2cccc(C(=O)[N-]CC#Cc3ccc4ncc(NC5CCN(Cc6ncon6)CC5)cc4c3)c2=O)s1 (protonated)
Cc1cnc(Cn2cccc(C(=O)[N-]CC#Cc3ccc4ncc(NC5CCN(Cc6ncon6)CC5)cc4c3)c2=O)s1 (3D coordinates assigned)
Cc1cnc(Cn2cccc(C(=O)[N-]CC#Cc3ccc4ncc(NC5CCN(Cc6ncon6)CC5)cc4c3)c2=O)s1 (nonaromatic ring conformer: 155.35359734880228 kcal/mol)

>  <smiles>  (85) 
Cc1cnc(Cn2cccc(C(=O)NCC#Cc3ccc4ncc(NC5CCN(Cc6ncon6)CC5)cc4c3)c2=O)s1

>  <score_type>  (85) 
oracle

>  <origin>  (85) 
adg

>  <m_score__min__energy>  (85) 
-13.24

>  <m_primary>  (85) 
energy

$$$$
