0:0
     RDKit          3D

 60 63  0  0  0  0  0  0  0  0999 V2000
   58.7520   24.0340   46.1560 H   0  0  0  0  0  0  0  0  0  0  0  0
   59.1530   23.4110   45.4970 O   0  0  0  0  0  0  0  0  0  0  0  0
   58.1100   22.5810   45.0650 C   0  0  0  0  0  0  0  0  0  0  0  0
   58.0826   21.6766   45.6905 H   0  0  0  0  0  0  0  0  0  0  0  0
   58.2823   22.3059   44.0140 H   0  0  0  0  0  0  0  0  0  0  0  0
   56.7620   23.3180   45.1770 C   0  0  1  0  0  0  0  0  0  0  0  0
   56.2580   22.9404   46.0789 H   0  0  0  0  0  0  0  0  0  0  0  0
   56.9750   24.7630   45.3260 N   0  0  0  0  0  0  0  0  0  0  0  0
   57.9140   25.1750   45.1270 H   0  0  0  0  0  0  0  0  0  0  0  0
   55.9430   25.6580   45.7620 C   0  0  0  0  0  0  0  0  0  0  0  0
   54.7800   25.2210   45.9890 O   0  0  0  0  0  0  0  0  0  0  0  0
   56.2510   27.0530   45.9200 N   0  0  0  0  0  0  0  0  0  0  0  0
   57.3970   27.6280   45.6930 C   0  0  0  0  0  0  0  0  0  0  0  0
   57.9160   28.5380   46.5620 N   0  0  0  0  0  0  0  0  0  0  0  0
   59.1220   29.1300   46.3440 C   0  0  0  0  0  0  0  0  0  0  0  0
   59.6390   30.0720   47.3050 N   0  0  0  0  0  0  0  0  0  0  0  0
   60.7060   31.0190   46.9490 C   0  0  0  0  0  0  0  0  0  0  0  0
   60.2511   31.9824   46.6754 H   0  0  0  0  0  0  0  0  0  0  0  0
   61.2720   30.5970   46.1054 H   0  0  0  0  0  0  0  0  0  0  0  0
   61.6640   31.2380   48.0970 C   0  0  0  0  0  0  0  0  0  0  0  0
   61.4250   30.7110   49.3810 C   0  0  0  0  0  0  0  0  0  0  0  0
   62.3250   30.9340   50.3740 N   0  0  0  0  0  0  0  0  0  0  0  0
   63.4480   31.6750   50.1660 C   0  0  0  0  0  0  0  0  0  0  0  0
   64.2950   31.9040   51.1260 N   0  0  0  0  0  0  0  0  0  0  0  0
   65.4670   32.7350   51.0740 C   0  0  0  0  0  0  0  0  0  0  0  0
   66.6310   32.2180   50.4950 C   0  0  0  0  0  0  0  0  0  0  0  0
   66.6209   31.2074   50.0608 H   0  0  0  0  0  0  0  0  0  0  0  0
   67.8060   32.9730   50.4630 C   0  0  0  0  0  0  0  0  0  0  0  0
   68.7091   32.5573   49.9924 H   0  0  0  0  0  0  0  0  0  0  0  0
   67.8430   34.2540   51.0250 C   0  0  0  0  0  0  0  0  0  0  0  0
   69.0460   34.9730   50.9670 O   0  0  0  0  0  0  0  0  0  0  0  0
   69.1670   36.3640   51.2460 C   0  0  0  0  0  0  0  0  0  0  0  0
   69.1805   36.5198   52.3348 H   0  0  0  0  0  0  0  0  0  0  0  0
   70.1017   36.7456   50.8094 H   0  0  0  0  0  0  0  0  0  0  0  0
   68.3122   36.9013   50.8094 H   0  0  0  0  0  0  0  0  0  0  0  0
   66.6820   34.7700   51.6320 C   0  0  0  0  0  0  0  0  0  0  0  0
   66.6989   35.7748   52.0794 H   0  0  0  0  0  0  0  0  0  0  0  0
   65.5080   34.0120   51.6690 C   0  0  0  0  0  0  0  0  0  0  0  0
   64.6121   34.4140   52.1647 H   0  0  0  0  0  0  0  0  0  0  0  0
   63.6730   32.2180   48.9430 N   0  0  0  0  0  0  0  0  0  0  0  0
   62.8120   32.0160   47.9120 C   0  0  0  0  0  0  0  0  0  0  0  0
   63.0179   32.4652   46.9292 H   0  0  0  0  0  0  0  0  0  0  0  0
   60.2390   29.8310   49.6560 C   0  0  0  0  0  0  0  0  0  0  0  0
   59.8799   30.0213   50.6782 H   0  0  0  0  0  0  0  0  0  0  0  0
   60.5494   28.7817   49.5440 H   0  0  0  0  0  0  0  0  0  0  0  0
   59.1080   30.1090   48.6710 C   0  0  0  0  0  0  0  0  0  0  0  0
   58.6801   31.1021   48.8727 H   0  0  0  0  0  0  0  0  0  0  0  0
   58.3237   29.3460   48.7836 H   0  0  0  0  0  0  0  0  0  0  0  0
   59.8440   28.7970   45.1880 C   0  0  0  0  0  0  0  0  0  0  0  0
   60.8198   29.2611   44.9822 H   0  0  0  0  0  0  0  0  0  0  0  0
   59.2990   27.8660   44.3060 C   0  0  0  0  0  0  0  0  0  0  0  0
   59.8448   27.5908   43.3915 H   0  0  0  0  0  0  0  0  0  0  0  0
   58.0950   27.2980   44.5740 N   0  0  0  0  0  0  0  0  0  0  0  0
   55.8260   23.0170   43.9810 C   0  0  0  0  0  0  0  0  0  0  0  0
   55.3669   23.9634   43.6592 H   0  0  0  0  0  0  0  0  0  0  0  0
   55.0933   22.2789   44.3393 H   0  0  0  0  0  0  0  0  0  0  0  0
   56.5170   22.3850   42.7670 C   0  0  0  0  0  0  0  0  0  0  0  0
   57.2882   21.6796   43.1101 H   0  0  0  0  0  0  0  0  0  0  0  0
   55.7731   21.8482   42.1600 H   0  0  0  0  0  0  0  0  0  0  0  0
   56.9854   23.1737   42.1600 H   0  0  0  0  0  0  0  0  0  0  0  0
  1  2  1  0
  2  3  1  0
  3  4  1  0
  3  5  1  0
  3  6  1  0
  6  7  1  1
  6  8  1  0
  8  9  1  0
  8 10  1  0
 10 11  2  0
 10 12  1  0
 12 13  2  0
 13 14  1  0
 14 15  2  0
 15 16  1  0
 16 17  1  0
 17 18  1  0
 17 19  1  0
 17 20  1  0
 20 21  1  0
 21 22  2  0
 22 23  1  0
 23 24  2  3
 24 25  1  0
 25 26  2  0
 26 27  1  0
 26 28  1  0
 28 29  1  0
 28 30  2  0
 30 31  1  0
 31 32  1  0
 32 33  1  0
 32 34  1  0
 32 35  1  0
 30 36  1  0
 36 37  1  0
 36 38  2  0
 38 39  1  0
 23 40  1  0
 40 41  1  0
 41 42  1  0
 21 43  1  0
 43 44  1  0
 43 45  1  0
 43 46  1  0
 46 47  1  0
 46 48  1  0
 15 49  1  0
 49 50  1  0
 49 51  2  0
 51 52  1  0
 51 53  1  0
  6 54  1  0
 54 55  1  0
 54 56  1  0
 54 57  1  0
 57 58  1  0
 57 59  1  0
 57 60  1  0
 53 13  1  0
 46 16  1  0
 41 20  2  0
 38 25  1  0
M  CHG  2  40  -1  53  -1
M  END
>  <UniqueID>  (1) 
1

>  <SMILES>  (1) 
CC[C@@H](CO)NC(=O)/N=c1\nc(N2CCc3nc(=Nc4ccc(OC)cc4)[n-]cc3C2)cc[n-]1

>  <Energy>  (1) 
72.00360856394158

>  <Genealogy>  (1) 
CCC(CO)NC(=O)N=c1nc(N2CCc3nc(=Nc4ccc(OC)cc4)[n-]cc3C2)cc[n-]1 (protonated)
CC[C@@H](CO)NC(=O)N=c1nc(N2CCc3nc(=Nc4ccc(OC)cc4)[n-]cc3C2)cc[n-]1 (chirality)
CC[C@@H](CO)NC(=O)/N=c1\nc(N2CCc3nc(=Nc4ccc(OC)cc4)[n-]cc3C2)cc[n-]1 (cis-trans isomerization)
CC[C@@H](CO)NC(=O)/N=c1\nc(N2CCc3nc(=Nc4ccc(OC)cc4)[n-]cc3C2)cc[n-]1 (3D coordinates assigned)
CC[C@@H](CO)NC(=O)/N=c1\nc(N2CCc3nc(=Nc4ccc(OC)cc4)[n-]cc3C2)cc[n-]1 (nonaromatic ring conformer: 72.00360856394158 kcal/mol)

>  <smiles>  (1) 
CCC(CO)NC(=O)N=c1nc(N2CCc3nc(=Nc4ccc(OC)cc4)[nH]cc3C2)cc[nH]1

>  <score_type>  (1) 
oracle

>  <origin>  (1) 
adg

>  <m_score__min__energy>  (1) 
-10.94

>  <m_primary>  (1) 
energy

$$$$
1:0
     RDKit          3D

 57 59  0  0  0  0  0  0  0  0999 V2000
   57.2364   23.0534   47.2898 H   0  0  0  0  0  0  0  0  0  0  0  0
   56.9000   24.0290   46.9090 C   0  0  0  0  0  0  0  0  0  0  0  0
   57.7700   25.0680   46.8280 N   0  0  0  0  0  0  0  0  0  0  0  0
   57.4030   26.2900   46.3600 C   0  0  0  0  0  0  0  0  0  0  0  0
   58.3120   27.2240   46.3170 N   0  0  0  0  0  0  0  0  0  0  0  0
   59.6490   27.1970   46.8370 C   0  0  0  0  0  0  0  0  0  0  0  0
   60.5010   26.4100   46.3450 O   0  0  0  0  0  0  0  0  0  0  0  0
   59.9860   27.9340   48.0160 N   0  0  0  0  0  0  0  0  0  0  0  0
   59.8750   29.3530   48.1940 C   0  0  0  0  0  0  0  0  0  0  0  0
   58.9860   29.9200   49.1240 C   0  0  0  0  0  0  0  0  0  0  0  0
   58.3864   29.2674   49.7756 H   0  0  0  0  0  0  0  0  0  0  0  0
   58.8600   31.3070   49.2250 C   0  0  0  0  0  0  0  0  0  0  0  0
   58.1684   31.7410   49.9621 H   0  0  0  0  0  0  0  0  0  0  0  0
   59.6110   32.1510   48.3910 C   0  0  0  0  0  0  0  0  0  0  0  0
   59.4010   33.6420   48.4290 C   0  0  0  0  0  0  0  0  0  0  0  0
   60.3790   34.1422   48.3723 H   0  0  0  0  0  0  0  0  0  0  0  0
   58.8859   33.8941   49.3677 H   0  0  0  0  0  0  0  0  0  0  0  0
   58.5300   34.1170   47.2600 C   0  0  0  0  0  0  0  0  0  0  0  0
   59.1808   34.4716   46.4471 H   0  0  0  0  0  0  0  0  0  0  0  0
   57.8796   34.9301   47.6147 H   0  0  0  0  0  0  0  0  0  0  0  0
   57.6870   33.0290   46.7590 N   0  0  0  0  0  0  0  0  0  0  0  0
   57.5250   32.2040   47.3780 H   0  0  0  0  0  0  0  0  0  0  0  0
   57.2560   32.9480   45.3950 C   0  0  0  0  0  0  0  0  0  0  0  0
   57.4410   33.9200   44.6130 O   0  0  0  0  0  0  0  0  0  0  0  0
   56.6470   31.7660   44.9460 O   0  0  0  0  0  0  0  0  0  0  0  0
   57.1930   30.8390   43.9950 C   0  0  0  0  0  0  0  0  0  0  0  0
   57.7800   31.5890   42.7830 C   0  0  0  0  0  0  0  0  0  0  0  0
   58.4222   32.4096   43.1355 H   0  0  0  0  0  0  0  0  0  0  0  0
   58.3756   30.8928   42.1743 H   0  0  0  0  0  0  0  0  0  0  0  0
   56.9611   31.9999   42.1743 H   0  0  0  0  0  0  0  0  0  0  0  0
   58.3260   30.0790   44.7020 C   0  0  0  0  0  0  0  0  0  0  0  0
   58.2001   30.1635   45.7915 H   0  0  0  0  0  0  0  0  0  0  0  0
   58.2942   29.0189   44.4103 H   0  0  0  0  0  0  0  0  0  0  0  0
   59.2948   30.5106   44.4103 H   0  0  0  0  0  0  0  0  0  0  0  0
   56.1230   29.8280   43.5410 C   0  0  0  0  0  0  0  0  0  0  0  0
   55.6462   29.3775   44.4240 H   0  0  0  0  0  0  0  0  0  0  0  0
   55.3626   30.3451   42.9374 H   0  0  0  0  0  0  0  0  0  0  0  0
   56.5962   29.0395   42.9374 H   0  0  0  0  0  0  0  0  0  0  0  0
   60.4870   31.5840   47.4530 C   0  0  0  0  0  0  0  0  0  0  0  0
   61.0768   32.2355   46.7914 H   0  0  0  0  0  0  0  0  0  0  0  0
   60.6140   30.1950   47.3550 C   0  0  0  0  0  0  0  0  0  0  0  0
   61.3000   29.7607   46.6128 H   0  0  0  0  0  0  0  0  0  0  0  0
   56.0480   26.4860   45.9980 C   0  0  0  0  0  0  0  0  0  0  0  0
   55.5520   27.7250   45.6140 O   0  0  0  0  0  0  0  0  0  0  0  0
   55.1840   25.4400   46.0750 N   0  0  0  0  0  0  0  0  0  0  0  0
   55.5700   24.2080   46.5040 C   0  0  0  0  0  0  0  0  0  0  0  0
   54.5720   23.1080   46.5650 C   0  0  0  0  0  0  0  0  0  0  0  0
   54.9120   21.8870   47.1780 C   0  0  0  0  0  0  0  0  0  0  0  0
   55.9172   21.7519   47.6039 H   0  0  0  0  0  0  0  0  0  0  0  0
   53.9830   20.8450   47.2500 C   0  0  0  0  0  0  0  0  0  0  0  0
   54.2615   19.8932   47.7259 H   0  0  0  0  0  0  0  0  0  0  0  0
   52.7020   21.0100   46.7190 C   0  0  0  0  0  0  0  0  0  0  0  0
   51.9734   20.1877   46.7736 H   0  0  0  0  0  0  0  0  0  0  0  0
   52.3470   22.2190   46.1190 C   0  0  0  0  0  0  0  0  0  0  0  0
   51.3362   22.3499   45.7054 H   0  0  0  0  0  0  0  0  0  0  0  0
   53.2730   23.2650   46.0420 C   0  0  0  0  0  0  0  0  0  0  0  0
   52.9851   24.2160   45.5702 H   0  0  0  0  0  0  0  0  0  0  0  0
  1  2  1  0
  2  3  1  0
  3  4  1  0
  4  5  2  0
  5  6  1  0
  6  7  2  0
  6  8  1  0
  8  9  1  0
  9 10  2  0
 10 11  1  0
 10 12  1  0
 12 13  1  0
 12 14  2  0
 14 15  1  0
 15 16  1  0
 15 17  1  0
 15 18  1  0
 18 19  1  0
 18 20  1  0
 18 21  1  0
 21 22  1  0
 21 23  1  0
 23 24  2  0
 23 25  1  0
 25 26  1  0
 26 27  1  0
 27 28  1  0
 27 29  1  0
 27 30  1  0
 26 31  1  0
 31 32  1  0
 31 33  1  0
 31 34  1  0
 26 35  1  0
 35 36  1  0
 35 37  1  0
 35 38  1  0
 14 39  1  0
 39 40  1  0
 39 41  2  0
 41 42  1  0
  4 43  1  0
 43 44  1  0
 43 45  2  0
 45 46  1  0
 46 47  1  0
 47 48  2  0
 48 49  1  0
 48 50  1  0
 50 51  1  0
 50 52  2  0
 52 53  1  0
 52 54  1  0
 54 55  1  0
 54 56  2  0
 56 57  1  0
 46  2  2  0
 56 47  1  0
 41  9  1  0
M  CHG  3   3  -1   8  -1  44  -1
M  END
>  <UniqueID>  (2) 
2

>  <SMILES>  (2) 
CC(C)(C)OC(=O)NCCc1ccc([N-]C(=O)/N=c2/[n-]cc(-c3ccccc3)nc2[O-])cc1

>  <Energy>  (2) 
67.970788339508

>  <Genealogy>  (2) 
CC(C)(C)OC(=O)NCCc1ccc([N-]C(=O)N=c2[n-]cc(-c3ccccc3)nc2[O-])cc1 (protonated)
CC(C)(C)OC(=O)NCCc1ccc([N-]C(=O)/N=c2/[n-]cc(-c3ccccc3)nc2[O-])cc1 (cis-trans isomerization)
CC(C)(C)OC(=O)NCCc1ccc([N-]C(=O)/N=c2/[n-]cc(-c3ccccc3)nc2[O-])cc1 (3D coordinates assigned)
CC(C)(C)OC(=O)NCCc1ccc([N-]C(=O)/N=c2/[n-]cc(-c3ccccc3)nc2[O-])cc1 (optimized conformer: 67.970788339508 kcal/mol)

>  <smiles>  (2) 
CC(C)(C)OC(=O)NCCc1ccc(NC(=O)N=c2[nH]cc(-c3ccccc3)nc2O)cc1

>  <score_type>  (2) 
oracle

>  <origin>  (2) 
adg

>  <m_score__min__energy>  (2) 
-14.130000000000001

>  <m_primary>  (2) 
energy

$$$$
2:0
     RDKit          3D

 53 56  0  0  0  0  0  0  0  0999 V2000
   52.4790   24.0890   45.0700 C   0  0  0  0  0  0  0  0  0  0  0  0
   53.7410   24.5040   45.5840 O   0  0  0  0  0  0  0  0  0  0  0  0
   54.9840   24.1260   45.0500 C   0  0  0  0  0  0  0  0  0  0  0  0
   55.1110   23.0220   44.1820 C   0  0  0  0  0  0  0  0  0  0  0  0
   56.3680   22.6270   43.7180 C   0  0  0  0  0  0  0  0  0  0  0  0
   57.5110   23.3200   44.1190 C   0  0  0  0  0  0  0  0  0  0  0  0
   57.3980   24.4200   44.9690 C   0  0  0  0  0  0  0  0  0  0  0  0
   56.1400   24.8500   45.4150 C   0  0  0  0  0  0  0  0  0  0  0  0
   56.0780   25.9850   46.2890 N   0  0  0  0  0  0  0  0  0  0  0  0
   56.8460   27.1840   46.1440 C   0  0  0  0  0  0  0  0  0  0  0  0
   57.9080   27.3410   46.8060 O   0  0  0  0  0  0  0  0  0  0  0  0
   56.3900   28.2030   45.2440 N   0  0  0  0  0  0  0  0  0  0  0  0
   56.9720   29.5140   45.1440 C   0  0  0  0  0  0  0  0  0  0  0  0
   56.8310   30.2960   43.9710 C   0  0  0  0  0  0  0  0  0  0  0  0
   57.4260   31.5640   43.8810 C   0  0  0  0  0  0  0  0  0  0  0  0
   58.1700   32.0370   44.9640 C   0  0  0  0  0  0  0  0  0  0  0  0
   58.3270   31.2650   46.1020 C   0  0  0  0  0  0  0  0  0  0  0  0
   57.7480   30.0030   46.2130 C   0  0  0  0  0  0  0  0  0  0  0  0
   59.3160   32.0800   47.2790 S   0  0  0  0  0  0  0  0  0  0  0  0
   60.6060   31.3530   47.5350 O   0  0  0  0  0  0  0  0  0  0  0  0
   58.5700   32.3890   48.5460 O   0  0  0  0  0  0  0  0  0  0  0  0
   59.5500   33.4970   46.3180 N   0  0  0  0  0  0  0  0  0  0  0  0
   60.4950   34.5640   46.6340 C   0  0  0  0  0  0  0  0  0  0  0  0
   61.6360   34.0270   47.4540 C   0  0  0  0  0  0  0  0  0  0  0  0
   61.5740   34.0430   48.8560 C   0  0  0  0  0  0  0  0  0  0  0  0
   62.6200   33.5120   49.6150 C   0  0  0  0  0  0  0  0  0  0  0  0
   63.7450   32.9610   48.9830 C   0  0  0  0  0  0  0  0  0  0  0  0
   64.8530   32.3530   49.7990 C   0  0  0  0  0  0  0  0  0  0  0  0
   66.0400   33.0700   49.6060 O   0  0  0  0  0  0  0  0  0  0  0  0
   63.7990   32.9270   47.5820 C   0  0  0  0  0  0  0  0  0  0  0  0
   62.7540   33.4580   46.8220 C   0  0  0  0  0  0  0  0  0  0  0  0
   58.8760   33.3200   45.0670 C   0  0  0  0  0  0  0  0  0  0  0  0
   58.8900   34.1870   44.1530 O   0  0  0  0  0  0  0  0  0  0  0  0
   51.7987   23.8653   45.9049 H   0  0  0  0  0  0  0  0  0  0  0  0
   52.0513   24.8938   44.4541 H   0  0  0  0  0  0  0  0  0  0  0  0
   52.6125   23.1874   44.4541 H   0  0  0  0  0  0  0  0  0  0  0  0
   54.2140   22.4680   43.8681 H   0  0  0  0  0  0  0  0  0  0  0  0
   56.4570   21.7687   43.0358 H   0  0  0  0  0  0  0  0  0  0  0  0
   58.5015   22.9986   43.7646 H   0  0  0  0  0  0  0  0  0  0  0  0
   58.3033   24.9547   45.2922 H   0  0  0  0  0  0  0  0  0  0  0  0
   55.6540   27.9360   44.5520 H   0  0  0  0  0  0  0  0  0  0  0  0
   56.2496   29.9056   43.1227 H   0  0  0  0  0  0  0  0  0  0  0  0
   57.3084   32.1744   42.9735 H   0  0  0  0  0  0  0  0  0  0  0  0
   57.8943   29.3984   47.1202 H   0  0  0  0  0  0  0  0  0  0  0  0
   60.8889   34.9883   45.6987 H   0  0  0  0  0  0  0  0  0  0  0  0
   59.9749   35.3421   47.2120 H   0  0  0  0  0  0  0  0  0  0  0  0
   60.6973   34.4759   49.3600 H   0  0  0  0  0  0  0  0  0  0  0  0
   62.5612   33.5260   50.7133 H   0  0  0  0  0  0  0  0  0  0  0  0
   64.5791   32.3822   50.8639 H   0  0  0  0  0  0  0  0  0  0  0  0
   65.0052   31.3111   49.4809 H   0  0  0  0  0  0  0  0  0  0  0  0
   66.3630   32.8450   48.6940 H   0  0  0  0  0  0  0  0  0  0  0  0
   64.6689   32.4798   47.0788 H   0  0  0  0  0  0  0  0  0  0  0  0
   62.8069   33.4304   45.7236 H   0  0  0  0  0  0  0  0  0  0  0  0
  1  2  1  0
  2  3  1  0
  3  4  2  0
  4  5  1  0
  5  6  2  0
  6  7  1  0
  7  8  2  0
  8  9  1  0
  9 10  1  0
 10 11  2  0
 10 12  1  0
 12 13  1  0
 13 14  2  0
 14 15  1  0
 15 16  2  0
 16 17  1  0
 17 18  2  0
 17 19  1  0
 19 20  2  0
 19 21  2  0
 19 22  1  0
 22 23  1  0
 23 24  1  0
 24 25  2  0
 25 26  1  0
 26 27  2  0
 27 28  1  0
 28 29  1  0
 27 30  1  0
 30 31  2  0
 22 32  1  0
 32 33  2  0
  8  3  1  0
 18 13  1  0
 31 24  1  0
 32 16  1  0
  1 34  1  0
  1 35  1  0
  1 36  1  0
  4 37  1  0
  5 38  1  0
  6 39  1  0
  7 40  1  0
 12 41  1  0
 14 42  1  0
 15 43  1  0
 18 44  1  0
 23 45  1  0
 23 46  1  0
 25 47  1  0
 26 48  1  0
 28 49  1  0
 28 50  1  0
 29 51  1  0
 30 52  1  0
 31 53  1  0
M  CHG  1   9  -1
M  END
>  <UniqueID>  (3) 
3

>  <SMILES>  (3) 
COc1ccccc1[N-]C(=O)Nc1ccc2c(c1)S(=O)(=O)N(Cc1ccc(CO)cc1)C2=O

>  <Energy>  (3) 
85.13147620145526

>  <Genealogy>  (3) 
COc1ccccc1[N-]C(=O)Nc1ccc2c(c1)S(=O)(=O)N(Cc1ccc(CO)cc1)C2=O (protonated)
COc1ccccc1[N-]C(=O)Nc1ccc2c(c1)S(=O)(=O)N(Cc1ccc(CO)cc1)C2=O (3D coordinates assigned)
COc1ccccc1[N-]C(=O)Nc1ccc2c(c1)S(=O)(=O)N(Cc1ccc(CO)cc1)C2=O (nonaromatic ring conformer: 85.13147620145526 kcal/mol)

>  <smiles>  (3) 
COc1ccccc1NC(=O)Nc1ccc2c(c1)S(=O)(=O)N(Cc1ccc(CO)cc1)C2=O

>  <score_type>  (3) 
oracle

>  <origin>  (3) 
adg

>  <m_score__min__energy>  (3) 
-11.619999999999999

>  <m_primary>  (3) 
energy

$$$$
3:0
     RDKit          3D

 47 48  0  0  0  0  0  0  0  0999 V2000
   57.0590   32.6990   40.6270 C   0  0  0  0  0  0  0  0  0  0  0  0
   58.1080   32.1830   41.6120 C   0  0  0  0  0  0  0  0  0  0  0  0
   57.8850   32.6840   43.0480 C   0  0  0  0  0  0  0  0  0  0  0  0
   57.7080   31.5830   44.1110 C   0  0  0  0  0  0  0  0  0  0  0  0
   56.2720   31.0340   44.2150 C   0  0  0  0  0  0  0  0  0  0  0  0
   56.1990   29.5640   43.9330 C   0  0  0  0  0  0  0  0  0  0  0  0
   56.4140   29.1370   42.7670 O   0  0  0  0  0  0  0  0  0  0  0  0
   55.9110   28.6510   44.9940 N   0  0  0  0  0  0  0  0  0  0  0  0
   57.0990   27.5670   45.6320 S   0  0  0  0  0  0  0  0  0  0  0  0
   56.4680   26.7080   46.6910 O   0  0  0  0  0  0  0  0  0  0  0  0
   57.6030   26.6740   44.5320 O   0  0  0  0  0  0  0  0  0  0  0  0
   58.4210   28.4860   46.3440 C   0  0  0  0  0  0  0  0  0  0  0  0
   58.5320   28.5810   47.7360 C   0  0  0  0  0  0  0  0  0  0  0  0
   59.5690   29.3210   48.3120 C   0  0  0  0  0  0  0  0  0  0  0  0
   60.5090   29.9760   47.4960 C   0  0  0  0  0  0  0  0  0  0  0  0
   61.5930   30.7410   48.0420 N   0  0  0  0  0  0  0  0  0  0  0  0
   61.8350   32.4420   47.8030 S   0  0  0  0  0  0  0  0  0  0  0  0
   63.0090   32.6460   46.8870 O   0  0  0  0  0  0  0  0  0  0  0  0
   62.1270   33.0870   49.1280 O   0  0  0  0  0  0  0  0  0  0  0  0
   60.3830   33.1700   47.1240 C   0  0  0  0  0  0  0  0  0  0  0  0
   60.4770   34.0800   46.0600 C   0  0  0  0  0  0  0  0  0  0  0  0
   59.3210   34.6520   45.5210 C   0  0  0  0  0  0  0  0  0  0  0  0
   58.0670   34.3210   46.0430 C   0  0  0  0  0  0  0  0  0  0  0  0
   57.9690   33.4180   47.1070 C   0  0  0  0  0  0  0  0  0  0  0  0
   59.1230   32.8450   47.6480 C   0  0  0  0  0  0  0  0  0  0  0  0
   60.3880   29.8850   46.1040 C   0  0  0  0  0  0  0  0  0  0  0  0
   59.3510   29.1450   45.5290 C   0  0  0  0  0  0  0  0  0  0  0  0
   56.2078   33.1177   41.1838 H   0  0  0  0  0  0  0  0  0  0  0  0
   57.5036   33.4812   39.9942 H   0  0  0  0  0  0  0  0  0  0  0  0
   56.7108   31.8694   39.9942 H   0  0  0  0  0  0  0  0  0  0  0  0
   58.0739   31.0835   41.6156 H   0  0  0  0  0  0  0  0  0  0  0  0
   59.0851   32.5638   41.2799 H   0  0  0  0  0  0  0  0  0  0  0  0
   58.7542   33.2949   43.3333 H   0  0  0  0  0  0  0  0  0  0  0  0
   56.9384   33.2440   43.0305 H   0  0  0  0  0  0  0  0  0  0  0  0
   58.3794   30.7488   43.8594 H   0  0  0  0  0  0  0  0  0  0  0  0
   57.9441   32.0400   45.0833 H   0  0  0  0  0  0  0  0  0  0  0  0
   55.8969   31.2172   45.2327 H   0  0  0  0  0  0  0  0  0  0  0  0
   55.6607   31.5504   43.4602 H   0  0  0  0  0  0  0  0  0  0  0  0
   57.8001   28.0712   48.3797 H   0  0  0  0  0  0  0  0  0  0  0  0
   59.6500   29.3912   49.4068 H   0  0  0  0  0  0  0  0  0  0  0  0
   61.4627   34.3439   45.6491 H   0  0  0  0  0  0  0  0  0  0  0  0
   59.3981   35.3632   44.6854 H   0  0  0  0  0  0  0  0  0  0  0  0
   57.1577   34.7704   45.6173 H   0  0  0  0  0  0  0  0  0  0  0  0
   56.9823   33.1587   47.5183 H   0  0  0  0  0  0  0  0  0  0  0  0
   59.0432   32.1376   48.4866 H   0  0  0  0  0  0  0  0  0  0  0  0
   61.1145   30.3998   45.4581 H   0  0  0  0  0  0  0  0  0  0  0  0
   59.2648   29.0798   44.4343 H   0  0  0  0  0  0  0  0  0  0  0  0
  1  2  1  0
  2  3  1  0
  3  4  1  0
  4  5  1  0
  5  6  1  0
  6  7  2  0
  6  8  1  0
  8  9  1  0
  9 10  2  0
  9 11  2  0
  9 12  1  0
 12 13  2  0
 13 14  1  0
 14 15  2  0
 15 16  1  0
 16 17  1  0
 17 18  2  0
 17 19  2  0
 17 20  1  0
 20 21  2  0
 21 22  1  0
 22 23  2  0
 23 24  1  0
 24 25  2  0
 15 26  1  0
 26 27  2  0
 27 12  1  0
 25 20  1  0
  1 28  1  0
  1 29  1  0
  1 30  1  0
  2 31  1  0
  2 32  1  0
  3 33  1  0
  3 34  1  0
  4 35  1  0
  4 36  1  0
  5 37  1  0
  5 38  1  0
 13 39  1  0
 14 40  1  0
 21 41  1  0
 22 42  1  0
 23 43  1  0
 24 44  1  0
 25 45  1  0
 26 46  1  0
 27 47  1  0
M  CHG  2   8  -1  16  -1
M  END
>  <UniqueID>  (4) 
4

>  <SMILES>  (4) 
CCCCCC(=O)[N-]S(=O)(=O)c1ccc([N-]S(=O)(=O)c2ccccc2)cc1

>  <Energy>  (4) 
45.03363731515249

>  <Genealogy>  (4) 
CCCCCC(=O)[N-]S(=O)(=O)c1ccc([N-]S(=O)(=O)c2ccccc2)cc1 (protonated)
CCCCCC(=O)[N-]S(=O)(=O)c1ccc([N-]S(=O)(=O)c2ccccc2)cc1 (3D coordinates assigned)
CCCCCC(=O)[N-]S(=O)(=O)c1ccc([N-]S(=O)(=O)c2ccccc2)cc1 (optimized conformer: 45.03363731515249 kcal/mol)

>  <smiles>  (4) 
CCCCCC(=O)NS(=O)(=O)c1ccc(NS(=O)(=O)c2ccccc2)cc1

>  <score_type>  (4) 
oracle

>  <origin>  (4) 
adg

>  <m_score__min__energy>  (4) 
-11.44

>  <m_primary>  (4) 
energy

$$$$
4:0
     RDKit          3D

 29 30  0  0  0  0  0  0  0  0999 V2000
   57.3910   33.3180   45.9710 C   0  0  0  0  0  0  0  0  0  0  0  0
   57.8460   33.1420   44.5250 C   0  0  0  0  0  0  0  0  0  0  0  0
   57.4860   31.7780   44.0010 C   0  0  0  0  0  0  0  0  0  0  0  0
   57.3860   31.6140   42.7560 O   0  0  0  0  0  0  0  0  0  0  0  0
   57.1240   30.6900   44.8670 N   0  0  0  0  0  0  0  0  0  0  0  0
   57.3220   29.4190   44.6710 C   0  0  0  0  0  0  0  0  0  0  0  0
   57.5780   28.9120   43.4460 N   0  0  0  0  0  0  0  0  0  0  0  0
   57.7950   27.5700   43.4710 C   0  0  0  0  0  0  0  0  0  0  0  0
   57.7360   27.0020   44.7400 C   0  0  0  0  0  0  0  0  0  0  0  0
   57.8670   25.5470   45.0600 C   0  0  0  0  0  0  0  0  0  0  0  0
   56.5200   24.8760   44.9790 C   0  0  0  0  0  0  0  0  0  0  0  0
   56.3470   23.7350   44.1840 C   0  0  0  0  0  0  0  0  0  0  0  0
   55.1410   23.1110   44.1390 N   0  0  0  0  0  0  0  0  0  0  0  0
   54.0890   23.5700   44.8640 C   0  0  0  0  0  0  0  0  0  0  0  0
   52.9810   22.9790   44.8060 O   0  0  0  0  0  0  0  0  0  0  0  0
   54.2340   24.6670   45.6530 N   0  0  0  0  0  0  0  0  0  0  0  0
   55.4190   25.3240   45.7310 C   0  0  0  0  0  0  0  0  0  0  0  0
   55.5190   26.3310   46.4810 O   0  0  0  0  0  0  0  0  0  0  0  0
   57.3780   28.2150   45.8540 S   0  0  0  0  0  0  0  0  0  0  0  0
   58.1982   33.0058   46.6500 H   0  0  0  0  0  0  0  0  0  0  0  0
   57.1475   34.3752   46.1527 H   0  0  0  0  0  0  0  0  0  0  0  0
   56.4994   32.6999   46.1527 H   0  0  0  0  0  0  0  0  0  0  0  0
   57.3592   33.9057   43.9007 H   0  0  0  0  0  0  0  0  0  0  0  0
   58.9401   33.2500   44.4896 H   0  0  0  0  0  0  0  0  0  0  0  0
   57.6020   29.4810   42.5710 H   0  0  0  0  0  0  0  0  0  0  0  0
   58.0000   26.9824   42.5640 H   0  0  0  0  0  0  0  0  0  0  0  0
   58.5520   25.0762   44.3395 H   0  0  0  0  0  0  0  0  0  0  0  0
   58.2635   25.4368   46.0801 H   0  0  0  0  0  0  0  0  0  0  0  0
   57.1896   23.3437   43.5950 H   0  0  0  0  0  0  0  0  0  0  0  0
  1  2  1  0
  2  3  1  0
  3  4  2  0
  3  5  1  0
  5  6  2  3
  6  7  1  0
  7  8  1  0
  8  9  2  0
  9 10  1  0
 10 11  1  0
 11 12  2  0
 12 13  1  0
 13 14  1  0
 14 15  2  0
 14 16  1  0
 16 17  1  0
 17 18  2  0
  9 19  1  0
 19  6  1  0
 17 11  1  0
  1 20  1  0
  1 21  1  0
  1 22  1  0
  2 23  1  0
  2 24  1  0
  7 25  1  0
  8 26  1  0
 10 27  1  0
 10 28  1  0
 12 29  1  0
M  CHG  2  13  -1  16  -1
M  END
>  <UniqueID>  (5) 
5

>  <SMILES>  (5) 
CCC(=O)N=c1[nH]cc(Cc2c[n-]c(=O)[n-]c2=O)s1

>  <Energy>  (5) 
62.67234784768701

>  <Genealogy>  (5) 
CCC(=O)N=c1[nH]cc(Cc2c[n-]c(=O)[n-]c2=O)s1 (protonated)
CCC(=O)N=c1[nH]cc(Cc2c[n-]c(=O)[n-]c2=O)s1 (3D coordinates assigned)
CCC(=O)N=c1[nH]cc(Cc2c[n-]c(=O)[n-]c2=O)s1 (optimized conformer: 62.67234784768701 kcal/mol)

>  <smiles>  (5) 
CCC(=O)N=c1[nH]cc(Cc2c[nH]c(=O)[nH]c2=O)s1

>  <score_type>  (5) 
oracle

>  <origin>  (5) 
adg

>  <m_score__min__energy>  (5) 
-10.720000000000001

>  <m_primary>  (5) 
energy

$$$$
5:0
     RDKit          3D

 66 69  0  0  0  0  0  0  0  0999 V2000
   60.1290   31.1640   51.6000 C   0  0  0  0  0  0  0  0  0  0  0  0
   59.1190   30.5090   50.2880 S   0  0  0  0  0  0  0  0  0  0  0  0
   58.0590   29.6330   50.8920 O   0  0  0  0  0  0  0  0  0  0  0  0
   58.4570   31.6280   49.5340 O   0  0  0  0  0  0  0  0  0  0  0  0
   60.0860   29.5530   49.2130 N   0  0  0  0  0  0  0  0  0  0  0  0
   59.6070   28.4790   48.3920 C   0  0  0  0  0  0  0  0  0  0  0  0
   60.4060   27.3680   48.0680 C   0  0  0  0  0  0  0  0  0  0  0  0
   59.8890   26.3360   47.2790 C   0  0  0  0  0  0  0  0  0  0  0  0
   58.5760   26.4020   46.8000 C   0  0  0  0  0  0  0  0  0  0  0  0
   57.9490   25.0880   45.8090 S   0  0  0  0  0  0  0  0  0  0  0  0
   59.1020   24.2740   45.2960 O   0  0  0  0  0  0  0  0  0  0  0  0
   57.0450   24.1990   46.6180 O   0  0  0  0  0  0  0  0  0  0  0  0
   57.0700   25.7530   44.4680 N   0  0  0  0  0  0  0  0  0  0  0  0
   57.9930   26.4100   43.5390 C   0  0  0  0  0  0  0  0  0  0  0  0
   58.1400   27.8580   43.9180 C   0  0  0  0  0  0  0  0  0  0  0  0
   59.3690   28.3420   44.3900 C   0  0  0  0  0  0  0  0  0  0  0  0
   59.4990   29.6770   44.7830 C   0  0  0  0  0  0  0  0  0  0  0  0
   58.4000   30.5520   44.7150 C   0  0  0  0  0  0  0  0  0  0  0  0
   58.5460   31.9670   45.1330 C   0  0  0  0  0  0  0  0  0  0  0  0
   58.2650   32.8820   44.3090 O   0  0  0  0  0  0  0  0  0  0  0  0
   58.9970   32.3260   46.4540 N   0  0  0  0  0  0  0  0  0  0  0  0
   58.4420   33.4950   47.1410 C   0  0  0  0  0  0  0  0  0  0  0  0
   59.5790   34.4370   47.5400 C   0  0  0  0  0  0  0  0  0  0  0  0
   60.5860   33.6950   48.3240 N   0  0  0  0  0  0  0  0  0  0  0  0
   61.6030   34.5790   48.9340 C   0  0  0  0  0  0  0  0  0  0  0  0
   62.7540   33.8350   49.5810 C   0  0  0  0  0  0  0  0  0  0  0  0
   62.7060   33.5020   50.9450 C   0  0  0  0  0  0  0  0  0  0  0  0
   63.7630   32.8040   51.5380 C   0  0  0  0  0  0  0  0  0  0  0  0
   64.8780   32.4400   50.7760 C   0  0  0  0  0  0  0  0  0  0  0  0
   64.9380   32.7760   49.4220 C   0  0  0  0  0  0  0  0  0  0  0  0
   63.8840   33.4750   48.8260 C   0  0  0  0  0  0  0  0  0  0  0  0
   61.1820   32.6020   47.5280 C   0  0  0  0  0  0  0  0  0  0  0  0
   60.0960   31.6070   47.1120 C   0  0  0  0  0  0  0  0  0  0  0  0
   57.1770   30.0670   44.2190 C   0  0  0  0  0  0  0  0  0  0  0  0
   57.0440   28.7290   43.8400 C   0  0  0  0  0  0  0  0  0  0  0  0
   57.7870   27.5210   47.0960 C   0  0  0  0  0  0  0  0  0  0  0  0
   58.3030   28.5520   47.8880 C   0  0  0  0  0  0  0  0  0  0  0  0
   59.6958   30.8831   52.5713 H   0  0  0  0  0  0  0  0  0  0  0  0
   61.1463   30.7532   51.5196 H   0  0  0  0  0  0  0  0  0  0  0  0
   60.1689   32.2603   51.5196 H   0  0  0  0  0  0  0  0  0  0  0  0
   61.4409   27.3107   48.4364 H   0  0  0  0  0  0  0  0  0  0  0  0
   60.5179   25.4675   47.0335 H   0  0  0  0  0  0  0  0  0  0  0  0
   56.4280   26.4810   44.8580 H   0  0  0  0  0  0  0  0  0  0  0  0
   58.9750   25.9168   43.5877 H   0  0  0  0  0  0  0  0  0  0  0  0
   57.5964   26.3374   42.5156 H   0  0  0  0  0  0  0  0  0  0  0  0
   60.2354   27.6671   44.4512 H   0  0  0  0  0  0  0  0  0  0  0  0
   60.4686   30.0462   45.1484 H   0  0  0  0  0  0  0  0  0  0  0  0
   57.7486   34.0210   46.4684 H   0  0  0  0  0  0  0  0  0  0  0  0
   57.9014   33.1694   48.0419 H   0  0  0  0  0  0  0  0  0  0  0  0
   60.0497   34.8467   46.6341 H   0  0  0  0  0  0  0  0  0  0  0  0
   59.1751   35.2588   48.1495 H   0  0  0  0  0  0  0  0  0  0  0  0
   62.0106   35.2320   48.1482 H   0  0  0  0  0  0  0  0  0  0  0  0
   61.0985   35.1434   49.7321 H   0  0  0  0  0  0  0  0  0  0  0  0
   61.8335   33.7914   51.5491 H   0  0  0  0  0  0  0  0  0  0  0  0
   63.7174   32.5409   52.6051 H   0  0  0  0  0  0  0  0  0  0  0  0
   65.7075   31.8891   51.2433 H   0  0  0  0  0  0  0  0  0  0  0  0
   65.8156   32.4904   48.8235 H   0  0  0  0  0  0  0  0  0  0  0  0
   63.9392   33.7446   47.7610 H   0  0  0  0  0  0  0  0  0  0  0  0
   61.6552   33.0224   46.6284 H   0  0  0  0  0  0  0  0  0  0  0  0
   61.9359   32.0811   48.1364 H   0  0  0  0  0  0  0  0  0  0  0  0
   60.5216   30.8706   46.4144 H   0  0  0  0  0  0  0  0  0  0  0  0
   59.7127   31.0896   48.0038 H   0  0  0  0  0  0  0  0  0  0  0  0
   56.3173   30.7472   44.1286 H   0  0  0  0  0  0  0  0  0  0  0  0
   56.0741   28.3567   43.4784 H   0  0  0  0  0  0  0  0  0  0  0  0
   56.7610   27.5889   46.7053 H   0  0  0  0  0  0  0  0  0  0  0  0
   57.6785   29.4281   48.1169 H   0  0  0  0  0  0  0  0  0  0  0  0
  1  2  1  0
  2  3  2  0
  2  4  2  0
  2  5  1  0
  5  6  1  0
  6  7  2  0
  7  8  1  0
  8  9  2  0
  9 10  1  0
 10 11  2  0
 10 12  2  0
 10 13  1  0
 13 14  1  0
 14 15  1  0
 15 16  2  0
 16 17  1  0
 17 18  2  0
 18 19  1  0
 19 20  2  0
 19 21  1  0
 21 22  1  0
 22 23  1  0
 23 24  1  0
 24 25  1  0
 25 26  1  0
 26 27  2  0
 27 28  1  0
 28 29  2  0
 29 30  1  0
 30 31  2  0
 24 32  1  0
 32 33  1  0
 18 34  1  0
 34 35  2  0
  9 36  1  0
 36 37  2  0
 37  6  1  0
 35 15  1  0
 33 21  1  0
 31 26  1  0
  1 38  1  0
  1 39  1  0
  1 40  1  0
  7 41  1  0
  8 42  1  0
 13 43  1  0
 14 44  1  0
 14 45  1  0
 16 46  1  0
 17 47  1  0
 22 48  1  0
 22 49  1  0
 23 50  1  0
 23 51  1  0
 25 52  1  0
 25 53  1  0
 27 54  1  0
 28 55  1  0
 29 56  1  0
 30 57  1  0
 31 58  1  0
 32 59  1  0
 32 60  1  0
 33 61  1  0
 33 62  1  0
 34 63  1  0
 35 64  1  0
 36 65  1  0
 37 66  1  0
M  CHG  1   5  -1
M  END
>  <UniqueID>  (6) 
6

>  <SMILES>  (6) 
CS(=O)(=O)[N-]c1ccc(S(=O)(=O)NCc2ccc(C(=O)N3CCN(Cc4ccccc4)CC3)cc2)cc1

>  <Energy>  (6) 
73.3305257622886

>  <Genealogy>  (6) 
CS(=O)(=O)[N-]c1ccc(S(=O)(=O)NCc2ccc(C(=O)N3CCN(Cc4ccccc4)CC3)cc2)cc1 (protonated)
CS(=O)(=O)[N-]c1ccc(S(=O)(=O)NCc2ccc(C(=O)N3CCN(Cc4ccccc4)CC3)cc2)cc1 (3D coordinates assigned)
CS(=O)(=O)[N-]c1ccc(S(=O)(=O)NCc2ccc(C(=O)N3CCN(Cc4ccccc4)CC3)cc2)cc1 (nonaromatic ring conformer: 73.3305257622886 kcal/mol)

>  <smiles>  (6) 
CS(=O)(=O)Nc1ccc(S(=O)(=O)NCc2ccc(C(=O)N3CCN(Cc4ccccc4)CC3)cc2)cc1

>  <score_type>  (6) 
oracle

>  <origin>  (6) 
adg

>  <m_score__min__energy>  (6) 
-12.23

>  <m_primary>  (6) 
energy

$$$$
6:0
     RDKit          3D

 50 53  0  0  0  0  0  0  0  0999 V2000
   56.7770   33.2340   45.7920 O   0  0  0  0  0  0  0  0  0  0  0  0
   57.9110   33.2640   45.2380 C   0  0  0  0  0  0  0  0  0  0  0  0
   58.6570   34.5620   45.1650 C   0  0  0  0  0  0  0  0  0  0  0  0
   59.1480   34.9690   46.5570 C   0  0  0  0  0  0  0  0  0  0  0  0
   59.7370   33.7900   47.2720 C   0  0  0  0  0  0  0  0  0  0  0  0
   59.0830   32.9560   48.1760 C   0  0  0  0  0  0  0  0  0  0  0  0
   59.9430   32.0420   48.6810 N   0  0  0  0  0  0  0  0  0  0  0  0
   61.1360   32.3020   48.1130 C   0  0  0  0  0  0  0  0  0  0  0  0
   62.3400   31.6330   48.3330 C   0  0  0  0  0  0  0  0  0  0  0  0
   63.4810   32.0840   47.6390 C   0  0  0  0  0  0  0  0  0  0  0  0
   63.3940   33.1840   46.7560 C   0  0  0  0  0  0  0  0  0  0  0  0
   62.1660   33.8430   46.5580 C   0  0  0  0  0  0  0  0  0  0  0  0
   61.0520   33.3670   47.2530 C   0  0  0  0  0  0  0  0  0  0  0  0
   58.4860   32.0700   44.6850 N   0  0  0  0  0  0  0  0  0  0  0  0
   57.9760   30.7510   44.9420 C   0  0  0  0  0  0  0  0  0  0  0  0
   58.6420   29.9210   45.8550 C   0  0  0  0  0  0  0  0  0  0  0  0
   58.1500   28.6430   46.1390 C   0  0  0  0  0  0  0  0  0  0  0  0
   56.9640   28.1930   45.5410 C   0  0  0  0  0  0  0  0  0  0  0  0
   56.4510   26.8450   45.8470 C   0  0  0  0  0  0  0  0  0  0  0  0
   55.2080   26.6900   45.9960 O   0  0  0  0  0  0  0  0  0  0  0  0
   57.3290   25.7070   45.9490 N   0  0  0  0  0  0  0  0  0  0  0  0
   56.8660   24.3970   46.3740 C   0  0  0  0  0  0  0  0  0  0  0  0
   57.9450   23.4130   45.9420 C   0  0  0  0  0  0  0  0  0  0  0  0
   59.1800   24.2520   45.6300 C   0  0  0  0  0  0  0  0  0  0  0  0
   58.6750   25.6710   45.3980 C   0  0  0  0  0  0  0  0  0  0  0  0
   56.2940   29.0240   44.6300 C   0  0  0  0  0  0  0  0  0  0  0  0
   56.7920   30.2970   44.3370 C   0  0  0  0  0  0  0  0  0  0  0  0
   59.5212   34.4471   44.4942 H   0  0  0  0  0  0  0  0  0  0  0  0
   57.9835   35.3418   44.7799 H   0  0  0  0  0  0  0  0  0  0  0  0
   59.9149   35.7511   46.4559 H   0  0  0  0  0  0  0  0  0  0  0  0
   58.2944   35.3475   47.1385 H   0  0  0  0  0  0  0  0  0  0  0  0
   58.0181   33.0301   48.4416 H   0  0  0  0  0  0  0  0  0  0  0  0
   59.7250   31.2980   49.3800 H   0  0  0  0  0  0  0  0  0  0  0  0
   62.3973   30.7806   49.0260 H   0  0  0  0  0  0  0  0  0  0  0  0
   64.4457   31.5763   47.7857 H   0  0  0  0  0  0  0  0  0  0  0  0
   64.2913   33.5273   46.2202 H   0  0  0  0  0  0  0  0  0  0  0  0
   62.0864   34.7043   45.8784 H   0  0  0  0  0  0  0  0  0  0  0  0
   59.2660   32.1690   43.9970 H   0  0  0  0  0  0  0  0  0  0  0  0
   59.5570   30.2772   46.3509 H   0  0  0  0  0  0  0  0  0  0  0  0
   58.6956   27.9881   46.8343 H   0  0  0  0  0  0  0  0  0  0  0  0
   56.7400   24.3715   47.4665 H   0  0  0  0  0  0  0  0  0  0  0  0
   55.8913   24.1489   45.9287 H   0  0  0  0  0  0  0  0  0  0  0  0
   58.1609   22.7023   46.7534 H   0  0  0  0  0  0  0  0  0  0  0  0
   57.6269   22.8247   45.0687 H   0  0  0  0  0  0  0  0  0  0  0  0
   59.8815   24.2295   46.4770 H   0  0  0  0  0  0  0  0  0  0  0  0
   59.7179   23.8666   44.7513 H   0  0  0  0  0  0  0  0  0  0  0  0
   59.3202   26.3966   45.9149 H   0  0  0  0  0  0  0  0  0  0  0  0
   58.6828   25.9343   44.3300 H   0  0  0  0  0  0  0  0  0  0  0  0
   55.3722   28.6719   44.1439 H   0  0  0  0  0  0  0  0  0  0  0  0
   56.2546   30.9459   43.6298 H   0  0  0  0  0  0  0  0  0  0  0  0
  1  2  2  0
  2  3  1  0
  3  4  1  0
  4  5  1  0
  5  6  2  0
  6  7  1  0
  7  8  1  0
  8  9  2  0
  9 10  1  0
 10 11  2  0
 11 12  1  0
 12 13  2  0
  2 14  1  0
 14 15  1  0
 15 16  2  0
 16 17  1  0
 17 18  2  0
 18 19  1  0
 19 20  2  0
 19 21  1  0
 21 22  1  0
 22 23  1  0
 23 24  1  0
 24 25  1  0
 18 26  1  0
 26 27  2  0
 13  5  1  0
 27 15  1  0
 13  8  1  0
 25 21  1  0
  3 28  1  0
  3 29  1  0
  4 30  1  0
  4 31  1  0
  6 32  1  0
  7 33  1  0
  9 34  1  0
 10 35  1  0
 11 36  1  0
 12 37  1  0
 14 38  1  0
 16 39  1  0
 17 40  1  0
 22 41  1  0
 22 42  1  0
 23 43  1  0
 23 44  1  0
 24 45  1  0
 24 46  1  0
 25 47  1  0
 25 48  1  0
 26 49  1  0
 27 50  1  0
M  END
>  <UniqueID>  (7) 
7

>  <SMILES>  (7) 
O=C(CCc1c[nH]c2ccccc12)Nc1ccc(C(=O)N2CCCC2)cc1

>  <Energy>  (7) 
89.57407110889999

>  <Genealogy>  (7) 
O=C(CCc1c[nH]c2ccccc12)Nc1ccc(C(=O)N2CCCC2)cc1 (3D coordinates assigned)
O=C(CCc1c[nH]c2ccccc12)Nc1ccc(C(=O)N2CCCC2)cc1 (nonaromatic ring conformer: 89.57407110889999 kcal/mol)

>  <smiles>  (7) 
O=C(CCc1c[nH]c2ccccc12)Nc1ccc(C(=O)N2CCCC2)cc1

>  <score_type>  (7) 
oracle

>  <origin>  (7) 
adg

>  <m_score__min__energy>  (7) 
-9.3900000000000006

>  <m_primary>  (7) 
energy

$$$$
7:0
     RDKit          3D

 43 46  0  0  0  0  0  0  0  0999 V2000
   55.9030   24.8110   47.8160 O   0  0  0  0  0  0  0  0  0  0  0  0
   56.9360   24.9290   47.1060 C   0  0  0  0  0  0  0  0  0  0  0  0
   57.6450   23.7440   46.7180 N   0  0  0  0  0  0  0  0  0  0  0  0
   57.4970   23.0300   45.4820 C   0  0  0  0  0  0  0  0  0  0  0  0
   58.5360   22.1910   45.0570 C   0  0  0  0  0  0  0  0  0  0  0  0
   58.4280   21.4860   43.8550 C   0  0  0  0  0  0  0  0  0  0  0  0
   57.2880   21.6270   43.0600 C   0  0  0  0  0  0  0  0  0  0  0  0
   56.2570   22.4820   43.4620 C   0  0  0  0  0  0  0  0  0  0  0  0
   55.1300   22.6340   42.6640 O   0  0  0  0  0  0  0  0  0  0  0  0
   56.3630   23.1890   44.6650 C   0  0  0  0  0  0  0  0  0  0  0  0
   57.3580   26.2810   46.6580 C   0  0  0  0  0  0  0  0  0  0  0  0
   56.4680   27.1340   45.9810 C   0  0  0  0  0  0  0  0  0  0  0  0
   55.1500   26.7240   45.7760 O   0  0  0  0  0  0  0  0  0  0  0  0
   56.8840   28.3670   45.5440 N   0  0  0  0  0  0  0  0  0  0  0  0
   56.0200   29.1870   44.8660 C   0  0  0  0  0  0  0  0  0  0  0  0
   56.4320   30.4410   44.4180 C   0  0  0  0  0  0  0  0  0  0  0  0
   57.7320   30.8680   44.6640 C   0  0  0  0  0  0  0  0  0  0  0  0
   58.6240   30.0360   45.3570 C   0  0  0  0  0  0  0  0  0  0  0  0
   59.9510   30.4140   45.6300 O   0  0  0  0  0  0  0  0  0  0  0  0
   60.3970   31.0530   46.8260 C   0  0  0  0  0  0  0  0  0  0  0  0
   59.9880   32.4980   46.8380 C   0  0  0  0  0  0  0  0  0  0  0  0
   60.0160   33.2430   48.0250 C   0  0  0  0  0  0  0  0  0  0  0  0
   59.6440   34.5900   47.9970 C   0  0  0  0  0  0  0  0  0  0  0  0
   59.2590   35.1800   46.7920 C   0  0  0  0  0  0  0  0  0  0  0  0
   59.2560   34.4110   45.6260 C   0  0  0  0  0  0  0  0  0  0  0  0
   59.6200   33.1010   45.6730 N   0  0  0  0  0  0  0  0  0  0  0  0
   58.1740   28.7800   45.7950 C   0  0  0  0  0  0  0  0  0  0  0  0
   59.0300   27.9710   46.4690 N   0  0  0  0  0  0  0  0  0  0  0  0
   58.6580   26.7450   46.9050 C   0  0  0  0  0  0  0  0  0  0  0  0
   59.4960   26.0280   47.5140 O   0  0  0  0  0  0  0  0  0  0  0  0
   59.4415   22.0867   45.6728 H   0  0  0  0  0  0  0  0  0  0  0  0
   59.2419   20.8191   43.5345 H   0  0  0  0  0  0  0  0  0  0  0  0
   57.2013   21.0656   42.1180 H   0  0  0  0  0  0  0  0  0  0  0  0
   55.5569   23.8713   44.9727 H   0  0  0  0  0  0  0  0  0  0  0  0
   54.9902   28.8518   44.6733 H   0  0  0  0  0  0  0  0  0  0  0  0
   55.7315   31.0900   43.8721 H   0  0  0  0  0  0  0  0  0  0  0  0
   58.0611   31.8580   44.3153 H   0  0  0  0  0  0  0  0  0  0  0  0
   59.9531   30.5445   47.6946 H   0  0  0  0  0  0  0  0  0  0  0  0
   61.4946   30.9950   46.8707 H   0  0  0  0  0  0  0  0  0  0  0  0
   60.3276   32.7723   48.9691 H   0  0  0  0  0  0  0  0  0  0  0  0
   59.6546   35.1840   48.9228 H   0  0  0  0  0  0  0  0  0  0  0  0
   58.9613   36.2385   46.7610 H   0  0  0  0  0  0  0  0  0  0  0  0
   58.9591   34.8649   44.6690 H   0  0  0  0  0  0  0  0  0  0  0  0
  1  2  2  0
  2  3  1  0
  3  4  1  0
  4  5  2  0
  5  6  1  0
  6  7  2  0
  7  8  1  0
  8  9  1  0
  8 10  2  0
  2 11  1  0
 11 12  2  0
 12 13  1  0
 12 14  1  0
 14 15  1  0
 15 16  2  0
 16 17  1  0
 17 18  2  0
 18 19  1  0
 19 20  1  0
 20 21  1  0
 21 22  2  0
 22 23  1  0
 23 24  2  0
 24 25  1  0
 25 26  2  0
 18 27  1  0
 27 28  2  0
 28 29  1  0
 29 30  2  0
 10  4  1  0
 29 11  1  0
 27 14  1  0
 26 21  1  0
  5 31  1  0
  6 32  1  0
  7 33  1  0
 10 34  1  0
 15 35  1  0
 16 36  1  0
 17 37  1  0
 20 38  1  0
 20 39  1  0
 22 40  1  0
 23 41  1  0
 24 42  1  0
 25 43  1  0
M  CHG  3   3  -1   9  -1  13  -1
M  END
>  <UniqueID>  (8) 
8

>  <SMILES>  (8) 
O=C([N-]c1cccc([O-])c1)c1c([O-])n2cccc(OCc3ccccn3)c2nc1=O

>  <Energy>  (8) 
63.282459420646546

>  <Genealogy>  (8) 
O=C([N-]c1cccc([O-])c1)c1c([O-])n2cccc(OCc3ccccn3)c2nc1=O (protonated)
O=C([N-]c1cccc([O-])c1)c1c([O-])n2cccc(OCc3ccccn3)c2nc1=O (3D coordinates assigned)
O=C([N-]c1cccc([O-])c1)c1c([O-])n2cccc(OCc3ccccn3)c2nc1=O (optimized conformer: 63.282459420646546 kcal/mol)

>  <smiles>  (8) 
O=C(Nc1cccc(O)c1)c1c(O)n2cccc(OCc3ccccn3)c2nc1=O

>  <score_type>  (8) 
oracle

>  <origin>  (8) 
adg

>  <m_score__min__energy>  (8) 
-14.81

>  <m_primary>  (8) 
energy

$$$$
8:0
     RDKit          3D

 39 41  0  0  0  0  0  0  0  0999 V2000
   57.2890   29.6990   46.2750 O   0  0  0  0  0  0  0  0  0  0  0  0
   57.0540   29.2410   45.1240 C   0  0  0  0  0  0  0  0  0  0  0  0
   56.8160   30.1930   43.9890 C   0  0  0  0  0  0  0  0  0  0  0  0
   56.4650   31.5190   44.4980 N   0  0  0  0  0  0  0  0  0  0  0  0
   57.3790   32.4100   45.1600 C   0  0  0  0  0  0  0  0  0  0  0  0
   57.9510   33.5150   44.5050 C   0  0  0  0  0  0  0  0  0  0  0  0
   58.8330   34.3540   45.1930 C   0  0  0  0  0  0  0  0  0  0  0  0
   59.3380   35.3440   44.5960 O   0  0  0  0  0  0  0  0  0  0  0  0
   59.1460   34.0860   46.5380 C   0  0  0  0  0  0  0  0  0  0  0  0
   60.0260   34.8980   47.2760 C   0  0  0  0  0  0  0  0  0  0  0  0
   60.3100   34.5930   48.6100 C   0  0  0  0  0  0  0  0  0  0  0  0
   59.7210   33.4800   49.2210 C   0  0  0  0  0  0  0  0  0  0  0  0
   60.0830   33.1060   50.8950 Cl  0  0  0  0  0  0  0  0  0  0  0  0
   58.8440   32.6670   48.4970 C   0  0  0  0  0  0  0  0  0  0  0  0
   58.5530   32.9630   47.1600 C   0  0  0  0  0  0  0  0  0  0  0  0
   57.6990   32.1700   46.4610 N   0  0  0  0  0  0  0  0  0  0  0  0
   57.0340   27.8240   44.8990 N   0  0  0  0  0  0  0  0  0  0  0  0
   57.2540   26.8570   45.9720 C   0  0  0  0  0  0  0  0  0  0  0  0
   56.6710   25.5190   45.5990 C   0  0  0  0  0  0  0  0  0  0  0  0
   57.5150   24.4660   45.2050 C   0  0  0  0  0  0  0  0  0  0  0  0
   56.9780   23.2280   44.8370 C   0  0  0  0  0  0  0  0  0  0  0  0
   58.0400   21.9210   44.3480 Cl  0  0  0  0  0  0  0  0  0  0  0  0
   55.5930   23.0330   44.8580 C   0  0  0  0  0  0  0  0  0  0  0  0
   54.7460   24.0750   45.2430 C   0  0  0  0  0  0  0  0  0  0  0  0
   55.2770   25.3160   45.6120 C   0  0  0  0  0  0  0  0  0  0  0  0
   54.4150   26.3410   45.9870 O   0  0  0  0  0  0  0  0  0  0  0  0
   57.7302   30.2685   43.3820 H   0  0  0  0  0  0  0  0  0  0  0  0
   55.9843   29.8154   43.3761 H   0  0  0  0  0  0  0  0  0  0  0  0
   55.4820   31.8460   44.3540 H   0  0  0  0  0  0  0  0  0  0  0  0
   57.7049   33.7192   43.4525 H   0  0  0  0  0  0  0  0  0  0  0  0
   60.4916   35.7748   46.8023 H   0  0  0  0  0  0  0  0  0  0  0  0
   60.9997   35.2307   49.1825 H   0  0  0  0  0  0  0  0  0  0  0  0
   58.3816   31.7929   48.9788 H   0  0  0  0  0  0  0  0  0  0  0  0
   56.8340   27.4630   43.9390 H   0  0  0  0  0  0  0  0  0  0  0  0
   58.3347   26.7463   46.1446 H   0  0  0  0  0  0  0  0  0  0  0  0
   56.7611   27.2193   46.8862 H   0  0  0  0  0  0  0  0  0  0  0  0
   58.6045   24.6166   45.1860 H   0  0  0  0  0  0  0  0  0  0  0  0
   55.1706   22.0587   44.5712 H   0  0  0  0  0  0  0  0  0  0  0  0
   53.6571   23.9194   45.2562 H   0  0  0  0  0  0  0  0  0  0  0  0
  1  2  2  0
  2  3  1  0
  3  4  1  0
  4  5  1  0
  5  6  2  0
  6  7  1  0
  7  8  2  0
  7  9  1  0
  9 10  2  0
 10 11  1  0
 11 12  2  0
 12 13  1  0
 12 14  1  0
 14 15  2  0
 15 16  1  0
  2 17  1  0
 17 18  1  0
 18 19  1  0
 19 20  2  0
 20 21  1  0
 21 22  1  0
 21 23  2  0
 23 24  1  0
 24 25  2  0
 25 26  1  0
 16  5  1  0
 25 19  1  0
 15  9  1  0
  3 27  1  0
  3 28  1  0
  4 29  1  0
  6 30  1  0
 10 31  1  0
 11 32  1  0
 14 33  1  0
 17 34  1  0
 18 35  1  0
 18 36  1  0
 20 37  1  0
 23 38  1  0
 24 39  1  0
M  CHG  2  16  -1  26  -1
M  END
>  <UniqueID>  (9) 
9

>  <SMILES>  (9) 
O=C(CNc1cc(=O)c2ccc(Cl)cc2[n-]1)NCc1cc(Cl)ccc1[O-]

>  <Energy>  (9) 
42.25871845270667

>  <Genealogy>  (9) 
O=C(CNc1cc(=O)c2ccc(Cl)cc2[n-]1)NCc1cc(Cl)ccc1[O-] (protonated)
O=C(CNc1cc(=O)c2ccc(Cl)cc2[n-]1)NCc1cc(Cl)ccc1[O-] (3D coordinates assigned)
O=C(CNc1cc(=O)c2ccc(Cl)cc2[n-]1)NCc1cc(Cl)ccc1[O-] (optimized conformer: 42.25871845270667 kcal/mol)

>  <smiles>  (9) 
O=C(CNc1cc(=O)c2ccc(Cl)cc2[nH]1)NCc1cc(Cl)ccc1O

>  <score_type>  (9) 
oracle

>  <origin>  (9) 
adg

>  <m_score__min__energy>  (9) 
-14.119999999999999

>  <m_primary>  (9) 
energy

$$$$
9:0
     RDKit          3D

 45 47  0  0  0  0  0  0  0  0999 V2000
   55.1660   30.4820   43.7290 O   0  0  0  0  0  0  0  0  0  0  0  0
   56.0960   29.8960   44.3450 C   0  0  0  0  0  0  0  0  0  0  0  0
   57.5180   30.2490   44.0440 C   0  0  0  0  0  0  0  0  0  0  0  0
   57.9010   31.5070   44.7730 C   0  0  0  0  0  0  0  0  0  0  0  0
   57.7970   32.7540   44.1380 C   0  0  0  0  0  0  0  0  0  0  0  0
   58.1200   33.9270   44.8280 C   0  0  0  0  0  0  0  0  0  0  0  0
   58.5400   33.8640   46.1640 C   0  0  0  0  0  0  0  0  0  0  0  0
   58.8630   35.0250   46.8620 O   0  0  0  0  0  0  0  0  0  0  0  0
   58.6330   32.6250   46.8050 C   0  0  0  0  0  0  0  0  0  0  0  0
   58.3100   31.4500   46.1160 C   0  0  0  0  0  0  0  0  0  0  0  0
   55.8170   28.8240   45.2530 N   0  0  0  0  0  0  0  0  0  0  0  0
   56.7100   27.7650   45.6310 C   0  0  0  0  0  0  0  0  0  0  0  0
   58.1070   27.9280   45.5960 C   0  0  0  0  0  0  0  0  0  0  0  0
   58.9470   26.8680   45.9430 C   0  0  0  0  0  0  0  0  0  0  0  0
   58.4060   25.6380   46.3180 C   0  0  0  0  0  0  0  0  0  0  0  0
   57.0170   25.4540   46.3470 C   0  0  0  0  0  0  0  0  0  0  0  0
   56.3520   23.8820   46.8040 S   0  0  0  0  0  0  0  0  0  0  0  0
   56.1950   23.8190   48.2980 O   0  0  0  0  0  0  0  0  0  0  0  0
   55.0040   23.7330   46.1570 O   0  0  0  0  0  0  0  0  0  0  0  0
   57.4250   22.6040   46.2640 N   0  0  0  0  0  0  0  0  0  0  0  0
   56.7500   21.2870   46.2540 C   0  0  0  0  0  0  0  0  0  0  0  0
   56.2770   20.8700   44.8500 C   0  0  0  0  0  0  0  0  0  0  0  0
   55.9050   22.0060   44.1020 O   0  0  0  0  0  0  0  0  0  0  0  0
   57.0470   22.7850   43.7900 C   0  0  0  0  0  0  0  0  0  0  0  0
   58.0440   22.9240   44.9670 C   0  0  0  0  0  0  0  0  0  0  0  0
   56.1700   26.5180   45.9830 C   0  0  0  0  0  0  0  0  0  0  0  0
   54.7890   26.3430   45.9690 O   0  0  0  0  0  0  0  0  0  0  0  0
   58.1736   29.4269   44.3670 H   0  0  0  0  0  0  0  0  0  0  0  0
   57.6284   30.4111   42.9616 H   0  0  0  0  0  0  0  0  0  0  0  0
   57.4598   32.8093   43.0924 H   0  0  0  0  0  0  0  0  0  0  0  0
   58.0443   34.9005   44.3215 H   0  0  0  0  0  0  0  0  0  0  0  0
   59.7080   35.0900   47.4190 H   0  0  0  0  0  0  0  0  0  0  0  0
   58.9609   32.5733   47.8537 H   0  0  0  0  0  0  0  0  0  0  0  0
   58.3766   30.4786   46.6278 H   0  0  0  0  0  0  0  0  0  0  0  0
   58.5389   28.8936   45.2943 H   0  0  0  0  0  0  0  0  0  0  0  0
   60.0384   27.0032   45.9206 H   0  0  0  0  0  0  0  0  0  0  0  0
   59.0735   24.8079   46.5925 H   0  0  0  0  0  0  0  0  0  0  0  0
   57.4537   20.5285   46.6275 H   0  0  0  0  0  0  0  0  0  0  0  0
   55.8587   21.3668   46.8937 H   0  0  0  0  0  0  0  0  0  0  0  0
   57.0941   20.3462   44.3324 H   0  0  0  0  0  0  0  0  0  0  0  0
   55.4062   20.2052   44.9483 H   0  0  0  0  0  0  0  0  0  0  0  0
   57.5699   22.3125   42.9454 H   0  0  0  0  0  0  0  0  0  0  0  0
   56.6905   23.7972   43.5484 H   0  0  0  0  0  0  0  0  0  0  0  0
   58.8877   22.2384   44.7989 H   0  0  0  0  0  0  0  0  0  0  0  0
   58.3786   23.9713   45.0029 H   0  0  0  0  0  0  0  0  0  0  0  0
  1  2  2  0
  2  3  1  0
  3  4  1  0
  4  5  2  0
  5  6  1  0
  6  7  2  0
  7  8  1  0
  7  9  1  0
  9 10  2  0
  2 11  1  0
 11 12  1  0
 12 13  2  0
 13 14  1  0
 14 15  2  0
 15 16  1  0
 16 17  1  0
 17 18  2  0
 17 19  2  0
 17 20  1  0
 20 21  1  0
 21 22  1  0
 22 23  1  0
 23 24  1  0
 24 25  1  0
 16 26  2  0
 26 27  1  0
 10  4  1  0
 26 12  1  0
 25 20  1  0
  3 28  1  0
  3 29  1  0
  5 30  1  0
  6 31  1  0
  8 32  1  0
  9 33  1  0
 10 34  1  0
 13 35  1  0
 14 36  1  0
 15 37  1  0
 21 38  1  0
 21 39  1  0
 22 40  1  0
 22 41  1  0
 24 42  1  0
 24 43  1  0
 25 44  1  0
 25 45  1  0
M  CHG  2  11  -1  27  -1
M  END
>  <UniqueID>  (10) 
10

>  <SMILES>  (10) 
O=C(Cc1ccc(O)cc1)[N-]c1cccc(S(=O)(=O)N2CCOCC2)c1[O-]

>  <Energy>  (10) 
59.727023348122025

>  <Genealogy>  (10) 
O=C(Cc1ccc(O)cc1)[N-]c1cccc(S(=O)(=O)N2CCOCC2)c1[O-] (protonated)
O=C(Cc1ccc(O)cc1)[N-]c1cccc(S(=O)(=O)N2CCOCC2)c1[O-] (3D coordinates assigned)
O=C(Cc1ccc(O)cc1)[N-]c1cccc(S(=O)(=O)N2CCOCC2)c1[O-] (nonaromatic ring conformer: 59.727023348122025 kcal/mol)

>  <smiles>  (10) 
O=C(Cc1ccc(O)cc1)Nc1cccc(S(=O)(=O)N2CCOCC2)c1O

>  <score_type>  (10) 
oracle

>  <origin>  (10) 
adg

>  <m_score__min__energy>  (10) 
-15.460000000000001

>  <m_primary>  (10) 
energy

$$$$
10:0
     RDKit          3D

 27 28  0  0  0  0  0  0  0  0999 V2000
   55.6800   29.7740   44.7980 N   0  0  0  0  0  0  0  0  0  0  0  0
   56.9690   30.8630   44.3370 S   0  0  0  0  0  0  0  0  0  0  0  0
   56.5610   32.2310   44.8620 O   0  0  0  0  0  0  0  0  0  0  0  0
   57.0660   30.8580   42.8690 O   0  0  0  0  0  0  0  0  0  0  0  0
   58.4180   30.4070   45.1900 C   0  0  0  0  0  0  0  0  0  0  0  0
   59.0590   31.3450   46.0040 C   0  0  0  0  0  0  0  0  0  0  0  0
   60.2210   31.0780   46.6780 C   0  0  0  0  0  0  0  0  0  0  0  0
   60.8070   29.8490   46.5690 C   0  0  0  0  0  0  0  0  0  0  0  0
   60.2020   28.9020   45.7750 C   0  0  0  0  0  0  0  0  0  0  0  0
   59.0130   29.1700   45.0860 C   0  0  0  0  0  0  0  0  0  0  0  0
   58.3920   28.0890   44.2840 C   0  0  0  0  0  0  0  0  0  0  0  0
   57.6200   27.1230   45.0970 C   0  0  0  0  0  0  0  0  0  0  0  0
   56.3940   27.4170   45.6190 N   0  0  0  0  0  0  0  0  0  0  0  0
   55.9350   26.3700   46.2710 N   0  0  0  0  0  0  0  0  0  0  0  0
   56.8410   25.3870   46.1870 C   0  0  0  0  0  0  0  0  0  0  0  0
   56.7100   23.8800   46.8460 S   0  0  0  0  0  0  0  0  0  0  0  0
   57.8590   25.8710   45.4670 N   0  0  0  0  0  0  0  0  0  0  0  0
   55.8210   29.5250   45.8030 H   0  0  0  0  0  0  0  0  0  0  0  0
   55.7660   28.8670   44.2710 H   0  0  0  0  0  0  0  0  0  0  0  0
   58.6096   32.3436   46.1081 H   0  0  0  0  0  0  0  0  0  0  0  0
   60.6824   31.8534   47.3072 H   0  0  0  0  0  0  0  0  0  0  0  0
   61.7410   29.6216   47.1036 H   0  0  0  0  0  0  0  0  0  0  0  0
   60.6645   27.9086   45.6791 H   0  0  0  0  0  0  0  0  0  0  0  0
   57.7137   28.5462   43.5486 H   0  0  0  0  0  0  0  0  0  0  0  0
   59.2092   27.5299   43.8048 H   0  0  0  0  0  0  0  0  0  0  0  0
   55.0100   26.3420   46.7660 H   0  0  0  0  0  0  0  0  0  0  0  0
   58.7430   25.3570   45.2100 H   0  0  0  0  0  0  0  0  0  0  0  0
  1  2  1  0
  2  3  2  0
  2  4  2  0
  2  5  1  0
  5  6  2  0
  6  7  1  0
  7  8  2  0
  8  9  1  0
  9 10  2  0
 10 11  1  0
 11 12  1  0
 12 13  2  0
 13 14  1  0
 14 15  1  0
 15 16  2  0
 15 17  1  0
 10  5  1  0
 17 12  1  0
  1 18  1  0
  1 19  1  0
  6 20  1  0
  7 21  1  0
  8 22  1  0
  9 23  1  0
 11 24  1  0
 11 25  1  0
 14 26  1  0
 17 27  1  0
M  END
>  <smiles>  (11) 
NS(=O)(=O)c1ccccc1Cc1n[nH]c(=S)[nH]1

>  <score_type>  (11) 
oracle

>  <origin>  (11) 
adg

>  <m_score__min__energy>  (11) 
-6.7599999999999998

>  <m_primary>  (11) 
energy

$$$$
11:0
     RDKit          3D

 37 38  0  0  0  0  0  0  0  0999 V2000
   55.2370   23.7910   44.3510 C   0  0  0  0  0  0  0  0  0  0  0  0
   56.6590   23.4200   44.6750 C   0  0  0  0  0  0  0  0  0  0  0  0
   57.2790   22.3570   43.9980 C   0  0  0  0  0  0  0  0  0  0  0  0
   58.5990   22.0160   44.2890 C   0  0  0  0  0  0  0  0  0  0  0  0
   59.2940   22.7420   45.2550 C   0  0  0  0  0  0  0  0  0  0  0  0
   58.6870   23.7700   45.9000 N   0  0  0  0  0  0  0  0  0  0  0  0
   57.3990   24.1380   45.6400 C   0  0  0  0  0  0  0  0  0  0  0  0
   56.8370   25.1290   46.2780 N   0  0  0  0  0  0  0  0  0  0  0  0
   56.3750   26.3940   45.7700 C   0  0  0  0  0  0  0  0  0  0  0  0
   55.1730   26.7100   45.9870 O   0  0  0  0  0  0  0  0  0  0  0  0
   57.2650   27.3390   44.9970 C   0  0  0  0  0  0  0  0  0  0  0  0
   57.3560   28.7320   45.6340 C   0  0  0  0  0  0  0  0  0  0  0  0
   56.3960   29.6690   44.9720 C   0  0  0  0  0  0  0  0  0  0  0  0
   55.1820   29.3450   44.8670 O   0  0  0  0  0  0  0  0  0  0  0  0
   56.8710   30.9190   44.4560 N   0  0  0  0  0  0  0  0  0  0  0  0
   57.4720   31.9800   45.2130 C   0  0  0  0  0  0  0  0  0  0  0  0
   57.4240   33.2820   44.6960 C   0  0  0  0  0  0  0  0  0  0  0  0
   58.0180   34.3410   45.3900 C   0  0  0  0  0  0  0  0  0  0  0  0
   58.6810   34.1070   46.5980 C   0  0  0  0  0  0  0  0  0  0  0  0
   59.2690   35.1700   47.2800 O   0  0  0  0  0  0  0  0  0  0  0  0
   58.7530   32.8040   47.1100 C   0  0  0  0  0  0  0  0  0  0  0  0
   58.1580   31.7430   46.4180 C   0  0  0  0  0  0  0  0  0  0  0  0
   54.6745   23.9378   45.2848 H   0  0  0  0  0  0  0  0  0  0  0  0
   55.2253   24.7223   43.7657 H   0  0  0  0  0  0  0  0  0  0  0  0
   54.7718   22.9842   43.7657 H   0  0  0  0  0  0  0  0  0  0  0  0
   56.7216   21.7921   43.2363 H   0  0  0  0  0  0  0  0  0  0  0  0
   59.0870   21.1829   43.7619 H   0  0  0  0  0  0  0  0  0  0  0  0
   60.3354   22.4813   45.4946 H   0  0  0  0  0  0  0  0  0  0  0  0
   58.2761   26.9084   44.9495 H   0  0  0  0  0  0  0  0  0  0  0  0
   56.8242   27.4625   43.9968 H   0  0  0  0  0  0  0  0  0  0  0  0
   57.1118   28.6584   46.7040 H   0  0  0  0  0  0  0  0  0  0  0  0
   58.3782   29.1178   45.5065 H   0  0  0  0  0  0  0  0  0  0  0  0
   56.9162   33.4719   43.7389 H   0  0  0  0  0  0  0  0  0  0  0  0
   57.9632   35.3617   44.9837 H   0  0  0  0  0  0  0  0  0  0  0  0
   58.7490   36.0120   47.4960 H   0  0  0  0  0  0  0  0  0  0  0  0
   59.2783   32.6151   48.0578 H   0  0  0  0  0  0  0  0  0  0  0  0
   58.2270   30.7205   46.8176 H   0  0  0  0  0  0  0  0  0  0  0  0
  1  2  1  0
  2  3  2  0
  3  4  1  0
  4  5  2  0
  5  6  1  0
  6  7  1  0
  7  8  2  3
  8  9  1  0
  9 10  2  0
  9 11  1  0
 11 12  1  0
 12 13  1  0
 13 14  2  0
 13 15  1  0
 15 16  1  0
 16 17  2  0
 17 18  1  0
 18 19  2  0
 19 20  1  0
 19 21  1  0
 21 22  2  0
  7  2  1  0
 22 16  1  0
  1 23  1  0
  1 24  1  0
  1 25  1  0
  3 26  1  0
  4 27  1  0
  5 28  1  0
 11 29  1  0
 11 30  1  0
 12 31  1  0
 12 32  1  0
 17 33  1  0
 18 34  1  0
 20 35  1  0
 21 36  1  0
 22 37  1  0
M  CHG  2   6  -1  15  -1
M  END
>  <UniqueID>  (12) 
11

>  <SMILES>  (12) 
Cc1ccc[n-]c1=NC(=O)CCC(=O)[N-]c1ccc(O)cc1

>  <Energy>  (12) 
43.12971041137864

>  <Genealogy>  (12) 
Cc1ccc[n-]c1=NC(=O)CCC(=O)[N-]c1ccc(O)cc1 (protonated)
Cc1ccc[n-]c1=NC(=O)CCC(=O)[N-]c1ccc(O)cc1 (3D coordinates assigned)
Cc1ccc[n-]c1=NC(=O)CCC(=O)[N-]c1ccc(O)cc1 (optimized conformer: 43.12971041137864 kcal/mol)

>  <smiles>  (12) 
Cc1ccc[nH]c1=NC(=O)CCC(=O)Nc1ccc(O)cc1

>  <score_type>  (12) 
oracle

>  <origin>  (12) 
adg

>  <m_score__min__energy>  (12) 
-11.529999999999999

>  <m_primary>  (12) 
energy

$$$$
12:0
     RDKit          3D

 50 52  0  0  0  0  0  0  0  0999 V2000
   58.6560   32.6020   53.5380 C   0  0  0  0  0  0  0  0  0  0  0  0
   58.3820   33.5390   52.4100 C   0  0  0  0  0  0  0  0  0  0  0  0
   58.2060   34.7640   52.6510 O   0  0  0  0  0  0  0  0  0  0  0  0
   58.2480   33.0320   51.1130 O   0  0  0  0  0  0  0  0  0  0  0  0
   58.7610   31.8010   50.6760 C   0  0  0  0  0  0  0  0  0  0  0  0
   59.9320   31.7630   49.8870 C   0  0  0  0  0  0  0  0  0  0  0  0
   60.6760   32.9810   49.5080 C   0  0  0  0  0  0  0  0  0  0  0  0
   60.8250   33.9340   50.3220 O   0  0  0  0  0  0  0  0  0  0  0  0
   61.2250   33.0610   48.2250 O   0  0  0  0  0  0  0  0  0  0  0  0
   61.0070   34.1710   47.3620 C   0  0  0  0  0  0  0  0  0  0  0  0
   59.6870   34.0050   46.6690 C   0  0  0  0  0  0  0  0  0  0  0  0
   59.5950   34.1590   45.2750 C   0  0  0  0  0  0  0  0  0  0  0  0
   58.3720   33.9610   44.6250 C   0  0  0  0  0  0  0  0  0  0  0  0
   57.2400   33.5970   45.3580 C   0  0  0  0  0  0  0  0  0  0  0  0
   57.3280   33.4250   46.7430 C   0  0  0  0  0  0  0  0  0  0  0  0
   58.5480   33.6230   47.3970 C   0  0  0  0  0  0  0  0  0  0  0  0
   60.4040   30.5940   49.4580 O   0  0  0  0  0  0  0  0  0  0  0  0
   59.8250   29.4260   49.7230 C   0  0  0  0  0  0  0  0  0  0  0  0
   60.4520   28.1910   49.2070 C   0  0  0  0  0  0  0  0  0  0  0  0
   61.2150   27.5350   49.9630 O   0  0  0  0  0  0  0  0  0  0  0  0
   60.1880   27.6860   47.8920 N   0  0  0  0  0  0  0  0  0  0  0  0
   59.2420   28.2180   46.9540 C   0  0  0  0  0  0  0  0  0  0  0  0
   58.1660   27.4530   46.4730 C   0  0  0  0  0  0  0  0  0  0  0  0
   57.2530   28.0050   45.5700 C   0  0  0  0  0  0  0  0  0  0  0  0
   57.3820   29.3430   45.1520 C   0  0  0  0  0  0  0  0  0  0  0  0
   56.4260   29.9480   44.1920 C   0  0  0  0  0  0  0  0  0  0  0  0
   56.1340   29.3330   42.9350 N   0  0  0  0  0  0  0  0  0  0  0  0
   55.8430   31.0250   44.4890 O   0  0  0  0  0  0  0  0  0  0  0  0
   58.4520   30.1070   45.6500 C   0  0  0  0  0  0  0  0  0  0  0  0
   59.3660   29.5510   46.5500 C   0  0  0  0  0  0  0  0  0  0  0  0
   58.6590   29.3880   50.4970 C   0  0  0  0  0  0  0  0  0  0  0  0
   58.1140   30.5860   50.9580 C   0  0  0  0  0  0  0  0  0  0  0  0
   57.0300   30.5640   51.6000 O   0  0  0  0  0  0  0  0  0  0  0  0
   58.5032   33.1244   54.4939 H   0  0  0  0  0  0  0  0  0  0  0  0
   57.9713   31.7433   53.4759 H   0  0  0  0  0  0  0  0  0  0  0  0
   59.6954   32.2474   53.4759 H   0  0  0  0  0  0  0  0  0  0  0  0
   60.9988   35.0995   47.9517 H   0  0  0  0  0  0  0  0  0  0  0  0
   61.8128   34.2223   46.6150 H   0  0  0  0  0  0  0  0  0  0  0  0
   60.4868   34.4359   44.6936 H   0  0  0  0  0  0  0  0  0  0  0  0
   58.3018   34.0922   43.5351 H   0  0  0  0  0  0  0  0  0  0  0  0
   56.2786   33.4455   44.8454 H   0  0  0  0  0  0  0  0  0  0  0  0
   56.4369   33.1337   47.3184 H   0  0  0  0  0  0  0  0  0  0  0  0
   58.6160   33.4791   48.4854 H   0  0  0  0  0  0  0  0  0  0  0  0
   58.0414   26.4131   46.8092 H   0  0  0  0  0  0  0  0  0  0  0  0
   56.4276   27.3893   45.1831 H   0  0  0  0  0  0  0  0  0  0  0  0
   56.4560   28.3680   42.7030 H   0  0  0  0  0  0  0  0  0  0  0  0
   55.5070   29.8160   42.2520 H   0  0  0  0  0  0  0  0  0  0  0  0
   58.5712   31.1522   45.3284 H   0  0  0  0  0  0  0  0  0  0  0  0
   60.1886   30.1665   46.9431 H   0  0  0  0  0  0  0  0  0  0  0  0
   58.1799   28.4275   50.7379 H   0  0  0  0  0  0  0  0  0  0  0  0
  1  2  1  0
  2  3  2  0
  2  4  1  0
  4  5  1  0
  5  6  2  0
  6  7  1  0
  7  8  2  0
  7  9  1  0
  9 10  1  0
 10 11  1  0
 11 12  2  0
 12 13  1  0
 13 14  2  0
 14 15  1  0
 15 16  2  0
  6 17  1  0
 17 18  1  0
 18 19  1  0
 19 20  2  0
 19 21  1  0
 21 22  1  0
 22 23  2  0
 23 24  1  0
 24 25  2  0
 25 26  1  0
 26 27  1  0
 26 28  2  0
 25 29  1  0
 29 30  2  0
 18 31  2  0
 31 32  1  0
 32 33  2  0
 32  5  1  0
 16 11  1  0
 30 22  1  0
  1 34  1  0
  1 35  1  0
  1 36  1  0
 10 37  1  0
 10 38  1  0
 12 39  1  0
 13 40  1  0
 14 41  1  0
 15 42  1  0
 16 43  1  0
 23 44  1  0
 24 45  1  0
 27 46  1  0
 27 47  1  0
 29 48  1  0
 30 49  1  0
 31 50  1  0
M  CHG  1  21  -1
M  END
>  <UniqueID>  (13) 
12

>  <SMILES>  (13) 
CC(=O)Oc1c(C(=O)OCc2ccccc2)oc(C(=O)[N-]c2ccc(C(N)=O)cc2)cc1=O

>  <Energy>  (13) 
64.63801604662099

>  <Genealogy>  (13) 
CC(=O)Oc1c(C(=O)OCc2ccccc2)oc(C(=O)[N-]c2ccc(C(N)=O)cc2)cc1=O (protonated)
CC(=O)Oc1c(C(=O)OCc2ccccc2)oc(C(=O)[N-]c2ccc(C(N)=O)cc2)cc1=O (3D coordinates assigned)
CC(=O)Oc1c(C(=O)OCc2ccccc2)oc(C(=O)[N-]c2ccc(C(N)=O)cc2)cc1=O (optimized conformer: 64.63801604662099 kcal/mol)

>  <smiles>  (13) 
CC(=O)Oc1c(C(=O)OCc2ccccc2)oc(C(=O)Nc2ccc(C(N)=O)cc2)cc1=O

>  <score_type>  (13) 
oracle

>  <origin>  (13) 
adg

>  <m_score__min__energy>  (13) 
-9.7100000000000009

>  <m_primary>  (13) 
energy

$$$$
13:0
     RDKit          3D

 43 45  0  0  0  0  0  0  0  0999 V2000
   58.4400   26.3060   44.7290 O   0  0  0  0  0  0  0  0  0  0  0  0
   58.4650   27.0570   45.7420 C   0  0  0  0  0  0  0  0  0  0  0  0
   57.8000   26.6180   47.0070 C   0  0  0  0  0  0  0  0  0  0  0  0
   56.5610   25.8180   46.6840 C   0  0  0  0  0  0  0  0  0  0  0  0
   55.4860   26.3990   45.9860 C   0  0  0  0  0  0  0  0  0  0  0  0
   55.5240   27.7360   45.6110 O   0  0  0  0  0  0  0  0  0  0  0  0
   54.3980   25.6510   45.6700 N   0  0  0  0  0  0  0  0  0  0  0  0
   54.3260   24.3390   46.0080 C   0  0  0  0  0  0  0  0  0  0  0  0
   53.3050   23.6670   45.7060 O   0  0  0  0  0  0  0  0  0  0  0  0
   55.3560   23.7490   46.6670 N   0  0  0  0  0  0  0  0  0  0  0  0
   56.4670   24.4510   47.0050 C   0  0  0  0  0  0  0  0  0  0  0  0
   57.4070   23.8650   47.6060 O   0  0  0  0  0  0  0  0  0  0  0  0
   59.1190   28.3280   45.6890 N   0  0  0  0  0  0  0  0  0  0  0  0
   58.5250   29.5320   45.1870 C   0  0  0  0  0  0  0  0  0  0  0  0
   58.7740   30.7350   45.8610 C   0  0  0  0  0  0  0  0  0  0  0  0
   58.2130   31.9370   45.4060 C   0  0  0  0  0  0  0  0  0  0  0  0
   58.5630   33.4530   46.2390 S   0  0  0  0  0  0  0  0  0  0  0  0
   57.4040   33.8080   47.1280 O   0  0  0  0  0  0  0  0  0  0  0  0
   58.7200   34.5480   45.2220 O   0  0  0  0  0  0  0  0  0  0  0  0
   60.0170   33.3460   47.2010 N   0  0  0  0  0  0  0  0  0  0  0  0
   61.2060   33.6100   46.3710 C   0  0  0  0  0  0  0  0  0  0  0  0
   62.4620   33.7700   47.2510 C   0  0  0  0  0  0  0  0  0  0  0  0
   62.2150   33.3290   48.5730 O   0  0  0  0  0  0  0  0  0  0  0  0
   61.2400   34.1570   49.1820 C   0  0  0  0  0  0  0  0  0  0  0  0
   59.9620   34.2890   48.3250 C   0  0  0  0  0  0  0  0  0  0  0  0
   57.3740   31.9260   44.2840 C   0  0  0  0  0  0  0  0  0  0  0  0
   57.0940   30.7270   43.6260 C   0  0  0  0  0  0  0  0  0  0  0  0
   57.6530   29.5240   44.0790 C   0  0  0  0  0  0  0  0  0  0  0  0
   57.3230   28.3240   43.4500 O   0  0  0  0  0  0  0  0  0  0  0  0
   58.4958   25.9946   47.5878 H   0  0  0  0  0  0  0  0  0  0  0  0
   57.5167   27.5040   47.5942 H   0  0  0  0  0  0  0  0  0  0  0  0
   59.4151   30.7365   46.7548 H   0  0  0  0  0  0  0  0  0  0  0  0
   61.3559   32.7693   45.6776 H   0  0  0  0  0  0  0  0  0  0  0  0
   61.0458   34.5433   45.8113 H   0  0  0  0  0  0  0  0  0  0  0  0
   63.2810   33.1750   46.8205 H   0  0  0  0  0  0  0  0  0  0  0  0
   62.7345   34.8353   47.2822 H   0  0  0  0  0  0  0  0  0  0  0  0
   60.9688   33.7253   50.1567 H   0  0  0  0  0  0  0  0  0  0  0  0
   61.6747   35.1613   49.2932 H   0  0  0  0  0  0  0  0  0  0  0  0
   59.0816   34.0663   48.9457 H   0  0  0  0  0  0  0  0  0  0  0  0
   59.8908   35.3151   47.9349 H   0  0  0  0  0  0  0  0  0  0  0  0
   56.9340   32.8662   43.9200 H   0  0  0  0  0  0  0  0  0  0  0  0
   56.4315   30.7263   42.7478 H   0  0  0  0  0  0  0  0  0  0  0  0
   56.8690   27.5690   43.9510 H   0  0  0  0  0  0  0  0  0  0  0  0
  1  2  2  0
  2  3  1  0
  3  4  1  0
  4  5  2  0
  5  6  1  0
  5  7  1  0
  7  8  1  0
  8  9  2  0
  8 10  1  0
 10 11  1  0
 11 12  2  0
  2 13  1  0
 13 14  1  0
 14 15  2  0
 15 16  1  0
 16 17  1  0
 17 18  2  0
 17 19  2  0
 17 20  1  0
 20 21  1  0
 21 22  1  0
 22 23  1  0
 23 24  1  0
 24 25  1  0
 16 26  2  0
 26 27  1  0
 27 28  2  0
 28 29  1  0
 11  4  1  0
 28 14  1  0
 25 20  1  0
  3 30  1  0
  3 31  1  0
 15 32  1  0
 21 33  1  0
 21 34  1  0
 22 35  1  0
 22 36  1  0
 24 37  1  0
 24 38  1  0
 25 39  1  0
 25 40  1  0
 26 41  1  0
 27 42  1  0
 29 43  1  0
M  CHG  4   6  -1   7  -1  10  -1  13  -1
M  END
>  <UniqueID>  (14) 
13

>  <SMILES>  (14) 
O=C(Cc1c([O-])[n-]c(=O)[n-]c1=O)[N-]c1cc(S(=O)(=O)N2CCOCC2)ccc1O

>  <Energy>  (14) 
57.464151181860906

>  <Genealogy>  (14) 
O=C(Cc1c([O-])[n-]c(=O)[n-]c1=O)[N-]c1cc(S(=O)(=O)N2CCOCC2)ccc1O (protonated)
O=C(Cc1c([O-])[n-]c(=O)[n-]c1=O)[N-]c1cc(S(=O)(=O)N2CCOCC2)ccc1O (3D coordinates assigned)
O=C(Cc1c([O-])[n-]c(=O)[n-]c1=O)[N-]c1cc(S(=O)(=O)N2CCOCC2)ccc1O (nonaromatic ring conformer: 57.464151181860906 kcal/mol)

>  <smiles>  (14) 
O=C(Cc1c(O)[nH]c(=O)[nH]c1=O)Nc1cc(S(=O)(=O)N2CCOCC2)ccc1O

>  <score_type>  (14) 
oracle

>  <origin>  (14) 
adg

>  <m_score__min__energy>  (14) 
-17.489999999999998

>  <m_primary>  (14) 
energy

$$$$
14:0
     RDKit          3D

 64 68  0  0  0  0  0  0  0  0999 V2000
   59.1280   21.8130   44.1375 H   0  0  0  0  0  0  0  0  0  0  0  0
   58.1000   22.0180   44.4710 C   0  0  0  0  0  0  0  0  0  0  0  0
   56.9290   21.5890   43.8760 C   0  0  0  0  0  0  0  0  0  0  0  0
   56.8350   20.7270   42.6610 C   0  0  0  0  0  0  0  0  0  0  0  0
   56.7204   19.6761   42.9650 H   0  0  0  0  0  0  0  0  0  0  0  0
   55.9648   21.0322   42.0613 H   0  0  0  0  0  0  0  0  0  0  0  0
   57.7505   20.8375   42.0613 H   0  0  0  0  0  0  0  0  0  0  0  0
   55.8900   22.0170   44.5550 O   0  0  0  0  0  0  0  0  0  0  0  0
   56.3300   22.7220   45.5740 C   0  0  0  0  0  0  0  0  0  0  0  0
   55.4420   23.3510   46.6040 C   0  0  0  0  0  0  0  0  0  0  0  0
   54.5110   23.6854   46.1229 H   0  0  0  0  0  0  0  0  0  0  0  0
   55.2218   22.6072   47.3839 H   0  0  0  0  0  0  0  0  0  0  0  0
   56.1030   24.5000   47.2220 N   0  0  0  0  0  0  0  0  0  0  0  0
   56.3740   25.6090   46.6000 C   0  0  0  0  0  0  0  0  0  0  0  0
   55.4070   26.4340   46.1450 N   0  0  0  0  0  0  0  0  0  0  0  0
   56.1080   27.4530   45.6180 C   0  0  0  0  0  0  0  0  0  0  0  0
   55.5260   28.5680   45.0320 O   0  0  0  0  0  0  0  0  0  0  0  0
   57.4570   27.2230   45.7560 C   0  0  0  0  0  0  0  0  0  0  0  0
   58.5770   28.1520   45.4050 C   0  0  0  0  0  0  0  0  0  0  0  0
   59.1807   28.3538   46.3021 H   0  0  0  0  0  0  0  0  0  0  0  0
   59.2097   27.6884   44.6337 H   0  0  0  0  0  0  0  0  0  0  0  0
   58.0130   29.4410   44.8810 C   0  0  0  0  0  0  0  0  0  0  0  0
   57.5320   29.6350   43.5900 C   0  0  0  0  0  0  0  0  0  0  0  0
   57.4156   28.8395   42.8393 H   0  0  0  0  0  0  0  0  0  0  0  0
   57.2280   30.9340   43.3860 N   0  0  0  0  0  0  0  0  0  0  0  0
   56.8570   31.3590   42.5070 H   0  0  0  0  0  0  0  0  0  0  0  0
   57.5170   31.5680   44.5350 C   0  0  0  0  0  0  0  0  0  0  0  0
   57.3780   32.9280   44.7920 C   0  0  0  0  0  0  0  0  0  0  0  0
   56.9889   33.6128   44.0241 H   0  0  0  0  0  0  0  0  0  0  0  0
   57.7490   33.4000   46.0600 C   0  0  0  0  0  0  0  0  0  0  0  0
   57.6523   34.4706   46.2933 H   0  0  0  0  0  0  0  0  0  0  0  0
   58.2450   32.5130   47.0380 C   0  0  0  0  0  0  0  0  0  0  0  0
   58.5299   32.8983   48.0282 H   0  0  0  0  0  0  0  0  0  0  0  0
   58.3800   31.1310   46.7580 C   0  0  0  0  0  0  0  0  0  0  0  0
   58.8590   30.2090   47.7020 O   0  0  0  0  0  0  0  0  0  0  0  0
   60.2360   29.9720   47.9980 C   0  0  0  0  0  0  0  0  0  0  0  0
   60.5663   29.0581   47.4826 H   0  0  0  0  0  0  0  0  0  0  0  0
   60.8299   30.8322   47.6553 H   0  0  0  0  0  0  0  0  0  0  0  0
   60.4320   29.7990   49.5160 C   0  0  0  0  0  0  0  0  0  0  0  0
   60.9253   28.8331   49.6996 H   0  0  0  0  0  0  0  0  0  0  0  0
   61.0440   30.6413   49.8709 H   0  0  0  0  0  0  0  0  0  0  0  0
   59.1510   29.8280   50.2640 N   0  0  0  0  0  0  0  0  0  0  0  0
   58.4100   29.3930   49.6610 H   0  0  0  0  0  0  0  0  0  0  0  0
   58.7610   31.2320   50.5240 C   0  0  0  0  0  0  0  0  0  0  0  0
   59.5177   31.6993   51.1714 H   0  0  0  0  0  0  0  0  0  0  0  0
   58.6939   31.7562   49.5592 H   0  0  0  0  0  0  0  0  0  0  0  0
   57.3840   31.3170   51.2190 C   0  0  0  0  0  0  0  0  0  0  0  0
   57.4317   32.0797   52.0102 H   0  0  0  0  0  0  0  0  0  0  0  0
   56.6343   31.5803   50.4583 H   0  0  0  0  0  0  0  0  0  0  0  0
   56.9900   30.0280   51.8220 N   0  0  0  0  0  0  0  0  0  0  0  0
   55.8520   30.2150   52.7340 C   0  0  0  0  0  0  0  0  0  0  0  0
   56.2030   30.1573   53.7749 H   0  0  0  0  0  0  0  0  0  0  0  0
   55.3964   31.2000   52.5547 H   0  0  0  0  0  0  0  0  0  0  0  0
   55.1052   29.4275   52.5547 H   0  0  0  0  0  0  0  0  0  0  0  0
   58.1290   29.4280   52.5350 C   0  0  0  0  0  0  0  0  0  0  0  0
   58.5160   30.1468   53.2722 H   0  0  0  0  0  0  0  0  0  0  0  0
   57.7927   28.5130   53.0446 H   0  0  0  0  0  0  0  0  0  0  0  0
   59.2500   29.0670   51.5370 C   0  0  0  0  0  0  0  0  0  0  0  0
   60.2213   29.2870   52.0040 H   0  0  0  0  0  0  0  0  0  0  0  0
   59.1481   27.9989   51.2946 H   0  0  0  0  0  0  0  0  0  0  0  0
   58.0060   30.6950   45.4780 C   0  0  0  0  0  0  0  0  0  0  0  0
   57.6340   26.0510   46.3870 N   0  0  0  0  0  0  0  0  0  0  0  0
   57.7130   22.7560   45.5690 C   0  0  0  0  0  0  0  0  0  0  0  0
   58.3677   23.2659   46.2911 H   0  0  0  0  0  0  0  0  0  0  0  0
  1  2  1  0
  2  3  2  0
  3  4  1  0
  4  5  1  0
  4  6  1  0
  4  7  1  0
  3  8  1  0
  8  9  1  0
  9 10  1  0
 10 11  1  0
 10 12  1  0
 10 13  1  0
 13 14  2  0
 14 15  1  0
 15 16  1  0
 16 17  1  0
 16 18  2  0
 18 19  1  0
 19 20  1  0
 19 21  1  0
 19 22  1  0
 22 23  2  0
 23 24  1  0
 23 25  1  0
 25 26  1  0
 25 27  1  0
 27 28  2  0
 28 29  1  0
 28 30  1  0
 30 31  1  0
 30 32  2  0
 32 33  1  0
 32 34  1  0
 34 35  1  0
 35 36  1  0
 36 37  1  0
 36 38  1  0
 36 39  1  0
 39 40  1  0
 39 41  1  0
 39 42  1  0
 42 43  1  0
 42 44  1  0
 44 45  1  0
 44 46  1  0
 44 47  1  0
 47 48  1  0
 47 49  1  0
 47 50  1  0
 50 51  1  0
 51 52  1  0
 51 53  1  0
 51 54  1  0
 50 55  1  0
 55 56  1  0
 55 57  1  0
 55 58  1  0
 58 59  1  0
 58 60  1  0
 34 61  2  0
 18 62  1  0
  9 63  2  0
 63 64  1  0
 63  2  1  0
 62 14  1  0
 61 22  1  0
 61 27  1  0
 58 42  1  0
M  CHG  4  15  -1  17  -1  42   1  62  -1
M  END
>  <UniqueID>  (15) 
14

>  <SMILES>  (15) 
Cc1ccc(C/N=c2/[n-]c([O-])c(Cc3c[nH]c4cccc(OCC[NH+]5CCN(C)CC5)c34)[n-]2)o1

>  <Energy>  (15) 
157.84690623353856

>  <Genealogy>  (15) 
Cc1ccc(CN=c2[n-]c([O-])c(Cc3c[nH]c4cccc(OCC[NH+]5CCN(C)CC5)c34)[n-]2)o1 (protonated)
Cc1ccc(C/N=c2/[n-]c([O-])c(Cc3c[nH]c4cccc(OCC[NH+]5CCN(C)CC5)c34)[n-]2)o1 (cis-trans isomerization)
Cc1ccc(C/N=c2/[n-]c([O-])c(Cc3c[nH]c4cccc(OCC[NH+]5CCN(C)CC5)c34)[n-]2)o1 (3D coordinates assigned)
Cc1ccc(C/N=c2/[n-]c([O-])c(Cc3c[nH]c4cccc(OCC[NH+]5CCN(C)CC5)c34)[n-]2)o1 (nonaromatic ring conformer: 157.84690623353856 kcal/mol)

>  <smiles>  (15) 
Cc1ccc(CN=c2[nH]c(O)c(Cc3c[nH]c4cccc(OCCN5CCN(C)CC5)c34)[nH]2)o1

>  <score_type>  (15) 
oracle

>  <origin>  (15) 
adg

>  <m_score__min__energy>  (15) 
-13.99

>  <m_primary>  (15) 
energy

$$$$
15:0
     RDKit          3D

 56 59  0  0  0  0  0  0  0  0999 V2000
   62.4640   32.7460   52.6030 C   0  0  0  0  0  0  0  0  0  0  0  0
   61.1730   32.8110   52.0060 O   0  0  0  0  0  0  0  0  0  0  0  0
   60.6700   31.8600   51.1070 C   0  0  0  0  0  0  0  0  0  0  0  0
   59.4020   31.9830   50.5080 C   0  0  0  0  0  0  0  0  0  0  0  0
   58.9550   31.0200   49.5990 C   0  0  0  0  0  0  0  0  0  0  0  0
   59.7590   29.9120   49.2810 C   0  0  0  0  0  0  0  0  0  0  0  0
   59.2930   28.9030   48.3050 C   0  0  0  0  0  0  0  0  0  0  0  0
   58.1460   29.0310   47.6010 N   0  0  0  0  0  0  0  0  0  0  0  0
   58.1270   27.9460   46.8060 C   0  0  0  0  0  0  0  0  0  0  0  0
   57.1410   27.7690   45.6900 C   0  0  0  0  0  0  0  0  0  0  0  0
   57.3670   28.7960   44.6830 N   0  0  0  0  0  0  0  0  0  0  0  0
   56.8780   30.1270   44.8570 C   0  0  0  0  0  0  0  0  0  0  0  0
   55.7100   30.4080   44.4740 O   0  0  0  0  0  0  0  0  0  0  0  0
   57.7630   31.1790   45.4050 C   0  0  0  0  0  0  0  0  0  0  0  0
   59.0890   30.8810   45.7640 C   0  0  0  0  0  0  0  0  0  0  0  0
   59.8960   31.8500   46.3660 C   0  0  0  0  0  0  0  0  0  0  0  0
   59.3940   33.1360   46.6260 C   0  0  0  0  0  0  0  0  0  0  0  0
   60.2500   34.1560   47.2770 C   0  0  0  0  0  0  0  0  0  0  0  0
   59.8040   35.3240   47.4400 O   0  0  0  0  0  0  0  0  0  0  0  0
   61.5700   33.8340   47.7530 N   0  0  0  0  0  0  0  0  0  0  0  0
   62.0450   34.4390   49.0010 C   0  0  0  0  0  0  0  0  0  0  0  0
   63.4060   33.8560   49.3870 C   0  0  0  0  0  0  0  0  0  0  0  0
   63.4130   32.4700   49.1200 O   0  0  0  0  0  0  0  0  0  0  0  0
   63.4640   32.2310   47.7210 C   0  0  0  0  0  0  0  0  0  0  0  0
   62.5370   33.1460   46.8880 C   0  0  0  0  0  0  0  0  0  0  0  0
   58.0810   33.4460   46.2330 C   0  0  0  0  0  0  0  0  0  0  0  0
   57.2720   32.4760   45.6370 C   0  0  0  0  0  0  0  0  0  0  0  0
   59.2650   27.2000   47.0360 C   0  0  0  0  0  0  0  0  0  0  0  0
   59.6950   25.9710   46.3040 C   0  0  0  0  0  0  0  0  0  0  0  0
   60.0070   27.8030   47.9800 N   0  0  0  0  0  0  0  0  0  0  0  0
   61.0190   29.7880   49.8890 C   0  0  0  0  0  0  0  0  0  0  0  0
   61.4670   30.7550   50.7930 C   0  0  0  0  0  0  0  0  0  0  0  0
   62.3622   32.7511   53.6983 H   0  0  0  0  0  0  0  0  0  0  0  0
   62.9684   31.8213   52.2860 H   0  0  0  0  0  0  0  0  0  0  0  0
   63.0588   33.6153   52.2860 H   0  0  0  0  0  0  0  0  0  0  0  0
   58.7600   32.8410   50.7565 H   0  0  0  0  0  0  0  0  0  0  0  0
   57.9666   31.1301   49.1290 H   0  0  0  0  0  0  0  0  0  0  0  0
   57.2723   26.7750   45.2375 H   0  0  0  0  0  0  0  0  0  0  0  0
   56.1178   27.8571   46.0840 H   0  0  0  0  0  0  0  0  0  0  0  0
   59.4945   29.8772   45.5695 H   0  0  0  0  0  0  0  0  0  0  0  0
   60.9329   31.6038   46.6385 H   0  0  0  0  0  0  0  0  0  0  0  0
   62.1412   35.5262   48.8640 H   0  0  0  0  0  0  0  0  0  0  0  0
   61.3223   34.2236   49.8018 H   0  0  0  0  0  0  0  0  0  0  0  0
   64.1959   34.3472   48.7999 H   0  0  0  0  0  0  0  0  0  0  0  0
   63.5888   34.0256   50.4584 H   0  0  0  0  0  0  0  0  0  0  0  0
   64.4986   32.3873   47.3817 H   0  0  0  0  0  0  0  0  0  0  0  0
   63.1153   31.1997   47.5634 H   0  0  0  0  0  0  0  0  0  0  0  0
   63.1472   33.8950   46.3620 H   0  0  0  0  0  0  0  0  0  0  0  0
   61.9857   32.5261   46.1657 H   0  0  0  0  0  0  0  0  0  0  0  0
   57.6874   34.4602   46.3960 H   0  0  0  0  0  0  0  0  0  0  0  0
   56.2416   32.7289   45.3465 H   0  0  0  0  0  0  0  0  0  0  0  0
   59.9684   25.1896   47.0283 H   0  0  0  0  0  0  0  0  0  0  0  0
   58.8689   25.6126   45.6723 H   0  0  0  0  0  0  0  0  0  0  0  0
   60.5644   26.2058   45.6723 H   0  0  0  0  0  0  0  0  0  0  0  0
   61.6574   28.9241   49.6521 H   0  0  0  0  0  0  0  0  0  0  0  0
   62.4560   30.6457   51.2619 H   0  0  0  0  0  0  0  0  0  0  0  0
  1  2  1  0
  2  3  1  0
  3  4  2  0
  4  5  1  0
  5  6  2  0
  6  7  1  0
  7  8  2  0
  8  9  1  0
  9 10  1  0
 10 11  1  0
 11 12  1  0
 12 13  2  0
 12 14  1  0
 14 15  2  0
 15 16  1  0
 16 17  2  0
 17 18  1  0
 18 19  2  0
 18 20  1  0
 20 21  1  0
 21 22  1  0
 22 23  1  0
 23 24  1  0
 24 25  1  0
 17 26  1  0
 26 27  2  0
  9 28  2  0
 28 29  1  0
 28 30  1  0
  6 31  1  0
 31 32  2  0
 32  3  1  0
 30  7  1  0
 27 14  1  0
 25 20  1  0
  1 33  1  0
  1 34  1  0
  1 35  1  0
  4 36  1  0
  5 37  1  0
 10 38  1  0
 10 39  1  0
 15 40  1  0
 16 41  1  0
 21 42  1  0
 21 43  1  0
 22 44  1  0
 22 45  1  0
 24 46  1  0
 24 47  1  0
 25 48  1  0
 25 49  1  0
 26 50  1  0
 27 51  1  0
 29 52  1  0
 29 53  1  0
 29 54  1  0
 31 55  1  0
 32 56  1  0
M  CHG  2  11  -1  30  -1
M  END
>  <UniqueID>  (16) 
15

>  <SMILES>  (16) 
COc1ccc(-c2nc(C[N-]C(=O)c3ccc(C(=O)N4CCOCC4)cc3)c(C)[n-]2)cc1

>  <Energy>  (16) 
96.45770729028882

>  <Genealogy>  (16) 
COc1ccc(-c2nc(C[N-]C(=O)c3ccc(C(=O)N4CCOCC4)cc3)c(C)[n-]2)cc1 (protonated)
COc1ccc(-c2nc(C[N-]C(=O)c3ccc(C(=O)N4CCOCC4)cc3)c(C)[n-]2)cc1 (3D coordinates assigned)
COc1ccc(-c2nc(C[N-]C(=O)c3ccc(C(=O)N4CCOCC4)cc3)c(C)[n-]2)cc1 (nonaromatic ring conformer: 96.45770729028882 kcal/mol)

>  <smiles>  (16) 
COc1ccc(-c2nc(CNC(=O)c3ccc(C(=O)N4CCOCC4)cc3)c(C)[nH]2)cc1

>  <score_type>  (16) 
oracle

>  <origin>  (16) 
adg

>  <m_score__min__energy>  (16) 
-11.199999999999999

>  <m_primary>  (16) 
energy

$$$$
16:0
     RDKit          3D

 49 51  0  0  0  0  0  0  0  0999 V2000
   57.3510   21.7490   43.3840 C   0  0  0  0  0  0  0  0  0  0  0  0
   57.1920   23.1840   44.4300 S   0  0  0  0  0  0  0  0  0  0  0  0
   58.4780   23.3870   45.1800 O   0  0  0  0  0  0  0  0  0  0  0  0
   56.9780   24.3810   43.5460 O   0  0  0  0  0  0  0  0  0  0  0  0
   55.8470   23.0720   45.5600 N   0  0  0  0  0  0  0  0  0  0  0  0
   55.8860   21.7850   46.2720 C   0  0  0  0  0  0  0  0  0  0  0  0
   56.4180   22.0250   47.6860 C   0  0  0  0  0  0  0  0  0  0  0  0
   56.5980   23.5260   47.8130 C   0  0  0  0  0  0  0  0  0  0  0  0
   55.8290   24.0910   46.6270 C   0  0  1  0  0  0  0  0  0  0  0  0
   56.2420   25.4800   46.1940 C   0  0  0  0  0  0  0  0  0  0  0  0
   55.3740   26.3730   45.9970 O   0  0  0  0  0  0  0  0  0  0  0  0
   57.6390   25.7850   46.0580 N   0  0  0  0  0  0  0  0  0  0  0  0
   58.1440   27.0280   45.5440 C   0  0  0  0  0  0  0  0  0  0  0  0
   59.5230   27.3000   45.5070 C   0  0  0  0  0  0  0  0  0  0  0  0
   59.9870   28.5290   45.0300 C   0  0  0  0  0  0  0  0  0  0  0  0
   59.0820   29.5000   44.5940 C   0  0  0  0  0  0  0  0  0  0  0  0
   57.7050   29.2470   44.6370 C   0  0  0  0  0  0  0  0  0  0  0  0
   56.5640   30.4870   44.1230 S   0  0  0  0  0  0  0  0  0  0  0  0
   56.6280   30.6250   42.6270 O   0  0  0  0  0  0  0  0  0  0  0  0
   55.1680   30.0790   44.5060 O   0  0  0  0  0  0  0  0  0  0  0  0
   56.9880   32.0060   44.8680 N   0  0  0  0  0  0  0  0  0  0  0  0
   57.8070   32.8260   43.9750 C   0  0  0  0  0  0  0  0  0  0  0  0
   58.6510   33.7250   44.8670 C   0  0  0  0  0  0  0  0  0  0  0  0
   58.6520   33.0520   46.2310 C   0  0  0  0  0  0  0  0  0  0  0  0
   57.8010   31.8030   46.0660 C   0  0  0  0  0  0  0  0  0  0  0  0
   57.2400   28.0170   45.1250 C   0  0  0  0  0  0  0  0  0  0  0  0
   57.4507   20.8491   44.0087 H   0  0  0  0  0  0  0  0  0  0  0  0
   56.4575   21.6573   42.7490 H   0  0  0  0  0  0  0  0  0  0  0  0
   58.2429   21.8552   42.7490 H   0  0  0  0  0  0  0  0  0  0  0  0
   54.8729   21.3598   46.3245 H   0  0  0  0  0  0  0  0  0  0  0  0
   56.5411   21.0804   45.7387 H   0  0  0  0  0  0  0  0  0  0  0  0
   55.6970   21.6615   48.4330 H   0  0  0  0  0  0  0  0  0  0  0  0
   57.3628   21.4888   47.8586 H   0  0  0  0  0  0  0  0  0  0  0  0
   56.1775   23.8913   48.7615 H   0  0  0  0  0  0  0  0  0  0  0  0
   57.6560   23.8269   47.8136 H   0  0  0  0  0  0  0  0  0  0  0  0
   54.7886   24.2797   46.9301 H   0  0  0  0  0  0  0  0  0  0  0  0
   58.3240   25.1070   46.4620 H   0  0  0  0  0  0  0  0  0  0  0  0
   60.2400   26.5419   45.8551 H   0  0  0  0  0  0  0  0  0  0  0  0
   61.0676   28.7323   44.9978 H   0  0  0  0  0  0  0  0  0  0  0  0
   59.4515   30.4648   44.2163 H   0  0  0  0  0  0  0  0  0  0  0  0
   58.4551   32.1856   43.3587 H   0  0  0  0  0  0  0  0  0  0  0  0
   57.1802   33.4184   43.2922 H   0  0  0  0  0  0  0  0  0  0  0  0
   59.6760   33.8032   44.4754 H   0  0  0  0  0  0  0  0  0  0  0  0
   58.2492   34.7479   44.9152 H   0  0  0  0  0  0  0  0  0  0  0  0
   59.6768   32.7831   46.5266 H   0  0  0  0  0  0  0  0  0  0  0  0
   58.2570   33.7153   47.0146 H   0  0  0  0  0  0  0  0  0  0  0  0
   58.4442   30.9192   45.9428 H   0  0  0  0  0  0  0  0  0  0  0  0
   57.1688   31.6344   46.9502 H   0  0  0  0  0  0  0  0  0  0  0  0
   56.1582   27.8257   45.1799 H   0  0  0  0  0  0  0  0  0  0  0  0
  1  2  1  0
  2  3  2  0
  2  4  2  0
  2  5  1  0
  5  6  1  0
  6  7  1  0
  7  8  1  0
  8  9  1  0
  9 10  1  0
 10 11  2  0
 10 12  1  0
 12 13  1  0
 13 14  2  0
 14 15  1  0
 15 16  2  0
 16 17  1  0
 17 18  1  0
 18 19  2  0
 18 20  2  0
 18 21  1  0
 21 22  1  0
 22 23  1  0
 23 24  1  0
 24 25  1  0
 17 26  2  0
  9  5  1  0
 26 13  1  0
 25 21  1  0
  1 27  1  0
  1 28  1  0
  1 29  1  0
  6 30  1  0
  6 31  1  0
  7 32  1  0
  7 33  1  0
  8 34  1  0
  8 35  1  0
  9 36  1  1
 12 37  1  0
 14 38  1  0
 15 39  1  0
 16 40  1  0
 22 41  1  0
 22 42  1  0
 23 43  1  0
 23 44  1  0
 24 45  1  0
 24 46  1  0
 25 47  1  0
 25 48  1  0
 26 49  1  0
M  END
>  <UniqueID>  (17) 
16

>  <SMILES>  (17) 
CS(=O)(=O)N1CCC[C@H]1C(=O)Nc1cccc(S(=O)(=O)N2CCCC2)c1

>  <Energy>  (17) 
55.60269805520812

>  <Genealogy>  (17) 
CS(=O)(=O)N1CCC[C@H]1C(=O)Nc1cccc(S(=O)(=O)N2CCCC2)c1 (chirality)
CS(=O)(=O)N1CCC[C@H]1C(=O)Nc1cccc(S(=O)(=O)N2CCCC2)c1 (3D coordinates assigned)
CS(=O)(=O)N1CCC[C@H]1C(=O)Nc1cccc(S(=O)(=O)N2CCCC2)c1 (nonaromatic ring conformer: 55.60269805520812 kcal/mol)

>  <smiles>  (17) 
CS(=O)(=O)N1CCCC1C(=O)Nc1cccc(S(=O)(=O)N2CCCC2)c1

>  <score_type>  (17) 
oracle

>  <origin>  (17) 
adg

>  <m_score__min__energy>  (17) 
-9.2699999999999996

>  <m_primary>  (17) 
energy

$$$$
17:0
     RDKit          3D

 37 39  0  0  0  0  0  0  0  0999 V2000
   57.3250   32.3380   41.2470 C   0  0  0  0  0  0  0  0  0  0  0  0
   57.1610   31.5480   42.3170 C   0  0  0  0  0  0  0  0  0  0  0  0
   56.4250   30.4020   42.2100 N   0  0  0  0  0  0  0  0  0  0  0  0
   56.2360   29.5750   43.2730 C   0  0  0  0  0  0  0  0  0  0  0  0
   56.8160   29.8910   44.5180 C   0  0  0  0  0  0  0  0  0  0  0  0
   56.6670   29.1230   45.6120 C   0  0  0  0  0  0  0  0  0  0  0  0
   57.3110   27.8040   45.8100 C   0  0  0  0  0  0  0  0  0  0  0  0
   56.5490   26.6380   45.9950 C   0  0  0  0  0  0  0  0  0  0  0  0
   55.1580   26.7210   45.9580 O   0  0  0  0  0  0  0  0  0  0  0  0
   57.1640   25.4290   46.1960 N   0  0  0  0  0  0  0  0  0  0  0  0
   56.3430   24.2320   46.4740 C   0  0  0  0  0  0  0  0  0  0  0  0
   56.4920   23.2150   45.3680 C   0  0  0  0  0  0  0  0  0  0  0  0
   56.1540   23.5560   44.0450 C   0  0  0  0  0  0  0  0  0  0  0  0
   56.2580   22.6090   43.0230 C   0  0  0  0  0  0  0  0  0  0  0  0
   56.7010   21.3150   43.3080 C   0  0  0  0  0  0  0  0  0  0  0  0
   57.0430   20.9670   44.6170 C   0  0  0  0  0  0  0  0  0  0  0  0
   56.9410   21.9100   45.6450 C   0  0  0  0  0  0  0  0  0  0  0  0
   57.2850   21.5490   46.9070 F   0  0  0  0  0  0  0  0  0  0  0  0
   58.5340   25.3520   46.1530 C   0  0  0  0  0  0  0  0  0  0  0  0
   59.1290   24.2510   46.3090 O   0  0  0  0  0  0  0  0  0  0  0  0
   59.2760   26.4670   45.9300 N   0  0  0  0  0  0  0  0  0  0  0  0
   58.7020   27.6800   45.7580 C   0  0  0  0  0  0  0  0  0  0  0  0
   59.4320   28.6880   45.5610 O   0  0  0  0  0  0  0  0  0  0  0  0
   57.5350   31.0390   44.6210 N   0  0  0  0  0  0  0  0  0  0  0  0
   57.7270   31.8730   43.5670 C   0  0  0  0  0  0  0  0  0  0  0  0
   58.4100   32.9200   43.7260 O   0  0  0  0  0  0  0  0  0  0  0  0
   57.9171   33.2612   41.3306 H   0  0  0  0  0  0  0  0  0  0  0  0
   56.8675   32.0632   40.2852 H   0  0  0  0  0  0  0  0  0  0  0  0
   55.9830   30.1380   41.2990 H   0  0  0  0  0  0  0  0  0  0  0  0
   55.6323   28.6623   43.1614 H   0  0  0  0  0  0  0  0  0  0  0  0
   56.0205   29.5016   46.4174 H   0  0  0  0  0  0  0  0  0  0  0  0
   56.6689   23.7831   47.4239 H   0  0  0  0  0  0  0  0  0  0  0  0
   55.2871   24.5339   46.5374 H   0  0  0  0  0  0  0  0  0  0  0  0
   55.8060   24.5737   43.8143 H   0  0  0  0  0  0  0  0  0  0  0  0
   55.9905   22.8828   41.9918 H   0  0  0  0  0  0  0  0  0  0  0  0
   56.7805   20.5706   42.5021 H   0  0  0  0  0  0  0  0  0  0  0  0
   57.3935   19.9484   44.8399 H   0  0  0  0  0  0  0  0  0  0  0  0
  1  2  2  0
  2  3  1  0
  3  4  2  0
  4  5  1  0
  5  6  2  3
  6  7  1  0
  7  8  2  0
  8  9  1  0
  8 10  1  0
 10 11  1  0
 11 12  1  0
 12 13  2  0
 13 14  1  0
 14 15  2  0
 15 16  1  0
 16 17  2  0
 17 18  1  0
 10 19  1  0
 19 20  2  0
 19 21  1  0
 21 22  1  0
 22 23  2  0
  5 24  1  0
 24 25  1  0
 25 26  2  0
 25  2  1  0
 22  7  1  0
 17 12  1  0
  1 27  1  0
  1 28  1  0
  3 29  1  0
  4 30  1  0
  6 31  1  0
 11 32  1  0
 11 33  1  0
 13 34  1  0
 14 35  1  0
 15 36  1  0
 16 37  1  0
M  CHG  4   3   1   9  -1  21  -1  24  -1
M  END
>  <UniqueID>  (18) 
17

>  <SMILES>  (18) 
C=c1[nH+]cc(=Cc2c([O-])n(Cc3ccccc3F)c(=O)[n-]c2=O)[n-]c1=O

>  <Energy>  (18) 
57.00593366501298

>  <Genealogy>  (18) 
C=c1[nH+]cc(=Cc2c([O-])n(Cc3ccccc3F)c(=O)[n-]c2=O)[n-]c1=O (protonated)
C=c1[nH+]cc(=Cc2c([O-])n(Cc3ccccc3F)c(=O)[n-]c2=O)[n-]c1=O (3D coordinates assigned)
C=c1[nH+]cc(=Cc2c([O-])n(Cc3ccccc3F)c(=O)[n-]c2=O)[n-]c1=O (optimized conformer: 57.00593366501298 kcal/mol)

>  <smiles>  (18) 
C=c1ncc(=Cc2c(O)n(Cc3ccccc3F)c(=O)[nH]c2=O)[nH]c1=O

>  <score_type>  (18) 
oracle

>  <origin>  (18) 
adg

>  <m_score__min__energy>  (18) 
-12.68

>  <m_primary>  (18) 
energy

$$$$
18:0
     RDKit          3D

 46 48  0  0  0  0  0  0  0  0999 V2000
   58.9624   35.2652   47.6713 H   0  0  0  0  0  0  0  0  0  0  0  0
   58.7560   34.5750   46.8400 C   0  0  0  0  0  0  0  0  0  0  0  0
   59.2180   34.8720   45.5520 C   0  0  0  0  0  0  0  0  0  0  0  0
   59.7936   35.7923   45.3738 H   0  0  0  0  0  0  0  0  0  0  0  0
   58.9490   34.0010   44.4920 C   0  0  0  0  0  0  0  0  0  0  0  0
   59.3181   34.2363   43.4828 H   0  0  0  0  0  0  0  0  0  0  0  0
   58.2090   32.8260   44.7100 C   0  0  0  0  0  0  0  0  0  0  0  0
   57.9170   31.9420   43.6140 N   0  0  0  0  0  0  0  0  0  0  0  0
   58.2460   32.3230   42.2330 C   0  0  0  0  0  0  0  0  0  0  0  0
   59.0486   31.6695   41.8603 H   0  0  0  0  0  0  0  0  0  0  0  0
   58.5723   33.3735   42.2259 H   0  0  0  0  0  0  0  0  0  0  0  0
   57.0240   32.1840   41.3240 C   0  0  0  0  0  0  0  0  0  0  0  0
   56.1186   32.0810   41.9401 H   0  0  0  0  0  0  0  0  0  0  0  0
   56.9357   33.0779   40.6891 H   0  0  0  0  0  0  0  0  0  0  0  0
   57.1388   31.2931   40.6891 H   0  0  0  0  0  0  0  0  0  0  0  0
   57.1540   30.4110   43.9260 S   0  0  0  0  0  0  0  0  0  0  0  0
   55.9270   30.6080   44.7720 O   0  0  0  0  0  0  0  0  0  0  0  0
   56.7490   29.7830   42.6230 O   0  0  0  0  0  0  0  0  0  0  0  0
   58.2740   29.3650   44.7950 C   0  0  0  0  0  0  0  0  0  0  0  0
   59.6430   29.4200   44.5050 C   0  0  0  0  0  0  0  0  0  0  0  0
   60.0235   30.1595   43.7850 H   0  0  0  0  0  0  0  0  0  0  0  0
   60.5250   28.5360   45.1300 C   0  0  0  0  0  0  0  0  0  0  0  0
   61.6021   28.5930   44.9139 H   0  0  0  0  0  0  0  0  0  0  0  0
   60.0450   27.5780   46.0300 C   0  0  0  0  0  0  0  0  0  0  0  0
   60.7468   26.8832   46.5145 H   0  0  0  0  0  0  0  0  0  0  0  0
   58.6710   27.4980   46.3190 C   0  0  0  0  0  0  0  0  0  0  0  0
   58.1620   26.4530   47.2470 C   0  0  0  0  0  0  0  0  0  0  0  0
   58.8900   26.0580   48.1970 O   0  0  0  0  0  0  0  0  0  0  0  0
   56.8260   25.9320   47.1450 N   0  0  0  0  0  0  0  0  0  0  0  0
   56.3920   25.0280   46.3100 C   0  0  0  0  0  0  0  0  0  0  0  0
   55.1460   25.2200   45.6940 C   0  0  0  0  0  0  0  0  0  0  0  0
   54.3750   26.3400   45.9840 O   0  0  0  0  0  0  0  0  0  0  0  0
   54.6820   24.2840   44.7690 C   0  0  0  0  0  0  0  0  0  0  0  0
   53.7102   24.4318   44.2753 H   0  0  0  0  0  0  0  0  0  0  0  0
   55.4530   23.1610   44.4720 C   0  0  0  0  0  0  0  0  0  0  0  0
   55.1034   22.4279   43.7301 H   0  0  0  0  0  0  0  0  0  0  0  0
   56.6710   22.9760   45.1240 C   0  0  0  0  0  0  0  0  0  0  0  0
   57.2765   22.0832   44.9091 H   0  0  0  0  0  0  0  0  0  0  0  0
   57.1150   23.8940   46.0250 N   0  0  0  0  0  0  0  0  0  0  0  0
   58.0200   23.6900   46.5070 H   0  0  0  0  0  0  0  0  0  0  0  0
   57.7940   28.4160   45.7110 C   0  0  0  0  0  0  0  0  0  0  0  0
   56.7220   28.3894   45.9562 H   0  0  0  0  0  0  0  0  0  0  0  0
   57.7640   32.5280   46.0100 C   0  0  0  0  0  0  0  0  0  0  0  0
   57.2007   31.6016   46.1957 H   0  0  0  0  0  0  0  0  0  0  0  0
   58.0330   33.4020   47.0690 C   0  0  0  0  0  0  0  0  0  0  0  0
   57.6751   33.1654   48.0819 H   0  0  0  0  0  0  0  0  0  0  0  0
  1  2  1  0
  2  3  2  0
  3  4  1  0
  3  5  1  0
  5  6  1  0
  5  7  2  0
  7  8  1  0
  8  9  1  0
  9 10  1  0
  9 11  1  0
  9 12  1  0
 12 13  1  0
 12 14  1  0
 12 15  1  0
  8 16  1  0
 16 17  2  0
 16 18  2  0
 16 19  1  0
 19 20  2  0
 20 21  1  0
 20 22  1  0
 22 23  1  0
 22 24  2  0
 24 25  1  0
 24 26  1  0
 26 27  1  0
 27 28  2  0
 27 29  1  0
 29 30  2  0
 30 31  1  0
 31 32  1  0
 31 33  2  0
 33 34  1  0
 33 35  1  0
 35 36  1  0
 35 37  2  0
 37 38  1  0
 37 39  1  0
 39 40  1  0
 26 41  2  0
 41 42  1  0
  7 43  1  0
 43 44  1  0
 43 45  2  0
 45 46  1  0
 45  2  1  0
 41 19  1  0
 39 30  1  0
M  CHG  1  32  -1
M  END
>  <UniqueID>  (19) 
18

>  <SMILES>  (19) 
CCN(c1ccccc1)S(=O)(=O)c1cccc(C(=O)/N=c2\[nH]cccc2[O-])c1

>  <Energy>  (19) 
59.77410258308712

>  <Genealogy>  (19) 
CCN(c1ccccc1)S(=O)(=O)c1cccc(C(=O)N=c2[nH]cccc2[O-])c1 (protonated)
CCN(c1ccccc1)S(=O)(=O)c1cccc(C(=O)/N=c2\[nH]cccc2[O-])c1 (cis-trans isomerization)
CCN(c1ccccc1)S(=O)(=O)c1cccc(C(=O)/N=c2\[nH]cccc2[O-])c1 (3D coordinates assigned)
CCN(c1ccccc1)S(=O)(=O)c1cccc(C(=O)/N=c2\[nH]cccc2[O-])c1 (optimized conformer: 59.77410258308712 kcal/mol)

>  <smiles>  (19) 
CCN(c1ccccc1)S(=O)(=O)c1cccc(C(=O)N=c2[nH]cccc2O)c1

>  <score_type>  (19) 
oracle

>  <origin>  (19) 
adg

>  <m_score__min__energy>  (19) 
-13.380000000000001

>  <m_primary>  (19) 
energy

$$$$
19:0
     RDKit          3D

 34 36  0  0  0  0  0  0  0  0999 V2000
   65.2434   32.7957   48.7181 H   0  0  0  0  0  0  0  0  0  0  0  0
   64.1820   33.0710   48.6310 C   0  0  0  0  0  0  0  0  0  0  0  0
   63.5680   33.0390   47.4170 N   0  0  0  0  0  0  0  0  0  0  0  0
   62.2600   33.3790   47.2690 C   0  0  0  0  0  0  0  0  0  0  0  0
   61.7916   33.3321   46.2748 H   0  0  0  0  0  0  0  0  0  0  0  0
   61.5070   33.7880   48.3740 C   0  0  0  0  0  0  0  0  0  0  0  0
   60.1550   34.1180   48.1930 O   0  0  0  0  0  0  0  0  0  0  0  0
   59.4510   34.0260   46.9840 C   0  0  0  0  0  0  0  0  0  0  0  0
   59.5470   35.0480   46.0930 N   0  0  0  0  0  0  0  0  0  0  0  0
   58.8860   35.0320   44.9080 C   0  0  0  0  0  0  0  0  0  0  0  0
   58.9974   35.8730   44.2078 H   0  0  0  0  0  0  0  0  0  0  0  0
   58.0650   33.9530   44.5730 C   0  0  0  0  0  0  0  0  0  0  0  0
   57.5441   33.9326   43.6044 H   0  0  0  0  0  0  0  0  0  0  0  0
   57.9090   32.8900   45.4860 C   0  0  0  0  0  0  0  0  0  0  0  0
   57.1590   31.8480   45.2500 N   0  0  0  0  0  0  0  0  0  0  0  0
   57.3850   30.7500   44.3490 C   0  0  0  0  0  0  0  0  0  0  0  0
   57.3510   30.9390   43.1030 O   0  0  0  0  0  0  0  0  0  0  0  0
   57.5560   29.3690   44.8740 C   0  0  0  0  0  0  0  0  0  0  0  0
   58.8540   28.8720   45.1060 C   0  0  0  0  0  0  0  0  0  0  0  0
   59.7256   29.5101   44.8982 H   0  0  0  0  0  0  0  0  0  0  0  0
   59.0470   27.5780   45.5970 C   0  0  0  0  0  0  0  0  0  0  0  0
   60.0666   27.2040   45.7717 H   0  0  0  0  0  0  0  0  0  0  0  0
   57.9510   26.7600   45.8660 C   0  0  0  0  0  0  0  0  0  0  0  0
   58.1058   25.7402   46.2482 H   0  0  0  0  0  0  0  0  0  0  0  0
   56.6570   27.2360   45.6500 C   0  0  0  0  0  0  0  0  0  0  0  0
   55.7939   26.5890   45.8653 H   0  0  0  0  0  0  0  0  0  0  0  0
   56.4500   28.5320   45.1610 C   0  0  0  0  0  0  0  0  0  0  0  0
   55.1430   28.9680   44.9760 O   0  0  0  0  0  0  0  0  0  0  0  0
   58.6180   32.9320   46.6930 C   0  0  0  0  0  0  0  0  0  0  0  0
   58.5228   32.1073   47.4146 H   0  0  0  0  0  0  0  0  0  0  0  0
   62.1210   33.8070   49.6390 C   0  0  0  0  0  0  0  0  0  0  0  0
   61.5429   34.1004   50.5277 H   0  0  0  0  0  0  0  0  0  0  0  0
   63.4650   33.4530   49.7650 C   0  0  0  0  0  0  0  0  0  0  0  0
   63.9546   33.4750   50.7498 H   0  0  0  0  0  0  0  0  0  0  0  0
  1  2  1  0
  2  3  2  0
  3  4  1  0
  4  5  1  0
  4  6  2  0
  6  7  1  0
  7  8  1  0
  8  9  1  0
  9 10  1  0
 10 11  1  0
 10 12  2  0
 12 13  1  0
 12 14  1  0
 14 15  2  0
 15 16  1  0
 16 17  2  0
 16 18  1  0
 18 19  2  0
 19 20  1  0
 19 21  1  0
 21 22  1  0
 21 23  2  0
 23 24  1  0
 23 25  1  0
 25 26  1  0
 25 27  2  0
 27 28  1  0
 14 29  1  0
 29 30  1  0
  6 31  1  0
 31 32  1  0
 31 33  2  0
 33 34  1  0
 33  2  1  0
 29  8  2  0
 27 18  1  0
M  CHG  2   9  -1  28  -1
M  END
>  <UniqueID>  (20) 
19

>  <SMILES>  (20) 
O=C(/N=c1\cc[n-]c(Oc2cccnc2)c1)c1ccccc1[O-]

>  <Energy>  (20) 
55.87198402505422

>  <Genealogy>  (20) 
O=C(N=c1cc[n-]c(Oc2cccnc2)c1)c1ccccc1[O-] (protonated)
O=C(/N=c1\cc[n-]c(Oc2cccnc2)c1)c1ccccc1[O-] (cis-trans isomerization)
O=C(/N=c1\cc[n-]c(Oc2cccnc2)c1)c1ccccc1[O-] (3D coordinates assigned)
O=C(/N=c1\cc[n-]c(Oc2cccnc2)c1)c1ccccc1[O-] (optimized conformer: 55.87198402505422 kcal/mol)

>  <smiles>  (20) 
O=C(N=c1cc[nH]c(Oc2cccnc2)c1)c1ccccc1O

>  <score_type>  (20) 
oracle

>  <origin>  (20) 
adg

>  <m_score__min__energy>  (20) 
-12.52

>  <m_primary>  (20) 
energy

$$$$
20:0
     RDKit          3D

 28 29  0  0  0  0  0  0  0  0999 V2000
   57.5640   31.3850   42.9950 N   0  0  0  0  0  0  0  0  0  0  0  0
   57.2450   30.9060   44.3050 C   0  0  0  0  0  0  0  0  0  0  0  0
   56.6840   31.6890   45.1180 O   0  0  0  0  0  0  0  0  0  0  0  0
   57.5750   29.5230   44.7280 C   0  0  0  0  0  0  0  0  0  0  0  0
   58.9140   29.0890   44.7220 C   0  0  0  0  0  0  0  0  0  0  0  0
   59.2440   27.7900   45.1200 C   0  0  0  0  0  0  0  0  0  0  0  0
   58.2400   26.9030   45.5390 C   0  0  0  0  0  0  0  0  0  0  0  0
   58.5210   25.5890   45.9530 C   0  0  0  0  0  0  0  0  0  0  0  0
   59.7150   25.1850   45.9950 O   0  0  0  0  0  0  0  0  0  0  0  0
   57.5000   24.7590   46.3350 N   0  0  0  0  0  0  0  0  0  0  0  0
   57.7500   23.4350   46.7470 N   0  0  0  0  0  0  0  0  0  0  0  0
   58.2010   22.1680   45.6510 S   0  0  0  0  0  0  0  0  0  0  0  0
   59.6740   22.2340   45.3600 O   0  0  0  0  0  0  0  0  0  0  0  0
   57.8870   20.8460   46.2910 O   0  0  0  0  0  0  0  0  0  0  0  0
   57.2680   22.2930   44.1360 C   0  0  0  0  0  0  0  0  0  0  0  0
   57.8210   21.4720   43.1720 F   0  0  0  0  0  0  0  0  0  0  0  0
   57.2850   23.6000   43.6900 F   0  0  0  0  0  0  0  0  0  0  0  0
   55.9610   21.9050   44.3660 F   0  0  0  0  0  0  0  0  0  0  0  0
   56.2150   25.2220   46.3730 C   0  0  0  0  0  0  0  0  0  0  0  0
   55.2790   24.4710   46.7600 O   0  0  0  0  0  0  0  0  0  0  0  0
   55.9300   26.4900   45.9850 N   0  0  0  0  0  0  0  0  0  0  0  0
   56.9010   27.3340   45.5610 C   0  0  0  0  0  0  0  0  0  0  0  0
   56.5730   28.6360   45.1620 C   0  0  0  0  0  0  0  0  0  0  0  0
   57.2670   32.3420   42.7050 H   0  0  0  0  0  0  0  0  0  0  0  0
   58.1650   30.8370   42.3420 H   0  0  0  0  0  0  0  0  0  0  0  0
   59.7086   29.7786   44.4010 H   0  0  0  0  0  0  0  0  0  0  0  0
   60.2938   27.4620   45.1047 H   0  0  0  0  0  0  0  0  0  0  0  0
   55.5244   28.9673   45.1882 H   0  0  0  0  0  0  0  0  0  0  0  0
  1  2  1  0
  2  3  2  0
  2  4  1  0
  4  5  2  0
  5  6  1  0
  6  7  2  0
  7  8  1  0
  8  9  2  0
  8 10  1  0
 10 11  1  0
 11 12  1  0
 12 13  2  0
 12 14  2  0
 12 15  1  0
 15 16  1  0
 15 17  1  0
 15 18  1  0
 10 19  1  0
 19 20  2  0
 19 21  1  0
 21 22  1  0
 22 23  2  0
 23  4  1  0
 22  7  1  0
  1 24  1  0
  1 25  1  0
  5 26  1  0
  6 27  1  0
 23 28  1  0
M  CHG  2  11  -1  21  -1
M  END
>  <UniqueID>  (21) 
20

>  <SMILES>  (21) 
NC(=O)c1ccc2c(=O)n([N-]S(=O)(=O)C(F)(F)F)c(=O)[n-]c2c1

>  <Energy>  (21) 
40.17844769232793

>  <Genealogy>  (21) 
NC(=O)c1ccc2c(=O)n([N-]S(=O)(=O)C(F)(F)F)c(=O)[n-]c2c1 (protonated)
NC(=O)c1ccc2c(=O)n([N-]S(=O)(=O)C(F)(F)F)c(=O)[n-]c2c1 (3D coordinates assigned)
NC(=O)c1ccc2c(=O)n([N-]S(=O)(=O)C(F)(F)F)c(=O)[n-]c2c1 (optimized conformer: 40.17844769232793 kcal/mol)

>  <smiles>  (21) 
NC(=O)c1ccc2c(=O)n(NS(=O)(=O)C(F)(F)F)c(=O)[nH]c2c1

>  <score_type>  (21) 
oracle

>  <origin>  (21) 
adg

>  <m_score__min__energy>  (21) 
-9.7699999999999996

>  <m_primary>  (21) 
energy

$$$$
21:0
     RDKit          3D

 42 44  0  0  0  0  0  0  0  0999 V2000
   60.0448   34.9392   48.3274 H   0  0  0  0  0  0  0  0  0  0  0  0
   59.4800   34.2100   47.7280 C   0  0  0  0  0  0  0  0  0  0  0  0
   59.3910   32.8840   48.1490 C   0  0  0  0  0  0  0  0  0  0  0  0
   59.8804   32.5764   49.0849 H   0  0  0  0  0  0  0  0  0  0  0  0
   58.6830   31.9360   47.3910 C   0  0  0  0  0  0  0  0  0  0  0  0
   58.6870   30.5580   47.7830 N   0  0  0  0  0  0  0  0  0  0  0  0
   59.7080   29.3280   47.1050 S   0  0  0  0  0  0  0  0  0  0  0  0
   60.3640   29.8520   45.8550 O   0  0  0  0  0  0  0  0  0  0  0  0
   60.7760   28.9680   48.1030 O   0  0  0  0  0  0  0  0  0  0  0  0
   58.7580   27.8860   46.7550 C   0  0  0  0  0  0  0  0  0  0  0  0
   59.3360   26.6070   46.9310 C   0  0  0  0  0  0  0  0  0  0  0  0
   60.3933   26.5255   47.2235 H   0  0  0  0  0  0  0  0  0  0  0  0
   58.5770   25.4360   46.7370 C   0  0  0  0  0  0  0  0  0  0  0  0
   59.0242   24.4382   46.8572 H   0  0  0  0  0  0  0  0  0  0  0  0
   57.2380   25.5920   46.3870 C   0  0  0  0  0  0  0  0  0  0  0  0
   56.3150   24.6300   46.2380 N   0  0  0  0  0  0  0  0  0  0  0  0
   55.1930   25.3520   45.9740 C   0  0  0  0  0  0  0  0  0  0  0  0
   54.0170   24.8210   45.8020 N   0  0  0  0  0  0  0  0  0  0  0  0
   53.7140   23.6750   44.9990 C   0  0  0  0  0  0  0  0  0  0  0  0
   52.5110   23.3220   44.8640 O   0  0  0  0  0  0  0  0  0  0  0  0
   54.7330   22.9620   44.3570 O   0  0  0  0  0  0  0  0  0  0  0  0
   55.6100   23.5520   43.4000 C   0  0  0  0  0  0  0  0  0  0  0  0
   56.4131   24.0923   43.9227 H   0  0  0  0  0  0  0  0  0  0  0  0
   56.0481   22.7643   42.7695 H   0  0  0  0  0  0  0  0  0  0  0  0
   55.0454   24.2547   42.7695 H   0  0  0  0  0  0  0  0  0  0  0  0
   55.3720   26.6960   45.9510 N   0  0  0  0  0  0  0  0  0  0  0  0
   56.6780   26.8190   46.2150 C   0  0  0  0  0  0  0  0  0  0  0  0
   57.4060   27.9940   46.3750 C   0  0  0  0  0  0  0  0  0  0  0  0
   56.9401   28.9767   46.2099 H   0  0  0  0  0  0  0  0  0  0  0  0
   57.9910   32.3560   46.2230 C   0  0  0  0  0  0  0  0  0  0  0  0
   57.1830   31.4990   45.4500 O   0  0  0  0  0  0  0  0  0  0  0  0
   57.5880   30.7250   44.3160 C   0  0  0  0  0  0  0  0  0  0  0  0
   58.0726   29.7988   44.6584 H   0  0  0  0  0  0  0  0  0  0  0  0
   56.7055   30.4743   43.7091 H   0  0  0  0  0  0  0  0  0  0  0  0
   58.2971   31.3071   43.7091 H   0  0  0  0  0  0  0  0  0  0  0  0
   58.1200   33.6980   45.7920 C   0  0  0  0  0  0  0  0  0  0  0  0
   57.4210   34.1960   44.5590 C   0  0  0  0  0  0  0  0  0  0  0  0
   56.5572   34.8114   44.8505 H   0  0  0  0  0  0  0  0  0  0  0  0
   58.1182   34.8021   43.9618 H   0  0  0  0  0  0  0  0  0  0  0  0
   57.0759   33.3391   43.9618 H   0  0  0  0  0  0  0  0  0  0  0  0
   58.8570   34.6130   46.5530 C   0  0  0  0  0  0  0  0  0  0  0  0
   58.9435   35.6574   46.2189 H   0  0  0  0  0  0  0  0  0  0  0  0
  1  2  1  0
  2  3  2  0
  3  4  1  0
  3  5  1  0
  5  6  1  0
  6  7  1  0
  7  8  2  0
  7  9  2  0
  7 10  1  0
 10 11  2  0
 11 12  1  0
 11 13  1  0
 13 14  1  0
 13 15  2  0
 15 16  1  0
 16 17  1  0
 17 18  2  0
 18 19  1  0
 19 20  2  0
 19 21  1  0
 21 22  1  0
 22 23  1  0
 22 24  1  0
 22 25  1  0
 17 26  1  0
 26 27  1  0
 27 28  2  0
 28 29  1  0
  5 30  2  0
 30 31  1  0
 31 32  1  0
 32 33  1  0
 32 34  1  0
 32 35  1  0
 30 36  1  0
 36 37  1  0
 37 38  1  0
 37 39  1  0
 37 40  1  0
 36 41  2  0
 41 42  1  0
 41  2  1  0
 28 10  1  0
 27 15  1  0
M  CHG  3   6  -1  16  -1  26  -1
M  END
>  <UniqueID>  (22) 
21

>  <SMILES>  (22) 
COC(=O)/N=c1\[n-]c2ccc(S(=O)(=O)[N-]c3cccc(C)c3OC)cc2[n-]1

>  <Energy>  (22) 
86.74744337270752

>  <Genealogy>  (22) 
COC(=O)N=c1[n-]c2ccc(S(=O)(=O)[N-]c3cccc(C)c3OC)cc2[n-]1 (protonated)
COC(=O)/N=c1\[n-]c2ccc(S(=O)(=O)[N-]c3cccc(C)c3OC)cc2[n-]1 (cis-trans isomerization)
COC(=O)/N=c1\[n-]c2ccc(S(=O)(=O)[N-]c3cccc(C)c3OC)cc2[n-]1 (3D coordinates assigned)
COC(=O)/N=c1\[n-]c2ccc(S(=O)(=O)[N-]c3cccc(C)c3OC)cc2[n-]1 (optimized conformer: 86.74744337270752 kcal/mol)

>  <smiles>  (22) 
COC(=O)N=c1[nH]c2ccc(S(=O)(=O)Nc3cccc(C)c3OC)cc2[nH]1

>  <score_type>  (22) 
oracle

>  <origin>  (22) 
adg

>  <m_score__min__energy>  (22) 
-12.75

>  <m_primary>  (22) 
energy

$$$$
22:0
     RDKit          3D

 66 69  0  0  0  0  0  0  0  0999 V2000
   63.2890   33.0430   47.4010 C   0  0  0  0  0  0  0  0  0  0  0  0
   61.8850   33.5730   47.4450 C   0  0  0  0  0  0  0  0  0  0  0  0
   61.2410   33.7380   48.6790 C   0  0  0  0  0  0  0  0  0  0  0  0
   59.9540   34.2760   48.7330 C   0  0  0  0  0  0  0  0  0  0  0  0
   59.3030   34.6600   47.5590 C   0  0  0  0  0  0  0  0  0  0  0  0
   59.9320   34.5000   46.3160 C   0  0  0  0  0  0  0  0  0  0  0  0
   59.2530   34.9860   45.0650 C   0  0  0  0  0  0  0  0  0  0  0  0
   59.1910   33.9310   44.1060 O   0  0  0  0  0  0  0  0  0  0  0  0
   58.2200   32.9190   44.1080 C   0  0  0  0  0  0  0  0  0  0  0  0
   57.5280   32.5350   45.2690 C   0  0  0  0  0  0  0  0  0  0  0  0
   56.6830   31.5090   45.2440 O   0  0  0  0  0  0  0  0  0  0  0  0
   56.4190   30.8100   44.1420 C   0  0  0  0  0  0  0  0  0  0  0  0
   55.5410   29.6230   44.2300 C   0  0  0  0  0  0  0  0  0  0  0  0
   54.6570   29.4210   43.3580 O   0  0  0  0  0  0  0  0  0  0  0  0
   55.7410   28.6360   45.2470 N   0  0  0  0  0  0  0  0  0  0  0  0
   57.0250   28.2070   45.7130 C   0  0  0  0  0  0  0  0  0  0  0  0
   57.2710   26.8390   45.8870 C   0  0  0  0  0  0  0  0  0  0  0  0
   58.5280   26.4000   46.3080 C   0  0  0  0  0  0  0  0  0  0  0  0
   59.5380   27.3300   46.6000 C   0  0  0  0  0  0  0  0  0  0  0  0
   60.7840   26.8890   47.0450 O   0  0  0  0  0  0  0  0  0  0  0  0
   59.2910   28.7090   46.4480 C   0  0  0  0  0  0  0  0  0  0  0  0
   60.3350   29.7240   46.8500 C   0  0  0  0  0  0  0  0  0  0  0  0
   60.3050   29.9420   48.3120 N   0  0  0  0  0  0  0  0  0  0  0  0
   61.5980   30.4620   48.7940 C   0  0  0  0  0  0  0  0  0  0  0  0
   61.6110   30.5520   50.3370 C   0  0  0  0  0  0  0  0  0  0  0  0
   60.2660   30.3940   50.9340 N   0  0  0  0  0  0  0  0  0  0  0  0
   59.8690   28.9720   51.0810 C   0  0  0  0  0  0  0  0  0  0  0  0
   61.0660   28.0690   50.7710 C   0  0  0  0  0  0  0  0  0  0  0  0
   60.8060   27.2790   49.6420 O   0  0  0  0  0  0  0  0  0  0  0  0
   59.2650   31.2010   50.2080 C   0  0  0  0  0  0  0  0  0  0  0  0
   59.2130   30.8600   48.7000 C   0  0  0  0  0  0  0  0  0  0  0  0
   58.0370   29.1380   45.9850 C   0  0  0  0  0  0  0  0  0  0  0  0
   57.0140   31.1870   42.9280 C   0  0  0  0  0  0  0  0  0  0  0  0
   57.9330   32.2360   42.9210 C   0  0  0  0  0  0  0  0  0  0  0  0
   58.5160   32.5500   41.8500 O   0  0  0  0  0  0  0  0  0  0  0  0
   61.2310   33.9630   46.2660 C   0  0  0  0  0  0  0  0  0  0  0  0
   63.6603   32.9028   48.4269 H   0  0  0  0  0  0  0  0  0  0  0  0
   63.3005   32.0787   46.8719 H   0  0  0  0  0  0  0  0  0  0  0  0
   63.9349   33.7592   46.8719 H   0  0  0  0  0  0  0  0  0  0  0  0
   61.7513   33.4427   49.6077 H   0  0  0  0  0  0  0  0  0  0  0  0
   59.4511   34.3978   49.7037 H   0  0  0  0  0  0  0  0  0  0  0  0
   58.2918   35.0901   47.6094 H   0  0  0  0  0  0  0  0  0  0  0  0
   58.2330   35.3179   45.3088 H   0  0  0  0  0  0  0  0  0  0  0  0
   59.8260   35.8254   44.6441 H   0  0  0  0  0  0  0  0  0  0  0  0
   57.6868   33.0880   46.2065 H   0  0  0  0  0  0  0  0  0  0  0  0
   56.4720   26.1087   45.6915 H   0  0  0  0  0  0  0  0  0  0  0  0
   58.7271   25.3231   46.4110 H   0  0  0  0  0  0  0  0  0  0  0  0
   61.3300   27.4150   47.7200 H   0  0  0  0  0  0  0  0  0  0  0  0
   61.3298   29.3558   46.5587 H   0  0  0  0  0  0  0  0  0  0  0  0
   60.1212   30.6763   46.3425 H   0  0  0  0  0  0  0  0  0  0  0  0
   62.4031   29.7885   48.4650 H   0  0  0  0  0  0  0  0  0  0  0  0
   61.7497   31.4698   48.3802 H   0  0  0  0  0  0  0  0  0  0  0  0
   62.2646   29.7591   50.7294 H   0  0  0  0  0  0  0  0  0  0  0  0
   61.9763   31.5540   50.6064 H   0  0  0  0  0  0  0  0  0  0  0  0
   59.5315   28.7910   52.1122 H   0  0  0  0  0  0  0  0  0  0  0  0
   59.0512   28.7471   50.3806 H   0  0  0  0  0  0  0  0  0  0  0  0
   61.9508   28.6939   50.5796 H   0  0  0  0  0  0  0  0  0  0  0  0
   61.2466   27.4095   51.6327 H   0  0  0  0  0  0  0  0  0  0  0  0
   60.4520   27.8890   48.9460 H   0  0  0  0  0  0  0  0  0  0  0  0
   58.2741   31.0129   50.6470 H   0  0  0  0  0  0  0  0  0  0  0  0
   59.5541   32.2581   50.3028 H   0  0  0  0  0  0  0  0  0  0  0  0
   58.2480   30.3822   48.4750 H   0  0  0  0  0  0  0  0  0  0  0  0
   59.3305   31.7944   48.1316 H   0  0  0  0  0  0  0  0  0  0  0  0
   57.8475   30.2111   45.8348 H   0  0  0  0  0  0  0  0  0  0  0  0
   56.7591   30.6625   41.9953 H   0  0  0  0  0  0  0  0  0  0  0  0
   61.7377   33.8479   45.2965 H   0  0  0  0  0  0  0  0  0  0  0  0
  1  2  1  0
  2  3  2  0
  3  4  1  0
  4  5  2  0
  5  6  1  0
  6  7  1  0
  7  8  1  0
  8  9  1  0
  9 10  2  0
 10 11  1  0
 11 12  1  0
 12 13  1  0
 13 14  2  0
 13 15  1  0
 15 16  1  0
 16 17  2  0
 17 18  1  0
 18 19  2  0
 19 20  1  0
 19 21  1  0
 21 22  1  0
 22 23  1  0
 23 24  1  0
 24 25  1  0
 25 26  1  0
 26 27  1  0
 27 28  1  0
 28 29  1  0
 26 30  1  0
 30 31  1  0
 21 32  2  0
 12 33  2  0
 33 34  1  0
 34 35  2  0
  6 36  2  0
 36  2  1  0
 34  9  1  0
 32 16  1  0
 31 23  1  0
  1 37  1  0
  1 38  1  0
  1 39  1  0
  3 40  1  0
  4 41  1  0
  5 42  1  0
  7 43  1  0
  7 44  1  0
 10 45  1  0
 17 46  1  0
 18 47  1  0
 20 48  1  0
 22 49  1  0
 22 50  1  0
 24 51  1  0
 24 52  1  0
 25 53  1  0
 25 54  1  0
 27 55  1  0
 27 56  1  0
 28 57  1  0
 28 58  1  0
 29 59  1  0
 30 60  1  0
 30 61  1  0
 31 62  1  0
 31 63  1  0
 32 64  1  0
 33 65  1  0
 36 66  1  0
M  CHG  1  15  -1
M  END
>  <UniqueID>  (23) 
22

>  <SMILES>  (23) 
Cc1cccc(COc2coc(C(=O)[N-]c3ccc(O)c(CN4CCN(CCO)CC4)c3)cc2=O)c1

>  <Energy>  (23) 
87.70338016504363

>  <Genealogy>  (23) 
Cc1cccc(COc2coc(C(=O)[N-]c3ccc(O)c(CN4CCN(CCO)CC4)c3)cc2=O)c1 (protonated)
Cc1cccc(COc2coc(C(=O)[N-]c3ccc(O)c(CN4CCN(CCO)CC4)c3)cc2=O)c1 (3D coordinates assigned)
Cc1cccc(COc2coc(C(=O)[N-]c3ccc(O)c(CN4CCN(CCO)CC4)c3)cc2=O)c1 (nonaromatic ring conformer: 87.70338016504363 kcal/mol)

>  <smiles>  (23) 
Cc1cccc(COc2coc(C(=O)Nc3ccc(O)c(CN4CCN(CCO)CC4)c3)cc2=O)c1

>  <score_type>  (23) 
oracle

>  <origin>  (23) 
adg

>  <m_score__min__energy>  (23) 
-11.34

>  <m_primary>  (23) 
energy

$$$$
23:0
     RDKit          3D

 42 43  0  0  0  0  0  0  0  0999 V2000
   53.1900   23.4350   45.0200 C   0  0  0  0  0  0  0  0  0  0  0  0
   54.5240   24.0870   45.1920 C   0  0  0  0  0  0  0  0  0  0  0  0
   54.7430   25.1470   46.0040 N   0  0  0  0  0  0  0  0  0  0  0  0
   56.0240   25.4770   45.8990 N   0  0  0  0  0  0  0  0  0  0  0  0
   56.6250   26.5990   46.6200 C   0  0  0  0  0  0  0  0  0  0  0  0
   57.1510   27.6190   45.6560 C   0  0  0  0  0  0  0  0  0  0  0  0
   58.3860   27.6500   45.3980 O   0  0  0  0  0  0  0  0  0  0  0  0
   56.2440   28.4990   44.9730 N   0  0  0  0  0  0  0  0  0  0  0  0
   56.6620   29.6930   44.2930 C   0  0  0  0  0  0  0  0  0  0  0  0
   56.5470   29.7680   42.8980 C   0  0  0  0  0  0  0  0  0  0  0  0
   56.9360   30.9260   42.2210 C   0  0  0  0  0  0  0  0  0  0  0  0
   57.4270   32.0240   42.9330 C   0  0  0  0  0  0  0  0  0  0  0  0
   57.5220   31.9740   44.3300 C   0  0  0  0  0  0  0  0  0  0  0  0
   58.1010   33.3780   45.2310 S   0  0  0  0  0  0  0  0  0  0  0  0
   59.2190   34.0350   44.4700 O   0  0  0  0  0  0  0  0  0  0  0  0
   56.9820   34.3750   45.3610 O   0  0  0  0  0  0  0  0  0  0  0  0
   58.6670   32.9290   46.8210 N   0  0  0  0  0  0  0  0  0  0  0  0
   59.1320   34.1230   47.5390 C   0  0  0  0  0  0  0  0  0  0  0  0
   59.7580   31.9530   46.7070 C   0  0  0  0  0  0  0  0  0  0  0  0
   57.1350   30.8110   45.0080 C   0  0  0  0  0  0  0  0  0  0  0  0
   56.6240   24.6420   45.0210 C   0  0  0  0  0  0  0  0  0  0  0  0
   57.8740   24.6910   44.6720 N   0  0  0  0  0  0  0  0  0  0  0  0
   55.7000   23.7370   44.5500 C   0  0  0  0  0  0  0  0  0  0  0  0
   55.9030   22.6850   43.5890 C   0  0  0  0  0  0  0  0  0  0  0  0
   56.0650   21.8380   42.8160 N   0  0  0  0  0  0  0  0  0  0  0  0
   52.7555   23.2227   46.0080 H   0  0  0  0  0  0  0  0  0  0  0  0
   52.5220   24.1082   44.4627 H   0  0  0  0  0  0  0  0  0  0  0  0
   53.3108   22.4943   44.4627 H   0  0  0  0  0  0  0  0  0  0  0  0
   55.8640   27.0662   47.2624 H   0  0  0  0  0  0  0  0  0  0  0  0
   57.4584   26.2239   47.2321 H   0  0  0  0  0  0  0  0  0  0  0  0
   55.2390   28.2180   44.9110 H   0  0  0  0  0  0  0  0  0  0  0  0
   56.1488   28.9115   42.3343 H   0  0  0  0  0  0  0  0  0  0  0  0
   56.8558   30.9740   41.1250 H   0  0  0  0  0  0  0  0  0  0  0  0
   57.7400   32.9307   42.3946 H   0  0  0  0  0  0  0  0  0  0  0  0
   59.0641   33.9487   48.6230 H   0  0  0  0  0  0  0  0  0  0  0  0
   60.1770   34.3313   47.2659 H   0  0  0  0  0  0  0  0  0  0  0  0
   58.5032   34.9832   47.2659 H   0  0  0  0  0  0  0  0  0  0  0  0
   60.0905   31.6556   47.7125 H   0  0  0  0  0  0  0  0  0  0  0  0
   59.4016   31.0667   46.1616 H   0  0  0  0  0  0  0  0  0  0  0  0
   60.5993   32.4055   46.1616 H   0  0  0  0  0  0  0  0  0  0  0  0
   57.2008   30.7703   46.1053 H   0  0  0  0  0  0  0  0  0  0  0  0
   58.4360   25.5700   44.7190 H   0  0  0  0  0  0  0  0  0  0  0  0
  1  2  1  0
  2  3  1  0
  3  4  1  0
  4  5  1  0
  5  6  1  0
  6  7  2  0
  6  8  1  0
  8  9  1  0
  9 10  2  0
 10 11  1  0
 11 12  2  0
 12 13  1  0
 13 14  1  0
 14 15  2  0
 14 16  2  0
 14 17  1  0
 17 18  1  0
 17 19  1  0
 13 20  2  0
  4 21  1  0
 21 22  2  3
 21 23  1  0
 23 24  1  0
 24 25  3  0
 23  2  2  0
 20  9  1  0
  1 26  1  0
  1 27  1  0
  1 28  1  0
  5 29  1  0
  5 30  1  0
  8 31  1  0
 10 32  1  0
 11 33  1  0
 12 34  1  0
 18 35  1  0
 18 36  1  0
 18 37  1  0
 19 38  1  0
 19 39  1  0
 19 40  1  0
 20 41  1  0
 22 42  1  0
M  CHG  1   3  -1
M  END
>  <UniqueID>  (24) 
23

>  <SMILES>  (24) 
Cc1[n-]n(CC(=O)Nc2cccc(S(=O)(=O)N(C)C)c2)c(=N)c1C#N

>  <Energy>  (24) 
72.35602309446433

>  <Genealogy>  (24) 
Cc1[n-]n(CC(=O)Nc2cccc(S(=O)(=O)N(C)C)c2)c(=N)c1C#N (protonated)
Cc1[n-]n(CC(=O)Nc2cccc(S(=O)(=O)N(C)C)c2)c(=N)c1C#N (3D coordinates assigned)
Cc1[n-]n(CC(=O)Nc2cccc(S(=O)(=O)N(C)C)c2)c(=N)c1C#N (optimized conformer: 72.35602309446433 kcal/mol)

>  <smiles>  (24) 
Cc1[nH]n(CC(=O)Nc2cccc(S(=O)(=O)N(C)C)c2)c(=N)c1C#N

>  <score_type>  (24) 
oracle

>  <origin>  (24) 
adg

>  <m_score__min__energy>  (24) 
-9.7599999999999998

>  <m_primary>  (24) 
energy

$$$$
24:0
     RDKit          3D

 61 65  0  0  0  0  0  0  0  0999 V2000
   64.1370   32.7250   47.3670 O   0  0  0  0  0  0  0  0  0  0  0  0
   63.0240   32.9640   47.9010 C   0  0  0  0  0  0  0  0  0  0  0  0
   61.8890   33.2800   47.1680 C   0  0  0  0  0  0  0  0  0  0  0  0
   60.6710   33.5410   47.7600 C   0  0  0  0  0  0  0  0  0  0  0  0
   59.5070   33.8620   47.0460 N   0  0  0  0  0  0  0  0  0  0  0  0
   58.1560   33.5930   47.4900 C   0  0  0  0  0  0  0  0  0  0  0  0
   57.5250   32.7420   46.4070 C   0  0  0  0  0  0  0  0  0  0  0  0
   57.5290   33.4190   45.2160 O   0  0  0  0  0  0  0  0  0  0  0  0
   58.2400   34.5910   45.1770 C   0  0  0  0  0  0  0  0  0  0  0  0
   59.6280   34.5240   45.7400 C   0  0  0  0  0  0  0  0  0  0  0  0
   60.6380   33.4720   49.1090 N   0  0  0  0  0  0  0  0  0  0  0  0
   61.7160   33.1690   49.8550 C   0  0  0  0  0  0  0  0  0  0  0  0
   61.5740   33.1190   51.3570 C   0  0  0  0  0  0  0  0  0  0  0  0
   60.1360   33.1290   51.7060 C   0  0  0  0  0  0  0  0  0  0  0  0
   59.4220   34.2860   51.7630 N   0  0  0  0  0  0  0  0  0  0  0  0
   58.1720   34.0110   52.0790 N   0  0  0  0  0  0  0  0  0  0  0  0
   58.1050   32.6760   52.2180 C   0  0  0  0  0  0  0  0  0  0  0  0
   56.6780   31.9360   52.6010 S   0  0  0  0  0  0  0  0  0  0  0  0
   59.3050   32.0990   51.9940 N   0  0  0  0  0  0  0  0  0  0  0  0
   59.6080   30.6890   52.0470 C   0  0  0  0  0  0  0  0  0  0  0  0
   59.6920   30.0360   50.7220 C   0  0  0  0  0  0  0  0  0  0  0  0
   60.5510   28.9840   50.4440 C   0  0  0  0  0  0  0  0  0  0  0  0
   60.6250   28.3780   49.2060 C   0  0  0  0  0  0  0  0  0  0  0  0
   59.8320   28.7970   48.1610 C   0  0  0  0  0  0  0  0  0  0  0  0
   59.8600   28.2290   46.8970 O   0  0  0  0  0  0  0  0  0  0  0  0
   60.1190   29.2660   45.5710 S   0  0  0  0  0  0  0  0  0  0  0  0
   60.7590   30.5520   46.0090 O   0  0  0  0  0  0  0  0  0  0  0  0
   60.9440   28.5820   44.5120 O   0  0  0  0  0  0  0  0  0  0  0  0
   58.5350   29.6480   44.9040 C   0  0  0  0  0  0  0  0  0  0  0  0
   57.4290   28.9490   45.3280 C   0  0  0  0  0  0  0  0  0  0  0  0
   56.2110   29.3060   44.7560 C   0  0  0  0  0  0  0  0  0  0  0  0
   56.1600   30.3110   43.8180 C   0  0  0  0  0  0  0  0  0  0  0  0
   57.2710   31.0050   43.3990 C   0  0  0  0  0  0  0  0  0  0  0  0
   58.4840   30.6550   43.9630 C   0  0  0  0  0  0  0  0  0  0  0  0
   58.9700   29.8410   48.4080 C   0  0  0  0  0  0  0  0  0  0  0  0
   58.8980   30.4450   49.6460 C   0  0  0  0  0  0  0  0  0  0  0  0
   62.8880   32.9210   49.2470 N   0  0  0  0  0  0  0  0  0  0  0  0
   61.9636   33.3241   46.0714 H   0  0  0  0  0  0  0  0  0  0  0  0
   58.1686   33.0486   48.4458 H   0  0  0  0  0  0  0  0  0  0  0  0
   57.5917   34.5230   47.6531 H   0  0  0  0  0  0  0  0  0  0  0  0
   58.0973   31.8090   46.2974 H   0  0  0  0  0  0  0  0  0  0  0  0
   56.4865   32.5125   46.6879 H   0  0  0  0  0  0  0  0  0  0  0  0
   58.3157   34.9064   44.1259 H   0  0  0  0  0  0  0  0  0  0  0  0
   57.6898   35.2988   45.8144 H   0  0  0  0  0  0  0  0  0  0  0  0
   60.2817   33.9402   45.0753 H   0  0  0  0  0  0  0  0  0  0  0  0
   60.0708   35.5262   45.8372 H   0  0  0  0  0  0  0  0  0  0  0  0
   59.7320   33.6620   49.6270 H   0  0  0  0  0  0  0  0  0  0  0  0
   62.0402   32.1997   51.7410 H   0  0  0  0  0  0  0  0  0  0  0  0
   62.0714   33.9912   51.8064 H   0  0  0  0  0  0  0  0  0  0  0  0
   57.4210   34.7130   52.1870 H   0  0  0  0  0  0  0  0  0  0  0  0
   60.5752   30.5630   52.5555 H   0  0  0  0  0  0  0  0  0  0  0  0
   58.7777   30.2075   52.5844 H   0  0  0  0  0  0  0  0  0  0  0  0
   61.2046   28.6147   51.2480 H   0  0  0  0  0  0  0  0  0  0  0  0
   61.3288   27.5469   49.0516 H   0  0  0  0  0  0  0  0  0  0  0  0
   57.5030   28.1495   46.0799 H   0  0  0  0  0  0  0  0  0  0  0  0
   55.2895   28.7845   45.0541 H   0  0  0  0  0  0  0  0  0  0  0  0
   55.1842   30.5720   43.3824 H   0  0  0  0  0  0  0  0  0  0  0  0
   57.1977   31.8046   42.6471 H   0  0  0  0  0  0  0  0  0  0  0  0
   59.4042   31.1774   43.6625 H   0  0  0  0  0  0  0  0  0  0  0  0
   58.3214   30.2033   47.5968 H   0  0  0  0  0  0  0  0  0  0  0  0
   58.1924   31.2762   49.7917 H   0  0  0  0  0  0  0  0  0  0  0  0
  1  2  2  0
  2  3  1  0
  3  4  2  0
  4  5  1  0
  5  6  1  0
  6  7  1  0
  7  8  1  0
  8  9  1  0
  9 10  1  0
  4 11  1  0
 11 12  1  0
 12 13  1  0
 13 14  1  0
 14 15  2  0
 15 16  1  0
 16 17  1  0
 17 18  2  0
 17 19  1  0
 19 20  1  0
 20 21  1  0
 21 22  2  0
 22 23  1  0
 23 24  2  0
 24 25  1  0
 25 26  1  0
 26 27  2  0
 26 28  2  0
 26 29  1  0
 29 30  2  0
 30 31  1  0
 31 32  2  0
 32 33  1  0
 33 34  2  0
 24 35  1  0
 35 36  2  0
 12 37  2  0
 37  2  1  0
 10  5  1  0
 19 14  1  0
 36 21  1  0
 34 29  1  0
  3 38  1  0
  6 39  1  0
  6 40  1  0
  7 41  1  0
  7 42  1  0
  9 43  1  0
  9 44  1  0
 10 45  1  0
 10 46  1  0
 11 47  1  0
 13 48  1  0
 13 49  1  0
 16 50  1  0
 20 51  1  0
 20 52  1  0
 22 53  1  0
 23 54  1  0
 30 55  1  0
 31 56  1  0
 32 57  1  0
 33 58  1  0
 34 59  1  0
 35 60  1  0
 36 61  1  0
M  END
>  <smiles>  (25) 
O=c1cc(N2CCOCC2)[nH]c(Cc2n[nH]c(=S)n2Cc2ccc(OS(=O)(=O)c3ccccc3)cc2)n1

>  <score_type>  (25) 
oracle

>  <origin>  (25) 
adg

>  <m_score__min__energy>  (25) 
-9.7200000000000006

>  <m_primary>  (25) 
energy

$$$$
25:0
     RDKit          3D

 38 40  0  0  0  0  0  0  0  0999 V2000
   55.2023   30.0570   52.8536 H   0  0  0  0  0  0  0  0  0  0  0  0
   56.0800   30.4860   52.3480 C   0  0  0  0  0  0  0  0  0  0  0  0
   58.0500   28.0420   45.5330 N   0  0  0  0  0  0  0  0  0  0  0  0
   56.6960   27.8740   45.5160 C   0  0  0  0  0  0  0  0  0  0  0  0
   55.8970   28.8090   45.0810 N   0  0  0  0  0  0  0  0  0  0  0  0
   59.1040   30.1960   49.0240 C   0  0  0  0  0  0  0  0  0  0  0  0
   59.1310   29.1850   48.2730 O   0  0  0  0  0  0  0  0  0  0  0  0
   59.2050   31.5390   48.4170 C   0  0  0  0  0  0  0  0  0  0  0  0
   58.3730   31.8660   47.3940 N   0  0  0  0  0  0  0  0  0  0  0  0
   58.3980   33.0830   46.7840 C   0  0  0  0  0  0  0  0  0  0  0  0
   57.4840   33.3690   45.6520 C   0  0  0  0  0  0  0  0  0  0  0  0
   57.1410   34.5590   45.4250 O   0  0  0  0  0  0  0  0  0  0  0  0
   56.9840   32.3380   44.7860 N   0  0  0  0  0  0  0  0  0  0  0  0
   57.3560   30.9290   44.8580 C   0  0  0  0  0  0  0  0  0  0  0  0
   57.6191   30.6804   45.8967 H   0  0  0  0  0  0  0  0  0  0  0  0
   58.2129   30.7613   44.1890 H   0  0  0  0  0  0  0  0  0  0  0  0
   56.2250   30.0420   44.4130 C   0  0  0  0  0  0  0  0  0  0  0  0
   55.5250   30.3860   43.4220 O   0  0  0  0  0  0  0  0  0  0  0  0
   58.9500   30.0010   50.4370 N   0  0  0  0  0  0  0  0  0  0  0  0
   57.9740   30.4740   51.1550 C   0  0  0  0  0  0  0  0  0  0  0  0
   56.9830   29.7200   51.6800 N   0  0  0  0  0  0  0  0  0  0  0  0
   58.8960   27.0760   45.9830 C   0  0  0  0  0  0  0  0  0  0  0  0
   59.9823   27.2490   45.9752 H   0  0  0  0  0  0  0  0  0  0  0  0
   58.3860   25.8670   46.4540 C   0  0  0  0  0  0  0  0  0  0  0  0
   59.0639   25.0809   46.8180 H   0  0  0  0  0  0  0  0  0  0  0  0
   57.0030   25.6660   46.4580 C   0  0  0  0  0  0  0  0  0  0  0  0
   56.5856   24.7181   46.8285 H   0  0  0  0  0  0  0  0  0  0  0  0
   56.1510   26.6700   45.9910 C   0  0  0  0  0  0  0  0  0  0  0  0
   54.7750   26.4670   45.9970 O   0  0  0  0  0  0  0  0  0  0  0  0
   59.2940   34.0590   47.2470 C   0  0  0  0  0  0  0  0  0  0  0  0
   59.3196   35.0545   46.7797 H   0  0  0  0  0  0  0  0  0  0  0  0
   60.1530   33.7560   48.3060 C   0  0  0  0  0  0  0  0  0  0  0  0
   60.8602   34.5136   48.6746 H   0  0  0  0  0  0  0  0  0  0  0  0
   60.1140   32.4930   48.8960 C   0  0  0  0  0  0  0  0  0  0  0  0
   60.7895   32.2477   49.7287 H   0  0  0  0  0  0  0  0  0  0  0  0
   57.7660   32.1070   51.4780 S   0  0  0  0  0  0  0  0  0  0  0  0
   56.3460   31.8510   52.3460 C   0  0  0  0  0  0  0  0  0  0  0  0
   55.7349   32.6284   52.8278 H   0  0  0  0  0  0  0  0  0  0  0  0
  1  2  1  0
  2  3  1  0
  3  4  1  0
  4  5  2  0
  5  6  1  0
  6  7  2  0
  6  8  1  0
  8  9  2  0
  9 10  1  0
 10 11  1  0
 11 12  2  0
 11 13  1  0
 13 14  1  0
 14 15  1  0
 14 16  1  0
 14 17  1  0
 17 18  2  0
 17 19  1  0
 19 20  2  0
 20 21  1  0
 21 22  1  0
 22 23  1  0
 22 24  2  0
 24 25  1  0
 24 26  1  0
 26 27  1  0
 26 28  2  0
 28 29  1  0
 10 30  2  0
 30 31  1  0
 30 32  1  0
 32 33  1  0
 32 34  2  0
 34 35  1  0
  4 36  1  0
 36 37  1  0
 37 38  1  0
 37  2  2  0
 34  8  1  0
 28 20  1  0
M  CHG  4   3  -1  13  -1  21  -1  29  -1
M  END
>  <UniqueID>  (26) 
24

>  <SMILES>  (26) 
O=C(C[N-]C(=O)c1cccc(C(=O)/N=c2\[n-]ccs2)n1)/N=c1\[n-]cccc1[O-]

>  <Energy>  (26) 
82.93003478069652

>  <Genealogy>  (26) 
O=C(C[N-]C(=O)c1cccc(C(=O)N=c2[n-]ccs2)n1)N=c1[n-]cccc1[O-] (protonated)
O=C(C[N-]C(=O)c1cccc(C(=O)/N=c2\[n-]ccs2)n1)/N=c1\[n-]cccc1[O-] (cis-trans isomerization)
O=C(C[N-]C(=O)c1cccc(C(=O)/N=c2\[n-]ccs2)n1)/N=c1\[n-]cccc1[O-] (3D coordinates assigned)
O=C(C[N-]C(=O)c1cccc(C(=O)/N=c2\[n-]ccs2)n1)/N=c1\[n-]cccc1[O-] (optimized conformer: 82.93003478069652 kcal/mol)

>  <smiles>  (26) 
O=C(CNC(=O)c1cccc(C(=O)N=c2[nH]ccs2)n1)N=c1[nH]cccc1O

>  <score_type>  (26) 
oracle

>  <origin>  (26) 
adg

>  <m_score__min__energy>  (26) 
-16.129999999999999

>  <m_primary>  (26) 
energy

$$$$
26:0
     RDKit          3D

 49 52  0  0  0  0  0  0  0  0999 V2000
   60.7100   27.5000   49.6950 O   0  0  0  0  0  0  0  0  0  0  0  0
   60.2860   28.5800   49.2080 C   0  0  0  0  0  0  0  0  0  0  0  0
   61.0480   29.8480   49.4840 C   0  0  0  0  0  0  0  0  0  0  0  0
   60.2120   30.9940   49.3340 O   0  0  0  0  0  0  0  0  0  0  0  0
   59.5970   31.7050   50.3810 C   0  0  0  0  0  0  0  0  0  0  0  0
   58.9310   31.0470   51.4330 C   0  0  0  0  0  0  0  0  0  0  0  0
   58.2790   31.7820   52.4260 C   0  0  0  0  0  0  0  0  0  0  0  0
   57.4450   30.9510   53.7280 Cl  0  0  0  0  0  0  0  0  0  0  0  0
   58.2760   33.1750   52.3760 C   0  0  0  0  0  0  0  0  0  0  0  0
   58.9420   33.8410   51.3470 C   0  0  0  0  0  0  0  0  0  0  0  0
   59.6390   33.1170   50.3550 C   0  0  0  0  0  0  0  0  0  0  0  0
   60.3910   33.8190   49.2280 C   0  0  2  0  0  0  0  0  0  0  0  0
   59.7420   33.6540   47.8630 C   0  0  0  0  0  0  0  0  0  0  0  0
   60.2730   34.2550   46.7030 C   0  0  0  0  0  0  0  0  0  0  0  0
   59.6650   34.0540   45.4600 C   0  0  0  0  0  0  0  0  0  0  0  0
   58.5330   33.2420   45.3550 C   0  0  0  0  0  0  0  0  0  0  0  0
   57.7750   32.9880   43.7930 Cl  0  0  0  0  0  0  0  0  0  0  0  0
   58.0110   32.6230   46.4940 C   0  0  0  0  0  0  0  0  0  0  0  0
   58.6150   32.8210   47.7380 C   0  0  0  0  0  0  0  0  0  0  0  0
   61.8070   33.4290   49.2140 N   0  0  0  0  0  0  0  0  0  0  0  0
   62.7550   33.6890   50.1350 C   0  0  0  0  0  0  0  0  0  0  0  0
   63.9220   33.0900   49.7230 C   0  0  0  0  0  0  0  0  0  0  0  0
   63.7130   32.4470   48.5550 N   0  0  0  0  0  0  0  0  0  0  0  0
   62.4130   32.6730   48.2770 C   0  0  0  0  0  0  0  0  0  0  0  0
   59.1150   28.5500   48.3780 N   0  0  0  0  0  0  0  0  0  0  0  0
   59.0280   28.8990   46.9890 C   0  0  0  0  0  0  0  0  0  0  0  0
   60.2070   28.9760   46.2370 C   0  0  0  0  0  0  0  0  0  0  0  0
   60.1570   29.3020   44.8780 C   0  0  0  0  0  0  0  0  0  0  0  0
   58.9290   29.5460   44.2610 C   0  0  0  0  0  0  0  0  0  0  0  0
   57.7440   29.4390   44.9960 C   0  0  0  0  0  0  0  0  0  0  0  0
   56.1980   29.7130   44.2130 Cl  0  0  0  0  0  0  0  0  0  0  0  0
   57.7910   29.1010   46.3530 C   0  0  0  0  0  0  0  0  0  0  0  0
   61.4344   29.8178   50.5134 H   0  0  0  0  0  0  0  0  0  0  0  0
   61.8746   29.9224   48.7621 H   0  0  0  0  0  0  0  0  0  0  0  0
   58.9242   29.9478   51.4730 H   0  0  0  0  0  0  0  0  0  0  0  0
   57.7471   33.7506   53.1499 H   0  0  0  0  0  0  0  0  0  0  0  0
   58.9241   34.9402   51.3080 H   0  0  0  0  0  0  0  0  0  0  0  0
   60.3337   34.8957   49.4458 H   0  0  0  0  0  0  0  0  0  0  0  0
   61.1711   34.8859   46.7765 H   0  0  0  0  0  0  0  0  0  0  0  0
   60.0791   34.5365   44.5624 H   0  0  0  0  0  0  0  0  0  0  0  0
   57.1232   31.9789   46.4109 H   0  0  0  0  0  0  0  0  0  0  0  0
   58.2057   32.3210   48.6282 H   0  0  0  0  0  0  0  0  0  0  0  0
   62.6194   34.2770   51.0547 H   0  0  0  0  0  0  0  0  0  0  0  0
   64.8796   33.1289   50.2629 H   0  0  0  0  0  0  0  0  0  0  0  0
   61.9031   32.2832   47.3837 H   0  0  0  0  0  0  0  0  0  0  0  0
   61.1767   28.7792   46.7175 H   0  0  0  0  0  0  0  0  0  0  0  0
   61.0871   29.3662   44.2942 H   0  0  0  0  0  0  0  0  0  0  0  0
   58.8933   29.8224   43.1969 H   0  0  0  0  0  0  0  0  0  0  0  0
   56.8569   28.9930   46.9238 H   0  0  0  0  0  0  0  0  0  0  0  0
  1  2  2  0
  2  3  1  0
  3  4  1  0
  4  5  1  0
  5  6  2  0
  6  7  1  0
  7  8  1  0
  7  9  2  0
  9 10  1  0
 10 11  2  0
 11 12  1  0
 12 13  1  0
 13 14  2  0
 14 15  1  0
 15 16  2  0
 16 17  1  0
 16 18  1  0
 18 19  2  0
 12 20  1  0
 20 21  1  0
 21 22  2  0
 22 23  1  0
 23 24  2  0
  2 25  1  0
 25 26  1  0
 26 27  2  0
 27 28  1  0
 28 29  2  0
 29 30  1  0
 30 31  1  0
 30 32  2  0
 11  5  1  0
 19 13  1  0
 24 20  1  0
 32 26  1  0
  3 33  1  0
  3 34  1  0
  6 35  1  0
  9 36  1  0
 10 37  1  0
 12 38  1  1
 14 39  1  0
 15 40  1  0
 18 41  1  0
 19 42  1  0
 21 43  1  0
 22 44  1  0
 24 45  1  0
 27 46  1  0
 28 47  1  0
 29 48  1  0
 32 49  1  0
M  CHG  1  25  -1
M  END
>  <UniqueID>  (27) 
25

>  <SMILES>  (27) 
O=C(COc1cc(Cl)ccc1[C@H](c1ccc(Cl)cc1)n1ccnc1)[N-]c1cccc(Cl)c1

>  <Energy>  (27) 
86.52329903547478

>  <Genealogy>  (27) 
O=C(COc1cc(Cl)ccc1C(c1ccc(Cl)cc1)n1ccnc1)[N-]c1cccc(Cl)c1 (protonated)
O=C(COc1cc(Cl)ccc1[C@H](c1ccc(Cl)cc1)n1ccnc1)[N-]c1cccc(Cl)c1 (chirality)
O=C(COc1cc(Cl)ccc1[C@H](c1ccc(Cl)cc1)n1ccnc1)[N-]c1cccc(Cl)c1 (3D coordinates assigned)
O=C(COc1cc(Cl)ccc1[C@H](c1ccc(Cl)cc1)n1ccnc1)[N-]c1cccc(Cl)c1 (optimized conformer: 86.52329903547478 kcal/mol)

>  <smiles>  (27) 
O=C(COc1cc(Cl)ccc1C(c1ccc(Cl)cc1)n1ccnc1)Nc1cccc(Cl)c1

>  <score_type>  (27) 
oracle

>  <origin>  (27) 
adg

>  <m_score__min__energy>  (27) 
-10.380000000000001

>  <m_primary>  (27) 
energy

$$$$
27:0
     RDKit          3D

 48 51  0  0  0  0  0  0  0  0999 V2000
   57.8530   32.7220   48.3250 O   0  0  0  0  0  0  0  0  0  0  0  0
   57.9790   32.7500   47.0710 C   0  0  0  0  0  0  0  0  0  0  0  0
   57.4450   31.7630   46.3630 O   0  0  0  0  0  0  0  0  0  0  0  0
   57.4880   31.7330   45.0410 C   0  0  0  0  0  0  0  0  0  0  0  0
   56.9320   30.6500   44.3510 C   0  0  0  0  0  0  0  0  0  0  0  0
   56.9730   30.6160   42.9530 C   0  0  0  0  0  0  0  0  0  0  0  0
   57.5630   31.6650   42.2430 C   0  0  0  0  0  0  0  0  0  0  0  0
   58.1170   32.7530   42.9260 C   0  0  0  0  0  0  0  0  0  0  0  0
   58.0840   32.7890   44.3320 C   0  0  0  0  0  0  0  0  0  0  0  0
   58.6350   33.8420   45.0760 C   0  0  0  0  0  0  0  0  0  0  0  0
   59.1230   34.8400   44.4770 O   0  0  0  0  0  0  0  0  0  0  0  0
   58.6360   33.7860   46.4490 N   0  0  0  0  0  0  0  0  0  0  0  0
   59.3100   34.8400   47.2420 C   0  0  0  0  0  0  0  0  0  0  0  0
   60.5590   34.3680   47.8890 N   0  0  0  0  0  0  0  0  0  0  0  0
   61.5850   33.7660   47.0180 C   0  0  0  0  0  0  0  0  0  0  0  0
   61.5240   32.2200   46.9690 C   0  0  0  0  0  0  0  0  0  0  0  0
   60.7040   31.6270   48.0510 N   0  0  0  0  0  0  0  0  0  0  0  0
   60.9980   30.1790   48.1770 C   0  0  0  0  0  0  0  0  0  0  0  0
   60.2340   29.3650   47.1580 C   0  0  0  0  0  0  0  0  0  0  0  0
   60.6680   29.3290   45.8230 C   0  0  0  0  0  0  0  0  0  0  0  0
   59.9480   28.6090   44.8660 C   0  0  0  0  0  0  0  0  0  0  0  0
   58.7900   27.9180   45.2350 C   0  0  0  0  0  0  0  0  0  0  0  0
   58.0920   27.2210   44.3050 F   0  0  0  0  0  0  0  0  0  0  0  0
   58.3510   27.9480   46.5620 C   0  0  0  0  0  0  0  0  0  0  0  0
   59.0690   28.6680   47.5220 C   0  0  0  0  0  0  0  0  0  0  0  0
   60.9440   32.3360   49.3220 C   0  0  0  0  0  0  0  0  0  0  0  0
   60.4470   33.7910   49.2440 C   0  0  0  0  0  0  0  0  0  0  0  0
   56.4627   29.8255   44.9077 H   0  0  0  0  0  0  0  0  0  0  0  0
   56.5400   29.7619   42.4117 H   0  0  0  0  0  0  0  0  0  0  0  0
   57.5919   31.6352   41.1438 H   0  0  0  0  0  0  0  0  0  0  0  0
   58.5777   33.5791   42.3645 H   0  0  0  0  0  0  0  0  0  0  0  0
   59.5564   35.6782   46.5736 H   0  0  0  0  0  0  0  0  0  0  0  0
   58.6187   35.1430   48.0422 H   0  0  0  0  0  0  0  0  0  0  0  0
   61.4457   34.1524   45.9976 H   0  0  0  0  0  0  0  0  0  0  0  0
   62.5650   34.0379   47.4371 H   0  0  0  0  0  0  0  0  0  0  0  0
   61.0950   31.9188   46.0019 H   0  0  0  0  0  0  0  0  0  0  0  0
   62.5517   31.8510   47.1022 H   0  0  0  0  0  0  0  0  0  0  0  0
   59.6970   31.7320   47.7910 H   0  0  0  0  0  0  0  0  0  0  0  0
   62.0758   30.0192   48.0260 H   0  0  0  0  0  0  0  0  0  0  0  0
   60.6889   29.8514   49.1806 H   0  0  0  0  0  0  0  0  0  0  0  0
   61.5794   29.8703   45.5291 H   0  0  0  0  0  0  0  0  0  0  0  0
   60.2926   28.5859   43.8216 H   0  0  0  0  0  0  0  0  0  0  0  0
   57.4395   27.4045   46.8514 H   0  0  0  0  0  0  0  0  0  0  0  0
   58.7209   28.6889   48.5653 H   0  0  0  0  0  0  0  0  0  0  0  0
   60.4094   31.8160   50.1306 H   0  0  0  0  0  0  0  0  0  0  0  0
   62.0261   32.3452   49.5194 H   0  0  0  0  0  0  0  0  0  0  0  0
   59.3907   33.8173   49.5498 H   0  0  0  0  0  0  0  0  0  0  0  0
   61.0830   34.3918   49.9107 H   0  0  0  0  0  0  0  0  0  0  0  0
  1  2  2  0
  2  3  1  0
  3  4  1  0
  4  5  2  0
  5  6  1  0
  6  7  2  0
  7  8  1  0
  8  9  2  0
  9 10  1  0
 10 11  2  0
 10 12  1  0
 12 13  1  0
 13 14  1  0
 14 15  1  0
 15 16  1  0
 16 17  1  0
 17 18  1  0
 18 19  1  0
 19 20  2  0
 20 21  1  0
 21 22  2  0
 22 23  1  0
 22 24  1  0
 24 25  2  0
 17 26  1  0
 26 27  1  0
 12  2  1  0
 27 14  1  0
  9  4  1  0
 25 19  1  0
  5 28  1  0
  6 29  1  0
  7 30  1  0
  8 31  1  0
 13 32  1  0
 13 33  1  0
 15 34  1  0
 15 35  1  0
 16 36  1  0
 16 37  1  0
 17 38  1  0
 18 39  1  0
 18 40  1  0
 20 41  1  0
 21 42  1  0
 24 43  1  0
 25 44  1  0
 26 45  1  0
 26 46  1  0
 27 47  1  0
 27 48  1  0
M  CHG  1  17   1
M  END
>  <UniqueID>  (28) 
26

>  <SMILES>  (28) 
O=c1oc2ccccc2c(=O)n1CN1CC[NH+](Cc2ccc(F)cc2)CC1

>  <Energy>  (28) 
76.59935524101789

>  <Genealogy>  (28) 
O=c1oc2ccccc2c(=O)n1CN1CC[NH+](Cc2ccc(F)cc2)CC1 (protonated)
O=c1oc2ccccc2c(=O)n1CN1CC[NH+](Cc2ccc(F)cc2)CC1 (3D coordinates assigned)
O=c1oc2ccccc2c(=O)n1CN1CC[NH+](Cc2ccc(F)cc2)CC1 (nonaromatic ring conformer: 76.59935524101789 kcal/mol)

>  <smiles>  (28) 
O=c1oc2ccccc2c(=O)n1CN1CCN(Cc2ccc(F)cc2)CC1

>  <score_type>  (28) 
oracle

>  <origin>  (28) 
adg

>  <m_score__min__energy>  (28) 
-6.1500000000000004

>  <m_primary>  (28) 
energy

$$$$
28:0
     RDKit          3D

 37 39  0  0  0  0  0  0  0  0999 V2000
   57.9300   32.7300   48.3000 O   0  0  0  0  0  0  0  0  0  0  0  0
   58.6510   32.1530   47.4430 C   0  0  0  0  0  0  0  0  0  0  0  0
   59.9250   31.6080   47.8120 N   0  0  0  0  0  0  0  0  0  0  0  0
   61.1920   32.2800   47.7540 C   0  0  0  0  0  0  0  0  0  0  0  0
   61.4230   33.1850   46.7090 C   0  0  0  0  0  0  0  0  0  0  0  0
   62.6510   33.8460   46.6030 C   0  0  0  0  0  0  0  0  0  0  0  0
   63.6620   33.5970   47.5340 C   0  0  0  0  0  0  0  0  0  0  0  0
   63.4510   32.6770   48.5670 C   0  0  0  0  0  0  0  0  0  0  0  0
   64.7320   32.3440   49.7180 Cl  0  0  0  0  0  0  0  0  0  0  0  0
   62.2230   32.0140   48.6750 C   0  0  0  0  0  0  0  0  0  0  0  0
   58.2150   32.0790   46.0360 C   0  0  0  0  0  0  0  0  0  0  0  0
   58.5850   33.0620   45.1050 C   0  0  0  0  0  0  0  0  0  0  0  0
   58.1410   32.9590   43.7880 C   0  0  0  0  0  0  0  0  0  0  0  0
   57.3420   31.8810   43.4030 C   0  0  0  0  0  0  0  0  0  0  0  0
   57.0020   30.9020   44.3490 C   0  0  0  0  0  0  0  0  0  0  0  0
   56.1520   29.7450   43.9970 C   0  0  0  0  0  0  0  0  0  0  0  0
   55.8430   29.5600   42.7900 O   0  0  0  0  0  0  0  0  0  0  0  0
   55.6950   28.8010   44.9760 N   0  0  0  0  0  0  0  0  0  0  0  0
   56.4790   27.7700   45.5910 C   0  0  0  0  0  0  0  0  0  0  0  0
   57.8670   27.9390   45.6680 C   0  0  0  0  0  0  0  0  0  0  0  0
   58.6700   26.9620   46.2650 C   0  0  0  0  0  0  0  0  0  0  0  0
   60.4050   27.1970   46.3750 Cl  0  0  0  0  0  0  0  0  0  0  0  0
   58.0880   25.7970   46.7750 C   0  0  0  0  0  0  0  0  0  0  0  0
   56.7080   25.6030   46.6750 C   0  0  0  0  0  0  0  0  0  0  0  0
   55.9010   26.5750   46.0750 C   0  0  0  0  0  0  0  0  0  0  0  0
   54.5380   26.3330   45.9390 O   0  0  0  0  0  0  0  0  0  0  0  0
   57.4360   31.0380   45.6330 N   0  0  0  0  0  0  0  0  0  0  0  0
   60.6334   33.3766   45.9675 H   0  0  0  0  0  0  0  0  0  0  0  0
   62.8207   34.5625   45.7858 H   0  0  0  0  0  0  0  0  0  0  0  0
   64.6242   34.1242   47.4551 H   0  0  0  0  0  0  0  0  0  0  0  0
   62.0631   31.2833   49.4815 H   0  0  0  0  0  0  0  0  0  0  0  0
   59.2198   33.9062   45.4121 H   0  0  0  0  0  0  0  0  0  0  0  0
   58.4202   33.7272   43.0518 H   0  0  0  0  0  0  0  0  0  0  0  0
   56.9820   31.7997   42.3668 H   0  0  0  0  0  0  0  0  0  0  0  0
   58.3295   28.8478   45.2555 H   0  0  0  0  0  0  0  0  0  0  0  0
   58.7171   25.0330   47.2551 H   0  0  0  0  0  0  0  0  0  0  0  0
   56.2543   24.6820   47.0698 H   0  0  0  0  0  0  0  0  0  0  0  0
  1  2  2  0
  2  3  1  0
  3  4  1  0
  4  5  2  0
  5  6  1  0
  6  7  2  0
  7  8  1  0
  8  9  1  0
  8 10  2  0
  2 11  1  0
 11 12  2  0
 12 13  1  0
 13 14  2  0
 14 15  1  0
 15 16  1  0
 16 17  2  0
 16 18  1  0
 18 19  1  0
 19 20  2  0
 20 21  1  0
 21 22  1  0
 21 23  2  0
 23 24  1  0
 24 25  2  0
 25 26  1  0
 15 27  2  0
 10  4  1  0
 27 11  1  0
 25 19  1  0
  5 28  1  0
  6 29  1  0
  7 30  1  0
 10 31  1  0
 12 32  1  0
 13 33  1  0
 14 34  1  0
 20 35  1  0
 23 36  1  0
 24 37  1  0
M  CHG  3   3  -1  18  -1  26  -1
M  END
>  <UniqueID>  (29) 
27

>  <SMILES>  (29) 
O=C([N-]c1cccc(Cl)c1)c1cccc(C(=O)[N-]c2cc(Cl)ccc2[O-])n1

>  <Energy>  (29) 
51.84600767108612

>  <Genealogy>  (29) 
O=C([N-]c1cccc(Cl)c1)c1cccc(C(=O)[N-]c2cc(Cl)ccc2[O-])n1 (protonated)
O=C([N-]c1cccc(Cl)c1)c1cccc(C(=O)[N-]c2cc(Cl)ccc2[O-])n1 (3D coordinates assigned)
O=C([N-]c1cccc(Cl)c1)c1cccc(C(=O)[N-]c2cc(Cl)ccc2[O-])n1 (optimized conformer: 51.84600767108612 kcal/mol)

>  <smiles>  (29) 
O=C(Nc1cccc(Cl)c1)c1cccc(C(=O)Nc2cc(Cl)ccc2O)n1

>  <score_type>  (29) 
oracle

>  <origin>  (29) 
adg

>  <m_score__min__energy>  (29) 
-16.649999999999999

>  <m_primary>  (29) 
energy

$$$$
29:0
     RDKit          3D

 71 76  0  0  0  0  0  0  0  0999 V2000
   59.3670   29.2810   48.4790 C   0  0  0  0  0  0  0  0  0  0  0  0
   58.9680   29.8160   47.3150 C   0  0  0  0  0  0  0  0  0  0  0  0
   58.4620   29.1360   46.1960 C   0  0  0  0  0  0  0  0  0  0  0  0
   58.4220   27.8220   45.9010 C   0  0  0  0  0  0  0  0  0  0  0  0
   57.2260   26.9670   45.9470 C   0  0  0  0  0  0  0  0  0  0  0  0
   57.2200   25.7280   46.4690 N   0  0  0  0  0  0  0  0  0  0  0  0
   55.9160   25.3750   46.4210 C   0  0  0  0  0  0  0  0  0  0  0  0
   55.5030   24.2530   46.8160 O   0  0  0  0  0  0  0  0  0  0  0  0
   55.0900   26.3220   45.9290 N   0  0  0  0  0  0  0  0  0  0  0  0
   55.9330   27.3300   45.6480 C   0  0  0  0  0  0  0  0  0  0  0  0
   55.5230   28.5640   45.1590 O   0  0  0  0  0  0  0  0  0  0  0  0
   57.9730   30.1090   45.3380 C   0  0  0  0  0  0  0  0  0  0  0  0
   58.2450   31.3290   45.9220 C   0  0  0  0  0  0  0  0  0  0  0  0
   57.9550   32.6590   45.2940 C   0  0  0  0  0  0  0  0  0  0  0  0
   58.8590   31.1540   47.1130 N   0  0  0  0  0  0  0  0  0  0  0  0
   59.2670   32.2020   48.0100 C   0  0  0  0  0  0  0  0  0  0  0  0
   59.9970   33.2950   47.5290 C   0  0  0  0  0  0  0  0  0  0  0  0
   60.3730   34.3190   48.3960 C   0  0  0  0  0  0  0  0  0  0  0  0
   60.0250   34.2640   49.7490 C   0  0  0  0  0  0  0  0  0  0  0  0
   59.2900   33.1720   50.2570 C   0  0  0  0  0  0  0  0  0  0  0  0
   58.8840   33.0860   51.6940 C   0  0  0  0  0  0  0  0  0  0  0  0
   57.7020   33.4110   52.0030 O   0  0  0  0  0  0  0  0  0  0  0  0
   59.8230   32.7070   52.7390 N   0  0  1  0  0  0  0  0  0  0  0  0
   59.3390   31.5280   53.4890 C   0  0  0  0  0  0  0  0  0  0  0  0
   59.3290   30.2730   52.6420 C   0  0  0  0  0  0  0  0  0  0  0  0
   58.3010   29.4080   52.7710 C   0  0  0  0  0  0  0  0  0  0  0  0
   56.8830   29.7980   52.8150 C   0  0  0  0  0  0  0  0  0  0  0  0
   56.3830   30.7530   51.9160 C   0  0  0  0  0  0  0  0  0  0  0  0
   55.0280   31.0970   51.9440 C   0  0  0  0  0  0  0  0  0  0  0  0
   54.1680   30.4820   52.8590 C   0  0  0  0  0  0  0  0  0  0  0  0
   54.6600   29.5190   53.7450 C   0  0  0  0  0  0  0  0  0  0  0  0
   56.0150   29.1730   53.7220 C   0  0  0  0  0  0  0  0  0  0  0  0
   60.4880   30.0600   51.7330 C   0  0  0  0  0  0  0  0  0  0  0  0
   60.6490   28.9610   51.1310 O   0  0  0  0  0  0  0  0  0  0  0  0
   61.4500   31.1700   51.5160 C   0  0  0  0  0  0  0  0  0  0  0  0
   62.5470   30.9700   50.7550 C   0  0  0  0  0  0  0  0  0  0  0  0
   62.9040   31.7430   49.5480 C   0  0  0  0  0  0  0  0  0  0  0  0
   63.4540   33.0340   49.6490 C   0  0  0  0  0  0  0  0  0  0  0  0
   63.7270   33.7760   48.4960 C   0  0  0  0  0  0  0  0  0  0  0  0
   63.4350   33.2460   47.2370 C   0  0  0  0  0  0  0  0  0  0  0  0
   62.8610   31.9760   47.1290 C   0  0  0  0  0  0  0  0  0  0  0  0
   62.5870   31.2310   48.2800 C   0  0  0  0  0  0  0  0  0  0  0  0
   61.1470   32.4600   52.2030 C   0  0  0  0  0  0  0  0  0  0  0  0
   62.0490   33.3270   52.3670 O   0  0  0  0  0  0  0  0  0  0  0  0
   58.9170   32.1440   49.3660 C   0  0  0  0  0  0  0  0  0  0  0  0
   59.7465   29.9306   49.2815 H   0  0  0  0  0  0  0  0  0  0  0  0
   59.3146   28.1928   48.6308 H   0  0  0  0  0  0  0  0  0  0  0  0
   59.3670   27.3467   45.5992 H   0  0  0  0  0  0  0  0  0  0  0  0
   57.4657   29.9407   44.3766 H   0  0  0  0  0  0  0  0  0  0  0  0
   57.7915   33.4088   46.0821 H   0  0  0  0  0  0  0  0  0  0  0  0
   58.8079   32.9634   44.6695 H   0  0  0  0  0  0  0  0  0  0  0  0
   57.0528   32.5807   44.6695 H   0  0  0  0  0  0  0  0  0  0  0  0
   60.2741   33.3457   46.4657 H   0  0  0  0  0  0  0  0  0  0  0  0
   60.9471   35.1758   48.0136 H   0  0  0  0  0  0  0  0  0  0  0  0
   60.3268   35.0791   50.4232 H   0  0  0  0  0  0  0  0  0  0  0  0
   59.9190   33.5010   53.4120 H   0  0  0  0  0  0  0  0  0  0  0  0
   59.9972   31.3650   54.3552 H   0  0  0  0  0  0  0  0  0  0  0  0
   58.3044   31.7303   53.8032 H   0  0  0  0  0  0  0  0  0  0  0  0
   58.5399   28.3371   52.8486 H   0  0  0  0  0  0  0  0  0  0  0  0
   57.0570   31.2307   51.1896 H   0  0  0  0  0  0  0  0  0  0  0  0
   54.6382   31.8521   51.2455 H   0  0  0  0  0  0  0  0  0  0  0  0
   53.1030   30.7562   52.8817 H   0  0  0  0  0  0  0  0  0  0  0  0
   53.9808   29.0329   54.4609 H   0  0  0  0  0  0  0  0  0  0  0  0
   56.3998   28.4106   54.4153 H   0  0  0  0  0  0  0  0  0  0  0  0
   63.2318   30.1646   51.0590 H   0  0  0  0  0  0  0  0  0  0  0  0
   63.6701   33.4613   50.6393 H   0  0  0  0  0  0  0  0  0  0  0  0
   64.1723   34.7783   48.5803 H   0  0  0  0  0  0  0  0  0  0  0  0
   63.6568   33.8281   46.3304 H   0  0  0  0  0  0  0  0  0  0  0  0
   62.6246   31.5623   46.1375 H   0  0  0  0  0  0  0  0  0  0  0  0
   62.1207   30.2387   48.1914 H   0  0  0  0  0  0  0  0  0  0  0  0
   58.3428   31.2839   49.7410 H   0  0  0  0  0  0  0  0  0  0  0  0
  1  2  2  0
  2  3  1  0
  3  4  2  3
  4  5  1  0
  5  6  1  0
  6  7  1  0
  7  8  2  0
  7  9  1  0
  9 10  1  0
 10 11  1  0
  3 12  1  0
 12 13  2  0
 13 14  1  0
 13 15  1  0
 15 16  1  0
 16 17  2  0
 17 18  1  0
 18 19  2  0
 19 20  1  0
 20 21  1  0
 21 22  2  0
 21 23  1  0
 23 24  1  0
 24 25  1  0
 25 26  2  3
 26 27  1  0
 27 28  2  0
 28 29  1  0
 29 30  2  0
 30 31  1  0
 31 32  2  0
 25 33  1  0
 33 34  2  0
 33 35  1  0
 35 36  2  3
 36 37  1  0
 37 38  2  0
 38 39  1  0
 39 40  2  0
 40 41  1  0
 41 42  2  0
 35 43  1  0
 43 44  2  0
 20 45  2  0
 15  2  1  0
 45 16  1  0
 10  5  2  0
 43 23  1  0
 32 27  1  0
 42 37  1  0
  1 46  1  0
  1 47  1  0
  4 48  1  0
 12 49  1  0
 14 50  1  0
 14 51  1  0
 14 52  1  0
 17 53  1  0
 18 54  1  0
 19 55  1  0
 23 56  1  1
 24 57  1  0
 24 58  1  0
 26 59  1  0
 28 60  1  0
 29 61  1  0
 30 62  1  0
 31 63  1  0
 32 64  1  0
 36 65  1  0
 38 66  1  0
 39 67  1  0
 40 68  1  0
 41 69  1  0
 42 70  1  0
 45 71  1  0
M  CHG  4   6  -1   9  -1  11  -1  23   1
M  END
>  <UniqueID>  (30) 
28

>  <SMILES>  (30) 
C=c1c(=Cc2[n-]c(=O)[n-]c2[O-])cc(C)n1-c1cccc(C(=O)[N@H+]2CC(=Cc3ccccc3)C(=O)C(=Cc3ccccc3)C2=O)c1

>  <Energy>  (30) 
184.92347382281

>  <Genealogy>  (30) 
C=c1c(=Cc2[n-]c(=O)[n-]c2[O-])cc(C)n1-c1cccc(C(=O)[NH+]2CC(=Cc3ccccc3)C(=O)C(=Cc3ccccc3)C2=O)c1 (protonated)
C=c1c(=Cc2[n-]c(=O)[n-]c2[O-])cc(C)n1-c1cccc(C(=O)[N@H+]2CC(=Cc3ccccc3)C(=O)C(=Cc3ccccc3)C2=O)c1 (chirality)
C=c1c(=Cc2[n-]c(=O)[n-]c2[O-])cc(C)n1-c1cccc(C(=O)[N@H+]2CC(=Cc3ccccc3)C(=O)C(=Cc3ccccc3)C2=O)c1 (3D coordinates assigned)
C=c1c(=Cc2[n-]c(=O)[n-]c2[O-])cc(C)n1-c1cccc(C(=O)[N@H+]2CC(=Cc3ccccc3)C(=O)C(=Cc3ccccc3)C2=O)c1 (nonaromatic ring conformer: 184.92347382281 kcal/mol)

>  <smiles>  (30) 
C=c1c(=Cc2[nH]c(=O)[nH]c2O)cc(C)n1-c1cccc(C(=O)N2CC(=Cc3ccccc3)C(=O)C(=Cc3ccccc3)C2=O)c1

>  <score_type>  (30) 
oracle

>  <origin>  (30) 
adg

>  <m_score__min__energy>  (30) 
-19.039999999999999

>  <m_primary>  (30) 
energy

$$$$
30:0
     RDKit          3D

 44 46  0  0  0  0  0  0  0  0999 V2000
   55.0430   24.1860   45.0270 C   0  0  0  0  0  0  0  0  0  0  0  0
   55.6020   25.2540   45.9130 C   0  0  0  0  0  0  0  0  0  0  0  0
   55.0530   26.3410   45.9890 O   0  0  0  0  0  0  0  0  0  0  0  0
   57.1030   24.9490   46.8490 S   0  0  0  0  0  0  0  0  0  0  0  0
   58.1950   25.6160   45.5510 C   0  0  0  0  0  0  0  0  0  0  0  0
   58.3150   27.0970   45.7200 C   0  0  0  0  0  0  0  0  0  0  0  0
   59.2400   27.5610   46.4400 O   0  0  0  0  0  0  0  0  0  0  0  0
   57.3300   27.9650   45.1410 N   0  0  0  0  0  0  0  0  0  0  0  0
   57.4460   29.3980   45.0910 C   0  0  0  0  0  0  0  0  0  0  0  0
   56.9050   30.1420   44.0280 C   0  0  0  0  0  0  0  0  0  0  0  0
   57.0100   31.5360   44.0150 C   0  0  0  0  0  0  0  0  0  0  0  0
   57.6340   32.2130   45.0750 C   0  0  0  0  0  0  0  0  0  0  0  0
   57.7510   33.6910   45.0700 C   0  0  0  0  0  0  0  0  0  0  0  0
   56.7200   34.3910   44.8800 O   0  0  0  0  0  0  0  0  0  0  0  0
   58.9930   34.3580   45.3280 N   0  0  0  0  0  0  0  0  0  0  0  0
   59.8000   34.2190   46.5060 C   0  0  0  0  0  0  0  0  0  0  0  0
   59.3060   34.5450   47.7850 C   0  0  0  0  0  0  0  0  0  0  0  0
   60.1110   34.3800   48.9160 C   0  0  0  0  0  0  0  0  0  0  0  0
   61.4050   33.8730   48.7810 C   0  0  0  0  0  0  0  0  0  0  0  0
   61.9050   33.5530   47.5130 C   0  0  0  0  0  0  0  0  0  0  0  0
   61.0970   33.7030   46.3820 C   0  0  0  0  0  0  0  0  0  0  0  0
   63.2170   33.0820   47.3980 O   0  0  0  0  0  0  0  0  0  0  0  0
   64.1360   33.1860   48.4890 C   0  0  0  0  0  0  0  0  0  0  0  0
   63.4190   32.9030   49.8160 C   0  0  0  0  0  0  0  0  0  0  0  0
   62.2160   33.6730   49.9030 O   0  0  0  0  0  0  0  0  0  0  0  0
   58.1680   31.4690   46.1400 C   0  0  0  0  0  0  0  0  0  0  0  0
   58.0620   30.0750   46.1530 C   0  0  0  0  0  0  0  0  0  0  0  0
   54.6212   23.3801   45.6455 H   0  0  0  0  0  0  0  0  0  0  0  0
   54.2527   24.6128   44.3920 H   0  0  0  0  0  0  0  0  0  0  0  0
   55.8441   23.7798   44.3920 H   0  0  0  0  0  0  0  0  0  0  0  0
   59.1900   25.1546   45.6349 H   0  0  0  0  0  0  0  0  0  0  0  0
   57.7714   25.3909   44.5611 H   0  0  0  0  0  0  0  0  0  0  0  0
   56.4360   27.5340   44.8110 H   0  0  0  0  0  0  0  0  0  0  0  0
   56.3961   29.6243   43.2016 H   0  0  0  0  0  0  0  0  0  0  0  0
   56.6008   32.1065   43.1682 H   0  0  0  0  0  0  0  0  0  0  0  0
   58.2818   34.9312   47.8939 H   0  0  0  0  0  0  0  0  0  0  0  0
   59.7257   34.6491   49.9105 H   0  0  0  0  0  0  0  0  0  0  0  0
   61.4804   33.4152   45.3920 H   0  0  0  0  0  0  0  0  0  0  0  0
   64.9471   32.4558   48.3515 H   0  0  0  0  0  0  0  0  0  0  0  0
   64.5483   34.2055   48.5146 H   0  0  0  0  0  0  0  0  0  0  0  0
   63.1702   31.8330   49.8734 H   0  0  0  0  0  0  0  0  0  0  0  0
   64.0828   33.1800   50.6482 H   0  0  0  0  0  0  0  0  0  0  0  0
   58.6728   31.9864   46.9691 H   0  0  0  0  0  0  0  0  0  0  0  0
   58.4650   29.5050   47.0031 H   0  0  0  0  0  0  0  0  0  0  0  0
  1  2  1  0
  2  3  2  0
  2  4  1  0
  4  5  1  0
  5  6  1  0
  6  7  2  0
  6  8  1  0
  8  9  1  0
  9 10  2  0
 10 11  1  0
 11 12  2  0
 12 13  1  0
 13 14  2  0
 13 15  1  0
 15 16  1  0
 16 17  2  0
 17 18  1  0
 18 19  2  0
 19 20  1  0
 20 21  2  0
 20 22  1  0
 22 23  1  0
 23 24  1  0
 24 25  1  0
 12 26  1  0
 26 27  2  0
 27  9  1  0
 21 16  1  0
 25 19  1  0
  1 28  1  0
  1 29  1  0
  1 30  1  0
  5 31  1  0
  5 32  1  0
  8 33  1  0
 10 34  1  0
 11 35  1  0
 17 36  1  0
 18 37  1  0
 21 38  1  0
 23 39  1  0
 23 40  1  0
 24 41  1  0
 24 42  1  0
 26 43  1  0
 27 44  1  0
M  CHG  1  15  -1
M  END
>  <UniqueID>  (31) 
29

>  <SMILES>  (31) 
CC(=O)SCC(=O)Nc1ccc(C(=O)[N-]c2ccc3c(c2)OCCO3)cc1

>  <Energy>  (31) 
49.868695043340765

>  <Genealogy>  (31) 
CC(=O)SCC(=O)Nc1ccc(C(=O)[N-]c2ccc3c(c2)OCCO3)cc1 (protonated)
CC(=O)SCC(=O)Nc1ccc(C(=O)[N-]c2ccc3c(c2)OCCO3)cc1 (3D coordinates assigned)
CC(=O)SCC(=O)Nc1ccc(C(=O)[N-]c2ccc3c(c2)OCCO3)cc1 (nonaromatic ring conformer: 49.868695043340765 kcal/mol)

>  <smiles>  (31) 
CC(=O)SCC(=O)Nc1ccc(C(=O)Nc2ccc3c(c2)OCCO3)cc1

>  <score_type>  (31) 
oracle

>  <origin>  (31) 
adg

>  <m_score__min__energy>  (31) 
-9.1600000000000001

>  <m_primary>  (31) 
energy

$$$$
31:0
     RDKit          3D

 57 60  0  0  0  0  0  0  0  0999 V2000
   58.4920   31.8970   46.5490 O   0  0  0  0  0  0  0  0  0  0  0  0
   58.2630   30.7790   46.0120 C   0  0  0  0  0  0  0  0  0  0  0  0
   57.0200   30.5270   45.5390 N   0  0  0  0  0  0  0  0  0  0  0  0
   56.6950   29.3550   44.9450 C   0  0  0  0  0  0  0  0  0  0  0  0
   55.3820   29.2140   44.4850 O   0  0  0  0  0  0  0  0  0  0  0  0
   57.6790   28.3490   44.8120 C   0  0  0  0  0  0  0  0  0  0  0  0
   57.4010   26.9920   44.1860 C   0  0  0  0  0  0  0  0  0  0  0  0
   57.3170   25.9100   45.2390 C   0  0  0  0  0  0  0  0  0  0  0  0
   58.3680   24.9850   45.3760 C   0  0  0  0  0  0  0  0  0  0  0  0
   58.3130   23.9890   46.3550 C   0  0  0  0  0  0  0  0  0  0  0  0
   57.2100   23.9030   47.2060 C   0  0  0  0  0  0  0  0  0  0  0  0
   57.1580   22.9130   48.1790 O   0  0  0  0  0  0  0  0  0  0  0  0
   56.1580   24.8140   47.0790 C   0  0  0  0  0  0  0  0  0  0  0  0
   56.2060   25.8150   46.1010 C   0  0  0  0  0  0  0  0  0  0  0  0
   55.1440   26.7040   45.9950 O   0  0  0  0  0  0  0  0  0  0  0  0
   58.9720   28.6310   45.3030 C   0  0  0  0  0  0  0  0  0  0  0  0
   59.8820   27.7630   45.1870 O   0  0  0  0  0  0  0  0  0  0  0  0
   59.2510   29.8370   45.8990 N   0  0  0  0  0  0  0  0  0  0  0  0
   60.6220   30.1260   46.3730 C   0  0  0  0  0  0  0  0  0  0  0  0
   60.7490   29.9070   47.8880 C   0  0  0  0  0  0  0  0  0  0  0  0
   60.4670   31.1690   48.6590 C   0  0  0  0  0  0  0  0  0  0  0  0
   59.3370   31.2550   49.4880 C   0  0  0  0  0  0  0  0  0  0  0  0
   59.1040   32.4060   50.2440 C   0  0  0  0  0  0  0  0  0  0  0  0
   59.9980   33.4770   50.1860 C   0  0  0  0  0  0  0  0  0  0  0  0
   61.1340   33.4060   49.3640 C   0  0  0  0  0  0  0  0  0  0  0  0
   62.1310   34.5350   49.3360 C   0  0  0  0  0  0  0  0  0  0  0  0
   63.4150   34.1180   49.9420 N   0  0  0  0  0  0  0  0  0  0  0  0
   64.2380   33.3430   48.9850 C   0  0  0  0  0  0  0  0  0  0  0  0
   65.2750   32.4830   49.7250 C   0  0  0  0  0  0  0  0  0  0  0  0
   64.7070   31.5290   50.6130 O   0  0  0  0  0  0  0  0  0  0  0  0
   63.4110   31.8810   51.0760 C   0  0  0  0  0  0  0  0  0  0  0  0
   63.2060   33.4000   51.2240 C   0  0  0  0  0  0  0  0  0  0  0  0
   61.3660   32.2450   48.6080 C   0  0  0  0  0  0  0  0  0  0  0  0
   54.7750   28.4360   44.6970 H   0  0  0  0  0  0  0  0  0  0  0  0
   56.4465   27.0371   43.6412 H   0  0  0  0  0  0  0  0  0  0  0  0
   58.2273   26.7485   43.5020 H   0  0  0  0  0  0  0  0  0  0  0  0
   59.2396   25.0460   44.7077 H   0  0  0  0  0  0  0  0  0  0  0  0
   59.1407   23.2714   46.4550 H   0  0  0  0  0  0  0  0  0  0  0  0
   55.2890   24.7445   47.7498 H   0  0  0  0  0  0  0  0  0  0  0  0
   61.3277   29.4601   45.8547 H   0  0  0  0  0  0  0  0  0  0  0  0
   60.8485   31.1802   46.1554 H   0  0  0  0  0  0  0  0  0  0  0  0
   60.0318   29.1325   48.1975 H   0  0  0  0  0  0  0  0  0  0  0  0
   61.7820   29.5970   48.1041 H   0  0  0  0  0  0  0  0  0  0  0  0
   58.6322   30.4122   49.5423 H   0  0  0  0  0  0  0  0  0  0  0  0
   58.2137   32.4690   50.8869 H   0  0  0  0  0  0  0  0  0  0  0  0
   59.8116   34.3796   50.7865 H   0  0  0  0  0  0  0  0  0  0  0  0
   62.3057   34.8359   48.2925 H   0  0  0  0  0  0  0  0  0  0  0  0
   61.7253   35.3777   49.9150 H   0  0  0  0  0  0  0  0  0  0  0  0
   63.5817   32.6871   48.3942 H   0  0  0  0  0  0  0  0  0  0  0  0
   64.7696   34.0470   48.3278 H   0  0  0  0  0  0  0  0  0  0  0  0
   65.8753   31.9447   48.9767 H   0  0  0  0  0  0  0  0  0  0  0  0
   65.8782   33.1689   50.3380 H   0  0  0  0  0  0  0  0  0  0  0  0
   62.6689   31.4971   50.3605 H   0  0  0  0  0  0  0  0  0  0  0  0
   63.2922   31.4384   52.0760 H   0  0  0  0  0  0  0  0  0  0  0  0
   62.1796   33.5873   51.5724 H   0  0  0  0  0  0  0  0  0  0  0  0
   63.9466   33.7734   51.9466 H   0  0  0  0  0  0  0  0  0  0  0  0
   62.2601   32.1789   47.9706 H   0  0  0  0  0  0  0  0  0  0  0  0
  1  2  2  0
  2  3  1  0
  3  4  1  0
  4  5  1  0
  4  6  2  0
  6  7  1  0
  7  8  1  0
  8  9  2  0
  9 10  1  0
 10 11  2  0
 11 12  1  0
 11 13  1  0
 13 14  2  0
 14 15  1  0
  6 16  1  0
 16 17  2  0
 16 18  1  0
 18 19  1  0
 19 20  1  0
 20 21  1  0
 21 22  2  0
 22 23  1  0
 23 24  2  0
 24 25  1  0
 25 26  1  0
 26 27  1  0
 27 28  1  0
 28 29  1  0
 29 30  1  0
 30 31  1  0
 31 32  1  0
 25 33  2  0
 18  2  1  0
 33 21  1  0
 14  8  1  0
 32 27  1  0
  5 34  1  0
  7 35  1  0
  7 36  1  0
  9 37  1  0
 10 38  1  0
 13 39  1  0
 19 40  1  0
 19 41  1  0
 20 42  1  0
 20 43  1  0
 22 44  1  0
 23 45  1  0
 24 46  1  0
 26 47  1  0
 26 48  1  0
 28 49  1  0
 28 50  1  0
 29 51  1  0
 29 52  1  0
 31 53  1  0
 31 54  1  0
 32 55  1  0
 32 56  1  0
 33 57  1  0
M  CHG  3   3  -1  12  -1  15  -1
M  END
>  <UniqueID>  (32) 
30

>  <SMILES>  (32) 
O=c1[n-]c(O)c(Cc2ccc([O-])cc2[O-])c(=O)n1CCc1cccc(CN2CCOCC2)c1

>  <Energy>  (32) 
79.33475159102662

>  <Genealogy>  (32) 
O=c1[n-]c(O)c(Cc2ccc([O-])cc2[O-])c(=O)n1CCc1cccc(CN2CCOCC2)c1 (protonated)
O=c1[n-]c(O)c(Cc2ccc([O-])cc2[O-])c(=O)n1CCc1cccc(CN2CCOCC2)c1 (3D coordinates assigned)
O=c1[n-]c(O)c(Cc2ccc([O-])cc2[O-])c(=O)n1CCc1cccc(CN2CCOCC2)c1 (nonaromatic ring conformer: 79.33475159102662 kcal/mol)

>  <smiles>  (32) 
O=c1[nH]c(O)c(Cc2ccc(O)cc2O)c(=O)n1CCc1cccc(CN2CCOCC2)c1

>  <score_type>  (32) 
oracle

>  <origin>  (32) 
adg

>  <m_score__min__energy>  (32) 
-16.219999999999999

>  <m_primary>  (32) 
energy

$$$$
32:0
     RDKit          3D

 24 25  0  0  0  0  0  0  0  0999 V2000
   56.2150   31.0370   44.4670 C   0  0  0  0  0  0  0  0  0  0  0  0
   56.8840   29.7560   44.8490 C   0  0  0  0  0  0  0  0  0  0  0  0
   58.2450   29.5740   44.9820 C   0  0  0  0  0  0  0  0  0  0  0  0
   58.4200   28.2780   45.4230 C   0  0  0  0  0  0  0  0  0  0  0  0
   57.1540   27.7300   45.5500 C   0  0  0  0  0  0  0  0  0  0  0  0
   56.8650   26.3560   46.0160 C   0  0  0  0  0  0  0  0  0  0  0  0
   57.8130   25.4450   46.3240 N   0  0  0  0  0  0  0  0  0  0  0  0
   57.1340   24.3360   46.6790 C   0  0  0  0  0  0  0  0  0  0  0  0
   57.6950   23.2580   47.0120 O   0  0  0  0  0  0  0  0  0  0  0  0
   55.7960   24.4990   46.6280 N   0  0  0  0  0  0  0  0  0  0  0  0
   54.7650   23.4910   46.8500 C   0  0  0  0  0  0  0  0  0  0  0  0
   55.6250   25.7620   46.1940 C   0  0  0  0  0  0  0  0  0  0  0  0
   54.3840   26.3380   45.9510 O   0  0  0  0  0  0  0  0  0  0  0  0
   56.2200   28.6410   45.2070 N   0  0  0  0  0  0  0  0  0  0  0  0
   55.9282   31.5861   45.3760 H   0  0  0  0  0  0  0  0  0  0  0  0
   56.9084   31.6495   43.8720 H   0  0  0  0  0  0  0  0  0  0  0  0
   55.3161   30.8180   43.8720 H   0  0  0  0  0  0  0  0  0  0  0  0
   59.0330   30.3138   44.7775 H   0  0  0  0  0  0  0  0  0  0  0  0
   59.3772   27.7781   45.6326 H   0  0  0  0  0  0  0  0  0  0  0  0
   58.8500   25.5580   46.2880 H   0  0  0  0  0  0  0  0  0  0  0  0
   54.6187   23.3480   47.9308 H   0  0  0  0  0  0  0  0  0  0  0  0
   53.8216   23.8247   46.3933 H   0  0  0  0  0  0  0  0  0  0  0  0
   55.0773   22.5403   46.3933 H   0  0  0  0  0  0  0  0  0  0  0  0
   55.1840   28.5290   45.2270 H   0  0  0  0  0  0  0  0  0  0  0  0
  1  2  1  0
  2  3  2  0
  3  4  1  0
  4  5  2  0
  5  6  1  0
  6  7  1  0
  7  8  1  0
  8  9  2  0
  8 10  1  0
 10 11  1  0
 10 12  1  0
 12 13  1  0
  5 14  1  0
 14  2  1  0
 12  6  2  0
  1 15  1  0
  1 16  1  0
  1 17  1  0
  3 18  1  0
  4 19  1  0
  7 20  1  0
 11 21  1  0
 11 22  1  0
 11 23  1  0
 14 24  1  0
M  CHG  1  13  -1
M  END
>  <UniqueID>  (33) 
31

>  <SMILES>  (33) 
Cc1ccc(-c2[nH]c(=O)n(C)c2[O-])[nH]1

>  <Energy>  (33) 
81.74055337595006

>  <Genealogy>  (33) 
Cc1ccc(-c2[nH]c(=O)n(C)c2[O-])[nH]1 (protonated)
Cc1ccc(-c2[nH]c(=O)n(C)c2[O-])[nH]1 (3D coordinates assigned)
Cc1ccc(-c2[nH]c(=O)n(C)c2[O-])[nH]1 (optimized conformer: 81.74055337595006 kcal/mol)

>  <smiles>  (33) 
Cc1ccc(-c2[nH]c(=O)n(C)c2O)[nH]1

>  <score_type>  (33) 
oracle

>  <origin>  (33) 
adg

>  <m_score__min__energy>  (33) 
-9.7300000000000004

>  <m_primary>  (33) 
energy

$$$$
33:0
     RDKit          3D

 51 54  0  0  0  0  0  0  0  0999 V2000
   55.5890   26.0300   45.9650 O   0  0  0  0  0  0  0  0  0  0  0  0
   56.6100   26.6960   45.6480 C   0  0  0  0  0  0  0  0  0  0  0  0
   57.6950   26.0350   44.8450 C   0  0  0  0  0  0  0  0  0  0  0  0
   58.2620   24.5000   45.6530 S   0  0  0  0  0  0  0  0  0  0  0  0
   57.4810   23.4020   44.4640 C   0  0  0  0  0  0  0  0  0  0  0  0
   57.9670   22.1040   44.2790 C   0  0  0  0  0  0  0  0  0  0  0  0
   57.3420   21.2660   43.3520 C   0  0  0  0  0  0  0  0  0  0  0  0
   56.2670   21.7090   42.6480 N   0  0  0  0  0  0  0  0  0  0  0  0
   55.7720   22.9660   42.8180 C   0  0  0  0  0  0  0  0  0  0  0  0
   56.3730   23.8370   43.7300 C   0  0  0  0  0  0  0  0  0  0  0  0
   56.6690   28.0830   46.0010 N   0  0  0  0  0  0  0  0  0  0  0  0
   56.9370   29.1790   45.1120 C   0  0  0  0  0  0  0  0  0  0  0  0
   56.0090   29.5320   44.1150 C   0  0  0  0  0  0  0  0  0  0  0  0
   56.3050   30.5380   43.1950 C   0  0  0  0  0  0  0  0  0  0  0  0
   57.5330   31.1940   43.2480 C   0  0  0  0  0  0  0  0  0  0  0  0
   58.4750   30.8400   44.2160 C   0  0  0  0  0  0  0  0  0  0  0  0
   58.1950   29.8250   45.1500 C   0  0  0  0  0  0  0  0  0  0  0  0
   59.2120   29.4580   46.1630 C   0  0  0  0  0  0  0  0  0  0  0  0
   60.4360   29.5800   45.8860 O   0  0  0  0  0  0  0  0  0  0  0  0
   58.8200   28.9750   47.4580 N   0  0  0  0  0  0  0  0  0  0  0  0
   59.7900   28.6800   48.5110 C   0  0  0  0  0  0  0  0  0  0  0  0
   60.4240   29.9600   49.0650 C   0  0  0  0  0  0  0  0  0  0  0  0
   59.1840   31.0700   49.8260 S   0  0  0  0  0  0  0  0  0  0  0  0
   58.9950   32.1330   48.3960 C   0  0  0  0  0  0  0  0  0  0  0  0
   57.7950   32.3380   47.7940 N   0  0  0  0  0  0  0  0  0  0  0  0
   58.1140   33.1860   46.8050 C   0  0  0  0  0  0  0  0  0  0  0  0
   57.2650   33.7310   45.8450 C   0  0  0  0  0  0  0  0  0  0  0  0
   57.8320   34.5930   44.8870 C   0  0  0  0  0  0  0  0  0  0  0  0
   59.2160   34.8800   44.9140 C   0  0  0  0  0  0  0  0  0  0  0  0
   60.0410   34.3120   45.9030 C   0  0  0  0  0  0  0  0  0  0  0  0
   59.4450   33.4660   46.8350 C   0  0  0  0  0  0  0  0  0  0  0  0
   60.0350   32.8120   47.8460 N   0  0  0  0  0  0  0  0  0  0  0  0
   57.3059   25.7928   43.8450 H   0  0  0  0  0  0  0  0  0  0  0  0
   58.5467   26.7270   44.7694 H   0  0  0  0  0  0  0  0  0  0  0  0
   58.8320   21.7465   44.8570 H   0  0  0  0  0  0  0  0  0  0  0  0
   57.7207   20.2458   43.1916 H   0  0  0  0  0  0  0  0  0  0  0  0
   54.8983   23.2959   42.2368 H   0  0  0  0  0  0  0  0  0  0  0  0
   55.9788   24.8544   43.8693 H   0  0  0  0  0  0  0  0  0  0  0  0
   55.0421   29.0104   44.0606 H   0  0  0  0  0  0  0  0  0  0  0  0
   55.5678   30.8137   42.4266 H   0  0  0  0  0  0  0  0  0  0  0  0
   57.7608   31.9921   42.5261 H   0  0  0  0  0  0  0  0  0  0  0  0
   59.4444   31.3589   44.2489 H   0  0  0  0  0  0  0  0  0  0  0  0
   57.8090   28.8290   47.6740 H   0  0  0  0  0  0  0  0  0  0  0  0
   59.2795   28.1509   49.3292 H   0  0  0  0  0  0  0  0  0  0  0  0
   60.5884   28.0578   48.0803 H   0  0  0  0  0  0  0  0  0  0  0  0
   61.1690   29.6858   49.8264 H   0  0  0  0  0  0  0  0  0  0  0  0
   60.8896   30.4976   48.2258 H   0  0  0  0  0  0  0  0  0  0  0  0
   56.1903   33.4965   45.8355 H   0  0  0  0  0  0  0  0  0  0  0  0
   57.1946   35.0457   44.1132 H   0  0  0  0  0  0  0  0  0  0  0  0
   59.6505   35.5507   44.1581 H   0  0  0  0  0  0  0  0  0  0  0  0
   61.1188   34.5288   45.9385 H   0  0  0  0  0  0  0  0  0  0  0  0
  1  2  2  0
  2  3  1  0
  3  4  1  0
  4  5  1  0
  5  6  2  0
  6  7  1  0
  7  8  2  0
  8  9  1  0
  9 10  2  0
  2 11  1  0
 11 12  1  0
 12 13  2  0
 13 14  1  0
 14 15  2  0
 15 16  1  0
 16 17  2  0
 17 18  1  0
 18 19  2  0
 18 20  1  0
 20 21  1  0
 21 22  1  0
 22 23  1  0
 23 24  1  0
 24 25  2  0
 25 26  1  0
 26 27  2  0
 27 28  1  0
 28 29  2  0
 29 30  1  0
 30 31  2  0
 31 32  1  0
 10  5  1  0
 17 12  1  0
 32 24  1  0
 31 26  1  0
  3 33  1  0
  3 34  1  0
  6 35  1  0
  7 36  1  0
  9 37  1  0
 10 38  1  0
 13 39  1  0
 14 40  1  0
 15 41  1  0
 16 42  1  0
 20 43  1  0
 21 44  1  0
 21 45  1  0
 22 46  1  0
 22 47  1  0
 27 48  1  0
 28 49  1  0
 29 50  1  0
 30 51  1  0
M  CHG  2  11  -1  32  -1
M  END
>  <UniqueID>  (34) 
32

>  <SMILES>  (34) 
O=C(CSc1ccncc1)[N-]c1ccccc1C(=O)NCCSc1nc2ccccc2[n-]1

>  <Energy>  (34) 
81.13288551500236

>  <Genealogy>  (34) 
O=C(CSc1ccncc1)[N-]c1ccccc1C(=O)NCCSc1nc2ccccc2[n-]1 (protonated)
O=C(CSc1ccncc1)[N-]c1ccccc1C(=O)NCCSc1nc2ccccc2[n-]1 (3D coordinates assigned)
O=C(CSc1ccncc1)[N-]c1ccccc1C(=O)NCCSc1nc2ccccc2[n-]1 (optimized conformer: 81.13288551500236 kcal/mol)

>  <smiles>  (34) 
O=C(CSc1ccncc1)Nc1ccccc1C(=O)NCCSc1nc2ccccc2[nH]1

>  <score_type>  (34) 
oracle

>  <origin>  (34) 
adg

>  <m_score__min__energy>  (34) 
-12.66

>  <m_primary>  (34) 
energy

$$$$
34:0
     RDKit          3D

 35 37  0  0  0  0  0  0  0  0999 V2000
   59.0390   33.0670   48.3440 C   0  0  0  0  0  0  0  0  0  0  0  0
   59.3810   33.0080   46.5990 S   0  0  0  0  0  0  0  0  0  0  0  0
   58.8540   34.2590   45.9540 O   0  0  0  0  0  0  0  0  0  0  0  0
   60.8630   32.9280   46.3670 O   0  0  0  0  0  0  0  0  0  0  0  0
   58.6050   31.6230   45.9010 N   0  0  0  0  0  0  0  0  0  0  0  0
   58.3700   30.4490   46.5300 C   0  0  0  0  0  0  0  0  0  0  0  0
   57.7400   29.5710   45.6600 C   0  0  0  0  0  0  0  0  0  0  0  0
   57.3000   28.2480   45.9920 N   0  0  0  0  0  0  0  0  0  0  0  0
   57.8250   27.0700   45.3640 C   0  0  0  0  0  0  0  0  0  0  0  0
   58.9460   27.1170   44.7880 O   0  0  0  0  0  0  0  0  0  0  0  0
   57.0970   25.7780   45.4380 C   0  0  0  0  0  0  0  0  0  0  0  0
   57.7230   24.6020   44.9920 C   0  0  0  0  0  0  0  0  0  0  0  0
   57.0570   23.3790   45.0600 C   0  0  0  0  0  0  0  0  0  0  0  0
   55.7590   23.3340   45.5660 C   0  0  0  0  0  0  0  0  0  0  0  0
   55.1510   24.4770   45.9790 N   0  0  0  0  0  0  0  0  0  0  0  0
   55.7740   25.6860   45.9240 C   0  0  0  0  0  0  0  0  0  0  0  0
   55.1450   26.7140   46.2930 O   0  0  0  0  0  0  0  0  0  0  0  0
   57.5620   30.2530   44.4680 C   0  0  0  0  0  0  0  0  0  0  0  0
   56.9160   29.9030   43.2810 C   0  0  0  0  0  0  0  0  0  0  0  0
   56.8800   30.8540   42.2470 C   0  0  0  0  0  0  0  0  0  0  0  0
   57.4670   32.1250   42.4220 C   0  0  0  0  0  0  0  0  0  0  0  0
   58.0860   32.4640   43.6380 C   0  0  0  0  0  0  0  0  0  0  0  0
   58.1120   31.5000   44.6510 C   0  0  0  0  0  0  0  0  0  0  0  0
   59.9709   32.9062   48.9059 H   0  0  0  0  0  0  0  0  0  0  0  0
   58.6200   34.0507   48.6025 H   0  0  0  0  0  0  0  0  0  0  0  0
   58.3146   32.2806   48.6025 H   0  0  0  0  0  0  0  0  0  0  0  0
   58.6377   30.2244   47.5730 H   0  0  0  0  0  0  0  0  0  0  0  0
   56.7030   28.1320   46.8420 H   0  0  0  0  0  0  0  0  0  0  0  0
   58.7447   24.6464   44.5867 H   0  0  0  0  0  0  0  0  0  0  0  0
   57.5514   22.4580   44.7175 H   0  0  0  0  0  0  0  0  0  0  0  0
   55.2269   22.3735   45.6310 H   0  0  0  0  0  0  0  0  0  0  0  0
   56.4499   28.9141   43.1589 H   0  0  0  0  0  0  0  0  0  0  0  0
   56.3904   30.6055   41.2938 H   0  0  0  0  0  0  0  0  0  0  0  0
   57.4401   32.8563   41.6008 H   0  0  0  0  0  0  0  0  0  0  0  0
   58.5359   33.4565   43.7880 H   0  0  0  0  0  0  0  0  0  0  0  0
  1  2  1  0
  2  3  2  0
  2  4  2  0
  2  5  1  0
  5  6  1  0
  6  7  2  0
  7  8  1  0
  8  9  1  0
  9 10  2  0
  9 11  1  0
 11 12  2  0
 12 13  1  0
 13 14  2  0
 14 15  1  0
 15 16  1  0
 16 17  2  0
  7 18  1  0
 18 19  2  0
 19 20  1  0
 20 21  2  0
 21 22  1  0
 22 23  2  0
 23  5  1  0
 16 11  1  0
 23 18  1  0
  1 24  1  0
  1 25  1  0
  1 26  1  0
  6 27  1  0
  8 28  1  0
 12 29  1  0
 13 30  1  0
 14 31  1  0
 19 32  1  0
 20 33  1  0
 21 34  1  0
 22 35  1  0
M  CHG  1  15  -1
M  END
>  <UniqueID>  (35) 
33

>  <SMILES>  (35) 
CS(=O)(=O)n1cc(NC(=O)c2ccc[n-]c2=O)c2ccccc21

>  <Energy>  (35) 
78.65113669877861

>  <Genealogy>  (35) 
CS(=O)(=O)n1cc(NC(=O)c2ccc[n-]c2=O)c2ccccc21 (protonated)
CS(=O)(=O)n1cc(NC(=O)c2ccc[n-]c2=O)c2ccccc21 (3D coordinates assigned)
CS(=O)(=O)n1cc(NC(=O)c2ccc[n-]c2=O)c2ccccc21 (optimized conformer: 78.65113669877861 kcal/mol)

>  <smiles>  (35) 
CS(=O)(=O)n1cc(NC(=O)c2ccc[nH]c2=O)c2ccccc21

>  <score_type>  (35) 
oracle

>  <origin>  (35) 
adg

>  <m_score__min__energy>  (35) 
-10.01

>  <m_primary>  (35) 
energy

$$$$
35:0
     RDKit          3D

 42 44  0  0  0  0  0  0  0  0999 V2000
   57.0073   21.9095   45.5960 H   0  0  0  0  0  0  0  0  0  0  0  0
   56.5570   22.9100   45.6750 C   0  0  0  0  0  0  0  0  0  0  0  0
   57.1590   23.8690   46.4290 N   0  0  0  0  0  0  0  0  0  0  0  0
   56.6360   25.1230   46.5550 C   0  0  0  0  0  0  0  0  0  0  0  0
   57.2200   26.0270   47.2910 N   0  0  0  0  0  0  0  0  0  0  0  0
   58.4880   26.6570   47.0420 C   0  0  0  0  0  0  0  0  0  0  0  0
   59.5600   26.0020   47.1430 O   0  0  0  0  0  0  0  0  0  0  0  0
   58.5220   28.0770   46.6200 C   0  0  0  0  0  0  0  0  0  0  0  0
   57.6770   28.4930   45.5750 C   0  0  0  0  0  0  0  0  0  0  0  0
   56.9963   27.7669   45.1066 H   0  0  0  0  0  0  0  0  0  0  0  0
   57.6900   29.8170   45.1230 C   0  0  0  0  0  0  0  0  0  0  0  0
   56.6190   30.3120   43.8160 S   0  0  0  0  0  0  0  0  0  0  0  0
   57.0800   31.6270   43.2500 O   0  0  0  0  0  0  0  0  0  0  0  0
   55.2180   30.4770   44.3380 O   0  0  0  0  0  0  0  0  0  0  0  0
   56.6330   29.1080   42.5750 N   0  0  0  0  0  0  0  0  0  0  0  0
   57.5600   29.1710   42.0980 H   0  0  0  0  0  0  0  0  0  0  0  0
   55.9120   29.3830   41.8720 H   0  0  0  0  0  0  0  0  0  0  0  0
   58.5410   30.7470   45.7270 C   0  0  0  0  0  0  0  0  0  0  0  0
   58.5544   31.7888   45.3741 H   0  0  0  0  0  0  0  0  0  0  0  0
   59.3730   30.3570   46.7760 C   0  0  0  0  0  0  0  0  0  0  0  0
   60.0402   31.0948   47.2456 H   0  0  0  0  0  0  0  0  0  0  0  0
   59.3670   29.0350   47.2370 C   0  0  0  0  0  0  0  0  0  0  0  0
   60.4060   28.6390   48.6550 S   0  0  0  0  0  0  0  0  0  0  0  0
   59.7400   29.9850   49.6380 C   0  0  0  0  0  0  0  0  0  0  0  0
   58.5600   29.8050   50.3670 C   0  0  0  0  0  0  0  0  0  0  0  0
   58.0509   28.8300   50.3535 H   0  0  0  0  0  0  0  0  0  0  0  0
   58.0250   30.8600   51.1130 C   0  0  0  0  0  0  0  0  0  0  0  0
   57.0920   30.7128   51.6767 H   0  0  0  0  0  0  0  0  0  0  0  0
   58.6730   32.1090   51.1470 C   0  0  0  0  0  0  0  0  0  0  0  0
   58.1250   33.1990   51.9090 N   0  0  0  0  0  0  0  0  0  0  0  0
   56.9680   33.1340   52.3710 O   0  0  0  0  0  0  0  0  0  0  0  0
   58.8640   34.3390   52.1310 O   0  0  0  0  0  0  0  0  0  0  0  0
   59.8670   32.2770   50.4230 C   0  0  0  0  0  0  0  0  0  0  0  0
   60.3880   33.2455   50.4454 H   0  0  0  0  0  0  0  0  0  0  0  0
   60.3960   31.2210   49.6750 C   0  0  0  0  0  0  0  0  0  0  0  0
   61.3313   31.3619   49.1134 H   0  0  0  0  0  0  0  0  0  0  0  0
   55.4410   25.4410   45.8940 C   0  0  0  0  0  0  0  0  0  0  0  0
   54.8800   26.7090   46.0090 O   0  0  0  0  0  0  0  0  0  0  0  0
   54.8080   24.4670   45.1160 C   0  0  0  0  0  0  0  0  0  0  0  0
   53.8688   24.7034   44.5945 H   0  0  0  0  0  0  0  0  0  0  0  0
   55.3690   23.1950   45.0020 C   0  0  0  0  0  0  0  0  0  0  0  0
   54.8796   22.4248   44.3878 H   0  0  0  0  0  0  0  0  0  0  0  0
  1  2  1  0
  2  3  1  0
  3  4  1  0
  4  5  2  0
  5  6  1  0
  6  7  2  0
  6  8  1  0
  8  9  2  0
  9 10  1  0
  9 11  1  0
 11 12  1  0
 12 13  2  0
 12 14  2  0
 12 15  1  0
 15 16  1  0
 15 17  1  0
 11 18  2  0
 18 19  1  0
 18 20  1  0
 20 21  1  0
 20 22  2  0
 22 23  1  0
 23 24  1  0
 24 25  2  0
 25 26  1  0
 25 27  1  0
 27 28  1  0
 27 29  2  0
 29 30  1  0
 30 31  2  0
 30 32  1  0
 29 33  1  0
 33 34  1  0
 33 35  2  0
 35 36  1  0
  4 37  1  0
 37 38  1  0
 37 39  2  0
 39 40  1  0
 39 41  1  0
 41 42  1  0
 41  2  2  0
 22  8  1  0
 35 24  1  0
M  CHG  4   3  -1  30   1  32  -1  38  -1
M  END
>  <UniqueID>  (36) 
34

>  <SMILES>  (36) 
NS(=O)(=O)c1ccc(Sc2ccc([N+](=O)[O-])cc2)c(C(=O)/N=c2\[n-]cccc2[O-])c1

>  <Energy>  (36) 
48.07649676315417

>  <Genealogy>  (36) 
NS(=O)(=O)c1ccc(Sc2ccc([N+](=O)[O-])cc2)c(C(=O)N=c2[n-]cccc2[O-])c1 (protonated)
NS(=O)(=O)c1ccc(Sc2ccc([N+](=O)[O-])cc2)c(C(=O)/N=c2\[n-]cccc2[O-])c1 (cis-trans isomerization)
NS(=O)(=O)c1ccc(Sc2ccc([N+](=O)[O-])cc2)c(C(=O)/N=c2\[n-]cccc2[O-])c1 (3D coordinates assigned)
NS(=O)(=O)c1ccc(Sc2ccc([N+](=O)[O-])cc2)c(C(=O)/N=c2\[n-]cccc2[O-])c1 (optimized conformer: 48.07649676315417 kcal/mol)

>  <smiles>  (36) 
NS(=O)(=O)c1ccc(Sc2ccc([N+](=O)[O-])cc2)c(C(=O)N=c2[nH]cccc2O)c1

>  <score_type>  (36) 
oracle

>  <origin>  (36) 
adg

>  <m_score__min__energy>  (36) 
-14.050000000000001

>  <m_primary>  (36) 
energy

$$$$
36:0
     RDKit          3D

 51 54  0  0  0  0  0  0  0  0999 V2000
   60.5620   29.9270   47.9010 C   0  0  0  0  0  0  0  0  0  0  0  0
   60.3990   28.2920   48.6810 S   0  0  0  0  0  0  0  0  0  0  0  0
   59.2770   27.6720   47.4270 C   0  0  0  0  0  0  0  0  0  0  0  0
   58.8600   26.3370   47.4610 C   0  0  0  0  0  0  0  0  0  0  0  0
   57.9760   25.8560   46.4920 C   0  0  0  0  0  0  0  0  0  0  0  0
   57.5030   26.7090   45.4910 C   0  0  0  0  0  0  0  0  0  0  0  0
   57.8980   28.0580   45.4620 C   0  0  0  0  0  0  0  0  0  0  0  0
   57.4060   28.9670   44.4640 N   0  0  0  0  0  0  0  0  0  0  0  0
   56.2720   29.8360   44.6140 C   0  0  0  0  0  0  0  0  0  0  0  0
   55.1450   29.3350   44.8630 O   0  0  0  0  0  0  0  0  0  0  0  0
   56.3970   31.2610   44.5080 N   0  0  0  0  0  0  0  0  0  0  0  0
   57.3310   31.9620   45.0780 C   0  0  0  0  0  0  0  0  0  0  0  0
   58.5590   31.4800   45.3820 N   0  0  0  0  0  0  0  0  0  0  0  0
   59.3070   32.4030   46.0360 C   0  0  0  0  0  0  0  0  0  0  0  0
   58.6650   33.6140   46.2520 C   0  0  0  0  0  0  0  0  0  0  0  0
   59.2790   34.9370   47.2870 S   0  0  0  0  0  0  0  0  0  0  0  0
   59.8470   33.7660   48.5220 C   0  0  0  0  0  0  0  0  0  0  0  0
   61.2150   33.5480   48.7070 C   0  0  0  0  0  0  0  0  0  0  0  0
   61.6590   32.7180   49.7390 C   0  0  0  0  0  0  0  0  0  0  0  0
   60.7350   32.0980   50.5870 C   0  0  0  0  0  0  0  0  0  0  0  0
   59.3540   32.2830   50.3870 C   0  0  0  0  0  0  0  0  0  0  0  0
   58.3720   31.7150   51.2660 N   0  0  0  0  0  0  0  0  0  0  0  0
   57.8250   30.3940   51.2010 C   0  0  0  0  0  0  0  0  0  0  0  0
   58.1340   29.6560   50.2290 O   0  0  0  0  0  0  0  0  0  0  0  0
   57.0270   29.8810   52.2740 N   0  0  0  0  0  0  0  0  0  0  0  0
   55.5940   29.8390   52.3200 C   0  0  0  0  0  0  0  0  0  0  0  0
   54.8990   28.7750   52.9260 C   0  0  0  0  0  0  0  0  0  0  0  0
   53.5000   28.7580   52.9250 C   0  0  0  0  0  0  0  0  0  0  0  0
   52.7870   29.7900   52.3100 C   0  0  0  0  0  0  0  0  0  0  0  0
   53.4710   30.8380   51.6870 C   0  0  0  0  0  0  0  0  0  0  0  0
   54.8690   30.8570   51.6860 C   0  0  0  0  0  0  0  0  0  0  0  0
   58.9200   33.1280   49.3580 C   0  0  0  0  0  0  0  0  0  0  0  0
   57.1190   33.5490   45.5880 S   0  0  0  0  0  0  0  0  0  0  0  0
   58.8030   28.5280   46.4240 C   0  0  0  0  0  0  0  0  0  0  0  0
   60.6390   30.6992   48.6806 H   0  0  0  0  0  0  0  0  0  0  0  0
   61.4665   29.9462   47.2753 H   0  0  0  0  0  0  0  0  0  0  0  0
   59.6791   30.1244   47.2753 H   0  0  0  0  0  0  0  0  0  0  0  0
   59.2283   25.6659   48.2509 H   0  0  0  0  0  0  0  0  0  0  0  0
   57.6520   24.8051   46.5169 H   0  0  0  0  0  0  0  0  0  0  0  0
   56.8180   26.3229   44.7218 H   0  0  0  0  0  0  0  0  0  0  0  0
   60.3374   32.2078   46.3678 H   0  0  0  0  0  0  0  0  0  0  0  0
   61.9433   34.0308   48.0388 H   0  0  0  0  0  0  0  0  0  0  0  0
   62.7365   32.5516   49.8851 H   0  0  0  0  0  0  0  0  0  0  0  0
   61.0890   31.4637   51.4130 H   0  0  0  0  0  0  0  0  0  0  0  0
   55.4573   27.9551   53.4014 H   0  0  0  0  0  0  0  0  0  0  0  0
   52.9606   27.9306   53.4093 H   0  0  0  0  0  0  0  0  0  0  0  0
   51.6871   29.7780   52.3160 H   0  0  0  0  0  0  0  0  0  0  0  0
   52.9095   31.6475   51.1977 H   0  0  0  0  0  0  0  0  0  0  0  0
   55.4036   31.6769   51.1840 H   0  0  0  0  0  0  0  0  0  0  0  0
   57.8432   33.2924   49.2045 H   0  0  0  0  0  0  0  0  0  0  0  0
   59.1426   29.5737   46.3913 H   0  0  0  0  0  0  0  0  0  0  0  0
  1  2  1  0
  2  3  1  0
  3  4  2  0
  4  5  1  0
  5  6  2  0
  6  7  1  0
  7  8  1  0
  8  9  1  0
  9 10  2  0
  9 11  1  0
 11 12  2  3
 12 13  1  0
 13 14  1  0
 14 15  2  0
 15 16  1  0
 16 17  1  0
 17 18  2  0
 18 19  1  0
 19 20  2  0
 20 21  1  0
 21 22  1  0
 22 23  1  0
 23 24  2  0
 23 25  1  0
 25 26  1  0
 26 27  2  0
 27 28  1  0
 28 29  2  0
 29 30  1  0
 30 31  2  0
 21 32  2  0
 15 33  1  0
  7 34  2  0
 34  3  1  0
 33 12  1  0
 32 17  1  0
 31 26  1  0
  1 35  1  0
  1 36  1  0
  1 37  1  0
  4 38  1  0
  5 39  1  0
  6 40  1  0
 14 41  1  0
 18 42  1  0
 19 43  1  0
 20 44  1  0
 27 45  1  0
 28 46  1  0
 29 47  1  0
 30 48  1  0
 31 49  1  0
 32 50  1  0
 34 51  1  0
M  CHG  4   8  -1  13  -1  22  -1  25  -1
M  END
>  <UniqueID>  (37) 
35

>  <SMILES>  (37) 
CSc1cccc([N-]C(=O)N=c2[n-]cc(Sc3cccc([N-]C(=O)[N-]c4ccccc4)c3)s2)c1

>  <Energy>  (37) 
88.48186954853304

>  <Genealogy>  (37) 
CSc1cccc([N-]C(=O)N=c2[n-]cc(Sc3cccc([N-]C(=O)[N-]c4ccccc4)c3)s2)c1 (protonated)
CSc1cccc([N-]C(=O)N=c2[n-]cc(Sc3cccc([N-]C(=O)[N-]c4ccccc4)c3)s2)c1 (3D coordinates assigned)
CSc1cccc([N-]C(=O)N=c2[n-]cc(Sc3cccc([N-]C(=O)[N-]c4ccccc4)c3)s2)c1 (optimized conformer: 88.48186954853304 kcal/mol)

>  <smiles>  (37) 
CSc1cccc(NC(=O)N=c2[nH]cc(Sc3cccc(NC(=O)Nc4ccccc4)c3)s2)c1

>  <score_type>  (37) 
oracle

>  <origin>  (37) 
adg

>  <m_score__min__energy>  (37) 
-15.56

>  <m_primary>  (37) 
energy

$$$$
37:0
     RDKit          3D

 53 55  0  0  0  0  0  0  0  0999 V2000
   56.1230   29.3260   42.3160 N   0  0  0  0  0  0  0  0  0  0  0  0
   56.6700   29.4430   43.9510 S   0  0  0  0  0  0  0  0  0  0  0  0
   57.6510   28.3370   44.2270 O   0  0  0  0  0  0  0  0  0  0  0  0
   55.5000   29.2980   44.8820 O   0  0  0  0  0  0  0  0  0  0  0  0
   57.4350   31.0100   44.1950 C   0  0  0  0  0  0  0  0  0  0  0  0
   57.8470   31.7760   43.0960 C   0  0  0  0  0  0  0  0  0  0  0  0
   58.3970   33.0470   43.2940 C   0  0  0  0  0  0  0  0  0  0  0  0
   58.5360   33.5600   44.5880 C   0  0  0  0  0  0  0  0  0  0  0  0
   58.1370   32.7980   45.6970 C   0  0  0  0  0  0  0  0  0  0  0  0
   58.2540   33.3540   47.0610 C   0  0  0  0  0  0  0  0  0  0  0  0
   57.7700   32.7140   48.0330 O   0  0  0  0  0  0  0  0  0  0  0  0
   58.9250   34.5940   47.3130 N   0  0  0  0  0  0  0  0  0  0  0  0
   60.3360   34.6810   47.6700 C   0  0  0  0  0  0  0  0  0  0  0  0
   60.6440   33.7200   48.8130 C   0  0  0  0  0  0  0  0  0  0  0  0
   61.9310   32.5500   48.3760 S   0  0  0  0  0  0  0  0  0  0  0  0
   62.6260   33.0270   47.1300 O   0  0  0  0  0  0  0  0  0  0  0  0
   62.9340   32.5280   49.4950 O   0  0  0  0  0  0  0  0  0  0  0  0
   61.3400   30.9200   48.1340 N   0  0  0  0  0  0  0  0  0  0  0  0
   61.4690   30.4750   46.7260 C   0  0  0  0  0  0  0  0  0  0  0  0
   60.2620   29.6730   46.2020 C   0  0  0  0  0  0  0  0  0  0  0  0
   59.7160   28.7870   47.2410 N   0  0  0  0  0  0  0  0  0  0  0  0
   59.0950   27.5320   46.8800 C   0  0  0  0  0  0  0  0  0  0  0  0
   57.7030   27.3590   47.0110 C   0  0  0  0  0  0  0  0  0  0  0  0
   57.1030   26.1470   46.6520 C   0  0  0  0  0  0  0  0  0  0  0  0
   57.8790   25.0990   46.1530 C   0  0  0  0  0  0  0  0  0  0  0  0
   59.2580   25.2590   46.0130 C   0  0  0  0  0  0  0  0  0  0  0  0
   59.8640   26.4650   46.3750 C   0  0  0  0  0  0  0  0  0  0  0  0
   59.5870   29.2870   48.6180 C   0  0  0  0  0  0  0  0  0  0  0  0
   59.9970   30.7550   48.7090 C   0  0  0  0  0  0  0  0  0  0  0  0
   57.5740   31.5260   45.4910 C   0  0  0  0  0  0  0  0  0  0  0  0
   55.5690   28.4430   42.2470 H   0  0  0  0  0  0  0  0  0  0  0  0
   55.4570   30.1150   42.1610 H   0  0  0  0  0  0  0  0  0  0  0  0
   57.7378   31.3774   42.0766 H   0  0  0  0  0  0  0  0  0  0  0  0
   58.7212   33.6449   42.4294 H   0  0  0  0  0  0  0  0  0  0  0  0
   58.9595   34.5642   44.7368 H   0  0  0  0  0  0  0  0  0  0  0  0
   60.9499   34.4168   46.7963 H   0  0  0  0  0  0  0  0  0  0  0  0
   60.5653   35.7082   47.9897 H   0  0  0  0  0  0  0  0  0  0  0  0
   60.9737   34.3011   49.6869 H   0  0  0  0  0  0  0  0  0  0  0  0
   59.7289   33.1519   49.0362 H   0  0  0  0  0  0  0  0  0  0  0  0
   61.5918   31.3661   46.0928 H   0  0  0  0  0  0  0  0  0  0  0  0
   62.3369   29.8003   46.6868 H   0  0  0  0  0  0  0  0  0  0  0  0
   59.4778   30.3746   45.8814 H   0  0  0  0  0  0  0  0  0  0  0  0
   60.5981   29.0521   45.3585 H   0  0  0  0  0  0  0  0  0  0  0  0
   57.0840   28.1819   47.3979 H   0  0  0  0  0  0  0  0  0  0  0  0
   56.0161   26.0194   46.7633 H   0  0  0  0  0  0  0  0  0  0  0  0
   57.4036   24.1481   45.8705 H   0  0  0  0  0  0  0  0  0  0  0  0
   59.8691   24.4345   45.6170 H   0  0  0  0  0  0  0  0  0  0  0  0
   60.9521   26.5824   46.2646 H   0  0  0  0  0  0  0  0  0  0  0  0
   58.5404   29.1854   48.9408 H   0  0  0  0  0  0  0  0  0  0  0  0
   60.2503   28.6975   49.2680 H   0  0  0  0  0  0  0  0  0  0  0  0
   59.2791   31.3726   48.1494 H   0  0  0  0  0  0  0  0  0  0  0  0
   60.0055   31.0710   49.7626 H   0  0  0  0  0  0  0  0  0  0  0  0
   57.2400   30.9310   46.3538 H   0  0  0  0  0  0  0  0  0  0  0  0
  1  2  1  0
  2  3  2  0
  2  4  2  0
  2  5  1  0
  5  6  2  0
  6  7  1  0
  7  8  2  0
  8  9  1  0
  9 10  1  0
 10 11  2  0
 10 12  1  0
 12 13  1  0
 13 14  1  0
 14 15  1  0
 15 16  2  0
 15 17  2  0
 15 18  1  0
 18 19  1  0
 19 20  1  0
 20 21  1  0
 21 22  1  0
 22 23  2  0
 23 24  1  0
 24 25  2  0
 25 26  1  0
 26 27  2  0
 21 28  1  0
 28 29  1  0
  9 30  2  0
 30  5  1  0
 29 18  1  0
 27 22  1  0
  1 31  1  0
  1 32  1  0
  6 33  1  0
  7 34  1  0
  8 35  1  0
 13 36  1  0
 13 37  1  0
 14 38  1  0
 14 39  1  0
 19 40  1  0
 19 41  1  0
 20 42  1  0
 20 43  1  0
 23 44  1  0
 24 45  1  0
 25 46  1  0
 26 47  1  0
 27 48  1  0
 28 49  1  0
 28 50  1  0
 29 51  1  0
 29 52  1  0
 30 53  1  0
M  CHG  1  12  -1
M  END
>  <UniqueID>  (38) 
36

>  <SMILES>  (38) 
NS(=O)(=O)c1cccc(C(=O)[N-]CCS(=O)(=O)N2CCN(c3ccccc3)CC2)c1

>  <Energy>  (38) 
55.81069750705714

>  <Genealogy>  (38) 
NS(=O)(=O)c1cccc(C(=O)[N-]CCS(=O)(=O)N2CCN(c3ccccc3)CC2)c1 (protonated)
NS(=O)(=O)c1cccc(C(=O)[N-]CCS(=O)(=O)N2CCN(c3ccccc3)CC2)c1 (3D coordinates assigned)
NS(=O)(=O)c1cccc(C(=O)[N-]CCS(=O)(=O)N2CCN(c3ccccc3)CC2)c1 (nonaromatic ring conformer: 55.81069750705714 kcal/mol)

>  <smiles>  (38) 
NS(=O)(=O)c1cccc(C(=O)NCCS(=O)(=O)N2CCN(c3ccccc3)CC2)c1

>  <score_type>  (38) 
oracle

>  <origin>  (38) 
adg

>  <m_score__min__energy>  (38) 
-12.859999999999999

>  <m_primary>  (38) 
energy

$$$$
38:0
     RDKit          3D

 56 59  0  0  0  0  0  0  0  0999 V2000
   57.2940   34.9220   44.8030 O   0  0  0  0  0  0  0  0  0  0  0  0
   58.2240   34.0910   44.6210 C   0  0  0  0  0  0  0  0  0  0  0  0
   59.5930   34.3750   45.1630 C   0  0  0  0  0  0  0  0  0  0  0  0
   59.5260   35.0600   46.5350 C   0  0  0  0  0  0  0  0  0  0  0  0
   59.2320   34.0700   47.6360 C   0  0  0  0  0  0  0  0  0  0  0  0
   58.1190   33.2920   47.5540 N   0  0  0  0  0  0  0  0  0  0  0  0
   57.7890   32.4460   48.5320 N   0  0  0  0  0  0  0  0  0  0  0  0
   58.5560   32.3420   49.6480 C   0  0  0  0  0  0  0  0  0  0  0  0
   58.2290   31.5460   50.5660 O   0  0  0  0  0  0  0  0  0  0  0  0
   59.6760   33.0980   49.7670 N   0  0  0  0  0  0  0  0  0  0  0  0
   60.0350   33.9600   48.7840 C   0  0  0  0  0  0  0  0  0  0  0  0
   61.0820   34.6480   48.9130 O   0  0  0  0  0  0  0  0  0  0  0  0
   57.9860   32.8710   43.9100 N   0  0  0  0  0  0  0  0  0  0  0  0
   57.7750   31.5850   44.5080 C   0  0  0  0  0  0  0  0  0  0  0  0
   56.6590   30.8360   44.1240 C   0  0  0  0  0  0  0  0  0  0  0  0
   56.4560   29.5570   44.6440 C   0  0  0  0  0  0  0  0  0  0  0  0
   57.3780   29.0020   45.5370 C   0  0  0  0  0  0  0  0  0  0  0  0
   57.1650   27.7180   46.0310 O   0  0  0  0  0  0  0  0  0  0  0  0
   57.6810   26.3470   45.1590 S   0  0  0  0  0  0  0  0  0  0  0  0
   58.9480   25.8200   45.7680 O   0  0  0  0  0  0  0  0  0  0  0  0
   57.9640   26.7340   43.7350 O   0  0  0  0  0  0  0  0  0  0  0  0
   56.4330   25.1010   45.2010 C   0  0  0  0  0  0  0  0  0  0  0  0
   56.7410   23.7980   44.7810 C   0  0  0  0  0  0  0  0  0  0  0  0
   55.7620   22.8010   44.8000 C   0  0  0  0  0  0  0  0  0  0  0  0
   54.4720   23.0950   45.2430 C   0  0  0  0  0  0  0  0  0  0  0  0
   54.1540   24.3910   45.6540 C   0  0  0  0  0  0  0  0  0  0  0  0
   55.1240   25.3980   45.6210 C   0  0  0  0  0  0  0  0  0  0  0  0
   54.7740   26.6880   46.0010 O   0  0  0  0  0  0  0  0  0  0  0  0
   58.5190   29.7280   45.9100 C   0  0  0  0  0  0  0  0  0  0  0  0
   59.4480   29.1280   46.7760 O   0  0  0  0  0  0  0  0  0  0  0  0
   59.6480   29.5130   48.1340 C   0  0  0  0  0  0  0  0  0  0  0  0
   60.8770   30.3670   48.2480 C   0  0  0  0  0  0  0  0  0  0  0  0
   61.3630   31.0620   47.1250 C   0  0  0  0  0  0  0  0  0  0  0  0
   62.4880   31.8830   47.2380 C   0  0  0  0  0  0  0  0  0  0  0  0
   63.1280   32.0250   48.4730 C   0  0  0  0  0  0  0  0  0  0  0  0
   62.6420   31.3510   49.5960 C   0  0  0  0  0  0  0  0  0  0  0  0
   61.5150   30.5320   49.4880 C   0  0  0  0  0  0  0  0  0  0  0  0
   58.7080   31.0260   45.3980 C   0  0  0  0  0  0  0  0  0  0  0  0
   60.1410   33.4265   45.2638 H   0  0  0  0  0  0  0  0  0  0  0  0
   60.1061   35.0525   44.4646 H   0  0  0  0  0  0  0  0  0  0  0  0
   60.4919   35.5450   46.7395 H   0  0  0  0  0  0  0  0  0  0  0  0
   58.7124   35.7999   46.5110 H   0  0  0  0  0  0  0  0  0  0  0  0
   55.9373   31.2568   43.4084 H   0  0  0  0  0  0  0  0  0  0  0  0
   55.5656   28.9821   44.3497 H   0  0  0  0  0  0  0  0  0  0  0  0
   57.7578   23.5603   44.4352 H   0  0  0  0  0  0  0  0  0  0  0  0
   56.0088   21.7827   44.4651 H   0  0  0  0  0  0  0  0  0  0  0  0
   53.7058   22.3061   45.2685 H   0  0  0  0  0  0  0  0  0  0  0  0
   53.1371   24.6207   46.0049 H   0  0  0  0  0  0  0  0  0  0  0  0
   58.7745   30.0827   48.4839 H   0  0  0  0  0  0  0  0  0  0  0  0
   59.7756   28.6111   48.7507 H   0  0  0  0  0  0  0  0  0  0  0  0
   60.8554   30.9586   46.1546 H   0  0  0  0  0  0  0  0  0  0  0  0
   62.8700   32.4174   46.3557 H   0  0  0  0  0  0  0  0  0  0  0  0
   64.0158   32.6686   48.5605 H   0  0  0  0  0  0  0  0  0  0  0  0
   63.1471   31.4652   50.5665 H   0  0  0  0  0  0  0  0  0  0  0  0
   61.1262   30.0147   50.3775 H   0  0  0  0  0  0  0  0  0  0  0  0
   59.5929   31.6070   45.6970 H   0  0  0  0  0  0  0  0  0  0  0  0
  1  2  2  0
  2  3  1  0
  3  4  1  0
  4  5  1  0
  5  6  2  0
  6  7  1  0
  7  8  1  0
  8  9  2  0
  8 10  1  0
 10 11  1  0
 11 12  2  0
  2 13  1  0
 13 14  1  0
 14 15  2  0
 15 16  1  0
 16 17  2  0
 17 18  1  0
 18 19  1  0
 19 20  2  0
 19 21  2  0
 19 22  1  0
 22 23  2  0
 23 24  1  0
 24 25  2  0
 25 26  1  0
 26 27  2  0
 27 28  1  0
 17 29  1  0
 29 30  1  0
 30 31  1  0
 31 32  1  0
 32 33  2  0
 33 34  1  0
 34 35  2  0
 35 36  1  0
 36 37  2  0
 29 38  2  0
 11  5  1  0
 38 14  1  0
 27 22  1  0
 37 32  1  0
  3 39  1  0
  3 40  1  0
  4 41  1  0
  4 42  1  0
 15 43  1  0
 16 44  1  0
 23 45  1  0
 24 46  1  0
 25 47  1  0
 26 48  1  0
 31 49  1  0
 31 50  1  0
 33 51  1  0
 34 52  1  0
 35 53  1  0
 36 54  1  0
 37 55  1  0
 38 56  1  0
M  CHG  4   7  -1  10  -1  13  -1  28  -1
M  END
>  <UniqueID>  (39) 
37

>  <SMILES>  (39) 
O=C(CCc1n[n-]c(=O)[n-]c1=O)[N-]c1ccc(OS(=O)(=O)c2ccccc2[O-])c(OCc2ccccc2)c1

>  <Energy>  (39) 
63.843703597678186

>  <Genealogy>  (39) 
O=C(CCc1n[n-]c(=O)[n-]c1=O)[N-]c1ccc(OS(=O)(=O)c2ccccc2[O-])c(OCc2ccccc2)c1 (protonated)
O=C(CCc1n[n-]c(=O)[n-]c1=O)[N-]c1ccc(OS(=O)(=O)c2ccccc2[O-])c(OCc2ccccc2)c1 (3D coordinates assigned)
O=C(CCc1n[n-]c(=O)[n-]c1=O)[N-]c1ccc(OS(=O)(=O)c2ccccc2[O-])c(OCc2ccccc2)c1 (optimized conformer: 63.843703597678186 kcal/mol)

>  <smiles>  (39) 
O=C(CCc1n[nH]c(=O)[nH]c1=O)Nc1ccc(OS(=O)(=O)c2ccccc2O)c(OCc2ccccc2)c1

>  <score_type>  (39) 
oracle

>  <origin>  (39) 
adg

>  <m_score__min__energy>  (39) 
-19.190000000000001

>  <m_primary>  (39) 
energy

$$$$
39:0
     RDKit          3D

 37 38  0  0  0  0  0  0  0  0999 V2000
   55.2420   29.2640   44.8500 N   0  0  0  0  0  0  0  0  0  0  0  0
   56.4420   30.0500   43.8870 S   0  0  0  0  0  0  0  0  0  0  0  0
   57.6630   29.1750   43.8150 O   0  0  0  0  0  0  0  0  0  0  0  0
   55.8970   30.2640   42.5030 O   0  0  0  0  0  0  0  0  0  0  0  0
   56.8500   31.6250   44.6330 C   0  0  0  0  0  0  0  0  0  0  0  0
   58.3340   32.0010   44.4910 C   0  0  0  0  0  0  0  0  0  0  0  0
   59.2050   31.5250   45.6610 C   0  0  0  0  0  0  0  0  0  0  0  0
   58.3750   30.9360   46.7050 N   0  0  0  0  0  0  0  0  0  0  0  0
   58.4370   29.5850   47.1850 C   0  0  0  0  0  0  0  0  0  0  0  0
   58.4960   29.3990   48.4290 O   0  0  0  0  0  0  0  0  0  0  0  0
   58.4330   28.4060   46.2940 C   0  0  0  0  0  0  0  0  0  0  0  0
   59.4480   28.1170   45.6050 O   0  0  0  0  0  0  0  0  0  0  0  0
   57.2500   27.5910   46.2330 N   0  0  0  0  0  0  0  0  0  0  0  0
   57.1890   26.2890   46.2240 C   0  0  0  0  0  0  0  0  0  0  0  0
   58.3140   25.5320   46.3340 N   0  0  0  0  0  0  0  0  0  0  0  0
   58.2870   24.1750   46.3270 C   0  0  0  0  0  0  0  0  0  0  0  0
   57.0640   23.4860   46.2050 C   0  0  0  0  0  0  0  0  0  0  0  0
   56.9810   22.0670   46.1920 C   0  0  0  0  0  0  0  0  0  0  0  0
   58.0980   21.2330   46.3010 O   0  0  0  0  0  0  0  0  0  0  0  0
   55.7320   21.4520   46.0670 C   0  0  0  0  0  0  0  0  0  0  0  0
   54.5690   22.2100   45.9540 C   0  0  0  0  0  0  0  0  0  0  0  0
   54.6350   23.6020   45.9640 C   0  0  0  0  0  0  0  0  0  0  0  0
   55.8750   24.2540   46.0880 C   0  0  0  0  0  0  0  0  0  0  0  0
   55.9460   25.6590   46.0990 C   0  0  0  0  0  0  0  0  0  0  0  0
   54.7900   26.4310   45.9860 O   0  0  0  0  0  0  0  0  0  0  0  0
   55.5500   28.2720   44.9710 H   0  0  0  0  0  0  0  0  0  0  0  0
   56.2445   32.4066   44.1509 H   0  0  0  0  0  0  0  0  0  0  0  0
   56.6379   31.5397   45.7090 H   0  0  0  0  0  0  0  0  0  0  0  0
   58.7196   31.5498   43.5649 H   0  0  0  0  0  0  0  0  0  0  0  0
   58.3875   33.0996   44.4762 H   0  0  0  0  0  0  0  0  0  0  0  0
   59.9197   30.7718   45.2979 H   0  0  0  0  0  0  0  0  0  0  0  0
   59.7449   32.3877   46.0783 H   0  0  0  0  0  0  0  0  0  0  0  0
   59.2261   23.6094   46.4172 H   0  0  0  0  0  0  0  0  0  0  0  0
   58.4510   20.6460   45.5600 H   0  0  0  0  0  0  0  0  0  0  0  0
   55.6667   20.3540   46.0577 H   0  0  0  0  0  0  0  0  0  0  0  0
   53.5950   21.7082   45.8565 H   0  0  0  0  0  0  0  0  0  0  0  0
   53.7122   24.1940   45.8744 H   0  0  0  0  0  0  0  0  0  0  0  0
  1  2  1  0
  2  3  2  0
  2  4  2  0
  2  5  1  0
  5  6  1  0
  6  7  1  0
  7  8  1  0
  8  9  1  0
  9 10  2  0
  9 11  1  0
 11 12  2  0
 11 13  1  0
 13 14  2  3
 14 15  1  0
 15 16  1  0
 16 17  2  0
 17 18  1  0
 18 19  1  0
 18 20  2  0
 20 21  1  0
 21 22  2  0
 22 23  1  0
 23 24  2  0
 24 25  1  0
 24 14  1  0
 23 17  1  0
  1 26  1  0
  5 27  1  0
  5 28  1  0
  6 29  1  0
  6 30  1  0
  7 31  1  0
  7 32  1  0
 16 33  1  0
 19 34  1  0
 20 35  1  0
 21 36  1  0
 22 37  1  0
M  CHG  4   1  -1   8  -1  15  -1  25  -1
M  END
>  <UniqueID>  (40) 
38

>  <SMILES>  (40) 
[NH-]S(=O)(=O)CCC[N-]C(=O)C(=O)N=c1[n-]cc2c(O)cccc2c1[O-]

>  <Energy>  (40) 
40.51428500187275

>  <Genealogy>  (40) 
[NH-]S(=O)(=O)CCC[N-]C(=O)C(=O)N=c1[n-]cc2c(O)cccc2c1[O-] (protonated)
[NH-]S(=O)(=O)CCC[N-]C(=O)C(=O)N=c1[n-]cc2c(O)cccc2c1[O-] (3D coordinates assigned)
[NH-]S(=O)(=O)CCC[N-]C(=O)C(=O)N=c1[n-]cc2c(O)cccc2c1[O-] (optimized conformer: 40.51428500187275 kcal/mol)

>  <smiles>  (40) 
NS(=O)(=O)CCCNC(=O)C(=O)N=c1[nH]cc2c(O)cccc2c1O

>  <score_type>  (40) 
oracle

>  <origin>  (40) 
adg

>  <m_score__min__energy>  (40) 
-14.85

>  <m_primary>  (40) 
energy

$$$$
40:0
     RDKit          3D

 43 46  0  0  0  0  0  0  0  0999 V2000
   56.6030   34.8950   44.8670 N   0  0  0  0  0  0  0  0  0  0  0  0
   57.1570   33.9150   45.1510 C   0  0  0  0  0  0  0  0  0  0  0  0
   57.8670   32.7110   45.5040 C   0  0  0  0  0  0  0  0  0  0  0  0
   59.0890   32.5810   46.1660 C   0  0  0  0  0  0  0  0  0  0  0  0
   59.8640   33.7110   46.6640 C   0  0  0  0  0  0  0  0  0  0  0  0
   61.1430   33.4660   47.3240 C   0  0  0  0  0  0  0  0  0  0  0  0
   61.1780   33.6350   48.7180 C   0  0  0  0  0  0  0  0  0  0  0  0
   62.3140   33.4540   49.4630 C   0  0  0  0  0  0  0  0  0  0  0  0
   63.4910   33.0870   48.8450 C   0  0  0  0  0  0  0  0  0  0  0  0
   64.9390   32.8580   49.8190 Cl  0  0  0  0  0  0  0  0  0  0  0  0
   63.5040   32.9110   47.4830 C   0  0  0  0  0  0  0  0  0  0  0  0
   62.3250   33.1040   46.7460 C   0  0  0  0  0  0  0  0  0  0  0  0
   59.3340   31.2110   46.2090 C   0  0  0  0  0  0  0  0  0  0  0  0
   60.4810   30.5050   46.7730 C   0  0  0  0  0  0  0  0  0  0  0  0
   60.3080   29.9020   48.1070 C   0  0  0  0  0  0  0  0  0  0  0  0
   60.0470   30.7200   49.2150 C   0  0  0  0  0  0  0  0  0  0  0  0
   59.9250   30.2220   50.4900 C   0  0  0  0  0  0  0  0  0  0  0  0
   60.0540   28.8760   50.7570 C   0  0  0  0  0  0  0  0  0  0  0  0
   60.3100   28.0490   49.6820 C   0  0  0  0  0  0  0  0  0  0  0  0
   60.4320   28.5630   48.3930 C   0  0  0  0  0  0  0  0  0  0  0  0
   60.6870   27.6380   47.3970 O   0  0  0  0  0  0  0  0  0  0  0  0
   58.2970   30.5650   45.5950 N   0  0  0  0  0  0  0  0  0  0  0  0
   58.0200   29.2700   45.3370 C   0  0  0  0  0  0  0  0  0  0  0  0
   58.7730   28.3270   45.6770 O   0  0  0  0  0  0  0  0  0  0  0  0
   56.8890   28.8920   44.6770 N   0  0  0  0  0  0  0  0  0  0  0  0
   55.9940   29.7960   44.2510 C   0  0  0  0  0  0  0  0  0  0  0  0
   56.2600   31.0830   44.4990 N   0  0  0  0  0  0  0  0  0  0  0  0
   57.3940   31.4610   45.1610 C   0  0  0  0  0  0  0  0  0  0  0  0
   60.0675   34.3647   45.8030 H   0  0  0  0  0  0  0  0  0  0  0  0
   59.2337   34.1261   47.4643 H   0  0  0  0  0  0  0  0  0  0  0  0
   60.2517   33.9258   49.2351 H   0  0  0  0  0  0  0  0  0  0  0  0
   62.2870   33.6013   50.5528 H   0  0  0  0  0  0  0  0  0  0  0  0
   64.4338   32.6202   46.9721 H   0  0  0  0  0  0  0  0  0  0  0  0
   62.3552   32.9572   45.6563 H   0  0  0  0  0  0  0  0  0  0  0  0
   60.7483   29.6970   46.0761 H   0  0  0  0  0  0  0  0  0  0  0  0
   61.2528   31.2771   46.9073 H   0  0  0  0  0  0  0  0  0  0  0  0
   59.9355   31.8030   49.0578 H   0  0  0  0  0  0  0  0  0  0  0  0
   59.7191   30.9154   51.3187 H   0  0  0  0  0  0  0  0  0  0  0  0
   59.9575   28.4796   51.7785 H   0  0  0  0  0  0  0  0  0  0  0  0
   60.4194   26.9668   49.8457 H   0  0  0  0  0  0  0  0  0  0  0  0
   60.1440   27.5710   46.5320 H   0  0  0  0  0  0  0  0  0  0  0  0
   56.6760   27.8910   44.4790 H   0  0  0  0  0  0  0  0  0  0  0  0
   55.0799   29.4915   43.7201 H   0  0  0  0  0  0  0  0  0  0  0  0
  1  2  3  0
  2  3  1  0
  3  4  1  0
  4  5  1  0
  5  6  1  0
  6  7  2  0
  7  8  1  0
  8  9  2  0
  9 10  1  0
  9 11  1  0
 11 12  2  0
  4 13  2  0
 13 14  1  0
 14 15  1  0
 15 16  2  0
 16 17  1  0
 17 18  2  0
 18 19  1  0
 19 20  2  0
 20 21  1  0
 13 22  1  0
 22 23  1  0
 23 24  2  0
 23 25  1  0
 25 26  1  0
 26 27  2  0
 27 28  1  0
 28  3  2  0
 12  6  1  0
 20 15  1  0
 28 22  1  0
  5 29  1  0
  5 30  1  0
  7 31  1  0
  8 32  1  0
 11 33  1  0
 12 34  1  0
 14 35  1  0
 14 36  1  0
 16 37  1  0
 17 38  1  0
 18 39  1  0
 19 40  1  0
 21 41  1  0
 25 42  1  0
 26 43  1  0
M  END
>  <smiles>  (41) 
N#Cc1c(Cc2ccc(Cl)cc2)c(Cc2ccccc2O)n2c(=O)[nH]cnc12

>  <score_type>  (41) 
oracle

>  <origin>  (41) 
adg

>  <m_score__min__energy>  (41) 
-9.0600000000000005

>  <m_primary>  (41) 
energy

$$$$
41:0
     RDKit          3D

 53 56  0  0  0  0  0  0  0  0999 V2000
   56.3170   29.4150   42.3650 C   0  0  0  0  0  0  0  0  0  0  0  0
   57.2760   30.1380   43.1910 N   0  0  0  0  0  0  0  0  0  0  0  0
   56.8610   30.9250   44.3180 C   0  0  0  0  0  0  0  0  0  0  0  0
   55.6590   30.8890   44.6950 O   0  0  0  0  0  0  0  0  0  0  0  0
   57.8340   31.7510   45.0680 C   0  0  0  0  0  0  0  0  0  0  0  0
   57.6570   33.1400   45.1610 C   0  0  0  0  0  0  0  0  0  0  0  0
   58.5360   33.9140   45.9200 C   0  0  0  0  0  0  0  0  0  0  0  0
   59.6110   33.3170   46.6000 C   0  0  0  0  0  0  0  0  0  0  0  0
   60.4820   34.0820   47.3890 O   0  0  0  0  0  0  0  0  0  0  0  0
   60.6590   33.9440   48.7720 C   0  0  0  0  0  0  0  0  0  0  0  0
   61.9520   33.9290   49.3610 C   0  0  0  0  0  0  0  0  0  0  0  0
   62.0990   33.7970   50.7560 C   0  0  0  0  0  0  0  0  0  0  0  0
   60.9450   33.6970   51.5270 C   0  0  0  0  0  0  0  0  0  0  0  0
   60.7800   33.5650   52.8910 C   0  0  0  0  0  0  0  0  0  0  0  0
   59.4030   33.5290   53.0900 C   0  0  0  0  0  0  0  0  0  0  0  0
   58.7450   33.6350   51.9120 N   0  0  0  0  0  0  0  0  0  0  0  0
   59.6970   33.7360   50.9660 C   0  0  0  0  0  0  0  0  0  0  0  0
   59.5150   33.8650   49.5910 C   0  0  0  0  0  0  0  0  0  0  0  0
   59.8310   31.9330   46.4590 C   0  0  0  0  0  0  0  0  0  0  0  0
   61.1350   31.1070   47.3220 S   0  0  0  0  0  0  0  0  0  0  0  0
   61.4420   29.8090   46.6300 O   0  0  0  0  0  0  0  0  0  0  0  0
   62.3860   31.9450   47.3420 O   0  0  0  0  0  0  0  0  0  0  0  0
   60.5790   30.7860   48.9990 C   0  0  2  0  0  0  0  0  0  0  0  0
   61.6820   30.0770   49.8160 C   0  0  0  0  0  0  0  0  0  0  0  0
   61.4680   30.1150   51.3480 C   0  0  0  0  0  0  0  0  0  0  0  0
   60.1860   29.3890   51.8100 C   0  0  0  0  0  0  0  0  0  0  0  0
   58.8550   30.1510   51.5670 C   0  0  0  0  0  0  0  0  0  0  0  0
   58.4110   30.1540   50.1720 N   0  0  0  0  0  0  0  0  0  0  0  0
   59.2910   30.0020   49.0490 C   0  0  0  0  0  0  0  0  0  0  0  0
   59.0190   29.1400   48.1680 O   0  0  0  0  0  0  0  0  0  0  0  0
   58.9340   31.1590   45.7090 C   0  0  0  0  0  0  0  0  0  0  0  0
   55.6065   28.8793   43.0117 H   0  0  0  0  0  0  0  0  0  0  0  0
   55.7697   30.1272   41.7300 H   0  0  0  0  0  0  0  0  0  0  0  0
   56.8511   28.6929   41.7300 H   0  0  0  0  0  0  0  0  0  0  0  0
   58.2940   30.0410   42.9670 H   0  0  0  0  0  0  0  0  0  0  0  0
   56.8208   33.6214   44.6327 H   0  0  0  0  0  0  0  0  0  0  0  0
   58.3858   35.0017   45.9865 H   0  0  0  0  0  0  0  0  0  0  0  0
   62.8439   34.0210   48.7238 H   0  0  0  0  0  0  0  0  0  0  0  0
   63.0955   33.7737   51.2213 H   0  0  0  0  0  0  0  0  0  0  0  0
   61.5676   33.5018   53.6563 H   0  0  0  0  0  0  0  0  0  0  0  0
   58.9158   33.4281   54.0711 H   0  0  0  0  0  0  0  0  0  0  0  0
   57.7100   33.6370   51.7720 H   0  0  0  0  0  0  0  0  0  0  0  0
   58.5053   33.9042   49.1562 H   0  0  0  0  0  0  0  0  0  0  0  0
   60.3710   31.7654   49.4545 H   0  0  0  0  0  0  0  0  0  0  0  0
   61.7207   29.0240   49.5002 H   0  0  0  0  0  0  0  0  0  0  0  0
   62.6178   30.6197   49.6165 H   0  0  0  0  0  0  0  0  0  0  0  0
   62.3323   29.6369   51.8321 H   0  0  0  0  0  0  0  0  0  0  0  0
   61.3614   31.1720   51.6332 H   0  0  0  0  0  0  0  0  0  0  0  0
   60.1290   28.4301   51.2740 H   0  0  0  0  0  0  0  0  0  0  0  0
   60.2771   29.2858   52.9014 H   0  0  0  0  0  0  0  0  0  0  0  0
   58.0710   29.6791   52.1775 H   0  0  0  0  0  0  0  0  0  0  0  0
   59.0366   31.2002   51.8430 H   0  0  0  0  0  0  0  0  0  0  0  0
   59.0942   30.0742   45.6217 H   0  0  0  0  0  0  0  0  0  0  0  0
  1  2  1  0
  2  3  1  0
  3  4  2  0
  3  5  1  0
  5  6  2  0
  6  7  1  0
  7  8  2  0
  8  9  1  0
  9 10  1  0
 10 11  2  0
 11 12  1  0
 12 13  2  0
 13 14  1  0
 14 15  2  0
 15 16  1  0
 16 17  1  0
 17 18  2  0
  8 19  1  0
 19 20  1  0
 20 21  2  0
 20 22  2  0
 20 23  1  0
 23 24  1  0
 24 25  1  0
 25 26  1  0
 26 27  1  0
 27 28  1  0
 28 29  1  0
 29 30  2  0
 19 31  2  0
 31  5  1  0
 18 10  1  0
 29 23  1  0
 17 13  1  0
  1 32  1  0
  1 33  1  0
  1 34  1  0
  2 35  1  0
  6 36  1  0
  7 37  1  0
 11 38  1  0
 12 39  1  0
 14 40  1  0
 15 41  1  0
 16 42  1  0
 18 43  1  0
 23 44  1  1
 24 45  1  0
 24 46  1  0
 25 47  1  0
 25 48  1  0
 26 49  1  0
 26 50  1  0
 27 51  1  0
 27 52  1  0
 31 53  1  0
M  CHG  1  28  -1
M  END
>  <UniqueID>  (42) 
39

>  <SMILES>  (42) 
CNC(=O)c1ccc(Oc2ccc3cc[nH]c3c2)c(S(=O)(=O)[C@@H]2CCCC[N-]C2=O)c1

>  <Energy>  (42) 
97.3890891299148

>  <Genealogy>  (42) 
CNC(=O)c1ccc(Oc2ccc3cc[nH]c3c2)c(S(=O)(=O)C2CCCC[N-]C2=O)c1 (protonated)
CNC(=O)c1ccc(Oc2ccc3cc[nH]c3c2)c(S(=O)(=O)[C@@H]2CCCC[N-]C2=O)c1 (chirality)
CNC(=O)c1ccc(Oc2ccc3cc[nH]c3c2)c(S(=O)(=O)[C@@H]2CCCC[N-]C2=O)c1 (3D coordinates assigned)
CNC(=O)c1ccc(Oc2ccc3cc[nH]c3c2)c(S(=O)(=O)[C@@H]2CCCC[N-]C2=O)c1 (nonaromatic ring conformer: 97.3890891299148 kcal/mol)

>  <smiles>  (42) 
CNC(=O)c1ccc(Oc2ccc3cc[nH]c3c2)c(S(=O)(=O)C2CCCCNC2=O)c1

>  <score_type>  (42) 
oracle

>  <origin>  (42) 
adg

>  <m_score__min__energy>  (42) 
-8.8300000000000001

>  <m_primary>  (42) 
energy

$$$$
42:0
     RDKit          3D

 36 39  0  0  0  0  0  0  0  0999 V2000
   59.6260   35.3580   45.3690 O   0  0  0  0  0  0  0  0  0  0  0  0
   59.5660   34.4480   46.2390 C   0  0  0  0  0  0  0  0  0  0  0  0
   58.3460   33.7200   46.4360 N   0  0  0  0  0  0  0  0  0  0  0  0
   57.9870   32.4700   45.8280 C   0  0  0  0  0  0  0  0  0  0  0  0
   57.4370   32.4010   44.5180 C   0  0  0  0  0  0  0  0  0  0  0  0
   57.0740   31.1610   43.9600 C   0  0  0  0  0  0  0  0  0  0  0  0
   57.2590   30.0230   44.7360 C   0  0  0  0  0  0  0  0  0  0  0  0
   56.9790   28.7520   44.4120 N   0  0  0  0  0  0  0  0  0  0  0  0
   57.3410   28.0670   45.5310 C   0  0  0  0  0  0  0  0  0  0  0  0
   57.2100   26.5910   45.6450 C   0  0  0  0  0  0  0  0  0  0  0  0
   58.3560   25.7830   45.5170 C   0  0  0  0  0  0  0  0  0  0  0  0
   58.2640   24.3920   45.6200 C   0  0  0  0  0  0  0  0  0  0  0  0
   57.0270   23.7880   45.8520 C   0  0  0  0  0  0  0  0  0  0  0  0
   55.8810   24.5740   45.9800 C   0  0  0  0  0  0  0  0  0  0  0  0
   55.9620   25.9680   45.8790 C   0  0  0  0  0  0  0  0  0  0  0  0
   54.7960   26.7140   46.0130 O   0  0  0  0  0  0  0  0  0  0  0  0
   57.8280   28.8550   46.5270 N   0  0  0  0  0  0  0  0  0  0  0  0
   57.7640   30.0840   45.9950 C   0  0  0  0  0  0  0  0  0  0  0  0
   58.1350   31.2890   46.5840 C   0  0  0  0  0  0  0  0  0  0  0  0
   60.7740   34.0940   47.0190 C   0  0  0  0  0  0  0  0  0  0  0  0
   60.7250   33.9940   48.4210 C   0  0  0  0  0  0  0  0  0  0  0  0
   61.8730   33.6610   49.1420 C   0  0  0  0  0  0  0  0  0  0  0  0
   63.0690   33.4310   48.4580 C   0  0  0  0  0  0  0  0  0  0  0  0
   64.1130   33.1300   49.0930 O   0  0  0  0  0  0  0  0  0  0  0  0
   63.1060   33.5320   47.1040 N   0  0  0  0  0  0  0  0  0  0  0  0
   62.0020   33.8540   46.3780 C   0  0  0  0  0  0  0  0  0  0  0  0
   57.2943   33.3239   43.9367 H   0  0  0  0  0  0  0  0  0  0  0  0
   56.6579   31.0948   42.9439 H   0  0  0  0  0  0  0  0  0  0  0  0
   59.3343   26.2515   45.3340 H   0  0  0  0  0  0  0  0  0  0  0  0
   59.1673   23.7726   45.5181 H   0  0  0  0  0  0  0  0  0  0  0  0
   56.9557   22.6934   45.9339 H   0  0  0  0  0  0  0  0  0  0  0  0
   54.9075   24.0951   46.1615 H   0  0  0  0  0  0  0  0  0  0  0  0
   58.5321   31.3193   47.6094 H   0  0  0  0  0  0  0  0  0  0  0  0
   59.7790   34.1788   48.9511 H   0  0  0  0  0  0  0  0  0  0  0  0
   61.8361   33.5805   50.2384 H   0  0  0  0  0  0  0  0  0  0  0  0
   62.0703   33.9271   45.2826 H   0  0  0  0  0  0  0  0  0  0  0  0
  1  2  2  0
  2  3  1  0
  3  4  1  0
  4  5  2  0
  5  6  1  0
  6  7  2  0
  7  8  1  0
  8  9  1  0
  9 10  1  0
 10 11  2  0
 11 12  1  0
 12 13  2  0
 13 14  1  0
 14 15  2  0
 15 16  1  0
  9 17  2  0
 17 18  1  0
 18 19  2  0
  2 20  1  0
 20 21  1  0
 21 22  2  0
 22 23  1  0
 23 24  2  0
 23 25  1  0
 25 26  1  0
 19  4  1  0
 26 20  2  0
 18  7  1  0
 15 10  1  0
  5 27  1  0
  6 28  1  0
 11 29  1  0
 12 30  1  0
 13 31  1  0
 14 32  1  0
 19 33  1  0
 21 34  1  0
 22 35  1  0
 26 36  1  0
M  CHG  4   3  -1   8  -1  16  -1  25  -1
M  END
>  <UniqueID>  (43) 
40

>  <SMILES>  (43) 
O=C([N-]c1ccc2[n-]c(-c3ccccc3[O-])nc2c1)c1ccc(=O)[n-]c1

>  <Energy>  (43) 
83.61428549589127

>  <Genealogy>  (43) 
O=C([N-]c1ccc2[n-]c(-c3ccccc3[O-])nc2c1)c1ccc(=O)[n-]c1 (protonated)
O=C([N-]c1ccc2[n-]c(-c3ccccc3[O-])nc2c1)c1ccc(=O)[n-]c1 (3D coordinates assigned)
O=C([N-]c1ccc2[n-]c(-c3ccccc3[O-])nc2c1)c1ccc(=O)[n-]c1 (optimized conformer: 83.61428549589127 kcal/mol)

>  <smiles>  (43) 
O=C(Nc1ccc2[nH]c(-c3ccccc3O)nc2c1)c1ccc(=O)[nH]c1

>  <score_type>  (43) 
oracle

>  <origin>  (43) 
adg

>  <m_score__min__energy>  (43) 
-15.109999999999999

>  <m_primary>  (43) 
energy

$$$$
43:0
     RDKit          3D

 44 46  0  0  0  0  0  0  0  0999 V2000
   57.6850   33.0610   44.9190 C   0  0  0  0  0  0  0  0  0  0  0  0
   58.1630   31.6730   45.2490 C   0  0  0  0  0  0  0  0  0  0  0  0
   58.2210   30.7230   44.2140 C   0  0  0  0  0  0  0  0  0  0  0  0
   58.6510   29.4200   44.4640 C   0  0  0  0  0  0  0  0  0  0  0  0
   59.0160   29.0310   45.7520 C   0  0  0  0  0  0  0  0  0  0  0  0
   59.4620   27.6830   45.9620 N   0  0  0  0  0  0  0  0  0  0  0  0
   58.9950   26.7780   46.9700 C   0  0  0  0  0  0  0  0  0  0  0  0
   59.6010   26.6620   48.0680 O   0  0  0  0  0  0  0  0  0  0  0  0
   57.7160   26.0360   46.7510 C   0  0  0  0  0  0  0  0  0  0  0  0
   57.6300   25.3760   45.0500 S   0  0  0  0  0  0  0  0  0  0  0  0
   55.9860   24.6810   45.2310 C   0  0  0  0  0  0  0  0  0  0  0  0
   55.5670   23.0840   44.8960 S   0  0  0  0  0  0  0  0  0  0  0  0
   53.9580   23.3420   45.3130 C   0  0  0  0  0  0  0  0  0  0  0  0
   53.0670   22.4540   45.2740 O   0  0  0  0  0  0  0  0  0  0  0  0
   53.7140   24.6140   45.6950 N   0  0  0  0  0  0  0  0  0  0  0  0
   54.8470   25.3610   45.6470 C   0  0  0  0  0  0  0  0  0  0  0  0
   54.8530   26.7060   45.9940 O   0  0  0  0  0  0  0  0  0  0  0  0
   58.9890   29.9760   46.7890 C   0  0  0  0  0  0  0  0  0  0  0  0
   58.5610   31.2930   46.5580 C   0  0  0  0  0  0  0  0  0  0  0  0
   58.5580   32.3820   47.9630 S   0  0  0  0  0  0  0  0  0  0  0  0
   58.1850   31.6830   49.2390 O   0  0  0  0  0  0  0  0  0  0  0  0
   57.5360   33.4530   47.7020 O   0  0  0  0  0  0  0  0  0  0  0  0
   60.1370   33.1230   48.1270 N   0  0  0  0  0  0  0  0  0  0  0  0
   60.0420   34.5820   48.3170 C   0  0  0  0  0  0  0  0  0  0  0  0
   59.7020   35.3270   47.0030 C   0  0  0  0  0  0  0  0  0  0  0  0
   59.9160   34.5500   45.8380 O   0  0  0  0  0  0  0  0  0  0  0  0
   61.1360   33.8520   45.9380 C   0  0  0  0  0  0  0  0  0  0  0  0
   61.0400   32.7560   47.0140 C   0  0  0  0  0  0  0  0  0  0  0  0
   57.4945   33.6143   45.8504 H   0  0  0  0  0  0  0  0  0  0  0  0
   58.4547   33.5842   44.3327 H   0  0  0  0  0  0  0  0  0  0  0  0
   56.7563   32.9993   44.3327 H   0  0  0  0  0  0  0  0  0  0  0  0
   57.9237   31.0109   43.1948 H   0  0  0  0  0  0  0  0  0  0  0  0
   58.7025   28.6942   43.6391 H   0  0  0  0  0  0  0  0  0  0  0  0
   57.6569   25.2012   47.4649 H   0  0  0  0  0  0  0  0  0  0  0  0
   56.8761   26.7301   46.9021 H   0  0  0  0  0  0  0  0  0  0  0  0
   59.3083   29.6801   47.7992 H   0  0  0  0  0  0  0  0  0  0  0  0
   59.2545   34.7916   49.0559 H   0  0  0  0  0  0  0  0  0  0  0  0
   61.0233   34.9401   48.6615 H   0  0  0  0  0  0  0  0  0  0  0  0
   58.6427   35.6216   47.0346 H   0  0  0  0  0  0  0  0  0  0  0  0
   60.3761   36.1940   46.9404 H   0  0  0  0  0  0  0  0  0  0  0  0
   61.3689   33.3884   44.9681 H   0  0  0  0  0  0  0  0  0  0  0  0
   61.9300   34.5595   46.2190 H   0  0  0  0  0  0  0  0  0  0  0  0
   60.6635   31.8350   46.5450 H   0  0  0  0  0  0  0  0  0  0  0  0
   62.0463   32.6170   47.4359 H   0  0  0  0  0  0  0  0  0  0  0  0
  1  2  1  0
  2  3  2  0
  3  4  1  0
  4  5  2  0
  5  6  1  0
  6  7  1  0
  7  8  2  0
  7  9  1  0
  9 10  1  0
 10 11  1  0
 11 12  1  0
 12 13  1  0
 13 14  2  0
 13 15  1  0
 15 16  1  0
 16 17  1  0
  5 18  1  0
 18 19  2  0
 19 20  1  0
 20 21  2  0
 20 22  2  0
 20 23  1  0
 23 24  1  0
 24 25  1  0
 25 26  1  0
 26 27  1  0
 27 28  1  0
 19  2  1  0
 28 23  1  0
 16 11  2  0
  1 29  1  0
  1 30  1  0
  1 31  1  0
  3 32  1  0
  4 33  1  0
  9 34  1  0
  9 35  1  0
 18 36  1  0
 24 37  1  0
 24 38  1  0
 25 39  1  0
 25 40  1  0
 27 41  1  0
 27 42  1  0
 28 43  1  0
 28 44  1  0
M  CHG  3   6  -1  15  -1  17  -1
M  END
>  <UniqueID>  (44) 
41

>  <SMILES>  (44) 
Cc1ccc([N-]C(=O)CSc2sc(=O)[n-]c2[O-])cc1S(=O)(=O)N1CCOCC1

>  <Energy>  (44) 
88.31257780804359

>  <Genealogy>  (44) 
Cc1ccc([N-]C(=O)CSc2sc(=O)[n-]c2[O-])cc1S(=O)(=O)N1CCOCC1 (protonated)
Cc1ccc([N-]C(=O)CSc2sc(=O)[n-]c2[O-])cc1S(=O)(=O)N1CCOCC1 (3D coordinates assigned)
Cc1ccc([N-]C(=O)CSc2sc(=O)[n-]c2[O-])cc1S(=O)(=O)N1CCOCC1 (nonaromatic ring conformer: 88.31257780804359 kcal/mol)

>  <smiles>  (44) 
Cc1ccc(NC(=O)CSc2sc(=O)[nH]c2O)cc1S(=O)(=O)N1CCOCC1

>  <score_type>  (44) 
oracle

>  <origin>  (44) 
adg

>  <m_score__min__energy>  (44) 
-17.02

>  <m_primary>  (44) 
energy

$$$$
44:0
     RDKit          3D

 37 38  0  0  0  0  0  0  0  0999 V2000
   54.9430   26.3370   46.0000 N   0  0  0  0  0  0  0  0  0  0  0  0
   56.4760   25.5420   45.9950 S   0  0  0  0  0  0  0  0  0  0  0  0
   56.6510   24.8040   44.6980 O   0  0  0  0  0  0  0  0  0  0  0  0
   56.5330   24.5520   47.1250 O   0  0  0  0  0  0  0  0  0  0  0  0
   57.7590   26.7330   46.1840 C   0  0  0  0  0  0  0  0  0  0  0  0
   58.3380   27.3310   45.0580 C   0  0  0  0  0  0  0  0  0  0  0  0
   59.3450   28.2890   45.2110 C   0  0  0  0  0  0  0  0  0  0  0  0
   59.7850   28.6570   46.4920 C   0  0  0  0  0  0  0  0  0  0  0  0
   60.7910   29.7640   46.6490 C   0  0  0  0  0  0  0  0  0  0  0  0
   60.2930   30.7300   47.6190 N   0  0  0  0  0  0  0  0  0  0  0  0
   60.9140   32.0010   47.8300 C   0  0  0  0  0  0  0  0  0  0  0  0
   61.3490   32.3190   48.9690 O   0  0  0  0  0  0  0  0  0  0  0  0
   60.9240   33.0030   46.7220 C   0  0  0  0  0  0  0  0  0  0  0  0
   59.5360   33.1080   46.1490 C   0  0  0  0  0  0  0  0  0  0  0  0
   58.8710   34.3440   46.1380 C   0  0  0  0  0  0  0  0  0  0  0  0
   57.6170   34.4610   45.5360 C   0  0  0  0  0  0  0  0  0  0  0  0
   57.0170   33.3510   44.9360 C   0  0  0  0  0  0  0  0  0  0  0  0
   57.6730   32.1070   44.9270 C   0  0  0  0  0  0  0  0  0  0  0  0
   57.0600   30.9600   44.3090 N   0  0  0  0  0  0  0  0  0  0  0  0
   56.4510   30.1160   44.9970 O   0  0  0  0  0  0  0  0  0  0  0  0
   57.1410   30.7710   42.9490 O   0  0  0  0  0  0  0  0  0  0  0  0
   58.9400   31.9980   45.5290 C   0  0  0  0  0  0  0  0  0  0  0  0
   59.1920   28.0660   47.6180 C   0  0  0  0  0  0  0  0  0  0  0  0
   58.1850   27.1080   47.4650 C   0  0  0  0  0  0  0  0  0  0  0  0
   55.1350   27.3640   46.0300 H   0  0  0  0  0  0  0  0  0  0  0  0
   57.9999   27.0465   44.0507 H   0  0  0  0  0  0  0  0  0  0  0  0
   59.7947   28.7567   44.3227 H   0  0  0  0  0  0  0  0  0  0  0  0
   61.7454   29.3464   47.0023 H   0  0  0  0  0  0  0  0  0  0  0  0
   60.9481   30.2607   45.6802 H   0  0  0  0  0  0  0  0  0  0  0  0
   61.2377   33.9824   47.1123 H   0  0  0  0  0  0  0  0  0  0  0  0
   61.6283   32.6863   45.9386 H   0  0  0  0  0  0  0  0  0  0  0  0
   59.3393   35.2229   46.6051 H   0  0  0  0  0  0  0  0  0  0  0  0
   57.0989   35.4314   45.5340 H   0  0  0  0  0  0  0  0  0  0  0  0
   56.0264   33.4506   44.4682 H   0  0  0  0  0  0  0  0  0  0  0  0
   59.4689   31.0336   45.5138 H   0  0  0  0  0  0  0  0  0  0  0  0
   59.5210   28.3578   48.6263 H   0  0  0  0  0  0  0  0  0  0  0  0
   57.7262   26.6477   48.3525 H   0  0  0  0  0  0  0  0  0  0  0  0
  1  2  1  0
  2  3  2  0
  2  4  2  0
  2  5  1  0
  5  6  2  0
  6  7  1  0
  7  8  2  0
  8  9  1  0
  9 10  1  0
 10 11  1  0
 11 12  2  0
 11 13  1  0
 13 14  1  0
 14 15  2  0
 15 16  1  0
 16 17  2  0
 17 18  1  0
 18 19  1  0
 19 20  2  0
 19 21  1  0
 18 22  2  0
  8 23  1  0
 23 24  2  0
 24  5  1  0
 22 14  1  0
  1 25  1  0
  6 26  1  0
  7 27  1  0
  9 28  1  0
  9 29  1  0
 13 30  1  0
 13 31  1  0
 15 32  1  0
 16 33  1  0
 17 34  1  0
 22 35  1  0
 23 36  1  0
 24 37  1  0
M  CHG  4   1  -1  10  -1  19   1  21  -1
M  END
>  <UniqueID>  (45) 
42

>  <SMILES>  (45) 
[NH-]S(=O)(=O)c1ccc(C[N-]C(=O)Cc2cccc([N+](=O)[O-])c2)cc1

>  <Energy>  (45) 
31.322790149297887

>  <Genealogy>  (45) 
[NH-]S(=O)(=O)c1ccc(C[N-]C(=O)Cc2cccc([N+](=O)[O-])c2)cc1 (protonated)
[NH-]S(=O)(=O)c1ccc(C[N-]C(=O)Cc2cccc([N+](=O)[O-])c2)cc1 (3D coordinates assigned)
[NH-]S(=O)(=O)c1ccc(C[N-]C(=O)Cc2cccc([N+](=O)[O-])c2)cc1 (optimized conformer: 31.322790149297887 kcal/mol)

>  <smiles>  (45) 
NS(=O)(=O)c1ccc(CNC(=O)Cc2cccc([N+](=O)[O-])c2)cc1

>  <score_type>  (45) 
oracle

>  <origin>  (45) 
adg

>  <m_score__min__energy>  (45) 
-11.94

>  <m_primary>  (45) 
energy

$$$$
45:0
     RDKit          3D

 72 76  0  0  0  0  0  0  0  0999 V2000
   53.0430   21.1260   46.6500 O   0  0  0  0  0  0  0  0  0  0  0  0
   54.1590   20.5790   46.8680 C   0  0  0  0  0  0  0  0  0  0  0  0
   54.6140   20.3280   48.2730 C   0  0  0  0  0  0  0  0  0  0  0  0
   54.6750   21.6000   49.0340 N   0  0  0  0  0  0  0  0  0  0  0  0
   55.5150   21.5050   50.2470 C   0  0  0  0  0  0  0  0  0  0  0  0
   57.0130   21.5640   49.9010 C   0  0  0  0  0  0  0  0  0  0  0  0
   57.3180   22.7370   49.1720 O   0  0  0  0  0  0  0  0  0  0  0  0
   56.6070   22.7340   47.9470 C   0  0  0  0  0  0  0  0  0  0  0  0
   55.0890   22.7480   48.2010 C   0  0  0  0  0  0  0  0  0  0  0  0
   55.0410   20.2340   45.7880 N   0  0  0  0  0  0  0  0  0  0  0  0
   55.5320   21.0340   44.8870 C   0  0  0  0  0  0  0  0  0  0  0  0
   55.4470   22.4170   45.0850 C   0  0  0  0  0  0  0  0  0  0  0  0
   55.9960   23.2960   44.1340 C   0  0  0  0  0  0  0  0  0  0  0  0
   55.9640   24.6880   44.2990 O   0  0  0  0  0  0  0  0  0  0  0  0
   56.8300   25.3850   45.1480 C   0  0  0  0  0  0  0  0  0  0  0  0
   58.1940   25.0810   45.1460 C   0  0  0  0  0  0  0  0  0  0  0  0
   59.0660   25.7530   46.0080 C   0  0  0  0  0  0  0  0  0  0  0  0
   58.5820   26.7430   46.8780 C   0  0  0  0  0  0  0  0  0  0  0  0
   59.4680   27.4590   47.7560 N   0  0  0  0  0  0  0  0  0  0  0  0
   59.5300   28.8920   47.8180 C   0  0  0  0  0  0  0  0  0  0  0  0
   58.9420   29.5970   46.9540 O   0  0  0  0  0  0  0  0  0  0  0  0
   60.2470   29.5170   48.8880 N   0  0  0  0  0  0  0  0  0  0  0  0
   60.6130   30.9030   48.9220 C   0  0  0  0  0  0  0  0  0  0  0  0
   61.5670   31.4140   48.0240 C   0  0  0  0  0  0  0  0  0  0  0  0
   61.9600   32.7610   48.0810 C   0  0  0  0  0  0  0  0  0  0  0  0
   63.0260   33.2840   47.1510 C   0  0  0  0  0  0  0  0  0  0  0  0
   63.8530   32.2570   46.7340 F   0  0  0  0  0  0  0  0  0  0  0  0
   63.8080   34.2350   47.7850 F   0  0  0  0  0  0  0  0  0  0  0  0
   62.4270   33.8600   46.0470 F   0  0  0  0  0  0  0  0  0  0  0  0
   61.4240   33.5850   49.0840 C   0  0  0  0  0  0  0  0  0  0  0  0
   60.4820   33.0800   49.9830 C   0  0  0  0  0  0  0  0  0  0  0  0
   60.0690   31.7410   49.9110 C   0  0  0  0  0  0  0  0  0  0  0  0
   59.0710   31.2490   50.8260 N   0  0  0  0  0  0  0  0  0  0  0  0
   59.3630   30.0550   51.6300 C   0  0  0  0  0  0  0  0  0  0  0  0
   58.1680   29.6930   52.5070 C   0  0  0  0  0  0  0  0  0  0  0  0
   56.9820   29.8370   51.7540 O   0  0  0  0  0  0  0  0  0  0  0  0
   56.6830   31.2130   51.5980 C   0  0  0  0  0  0  0  0  0  0  0  0
   57.8740   32.0630   51.0900 C   0  0  0  0  0  0  0  0  0  0  0  0
   57.2180   27.0700   46.8490 C   0  0  0  0  0  0  0  0  0  0  0  0
   56.3430   26.3880   45.9970 C   0  0  0  0  0  0  0  0  0  0  0  0
   54.9910   26.7120   45.9940 O   0  0  0  0  0  0  0  0  0  0  0  0
   56.6090   22.7660   42.9940 C   0  0  0  0  0  0  0  0  0  0  0  0
   56.6650   21.3810   42.8220 C   0  0  0  0  0  0  0  0  0  0  0  0
   56.1370   20.5540   43.7610 N   0  0  0  0  0  0  0  0  0  0  0  0
   53.9068   19.6447   48.7660 H   0  0  0  0  0  0  0  0  0  0  0  0
   55.6184   19.8801   48.2472 H   0  0  0  0  0  0  0  0  0  0  0  0
   55.2699   22.3414   50.9180 H   0  0  0  0  0  0  0  0  0  0  0  0
   55.3108   20.5399   50.7338 H   0  0  0  0  0  0  0  0  0  0  0  0
   57.5981   21.5568   50.8325 H   0  0  0  0  0  0  0  0  0  0  0  0
   57.2648   20.6905   49.2816 H   0  0  0  0  0  0  0  0  0  0  0  0
   56.8844   23.6258   47.3659 H   0  0  0  0  0  0  0  0  0  0  0  0
   56.8647   21.8212   47.3899 H   0  0  0  0  0  0  0  0  0  0  0  0
   54.8204   23.6813   48.7176 H   0  0  0  0  0  0  0  0  0  0  0  0
   54.5735   22.6784   47.2318 H   0  0  0  0  0  0  0  0  0  0  0  0
   54.9518   22.8157   45.9826 H   0  0  0  0  0  0  0  0  0  0  0  0
   58.5829   24.3105   44.4640 H   0  0  0  0  0  0  0  0  0  0  0  0
   60.1376   25.5046   46.0045 H   0  0  0  0  0  0  0  0  0  0  0  0
   60.2190   26.9280   48.2470 H   0  0  0  0  0  0  0  0  0  0  0  0
   62.0110   30.7503   47.2674 H   0  0  0  0  0  0  0  0  0  0  0  0
   61.7477   34.6334   49.1619 H   0  0  0  0  0  0  0  0  0  0  0  0
   60.0594   33.7390   50.7557 H   0  0  0  0  0  0  0  0  0  0  0  0
   59.5870   29.2129   50.9586 H   0  0  0  0  0  0  0  0  0  0  0  0
   60.2271   30.2658   52.2772 H   0  0  0  0  0  0  0  0  0  0  0  0
   58.2635   28.6517   52.8483 H   0  0  0  0  0  0  0  0  0  0  0  0
   58.1349   30.3591   53.3817 H   0  0  0  0  0  0  0  0  0  0  0  0
   55.8578   31.3080   50.8769 H   0  0  0  0  0  0  0  0  0  0  0  0
   56.4207   31.5966   52.5950 H   0  0  0  0  0  0  0  0  0  0  0  0
   57.5767   32.5667   50.1584 H   0  0  0  0  0  0  0  0  0  0  0  0
   58.1283   32.7885   51.8767 H   0  0  0  0  0  0  0  0  0  0  0  0
   56.8339   27.8684   47.5009 H   0  0  0  0  0  0  0  0  0  0  0  0
   57.0443   23.4357   42.2377 H   0  0  0  0  0  0  0  0  0  0  0  0
   57.1382   20.9588   41.9232 H   0  0  0  0  0  0  0  0  0  0  0  0
  1  2  2  0
  2  3  1  0
  3  4  1  0
  4  5  1  0
  5  6  1  0
  6  7  1  0
  7  8  1  0
  8  9  1  0
  2 10  1  0
 10 11  2  3
 11 12  1  0
 12 13  2  0
 13 14  1  0
 14 15  1  0
 15 16  2  0
 16 17  1  0
 17 18  2  0
 18 19  1  0
 19 20  1  0
 20 21  2  0
 20 22  1  0
 22 23  1  0
 23 24  2  0
 24 25  1  0
 25 26  1  0
 26 27  1  0
 26 28  1  0
 26 29  1  0
 25 30  2  0
 30 31  1  0
 31 32  2  0
 32 33  1  0
 33 34  1  0
 34 35  1  0
 35 36  1  0
 36 37  1  0
 37 38  1  0
 18 39  1  0
 39 40  2  0
 40 41  1  0
 13 42  1  0
 42 43  2  0
 43 44  1  0
  9  4  1  0
 44 11  1  0
 40 15  1  0
 32 23  1  0
 38 33  1  0
  3 45  1  0
  3 46  1  0
  5 47  1  0
  5 48  1  0
  6 49  1  0
  6 50  1  0
  8 51  1  0
  8 52  1  0
  9 53  1  0
  9 54  1  0
 12 55  1  0
 16 56  1  0
 17 57  1  0
 19 58  1  0
 24 59  1  0
 30 60  1  0
 31 61  1  0
 34 62  1  0
 34 63  1  0
 35 64  1  0
 35 65  1  0
 37 66  1  0
 37 67  1  0
 38 68  1  0
 38 69  1  0
 39 70  1  0
 42 71  1  0
 43 72  1  0
M  CHG  3  22  -1  41  -1  44  -1
M  END
>  <UniqueID>  (46) 
43

>  <SMILES>  (46) 
O=C(CN1CCOCC1)N=c1cc(Oc2ccc(NC(=O)[N-]c3cc(C(F)(F)F)ccc3N3CCOCC3)cc2[O-])cc[n-]1

>  <Energy>  (46) 
114.72221570861329

>  <Genealogy>  (46) 
O=C(CN1CCOCC1)N=c1cc(Oc2ccc(NC(=O)[N-]c3cc(C(F)(F)F)ccc3N3CCOCC3)cc2[O-])cc[n-]1 (protonated)
O=C(CN1CCOCC1)N=c1cc(Oc2ccc(NC(=O)[N-]c3cc(C(F)(F)F)ccc3N3CCOCC3)cc2[O-])cc[n-]1 (3D coordinates assigned)
O=C(CN1CCOCC1)N=c1cc(Oc2ccc(NC(=O)[N-]c3cc(C(F)(F)F)ccc3N3CCOCC3)cc2[O-])cc[n-]1 (nonaromatic ring conformer: 114.72221570861329 kcal/mol)

>  <smiles>  (46) 
O=C(CN1CCOCC1)N=c1cc(Oc2ccc(NC(=O)Nc3cc(C(F)(F)F)ccc3N3CCOCC3)cc2O)cc[nH]1

>  <score_type>  (46) 
oracle

>  <origin>  (46) 
adg

>  <m_score__min__energy>  (46) 
-15.880000000000001

>  <m_primary>  (46) 
energy

$$$$
46:0
     RDKit          3D

 45 47  0  0  0  0  0  0  0  0999 V2000
   56.3370   23.1240   43.0590 C   0  0  0  0  0  0  0  0  0  0  0  0
   55.4310   23.3200   44.2390 C   0  0  0  0  0  0  0  0  0  0  0  0
   54.1000   23.7150   44.0920 C   0  0  0  0  0  0  0  0  0  0  0  0
   53.4030   23.8140   45.6200 S   0  0  0  0  0  0  0  0  0  0  0  0
   54.8130   23.3610   46.4030 C   0  0  0  0  0  0  0  0  0  0  0  0
   54.9150   23.2350   47.6520 O   0  0  0  0  0  0  0  0  0  0  0  0
   55.8290   23.1330   45.5360 N   0  0  0  0  0  0  0  0  0  0  0  0
   57.1580   22.6630   45.9490 C   0  0  0  0  0  0  0  0  0  0  0  0
   58.2080   23.7400   45.6830 C   0  0  0  0  0  0  0  0  0  0  0  0
   58.1030   24.7880   46.6880 N   0  0  0  0  0  0  0  0  0  0  0  0
   57.3150   25.9680   46.4970 C   0  0  0  0  0  0  0  0  0  0  0  0
   56.0820   25.9450   46.7590 O   0  0  0  0  0  0  0  0  0  0  0  0
   57.9470   27.2130   46.0030 C   0  0  0  0  0  0  0  0  0  0  0  0
   59.3280   27.4290   46.1660 C   0  0  0  0  0  0  0  0  0  0  0  0
   59.9160   28.6170   45.7260 C   0  0  0  0  0  0  0  0  0  0  0  0
   59.1380   29.6010   45.1160 C   0  0  0  0  0  0  0  0  0  0  0  0
   57.7660   29.4010   44.9360 C   0  0  0  0  0  0  0  0  0  0  0  0
   56.7920   30.6600   44.1820 S   0  0  0  0  0  0  0  0  0  0  0  0
   55.4030   30.1630   43.8940 O   0  0  0  0  0  0  0  0  0  0  0  0
   57.4410   31.0680   42.8900 O   0  0  0  0  0  0  0  0  0  0  0  0
   56.6960   32.0360   45.2320 N   0  0  0  0  0  0  0  0  0  0  0  0
   57.7730   32.9400   45.5120 C   0  0  0  0  0  0  0  0  0  0  0  0
   58.1080   33.9950   44.6400 C   0  0  0  0  0  0  0  0  0  0  0  0
   59.1670   34.8540   44.9480 C   0  0  0  0  0  0  0  0  0  0  0  0
   59.8990   34.6720   46.1230 C   0  0  0  0  0  0  0  0  0  0  0  0
   59.5750   33.6280   46.9920 C   0  0  0  0  0  0  0  0  0  0  0  0
   58.5180   32.7630   46.6880 C   0  0  0  0  0  0  0  0  0  0  0  0
   58.2120   31.7540   47.5410 F   0  0  0  0  0  0  0  0  0  0  0  0
   57.1730   28.2100   45.3790 C   0  0  0  0  0  0  0  0  0  0  0  0
   57.3555   22.9037   43.4113 H   0  0  0  0  0  0  0  0  0  0  0  0
   55.9699   22.2845   42.4503 H   0  0  0  0  0  0  0  0  0  0  0  0
   56.3497   24.0402   42.4503 H   0  0  0  0  0  0  0  0  0  0  0  0
   53.5930   23.9257   43.1388 H   0  0  0  0  0  0  0  0  0  0  0  0
   57.1423   22.4292   47.0238 H   0  0  0  0  0  0  0  0  0  0  0  0
   57.4146   21.7629   45.3710 H   0  0  0  0  0  0  0  0  0  0  0  0
   59.2112   23.2910   45.7267 H   0  0  0  0  0  0  0  0  0  0  0  0
   58.0399   24.1737   44.6862 H   0  0  0  0  0  0  0  0  0  0  0  0
   59.9489   26.6566   46.6434 H   0  0  0  0  0  0  0  0  0  0  0  0
   60.9959   28.7771   45.8609 H   0  0  0  0  0  0  0  0  0  0  0  0
   59.6052   30.5369   44.7756 H   0  0  0  0  0  0  0  0  0  0  0  0
   57.5340   34.1432   43.7134 H   0  0  0  0  0  0  0  0  0  0  0  0
   59.4243   35.6753   44.2630 H   0  0  0  0  0  0  0  0  0  0  0  0
   60.7305   35.3506   46.3640 H   0  0  0  0  0  0  0  0  0  0  0  0
   60.1520   33.4853   47.9176 H   0  0  0  0  0  0  0  0  0  0  0  0
   56.0934   28.0532   45.2377 H   0  0  0  0  0  0  0  0  0  0  0  0
  1  2  1  0
  2  3  2  0
  3  4  1  0
  4  5  1  0
  5  6  2  0
  5  7  1  0
  7  8  1  0
  8  9  1  0
  9 10  1  0
 10 11  1  0
 11 12  2  0
 11 13  1  0
 13 14  2  0
 14 15  1  0
 15 16  2  0
 16 17  1  0
 17 18  1  0
 18 19  2  0
 18 20  2  0
 18 21  1  0
 21 22  1  0
 22 23  2  0
 23 24  1  0
 24 25  2  0
 25 26  1  0
 26 27  2  0
 27 28  1  0
 17 29  2  0
  7  2  1  0
 29 13  1  0
 27 22  1  0
  1 30  1  0
  1 31  1  0
  1 32  1  0
  3 33  1  0
  8 34  1  0
  8 35  1  0
  9 36  1  0
  9 37  1  0
 14 38  1  0
 15 39  1  0
 16 40  1  0
 23 41  1  0
 24 42  1  0
 25 43  1  0
 26 44  1  0
 29 45  1  0
M  CHG  2  10  -1  21  -1
M  END
>  <UniqueID>  (47) 
44

>  <SMILES>  (47) 
Cc1csc(=O)n1CC[N-]C(=O)c1cccc(S(=O)(=O)[N-]c2ccccc2F)c1

>  <Energy>  (47) 
77.29865289028574

>  <Genealogy>  (47) 
Cc1csc(=O)n1CC[N-]C(=O)c1cccc(S(=O)(=O)[N-]c2ccccc2F)c1 (protonated)
Cc1csc(=O)n1CC[N-]C(=O)c1cccc(S(=O)(=O)[N-]c2ccccc2F)c1 (3D coordinates assigned)
Cc1csc(=O)n1CC[N-]C(=O)c1cccc(S(=O)(=O)[N-]c2ccccc2F)c1 (optimized conformer: 77.29865289028574 kcal/mol)

>  <smiles>  (47) 
Cc1csc(=O)n1CCNC(=O)c1cccc(S(=O)(=O)Nc2ccccc2F)c1

>  <score_type>  (47) 
oracle

>  <origin>  (47) 
adg

>  <m_score__min__energy>  (47) 
-12.24

>  <m_primary>  (47) 
energy

$$$$
47:0
     RDKit          3D

 40 42  0  0  0  0  0  0  0  0999 V2000
   56.8810   30.8350   46.1110 H   0  0  0  0  0  0  0  0  0  0  0  0
   57.7080   30.5290   46.6050 O   0  0  0  0  0  0  0  0  0  0  0  0
   58.7750   29.8880   45.9730 C   0  0  0  0  0  0  0  0  0  0  0  0
   58.5660   28.9810   44.9070 C   0  0  0  0  0  0  0  0  0  0  0  0
   57.2920   28.8310   44.2620 N   0  0  0  0  0  0  0  0  0  0  0  0
   56.1780   29.7280   44.3860 C   0  0  0  0  0  0  0  0  0  0  0  0
   55.1410   29.3340   44.9780 O   0  0  0  0  0  0  0  0  0  0  0  0
   56.2420   31.0850   43.9180 N   0  0  0  0  0  0  0  0  0  0  0  0
   57.0110   32.0400   44.3570 C   0  0  0  0  0  0  0  0  0  0  0  0
   56.7190   32.6080   45.5600 N   0  0  0  0  0  0  0  0  0  0  0  0
   57.4810   33.5930   46.1030 C   0  0  0  0  0  0  0  0  0  0  0  0
   57.2124   34.0199   47.0806 H   0  0  0  0  0  0  0  0  0  0  0  0
   58.6050   34.0640   45.4210 C   0  0  0  0  0  0  0  0  0  0  0  0
   59.6020   35.3260   46.1190 Cl  0  0  0  0  0  0  0  0  0  0  0  0
   58.9200   33.5240   44.1730 C   0  0  0  0  0  0  0  0  0  0  0  0
   59.7970   33.8910   43.6197 H   0  0  0  0  0  0  0  0  0  0  0  0
   58.1210   32.5180   43.6280 C   0  0  0  0  0  0  0  0  0  0  0  0
   58.3546   32.1006   42.6374 H   0  0  0  0  0  0  0  0  0  0  0  0
   59.6410   28.2240   44.4260 C   0  0  0  0  0  0  0  0  0  0  0  0
   59.4701   27.4686   43.6449 H   0  0  0  0  0  0  0  0  0  0  0  0
   60.9260   28.4200   44.9290 C   0  0  0  0  0  0  0  0  0  0  0  0
   61.7637   27.8191   44.5454 H   0  0  0  0  0  0  0  0  0  0  0  0
   61.1510   29.3770   45.9180 C   0  0  0  0  0  0  0  0  0  0  0  0
   62.1719   29.5497   46.2896 H   0  0  0  0  0  0  0  0  0  0  0  0
   60.0830   30.1210   46.4420 C   0  0  0  0  0  0  0  0  0  0  0  0
   60.3350   31.1150   47.4510 N   0  0  0  0  0  0  0  0  0  0  0  0
   61.2450   32.2280   47.1610 C   0  0  0  0  0  0  0  0  0  0  0  0
   62.2508   31.8302   46.9605 H   0  0  0  0  0  0  0  0  0  0  0  0
   60.8704   32.7736   46.2824 H   0  0  0  0  0  0  0  0  0  0  0  0
   61.3120   33.1920   48.3510 C   0  0  0  0  0  0  0  0  0  0  0  0
   61.9120   32.7377   49.1532 H   0  0  0  0  0  0  0  0  0  0  0  0
   61.7747   34.1346   48.0234 H   0  0  0  0  0  0  0  0  0  0  0  0
   59.9630   33.4710   48.8540 N   0  0  0  0  0  0  0  0  0  0  0  0
   59.3920   33.8670   48.0700 H   0  0  0  0  0  0  0  0  0  0  0  0
   59.2820   32.2690   49.3800 C   0  0  0  0  0  0  0  0  0  0  0  0
   59.4117   32.2504   50.4722 H   0  0  0  0  0  0  0  0  0  0  0  0
   58.2281   32.3464   49.0745 H   0  0  0  0  0  0  0  0  0  0  0  0
   59.8090   30.9370   48.8090 C   0  0  0  0  0  0  0  0  0  0  0  0
   60.6127   30.5606   49.4589 H   0  0  0  0  0  0  0  0  0  0  0  0
   58.9756   30.2201   48.7694 H   0  0  0  0  0  0  0  0  0  0  0  0
  1  2  1  0
  2  3  1  0
  3  4  2  0
  4  5  1  0
  5  6  1  0
  6  7  2  0
  6  8  1  0
  8  9  2  0
  9 10  1  0
 10 11  1  0
 11 12  1  0
 11 13  2  0
 13 14  1  0
 13 15  1  0
 15 16  1  0
 15 17  2  0
 17 18  1  0
  4 19  1  0
 19 20  1  0
 19 21  2  0
 21 22  1  0
 21 23  1  0
 23 24  1  0
 23 25  2  0
 25 26  1  0
 26 27  1  0
 27 28  1  0
 27 29  1  0
 27 30  1  0
 30 31  1  0
 30 32  1  0
 30 33  1  0
 33 34  1  0
 33 35  1  0
 35 36  1  0
 35 37  1  0
 35 38  1  0
 38 39  1  0
 38 40  1  0
 25  3  1  0
 38 26  1  0
 17  9  1  0
M  CHG  2   5  -1  10  -1
M  END
>  <UniqueID>  (48) 
45

>  <SMILES>  (48) 
O=C(/N=c1\ccc(Cl)c[n-]1)[N-]c1cccc(N2CCNCC2)c1O

>  <Energy>  (48) 
64.83895727716433

>  <Genealogy>  (48) 
O=C(N=c1ccc(Cl)c[n-]1)[N-]c1cccc(N2CCNCC2)c1O (protonated)
O=C(/N=c1\ccc(Cl)c[n-]1)[N-]c1cccc(N2CCNCC2)c1O (cis-trans isomerization)
O=C(/N=c1\ccc(Cl)c[n-]1)[N-]c1cccc(N2CCNCC2)c1O (3D coordinates assigned)
O=C(/N=c1\ccc(Cl)c[n-]1)[N-]c1cccc(N2CCNCC2)c1O (nonaromatic ring conformer: 64.83895727716433 kcal/mol)

>  <smiles>  (48) 
O=C(N=c1ccc(Cl)c[nH]1)Nc1cccc(N2CCNCC2)c1O

>  <score_type>  (48) 
oracle

>  <origin>  (48) 
adg

>  <m_score__min__energy>  (48) 
-11.279999999999999

>  <m_primary>  (48) 
energy

$$$$
48:0
     RDKit          3D

 50 52  0  0  0  0  0  0  0  0999 V2000
   63.1000   33.4990   46.6040 C   0  0  0  0  0  0  0  0  0  0  0  0
   62.4860   33.2180   47.9520 C   0  0  0  0  0  0  0  0  0  0  0  0
   62.5460   34.2190   48.9330 C   0  0  0  0  0  0  0  0  0  0  0  0
   61.9840   34.0140   50.1900 C   0  0  0  0  0  0  0  0  0  0  0  0
   61.3440   32.8150   50.4820 C   0  0  0  0  0  0  0  0  0  0  0  0
   61.2670   31.7900   49.5260 C   0  0  0  0  0  0  0  0  0  0  0  0
   60.3880   30.3100   49.9510 S   0  0  0  0  0  0  0  0  0  0  0  0
   59.9860   30.3700   51.3990 O   0  0  0  0  0  0  0  0  0  0  0  0
   61.2750   29.1200   49.7080 O   0  0  0  0  0  0  0  0  0  0  0  0
   58.9670   30.1590   48.9690 N   0  0  0  0  0  0  0  0  0  0  0  0
   58.8520   29.3510   47.7910 C   0  0  0  0  0  0  0  0  0  0  0  0
   58.8690   27.9460   47.8430 C   0  0  0  0  0  0  0  0  0  0  0  0
   58.7530   27.1990   46.6700 C   0  0  0  0  0  0  0  0  0  0  0  0
   58.6180   27.8430   45.4390 C   0  0  0  0  0  0  0  0  0  0  0  0
   58.5980   29.2440   45.3640 C   0  0  0  0  0  0  0  0  0  0  0  0
   58.4670   29.8760   44.0770 N   0  0  0  0  0  0  0  0  0  0  0  0
   57.1710   30.9450   43.6350 S   0  0  0  0  0  0  0  0  0  0  0  0
   56.0790   30.8830   44.6650 O   0  0  0  0  0  0  0  0  0  0  0  0
   56.6080   30.5010   42.3150 O   0  0  0  0  0  0  0  0  0  0  0  0
   57.7690   32.6190   43.4690 C   0  0  0  0  0  0  0  0  0  0  0  0
   58.1850   33.1590   44.8090 C   0  0  0  0  0  0  0  0  0  0  0  0
   59.3090   33.9940   44.9210 C   0  0  0  0  0  0  0  0  0  0  0  0
   59.6730   34.5200   46.1650 C   0  0  0  0  0  0  0  0  0  0  0  0
   58.9160   34.2200   47.3010 C   0  0  0  0  0  0  0  0  0  0  0  0
   57.7920   33.3960   47.1950 C   0  0  0  0  0  0  0  0  0  0  0  0
   57.4220   32.8710   45.9530 C   0  0  0  0  0  0  0  0  0  0  0  0
   58.7110   29.9900   46.5540 C   0  0  0  0  0  0  0  0  0  0  0  0
   61.8810   31.9680   48.2560 C   0  0  0  0  0  0  0  0  0  0  0  0
   61.8350   30.8670   47.2170 C   0  0  0  0  0  0  0  0  0  0  0  0
   64.0925   33.9532   46.7407 H   0  0  0  0  0  0  0  0  0  0  0  0
   63.2015   32.5577   46.0439 H   0  0  0  0  0  0  0  0  0  0  0  0
   62.4540   34.1911   46.0439 H   0  0  0  0  0  0  0  0  0  0  0  0
   63.0417   35.1746   48.7069 H   0  0  0  0  0  0  0  0  0  0  0  0
   62.0465   34.8028   50.9541 H   0  0  0  0  0  0  0  0  0  0  0  0
   60.8925   32.6677   51.4742 H   0  0  0  0  0  0  0  0  0  0  0  0
   58.9740   27.4342   48.8110 H   0  0  0  0  0  0  0  0  0  0  0  0
   58.7680   26.1000   46.7156 H   0  0  0  0  0  0  0  0  0  0  0  0
   58.5264   27.2467   44.5192 H   0  0  0  0  0  0  0  0  0  0  0  0
   59.2300   29.7520   43.3760 H   0  0  0  0  0  0  0  0  0  0  0  0
   58.6335   32.6299   42.7890 H   0  0  0  0  0  0  0  0  0  0  0  0
   56.9632   33.2486   43.0637 H   0  0  0  0  0  0  0  0  0  0  0  0
   59.9045   34.2349   44.0281 H   0  0  0  0  0  0  0  0  0  0  0  0
   60.5560   35.1705   46.2493 H   0  0  0  0  0  0  0  0  0  0  0  0
   59.2050   34.6326   48.2789 H   0  0  0  0  0  0  0  0  0  0  0  0
   57.1976   33.1602   48.0900 H   0  0  0  0  0  0  0  0  0  0  0  0
   56.5312   32.2308   45.8714 H   0  0  0  0  0  0  0  0  0  0  0  0
   58.6881   31.0889   46.5101 H   0  0  0  0  0  0  0  0  0  0  0  0
   61.7942   29.8896   47.7200 H   0  0  0  0  0  0  0  0  0  0  0  0
   60.9414   30.9934   46.5882 H   0  0  0  0  0  0  0  0  0  0  0  0
   62.7361   30.9184   46.5882 H   0  0  0  0  0  0  0  0  0  0  0  0
  1  2  1  0
  2  3  2  0
  3  4  1  0
  4  5  2  0
  5  6  1  0
  6  7  1  0
  7  8  2  0
  7  9  2  0
  7 10  1  0
 10 11  1  0
 11 12  2  0
 12 13  1  0
 13 14  2  0
 14 15  1  0
 15 16  1  0
 16 17  1  0
 17 18  2  0
 17 19  2  0
 17 20  1  0
 20 21  1  0
 21 22  2  0
 22 23  1  0
 23 24  2  0
 24 25  1  0
 25 26  2  0
 15 27  2  0
  6 28  2  0
 28 29  1  0
 28  2  1  0
 27 11  1  0
 26 21  1  0
  1 30  1  0
  1 31  1  0
  1 32  1  0
  3 33  1  0
  4 34  1  0
  5 35  1  0
 12 36  1  0
 13 37  1  0
 14 38  1  0
 16 39  1  0
 20 40  1  0
 20 41  1  0
 22 42  1  0
 23 43  1  0
 24 44  1  0
 25 45  1  0
 26 46  1  0
 27 47  1  0
 29 48  1  0
 29 49  1  0
 29 50  1  0
M  CHG  1  10  -1
M  END
>  <UniqueID>  (49) 
46

>  <SMILES>  (49) 
Cc1cccc(S(=O)(=O)[N-]c2cccc(NS(=O)(=O)Cc3ccccc3)c2)c1C

>  <Energy>  (49) 
57.06846690489394

>  <Genealogy>  (49) 
Cc1cccc(S(=O)(=O)[N-]c2cccc(NS(=O)(=O)Cc3ccccc3)c2)c1C (protonated)
Cc1cccc(S(=O)(=O)[N-]c2cccc(NS(=O)(=O)Cc3ccccc3)c2)c1C (3D coordinates assigned)
Cc1cccc(S(=O)(=O)[N-]c2cccc(NS(=O)(=O)Cc3ccccc3)c2)c1C (optimized conformer: 57.06846690489394 kcal/mol)

>  <smiles>  (49) 
Cc1cccc(S(=O)(=O)Nc2cccc(NS(=O)(=O)Cc3ccccc3)c2)c1C

>  <score_type>  (49) 
oracle

>  <origin>  (49) 
adg

>  <m_score__min__energy>  (49) 
-11.699999999999999

>  <m_primary>  (49) 
energy

$$$$
49:0
     RDKit          3D

 40 42  0  0  0  0  0  0  0  0999 V2000
   57.4190   30.6340   45.4020 O   0  0  0  0  0  0  0  0  0  0  0  0
   58.1860   29.6940   45.7450 C   0  0  0  0  0  0  0  0  0  0  0  0
   58.2270   28.4740   44.9120 C   0  0  0  0  0  0  0  0  0  0  0  0
   57.2430   27.5630   44.8510 C   0  0  0  0  0  0  0  0  0  0  0  0
   57.1590   26.3610   45.7130 C   0  0  0  0  0  0  0  0  0  0  0  0
   55.9260   25.9690   46.2560 C   0  0  0  0  0  0  0  0  0  0  0  0
   54.7770   26.7030   45.9990 O   0  0  0  0  0  0  0  0  0  0  0  0
   55.8460   24.8580   47.0320 N   0  0  0  0  0  0  0  0  0  0  0  0
   56.9490   24.1180   47.3130 C   0  0  0  0  0  0  0  0  0  0  0  0
   56.8490   23.0870   48.0260 O   0  0  0  0  0  0  0  0  0  0  0  0
   58.1610   24.4960   46.8320 N   0  0  0  0  0  0  0  0  0  0  0  0
   58.2950   25.6000   46.0530 C   0  0  0  0  0  0  0  0  0  0  0  0
   59.4410   25.9380   45.6540 O   0  0  0  0  0  0  0  0  0  0  0  0
   59.0400   29.8540   46.9410 C   0  0  0  0  0  0  0  0  0  0  0  0
   58.8790   28.9980   48.0410 C   0  0  0  0  0  0  0  0  0  0  0  0
   59.7230   29.1100   49.1470 C   0  0  0  0  0  0  0  0  0  0  0  0
   60.7120   30.0970   49.1780 C   0  0  0  0  0  0  0  0  0  0  0  0
   60.8540   30.9910   48.1120 C   0  0  0  0  0  0  0  0  0  0  0  0
   61.8400   32.0270   48.2090 N   0  0  0  0  0  0  0  0  0  0  0  0
   61.6230   33.6620   47.6690 S   0  0  0  0  0  0  0  0  0  0  0  0
   61.7240   34.5940   48.8430 O   0  0  0  0  0  0  0  0  0  0  0  0
   62.7210   34.0050   46.7020 O   0  0  0  0  0  0  0  0  0  0  0  0
   60.0720   33.8460   46.8580 C   0  0  0  0  0  0  0  0  0  0  0  0
   60.0360   34.2220   45.5070 C   0  0  0  0  0  0  0  0  0  0  0  0
   58.8090   34.4110   44.8620 C   0  0  0  0  0  0  0  0  0  0  0  0
   57.6140   34.2220   45.5610 C   0  0  0  0  0  0  0  0  0  0  0  0
   57.6440   33.8400   46.9060 C   0  0  0  0  0  0  0  0  0  0  0  0
   58.8690   33.6550   47.5550 C   0  0  0  0  0  0  0  0  0  0  0  0
   60.0250   30.8550   46.9850 C   0  0  0  0  0  0  0  0  0  0  0  0
   59.1248   28.3007   44.3005 H   0  0  0  0  0  0  0  0  0  0  0  0
   56.4447   27.7196   44.1106 H   0  0  0  0  0  0  0  0  0  0  0  0
   58.0853   28.2364   48.0317 H   0  0  0  0  0  0  0  0  0  0  0  0
   59.6095   28.4199   49.9961 H   0  0  0  0  0  0  0  0  0  0  0  0
   61.3830   30.1711   50.0465 H   0  0  0  0  0  0  0  0  0  0  0  0
   60.9751   34.3686   44.9533 H   0  0  0  0  0  0  0  0  0  0  0  0
   58.7850   34.7087   43.8033 H   0  0  0  0  0  0  0  0  0  0  0  0
   56.6499   34.3736   45.0535 H   0  0  0  0  0  0  0  0  0  0  0  0
   56.7030   33.6849   47.4541 H   0  0  0  0  0  0  0  0  0  0  0  0
   58.8896   33.3591   48.6143 H   0  0  0  0  0  0  0  0  0  0  0  0
   60.1483   31.5374   46.1311 H   0  0  0  0  0  0  0  0  0  0  0  0
  1  2  2  0
  2  3  1  0
  3  4  2  3
  4  5  1  0
  5  6  2  0
  6  7  1  0
  6  8  1  0
  8  9  1  0
  9 10  2  0
  9 11  1  0
 11 12  1  0
 12 13  2  0
  2 14  1  0
 14 15  2  0
 15 16  1  0
 16 17  2  0
 17 18  1  0
 18 19  1  0
 19 20  1  0
 20 21  2  0
 20 22  2  0
 20 23  1  0
 23 24  2  0
 24 25  1  0
 25 26  2  0
 26 27  1  0
 27 28  2  0
 18 29  2  0
 12  5  1  0
 29 14  1  0
 28 23  1  0
  3 30  1  0
  4 31  1  0
 15 32  1  0
 16 33  1  0
 17 34  1  0
 24 35  1  0
 25 36  1  0
 26 37  1  0
 27 38  1  0
 28 39  1  0
 29 40  1  0
M  CHG  4   7  -1   8  -1  11  -1  19  -1
M  END
>  <UniqueID>  (50) 
47

>  <SMILES>  (50) 
O=C(C=Cc1c([O-])[n-]c(=O)[n-]c1=O)c1cccc([N-]S(=O)(=O)c2ccccc2)c1

>  <Energy>  (50) 
59.03326023775632

>  <Genealogy>  (50) 
O=C(C=Cc1c([O-])[n-]c(=O)[n-]c1=O)c1cccc([N-]S(=O)(=O)c2ccccc2)c1 (protonated)
O=C(C=Cc1c([O-])[n-]c(=O)[n-]c1=O)c1cccc([N-]S(=O)(=O)c2ccccc2)c1 (3D coordinates assigned)
O=C(C=Cc1c([O-])[n-]c(=O)[n-]c1=O)c1cccc([N-]S(=O)(=O)c2ccccc2)c1 (optimized conformer: 59.03326023775632 kcal/mol)

>  <smiles>  (50) 
O=C(C=Cc1c(O)[nH]c(=O)[nH]c1=O)c1cccc(NS(=O)(=O)c2ccccc2)c1

>  <score_type>  (50) 
oracle

>  <origin>  (50) 
adg

>  <m_score__min__energy>  (50) 
-18.010000000000002

>  <m_primary>  (50) 
energy

$$$$
50:0
     RDKit          3D

 60 63  0  0  0  0  0  0  0  0999 V2000
   60.0180   28.6400   49.3690 C   0  0  0  0  0  0  0  0  0  0  0  0
   58.7250   29.4370   49.3720 C   0  0  0  0  0  0  0  0  0  0  0  0
   58.8240   30.6510   50.1980 N   0  0  0  0  0  0  0  0  0  0  0  0
   58.0030   30.9760   51.2230 C   0  0  0  0  0  0  0  0  0  0  0  0
   57.0120   30.1150   51.7950 N   0  0  0  0  0  0  0  0  0  0  0  0
   56.4020   30.3610   53.0630 C   0  0  0  0  0  0  0  0  0  0  0  0
   57.0100   31.0400   53.9300 O   0  0  0  0  0  0  0  0  0  0  0  0
   55.0720   29.9000   53.3450 N   0  0  0  0  0  0  0  0  0  0  0  0
   53.8570   30.4250   52.7960 C   0  0  0  0  0  0  0  0  0  0  0  0
   53.7220   30.7080   51.4270 C   0  0  0  0  0  0  0  0  0  0  0  0
   52.5060   31.1840   50.9260 C   0  0  0  0  0  0  0  0  0  0  0  0
   51.4130   31.3520   51.7770 C   0  0  0  0  0  0  0  0  0  0  0  0
   51.5320   31.0440   53.1350 C   0  0  0  0  0  0  0  0  0  0  0  0
   52.7500   30.5800   53.6410 C   0  0  0  0  0  0  0  0  0  0  0  0
   58.2860   32.2330   51.6730 C   0  0  0  0  0  0  0  0  0  0  0  0
   59.3130   32.7170   50.9590 N   0  0  0  0  0  0  0  0  0  0  0  0
   59.6330   31.7390   50.0730 C   0  0  0  0  0  0  0  0  0  0  0  0
   60.7540   31.9380   49.0630 C   0  0  2  0  0  0  0  0  0  0  0  0
   61.5320   33.2570   49.2760 C   0  0  0  0  0  0  0  0  0  0  0  0
   60.6190   34.4760   49.1130 C   0  0  0  0  0  0  0  0  0  0  0  0
   59.5840   34.2820   47.9940 C   0  0  0  0  0  0  0  0  0  0  0  0
   60.0030   33.1820   47.0100 C   0  0  0  0  0  0  0  0  0  0  0  0
   60.1830   31.8660   47.6810 N   0  0  0  0  0  0  0  0  0  0  0  0
   60.9360   30.9220   46.8290 C   0  0  0  0  0  0  0  0  0  0  0  0
   60.0080   30.0140   46.0620 C   0  0  0  0  0  0  0  0  0  0  0  0
   60.4590   28.7700   45.5910 C   0  0  0  0  0  0  0  0  0  0  0  0
   59.5990   27.9320   44.8770 C   0  0  0  0  0  0  0  0  0  0  0  0
   58.2830   28.3270   44.6250 C   0  0  0  0  0  0  0  0  0  0  0  0
   57.8160   29.5780   45.0760 C   0  0  0  0  0  0  0  0  0  0  0  0
   56.4280   30.0100   44.7940 C   0  0  0  0  0  0  0  0  0  0  0  0
   55.3570   29.0810   44.8650 N   0  0  0  0  0  0  0  0  0  0  0  0
   56.1820   31.2070   44.4700 O   0  0  0  0  0  0  0  0  0  0  0  0
   58.6910   30.4170   45.7890 C   0  0  0  0  0  0  0  0  0  0  0  0
   60.3319   28.4465   50.4054 H   0  0  0  0  0  0  0  0  0  0  0  0
   59.8580   27.6836   48.8497 H   0  0  0  0  0  0  0  0  0  0  0  0
   60.8005   29.2127   48.8497 H   0  0  0  0  0  0  0  0  0  0  0  0
   58.4865   29.7296   48.3388 H   0  0  0  0  0  0  0  0  0  0  0  0
   57.9361   28.8005   49.7992 H   0  0  0  0  0  0  0  0  0  0  0  0
   54.5737   30.5551   50.7479 H   0  0  0  0  0  0  0  0  0  0  0  0
   52.4109   31.4268   49.8573 H   0  0  0  0  0  0  0  0  0  0  0  0
   50.4583   31.7266   51.3792 H   0  0  0  0  0  0  0  0  0  0  0  0
   50.6683   31.1665   53.8051 H   0  0  0  0  0  0  0  0  0  0  0  0
   52.8398   30.3350   54.7096 H   0  0  0  0  0  0  0  0  0  0  0  0
   57.7610   32.7597   52.4836 H   0  0  0  0  0  0  0  0  0  0  0  0
   61.4886   31.1323   49.2085 H   0  0  0  0  0  0  0  0  0  0  0  0
   61.9579   33.2617   50.2902 H   0  0  0  0  0  0  0  0  0  0  0  0
   62.3276   33.3162   48.5187 H   0  0  0  0  0  0  0  0  0  0  0  0
   60.0877   34.6496   50.0604 H   0  0  0  0  0  0  0  0  0  0  0  0
   61.2497   35.3360   48.8435 H   0  0  0  0  0  0  0  0  0  0  0  0
   58.6197   34.0063   48.4457 H   0  0  0  0  0  0  0  0  0  0  0  0
   59.5054   35.2264   47.4355 H   0  0  0  0  0  0  0  0  0  0  0  0
   59.2258   33.0826   46.2379 H   0  0  0  0  0  0  0  0  0  0  0  0
   60.9689   33.4719   46.5708 H   0  0  0  0  0  0  0  0  0  0  0  0
   61.5481   31.4935   46.1158 H   0  0  0  0  0  0  0  0  0  0  0  0
   61.5711   30.3007   47.4776 H   0  0  0  0  0  0  0  0  0  0  0  0
   61.4946   28.4540   45.7853 H   0  0  0  0  0  0  0  0  0  0  0  0
   59.9590   26.9587   44.5123 H   0  0  0  0  0  0  0  0  0  0  0  0
   57.6075   27.6581   44.0716 H   0  0  0  0  0  0  0  0  0  0  0  0
   54.4360   29.3620   45.2790 H   0  0  0  0  0  0  0  0  0  0  0  0
   58.3397   31.3997   46.1366 H   0  0  0  0  0  0  0  0  0  0  0  0
  1  2  1  0
  2  3  1  0
  3  4  1  0
  4  5  1  0
  5  6  1  0
  6  7  2  0
  6  8  1  0
  8  9  1  0
  9 10  2  0
 10 11  1  0
 11 12  2  0
 12 13  1  0
 13 14  2  0
  4 15  2  0
 15 16  1  0
 16 17  2  0
 17 18  1  0
 18 19  1  0
 19 20  1  0
 20 21  1  0
 21 22  1  0
 22 23  1  0
 23 24  1  0
 24 25  1  0
 25 26  2  0
 26 27  1  0
 27 28  2  0
 28 29  1  0
 29 30  1  0
 30 31  1  0
 30 32  2  0
 29 33  2  0
 17  3  1  0
 23 18  1  0
 33 25  1  0
 14  9  1  0
  1 34  1  0
  1 35  1  0
  1 36  1  0
  2 37  1  0
  2 38  1  0
 10 39  1  0
 11 40  1  0
 12 41  1  0
 13 42  1  0
 14 43  1  0
 15 44  1  0
 18 45  1  6
 19 46  1  0
 19 47  1  0
 20 48  1  0
 20 49  1  0
 21 50  1  0
 21 51  1  0
 22 52  1  0
 22 53  1  0
 24 54  1  0
 24 55  1  0
 26 56  1  0
 27 57  1  0
 28 58  1  0
 31 59  1  0
 33 60  1  0
M  CHG  3   5  -1   8  -1  31  -1
M  END
>  <UniqueID>  (51) 
48

>  <SMILES>  (51) 
CCn1c([N-]C(=O)[N-]c2ccccc2)cnc1[C@@H]1CCCCN1Cc1cccc(C([NH-])=O)c1

>  <Energy>  (51) 
114.3661188902616

>  <Genealogy>  (51) 
CCn1c([N-]C(=O)[N-]c2ccccc2)cnc1C1CCCCN1Cc1cccc(C([NH-])=O)c1 (protonated)
CCn1c([N-]C(=O)[N-]c2ccccc2)cnc1[C@@H]1CCCCN1Cc1cccc(C([NH-])=O)c1 (chirality)
CCn1c([N-]C(=O)[N-]c2ccccc2)cnc1[C@@H]1CCCCN1Cc1cccc(C([NH-])=O)c1 (3D coordinates assigned)
CCn1c([N-]C(=O)[N-]c2ccccc2)cnc1[C@@H]1CCCCN1Cc1cccc(C([NH-])=O)c1 (nonaromatic ring conformer: 114.3661188902616 kcal/mol)

>  <smiles>  (51) 
CCn1c(NC(=O)Nc2ccccc2)cnc1C1CCCCN1Cc1cccc(C(N)=O)c1

>  <score_type>  (51) 
oracle

>  <origin>  (51) 
adg

>  <m_score__min__energy>  (51) 
-15.02

>  <m_primary>  (51) 
energy

$$$$
51:0
     RDKit          3D

 32 34  0  0  0  0  0  0  0  0999 V2000
   61.0330   26.6740   46.0660 C   0  0  0  0  0  0  0  0  0  0  0  0
   59.5230   26.7960   45.7290 C   0  0  1  0  0  0  0  0  0  0  0  0
   59.0880   25.5120   45.3470 O   0  0  0  0  0  0  0  0  0  0  0  0
   58.6960   27.2520   46.9670 C   0  0  1  0  0  0  0  0  0  0  0  0
   59.3300   28.4260   47.4970 O   0  0  0  0  0  0  0  0  0  0  0  0
   59.7450   29.4320   46.6190 C   0  0  0  0  0  0  0  0  0  0  0  0
   60.4400   30.3990   47.0280 O   0  0  0  0  0  0  0  0  0  0  0  0
   59.2560   29.3590   45.2030 C   0  0  2  0  0  0  0  0  0  0  0  0
   57.7950   29.6280   45.3350 C   0  0  0  0  0  0  0  0  0  0  0  0
   57.3090   30.7230   45.5790 O   0  0  0  0  0  0  0  0  0  0  0  0
   57.0260   28.3640   45.2240 C   0  0  1  0  0  0  0  0  0  0  0  0
   55.6880   28.6330   44.8840 O   0  0  0  0  0  0  0  0  0  0  0  0
   57.8290   27.7540   44.0700 C   0  0  2  0  0  0  0  0  0  0  0  0
   57.4180   26.4540   43.7420 O   0  0  0  0  0  0  0  0  0  0  0  0
   59.2740   27.8840   44.6110 C   0  0  2  0  0  0  0  0  0  0  0  0
   57.1840   27.5710   46.5950 C   0  0  1  0  0  0  0  0  0  0  0  0
   56.3120   26.2940   46.6800 C   0  0  0  0  0  0  0  0  0  0  0  0
   55.2200   26.3660   45.8030 O   0  0  0  0  0  0  0  0  0  0  0  0
   61.1653   26.6633   47.1580 H   0  0  0  0  0  0  0  0  0  0  0  0
   61.4297   25.7409   45.6395 H   0  0  0  0  0  0  0  0  0  0  0  0
   61.5743   27.5313   45.6395 H   0  0  0  0  0  0  0  0  0  0  0  0
   58.6780   25.5880   44.4460 H   0  0  0  0  0  0  0  0  0  0  0  0
   58.6720   26.4384   47.7070 H   0  0  0  0  0  0  0  0  0  0  0  0
   59.8670   30.0240   44.5749 H   0  0  0  0  0  0  0  0  0  0  0  0
   55.1440   27.8510   45.1600 H   0  0  0  0  0  0  0  0  0  0  0  0
   57.6990   28.2521   43.0979 H   0  0  0  0  0  0  0  0  0  0  0  0
   57.0270   26.0670   44.5690 H   0  0  0  0  0  0  0  0  0  0  0  0
   60.0717   27.7265   43.8702 H   0  0  0  0  0  0  0  0  0  0  0  0
   56.8011   28.2695   47.3536 H   0  0  0  0  0  0  0  0  0  0  0  0
   56.9273   25.4212   46.4160 H   0  0  0  0  0  0  0  0  0  0  0  0
   55.9285   26.2020   47.7069 H   0  0  0  0  0  0  0  0  0  0  0  0
   55.5950   26.4540   44.8870 H   0  0  0  0  0  0  0  0  0  0  0  0
  1  2  1  0
  2  3  1  6
  2  4  1  0
  4  5  1  0
  5  6  1  0
  6  7  2  0
  6  8  1  0
  8  9  1  0
  9 10  2  0
  9 11  1  0
 11 12  1  6
 11 13  1  0
 13 14  1  0
 13 15  1  0
 11 16  1  0
 16 17  1  0
 17 18  1  0
 15  2  1  0
 16  4  1  0
 15  8  1  0
  1 19  1  0
  1 20  1  0
  1 21  1  0
  3 22  1  0
  4 23  1  1
  8 24  1  6
 12 25  1  0
 13 26  1  6
 14 27  1  0
 15 28  1  6
 16 29  1  1
 17 30  1  0
 17 31  1  0
 18 32  1  0
M  END
>  <UniqueID>  (52) 
49

>  <SMILES>  (52) 
C[C@]1(O)C2C3C(=O)O[C@H]1C(CO)C(O)(C3=O)C2O

>  <Energy>  (52) 
74.95384765099375

>  <Genealogy>  (52) 
C[C@]1(O)C2C3C(=O)O[C@H]1C(CO)C(O)(C3=O)C2O (chirality)
C[C@]1(O)C2C3C(=O)O[C@H]1C(CO)C(O)(C3=O)C2O (3D coordinates assigned)
C[C@]1(O)C2C3C(=O)O[C@H]1C(CO)C(O)(C3=O)C2O (nonaromatic ring conformer: 74.95384765099375 kcal/mol)

>  <smiles>  (52) 
CC1(O)C2OC(=O)C3C(=O)C(O)(C(O)C31)C2CO

>  <score_type>  (52) 
oracle

>  <origin>  (52) 
adg

>  <m_score__min__energy>  (52) 
-6.5700000000000003

>  <m_primary>  (52) 
energy

$$$$
52:0
     RDKit          3D

 70 74  0  0  0  0  0  0  0  0999 V2000
   51.6070   32.9670   48.5590 H   0  0  0  0  0  0  0  0  0  0  0  0
   51.0300   32.6870   49.3830 N   0  0  0  0  0  0  0  0  0  0  0  0
   51.4040   31.7400   50.1820 C   0  0  0  0  0  0  0  0  0  0  0  0
   51.4360   30.4500   49.7450 N   0  0  0  0  0  0  0  0  0  0  0  0
   51.8250   29.4280   50.5550 C   0  0  0  0  0  0  0  0  0  0  0  0
   51.8385   28.3976   50.1700 H   0  0  0  0  0  0  0  0  0  0  0  0
   52.2090   29.6850   51.8800 C   0  0  0  0  0  0  0  0  0  0  0  0
   52.6730   28.5730   52.7810 C   0  0  0  0  0  0  0  0  0  0  0  0
   51.9875   28.4890   53.6371 H   0  0  0  0  0  0  0  0  0  0  0  0
   52.6818   27.6309   52.2132 H   0  0  0  0  0  0  0  0  0  0  0  0
   54.0240   28.8490   53.2690 N   0  0  0  0  0  0  0  0  0  0  0  0
   54.8210   28.6260   52.6320 H   0  0  0  0  0  0  0  0  0  0  0  0
   54.2730   29.3360   54.5990 C   0  0  0  0  0  0  0  0  0  0  0  0
   53.3050   29.4990   55.3920 O   0  0  0  0  0  0  0  0  0  0  0  0
   55.6880   29.5440   55.1140 C   0  0  2  0  0  0  0  0  0  0  0  0
   55.5260   29.9842   56.1090 H   0  0  0  0  0  0  0  0  0  0  0  0
   56.4760   30.4810   54.2880 N   0  0  0  0  0  0  0  0  0  0  0  0
   56.2970   30.5630   52.8610 C   0  0  0  0  0  0  0  0  0  0  0  0
   56.1250   29.5050   52.1970 O   0  0  0  0  0  0  0  0  0  0  0  0
   56.3710   31.8810   52.1860 C   0  0  0  0  0  0  0  0  0  0  0  0
   55.4718   32.5135   52.2221 H   0  0  0  0  0  0  0  0  0  0  0  0
   57.4370   32.3710   51.5350 C   0  0  0  0  0  0  0  0  0  0  0  0
   57.5860   33.4607   51.5557 H   0  0  0  0  0  0  0  0  0  0  0  0
   58.4260   31.5640   50.7930 C   0  0  0  0  0  0  0  0  0  0  0  0
   59.1250   30.5190   51.4200 C   0  0  0  0  0  0  0  0  0  0  0  0
   58.9666   30.3169   52.4896 H   0  0  0  0  0  0  0  0  0  0  0  0
   60.0220   29.7350   50.6870 C   0  0  0  0  0  0  0  0  0  0  0  0
   60.5703   28.9200   51.1822 H   0  0  0  0  0  0  0  0  0  0  0  0
   60.2230   29.9850   49.3270 C   0  0  0  0  0  0  0  0  0  0  0  0
   60.9304   29.3673   48.7542 H   0  0  0  0  0  0  0  0  0  0  0  0
   59.5220   31.0260   48.6880 C   0  0  0  0  0  0  0  0  0  0  0  0
   59.6780   31.3000   47.3230 O   0  0  0  0  0  0  0  0  0  0  0  0
   58.7030   31.8730   46.5010 C   0  0  0  0  0  0  0  0  0  0  0  0
   57.7160   31.2020   45.8610 N   0  0  0  0  0  0  0  0  0  0  0  0
   57.0600   32.1080   45.1880 O   0  0  0  0  0  0  0  0  0  0  0  0
   57.5590   33.2990   45.3460 N   0  0  0  0  0  0  0  0  0  0  0  0
   57.0650   34.4440   44.7650 O   0  0  0  0  0  0  0  0  0  0  0  0
   58.6120   33.2020   46.1650 C   0  0  0  0  0  0  0  0  0  0  0  0
   59.6150   34.5340   46.7130 S   0  0  0  0  0  0  0  0  0  0  0  0
   58.8980   35.2720   47.8110 O   0  0  0  0  0  0  0  0  0  0  0  0
   59.8650   35.4920   45.5810 O   0  0  0  0  0  0  0  0  0  0  0  0
   61.1520   33.9010   47.2840 C   0  0  0  0  0  0  0  0  0  0  0  0
   61.3560   33.6300   48.6450 C   0  0  0  0  0  0  0  0  0  0  0  0
   60.5499   33.8178   49.3695 H   0  0  0  0  0  0  0  0  0  0  0  0
   62.5840   33.1210   49.0820 C   0  0  0  0  0  0  0  0  0  0  0  0
   62.7418   32.9114   50.1503 H   0  0  0  0  0  0  0  0  0  0  0  0
   63.6110   32.8780   48.1650 C   0  0  0  0  0  0  0  0  0  0  0  0
   64.5755   32.4778   48.5107 H   0  0  0  0  0  0  0  0  0  0  0  0
   63.4090   33.1450   46.8070 C   0  0  0  0  0  0  0  0  0  0  0  0
   64.2162   32.9550   46.0843 H   0  0  0  0  0  0  0  0  0  0  0  0
   62.1830   33.6530   46.3660 C   0  0  0  0  0  0  0  0  0  0  0  0
   62.0269   33.8586   45.2967 H   0  0  0  0  0  0  0  0  0  0  0  0
   58.6060   31.7890   49.4210 C   0  0  0  0  0  0  0  0  0  0  0  0
   58.0219   32.5725   48.9160 H   0  0  0  0  0  0  0  0  0  0  0  0
   57.7430   30.9690   54.8600 C   0  0  0  0  0  0  0  0  0  0  0  0
   57.5542   31.9061   55.4042 H   0  0  0  0  0  0  0  0  0  0  0  0
   58.4558   31.1357   54.0390 H   0  0  0  0  0  0  0  0  0  0  0  0
   58.3480   29.9350   55.8320 C   0  0  0  0  0  0  0  0  0  0  0  0
   57.9326   30.0996   56.8372 H   0  0  0  0  0  0  0  0  0  0  0  0
   59.4408   30.0601   55.8425 H   0  0  0  0  0  0  0  0  0  0  0  0
   58.0220   28.5010   55.3810 C   0  0  0  0  0  0  0  0  0  0  0  0
   58.4603   27.7958   56.1025 H   0  0  0  0  0  0  0  0  0  0  0  0
   58.4433   28.3628   54.3743 H   0  0  0  0  0  0  0  0  0  0  0  0
   56.4990   28.2400   55.2940 C   0  0  0  0  0  0  0  0  0  0  0  0
   56.1717   27.7452   56.2203 H   0  0  0  0  0  0  0  0  0  0  0  0
   56.3165   27.6067   54.4133 H   0  0  0  0  0  0  0  0  0  0  0  0
   52.1830   31.0070   52.3440 C   0  0  0  0  0  0  0  0  0  0  0  0
   52.4806   31.2315   53.3789 H   0  0  0  0  0  0  0  0  0  0  0  0
   51.7800   32.0400   51.4950 C   0  0  0  0  0  0  0  0  0  0  0  0
   51.7586   33.0790   51.8555 H   0  0  0  0  0  0  0  0  0  0  0  0
  1  2  1  0
  2  3  2  0
  3  4  1  0
  4  5  1  0
  5  6  1  0
  5  7  2  0
  7  8  1  0
  8  9  1  0
  8 10  1  0
  8 11  1  0
 11 12  1  0
 11 13  1  0
 13 14  2  0
 13 15  1  0
 15 16  1  1
 15 17  1  0
 17 18  1  0
 18 19  2  0
 18 20  1  0
 20 21  1  0
 20 22  2  3
 22 23  1  0
 22 24  1  0
 24 25  2  0
 25 26  1  0
 25 27  1  0
 27 28  1  0
 27 29  2  0
 29 30  1  0
 29 31  1  0
 31 32  1  0
 32 33  1  0
 33 34  2  0
 34 35  1  0
 35 36  1  0
 36 37  1  0
 36 38  2  0
 38 39  1  0
 39 40  2  0
 39 41  2  0
 39 42  1  0
 42 43  2  0
 43 44  1  0
 43 45  1  0
 45 46  1  0
 45 47  2  0
 47 48  1  0
 47 49  1  0
 49 50  1  0
 49 51  2  0
 51 52  1  0
 31 53  2  0
 53 54  1  0
 17 55  1  0
 55 56  1  0
 55 57  1  0
 55 58  1  0
 58 59  1  0
 58 60  1  0
 58 61  1  0
 61 62  1  0
 61 63  1  0
 61 64  1  0
 64 65  1  0
 64 66  1  0
  7 67  1  0
 67 68  1  0
 67 69  2  0
 69 70  1  0
 69  3  1  0
 64 15  1  0
 53 24  1  0
 38 33  1  0
 51 42  1  0
M  CHG  3   4  -1  36   1  37  -1
M  END
>  <UniqueID>  (53) 
50

>  <SMILES>  (53) 
[H]/N=c1/ccc(CNC(=O)[C@H]2CCCCN2C(=O)C=Cc2cccc(Oc3no[n+]([O-])c3S(=O)(=O)c3ccccc3)c2)c[n-]1

>  <Energy>  (53) 
136.44707059075407

>  <Genealogy>  (53) 
N=c1ccc(CNC(=O)C2CCCCN2C(=O)C=Cc2cccc(Oc3no[n+]([O-])c3S(=O)(=O)c3ccccc3)c2)c[n-]1 (protonated)
N=c1ccc(CNC(=O)[C@H]2CCCCN2C(=O)C=Cc2cccc(Oc3no[n+]([O-])c3S(=O)(=O)c3ccccc3)c2)c[n-]1 (chirality)
[H]/N=c1/ccc(CNC(=O)[C@H]2CCCCN2C(=O)C=Cc2cccc(Oc3no[n+]([O-])c3S(=O)(=O)c3ccccc3)c2)c[n-]1 (cis-trans isomerization)
[H]/N=c1/ccc(CNC(=O)[C@H]2CCCCN2C(=O)C=Cc2cccc(Oc3no[n+]([O-])c3S(=O)(=O)c3ccccc3)c2)c[n-]1 (3D coordinates assigned)
[H]/N=c1/ccc(CNC(=O)[C@H]2CCCCN2C(=O)C=Cc2cccc(Oc3no[n+]([O-])c3S(=O)(=O)c3ccccc3)c2)c[n-]1 (nonaromatic ring conformer: 136.44707059075407 kcal/mol)

>  <smiles>  (53) 
N=c1ccc(CNC(=O)C2CCCCN2C(=O)C=Cc2cccc(Oc3no[n+]([O-])c3S(=O)(=O)c3ccccc3)c2)c[nH]1

>  <score_type>  (53) 
oracle

>  <origin>  (53) 
adg

>  <m_score__min__energy>  (53) 
-16.43

>  <m_primary>  (53) 
energy

$$$$
53:0
     RDKit          3D

 64 68  0  0  0  0  0  0  0  0999 V2000
   60.7680   34.3510   46.8500 C   0  0  0  0  0  0  0  0  0  0  0  0
   59.4140   34.1540   47.5290 C   0  0  0  0  0  0  0  0  0  0  0  0
   59.5640   33.6580   48.9370 C   0  0  0  0  0  0  0  0  0  0  0  0
   58.8630   32.6230   49.5170 C   0  0  0  0  0  0  0  0  0  0  0  0
   59.3360   32.4170   50.7580 N   0  0  0  0  0  0  0  0  0  0  0  0
   60.3210   33.3340   50.8890 C   0  0  0  0  0  0  0  0  0  0  0  0
   61.1500   33.4730   52.1370 C   0  0  0  0  0  0  0  0  0  0  0  0
   62.4250   32.7240   52.0770 N   0  0  0  0  0  0  0  0  0  0  0  0
   63.5970   33.5500   51.6710 C   0  0  0  0  0  0  0  0  0  0  0  0
   64.3410   33.0570   50.4060 C   0  0  0  0  0  0  0  0  0  0  0  0
   63.4220   32.3750   49.4360 C   0  0  0  0  0  0  0  0  0  0  0  0
   63.5790   32.5200   48.0520 C   0  0  0  0  0  0  0  0  0  0  0  0
   62.7530   31.8080   47.1760 C   0  0  0  0  0  0  0  0  0  0  0  0
   61.7810   30.9220   47.6720 C   0  0  0  0  0  0  0  0  0  0  0  0
   60.9260   30.2250   46.7480 N   0  0  0  0  0  0  0  0  0  0  0  0
   60.0980   29.1080   47.1090 C   0  0  0  0  0  0  0  0  0  0  0  0
   60.3880   28.4010   48.1140 O   0  0  0  0  0  0  0  0  0  0  0  0
   58.9360   28.7440   46.2820 C   0  0  0  0  0  0  0  0  0  0  0  0
   57.7570   28.1730   46.7350 C   0  0  0  0  0  0  0  0  0  0  0  0
   56.9560   28.0440   45.6210 C   0  0  0  0  0  0  0  0  0  0  0  0
   55.6610   27.5330   45.6240 O   0  0  0  0  0  0  0  0  0  0  0  0
   57.5870   28.4910   44.5210 N   0  0  0  0  0  0  0  0  0  0  0  0
   57.0330   28.6040   43.1730 C   0  0  0  0  0  0  0  0  0  0  0  0
   56.1570   29.8560   43.0670 C   0  0  0  0  0  0  0  0  0  0  0  0
   56.9350   31.0810   43.4610 C   0  0  0  0  0  0  0  0  0  0  0  0
   56.8730   31.5670   44.7790 C   0  0  0  0  0  0  0  0  0  0  0  0
   57.6190   32.6900   45.1510 C   0  0  0  0  0  0  0  0  0  0  0  0
   58.4400   33.3280   44.2150 C   0  0  0  0  0  0  0  0  0  0  0  0
   59.1650   34.4160   44.5770 F   0  0  0  0  0  0  0  0  0  0  0  0
   58.5180   32.8410   42.9060 C   0  0  0  0  0  0  0  0  0  0  0  0
   57.7730   31.7200   42.5300 C   0  0  0  0  0  0  0  0  0  0  0  0
   58.7960   28.9380   44.9170 C   0  0  0  0  0  0  0  0  0  0  0  0
   61.6210   30.7890   49.0630 C   0  0  0  0  0  0  0  0  0  0  0  0
   62.4420   31.5140   49.9390 C   0  0  0  0  0  0  0  0  0  0  0  0
   62.3060   31.3980   51.4290 C   0  0  0  0  0  0  0  0  0  0  0  0
   60.4970   34.1070   49.7960 N   0  0  0  0  0  0  0  0  0  0  0  0
   61.5492   34.4647   47.6160 H   0  0  0  0  0  0  0  0  0  0  0  0
   60.9942   33.4763   46.2225 H   0  0  0  0  0  0  0  0  0  0  0  0
   60.7356   35.2539   46.2225 H   0  0  0  0  0  0  0  0  0  0  0  0
   58.8805   35.1158   47.5452 H   0  0  0  0  0  0  0  0  0  0  0  0
   58.8519   33.3998   46.9587 H   0  0  0  0  0  0  0  0  0  0  0  0
   58.0484   32.0572   49.0414 H   0  0  0  0  0  0  0  0  0  0  0  0
   61.3774   34.5385   52.2887 H   0  0  0  0  0  0  0  0  0  0  0  0
   60.5633   33.0531   52.9673 H   0  0  0  0  0  0  0  0  0  0  0  0
   63.2428   34.5739   51.4807 H   0  0  0  0  0  0  0  0  0  0  0  0
   64.3200   33.4831   52.4973 H   0  0  0  0  0  0  0  0  0  0  0  0
   64.8031   33.9219   49.9075 H   0  0  0  0  0  0  0  0  0  0  0  0
   65.0984   32.3254   50.7241 H   0  0  0  0  0  0  0  0  0  0  0  0
   64.3519   33.1938   47.6538 H   0  0  0  0  0  0  0  0  0  0  0  0
   62.8650   31.9425   46.0900 H   0  0  0  0  0  0  0  0  0  0  0  0
   60.9990   30.4660   45.7350 H   0  0  0  0  0  0  0  0  0  0  0  0
   57.5120   27.8834   47.7675 H   0  0  0  0  0  0  0  0  0  0  0  0
   57.8558   28.6731   42.4462 H   0  0  0  0  0  0  0  0  0  0  0  0
   56.4193   27.7162   42.9605 H   0  0  0  0  0  0  0  0  0  0  0  0
   55.8090   29.9670   42.0294 H   0  0  0  0  0  0  0  0  0  0  0  0
   55.2989   29.7471   43.7465 H   0  0  0  0  0  0  0  0  0  0  0  0
   56.2356   31.0623   45.5200 H   0  0  0  0  0  0  0  0  0  0  0  0
   57.5601   33.0721   46.1808 H   0  0  0  0  0  0  0  0  0  0  0  0
   59.1666   33.3410   42.1716 H   0  0  0  0  0  0  0  0  0  0  0  0
   57.8424   31.3359   41.5016 H   0  0  0  0  0  0  0  0  0  0  0  0
   59.5539   29.3872   44.2584 H   0  0  0  0  0  0  0  0  0  0  0  0
   60.8502   30.1148   49.4647 H   0  0  0  0  0  0  0  0  0  0  0  0
   61.3223   30.9677   51.6681 H   0  0  0  0  0  0  0  0  0  0  0  0
   63.1115   30.7502   51.8053 H   0  0  0  0  0  0  0  0  0  0  0  0
  1  2  1  0
  2  3  1  0
  3  4  2  0
  4  5  1  0
  5  6  1  0
  6  7  1  0
  7  8  1  0
  8  9  1  0
  9 10  1  0
 10 11  1  0
 11 12  2  0
 12 13  1  0
 13 14  2  0
 14 15  1  0
 15 16  1  0
 16 17  2  0
 16 18  1  0
 18 19  1  0
 19 20  2  0
 20 21  1  0
 20 22  1  0
 22 23  1  0
 23 24  1  0
 24 25  1  0
 25 26  2  0
 26 27  1  0
 27 28  2  0
 28 29  1  0
 28 30  1  0
 30 31  2  0
 22 32  1  0
 14 33  1  0
 33 34  2  0
 34 35  1  0
  6 36  2  0
 36  3  1  0
 35  8  1  0
 34 11  1  0
 32 18  2  0
 31 25  1  0
  1 37  1  0
  1 38  1  0
  1 39  1  0
  2 40  1  0
  2 41  1  0
  4 42  1  0
  7 43  1  0
  7 44  1  0
  9 45  1  0
  9 46  1  0
 10 47  1  0
 10 48  1  0
 12 49  1  0
 13 50  1  0
 15 51  1  0
 19 52  1  0
 23 53  1  0
 23 54  1  0
 24 55  1  0
 24 56  1  0
 26 57  1  0
 27 58  1  0
 30 59  1  0
 31 60  1  0
 32 61  1  0
 33 62  1  0
 35 63  1  0
 35 64  1  0
M  CHG  2   5  -1  21  -1
M  END
>  <UniqueID>  (54) 
51

>  <SMILES>  (54) 
CCc1c[n-]c(CN2CCc3ccc(NC(=O)c4cc([O-])n(CCc5ccc(F)cc5)c4)cc3C2)n1

>  <Energy>  (54) 
128.57087232625895

>  <Genealogy>  (54) 
CCc1c[n-]c(CN2CCc3ccc(NC(=O)c4cc([O-])n(CCc5ccc(F)cc5)c4)cc3C2)n1 (protonated)
CCc1c[n-]c(CN2CCc3ccc(NC(=O)c4cc([O-])n(CCc5ccc(F)cc5)c4)cc3C2)n1 (3D coordinates assigned)
CCc1c[n-]c(CN2CCc3ccc(NC(=O)c4cc([O-])n(CCc5ccc(F)cc5)c4)cc3C2)n1 (nonaromatic ring conformer: 128.57087232625895 kcal/mol)

>  <smiles>  (54) 
CCc1c[nH]c(CN2CCc3ccc(NC(=O)c4cc(O)n(CCc5ccc(F)cc5)c4)cc3C2)n1

>  <score_type>  (54) 
oracle

>  <origin>  (54) 
adg

>  <m_score__min__energy>  (54) 
-12.279999999999999

>  <m_primary>  (54) 
energy

$$$$
54:0
     RDKit          3D

 43 45  0  0  0  0  0  0  0  0999 V2000
   58.6920   28.5060   48.5910 O   0  0  0  0  0  0  0  0  0  0  0  0
   59.8730   28.2620   48.2280 C   0  0  0  0  0  0  0  0  0  0  0  0
   60.3840   26.9760   48.3650 O   0  0  0  0  0  0  0  0  0  0  0  0
   60.7390   29.3680   47.7100 C   0  0  0  0  0  0  0  0  0  0  0  0
   60.1920   30.6450   48.0390 O   0  0  0  0  0  0  0  0  0  0  0  0
   59.2630   31.3610   47.2640 C   0  0  0  0  0  0  0  0  0  0  0  0
   58.9860   31.0270   45.9230 C   0  0  0  0  0  0  0  0  0  0  0  0
   58.0190   31.7380   45.2000 C   0  0  0  0  0  0  0  0  0  0  0  0
   57.6700   31.3110   43.8320 C   0  0  0  0  0  0  0  0  0  0  0  0
   56.8300   30.3000   43.5480 C   0  0  0  0  0  0  0  0  0  0  0  0
   56.3310   29.3110   44.5320 C   0  0  0  0  0  0  0  0  0  0  0  0
   55.1480   29.4260   44.9510 O   0  0  0  0  0  0  0  0  0  0  0  0
   57.1510   28.1640   44.9900 C   0  0  0  0  0  0  0  0  0  0  0  0
   58.5370   28.1480   44.7440 C   0  0  0  0  0  0  0  0  0  0  0  0
   59.3300   27.1040   45.2290 C   0  0  0  0  0  0  0  0  0  0  0  0
   58.7500   26.0580   45.9530 C   0  0  0  0  0  0  0  0  0  0  0  0
   59.5560   25.0310   46.4380 O   0  0  0  0  0  0  0  0  0  0  0  0
   57.3680   26.0530   46.1830 C   0  0  0  0  0  0  0  0  0  0  0  0
   56.5680   27.0970   45.7050 C   0  0  0  0  0  0  0  0  0  0  0  0
   55.2020   27.0850   45.9720 O   0  0  0  0  0  0  0  0  0  0  0  0
   57.3770   32.8330   45.7940 C   0  0  0  0  0  0  0  0  0  0  0  0
   57.6530   33.1770   47.1180 C   0  0  0  0  0  0  0  0  0  0  0  0
   58.5850   32.4340   47.8680 C   0  0  0  0  0  0  0  0  0  0  0  0
   58.8520   32.7120   49.2190 O   0  0  0  0  0  0  0  0  0  0  0  0
   59.2270   31.7470   50.2020 C   0  0  0  0  0  0  0  0  0  0  0  0
   58.0340   31.3040   50.9850 C   0  0  0  0  0  0  0  0  0  0  0  0
   57.1610   32.1410   51.5730 N   0  0  0  0  0  0  0  0  0  0  0  0
   56.3030   31.3450   52.1910 N   0  0  0  0  0  0  0  0  0  0  0  0
   56.6420   30.0800   51.9930 N   0  0  0  0  0  0  0  0  0  0  0  0
   57.7290   30.0210   51.2420 N   0  0  0  0  0  0  0  0  0  0  0  0
   61.7402   29.2799   48.1569 H   0  0  0  0  0  0  0  0  0  0  0  0
   60.7962   29.2837   46.6147 H   0  0  0  0  0  0  0  0  0  0  0  0
   59.5324   30.2029   45.4410 H   0  0  0  0  0  0  0  0  0  0  0  0
   58.1257   31.8539   42.9908 H   0  0  0  0  0  0  0  0  0  0  0  0
   56.4878   30.1998   42.5074 H   0  0  0  0  0  0  0  0  0  0  0  0
   58.9989   28.9623   44.1664 H   0  0  0  0  0  0  0  0  0  0  0  0
   60.4137   27.1054   45.0404 H   0  0  0  0  0  0  0  0  0  0  0  0
   60.2910   25.2080   47.1140 H   0  0  0  0  0  0  0  0  0  0  0  0
   56.9094   25.2242   46.7422 H   0  0  0  0  0  0  0  0  0  0  0  0
   56.6525   33.4238   45.2142 H   0  0  0  0  0  0  0  0  0  0  0  0
   57.1394   34.0338   47.5786 H   0  0  0  0  0  0  0  0  0  0  0  0
   59.6748   30.8759   49.7013 H   0  0  0  0  0  0  0  0  0  0  0  0
   59.9530   32.2048   50.8899 H   0  0  0  0  0  0  0  0  0  0  0  0
  1  2  2  0
  2  3  1  0
  2  4  1  0
  4  5  1  0
  5  6  1  0
  6  7  2  0
  7  8  1  0
  8  9  1  0
  9 10  2  3
 10 11  1  0
 11 12  2  0
 11 13  1  0
 13 14  2  0
 14 15  1  0
 15 16  2  0
 16 17  1  0
 16 18  1  0
 18 19  2  0
 19 20  1  0
  8 21  2  0
 21 22  1  0
 22 23  2  0
 23 24  1  0
 24 25  1  0
 25 26  1  0
 26 27  1  0
 27 28  2  0
 28 29  1  0
 29 30  1  0
 23  6  1  0
 30 26  2  0
 19 13  1  0
  4 31  1  0
  4 32  1  0
  7 33  1  0
  9 34  1  0
 10 35  1  0
 14 36  1  0
 15 37  1  0
 17 38  1  0
 18 39  1  0
 21 40  1  0
 22 41  1  0
 25 42  1  0
 25 43  1  0
M  CHG  3   3  -1  20  -1  29  -1
M  END
>  <UniqueID>  (55) 
52

>  <SMILES>  (55) 
O=C([O-])COc1cc(C=CC(=O)c2ccc(O)cc2[O-])ccc1OCc1nn[n-]n1

>  <Energy>  (55) 
93.25170367851489

>  <Genealogy>  (55) 
O=C([O-])COc1cc(C=CC(=O)c2ccc(O)cc2[O-])ccc1OCc1nn[n-]n1 (protonated)
O=C([O-])COc1cc(C=CC(=O)c2ccc(O)cc2[O-])ccc1OCc1nn[n-]n1 (3D coordinates assigned)
O=C([O-])COc1cc(C=CC(=O)c2ccc(O)cc2[O-])ccc1OCc1nn[n-]n1 (optimized conformer: 93.25170367851489 kcal/mol)

>  <smiles>  (55) 
O=C(O)COc1cc(C=CC(=O)c2ccc(O)cc2O)ccc1OCc1nn[nH]n1

>  <score_type>  (55) 
oracle

>  <origin>  (55) 
adg

>  <m_score__min__energy>  (55) 
-14.18

>  <m_primary>  (55) 
energy

$$$$
55:0
     RDKit          3D

 46 48  0  0  0  0  0  0  0  0999 V2000
   57.6800   34.1510   46.2590 C   0  0  0  0  0  0  0  0  0  0  0  0
   58.6850   33.2450   45.5340 C   0  0  2  0  0  0  0  0  0  0  0  0
   60.1330   33.3660   46.0790 C   0  0  0  0  0  0  0  0  0  0  0  0
   60.7390   32.1140   46.7530 C   0  0  0  0  0  0  0  0  0  0  0  0
   61.9650   32.4020   47.5840 C   0  0  0  0  0  0  0  0  0  0  0  0
   62.1180   31.8150   48.8520 C   0  0  0  0  0  0  0  0  0  0  0  0
   63.2660   32.0640   49.6100 C   0  0  0  0  0  0  0  0  0  0  0  0
   64.2750   32.8920   49.1070 C   0  0  0  0  0  0  0  0  0  0  0  0
   64.1400   33.4660   47.8420 C   0  0  0  0  0  0  0  0  0  0  0  0
   62.9930   33.2160   47.0790 C   0  0  0  0  0  0  0  0  0  0  0  0
   58.6960   33.6010   44.1140 N   0  0  0  0  0  0  0  0  0  0  0  0
   58.2830   32.4730   43.3580 C   0  0  0  0  0  0  0  0  0  0  0  0
   58.1550   32.4880   42.1070 O   0  0  0  0  0  0  0  0  0  0  0  0
   58.0040   31.3420   44.1610 N   0  0  0  0  0  0  0  0  0  0  0  0
   57.2290   30.1710   43.7640 C   0  0  0  0  0  0  0  0  0  0  0  0
   55.9330   30.1340   44.5090 C   0  0  0  0  0  0  0  0  0  0  0  0
   55.1660   31.1360   44.4750 O   0  0  0  0  0  0  0  0  0  0  0  0
   55.5260   28.9250   45.1560 N   0  0  0  0  0  0  0  0  0  0  0  0
   56.3890   27.8700   45.6080 C   0  0  0  0  0  0  0  0  0  0  0  0
   57.7580   28.1410   45.7300 C   0  0  0  0  0  0  0  0  0  0  0  0
   58.6400   27.1570   46.1880 C   0  0  0  0  0  0  0  0  0  0  0  0
   58.1560   25.9010   46.5530 C   0  0  0  0  0  0  0  0  0  0  0  0
   56.7860   25.6240   46.4650 C   0  0  0  0  0  0  0  0  0  0  0  0
   56.1940   24.0420   46.9490 Cl  0  0  0  0  0  0  0  0  0  0  0  0
   55.8970   26.6080   46.0040 C   0  0  0  0  0  0  0  0  0  0  0  0
   54.5310   26.3340   45.9760 O   0  0  0  0  0  0  0  0  0  0  0  0
   58.1900   31.8150   45.4920 C   0  0  0  0  0  0  0  0  0  0  0  0
   57.8930   31.1290   46.5110 O   0  0  0  0  0  0  0  0  0  0  0  0
   57.8037   34.0394   47.3463 H   0  0  0  0  0  0  0  0  0  0  0  0
   57.8594   35.1985   45.9751 H   0  0  0  0  0  0  0  0  0  0  0  0
   56.6567   33.8643   45.9751 H   0  0  0  0  0  0  0  0  0  0  0  0
   60.7837   33.6349   45.2338 H   0  0  0  0  0  0  0  0  0  0  0  0
   60.0739   34.1190   46.8787 H   0  0  0  0  0  0  0  0  0  0  0  0
   59.9746   31.6676   47.4060 H   0  0  0  0  0  0  0  0  0  0  0  0
   61.0518   31.4357   45.9455 H   0  0  0  0  0  0  0  0  0  0  0  0
   61.3312   31.1570   49.2495 H   0  0  0  0  0  0  0  0  0  0  0  0
   63.3761   31.6075   50.6047 H   0  0  0  0  0  0  0  0  0  0  0  0
   65.1745   33.0906   49.7082 H   0  0  0  0  0  0  0  0  0  0  0  0
   64.9345   34.1146   47.4446 H   0  0  0  0  0  0  0  0  0  0  0  0
   62.8959   33.6599   46.0772 H   0  0  0  0  0  0  0  0  0  0  0  0
   58.9410   34.5370   43.7170 H   0  0  0  0  0  0  0  0  0  0  0  0
   57.0262   30.2183   42.6839 H   0  0  0  0  0  0  0  0  0  0  0  0
   57.8042   29.2631   43.9981 H   0  0  0  0  0  0  0  0  0  0  0  0
   58.1426   29.1364   45.4632 H   0  0  0  0  0  0  0  0  0  0  0  0
   59.7160   27.3738   46.2604 H   0  0  0  0  0  0  0  0  0  0  0  0
   58.8511   25.1270   46.9104 H   0  0  0  0  0  0  0  0  0  0  0  0
  2  1  1  1
  2  3  1  0
  3  4  1  0
  4  5  1  0
  5  6  2  0
  6  7  1  0
  7  8  2  0
  8  9  1  0
  9 10  2  0
  2 11  1  0
 11 12  1  0
 12 13  2  0
 12 14  1  0
 14 15  1  0
 15 16  1  0
 16 17  2  0
 16 18  1  0
 18 19  1  0
 19 20  2  0
 20 21  1  0
 21 22  2  0
 22 23  1  0
 23 24  1  0
 23 25  2  0
 25 26  1  0
 14 27  1  0
 27 28  2  0
 27  2  1  0
 10  5  1  0
 25 19  1  0
  1 29  1  0
  1 30  1  0
  1 31  1  0
  3 32  1  0
  3 33  1  0
  4 34  1  0
  4 35  1  0
  6 36  1  0
  7 37  1  0
  8 38  1  0
  9 39  1  0
 10 40  1  0
 11 41  1  0
 15 42  1  0
 15 43  1  0
 20 44  1  0
 21 45  1  0
 22 46  1  0
M  CHG  2  18  -1  26  -1
M  END
>  <UniqueID>  (56) 
53

>  <SMILES>  (56) 
C[C@]1(CCc2ccccc2)NC(=O)N(CC(=O)[N-]c2cccc(Cl)c2[O-])C1=O

>  <Energy>  (56) 
68.83775665488642

>  <Genealogy>  (56) 
CC1(CCc2ccccc2)NC(=O)N(CC(=O)[N-]c2cccc(Cl)c2[O-])C1=O (protonated)
C[C@]1(CCc2ccccc2)NC(=O)N(CC(=O)[N-]c2cccc(Cl)c2[O-])C1=O (chirality)
C[C@]1(CCc2ccccc2)NC(=O)N(CC(=O)[N-]c2cccc(Cl)c2[O-])C1=O (3D coordinates assigned)
C[C@]1(CCc2ccccc2)NC(=O)N(CC(=O)[N-]c2cccc(Cl)c2[O-])C1=O (nonaromatic ring conformer: 68.83775665488642 kcal/mol)

>  <smiles>  (56) 
CC1(CCc2ccccc2)NC(=O)N(CC(=O)Nc2cccc(Cl)c2O)C1=O

>  <score_type>  (56) 
oracle

>  <origin>  (56) 
adg

>  <m_score__min__energy>  (56) 
-15.630000000000001

>  <m_primary>  (56) 
energy

$$$$
56:0
     RDKit          3D

 32 33  0  0  0  0  0  0  0  0999 V2000
   60.0720   33.0430   47.3160 C   0  0  0  0  0  0  0  0  0  0  0  0
   58.6010   32.3940   48.0740 S   0  0  0  0  0  0  0  0  0  0  0  0
   57.3990   33.0550   47.4590 O   0  0  0  0  0  0  0  0  0  0  0  0
   58.5440   30.9090   47.8460 O   0  0  0  0  0  0  0  0  0  0  0  0
   58.6500   32.7270   49.7740 N   0  0  0  0  0  0  0  0  0  0  0  0
   58.3840   31.7730   50.8110 C   0  0  0  0  0  0  0  0  0  0  0  0
   59.4110   31.0630   51.4550 C   0  0  0  0  0  0  0  0  0  0  0  0
   59.1050   30.1460   52.4620 C   0  0  0  0  0  0  0  0  0  0  0  0
   57.7770   29.9240   52.8330 C   0  0  0  0  0  0  0  0  0  0  0  0
   56.7340   30.6160   52.1930 C   0  0  0  0  0  0  0  0  0  0  0  0
   55.3190   30.3980   52.5770 C   0  0  0  0  0  0  0  0  0  0  0  0
   55.0570   29.7590   53.6340 O   0  0  0  0  0  0  0  0  0  0  0  0
   54.2420   30.9170   51.7770 N   0  0  0  0  0  0  0  0  0  0  0  0
   52.8410   30.6380   52.0820 C   0  0  0  0  0  0  0  0  0  0  0  0
   51.9830   30.9470   50.8940 C   0  0  0  0  0  0  0  0  0  0  0  0
   51.8950   30.1630   49.8050 N   0  0  0  0  0  0  0  0  0  0  0  0
   51.0460   30.8420   49.0020 C   0  0  0  0  0  0  0  0  0  0  0  0
   50.7040   30.4210   47.8670 O   0  0  0  0  0  0  0  0  0  0  0  0
   50.5950   32.0100   49.5100 N   0  0  0  0  0  0  0  0  0  0  0  0
   51.2000   32.0610   50.7080 C   0  0  0  0  0  0  0  0  0  0  0  0
   51.0400   33.1060   51.6090 O   0  0  0  0  0  0  0  0  0  0  0  0
   57.0530   31.5480   51.1870 C   0  0  0  0  0  0  0  0  0  0  0  0
   60.7801   33.3554   48.0977 H   0  0  0  0  0  0  0  0  0  0  0  0
   60.5357   32.2659   46.6906 H   0  0  0  0  0  0  0  0  0  0  0  0
   59.8106   33.9093   46.6906 H   0  0  0  0  0  0  0  0  0  0  0  0
   60.4589   31.2301   51.1650 H   0  0  0  0  0  0  0  0  0  0  0  0
   59.9135   29.5958   52.9656 H   0  0  0  0  0  0  0  0  0  0  0  0
   57.5457   29.2031   53.6310 H   0  0  0  0  0  0  0  0  0  0  0  0
   54.4460   31.5640   50.9840 H   0  0  0  0  0  0  0  0  0  0  0  0
   52.7305   29.5753   52.3438 H   0  0  0  0  0  0  0  0  0  0  0  0
   52.5249   31.2671   52.9272 H   0  0  0  0  0  0  0  0  0  0  0  0
   56.2467   32.1069   50.6896 H   0  0  0  0  0  0  0  0  0  0  0  0
  1  2  1  0
  2  3  2  0
  2  4  2  0
  2  5  1  0
  5  6  1  0
  6  7  2  0
  7  8  1  0
  8  9  2  0
  9 10  1  0
 10 11  1  0
 11 12  2  0
 11 13  1  0
 13 14  1  0
 14 15  1  0
 15 16  1  0
 16 17  1  0
 17 18  2  0
 17 19  1  0
 19 20  1  0
 20 21  1  0
 10 22  2  0
 22  6  1  0
 20 15  2  0
  1 23  1  0
  1 24  1  0
  1 25  1  0
  7 26  1  0
  8 27  1  0
  9 28  1  0
 13 29  1  0
 14 30  1  0
 14 31  1  0
 22 32  1  0
M  CHG  4   5  -1  16  -1  19  -1  21  -1
M  END
>  <UniqueID>  (57) 
54

>  <SMILES>  (57) 
CS(=O)(=O)[N-]c1cccc(C(=O)NCc2[n-]c(=O)[n-]c2[O-])c1

>  <Energy>  (57) 
60.531220968125474

>  <Genealogy>  (57) 
CS(=O)(=O)[N-]c1cccc(C(=O)NCc2[n-]c(=O)[n-]c2[O-])c1 (protonated)
CS(=O)(=O)[N-]c1cccc(C(=O)NCc2[n-]c(=O)[n-]c2[O-])c1 (3D coordinates assigned)
CS(=O)(=O)[N-]c1cccc(C(=O)NCc2[n-]c(=O)[n-]c2[O-])c1 (optimized conformer: 60.531220968125474 kcal/mol)

>  <smiles>  (57) 
CS(=O)(=O)Nc1cccc(C(=O)NCc2[nH]c(=O)[nH]c2O)c1

>  <score_type>  (57) 
oracle

>  <origin>  (57) 
adg

>  <m_score__min__energy>  (57) 
-16.850000000000001

>  <m_primary>  (57) 
energy

$$$$
57:0
     RDKit          3D

 62 66  0  0  0  0  0  0  0  0999 V2000
   58.6154   23.2810   45.6456 H   0  0  0  0  0  0  0  0  0  0  0  0
   57.5440   23.5260   45.6010 C   0  0  0  0  0  0  0  0  0  0  0  0
   57.1320   24.8050   45.7830 N   0  0  0  0  0  0  0  0  0  0  0  0
   55.8230   25.1810   45.7390 C   0  0  0  0  0  0  0  0  0  0  0  0
   55.5700   26.4450   45.9500 N   0  0  0  0  0  0  0  0  0  0  0  0
   56.3560   27.5990   45.6300 C   0  0  0  0  0  0  0  0  0  0  0  0
   55.7940   28.5990   45.1050 O   0  0  0  0  0  0  0  0  0  0  0  0
   57.7960   27.6440   45.9710 C   0  0  0  0  0  0  0  0  0  0  0  0
   58.7590   27.9010   44.9780 C   0  0  0  0  0  0  0  0  0  0  0  0
   58.4394   28.0866   43.9420 H   0  0  0  0  0  0  0  0  0  0  0  0
   60.1180   27.9220   45.2990 C   0  0  0  0  0  0  0  0  0  0  0  0
   60.8629   28.1337   44.5177 H   0  0  0  0  0  0  0  0  0  0  0  0
   60.5340   27.6750   46.6090 C   0  0  0  0  0  0  0  0  0  0  0  0
   61.6054   27.6951   46.8574 H   0  0  0  0  0  0  0  0  0  0  0  0
   59.5880   27.4010   47.6100 C   0  0  0  0  0  0  0  0  0  0  0  0
   59.9650   27.1640   48.9390 O   0  0  0  0  0  0  0  0  0  0  0  0
   60.4450   28.1290   49.8380 C   0  0  0  0  0  0  0  0  0  0  0  0
   61.4320   27.7880   50.7850 C   0  0  0  0  0  0  0  0  0  0  0  0
   61.9027   26.7944   50.7493 H   0  0  0  0  0  0  0  0  0  0  0  0
   61.8060   28.6770   51.7410 N   0  0  0  0  0  0  0  0  0  0  0  0
   61.2520   29.9110   51.8230 C   0  0  0  0  0  0  0  0  0  0  0  0
   61.5804   30.6092   52.6070 H   0  0  0  0  0  0  0  0  0  0  0  0
   60.2670   30.2970   50.9160 C   0  0  0  0  0  0  0  0  0  0  0  0
   59.7995   31.2888   51.0039 H   0  0  0  0  0  0  0  0  0  0  0  0
   59.8700   29.4270   49.8930 C   0  0  0  0  0  0  0  0  0  0  0  0
   58.9640   29.8590   49.0580 N   0  0  0  0  0  0  0  0  0  0  0  0
   59.1140   30.7250   47.9230 C   0  0  0  0  0  0  0  0  0  0  0  0
   60.0080   30.4990   47.0660 O   0  0  0  0  0  0  0  0  0  0  0  0
   58.2890   31.8860   47.7740 N   0  0  0  0  0  0  0  0  0  0  0  0
   58.4510   32.9250   46.7960 C   0  0  0  0  0  0  0  0  0  0  0  0
   57.4310   33.2260   45.8760 C   0  0  0  0  0  0  0  0  0  0  0  0
   56.4848   32.6658   45.9062 H   0  0  0  0  0  0  0  0  0  0  0  0
   57.6120   34.2320   44.9240 C   0  0  0  0  0  0  0  0  0  0  0  0
   56.8132   34.4530   44.2008 H   0  0  0  0  0  0  0  0  0  0  0  0
   58.8030   34.9570   44.8880 C   0  0  0  0  0  0  0  0  0  0  0  0
   58.9468   35.7418   44.1308 H   0  0  0  0  0  0  0  0  0  0  0  0
   59.8130   34.6860   45.8140 C   0  0  0  0  0  0  0  0  0  0  0  0
   60.7504   35.2608   45.7838 H   0  0  0  0  0  0  0  0  0  0  0  0
   59.6400   33.6850   46.7830 C   0  0  0  0  0  0  0  0  0  0  0  0
   60.6880   33.4240   47.7320 N   0  0  0  0  0  0  0  0  0  0  0  0
   60.6450   33.7400   49.1100 C   0  0  0  0  0  0  0  0  0  0  0  0
   59.6720   34.3290   49.6540 O   0  0  0  0  0  0  0  0  0  0  0  0
   61.8790   33.3640   49.8260 C   0  0  0  0  0  0  0  0  0  0  0  0
   61.6627   32.6514   50.6356 H   0  0  0  0  0  0  0  0  0  0  0  0
   62.3739   34.2203   50.3075 H   0  0  0  0  0  0  0  0  0  0  0  0
   62.7400   32.7100   48.7330 C   0  0  0  0  0  0  0  0  0  0  0  0
   62.8859   31.6431   48.9576 H   0  0  0  0  0  0  0  0  0  0  0  0
   63.7296   33.1874   48.6809 H   0  0  0  0  0  0  0  0  0  0  0  0
   61.9880   32.8690   47.3960 C   0  0  0  0  0  0  0  0  0  0  0  0
   61.8711   31.8919   46.9045 H   0  0  0  0  0  0  0  0  0  0  0  0
   62.5367   33.5203   46.6998 H   0  0  0  0  0  0  0  0  0  0  0  0
   58.2250   27.4080   47.2900 C   0  0  0  0  0  0  0  0  0  0  0  0
   57.4806   27.2268   48.0793 H   0  0  0  0  0  0  0  0  0  0  0  0
   54.8340   24.1860   45.4480 C   0  0  0  0  0  0  0  0  0  0  0  0
   53.3640   24.4710   45.2550 C   0  0  0  0  0  0  0  0  0  0  0  0
   52.8768   24.5654   46.2367 H   0  0  0  0  0  0  0  0  0  0  0  0
   53.2430   25.4093   44.6938 H   0  0  0  0  0  0  0  0  0  0  0  0
   52.9011   23.6459   44.6938 H   0  0  0  0  0  0  0  0  0  0  0  0
   55.2610   22.8570   45.2810 C   0  0  0  0  0  0  0  0  0  0  0  0
   54.5186   22.0689   45.0869 H   0  0  0  0  0  0  0  0  0  0  0  0
   56.6110   22.5250   45.3580 C   0  0  0  0  0  0  0  0  0  0  0  0
   56.9355   21.4820   45.2280 H   0  0  0  0  0  0  0  0  0  0  0  0
  1  2  1  0
  2  3  1  0
  3  4  1  0
  4  5  2  3
  5  6  1  0
  6  7  2  0
  6  8  1  0
  8  9  2  0
  9 10  1  0
  9 11  1  0
 11 12  1  0
 11 13  2  0
 13 14  1  0
 13 15  1  0
 15 16  1  0
 16 17  1  0
 17 18  2  0
 18 19  1  0
 18 20  1  0
 20 21  1  0
 21 22  1  0
 21 23  2  0
 23 24  1  0
 23 25  1  0
 25 26  2  0
 26 27  1  0
 27 28  2  0
 27 29  1  0
 29 30  1  0
 30 31  2  0
 31 32  1  0
 31 33  1  0
 33 34  1  0
 33 35  2  0
 35 36  1  0
 35 37  1  0
 37 38  1  0
 37 39  2  0
 39 40  1  0
 40 41  1  0
 41 42  2  0
 41 43  1  0
 43 44  1  0
 43 45  1  0
 43 46  1  0
 46 47  1  0
 46 48  1  0
 46 49  1  0
 49 50  1  0
 49 51  1  0
 15 52  2  0
 52 53  1  0
  4 54  1  0
 54 55  1  0
 55 56  1  0
 55 57  1  0
 55 58  1  0
 54 59  2  0
 59 60  1  0
 59 61  1  0
 61 62  1  0
 61  2  2  0
 52  8  1  0
 25 17  1  0
 39 30  1  0
 49 40  1  0
M  CHG  3   3  -1  20  -1  29  -1
M  END
>  <UniqueID>  (58) 
55

>  <SMILES>  (58) 
Cc1ccc[n-]c1=NC(=O)c1cccc(Oc2c[n-]cc/c2=N/C(=O)[N-]c2ccccc2N2CCCC2=O)c1

>  <Energy>  (58) 
120.24157713952899

>  <Genealogy>  (58) 
Cc1ccc[n-]c1=NC(=O)c1cccc(Oc2c[n-]ccc2=NC(=O)[N-]c2ccccc2N2CCCC2=O)c1 (protonated)
Cc1ccc[n-]c1=NC(=O)c1cccc(Oc2c[n-]cc/c2=N/C(=O)[N-]c2ccccc2N2CCCC2=O)c1 (cis-trans isomerization)
Cc1ccc[n-]c1=NC(=O)c1cccc(Oc2c[n-]cc/c2=N/C(=O)[N-]c2ccccc2N2CCCC2=O)c1 (3D coordinates assigned)
Cc1ccc[n-]c1=NC(=O)c1cccc(Oc2c[n-]cc/c2=N/C(=O)[N-]c2ccccc2N2CCCC2=O)c1 (nonaromatic ring conformer: 120.24157713952899 kcal/mol)

>  <smiles>  (58) 
Cc1ccc[nH]c1=NC(=O)c1cccc(Oc2c[nH]ccc2=NC(=O)Nc2ccccc2N2CCCC2=O)c1

>  <score_type>  (58) 
oracle

>  <origin>  (58) 
adg

>  <m_score__min__energy>  (58) 
-13.220000000000001

>  <m_primary>  (58) 
energy

$$$$
58:0
     RDKit          3D

 38 40  0  0  0  0  0  0  0  0999 V2000
   56.5192   31.2422   43.4632 H   0  0  0  0  0  0  0  0  0  0  0  0
   56.6660   30.1880   43.7410 C   0  0  0  0  0  0  0  0  0  0  0  0
   56.0158   29.4107   43.3130 H   0  0  0  0  0  0  0  0  0  0  0  0
   57.6360   29.8510   44.6000 C   0  0  0  0  0  0  0  0  0  0  0  0
   57.9510   28.5670   45.0520 C   0  0  0  0  0  0  0  0  0  0  0  0
   57.3230   27.4160   44.7470 C   0  0  0  0  0  0  0  0  0  0  0  0
   56.8879   27.3105   43.7422 H   0  0  0  0  0  0  0  0  0  0  0  0
   57.1870   26.2850   45.6920 C   0  0  0  0  0  0  0  0  0  0  0  0
   55.9550   25.9660   46.2890 C   0  0  0  0  0  0  0  0  0  0  0  0
   54.8140   26.7090   46.0080 O   0  0  0  0  0  0  0  0  0  0  0  0
   55.8760   24.9350   47.1690 N   0  0  0  0  0  0  0  0  0  0  0  0
   56.9740   24.2100   47.5010 C   0  0  0  0  0  0  0  0  0  0  0  0
   56.8750   23.2560   48.3150 O   0  0  0  0  0  0  0  0  0  0  0  0
   58.1800   24.5160   46.9590 N   0  0  0  0  0  0  0  0  0  0  0  0
   58.3130   25.5370   46.0730 C   0  0  0  0  0  0  0  0  0  0  0  0
   59.4490   25.7950   45.5930 O   0  0  0  0  0  0  0  0  0  0  0  0
   59.0290   28.7110   45.9200 C   0  0  0  0  0  0  0  0  0  0  0  0
   59.5377   27.9081   46.4736 H   0  0  0  0  0  0  0  0  0  0  0  0
   59.3370   30.0580   45.9520 C   0  0  0  0  0  0  0  0  0  0  0  0
   60.4790   30.6460   46.7230 C   0  0  0  0  0  0  0  0  0  0  0  0
   60.2840   30.5456   47.8009 H   0  0  0  0  0  0  0  0  0  0  0  0
   61.4069   30.1136   46.4671 H   0  0  0  0  0  0  0  0  0  0  0  0
   60.5846   31.7106   46.4671 H   0  0  0  0  0  0  0  0  0  0  0  0
   58.4700   30.7450   45.1750 N   0  0  0  0  0  0  0  0  0  0  0  0
   58.4770   32.1290   44.9140 N   0  0  0  0  0  0  0  0  0  0  0  0
   57.9810   33.1210   45.8240 C   0  0  0  0  0  0  0  0  0  0  0  0
   56.9810   33.8060   45.4820 O   0  0  0  0  0  0  0  0  0  0  0  0
   58.5880   33.3320   47.1590 C   0  0  0  0  0  0  0  0  0  0  0  0
   58.3050   32.4420   48.2090 C   0  0  0  0  0  0  0  0  0  0  0  0
   57.6372   31.5856   48.0343 H   0  0  0  0  0  0  0  0  0  0  0  0
   58.8670   32.6380   49.4750 C   0  0  0  0  0  0  0  0  0  0  0  0
   58.6330   31.9415   50.2936 H   0  0  0  0  0  0  0  0  0  0  0  0
   59.7250   33.7170   49.7010 C   0  0  0  0  0  0  0  0  0  0  0  0
   60.2810   33.9120   50.9590 O   0  0  0  0  0  0  0  0  0  0  0  0
   60.0270   34.5990   48.6590 C   0  0  0  0  0  0  0  0  0  0  0  0
   60.7053   35.4467   48.8361 H   0  0  0  0  0  0  0  0  0  0  0  0
   59.4680   34.4050   47.3920 C   0  0  0  0  0  0  0  0  0  0  0  0
   59.7176   35.0952   46.5727 H   0  0  0  0  0  0  0  0  0  0  0  0
  1  2  1  0
  2  3  1  0
  2  4  2  0
  4  5  1  0
  5  6  2  0
  6  7  1  0
  6  8  1  0
  8  9  2  0
  9 10  1  0
  9 11  1  0
 11 12  1  0
 12 13  2  0
 12 14  1  0
 14 15  1  0
 15 16  2  0
  5 17  1  0
 17 18  1  0
 17 19  2  0
 19 20  1  0
 20 21  1  0
 20 22  1  0
 20 23  1  0
 19 24  1  0
 24 25  1  0
 25 26  1  0
 26 27  2  0
 26 28  1  0
 28 29  2  0
 29 30  1  0
 29 31  1  0
 31 32  1  0
 31 33  2  0
 33 34  1  0
 33 35  1  0
 35 36  1  0
 35 37  2  0
 37 38  1  0
 24  4  1  0
 37 28  1  0
 15  8  1  0
M  CHG  5  10  -1  11  -1  14  -1  25  -1  34  -1
M  END
>  <UniqueID>  (59) 
56

>  <SMILES>  (59) 
C=c1/c(=C/c2c([O-])[n-]c(=O)[n-]c2=O)cc(C)n1[N-]C(=O)c1ccc([O-])cc1

>  <Energy>  (59) 
87.18183089371864

>  <Genealogy>  (59) 
C=c1c(=Cc2c([O-])[n-]c(=O)[n-]c2=O)cc(C)n1[N-]C(=O)c1ccc([O-])cc1 (protonated)
C=c1/c(=C/c2c([O-])[n-]c(=O)[n-]c2=O)cc(C)n1[N-]C(=O)c1ccc([O-])cc1 (cis-trans isomerization)
C=c1/c(=C/c2c([O-])[n-]c(=O)[n-]c2=O)cc(C)n1[N-]C(=O)c1ccc([O-])cc1 (3D coordinates assigned)
C=c1/c(=C/c2c([O-])[n-]c(=O)[n-]c2=O)cc(C)n1[N-]C(=O)c1ccc([O-])cc1 (optimized conformer: 87.18183089371864 kcal/mol)

>  <smiles>  (59) 
C=c1c(=Cc2c(O)[nH]c(=O)[nH]c2=O)cc(C)n1NC(=O)c1ccc(O)cc1

>  <score_type>  (59) 
oracle

>  <origin>  (59) 
adg

>  <m_score__min__energy>  (59) 
-17.539999999999999

>  <m_primary>  (59) 
energy

$$$$
59:0
     RDKit          3D

 38 40  0  0  0  0  0  0  0  0999 V2000
   56.2480   30.0780   43.2560 C   0  0  0  0  0  0  0  0  0  0  0  0
   56.9230   30.2330   44.4090 C   0  0  0  0  0  0  0  0  0  0  0  0
   57.0140   31.5000   44.8800 N   0  0  0  0  0  0  0  0  0  0  0  0
   57.6860   31.8200   46.0070 C   0  0  0  0  0  0  0  0  0  0  0  0
   57.7390   33.0290   46.3580 O   0  0  0  0  0  0  0  0  0  0  0  0
   58.2900   30.8430   46.7490 N   0  0  0  0  0  0  0  0  0  0  0  0
   59.0520   31.1980   47.9660 C   0  0  0  0  0  0  0  0  0  0  0  0
   60.3490   31.8690   47.5930 C   0  0  0  0  0  0  0  0  0  0  0  0
   60.3640   33.2260   47.2330 C   0  0  0  0  0  0  0  0  0  0  0  0
   61.5600   33.8400   46.8470 C   0  0  0  0  0  0  0  0  0  0  0  0
   62.7460   33.1020   46.8130 C   0  0  0  0  0  0  0  0  0  0  0  0
   62.7390   31.7490   47.1640 C   0  0  0  0  0  0  0  0  0  0  0  0
   61.5460   31.1320   47.5500 C   0  0  0  0  0  0  0  0  0  0  0  0
   58.2160   29.5330   46.3430 C   0  0  0  0  0  0  0  0  0  0  0  0
   58.6900   28.6380   47.0960 O   0  0  0  0  0  0  0  0  0  0  0  0
   57.5670   29.1760   45.1240 C   0  0  0  0  0  0  0  0  0  0  0  0
   57.5380   27.8850   44.6760 C   0  0  0  0  0  0  0  0  0  0  0  0
   57.5050   26.6730   45.5250 C   0  0  0  0  0  0  0  0  0  0  0  0
   58.6480   25.8630   45.6490 C   0  0  0  0  0  0  0  0  0  0  0  0
   58.6040   24.6940   46.4120 C   0  0  0  0  0  0  0  0  0  0  0  0
   57.4140   24.3100   47.0370 C   0  0  0  0  0  0  0  0  0  0  0  0
   57.3710   23.1460   47.7960 O   0  0  0  0  0  0  0  0  0  0  0  0
   56.2660   25.0940   46.8960 C   0  0  0  0  0  0  0  0  0  0  0  0
   56.3040   26.2690   46.1350 C   0  0  0  0  0  0  0  0  0  0  0  0
   55.1500   27.0320   45.9970 O   0  0  0  0  0  0  0  0  0  0  0  0
   56.1347   29.0765   42.8154 H   0  0  0  0  0  0  0  0  0  0  0  0
   55.8093   30.9527   42.7536 H   0  0  0  0  0  0  0  0  0  0  0  0
   58.4525   31.8840   48.5824 H   0  0  0  0  0  0  0  0  0  0  0  0
   59.2730   30.2802   48.5306 H   0  0  0  0  0  0  0  0  0  0  0  0
   59.4313   33.8087   47.2546 H   0  0  0  0  0  0  0  0  0  0  0  0
   61.5669   34.9045   46.5700 H   0  0  0  0  0  0  0  0  0  0  0  0
   63.6860   33.5862   46.5097 H   0  0  0  0  0  0  0  0  0  0  0  0
   63.6735   31.1693   47.1364 H   0  0  0  0  0  0  0  0  0  0  0  0
   61.5432   30.0660   47.8212 H   0  0  0  0  0  0  0  0  0  0  0  0
   57.5393   27.7331   43.5865 H   0  0  0  0  0  0  0  0  0  0  0  0
   59.5810   26.1515   45.1427 H   0  0  0  0  0  0  0  0  0  0  0  0
   59.5066   24.0749   46.5212 H   0  0  0  0  0  0  0  0  0  0  0  0
   55.3293   24.7872   47.3844 H   0  0  0  0  0  0  0  0  0  0  0  0
  1  2  2  0
  2  3  1  0
  3  4  1  0
  4  5  2  0
  4  6  1  0
  6  7  1  0
  7  8  1  0
  8  9  2  0
  9 10  1  0
 10 11  2  0
 11 12  1  0
 12 13  2  0
  6 14  1  0
 14 15  2  0
 14 16  1  0
 16 17  2  3
 17 18  1  0
 18 19  2  0
 19 20  1  0
 20 21  2  0
 21 22  1  0
 21 23  1  0
 23 24  2  0
 24 25  1  0
 16  2  1  0
 24 18  1  0
 13  8  1  0
  1 26  1  0
  1 27  1  0
  7 28  1  0
  7 29  1  0
  9 30  1  0
 10 31  1  0
 11 32  1  0
 12 33  1  0
 13 34  1  0
 17 35  1  0
 19 36  1  0
 20 37  1  0
 23 38  1  0
M  CHG  3   3  -1  22  -1  25  -1
M  END
>  <UniqueID>  (60) 
57

>  <SMILES>  (60) 
C=c1[n-]c(=O)n(Cc2ccccc2)c(=O)c1=Cc1ccc([O-])cc1[O-]

>  <Energy>  (60) 
65.94606597658611

>  <Genealogy>  (60) 
C=c1[n-]c(=O)n(Cc2ccccc2)c(=O)c1=Cc1ccc([O-])cc1[O-] (protonated)
C=c1[n-]c(=O)n(Cc2ccccc2)c(=O)c1=Cc1ccc([O-])cc1[O-] (3D coordinates assigned)
C=c1[n-]c(=O)n(Cc2ccccc2)c(=O)c1=Cc1ccc([O-])cc1[O-] (optimized conformer: 65.94606597658611 kcal/mol)

>  <smiles>  (60) 
C=c1[nH]c(=O)n(Cc2ccccc2)c(=O)c1=Cc1ccc(O)cc1O

>  <score_type>  (60) 
oracle

>  <origin>  (60) 
adg

>  <m_score__min__energy>  (60) 
-14.960000000000001

>  <m_primary>  (60) 
energy

$$$$
60:0
     RDKit          3D

 49 52  0  0  0  0  0  0  0  0999 V2000
   64.4800   33.9380   52.5880 C   0  0  0  0  0  0  0  0  0  0  0  0
   63.5310   34.5140   51.5470 C   0  0  0  0  0  0  0  0  0  0  0  0
   63.0270   33.4420   50.6110 C   0  0  0  0  0  0  0  0  0  0  0  0
   63.8240   32.8140   49.6480 C   0  0  0  0  0  0  0  0  0  0  0  0
   65.2710   33.0760   49.3780 C   0  0  0  0  0  0  0  0  0  0  0  0
   62.8590   31.7940   48.7210 S   0  0  0  0  0  0  0  0  0  0  0  0
   61.4350   32.0670   49.5790 C   0  0  0  0  0  0  0  0  0  0  0  0
   60.1240   31.5950   49.2340 N   0  0  0  0  0  0  0  0  0  0  0  0
   58.9930   32.3890   48.8530 C   0  0  0  0  0  0  0  0  0  0  0  0
   58.0640   32.5500   49.6880 O   0  0  0  0  0  0  0  0  0  0  0  0
   58.8630   32.9940   47.5120 C   0  0  0  0  0  0  0  0  0  0  0  0
   59.2500   34.3270   47.3010 C   0  0  0  0  0  0  0  0  0  0  0  0
   59.1540   34.8950   46.0290 C   0  0  0  0  0  0  0  0  0  0  0  0
   58.6640   34.1420   44.9600 C   0  0  0  0  0  0  0  0  0  0  0  0
   58.2400   32.8180   45.1610 C   0  0  0  0  0  0  0  0  0  0  0  0
   57.7570   31.9910   43.9990 C   0  0  0  0  0  0  0  0  0  0  0  0
   57.3190   30.6280   44.4780 C   0  0  0  0  0  0  0  0  0  0  0  0
   55.9810   30.3890   44.5100 N   0  0  0  0  0  0  0  0  0  0  0  0
   55.4740   29.2170   44.8890 N   0  0  0  0  0  0  0  0  0  0  0  0
   56.2670   28.1870   45.2670 C   0  0  0  0  0  0  0  0  0  0  0  0
   55.7360   27.0990   45.6210 O   0  0  0  0  0  0  0  0  0  0  0  0
   57.6610   28.3460   45.2580 C   0  0  0  0  0  0  0  0  0  0  0  0
   58.5140   27.3000   45.6550 C   0  0  0  0  0  0  0  0  0  0  0  0
   59.8970   27.4720   45.6370 C   0  0  0  0  0  0  0  0  0  0  0  0
   60.4460   28.6780   45.2100 C   0  0  0  0  0  0  0  0  0  0  0  0
   59.6160   29.7300   44.8190 C   0  0  0  0  0  0  0  0  0  0  0  0
   58.2110   29.5870   44.8440 C   0  0  0  0  0  0  0  0  0  0  0  0
   58.3330   32.2540   46.4430 C   0  0  0  0  0  0  0  0  0  0  0  0
   61.6890   32.9960   50.5830 C   0  0  0  0  0  0  0  0  0  0  0  0
   60.6610   33.4840   51.4680 C   0  0  0  0  0  0  0  0  0  0  0  0
   59.8340   33.8760   52.1770 N   0  0  0  0  0  0  0  0  0  0  0  0
   64.1022   34.1673   53.5953 H   0  0  0  0  0  0  0  0  0  0  0  0
   64.5459   32.8474   52.4606 H   0  0  0  0  0  0  0  0  0  0  0  0
   65.4779   34.3830   52.4606 H   0  0  0  0  0  0  0  0  0  0  0  0
   62.6734   34.9742   52.0596 H   0  0  0  0  0  0  0  0  0  0  0  0
   64.0781   35.2625   50.9550 H   0  0  0  0  0  0  0  0  0  0  0  0
   65.8102   33.1736   50.3318 H   0  0  0  0  0  0  0  0  0  0  0  0
   65.6937   32.2398   48.8018 H   0  0  0  0  0  0  0  0  0  0  0  0
   65.3737   34.0073   48.8018 H   0  0  0  0  0  0  0  0  0  0  0  0
   59.6304   34.9264   48.1412 H   0  0  0  0  0  0  0  0  0  0  0  0
   59.4650   35.9379   45.8687 H   0  0  0  0  0  0  0  0  0  0  0  0
   58.6098   34.5877   43.9558 H   0  0  0  0  0  0  0  0  0  0  0  0
   56.9069   32.4986   43.5198 H   0  0  0  0  0  0  0  0  0  0  0  0
   58.5778   31.8718   43.2765 H   0  0  0  0  0  0  0  0  0  0  0  0
   58.0868   26.3404   45.9816 H   0  0  0  0  0  0  0  0  0  0  0  0
   60.5561   26.6531   45.9609 H   0  0  0  0  0  0  0  0  0  0  0  0
   61.5385   28.8024   45.1806 H   0  0  0  0  0  0  0  0  0  0  0  0
   60.0607   30.6801   44.4880 H   0  0  0  0  0  0  0  0  0  0  0  0
   57.9876   31.2233   46.6116 H   0  0  0  0  0  0  0  0  0  0  0  0
  1  2  1  0
  2  3  1  0
  3  4  2  0
  4  5  1  0
  4  6  1  0
  6  7  1  0
  7  8  1  0
  8  9  1  0
  9 10  2  0
  9 11  1  0
 11 12  2  0
 12 13  1  0
 13 14  2  0
 14 15  1  0
 15 16  1  0
 16 17  1  0
 17 18  2  0
 18 19  1  0
 19 20  1  0
 20 21  2  0
 20 22  1  0
 22 23  2  0
 23 24  1  0
 24 25  2  0
 25 26  1  0
 26 27  2  0
 15 28  2  0
  7 29  2  0
 29 30  1  0
 30 31  3  0
 29  3  1  0
 28 11  1  0
 27 17  1  0
 27 22  1  0
  1 32  1  0
  1 33  1  0
  1 34  1  0
  2 35  1  0
  2 36  1  0
  5 37  1  0
  5 38  1  0
  5 39  1  0
 12 40  1  0
 13 41  1  0
 14 42  1  0
 16 43  1  0
 16 44  1  0
 23 45  1  0
 24 46  1  0
 25 47  1  0
 26 48  1  0
 28 49  1  0
M  CHG  2   8  -1  19  -1
M  END
>  <UniqueID>  (61) 
58

>  <SMILES>  (61) 
CCc1c(C)sc([N-]C(=O)c2cccc(Cc3n[n-]c(=O)c4ccccc34)c2)c1C#N

>  <Energy>  (61) 
83.5682142799676

>  <Genealogy>  (61) 
CCc1c(C)sc([N-]C(=O)c2cccc(Cc3n[n-]c(=O)c4ccccc34)c2)c1C#N (protonated)
CCc1c(C)sc([N-]C(=O)c2cccc(Cc3n[n-]c(=O)c4ccccc34)c2)c1C#N (3D coordinates assigned)
CCc1c(C)sc([N-]C(=O)c2cccc(Cc3n[n-]c(=O)c4ccccc34)c2)c1C#N (optimized conformer: 83.5682142799676 kcal/mol)

>  <smiles>  (61) 
CCc1c(C)sc(NC(=O)c2cccc(Cc3n[nH]c(=O)c4ccccc34)c2)c1C#N

>  <score_type>  (61) 
oracle

>  <origin>  (61) 
adg

>  <m_score__min__energy>  (61) 
-14.08

>  <m_primary>  (61) 
energy

$$$$
61:0
     RDKit          3D

 39 41  0  0  0  0  0  0  0  0999 V2000
   64.0950   31.7220   49.5650 O   0  0  0  0  0  0  0  0  0  0  0  0
   63.1440   32.3150   48.9910 C   0  0  0  0  0  0  0  0  0  0  0  0
   61.9090   32.4370   49.6210 C   0  0  0  0  0  0  0  0  0  0  0  0
   60.8830   33.1020   48.9520 C   0  0  0  0  0  0  0  0  0  0  0  0
   61.0900   33.6160   47.7050 N   0  0  0  0  0  0  0  0  0  0  0  0
   59.7980   34.4550   46.8910 S   0  0  0  0  0  0  0  0  0  0  0  0
   60.3470   35.5310   45.9960 O   0  0  0  0  0  0  0  0  0  0  0  0
   58.9070   35.0930   47.9200 O   0  0  0  0  0  0  0  0  0  0  0  0
   58.8820   33.3140   45.9120 C   0  0  0  0  0  0  0  0  0  0  0  0
   58.6030   32.0350   46.4080 C   0  0  0  0  0  0  0  0  0  0  0  0
   57.8820   31.1220   45.6350 C   0  0  0  0  0  0  0  0  0  0  0  0
   57.4390   31.4750   44.3500 C   0  0  0  0  0  0  0  0  0  0  0  0
   56.6640   30.4850   43.5210 C   0  0  0  0  0  0  0  0  0  0  0  0
   57.4130   29.2360   43.3730 N   0  0  0  0  0  0  0  0  0  0  0  0
   57.8350   28.4030   44.4740 C   0  0  0  0  0  0  0  0  0  0  0  0
   59.1900   28.0670   44.6640 C   0  0  0  0  0  0  0  0  0  0  0  0
   59.5770   27.2610   45.7380 C   0  0  0  0  0  0  0  0  0  0  0  0
   58.6200   26.7750   46.6310 C   0  0  0  0  0  0  0  0  0  0  0  0
   57.2730   27.0940   46.4510 C   0  0  0  0  0  0  0  0  0  0  0  0
   56.8770   27.9030   45.3790 C   0  0  0  0  0  0  0  0  0  0  0  0
   55.5280   28.2090   45.2270 O   0  0  0  0  0  0  0  0  0  0  0  0
   57.7150   32.7610   43.8570 C   0  0  0  0  0  0  0  0  0  0  0  0
   58.4380   33.6730   44.6320 C   0  0  0  0  0  0  0  0  0  0  0  0
   62.3170   33.4880   47.1100 C   0  0  0  0  0  0  0  0  0  0  0  0
   62.5290   33.9680   45.9640 O   0  0  0  0  0  0  0  0  0  0  0  0
   63.3240   32.8420   47.7530 N   0  0  0  0  0  0  0  0  0  0  0  0
   61.7463   32.0178   50.6249 H   0  0  0  0  0  0  0  0  0  0  0  0
   59.8997   33.2133   49.4324 H   0  0  0  0  0  0  0  0  0  0  0  0
   58.9530   31.7479   47.4105 H   0  0  0  0  0  0  0  0  0  0  0  0
   57.6601   30.1215   46.0348 H   0  0  0  0  0  0  0  0  0  0  0  0
   55.7038   30.2740   44.0145 H   0  0  0  0  0  0  0  0  0  0  0  0
   56.4936   30.9157   42.5233 H   0  0  0  0  0  0  0  0  0  0  0  0
   57.6040   28.9180   42.3960 H   0  0  0  0  0  0  0  0  0  0  0  0
   59.9490   28.4419   43.9616 H   0  0  0  0  0  0  0  0  0  0  0  0
   60.6382   27.0088   45.8802 H   0  0  0  0  0  0  0  0  0  0  0  0
   58.9273   26.1411   47.4758 H   0  0  0  0  0  0  0  0  0  0  0  0
   56.5199   26.7084   47.1539 H   0  0  0  0  0  0  0  0  0  0  0  0
   57.3609   33.0519   42.8570 H   0  0  0  0  0  0  0  0  0  0  0  0
   58.6590   34.6752   44.2360 H   0  0  0  0  0  0  0  0  0  0  0  0
  1  2  2  0
  2  3  1  0
  3  4  2  0
  4  5  1  0
  5  6  1  0
  6  7  2  0
  6  8  2  0
  6  9  1  0
  9 10  2  0
 10 11  1  0
 11 12  2  0
 12 13  1  0
 13 14  1  0
 14 15  1  0
 15 16  2  0
 16 17  1  0
 17 18  2  0
 18 19  1  0
 19 20  2  0
 20 21  1  0
 12 22  1  0
 22 23  2  0
  5 24  1  0
 24 25  2  0
 24 26  1  0
 26  2  1  0
 23  9  1  0
 20 15  1  0
  3 27  1  0
  4 28  1  0
 10 29  1  0
 11 30  1  0
 13 31  1  0
 13 32  1  0
 14 33  1  0
 16 34  1  0
 17 35  1  0
 18 36  1  0
 19 37  1  0
 22 38  1  0
 23 39  1  0
M  CHG  2  21  -1  26  -1
M  END
>  <UniqueID>  (62) 
59

>  <SMILES>  (62) 
O=c1ccn(S(=O)(=O)c2ccc(CNc3ccccc3[O-])cc2)c(=O)[n-]1

>  <Energy>  (62) 
46.41651394180199

>  <Genealogy>  (62) 
O=c1ccn(S(=O)(=O)c2ccc(CNc3ccccc3[O-])cc2)c(=O)[n-]1 (protonated)
O=c1ccn(S(=O)(=O)c2ccc(CNc3ccccc3[O-])cc2)c(=O)[n-]1 (3D coordinates assigned)
O=c1ccn(S(=O)(=O)c2ccc(CNc3ccccc3[O-])cc2)c(=O)[n-]1 (optimized conformer: 46.41651394180199 kcal/mol)

>  <smiles>  (62) 
O=c1ccn(S(=O)(=O)c2ccc(CNc3ccccc3O)cc2)c(=O)[nH]1

>  <score_type>  (62) 
oracle

>  <origin>  (62) 
adg

>  <m_score__min__energy>  (62) 
-14.08

>  <m_primary>  (62) 
energy

$$$$
62:0
     RDKit          3D

 38 41  0  0  0  0  0  0  0  0999 V2000
   56.4680   19.2790   42.9790 H   0  0  0  0  0  0  0  0  0  0  0  0
   56.2510   20.2660   43.0450 O   0  0  0  0  0  0  0  0  0  0  0  0
   56.9460   21.1260   43.8970 C   0  0  0  0  0  0  0  0  0  0  0  0
   58.2620   21.4710   43.5830 C   0  0  0  0  0  0  0  0  0  0  0  0
   58.7326   21.0652   42.6754 H   0  0  0  0  0  0  0  0  0  0  0  0
   58.9820   22.3270   44.4140 C   0  0  0  0  0  0  0  0  0  0  0  0
   60.0175   22.5961   44.1586 H   0  0  0  0  0  0  0  0  0  0  0  0
   58.3940   22.8440   45.5690 C   0  0  0  0  0  0  0  0  0  0  0  0
   58.9708   23.5191   46.2182 H   0  0  0  0  0  0  0  0  0  0  0  0
   57.0690   22.5100   45.9120 C   0  0  0  0  0  0  0  0  0  0  0  0
   56.4700   23.0690   47.1540 C   0  0  0  0  0  0  0  0  0  0  0  0
   56.6130   22.4660   48.2530 O   0  0  0  0  0  0  0  0  0  0  0  0
   55.7280   24.2990   47.0960 N   0  0  0  0  0  0  0  0  0  0  0  0
   56.1020   25.4010   46.5140 C   0  0  0  0  0  0  0  0  0  0  0  0
   55.2180   26.3600   46.1670 N   0  0  0  0  0  0  0  0  0  0  0  0
   55.9990   27.3050   45.6210 C   0  0  0  0  0  0  0  0  0  0  0  0
   55.5230   28.5140   45.1280 O   0  0  0  0  0  0  0  0  0  0  0  0
   57.3120   26.9030   45.6360 C   0  0  0  0  0  0  0  0  0  0  0  0
   58.5000   27.7050   45.2070 C   0  0  0  0  0  0  0  0  0  0  0  0
   59.4198   27.2028   45.5414 H   0  0  0  0  0  0  0  0  0  0  0  0
   58.5029   27.7918   44.1104 H   0  0  0  0  0  0  0  0  0  0  0  0
   58.4330   29.0730   45.8110 C   0  0  0  0  0  0  0  0  0  0  0  0
   58.7970   29.4300   47.1090 C   0  0  0  0  0  0  0  0  0  0  0  0
   59.1186   28.7223   47.8873 H   0  0  0  0  0  0  0  0  0  0  0  0
   58.6990   30.7710   47.2770 N   0  0  0  0  0  0  0  0  0  0  0  0
   58.9090   31.3120   48.1440 H   0  0  0  0  0  0  0  0  0  0  0  0
   58.2900   31.2540   46.0930 C   0  0  0  0  0  0  0  0  0  0  0  0
   58.0790   32.5600   45.7910 N   0  0  0  0  0  0  0  0  0  0  0  0
   57.6790   32.8930   44.5260 C   0  0  0  0  0  0  0  0  0  0  0  0
   57.5005   33.9477   44.2697 H   0  0  0  0  0  0  0  0  0  0  0  0
   57.4930   31.8900   43.5440 C   0  0  0  0  0  0  0  0  0  0  0  0
   57.1695   32.1647   42.5292 H   0  0  0  0  0  0  0  0  0  0  0  0
   57.7230   30.5420   43.8700 C   0  0  0  0  0  0  0  0  0  0  0  0
   57.5935   29.7436   43.1245 H   0  0  0  0  0  0  0  0  0  0  0  0
   58.1210   30.2570   45.1730 C   0  0  0  0  0  0  0  0  0  0  0  0
   57.3900   25.6940   46.2180 N   0  0  0  0  0  0  0  0  0  0  0  0
   56.3430   21.6450   45.0580 C   0  0  0  0  0  0  0  0  0  0  0  0
   55.0260   21.2990   45.3480 O   0  0  0  0  0  0  0  0  0  0  0  0
  1  2  1  0
  2  3  1  0
  3  4  2  0
  4  5  1  0
  4  6  1  0
  6  7  1  0
  6  8  2  0
  8  9  1  0
  8 10  1  0
 10 11  1  0
 11 12  2  0
 11 13  1  0
 13 14  2  0
 14 15  1  0
 15 16  1  0
 16 17  1  0
 16 18  2  0
 18 19  1  0
 19 20  1  0
 19 21  1  0
 19 22  1  0
 22 23  2  0
 23 24  1  0
 23 25  1  0
 25 26  1  0
 25 27  1  0
 27 28  2  0
 28 29  1  0
 29 30  1  0
 29 31  2  0
 31 32  1  0
 31 33  1  0
 33 34  1  0
 33 35  2  0
 18 36  1  0
 10 37  2  0
 37 38  1  0
 37  3  1  0
 36 14  1  0
 35 22  1  0
 35 27  1  0
M  CHG  4  15  -1  17  -1  36  -1  38  -1
M  END
>  <UniqueID>  (63) 
60

>  <SMILES>  (63) 
O=C(/N=c1/[n-]c([O-])c(Cc2c[nH]c3ncccc23)[n-]1)c1cccc(O)c1[O-]

>  <Energy>  (63) 
109.34779429459985

>  <Genealogy>  (63) 
O=C(N=c1[n-]c([O-])c(Cc2c[nH]c3ncccc23)[n-]1)c1cccc(O)c1[O-] (protonated)
O=C(/N=c1/[n-]c([O-])c(Cc2c[nH]c3ncccc23)[n-]1)c1cccc(O)c1[O-] (cis-trans isomerization)
O=C(/N=c1/[n-]c([O-])c(Cc2c[nH]c3ncccc23)[n-]1)c1cccc(O)c1[O-] (3D coordinates assigned)
O=C(/N=c1/[n-]c([O-])c(Cc2c[nH]c3ncccc23)[n-]1)c1cccc(O)c1[O-] (optimized conformer: 109.34779429459985 kcal/mol)

>  <smiles>  (63) 
O=C(N=c1[nH]c(O)c(Cc2c[nH]c3ncccc23)[nH]1)c1cccc(O)c1O

>  <score_type>  (63) 
oracle

>  <origin>  (63) 
adg

>  <m_score__min__energy>  (63) 
-16.559999999999999

>  <m_primary>  (63) 
energy

$$$$
63:0
     RDKit          3D

 31 32  0  0  0  0  0  0  0  0999 V2000
   55.1480   29.3390   44.8410 N   0  0  0  0  0  0  0  0  0  0  0  0
   56.6890   30.0660   44.5490 S   0  0  0  0  0  0  0  0  0  0  0  0
   56.5750   31.5590   44.6800 O   0  0  0  0  0  0  0  0  0  0  0  0
   57.1380   29.7150   43.1590 O   0  0  0  0  0  0  0  0  0  0  0  0
   57.8500   29.4600   45.7140 C   0  0  0  0  0  0  0  0  0  0  0  0
   58.4270   30.1960   46.7270 C   0  0  0  0  0  0  0  0  0  0  0  0
   59.2660   29.3230   47.3880 C   0  0  0  0  0  0  0  0  0  0  0  0
   59.1400   28.1130   46.7310 C   0  0  0  0  0  0  0  0  0  0  0  0
   59.8660   26.8510   47.0710 C   0  0  0  0  0  0  0  0  0  0  0  0
   58.9330   25.7320   47.1280 N   0  0  0  0  0  0  0  0  0  0  0  0
   58.5970   24.9250   45.9940 C   0  0  0  0  0  0  0  0  0  0  0  0
   59.0660   23.7610   45.8760 O   0  0  0  0  0  0  0  0  0  0  0  0
   57.6410   25.4480   44.9690 C   0  0  0  0  0  0  0  0  0  0  0  0
   56.3570   24.7390   45.0690 N   0  0  0  0  0  0  0  0  0  0  0  0
   56.2770   23.4400   44.6500 C   0  0  0  0  0  0  0  0  0  0  0  0
   55.0810   22.7340   44.7550 C   0  0  0  0  0  0  0  0  0  0  0  0
   53.9740   23.3770   45.3050 C   0  0  0  0  0  0  0  0  0  0  0  0
   52.8770   22.7710   45.4140 O   0  0  0  0  0  0  0  0  0  0  0  0
   54.0830   24.6610   45.7250 N   0  0  0  0  0  0  0  0  0  0  0  0
   55.2540   25.3440   45.6180 C   0  0  0  0  0  0  0  0  0  0  0  0
   55.3090   26.5330   46.0320 O   0  0  0  0  0  0  0  0  0  0  0  0
   58.2900   28.2240   45.7360 O   0  0  0  0  0  0  0  0  0  0  0  0
   55.2750   28.6560   45.6210 H   0  0  0  0  0  0  0  0  0  0  0  0
   58.2545   31.2572   46.9595 H   0  0  0  0  0  0  0  0  0  0  0  0
   59.9030   29.5437   48.2572 H   0  0  0  0  0  0  0  0  0  0  0  0
   60.6265   26.6510   46.3018 H   0  0  0  0  0  0  0  0  0  0  0  0
   60.3466   26.9675   48.0536 H   0  0  0  0  0  0  0  0  0  0  0  0
   57.4776   26.5225   45.1383 H   0  0  0  0  0  0  0  0  0  0  0  0
   58.0642   25.2877   43.9664 H   0  0  0  0  0  0  0  0  0  0  0  0
   57.1650   22.9482   44.2263 H   0  0  0  0  0  0  0  0  0  0  0  0
   55.0119   21.6914   44.4112 H   0  0  0  0  0  0  0  0  0  0  0  0
  1  2  1  0
  2  3  2  0
  2  4  2  0
  2  5  1  0
  5  6  2  0
  6  7  1  0
  7  8  2  0
  8  9  1  0
  9 10  1  0
 10 11  1  0
 11 12  2  0
 11 13  1  0
 13 14  1  0
 14 15  1  0
 15 16  2  0
 16 17  1  0
 17 18  2  0
 17 19  1  0
 19 20  1  0
 20 21  2  0
  8 22  1  0
 22  5  1  0
 20 14  1  0
  1 23  1  0
  6 24  1  0
  7 25  1  0
  9 26  1  0
  9 27  1  0
 13 28  1  0
 13 29  1  0
 15 30  1  0
 16 31  1  0
M  CHG  3   1  -1  10  -1  19  -1
M  END
>  <UniqueID>  (64) 
61

>  <SMILES>  (64) 
[NH-]S(=O)(=O)c1ccc(C[N-]C(=O)Cn2ccc(=O)[n-]c2=O)o1

>  <Energy>  (64) 
55.07642328027759

>  <Genealogy>  (64) 
[NH-]S(=O)(=O)c1ccc(C[N-]C(=O)Cn2ccc(=O)[n-]c2=O)o1 (protonated)
[NH-]S(=O)(=O)c1ccc(C[N-]C(=O)Cn2ccc(=O)[n-]c2=O)o1 (3D coordinates assigned)
[NH-]S(=O)(=O)c1ccc(C[N-]C(=O)Cn2ccc(=O)[n-]c2=O)o1 (optimized conformer: 55.07642328027759 kcal/mol)

>  <smiles>  (64) 
NS(=O)(=O)c1ccc(CNC(=O)Cn2ccc(=O)[nH]c2=O)o1

>  <score_type>  (64) 
oracle

>  <origin>  (64) 
adg

>  <m_score__min__energy>  (64) 
-13.06

>  <m_primary>  (64) 
energy

$$$$
64:0
     RDKit          3D

 44 44  0  0  0  0  0  0  0  0999 V2000
   57.4700   31.5150   43.2460 C   0  0  0  0  0  0  0  0  0  0  0  0
   56.6710   30.4490   43.3310 C   0  0  0  0  0  0  0  0  0  0  0  0
   56.1380   29.9350   42.1960 F   0  0  0  0  0  0  0  0  0  0  0  0
   56.2990   29.8520   44.6290 C   0  0  0  0  0  0  0  0  0  0  0  0
   55.1330   29.4090   44.7890 O   0  0  0  0  0  0  0  0  0  0  0  0
   57.2800   29.7140   45.6650 N   0  0  0  0  0  0  0  0  0  0  0  0
   58.0500   28.5500   45.9990 C   0  0  0  0  0  0  0  0  0  0  0  0
   59.3900   28.3920   45.6050 C   0  0  0  0  0  0  0  0  0  0  0  0
   60.0830   27.2230   45.9330 C   0  0  0  0  0  0  0  0  0  0  0  0
   59.4490   26.2060   46.6460 C   0  0  0  0  0  0  0  0  0  0  0  0
   58.1040   26.3340   47.0130 C   0  0  0  0  0  0  0  0  0  0  0  0
   57.4340   25.2610   47.8260 C   0  0  0  0  0  0  0  0  0  0  0  0
   56.2900   24.7330   47.0960 N   0  0  0  0  0  0  0  0  0  0  0  0
   55.8550   25.2510   45.8370 C   0  0  0  0  0  0  0  0  0  0  0  0
   54.7300   25.8110   45.7270 O   0  0  0  0  0  0  0  0  0  0  0  0
   56.6990   25.0530   44.6230 C   0  0  0  0  0  0  0  0  0  0  0  0
   56.0470   24.1110   43.7240 N   0  0  0  0  0  0  0  0  0  0  0  0
   56.0180   22.6980   43.9530 C   0  0  0  0  0  0  0  0  0  0  0  0
   55.9370   21.9000   42.9810 O   0  0  0  0  0  0  0  0  0  0  0  0
   56.1730   22.1780   45.3490 C   0  0  0  0  0  0  0  0  0  0  0  0
   56.9940   20.8820   45.3970 C   0  0  0  0  0  0  0  0  0  0  0  0
   58.3860   21.1460   45.7540 N   0  0  0  0  0  0  0  0  0  0  0  0
   59.1230   22.1320   45.3270 C   0  0  0  0  0  0  0  0  0  0  0  0
   60.2930   21.8350   44.5650 N   0  0  0  0  0  0  0  0  0  0  0  0
   58.7970   23.5000   45.6030 N   0  0  0  0  0  0  0  0  0  0  0  0
   57.4120   27.5110   46.6870 C   0  0  0  0  0  0  0  0  0  0  0  0
   57.9114   31.9455   44.1569 H   0  0  0  0  0  0  0  0  0  0  0  0
   57.6870   31.9629   42.2650 H   0  0  0  0  0  0  0  0  0  0  0  0
   59.8938   29.1888   45.0381 H   0  0  0  0  0  0  0  0  0  0  0  0
   61.1330   27.1049   45.6273 H   0  0  0  0  0  0  0  0  0  0  0  0
   60.0080   25.2995   46.9212 H   0  0  0  0  0  0  0  0  0  0  0  0
   58.1501   24.4489   48.0202 H   0  0  0  0  0  0  0  0  0  0  0  0
   57.0913   25.6880   48.7800 H   0  0  0  0  0  0  0  0  0  0  0  0
   56.8334   26.0164   44.1093 H   0  0  0  0  0  0  0  0  0  0  0  0
   57.6802   24.6549   44.9208 H   0  0  0  0  0  0  0  0  0  0  0  0
   56.6803   22.9414   45.9571 H   0  0  0  0  0  0  0  0  0  0  0  0
   55.1691   21.9566   45.7403 H   0  0  0  0  0  0  0  0  0  0  0  0
   56.5542   20.2072   46.1461 H   0  0  0  0  0  0  0  0  0  0  0  0
   56.9739   20.4221   44.3979 H   0  0  0  0  0  0  0  0  0  0  0  0
   60.5450   20.8440   44.3420 H   0  0  0  0  0  0  0  0  0  0  0  0
   60.9030   22.5990   44.2020 H   0  0  0  0  0  0  0  0  0  0  0  0
   59.4000   24.2640   45.2200 H   0  0  0  0  0  0  0  0  0  0  0  0
   57.9670   23.7880   46.1650 H   0  0  0  0  0  0  0  0  0  0  0  0
   56.3559   27.6182   46.9755 H   0  0  0  0  0  0  0  0  0  0  0  0
  1  2  2  0
  2  3  1  0
  2  4  1  0
  4  5  2  0
  4  6  1  0
  6  7  1  0
  7  8  2  0
  8  9  1  0
  9 10  2  0
 10 11  1  0
 11 12  1  0
 12 13  1  0
 13 14  1  0
 14 15  2  0
 14 16  1  0
 16 17  1  0
 17 18  1  0
 18 19  2  0
 18 20  1  0
 20 21  1  0
 21 22  1  0
 22 23  2  3
 23 24  1  0
 23 25  1  0
 11 26  2  0
 26  7  1  0
  1 27  1  0
  1 28  1  0
  8 29  1  0
  9 30  1  0
 10 31  1  0
 12 32  1  0
 12 33  1  0
 16 34  1  0
 16 35  1  0
 20 36  1  0
 20 37  1  0
 21 38  1  0
 21 39  1  0
 24 40  1  0
 24 41  1  0
 25 42  1  0
 25 43  1  0
 26 44  1  0
M  CHG  3   6  -1  13  -1  17  -1
M  END
>  <UniqueID>  (65) 
62

>  <SMILES>  (65) 
C=C(F)C(=O)[N-]c1cccc(C[N-]C(=O)C[N-]C(=O)CCN=C(N)N)c1

>  <Energy>  (65) 
30.414452427722647

>  <Genealogy>  (65) 
C=C(F)C(=O)[N-]c1cccc(C[N-]C(=O)C[N-]C(=O)CCN=C(N)N)c1 (protonated)
C=C(F)C(=O)[N-]c1cccc(C[N-]C(=O)C[N-]C(=O)CCN=C(N)N)c1 (3D coordinates assigned)
C=C(F)C(=O)[N-]c1cccc(C[N-]C(=O)C[N-]C(=O)CCN=C(N)N)c1 (optimized conformer: 30.414452427722647 kcal/mol)

>  <smiles>  (65) 
C=C(F)C(=O)Nc1cccc(CNC(=O)CNC(=O)CCN=C(N)N)c1

>  <score_type>  (65) 
oracle

>  <origin>  (65) 
adg

>  <m_score__min__energy>  (65) 
-12.390000000000001

>  <m_primary>  (65) 
energy

$$$$
65:0
     RDKit          3D

 53 57  0  0  0  0  0  0  0  0999 V2000
   60.8770   29.8930   50.1060 C   0  0  0  0  0  0  0  0  0  0  0  0
   60.8520   30.6340   51.3220 O   0  0  0  0  0  0  0  0  0  0  0  0
   59.6950   31.1790   51.9020 C   0  0  0  0  0  0  0  0  0  0  0  0
   58.4710   30.4800   51.9100 C   0  0  0  0  0  0  0  0  0  0  0  0
   57.3330   31.0520   52.4840 C   0  0  0  0  0  0  0  0  0  0  0  0
   57.4000   32.3240   53.0530 C   0  0  0  0  0  0  0  0  0  0  0  0
   58.6060   33.0280   53.0540 C   0  0  0  0  0  0  0  0  0  0  0  0
   59.7610   32.4610   52.4910 C   0  0  0  0  0  0  0  0  0  0  0  0
   61.0410   33.2570   52.4720 C   0  0  0  0  0  0  0  0  0  0  0  0
   61.4800   33.4930   51.0610 C   0  0  0  0  0  0  0  0  0  0  0  0
   62.7210   33.4810   50.6910 N   0  0  0  0  0  0  0  0  0  0  0  0
   62.7110   33.7850   49.2950 C   0  0  0  0  0  0  0  0  0  0  0  0
   63.7540   33.8110   48.5910 O   0  0  0  0  0  0  0  0  0  0  0  0
   61.4070   34.0410   48.7780 N   0  0  0  0  0  0  0  0  0  0  0  0
   60.9780   33.8860   47.3900 C   0  0  0  0  0  0  0  0  0  0  0  0
   60.3910   32.5170   47.1760 C   0  0  0  0  0  0  0  0  0  0  0  0
   59.0430   32.2700   47.4740 C   0  0  0  0  0  0  0  0  0  0  0  0
   58.5150   30.9840   47.3420 C   0  0  0  0  0  0  0  0  0  0  0  0
   59.3350   29.9220   46.9290 C   0  0  0  0  0  0  0  0  0  0  0  0
   58.7790   28.5570   46.8010 C   0  0  0  0  0  0  0  0  0  0  0  0
   59.4320   27.5110   47.4760 C   0  0  0  0  0  0  0  0  0  0  0  0
   59.0070   26.1910   47.3200 C   0  0  0  0  0  0  0  0  0  0  0  0
   57.9290   25.8970   46.4870 C   0  0  0  0  0  0  0  0  0  0  0  0
   57.2590   26.9240   45.8210 C   0  0  0  0  0  0  0  0  0  0  0  0
   57.6580   28.2650   45.9770 C   0  0  0  0  0  0  0  0  0  0  0  0
   56.8580   29.3220   45.3100 C   0  0  0  0  0  0  0  0  0  0  0  0
   55.5440   29.2150   45.0300 N   0  0  0  0  0  0  0  0  0  0  0  0
   55.2170   30.3740   44.4820 N   0  0  0  0  0  0  0  0  0  0  0  0
   56.2790   31.1610   44.4340 N   0  0  0  0  0  0  0  0  0  0  0  0
   57.3240   30.5330   44.9510 N   0  0  0  0  0  0  0  0  0  0  0  0
   60.6800   30.1700   46.6190 C   0  0  0  0  0  0  0  0  0  0  0  0
   61.2070   31.4580   46.7490 C   0  0  0  0  0  0  0  0  0  0  0  0
   60.6130   33.8200   49.9330 C   0  0  0  0  0  0  0  0  0  0  0  0
   59.3540   33.8720   49.9540 O   0  0  0  0  0  0  0  0  0  0  0  0
   60.9133   28.8173   50.3328 H   0  0  0  0  0  0  0  0  0  0  0  0
   59.9709   30.1144   49.5230 H   0  0  0  0  0  0  0  0  0  0  0  0
   61.7661   30.1750   49.5230 H   0  0  0  0  0  0  0  0  0  0  0  0
   58.4114   29.4774   51.4613 H   0  0  0  0  0  0  0  0  0  0  0  0
   56.3824   30.4984   52.4873 H   0  0  0  0  0  0  0  0  0  0  0  0
   56.5016   32.7730   53.5015 H   0  0  0  0  0  0  0  0  0  0  0  0
   58.6517   34.0331   53.4986 H   0  0  0  0  0  0  0  0  0  0  0  0
   60.8748   34.2247   52.9678 H   0  0  0  0  0  0  0  0  0  0  0  0
   61.8228   32.6936   53.0024 H   0  0  0  0  0  0  0  0  0  0  0  0
   60.2186   34.6471   47.1575 H   0  0  0  0  0  0  0  0  0  0  0  0
   61.8490   34.0097   46.7297 H   0  0  0  0  0  0  0  0  0  0  0  0
   58.3981   33.0939   47.8136 H   0  0  0  0  0  0  0  0  0  0  0  0
   57.4527   30.8025   47.5624 H   0  0  0  0  0  0  0  0  0  0  0  0
   60.2854   27.7350   48.1329 H   0  0  0  0  0  0  0  0  0  0  0  0
   59.5238   25.3810   47.8555 H   0  0  0  0  0  0  0  0  0  0  0  0
   57.6059   24.8539   46.3544 H   0  0  0  0  0  0  0  0  0  0  0  0
   56.4087   26.6828   45.1661 H   0  0  0  0  0  0  0  0  0  0  0  0
   61.3228   29.3475   46.2721 H   0  0  0  0  0  0  0  0  0  0  0  0
   62.2660   31.6425   46.5156 H   0  0  0  0  0  0  0  0  0  0  0  0
  1  2  1  0
  2  3  1  0
  3  4  2  0
  4  5  1  0
  5  6  2  0
  6  7  1  0
  7  8  2  0
  8  9  1  0
  9 10  1  0
 10 11  2  0
 11 12  1  0
 12 13  2  0
 12 14  1  0
 14 15  1  0
 15 16  1  0
 16 17  2  0
 17 18  1  0
 18 19  2  0
 19 20  1  0
 20 21  2  0
 21 22  1  0
 22 23  2  0
 23 24  1  0
 24 25  2  0
 25 26  1  0
 26 27  1  0
 27 28  2  0
 28 29  1  0
 29 30  1  0
 19 31  1  0
 31 32  2  0
 14 33  1  0
 33 34  2  0
  8  3  1  0
 33 10  1  0
 32 16  1  0
 25 20  1  0
 30 26  2  0
  1 35  1  0
  1 36  1  0
  1 37  1  0
  4 38  1  0
  5 39  1  0
  6 40  1  0
  7 41  1  0
  9 42  1  0
  9 43  1  0
 15 44  1  0
 15 45  1  0
 17 46  1  0
 18 47  1  0
 21 48  1  0
 22 49  1  0
 23 50  1  0
 24 51  1  0
 31 52  1  0
 32 53  1  0
M  CHG  1  29  -1
M  END
>  <UniqueID>  (66) 
63

>  <SMILES>  (66) 
COc1ccccc1CC1=NC(=O)N(Cc2ccc(-c3ccccc3-c3nn[n-]n3)cc2)C1=O

>  <Energy>  (66) 
132.80035404978145

>  <Genealogy>  (66) 
COc1ccccc1CC1=NC(=O)N(Cc2ccc(-c3ccccc3-c3nn[n-]n3)cc2)C1=O (protonated)
COc1ccccc1CC1=NC(=O)N(Cc2ccc(-c3ccccc3-c3nn[n-]n3)cc2)C1=O (3D coordinates assigned)
COc1ccccc1CC1=NC(=O)N(Cc2ccc(-c3ccccc3-c3nn[n-]n3)cc2)C1=O (nonaromatic ring conformer: 132.80035404978145 kcal/mol)

>  <smiles>  (66) 
COc1ccccc1CC1=NC(=O)N(Cc2ccc(-c3ccccc3-c3nn[nH]n3)cc2)C1=O

>  <score_type>  (66) 
oracle

>  <origin>  (66) 
adg

>  <m_score__min__energy>  (66) 
-11.48

>  <m_primary>  (66) 
energy

$$$$
66:0
     RDKit          3D

 48 51  0  0  0  0  0  0  0  0999 V2000
   54.0030   25.7390   45.6120 O   0  0  0  0  0  0  0  0  0  0  0  0
   55.0120   24.9820   45.6440 C   0  0  0  0  0  0  0  0  0  0  0  0
   56.0910   25.2320   46.5600 N   0  0  0  0  0  0  0  0  0  0  0  0
   57.1170   26.0000   46.3430 C   0  0  0  0  0  0  0  0  0  0  0  0
   57.0560   27.3470   46.2590 N   0  0  0  0  0  0  0  0  0  0  0  0
   58.2810   27.9000   46.0300 C   0  0  0  0  0  0  0  0  0  0  0  0
   58.4540   29.3720   45.9080 C   0  0  0  0  0  0  0  0  0  0  0  0
   59.5440   30.0390   46.5020 C   0  0  0  0  0  0  0  0  0  0  0  0
   59.6850   31.4230   46.3720 C   0  0  0  0  0  0  0  0  0  0  0  0
   58.7490   32.1650   45.6430 C   0  0  0  0  0  0  0  0  0  0  0  0
   58.9240   33.9130   45.5130 S   0  0  0  0  0  0  0  0  0  0  0  0
   59.5480   34.2380   44.1840 O   0  0  0  0  0  0  0  0  0  0  0  0
   57.5710   34.5700   45.5780 O   0  0  0  0  0  0  0  0  0  0  0  0
   59.9400   34.5070   46.8040 N   0  0  0  0  0  0  0  0  0  0  0  0
   59.2760   34.3440   48.1220 C   0  0  0  0  0  0  0  0  0  0  0  0
   59.8470   33.1510   48.9090 C   0  0  0  0  0  0  0  0  0  0  0  0
   61.2420   33.2600   49.1580 O   0  0  0  0  0  0  0  0  0  0  0  0
   61.9620   33.9060   48.1150 C   0  0  0  0  0  0  0  0  0  0  0  0
   61.2650   33.8530   46.7440 C   0  0  0  0  0  0  0  0  0  0  0  0
   57.6620   31.5110   45.0500 C   0  0  0  0  0  0  0  0  0  0  0  0
   57.5170   30.1270   45.1780 C   0  0  0  0  0  0  0  0  0  0  0  0
   59.3230   26.9690   45.9390 C   0  0  0  0  0  0  0  0  0  0  0  0
   58.6790   25.4280   46.1470 S   0  0  0  0  0  0  0  0  0  0  0  0
   55.1390   23.8680   44.6380 C   0  0  0  0  0  0  0  0  0  0  0  0
   55.8640   22.6270   45.1590 C   0  0  0  0  0  0  0  0  0  0  0  0
   56.9590   22.8280   44.1210 C   0  0  0  0  0  0  0  0  0  0  0  0
   56.2540   24.0770   43.6120 C   0  0  0  0  0  0  0  0  0  0  0  0
   60.2896   29.4656   47.0724 H   0  0  0  0  0  0  0  0  0  0  0  0
   60.5371   31.9325   46.8457 H   0  0  0  0  0  0  0  0  0  0  0  0
   60.0740   35.5320   46.6320 H   0  0  0  0  0  0  0  0  0  0  0  0
   59.4237   35.2616   48.7104 H   0  0  0  0  0  0  0  0  0  0  0  0
   58.2072   34.1546   47.9440 H   0  0  0  0  0  0  0  0  0  0  0  0
   59.3237   33.0865   49.8744 H   0  0  0  0  0  0  0  0  0  0  0  0
   59.6941   32.2513   48.2948 H   0  0  0  0  0  0  0  0  0  0  0  0
   62.0990   34.9616   48.3923 H   0  0  0  0  0  0  0  0  0  0  0  0
   62.9153   33.3678   48.0072 H   0  0  0  0  0  0  0  0  0  0  0  0
   61.8897   34.3709   46.0014 H   0  0  0  0  0  0  0  0  0  0  0  0
   61.1262   32.7997   46.4590 H   0  0  0  0  0  0  0  0  0  0  0  0
   56.9191   32.0892   44.4810 H   0  0  0  0  0  0  0  0  0  0  0  0
   56.6622   29.6227   44.7036 H   0  0  0  0  0  0  0  0  0  0  0  0
   60.3827   27.2048   45.7617 H   0  0  0  0  0  0  0  0  0  0  0  0
   54.0876   23.8075   44.3205 H   0  0  0  0  0  0  0  0  0  0  0  0
   56.2106   22.7135   46.1994 H   0  0  0  0  0  0  0  0  0  0  0  0
   55.3366   21.6644   45.2314 H   0  0  0  0  0  0  0  0  0  0  0  0
   57.9539   23.0181   44.5499 H   0  0  0  0  0  0  0  0  0  0  0  0
   57.2210   22.0164   43.4263 H   0  0  0  0  0  0  0  0  0  0  0  0
   56.8268   25.0052   43.7545 H   0  0  0  0  0  0  0  0  0  0  0  0
   56.0140   24.1838   42.5438 H   0  0  0  0  0  0  0  0  0  0  0  0
  1  2  2  0
  2  3  1  0
  3  4  2  3
  4  5  1  0
  5  6  1  0
  6  7  1  0
  7  8  2  0
  8  9  1  0
  9 10  2  0
 10 11  1  0
 11 12  2  0
 11 13  2  0
 11 14  1  0
 14 15  1  0
 15 16  1  0
 16 17  1  0
 17 18  1  0
 18 19  1  0
 10 20  1  0
 20 21  2  0
  6 22  2  0
 22 23  1  0
  2 24  1  0
 24 25  1  0
 25 26  1  0
 26 27  1  0
 23  4  1  0
 27 24  1  0
 21  7  1  0
 19 14  1  0
  8 28  1  0
  9 29  1  0
 14 30  1  0
 15 31  1  0
 15 32  1  0
 16 33  1  0
 16 34  1  0
 18 35  1  0
 18 36  1  0
 19 37  1  0
 19 38  1  0
 20 39  1  0
 21 40  1  0
 22 41  1  0
 24 42  1  0
 25 43  1  0
 25 44  1  0
 26 45  1  0
 26 46  1  0
 27 47  1  0
 27 48  1  0
M  CHG  2   5  -1  14   1
M  END
>  <UniqueID>  (67) 
64

>  <SMILES>  (67) 
O=C(N=c1[n-]c(-c2ccc(S(=O)(=O)[NH+]3CCOCC3)cc2)cs1)C1CCC1

>  <Energy>  (67) 
156.02249713883802

>  <Genealogy>  (67) 
O=C(N=c1[n-]c(-c2ccc(S(=O)(=O)[NH+]3CCOCC3)cc2)cs1)C1CCC1 (protonated)
O=C(N=c1[n-]c(-c2ccc(S(=O)(=O)[NH+]3CCOCC3)cc2)cs1)C1CCC1 (3D coordinates assigned)
O=C(N=c1[n-]c(-c2ccc(S(=O)(=O)[NH+]3CCOCC3)cc2)cs1)C1CCC1 (nonaromatic ring conformer: 156.02249713883802 kcal/mol)

>  <smiles>  (67) 
O=C(N=c1[nH]c(-c2ccc(S(=O)(=O)N3CCOCC3)cc2)cs1)C1CCC1

>  <score_type>  (67) 
oracle

>  <origin>  (67) 
adg

>  <m_score__min__energy>  (67) 
-9.3100000000000005

>  <m_primary>  (67) 
energy

$$$$
67:0
     RDKit          3D

 78 79  0  0  0  0  0  0  0  0999 V2000
   57.1298   31.7098   40.5034 H   0  0  0  0  0  0  0  0  0  0  0  0
   57.6090   32.3340   41.2720 C   0  0  0  0  0  0  0  0  0  0  0  0
   58.1088   33.2713   40.9862 H   0  0  0  0  0  0  0  0  0  0  0  0
   60.0020   29.5940   50.2060 C   0  0  0  0  0  0  0  0  0  0  0  0
   56.9880   30.6590   42.9550 C   0  0  0  0  0  0  0  0  0  0  0  0
   56.2540   30.0150   42.1540 O   0  0  0  0  0  0  0  0  0  0  0  0
   57.2670   30.1410   44.3540 C   0  0  2  0  0  0  0  0  0  0  0  0
   58.6810   29.5860   44.4880 C   0  0  0  0  0  0  0  0  0  0  0  0
   59.2485   29.4690   43.5530 H   0  0  0  0  0  0  0  0  0  0  0  0
   59.3160   29.2220   45.6210 C   0  0  0  0  0  0  0  0  0  0  0  0
   58.6060   28.9940   46.8990 C   0  0  0  0  0  0  0  0  0  0  0  0
   57.5114   29.0988   46.9298 H   0  0  0  0  0  0  0  0  0  0  0  0
   59.2600   28.6640   48.0170 C   0  0  0  0  0  0  0  0  0  0  0  0
   59.9578   27.8137   48.0081 H   0  0  0  0  0  0  0  0  0  0  0  0
   62.6290   33.1560   50.1110 C   0  0  0  0  0  0  0  0  0  0  0  0
   63.0942   32.8549   51.0612 H   0  0  0  0  0  0  0  0  0  0  0  0
   57.5840   31.9530   42.5550 C   0  0  0  0  0  0  0  0  0  0  0  0
   59.6440   29.3230   51.6420 C   0  0  0  0  0  0  0  0  0  0  0  0
   61.3675   30.9562   49.2689 H   0  0  0  0  0  0  0  0  0  0  0  0
   60.3460   29.8544   52.3015 H   0  0  0  0  0  0  0  0  0  0  0  0
   58.6201   29.6744   51.8372 H   0  0  0  0  0  0  0  0  0  0  0  0
   63.4100   33.0120   48.8390 C   0  0  0  0  0  0  0  0  0  0  0  0
   59.7042   28.2421   51.8372 H   0  0  0  0  0  0  0  0  0  0  0  0
   64.1541   32.2118   48.9653 H   0  0  0  0  0  0  0  0  0  0  0  0
   63.9003   33.9731   48.6249 H   0  0  0  0  0  0  0  0  0  0  0  0
   60.8010   28.9690   45.5610 C   0  0  0  0  0  0  0  0  0  0  0  0
   61.2029   28.9005   46.5827 H   0  0  0  0  0  0  0  0  0  0  0  0
   60.9910   28.0255   45.0283 H   0  0  0  0  0  0  0  0  0  0  0  0
   61.2927   29.7963   45.0283 H   0  0  0  0  0  0  0  0  0  0  0  0
   56.2450   29.0810   44.7930 C   0  0  0  0  0  0  0  0  0  0  0  0
   56.2068   29.0414   45.8916 H   0  0  0  0  0  0  0  0  0  0  0  0
   55.2517   29.3448   44.4008 H   0  0  0  0  0  0  0  0  0  0  0  0
   56.5448   28.0980   44.4008 H   0  0  0  0  0  0  0  0  0  0  0  0
   57.1470   31.2460   45.2560 O   0  0  0  0  0  0  0  0  0  0  0  0
   57.6710   32.5200   44.9770 C   0  0  0  0  0  0  0  0  0  0  0  0
   57.6740   33.4680   45.9220 C   0  0  0  0  0  0  0  0  0  0  0  0
   57.5771   34.5220   45.6226 H   0  0  0  0  0  0  0  0  0  0  0  0
   57.8040   33.1370   47.3580 C   0  0  0  0  0  0  0  0  0  0  0  0
   57.0898   33.5980   48.0561 H   0  0  0  0  0  0  0  0  0  0  0  0
   58.7320   32.3140   47.8680 C   0  0  0  0  0  0  0  0  0  0  0  0
   58.4651   31.7607   48.7805 H   0  0  0  0  0  0  0  0  0  0  0  0
   60.1140   32.0800   47.2980 C   0  0  0  0  0  0  0  0  0  0  0  0
   60.5272   31.1688   47.7552 H   0  0  0  0  0  0  0  0  0  0  0  0
   59.9982   31.9911   46.2077 H   0  0  0  0  0  0  0  0  0  0  0  0
   61.1090   33.2500   47.5520 C   0  0  1  0  0  0  0  0  0  0  0  0
   61.1200   34.2530   46.3780 C   0  0  0  0  0  0  0  0  0  0  0  0
   61.1313   35.2796   46.7729 H   0  0  0  0  0  0  0  0  0  0  0  0
   62.0164   34.0871   45.7624 H   0  0  0  0  0  0  0  0  0  0  0  0
   60.2202   34.1068   45.7624 H   0  0  0  0  0  0  0  0  0  0  0  0
   60.7190   33.9670   48.8410 C   0  0  0  0  0  0  0  0  0  0  0  0
   59.7920   34.8240   48.8300 O   0  0  0  0  0  0  0  0  0  0  0  0
   61.3860   33.6390   50.1220 C   0  0  0  0  0  0  0  0  0  0  0  0
   60.7620   33.8520   51.3600 O   0  0  0  0  0  0  0  0  0  0  0  0
   60.1280   32.8550   52.1160 C   0  0  0  0  0  0  0  0  0  0  0  0
   60.8080   31.9430   52.6630 O   0  0  0  0  0  0  0  0  0  0  0  0
   58.6220   32.8710   52.2970 C   0  0  0  0  0  0  0  0  0  0  0  0
   58.1580   34.3270   52.4810 C   0  0  0  0  0  0  0  0  0  0  0  0
   58.0851   34.5557   53.5545 H   0  0  0  0  0  0  0  0  0  0  0  0
   58.8844   35.0056   52.0100 H   0  0  0  0  0  0  0  0  0  0  0  0
   57.1729   34.4602   52.0100 H   0  0  0  0  0  0  0  0  0  0  0  0
   58.2140   32.0480   53.5360 C   0  0  0  0  0  0  0  0  0  0  0  0
   58.4870   32.5988   54.4482 H   0  0  0  0  0  0  0  0  0  0  0  0
   57.1273   31.8781   53.5217 H   0  0  0  0  0  0  0  0  0  0  0  0
   58.7367   31.0802   53.5217 H   0  0  0  0  0  0  0  0  0  0  0  0
   57.9470   32.2660   51.0500 C   0  0  0  0  0  0  0  0  0  0  0  0
   57.1618   31.5622   51.3632 H   0  0  0  0  0  0  0  0  0  0  0  0
   57.4993   33.0709   50.4485 H   0  0  0  0  0  0  0  0  0  0  0  0
   58.6983   31.7332   50.4485 H   0  0  0  0  0  0  0  0  0  0  0  0
   59.0560   29.4290   49.2650 C   0  0  0  0  0  0  0  0  0  0  0  0
   58.0720   29.8907   49.4340 H   0  0  0  0  0  0  0  0  0  0  0  0
   61.4060   30.0280   49.8580 C   0  0  0  0  0  0  0  0  0  0  0  0
   61.9752   30.2039   50.7827 H   0  0  0  0  0  0  0  0  0  0  0  0
   61.8980   29.2400   49.2689 H   0  0  0  0  0  0  0  0  0  0  0  0
   62.5150   32.6690   47.6760 C   0  0  0  0  0  0  0  0  0  0  0  0
   62.9630   31.9700   46.7780 O   0  0  0  0  0  0  0  0  0  0  0  0
   58.2420   32.8110   43.6070 C   0  0  0  0  0  0  0  0  0  0  0  0
   59.3224   32.6043   43.6160 H   0  0  0  0  0  0  0  0  0  0  0  0
   58.0544   33.8677   43.3658 H   0  0  0  0  0  0  0  0  0  0  0  0
  1  2  1  0
  2  3  1  0
  2  4  2  0
  4  5  1  0
  5  6  2  0
  5  7  1  0
  7  8  1  0
  8  9  1  0
  8 10  2  0
 10 11  1  0
 11 12  1  0
 11 13  2  0
 13 14  1  0
 13 15  1  0
 15 16  1  0
 15 17  2  3
 17 18  1  0
 18 19  1  0
 18 20  1  0
 18 21  1  0
 17 22  1  0
 22 23  1  0
 22 24  1  0
 22 25  1  0
 10 26  1  0
 26 27  1  0
 26 28  1  0
 26 29  1  0
  7 30  1  1
 30 31  1  0
 30 32  1  0
 30 33  1  0
  7 34  1  0
 34 35  1  0
 35 36  2  0
 36 37  1  0
 36 38  1  0
 38 39  1  0
 38 40  2  0
 40 41  1  0
 40 42  1  0
 42 43  1  0
 42 44  1  0
 45 42  1  6
 45 46  1  0
 46 47  1  0
 46 48  1  0
 46 49  1  0
 45 50  1  0
 50 51  2  0
 50 52  1  0
 52 53  1  0
 53 54  1  0
 54 55  2  0
 54 56  1  0
 56 57  1  0
 57 58  1  0
 57 59  1  0
 57 60  1  0
 56 61  1  0
 61 62  1  0
 61 63  1  0
 61 64  1  0
 56 65  1  0
 65 66  1  0
 65 67  1  0
 65 68  1  0
 52 69  2  0
 69 70  1  0
 69 71  1  0
 71 72  1  0
 71 73  1  0
 71 74  1  0
 74 75  2  0
 35 76  1  0
 76 77  1  0
 76 78  1  0
 76  4  1  0
 74 45  1  0
M  END
>  <UniqueID>  (68) 
65

>  <SMILES>  (68) 
C=C1CC(=C/C=C\C[C@]2(C)C(=O)CC=C(OC(=O)C(C)(C)C)C2=O)O[C@](C)(C=C(C)/C=C/C=C(C)C)C1=O

>  <Energy>  (68) 
76.83750285546589

>  <Genealogy>  (68) 
C=C1CC(=CC=CC[C@]2(C)C(=O)CC=C(OC(=O)C(C)(C)C)C2=O)O[C@](C)(C=C(C)C=CC=C(C)C)C1=O (chirality)
C=C1CC(=C/C=C\C[C@]2(C)C(=O)CC=C(OC(=O)C(C)(C)C)C2=O)O[C@](C)(C=C(C)/C=C/C=C(C)C)C1=O (cis-trans isomerization)
C=C1CC(=C/C=C\C[C@]2(C)C(=O)CC=C(OC(=O)C(C)(C)C)C2=O)O[C@](C)(C=C(C)/C=C/C=C(C)C)C1=O (3D coordinates assigned)
C=C1CC(=C/C=C\C[C@]2(C)C(=O)CC=C(OC(=O)C(C)(C)C)C2=O)O[C@](C)(C=C(C)/C=C/C=C(C)C)C1=O (nonaromatic ring conformer: 76.83750285546589 kcal/mol)

>  <smiles>  (68) 
C=C1CC(=CC=CCC2(C)C(=O)CC=C(OC(=O)C(C)(C)C)C2=O)OC(C)(C=C(C)C=CC=C(C)C)C1=O

>  <score_type>  (68) 
oracle

>  <origin>  (68) 
adg

>  <m_score__min__energy>  (68) 
-10.109999999999999

>  <m_primary>  (68) 
energy

$$$$
68:0
     RDKit          3D

 50 52  0  0  0  0  0  0  0  0999 V2000
   55.5350   29.7570   43.3760 C   0  0  0  0  0  0  0  0  0  0  0  0
   56.2770   30.1140   44.4290 C   0  0  0  0  0  0  0  0  0  0  0  0
   57.5490   30.9050   44.2750 C   0  0  0  0  0  0  0  0  0  0  0  0
   58.1980   31.1400   45.5830 N   0  0  0  0  0  0  0  0  0  0  0  0
   58.7140   30.0990   46.3160 C   0  0  0  0  0  0  0  0  0  0  0  0
   58.7720   28.7640   45.7910 N   0  0  0  0  0  0  0  0  0  0  0  0
   59.3410   28.5240   44.4610 C   0  0  0  0  0  0  0  0  0  0  0  0
   58.8340   27.1930   43.8940 C   0  0  0  0  0  0  0  0  0  0  0  0
   57.4020   27.0340   44.1850 N   0  0  0  0  0  0  0  0  0  0  0  0
   57.1180   26.9260   45.6340 C   0  0  0  0  0  0  0  0  0  0  0  0
   58.1410   27.6640   46.5240 C   0  0  0  0  0  0  0  0  0  0  0  0
   59.2510   30.3350   47.5770 C   0  0  0  0  0  0  0  0  0  0  0  0
   59.2850   31.6310   48.0730 C   0  0  0  0  0  0  0  0  0  0  0  0
   59.7560   31.8310   49.2260 O   0  0  0  0  0  0  0  0  0  0  0  0
   58.8170   32.6710   47.3140 N   0  0  0  0  0  0  0  0  0  0  0  0
   58.8470   34.0460   47.8510 C   0  0  0  0  0  0  0  0  0  0  0  0
   60.0330   34.8180   47.2650 C   0  0  0  0  0  0  0  0  0  0  0  0
   61.3340   34.1700   47.6560 C   0  0  0  0  0  0  0  0  0  0  0  0
   62.1570   33.5880   46.6780 C   0  0  0  0  0  0  0  0  0  0  0  0
   63.3800   33.0140   47.0380 C   0  0  0  0  0  0  0  0  0  0  0  0
   63.7940   33.0260   48.3730 C   0  0  0  0  0  0  0  0  0  0  0  0
   62.9870   33.6160   49.3500 C   0  0  0  0  0  0  0  0  0  0  0  0
   63.3930   33.6340   50.6430 F   0  0  0  0  0  0  0  0  0  0  0  0
   61.7620   34.1900   48.9940 C   0  0  0  0  0  0  0  0  0  0  0  0
   58.2680   32.4220   46.0790 C   0  0  0  0  0  0  0  0  0  0  0  0
   57.8160   33.3830   45.3920 O   0  0  0  0  0  0  0  0  0  0  0  0
   54.6110   29.1790   43.5249 H   0  0  0  0  0  0  0  0  0  0  0  0
   55.8484   30.0412   42.3606 H   0  0  0  0  0  0  0  0  0  0  0  0
   55.9488   29.8214   45.4373 H   0  0  0  0  0  0  0  0  0  0  0  0
   58.2411   30.3477   43.6267 H   0  0  0  0  0  0  0  0  0  0  0  0
   57.2996   31.8801   43.8313 H   0  0  0  0  0  0  0  0  0  0  0  0
   59.0443   29.3413   43.7872 H   0  0  0  0  0  0  0  0  0  0  0  0
   60.4370   28.4814   44.5446 H   0  0  0  0  0  0  0  0  0  0  0  0
   58.9879   27.1790   42.8049 H   0  0  0  0  0  0  0  0  0  0  0  0
   59.3906   26.3669   44.3607 H   0  0  0  0  0  0  0  0  0  0  0  0
   56.8790   27.8490   43.7870 H   0  0  0  0  0  0  0  0  0  0  0  0
   57.0550   26.1710   43.7060 H   0  0  0  0  0  0  0  0  0  0  0  0
   56.1214   27.3507   45.8251 H   0  0  0  0  0  0  0  0  0  0  0  0
   57.1766   25.8588   45.8942 H   0  0  0  0  0  0  0  0  0  0  0  0
   57.6247   28.0687   47.4070 H   0  0  0  0  0  0  0  0  0  0  0  0
   58.9211   26.9510   46.8291 H   0  0  0  0  0  0  0  0  0  0  0  0
   59.6456   29.5014   48.1765 H   0  0  0  0  0  0  0  0  0  0  0  0
   57.9117   34.5603   47.5849 H   0  0  0  0  0  0  0  0  0  0  0  0
   58.9535   34.0014   48.9449 H   0  0  0  0  0  0  0  0  0  0  0  0
   59.9503   34.8292   46.1682 H   0  0  0  0  0  0  0  0  0  0  0  0
   60.0165   35.8449   47.6591 H   0  0  0  0  0  0  0  0  0  0  0  0
   61.8383   33.5838   45.6252 H   0  0  0  0  0  0  0  0  0  0  0  0
   64.0173   32.5523   46.2695 H   0  0  0  0  0  0  0  0  0  0  0  0
   64.7550   32.5711   48.6548 H   0  0  0  0  0  0  0  0  0  0  0  0
   61.1317   34.6586   49.7642 H   0  0  0  0  0  0  0  0  0  0  0  0
  1  2  2  0
  2  3  1  0
  3  4  1  0
  4  5  1  0
  5  6  1  0
  6  7  1  0
  7  8  1  0
  8  9  1  0
  9 10  1  0
 10 11  1  0
  5 12  2  0
 12 13  1  0
 13 14  2  0
 13 15  1  0
 15 16  1  0
 16 17  1  0
 17 18  1  0
 18 19  2  0
 19 20  1  0
 20 21  2  0
 21 22  1  0
 22 23  1  0
 22 24  2  0
 15 25  1  0
 25 26  2  0
 25  4  1  0
 11  6  1  0
 24 18  1  0
  1 27  1  0
  1 28  1  0
  2 29  1  0
  3 30  1  0
  3 31  1  0
  7 32  1  0
  7 33  1  0
  8 34  1  0
  8 35  1  0
  9 36  1  0
  9 37  1  0
 10 38  1  0
 10 39  1  0
 11 40  1  0
 11 41  1  0
 12 42  1  0
 16 43  1  0
 16 44  1  0
 17 45  1  0
 17 46  1  0
 19 47  1  0
 20 48  1  0
 21 49  1  0
 24 50  1  0
M  CHG  1   9   1
M  END
>  <UniqueID>  (69) 
66

>  <SMILES>  (69) 
C=CCn1c(N2CC[NH2+]CC2)cc(=O)n(CCc2cccc(F)c2)c1=O

>  <Energy>  (69) 
63.14659551947977

>  <Genealogy>  (69) 
C=CCn1c(N2CC[NH2+]CC2)cc(=O)n(CCc2cccc(F)c2)c1=O (protonated)
C=CCn1c(N2CC[NH2+]CC2)cc(=O)n(CCc2cccc(F)c2)c1=O (3D coordinates assigned)
C=CCn1c(N2CC[NH2+]CC2)cc(=O)n(CCc2cccc(F)c2)c1=O (nonaromatic ring conformer: 63.14659551947977 kcal/mol)

>  <smiles>  (69) 
C=CCn1c(N2CCNCC2)cc(=O)n(CCc2cccc(F)c2)c1=O

>  <score_type>  (69) 
oracle

>  <origin>  (69) 
adg

>  <m_score__min__energy>  (69) 
-5.79

>  <m_primary>  (69) 
energy

$$$$
69:0
     RDKit          3D

 42 43  0  0  0  0  0  0  0  0999 V2000
   63.7240   32.6800   47.0810 C   0  0  0  0  0  0  0  0  0  0  0  0
   62.7690   33.8110   47.5020 C   0  0  0  0  0  0  0  0  0  0  0  0
   62.0670   33.6060   48.8100 N   0  0  0  0  0  0  0  0  0  0  0  0
   62.8390   34.2110   49.9260 C   0  0  0  0  0  0  0  0  0  0  0  0
   61.8940   32.1560   49.0840 C   0  0  0  0  0  0  0  0  0  0  0  0
   60.6960   34.2100   48.7490 C   0  0  0  0  0  0  0  0  0  0  0  0
   59.7850   33.6140   47.6900 C   0  0  0  0  0  0  0  0  0  0  0  0
   59.8000   34.1120   46.3760 C   0  0  0  0  0  0  0  0  0  0  0  0
   58.9670   33.5580   45.4000 C   0  0  0  0  0  0  0  0  0  0  0  0
   58.1220   32.4890   45.7210 C   0  0  0  0  0  0  0  0  0  0  0  0
   57.0580   31.7740   44.4680 S   0  0  0  0  0  0  0  0  0  0  0  0
   57.7350   30.1250   44.6960 C   0  0  0  0  0  0  0  0  0  0  0  0
   59.1110   29.9170   44.5360 C   0  0  0  0  0  0  0  0  0  0  0  0
   59.6520   28.6390   44.7040 C   0  0  0  0  0  0  0  0  0  0  0  0
   58.8220   27.5660   45.0370 C   0  0  0  0  0  0  0  0  0  0  0  0
   57.4490   27.7700   45.2050 C   0  0  0  0  0  0  0  0  0  0  0  0
   56.8990   29.0490   45.0370 C   0  0  0  0  0  0  0  0  0  0  0  0
   55.5310   29.2530   45.2100 O   0  0  0  0  0  0  0  0  0  0  0  0
   58.1090   31.9800   47.0250 C   0  0  0  0  0  0  0  0  0  0  0  0
   58.9410   32.5340   48.0020 C   0  0  0  0  0  0  0  0  0  0  0  0
   64.1346   32.1938   47.9782 H   0  0  0  0  0  0  0  0  0  0  0  0
   63.1738   31.9395   46.4819 H   0  0  0  0  0  0  0  0  0  0  0  0
   64.5462   33.0984   46.4819 H   0  0  0  0  0  0  0  0  0  0  0  0
   63.3536   34.7401   47.5726 H   0  0  0  0  0  0  0  0  0  0  0  0
   61.9800   33.8422   46.7362 H   0  0  0  0  0  0  0  0  0  0  0  0
   62.4164   33.8798   50.8860 H   0  0  0  0  0  0  0  0  0  0  0  0
   63.8901   33.8936   49.8591 H   0  0  0  0  0  0  0  0  0  0  0  0
   62.7821   35.3075   49.8591 H   0  0  0  0  0  0  0  0  0  0  0  0
   61.8740   31.9881   50.1709 H   0  0  0  0  0  0  0  0  0  0  0  0
   60.9482   31.8096   48.6420 H   0  0  0  0  0  0  0  0  0  0  0  0
   62.7318   31.5968   48.6420 H   0  0  0  0  0  0  0  0  0  0  0  0
   60.2171   34.0720   49.7296 H   0  0  0  0  0  0  0  0  0  0  0  0
   60.8347   35.2674   48.4793 H   0  0  0  0  0  0  0  0  0  0  0  0
   60.4715   34.9429   46.1140 H   0  0  0  0  0  0  0  0  0  0  0  0
   58.9754   33.9629   44.3773 H   0  0  0  0  0  0  0  0  0  0  0  0
   59.7673   30.7611   44.2776 H   0  0  0  0  0  0  0  0  0  0  0  0
   60.7324   28.4782   44.5738 H   0  0  0  0  0  0  0  0  0  0  0  0
   59.2486   26.5605   45.1671 H   0  0  0  0  0  0  0  0  0  0  0  0
   56.7978   26.9240   45.4700 H   0  0  0  0  0  0  0  0  0  0  0  0
   55.1710   30.0920   45.6500 H   0  0  0  0  0  0  0  0  0  0  0  0
   57.4430   31.1428   47.2812 H   0  0  0  0  0  0  0  0  0  0  0  0
   58.9353   32.1221   49.0219 H   0  0  0  0  0  0  0  0  0  0  0  0
  1  2  1  0
  2  3  1  0
  3  4  1  0
  3  5  1  0
  3  6  1  0
  6  7  1  0
  7  8  2  0
  8  9  1  0
  9 10  2  0
 10 11  1  0
 11 12  1  0
 12 13  2  0
 13 14  1  0
 14 15  2  0
 15 16  1  0
 16 17  2  0
 17 18  1  0
 10 19  1  0
 19 20  2  0
 20  7  1  0
 17 12  1  0
  1 21  1  0
  1 22  1  0
  1 23  1  0
  2 24  1  0
  2 25  1  0
  4 26  1  0
  4 27  1  0
  4 28  1  0
  5 29  1  0
  5 30  1  0
  5 31  1  0
  6 32  1  0
  6 33  1  0
  8 34  1  0
  9 35  1  0
 13 36  1  0
 14 37  1  0
 15 38  1  0
 16 39  1  0
 18 40  1  0
 19 41  1  0
 20 42  1  0
M  CHG  1   3   1
M  END
>  <UniqueID>  (70) 
67

>  <SMILES>  (70) 
CC[N+](C)(C)Cc1ccc(Sc2ccccc2O)cc1

>  <Energy>  (70) 
45.94575704107065

>  <Genealogy>  (70) 
CC[N+](C)(C)Cc1ccc(Sc2ccccc2O)cc1 (3D coordinates assigned)
CC[N+](C)(C)Cc1ccc(Sc2ccccc2O)cc1 (optimized conformer: 45.94575704107065 kcal/mol)

>  <smiles>  (70) 
CC[N+](C)(C)Cc1ccc(Sc2ccccc2O)cc1

>  <score_type>  (70) 
oracle

>  <origin>  (70) 
adg

>  <m_score__min__energy>  (70) 
-6.8399999999999999

>  <m_primary>  (70) 
energy

$$$$
70:0
     RDKit          3D

 68 72  0  0  0  0  0  0  0  0999 V2000
   64.4437   34.6931   47.3199 H   0  0  0  0  0  0  0  0  0  0  0  0
   63.6590   34.0360   47.7230 C   0  0  0  0  0  0  0  0  0  0  0  0
   63.4040   32.8010   47.1200 C   0  0  0  0  0  0  0  0  0  0  0  0
   63.9829   32.4905   46.2377 H   0  0  0  0  0  0  0  0  0  0  0  0
   62.4140   31.9600   47.6370 C   0  0  0  0  0  0  0  0  0  0  0  0
   62.2203   30.9867   47.1625 H   0  0  0  0  0  0  0  0  0  0  0  0
   61.6630   32.3530   48.7630 C   0  0  0  0  0  0  0  0  0  0  0  0
   60.6140   31.4680   49.3270 C   0  0  0  0  0  0  0  0  0  0  0  0
   59.4480   31.9210   49.5000 O   0  0  0  0  0  0  0  0  0  0  0  0
   60.8800   30.0420   49.6740 C   0  0  0  0  0  0  0  0  0  0  0  0
   61.8090   29.7030   50.6740 C   0  0  0  0  0  0  0  0  0  0  0  0
   62.6310   30.7150   51.3570 C   0  0  0  0  0  0  0  0  0  0  0  0
   62.1380   31.3830   52.4900 C   0  0  0  0  0  0  0  0  0  0  0  0
   61.1332   31.1508   52.8726 H   0  0  0  0  0  0  0  0  0  0  0  0
   62.9270   32.3440   53.1310 C   0  0  0  0  0  0  0  0  0  0  0  0
   62.5371   32.8768   54.0108 H   0  0  0  0  0  0  0  0  0  0  0  0
   64.2100   32.6280   52.6550 C   0  0  0  0  0  0  0  0  0  0  0  0
   64.8259   33.3891   53.1565 H   0  0  0  0  0  0  0  0  0  0  0  0
   64.7120   31.9460   51.5420 C   0  0  0  0  0  0  0  0  0  0  0  0
   65.7267   32.1621   51.1764 H   0  0  0  0  0  0  0  0  0  0  0  0
   63.9250   30.9900   50.8940 C   0  0  0  0  0  0  0  0  0  0  0  0
   64.3215   30.4529   50.0198 H   0  0  0  0  0  0  0  0  0  0  0  0
   61.9900   28.4000   51.0030 N   0  0  0  0  0  0  0  0  0  0  0  0
   61.2980   27.4120   50.4350 N   0  0  0  0  0  0  0  0  0  0  0  0
   61.4780   26.0560   50.9560 C   0  0  0  0  0  0  0  0  0  0  0  0
   62.5479   25.8869   51.1474 H   0  0  0  0  0  0  0  0  0  0  0  0
   61.0944   25.3474   50.2071 H   0  0  0  0  0  0  0  0  0  0  0  0
   60.7040   25.8420   52.2530 C   0  0  0  0  0  0  0  0  0  0  0  0
   61.3678   26.0255   53.1107 H   0  0  0  0  0  0  0  0  0  0  0  0
   59.8537   26.5387   52.2918 H   0  0  0  0  0  0  0  0  0  0  0  0
   60.3324   24.8074   52.2918 H   0  0  0  0  0  0  0  0  0  0  0  0
   60.3910   27.6780   49.4440 C   0  0  0  0  0  0  0  0  0  0  0  0
   59.6850   26.7430   48.9790 O   0  0  0  0  0  0  0  0  0  0  0  0
   60.2020   29.0060   49.0010 C   0  0  0  0  0  0  0  0  0  0  0  0
   59.3910   29.3250   48.0240 N   0  0  0  0  0  0  0  0  0  0  0  0
   59.6900   29.4750   46.6310 C   0  0  0  0  0  0  0  0  0  0  0  0
   60.2970   30.5050   46.2430 O   0  0  0  0  0  0  0  0  0  0  0  0
   59.4540   28.3270   45.6830 C   0  0  0  0  0  0  0  0  0  0  0  0
   59.6411   28.6731   44.6558 H   0  0  0  0  0  0  0  0  0  0  0  0
   60.1380   27.5132   45.9654 H   0  0  0  0  0  0  0  0  0  0  0  0
   58.0460   27.7930   45.7650 C   0  0  0  0  0  0  0  0  0  0  0  0
   57.7520   26.5770   46.2580 N   0  0  0  0  0  0  0  0  0  0  0  0
   56.4120   26.5100   46.1460 C   0  0  0  0  0  0  0  0  0  0  0  0
   55.7560   25.4960   46.4920 O   0  0  0  0  0  0  0  0  0  0  0  0
   55.8330   27.6080   45.6170 N   0  0  0  0  0  0  0  0  0  0  0  0
   56.8750   28.4180   45.3670 C   0  0  0  0  0  0  0  0  0  0  0  0
   56.7300   29.7340   44.7280 C   0  0  0  0  0  0  0  0  0  0  0  0
   55.5900   30.1020   44.3360 O   0  0  0  0  0  0  0  0  0  0  0  0
   57.8770   30.5700   44.5080 N   0  0  0  0  0  0  0  0  0  0  0  0
   58.8320   30.1650   44.6350 H   0  0  0  0  0  0  0  0  0  0  0  0
   57.7660   31.9570   44.0630 C   0  0  0  0  0  0  0  0  0  0  0  0
   58.3960   32.1040   43.1734 H   0  0  0  0  0  0  0  0  0  0  0  0
   56.7147   32.1715   43.8204 H   0  0  0  0  0  0  0  0  0  0  0  0
   58.2180   32.8940   45.1520 C   0  0  0  0  0  0  0  0  0  0  0  0
   57.8040   32.6860   46.4790 C   0  0  0  0  0  0  0  0  0  0  0  0
   57.1072   31.8680   46.7144 H   0  0  0  0  0  0  0  0  0  0  0  0
   58.2760   33.5170   47.5020 C   0  0  0  0  0  0  0  0  0  0  0  0
   57.9515   33.3482   48.5394 H   0  0  0  0  0  0  0  0  0  0  0  0
   59.1580   34.5600   47.2090 C   0  0  0  0  0  0  0  0  0  0  0  0
   59.5286   35.2105   48.0149 H   0  0  0  0  0  0  0  0  0  0  0  0
   59.5690   34.7760   45.8910 C   0  0  0  0  0  0  0  0  0  0  0  0
   60.2625   35.5981   45.6603 H   0  0  0  0  0  0  0  0  0  0  0  0
   59.1010   33.9500   44.8650 C   0  0  0  0  0  0  0  0  0  0  0  0
   59.4249   34.1268   43.8287 H   0  0  0  0  0  0  0  0  0  0  0  0
   61.9260   33.6010   49.3570 C   0  0  0  0  0  0  0  0  0  0  0  0
   61.3472   33.9211   50.2359 H   0  0  0  0  0  0  0  0  0  0  0  0
   62.9180   34.4360   48.8370 C   0  0  0  0  0  0  0  0  0  0  0  0
   63.1159   35.4110   49.3063 H   0  0  0  0  0  0  0  0  0  0  0  0
  1  2  1  0
  2  3  2  0
  3  4  1  0
  3  5  1  0
  5  6  1  0
  5  7  2  0
  7  8  1  0
  8  9  2  0
  8 10  1  0
 10 11  2  0
 11 12  1  0
 12 13  2  0
 13 14  1  0
 13 15  1  0
 15 16  1  0
 15 17  2  0
 17 18  1  0
 17 19  1  0
 19 20  1  0
 19 21  2  0
 21 22  1  0
 11 23  1  0
 23 24  1  0
 24 25  1  0
 25 26  1  0
 25 27  1  0
 25 28  1  0
 28 29  1  0
 28 30  1  0
 28 31  1  0
 24 32  1  0
 32 33  2  0
 32 34  1  0
 34 35  2  0
 35 36  1  0
 36 37  2  0
 36 38  1  0
 38 39  1  0
 38 40  1  0
 38 41  1  0
 41 42  1  0
 42 43  1  0
 43 44  2  0
 43 45  1  0
 45 46  1  0
 46 47  1  0
 47 48  2  0
 47 49  1  0
 49 50  1  0
 49 51  1  0
 51 52  1  0
 51 53  1  0
 51 54  1  0
 54 55  2  0
 55 56  1  0
 55 57  1  0
 57 58  1  0
 57 59  2  0
 59 60  1  0
 59 61  1  0
 61 62  1  0
 61 63  2  0
 63 64  1  0
  7 65  1  0
 65 66  1  0
 65 67  2  0
 67 68  1  0
 67  2  1  0
 34 10  1  0
 46 41  2  0
 63 54  1  0
 21 12  1  0
M  CHG  3  23  -1  42  -1  45  -1
M  END
>  <UniqueID>  (71) 
68

>  <SMILES>  (71) 
CCn1[n-]c(-c2ccccc2)c(C(=O)c2ccccc2)/c(=N/C(=O)Cc2[n-]c(=O)[n-]c2C(=O)NCc2ccccc2)c1=O

>  <Energy>  (71) 
133.96134988619787

>  <Genealogy>  (71) 
CCn1[n-]c(-c2ccccc2)c(C(=O)c2ccccc2)c(=NC(=O)Cc2[n-]c(=O)[n-]c2C(=O)NCc2ccccc2)c1=O (protonated)
CCn1[n-]c(-c2ccccc2)c(C(=O)c2ccccc2)/c(=N/C(=O)Cc2[n-]c(=O)[n-]c2C(=O)NCc2ccccc2)c1=O (cis-trans isomerization)
CCn1[n-]c(-c2ccccc2)c(C(=O)c2ccccc2)/c(=N/C(=O)Cc2[n-]c(=O)[n-]c2C(=O)NCc2ccccc2)c1=O (3D coordinates assigned)
CCn1[n-]c(-c2ccccc2)c(C(=O)c2ccccc2)/c(=N/C(=O)Cc2[n-]c(=O)[n-]c2C(=O)NCc2ccccc2)c1=O (optimized conformer: 133.96134988619787 kcal/mol)

>  <smiles>  (71) 
CCn1[nH]c(-c2ccccc2)c(C(=O)c2ccccc2)c(=NC(=O)Cc2[nH]c(=O)[nH]c2C(=O)NCc2ccccc2)c1=O

>  <score_type>  (71) 
oracle

>  <origin>  (71) 
adg

>  <m_score__min__energy>  (71) 
-15.369999999999999

>  <m_primary>  (71) 
energy

$$$$
71:0
     RDKit          3D

 44 45  0  0  0  0  0  0  0  0999 V2000
   59.7887   28.5444   50.9060 H   0  0  0  0  0  0  0  0  0  0  0  0
   59.5250   29.2310   50.0880 C   0  0  0  0  0  0  0  0  0  0  0  0
   59.7030   28.8290   48.7630 C   0  0  0  0  0  0  0  0  0  0  0  0
   60.1085   27.8293   48.5481 H   0  0  0  0  0  0  0  0  0  0  0  0
   59.3700   29.6870   47.7000 C   0  0  0  0  0  0  0  0  0  0  0  0
   59.5730   29.2260   46.3010 C   0  0  0  0  0  0  0  0  0  0  0  0
   60.7020   29.3280   45.7530 O   0  0  0  0  0  0  0  0  0  0  0  0
   58.4590   28.7630   45.5290 N   0  0  0  0  0  0  0  0  0  0  0  0
   57.6630   27.7600   45.7790 C   0  0  0  0  0  0  0  0  0  0  0  0
   56.3280   27.8790   45.6160 N   0  0  0  0  0  0  0  0  0  0  0  0
   55.8580   26.6720   45.9750 C   0  0  0  0  0  0  0  0  0  0  0  0
   54.5120   26.3310   45.9630 O   0  0  0  0  0  0  0  0  0  0  0  0
   56.8820   25.8450   46.3600 C   0  0  0  0  0  0  0  0  0  0  0  0
   56.7809   24.8031   46.6978 H   0  0  0  0  0  0  0  0  0  0  0  0
   58.0330   26.5350   46.2510 N   0  0  0  0  0  0  0  0  0  0  0  0
   59.3350   26.0320   46.6850 C   0  0  0  0  0  0  0  0  0  0  0  0
   59.3744   26.0168   47.7842 H   0  0  0  0  0  0  0  0  0  0  0  0
   59.4816   25.0125   46.2987 H   0  0  0  0  0  0  0  0  0  0  0  0
   60.1289   26.6881   46.2987 H   0  0  0  0  0  0  0  0  0  0  0  0
   58.8650   30.9780   47.9880 C   0  0  0  0  0  0  0  0  0  0  0  0
   58.5630   31.8500   46.9270 O   0  0  0  0  0  0  0  0  0  0  0  0
   59.3900   32.9210   46.4780 C   0  0  0  0  0  0  0  0  0  0  0  0
   60.4203   32.5587   46.3466 H   0  0  0  0  0  0  0  0  0  0  0  0
   59.3788   33.7306   47.2226 H   0  0  0  0  0  0  0  0  0  0  0  0
   58.9010   33.4070   45.2460 O   0  0  0  0  0  0  0  0  0  0  0  0
   57.5530   33.0180   45.0530 C   0  0  0  0  0  0  0  0  0  0  0  0
   57.0117   33.8231   44.5345 H   0  0  0  0  0  0  0  0  0  0  0  0
   57.0874   32.8271   46.0312 H   0  0  0  0  0  0  0  0  0  0  0  0
   57.4950   31.7430   44.2100 C   0  0  0  0  0  0  0  0  0  0  0  0
   58.3766   31.1236   44.4316 H   0  0  0  0  0  0  0  0  0  0  0  0
   57.4821   32.0234   43.1464 H   0  0  0  0  0  0  0  0  0  0  0  0
   56.3230   31.0030   44.4990 O   0  0  0  0  0  0  0  0  0  0  0  0
   56.0830   30.0460   43.4910 C   0  0  0  0  0  0  0  0  0  0  0  0
   55.8403   29.0783   43.9544 H   0  0  0  0  0  0  0  0  0  0  0  0
   55.2396   30.3751   42.8662 H   0  0  0  0  0  0  0  0  0  0  0  0
   56.9819   29.9382   42.8662 H   0  0  0  0  0  0  0  0  0  0  0  0
   58.6850   31.3670   49.3320 C   0  0  0  0  0  0  0  0  0  0  0  0
   58.2809   32.3644   49.5596 H   0  0  0  0  0  0  0  0  0  0  0  0
   59.0160   30.4950   50.3840 C   0  0  0  0  0  0  0  0  0  0  0  0
   58.8560   30.8470   51.7330 O   0  0  0  0  0  0  0  0  0  0  0  0
   57.6870   31.4520   52.2760 C   0  0  0  0  0  0  0  0  0  0  0  0
   57.7372   31.4260   53.3745 H   0  0  0  0  0  0  0  0  0  0  0  0
   57.6232   32.4963   51.9365 H   0  0  0  0  0  0  0  0  0  0  0  0
   56.7975   30.9010   51.9365 H   0  0  0  0  0  0  0  0  0  0  0  0
  1  2  1  0
  2  3  2  0
  3  4  1  0
  3  5  1  0
  5  6  1  0
  6  7  2  0
  6  8  1  0
  8  9  2  0
  9 10  1  0
 10 11  1  0
 11 12  1  0
 11 13  2  0
 13 14  1  0
 13 15  1  0
 15 16  1  0
 16 17  1  0
 16 18  1  0
 16 19  1  0
  5 20  2  0
 20 21  1  0
 21 22  1  0
 22 23  1  0
 22 24  1  0
 22 25  1  0
 25 26  1  0
 26 27  1  0
 26 28  1  0
 26 29  1  0
 29 30  1  0
 29 31  1  0
 29 32  1  0
 32 33  1  0
 33 34  1  0
 33 35  1  0
 33 36  1  0
 20 37  1  0
 37 38  1  0
 37 39  2  0
 39 40  1  0
 40 41  1  0
 41 42  1  0
 41 43  1  0
 41 44  1  0
 39  2  1  0
 15  9  1  0
M  CHG  2  10  -1  12  -1
M  END
>  <UniqueID>  (72) 
69

>  <SMILES>  (72) 
COCCOCOc1cc(OC)ccc1C(=O)/N=c1/[n-]c([O-])cn1C

>  <Energy>  (72) 
90.45790191537827

>  <Genealogy>  (72) 
COCCOCOc1cc(OC)ccc1C(=O)N=c1[n-]c([O-])cn1C (protonated)
COCCOCOc1cc(OC)ccc1C(=O)/N=c1/[n-]c([O-])cn1C (cis-trans isomerization)
COCCOCOc1cc(OC)ccc1C(=O)/N=c1/[n-]c([O-])cn1C (3D coordinates assigned)
COCCOCOc1cc(OC)ccc1C(=O)/N=c1/[n-]c([O-])cn1C (optimized conformer: 90.45790191537827 kcal/mol)

>  <smiles>  (72) 
COCCOCOc1cc(OC)ccc1C(=O)N=c1[nH]c(O)cn1C

>  <score_type>  (72) 
oracle

>  <origin>  (72) 
adg

>  <m_score__min__energy>  (72) 
-11.65

>  <m_primary>  (72) 
energy

$$$$
72:0
     RDKit          3D

 41 43  0  0  0  0  0  0  0  0999 V2000
   55.1470   28.1990   44.8830 H   0  0  0  0  0  0  0  0  0  0  0  0
   55.4810   29.1840   44.7910 N   0  0  0  0  0  0  0  0  0  0  0  0
   56.5770   29.5030   44.1750 C   0  0  0  0  0  0  0  0  0  0  0  0
   57.2780   30.7770   44.4710 C   0  0  0  0  0  0  0  0  0  0  0  0
   57.4360   31.7470   43.4650 C   0  0  0  0  0  0  0  0  0  0  0  0
   57.0336   31.5616   42.4582 H   0  0  0  0  0  0  0  0  0  0  0  0
   58.1020   32.9460   43.7380 C   0  0  0  0  0  0  0  0  0  0  0  0
   58.2181   33.7014   42.9468 H   0  0  0  0  0  0  0  0  0  0  0  0
   58.6200   33.1870   45.0120 C   0  0  0  0  0  0  0  0  0  0  0  0
   59.1461   34.1303   45.2205 H   0  0  0  0  0  0  0  0  0  0  0  0
   58.4720   32.2320   46.0250 C   0  0  0  0  0  0  0  0  0  0  0  0
   59.1610   32.5460   47.6150 S   0  0  0  0  0  0  0  0  0  0  0  0
   60.6540   32.6710   47.4860 O   0  0  0  0  0  0  0  0  0  0  0  0
   58.6170   33.8220   48.1930 O   0  0  0  0  0  0  0  0  0  0  0  0
   58.7880   31.2480   48.6660 O   0  0  0  0  0  0  0  0  0  0  0  0
   59.2680   29.9370   48.5220 C   0  0  0  0  0  0  0  0  0  0  0  0
   60.4900   29.5090   49.0720 C   0  0  0  0  0  0  0  0  0  0  0  0
   61.1128   30.2156   49.6402 H   0  0  0  0  0  0  0  0  0  0  0  0
   60.9150   28.1900   48.8990 C   0  0  0  0  0  0  0  0  0  0  0  0
   61.8714   27.8619   49.3321 H   0  0  0  0  0  0  0  0  0  0  0  0
   60.1330   27.2870   48.1800 C   0  0  0  0  0  0  0  0  0  0  0  0
   60.4756   26.2498   48.0500 H   0  0  0  0  0  0  0  0  0  0  0  0
   58.9090   27.6940   47.6200 C   0  0  0  0  0  0  0  0  0  0  0  0
   58.0700   26.7300   46.8590 C   0  0  0  0  0  0  0  0  0  0  0  0
   58.6370   25.5610   46.3170 C   0  0  0  0  0  0  0  0  0  0  0  0
   59.7091   25.3579   46.4565 H   0  0  0  0  0  0  0  0  0  0  0  0
   57.8450   24.6560   45.6020 C   0  0  0  0  0  0  0  0  0  0  0  0
   58.2970   23.7466   45.1794 H   0  0  0  0  0  0  0  0  0  0  0  0
   56.4810   24.9040   45.4230 C   0  0  0  0  0  0  0  0  0  0  0  0
   55.8592   24.1866   44.8674 H   0  0  0  0  0  0  0  0  0  0  0  0
   55.9080   26.0650   45.9510 C   0  0  0  0  0  0  0  0  0  0  0  0
   54.5560   26.3220   45.7580 O   0  0  0  0  0  0  0  0  0  0  0  0
   56.6960   26.9730   46.6670 C   0  0  0  0  0  0  0  0  0  0  0  0
   56.2391   27.8831   47.0829 H   0  0  0  0  0  0  0  0  0  0  0  0
   58.4890   29.0260   47.7980 C   0  0  0  0  0  0  0  0  0  0  0  0
   57.5346   29.3560   47.3618 H   0  0  0  0  0  0  0  0  0  0  0  0
   57.7940   31.0350   45.7580 C   0  0  0  0  0  0  0  0  0  0  0  0
   57.6633   30.2913   46.5579 H   0  0  0  0  0  0  0  0  0  0  0  0
   57.1140   28.5950   43.2080 N   0  0  0  0  0  0  0  0  0  0  0  0
   57.9360   28.8540   42.6190 H   0  0  0  0  0  0  0  0  0  0  0  0
   56.6690   27.6600   43.0590 H   0  0  0  0  0  0  0  0  0  0  0  0
  1  2  1  0
  2  3  2  0
  3  4  1  0
  4  5  2  0
  5  6  1  0
  5  7  1  0
  7  8  1  0
  7  9  2  0
  9 10  1  0
  9 11  1  0
 11 12  1  0
 12 13  2  0
 12 14  2  0
 12 15  1  0
 15 16  1  0
 16 17  2  0
 17 18  1  0
 17 19  1  0
 19 20  1  0
 19 21  2  0
 21 22  1  0
 21 23  1  0
 23 24  1  0
 24 25  2  0
 25 26  1  0
 25 27  1  0
 27 28  1  0
 27 29  2  0
 29 30  1  0
 29 31  1  0
 31 32  1  0
 31 33  2  0
 33 34  1  0
 23 35  2  0
 35 36  1  0
 11 37  2  0
 37 38  1  0
  3 39  1  0
 39 40  1  0
 39 41  1  0
 37  4  1  0
 35 16  1  0
 33 24  1  0
M  CHG  1  32  -1
M  END
>  <UniqueID>  (73) 
70

>  <SMILES>  (73) 
[H]/N=C(/N)c1cccc(S(=O)(=O)Oc2cccc(-c3cccc([O-])c3)c2)c1

>  <Energy>  (73) 
51.60715568854934

>  <Genealogy>  (73) 
N=C(N)c1cccc(S(=O)(=O)Oc2cccc(-c3cccc([O-])c3)c2)c1 (protonated)
[H]/N=C(/N)c1cccc(S(=O)(=O)Oc2cccc(-c3cccc([O-])c3)c2)c1 (cis-trans isomerization)
[H]/N=C(/N)c1cccc(S(=O)(=O)Oc2cccc(-c3cccc([O-])c3)c2)c1 (3D coordinates assigned)
[H]/N=C(/N)c1cccc(S(=O)(=O)Oc2cccc(-c3cccc([O-])c3)c2)c1 (optimized conformer: 51.60715568854934 kcal/mol)

>  <smiles>  (73) 
N=C(N)c1cccc(S(=O)(=O)Oc2cccc(-c3cccc(O)c3)c2)c1

>  <score_type>  (73) 
oracle

>  <origin>  (73) 
adg

>  <m_score__min__energy>  (73) 
-13.029999999999999

>  <m_primary>  (73) 
energy

$$$$
73:0
     RDKit          3D

 31 33  0  0  0  0  0  0  0  0999 V2000
   59.6868   27.1056   46.5706 H   0  0  0  0  0  0  0  0  0  0  0  0
   58.6130   26.9300   46.4090 C   0  0  0  0  0  0  0  0  0  0  0  0
   57.8580   27.8710   45.7830 N   0  0  0  0  0  0  0  0  0  0  0  0
   56.5260   27.7090   45.5510 C   0  0  0  0  0  0  0  0  0  0  0  0
   55.9000   28.6710   44.9280 N   0  0  0  0  0  0  0  0  0  0  0  0
   56.3400   30.0070   44.6600 C   0  0  0  0  0  0  0  0  0  0  0  0
   56.0040   30.5600   43.5790 O   0  0  0  0  0  0  0  0  0  0  0  0
   57.1480   30.7110   45.6140 N   0  0  0  0  0  0  0  0  0  0  0  0
   57.7490   31.8680   45.5240 C   0  0  0  0  0  0  0  0  0  0  0  0
   57.0570   32.8630   44.9060 N   0  0  0  0  0  0  0  0  0  0  0  0
   57.4760   34.1520   44.8800 C   0  0  0  0  0  0  0  0  0  0  0  0
   56.8824   34.9114   44.3500 H   0  0  0  0  0  0  0  0  0  0  0  0
   58.6530   34.5160   45.5210 C   0  0  0  0  0  0  0  0  0  0  0  0
   58.9534   35.5730   45.5713 H   0  0  0  0  0  0  0  0  0  0  0  0
   59.4530   33.5270   46.1020 C   0  0  0  0  0  0  0  0  0  0  0  0
   60.6890   33.8800   46.6680 C   0  0  0  0  0  0  0  0  0  0  0  0
   60.9718   34.9400   46.7479 H   0  0  0  0  0  0  0  0  0  0  0  0
   61.5610   32.8910   47.1300 C   0  0  0  0  0  0  0  0  0  0  0  0
   62.8320   33.2560   47.6960 C   0  0  0  0  0  0  0  0  0  0  0  0
   63.8550   33.5500   48.1500 N   0  0  0  0  0  0  0  0  0  0  0  0
   61.2190   31.5450   46.9870 C   0  0  0  0  0  0  0  0  0  0  0  0
   61.9241   30.7647   47.3094 H   0  0  0  0  0  0  0  0  0  0  0  0
   59.9870   31.1830   46.4370 C   0  0  0  0  0  0  0  0  0  0  0  0
   59.7491   30.1187   46.2930 H   0  0  0  0  0  0  0  0  0  0  0  0
   59.0420   32.1650   46.0630 C   0  0  0  0  0  0  0  0  0  0  0  0
   55.8910   26.5330   46.0280 C   0  0  0  0  0  0  0  0  0  0  0  0
   54.5170   26.3400   45.9490 O   0  0  0  0  0  0  0  0  0  0  0  0
   56.6620   25.5500   46.6560 C   0  0  0  0  0  0  0  0  0  0  0  0
   56.1876   24.6196   47.0015 H   0  0  0  0  0  0  0  0  0  0  0  0
   58.0290   25.7440   46.8460 C   0  0  0  0  0  0  0  0  0  0  0  0
   58.6388   24.9700   47.3350 H   0  0  0  0  0  0  0  0  0  0  0  0
  1  2  1  0
  2  3  1  0
  3  4  1  0
  4  5  2  0
  5  6  1  0
  6  7  2  0
  6  8  1  0
  8  9  2  3
  9 10  1  0
 10 11  1  0
 11 12  1  0
 11 13  2  0
 13 14  1  0
 13 15  1  0
 15 16  2  0
 16 17  1  0
 16 18  1  0
 18 19  1  0
 19 20  3  0
 18 21  2  0
 21 22  1  0
 21 23  1  0
 23 24  1  0
 23 25  2  0
  4 26  1  0
 26 27  1  0
 26 28  2  0
 28 29  1  0
 28 30  1  0
 30 31  1  0
 30  2  2  0
 25  9  1  0
 25 15  1  0
M  CHG  3   3  -1  10  -1  27  -1
M  END
>  <UniqueID>  (74) 
71

>  <SMILES>  (74) 
N#Cc1ccc2c(=NC(=O)/N=c3/[n-]cccc3[O-])[n-]ccc2c1

>  <Energy>  (74) 
70.2889522700041

>  <Genealogy>  (74) 
N#Cc1ccc2c(=NC(=O)N=c3[n-]cccc3[O-])[n-]ccc2c1 (protonated)
N#Cc1ccc2c(=NC(=O)/N=c3/[n-]cccc3[O-])[n-]ccc2c1 (cis-trans isomerization)
N#Cc1ccc2c(=NC(=O)/N=c3/[n-]cccc3[O-])[n-]ccc2c1 (3D coordinates assigned)
N#Cc1ccc2c(=NC(=O)/N=c3/[n-]cccc3[O-])[n-]ccc2c1 (optimized conformer: 70.2889522700041 kcal/mol)

>  <smiles>  (74) 
N#Cc1ccc2c(=NC(=O)N=c3[nH]cccc3O)[nH]ccc2c1

>  <score_type>  (74) 
oracle

>  <origin>  (74) 
adg

>  <m_score__min__energy>  (74) 
-14.779999999999999

>  <m_primary>  (74) 
energy

$$$$
74:0
     RDKit          3D

 41 43  0  0  0  0  0  0  0  0999 V2000
   62.9651   32.6090   47.9774 H   0  0  0  0  0  0  0  0  0  0  0  0
   62.0420   32.6550   47.3810 C   0  0  0  0  0  0  0  0  0  0  0  0
   61.1820   31.6280   47.4330 C   0  0  0  0  0  0  0  0  0  0  0  0
   61.4302   30.7550   48.0546 H   0  0  0  0  0  0  0  0  0  0  0  0
   59.8800   31.6340   46.6620 C   0  0  1  0  0  0  0  0  0  0  0  0
   60.0427   31.2004   45.6643 H   0  0  0  0  0  0  0  0  0  0  0  0
   58.8710   30.8110   47.4340 C   0  0  0  0  0  0  0  0  0  0  0  0
   58.0836   31.3537   47.9776 H   0  0  0  0  0  0  0  0  0  0  0  0
   58.8620   29.4720   47.5070 C   0  0  0  0  0  0  0  0  0  0  0  0
   59.0385   29.0143   48.4916 H   0  0  0  0  0  0  0  0  0  0  0  0
   58.6330   28.5680   46.3650 C   0  0  0  0  0  0  0  0  0  0  0  0
   57.6450   27.5760   46.4570 C   0  0  0  0  0  0  0  0  0  0  0  0
   57.0753   27.4548   47.3901 H   0  0  0  0  0  0  0  0  0  0  0  0
   57.3820   26.7410   45.3670 C   0  0  0  0  0  0  0  0  0  0  0  0
   56.6147   25.9570   45.4488 H   0  0  0  0  0  0  0  0  0  0  0  0
   58.0910   26.9000   44.1750 C   0  0  0  0  0  0  0  0  0  0  0  0
   57.8893   26.2350   43.3223 H   0  0  0  0  0  0  0  0  0  0  0  0
   59.0570   27.9040   44.0650 C   0  0  0  0  0  0  0  0  0  0  0  0
   59.6096   28.0336   43.1228 H   0  0  0  0  0  0  0  0  0  0  0  0
   59.3220   28.7440   45.1510 C   0  0  0  0  0  0  0  0  0  0  0  0
   60.0708   29.5442   45.0560 H   0  0  0  0  0  0  0  0  0  0  0  0
   59.3820   33.0070   46.4600 N   0  0  0  0  0  0  0  0  0  0  0  0
   58.0310   33.2070   46.0130 C   0  0  0  0  0  0  0  0  0  0  0  0
   57.0930   33.2190   46.8570 O   0  0  0  0  0  0  0  0  0  0  0  0
   57.7520   33.4620   44.5580 C   0  0  0  0  0  0  0  0  0  0  0  0
   56.6804   33.6769   44.4334 H   0  0  0  0  0  0  0  0  0  0  0  0
   58.3668   34.3157   44.2368 H   0  0  0  0  0  0  0  0  0  0  0  0
   58.1200   32.2570   43.6880 C   0  0  0  0  0  0  0  0  0  0  0  0
   58.2549   32.5897   42.6482 H   0  0  0  0  0  0  0  0  0  0  0  0
   59.0520   31.8152   44.0703 H   0  0  0  0  0  0  0  0  0  0  0  0
   57.0400   31.2220   43.7370 C   0  0  0  0  0  0  0  0  0  0  0  0
   56.3850   30.8610   44.8600 N   0  0  0  0  0  0  0  0  0  0  0  0
   55.5530   29.9080   44.4710 N   0  0  0  0  0  0  0  0  0  0  0  0
   55.7030   29.7010   43.1740 N   0  0  0  0  0  0  0  0  0  0  0  0
   55.1670   28.9970   42.6190 H   0  0  0  0  0  0  0  0  0  0  0  0
   56.6260   30.5040   42.6760 N   0  0  0  0  0  0  0  0  0  0  0  0
   60.3120   34.1020   46.3470 C   0  0  0  0  0  0  0  0  0  0  0  0
   59.9060   35.2580   46.0390 O   0  0  0  0  0  0  0  0  0  0  0  0
   61.7820   33.8670   46.5320 C   0  0  0  0  0  0  0  0  0  0  0  0
   62.2475   33.7198   45.5463 H   0  0  0  0  0  0  0  0  0  0  0  0
   62.2109   34.7434   47.0399 H   0  0  0  0  0  0  0  0  0  0  0  0
  1  2  1  0
  2  3  2  0
  3  4  1  0
  3  5  1  0
  5  6  1  6
  5  7  1  0
  7  8  1  0
  7  9  2  0
  9 10  1  0
  9 11  1  0
 11 12  2  0
 12 13  1  0
 12 14  1  0
 14 15  1  0
 14 16  2  0
 16 17  1  0
 16 18  1  0
 18 19  1  0
 18 20  2  0
 20 21  1  0
  5 22  1  0
 22 23  1  0
 23 24  2  0
 23 25  1  0
 25 26  1  0
 25 27  1  0
 25 28  1  0
 28 29  1  0
 28 30  1  0
 28 31  1  0
 31 32  2  0
 32 33  1  0
 33 34  1  0
 34 35  1  0
 34 36  2  0
 22 37  1  0
 37 38  2  0
 37 39  1  0
 39 40  1  0
 39 41  1  0
 39  2  1  0
 20 11  1  0
 36 31  1  0
M  CHG  2  33  -1  34   1
M  END
>  <UniqueID>  (75) 
72

>  <SMILES>  (75) 
O=C1CC=C[C@@H](/C=C\c2ccccc2)N1C(=O)CCc1n[n-][nH+]n1

>  <Energy>  (75) 
91.3565744081412

>  <Genealogy>  (75) 
O=C1CC=CC(C=Cc2ccccc2)N1C(=O)CCc1n[n-][nH+]n1 (protonated)
O=C1CC=C[C@@H](C=Cc2ccccc2)N1C(=O)CCc1n[n-][nH+]n1 (chirality)
O=C1CC=C[C@@H](/C=C\c2ccccc2)N1C(=O)CCc1n[n-][nH+]n1 (cis-trans isomerization)
O=C1CC=C[C@@H](/C=C\c2ccccc2)N1C(=O)CCc1n[n-][nH+]n1 (3D coordinates assigned)
O=C1CC=C[C@@H](/C=C\c2ccccc2)N1C(=O)CCc1n[n-][nH+]n1 (nonaromatic ring conformer: 91.3565744081412 kcal/mol)

>  <smiles>  (75) 
O=C1CC=CC(C=Cc2ccccc2)N1C(=O)CCc1nn[nH]n1

>  <score_type>  (75) 
oracle

>  <origin>  (75) 
adg

>  <m_score__min__energy>  (75) 
-9.0999999999999996

>  <m_primary>  (75) 
energy

$$$$
75:0
     RDKit          3D

 60 63  0  0  0  0  0  0  0  0999 V2000
   61.4480   31.0740   49.9960 H   0  0  0  0  0  0  0  0  0  0  0  0
   61.0110   30.1910   50.1160 O   0  0  0  0  0  0  0  0  0  0  0  0
   61.1240   29.5170   48.8890 C   0  0  2  0  0  0  0  0  0  0  0  0
   62.1331   29.0823   48.8360 H   0  0  0  0  0  0  0  0  0  0  0  0
   60.8480   30.4930   47.7460 C   0  0  0  0  0  0  0  0  0  0  0  0
   61.5392   30.3095   46.9102 H   0  0  0  0  0  0  0  0  0  0  0  0
   60.9913   31.5370   48.0614 H   0  0  0  0  0  0  0  0  0  0  0  0
   59.4780   30.2420   47.3340 N   0  0  0  0  0  0  0  0  0  0  0  0
   58.7940   31.0230   46.3430 C   0  0  0  0  0  0  0  0  0  0  0  0
   57.6420   30.5640   45.7860 N   0  0  0  0  0  0  0  0  0  0  0  0
   56.9810   31.3050   44.8630 C   0  0  0  0  0  0  0  0  0  0  0  0
   55.8700   30.8560   44.3610 N   0  0  0  0  0  0  0  0  0  0  0  0
   55.6980   29.5390   43.7470 C   0  0  0  0  0  0  0  0  0  0  0  0
   54.9099   29.5994   42.9820 H   0  0  0  0  0  0  0  0  0  0  0  0
   55.4200   28.8208   44.5325 H   0  0  0  0  0  0  0  0  0  0  0  0
   56.9920   29.0650   43.0930 C   0  0  0  0  0  0  0  0  0  0  0  0
   57.7206   28.7981   43.8727 H   0  0  0  0  0  0  0  0  0  0  0  0
   56.7854   28.1842   42.4673 H   0  0  0  0  0  0  0  0  0  0  0  0
   57.4032   29.8709   42.4673 H   0  0  0  0  0  0  0  0  0  0  0  0
   57.4820   32.5140   44.4910 N   0  0  0  0  0  0  0  0  0  0  0  0
   58.6350   32.9800   45.0390 C   0  0  0  0  0  0  0  0  0  0  0  0
   59.1250   34.1330   44.6910 N   0  0  0  0  0  0  0  0  0  0  0  0
   59.5550   35.1760   45.6220 C   0  0  0  0  0  0  0  0  0  0  0  0
   60.1090   35.9477   45.0674 H   0  0  0  0  0  0  0  0  0  0  0  0
   58.6641   35.6107   46.0988 H   0  0  0  0  0  0  0  0  0  0  0  0
   60.4450   34.6050   46.6950 C   0  0  0  0  0  0  0  0  0  0  0  0
   60.0140   34.5600   48.0300 C   0  0  0  0  0  0  0  0  0  0  0  0
   59.0346   34.9798   48.3030 H   0  0  0  0  0  0  0  0  0  0  0  0
   60.8220   33.9850   49.0140 C   0  0  0  0  0  0  0  0  0  0  0  0
   60.4729   33.9529   50.0566 H   0  0  0  0  0  0  0  0  0  0  0  0
   62.0780   33.4470   48.6820 C   0  0  0  0  0  0  0  0  0  0  0  0
   62.9410   32.8160   49.7080 C   0  0  0  0  0  0  0  0  0  0  0  0
   62.5240   32.7330   50.8950 O   0  0  0  0  0  0  0  0  0  0  0  0
   64.2510   32.3200   49.3770 N   0  0  0  0  0  0  0  0  0  0  0  0
   64.5720   32.3110   48.3850 H   0  0  0  0  0  0  0  0  0  0  0  0
   65.0940   31.6820   50.3460 C   0  0  0  0  0  0  0  0  0  0  0  0
   66.4110   32.1360   50.4990 C   0  0  0  0  0  0  0  0  0  0  0  0
   66.7710   32.9819   49.8950 H   0  0  0  0  0  0  0  0  0  0  0  0
   67.2700   31.5210   51.4140 C   0  0  0  0  0  0  0  0  0  0  0  0
   68.3054   31.8768   51.5208 H   0  0  0  0  0  0  0  0  0  0  0  0
   66.8150   30.4560   52.1920 C   0  0  0  0  0  0  0  0  0  0  0  0
   67.4963   29.9640   52.9018 H   0  0  0  0  0  0  0  0  0  0  0  0
   65.4970   30.0140   52.0710 C   0  0  0  0  0  0  0  0  0  0  0  0
   65.1423   29.1787   52.6927 H   0  0  0  0  0  0  0  0  0  0  0  0
   64.6200   30.6270   51.1620 C   0  0  0  0  0  0  0  0  0  0  0  0
   63.2500   30.2090   51.1190 N   0  0  0  0  0  0  0  0  0  0  0  0
   62.5040   30.7170   51.6410 H   0  0  0  0  0  0  0  0  0  0  0  0
   62.9760   29.3400   50.6070 H   0  0  0  0  0  0  0  0  0  0  0  0
   62.5200   33.5260   47.3500 C   0  0  0  0  0  0  0  0  0  0  0  0
   63.5125   33.1355   47.0809 H   0  0  0  0  0  0  0  0  0  0  0  0
   61.7100   34.0960   46.3650 C   0  0  0  0  0  0  0  0  0  0  0  0
   62.0658   34.1460   45.3253 H   0  0  0  0  0  0  0  0  0  0  0  0
   59.2850   32.2330   45.9670 N   0  0  0  0  0  0  0  0  0  0  0  0
   58.8880   29.0850   47.9870 C   0  0  0  0  0  0  0  0  0  0  0  0
   58.4890   28.3830   47.2400 H   0  0  0  0  0  0  0  0  0  0  0  0
   58.0487   29.3668   48.6399 H   0  0  0  0  0  0  0  0  0  0  0  0
   60.0300   28.4380   48.7740 C   0  0  1  0  0  0  0  0  0  0  0  0
   59.6928   28.0983   49.7644 H   0  0  0  0  0  0  0  0  0  0  0  0
   60.5180   27.2980   48.1090 O   0  0  0  0  0  0  0  0  0  0  0  0
   60.4760   27.4730   47.1300 H   0  0  0  0  0  0  0  0  0  0  0  0
  1  2  1  0
  2  3  1  0
  3  4  1  6
  3  5  1  0
  5  6  1  0
  5  7  1  0
  5  8  1  0
  8  9  1  0
  9 10  2  0
 10 11  1  0
 11 12  2  0
 12 13  1  0
 13 14  1  0
 13 15  1  0
 13 16  1  0
 16 17  1  0
 16 18  1  0
 16 19  1  0
 11 20  1  0
 20 21  1  0
 21 22  2  3
 22 23  1  0
 23 24  1  0
 23 25  1  0
 23 26  1  0
 26 27  2  0
 27 28  1  0
 27 29  1  0
 29 30  1  0
 29 31  2  0
 31 32  1  0
 32 33  2  0
 32 34  1  0
 34 35  1  0
 34 36  1  0
 36 37  2  0
 37 38  1  0
 37 39  1  0
 39 40  1  0
 39 41  2  0
 41 42  1  0
 41 43  1  0
 43 44  1  0
 43 45  2  0
 45 46  1  0
 46 47  1  0
 46 48  1  0
 31 49  1  0
 49 50  1  0
 49 51  2  0
 51 52  1  0
 21 53  1  0
  8 54  1  0
 54 55  1  0
 54 56  1  0
 54 57  1  0
 57 58  1  1
 57 59  1  0
 59 60  1  0
 57  3  1  0
 53  9  1  0
 51 26  1  0
 45 36  1  0
M  CHG  2  20  -1  53  -1
M  END
>  <UniqueID>  (76) 
73

>  <SMILES>  (76) 
CC/N=c1/nc(N2C[C@@H](O)[C@H](O)C2)[n-]c(=NCc2ccc(C(=O)Nc3ccccc3N)cc2)[n-]1

>  <Energy>  (76) 
68.49884578861034

>  <Genealogy>  (76) 
CCN=c1nc(N2CC(O)C(O)C2)[n-]c(=NCc2ccc(C(=O)Nc3ccccc3N)cc2)[n-]1 (protonated)
CCN=c1nc(N2C[C@@H](O)[C@H](O)C2)[n-]c(=NCc2ccc(C(=O)Nc3ccccc3N)cc2)[n-]1 (chirality)
CC/N=c1/nc(N2C[C@@H](O)[C@H](O)C2)[n-]c(=NCc2ccc(C(=O)Nc3ccccc3N)cc2)[n-]1 (cis-trans isomerization)
CC/N=c1/nc(N2C[C@@H](O)[C@H](O)C2)[n-]c(=NCc2ccc(C(=O)Nc3ccccc3N)cc2)[n-]1 (3D coordinates assigned)
CC/N=c1/nc(N2C[C@@H](O)[C@H](O)C2)[n-]c(=NCc2ccc(C(=O)Nc3ccccc3N)cc2)[n-]1 (nonaromatic ring conformer: 68.49884578861034 kcal/mol)

>  <smiles>  (76) 
CCN=c1nc(N2CC(O)C(O)C2)[nH]c(=NCc2ccc(C(=O)Nc3ccccc3N)cc2)[nH]1

>  <score_type>  (76) 
oracle

>  <origin>  (76) 
adg

>  <m_score__min__energy>  (76) 
-10.539999999999999

>  <m_primary>  (76) 
energy

$$$$
76:0
     RDKit          3D

 71 75  0  0  1  0  0  0  0  0999 V2000
   62.3680   31.1550   49.5780 C   0  0  0  0  0  0  0  0  0  0  0  0
   60.9650   31.2580   50.0090 C   0  0  0  0  0  0  0  0  0  0  0  0
   60.7220   31.7430   51.2830 C   0  0  0  0  0  0  0  0  0  0  0  0
   59.4080   31.8630   51.7500 C   0  0  0  0  0  0  0  0  0  0  0  0
   58.3720   31.4910   50.9170 C   0  0  0  0  0  0  0  0  0  0  0  0
   57.0220   31.6190   51.4170 N   0  0  0  0  0  0  0  0  0  0  0  0
   56.4180   30.4650   51.9910 C   0  0  0  0  0  0  0  0  0  0  0  0
   57.1260   29.4180   52.0110 O   0  0  0  0  0  0  0  0  0  0  0  0
   55.0610   30.4880   52.5230 C   0  0  0  0  0  0  0  0  0  0  0  0
   54.7370   30.0670   53.7940 C   0  0  0  0  0  0  0  0  0  0  0  0
   53.4500   30.0900   54.3000 C   0  0  0  0  0  0  0  0  0  0  0  0
   52.4520   30.5700   53.4590 C   0  0  0  0  0  0  0  0  0  0  0  0
   52.7540   31.0030   52.1650 C   0  0  0  0  0  0  0  0  0  0  0  0
   51.6700   31.5120   51.2830 C   0  0  0  0  0  0  0  0  0  0  0  0
   50.5170   31.7310   52.0020 F   0  0  0  0  0  0  0  0  0  0  0  0
   51.3870   30.5700   50.3050 F   0  0  0  0  0  0  0  0  0  0  0  0
   52.0380   32.6990   50.6840 F   0  0  0  0  0  0  0  0  0  0  0  0
   54.0560   30.9630   51.6960 C   0  0  0  0  0  0  0  0  0  0  0  0
   58.5890   31.0010   49.6320 C   0  0  0  0  0  0  0  0  0  0  0  0
   59.8910   30.8900   49.1920 C   0  0  0  0  0  0  0  0  0  0  0  0
   56.5770   30.4340   44.6000 N   0  0  0  0  0  0  0  0  0  0  0  0
   57.2630   29.4780   45.1730 C   0  0  0  0  0  0  0  0  0  0  0  0
   57.0450   28.1780   44.9030 N   0  0  0  0  0  0  0  0  0  0  0  0
   57.7390   27.1750   45.4730 C   0  0  0  0  0  0  0  0  0  0  0  0
   59.4160   26.5350   46.9510 N   0  0  0  0  0  0  0  0  0  0  0  0
   58.7150   27.5270   46.3760 C   0  0  0  0  0  0  0  0  0  0  0  0
   60.3940   26.8350   47.8500 C   0  0  0  0  0  0  0  0  0  0  0  0
   60.6330   28.1270   48.1390 N   0  0  0  0  0  0  0  0  0  0  0  0
   59.9550   29.1490   47.5850 C   0  0  0  0  0  0  0  0  0  0  0  0
   60.2060   30.3940   47.8780 N   0  0  0  0  0  0  0  0  0  0  0  0
   57.2660   31.5990   44.1180 C   0  0  0  0  0  0  0  0  0  0  0  0
   57.0890   31.8690   42.9030 O   0  0  0  0  0  0  0  0  0  0  0  0
   58.0940   32.3900   44.9760 N   0  0  0  0  0  0  0  0  0  0  0  0
   58.7830   33.5600   44.4890 C   0  0  0  0  0  0  0  0  0  0  0  0
   59.8910   34.0200   45.3970 C   0  0  0  0  0  0  0  0  0  0  0  0
   60.0010   33.1760   46.5400 N   0  0  0  0  0  0  0  0  0  0  0  0
   59.1250   33.4840   47.6340 C   0  0  0  0  0  0  0  0  0  0  0  0
   59.6550   34.6210   48.4850 C   0  0  0  0  0  0  0  0  0  0  0  0
   60.8520   34.1660   49.0340 O   0  0  0  0  0  0  0  0  0  0  0  0
   61.7700   34.0530   47.9950 C   0  0  0  0  0  0  0  0  0  0  0  0
   61.3770   33.0000   46.9790 C   0  0  0  0  0  0  0  0  0  0  0  0
   58.2260   29.8220   46.0630 N   0  0  0  0  0  0  0  0  0  0  0  0
   58.9610   28.8590   46.6730 C   0  0  0  0  0  0  0  0  0  0  0  0
   63.0206   31.1071   50.4622 H   0  0  0  0  0  0  0  0  0  0  0  0
   62.5004   30.2447   48.9748 H   0  0  0  0  0  0  0  0  0  0  0  0
   62.6319   32.0362   48.9748 H   0  0  0  0  0  0  0  0  0  0  0  0
   61.5631   32.0345   51.9292 H   0  0  0  0  0  0  0  0  0  0  0  0
   59.2049   32.2462   52.7609 H   0  0  0  0  0  0  0  0  0  0  0  0
   56.5170   32.5300   51.3560 H   0  0  0  0  0  0  0  0  0  0  0  0
   55.5444   29.6928   54.4406 H   0  0  0  0  0  0  0  0  0  0  0  0
   53.2263   29.7447   55.3202 H   0  0  0  0  0  0  0  0  0  0  0  0
   51.4125   30.6094   53.8165 H   0  0  0  0  0  0  0  0  0  0  0  0
   54.2902   31.3049   50.6770 H   0  0  0  0  0  0  0  0  0  0  0  0
   57.7466   30.7110   48.9868 H   0  0  0  0  0  0  0  0  0  0  0  0
   56.3080   27.8940   44.2200 H   0  0  0  0  0  0  0  0  0  0  0  0
   57.5349   26.1223   45.2278 H   0  0  0  0  0  0  0  0  0  0  0  0
   60.9775   26.0360   48.3308 H   0  0  0  0  0  0  0  0  0  0  0  0
   61.4050   28.3220   48.8460 H   0  0  0  0  0  0  0  0  0  0  0  0
   58.1830   32.0820   45.9860 H   0  0  0  0  0  0  0  0  0  0  0  0
   59.2132   33.3269   43.5038 H   0  0  0  0  0  0  0  0  0  0  0  0
   58.0452   34.3743   44.4374 H   0  0  0  0  0  0  0  0  0  0  0  0
   60.8411   34.0003   44.8430 H   0  0  0  0  0  0  0  0  0  0  0  0
   59.6630   35.0410   45.7371 H   0  0  0  0  0  0  0  0  0  0  0  0
   58.1420   33.7702   47.2318 H   0  0  0  0  0  0  0  0  0  0  0  0
   59.0503   32.5901   48.2707 H   0  0  0  0  0  0  0  0  0  0  0  0
   59.8336   35.5115   47.8644 H   0  0  0  0  0  0  0  0  0  0  0  0
   58.9365   34.9067   49.2674 H   0  0  0  0  0  0  0  0  0  0  0  0
   61.8445   35.0243   47.4841 H   0  0  0  0  0  0  0  0  0  0  0  0
   62.7319   33.7489   48.4334 H   0  0  0  0  0  0  0  0  0  0  0  0
   62.0437   33.0766   46.1074 H   0  0  0  0  0  0  0  0  0  0  0  0
   61.4666   32.0109   47.4519 H   0  0  0  0  0  0  0  0  0  0  0  0
  1  2  1  0
  2  3  2  0
  3  4  1  0
  4  5  2  0
  5  6  1  0
  6  7  1  0
  7  8  2  0
  7  9  1  0
  9 10  2  0
 10 11  1  0
 11 12  2  0
 12 13  1  0
 13 14  1  0
 14 15  1  0
 14 16  1  0
 14 17  1  0
 13 18  2  0
  5 19  1  0
 19 20  2  0
 20 21  1  0
 21 22  2  0
 22 23  1  0
 23 24  1  0
 24 25  2  0
 25 26  1  0
 26 27  2  0
 27 28  1  0
 28 29  1  0
 29 30  2  0
 30 31  1  0
 31 32  2  0
 31 33  1  0
 33 34  1  0
 34 35  1  0
 35 36  1  0
 36 37  1  0
 37 38  1  0
 38 39  1  0
 39 40  1  0
 40 41  1  0
 29 42  1  0
 42 43  2  0
 20  2  1  0
 43 22  1  0
 18  9  1  0
 43 26  1  0
 41 36  1  0
  1 44  1  0
  1 45  1  0
  1 46  1  0
  3 47  1  0
  4 48  1  0
  6 49  1  0
 10 50  1  0
 11 51  1  0
 12 52  1  0
 18 53  1  0
 19 54  1  0
 23 55  1  0
 24 56  1  0
 27 57  1  0
 28 58  1  0
 33 59  1  0
 34 60  1  0
 34 61  1  0
 35 62  1  0
 35 63  1  0
 37 64  1  0
 37 65  1  0
 38 66  1  0
 38 67  1  0
 40 68  1  0
 40 69  1  0
 41 70  1  0
 41 71  1  0
M  END
>  <smiles>  (77) 
Cc1ccc(NC(=O)c2cccc(C(F)(F)F)c2)cc1N=c1[nH]cnc2c[nH]c(=NC(=O)NCCN3CCOCC3)nc12

>  <score_type>  (77) 
oracle

>  <origin>  (77) 
adg

>  <m_score__min__energy>  (77) 
-10.69

>  <m_primary>  (77) 
energy

$$$$
77:0
     RDKit          3D

 43 44  0  0  0  0  0  0  0  0999 V2000
   55.1650   23.4880   46.9040 C   0  0  0  0  0  0  0  0  0  0  0  0
   54.8370   24.3330   45.3680 S   0  0  0  0  0  0  0  0  0  0  0  0
   53.9600   23.4680   44.5050 O   0  0  0  0  0  0  0  0  0  0  0  0
   54.1150   25.6160   45.6660 O   0  0  0  0  0  0  0  0  0  0  0  0
   56.3120   24.6990   44.5240 N   0  0  0  0  0  0  0  0  0  0  0  0
   57.4560   24.4650   45.4060 C   0  0  0  0  0  0  0  0  0  0  0  0
   57.9930   25.7950   45.9440 C   0  0  0  0  0  0  0  0  0  0  0  0
   56.8990   26.6720   46.5730 C   0  0  0  0  0  0  0  0  0  0  0  0
   56.2280   27.4640   45.5880 O   0  0  0  0  0  0  0  0  0  0  0  0
   56.7170   28.6510   45.0170 C   0  0  0  0  0  0  0  0  0  0  0  0
   58.0900   28.9590   44.9580 C   0  0  0  0  0  0  0  0  0  0  0  0
   58.5130   30.1930   44.4600 C   0  0  0  0  0  0  0  0  0  0  0  0
   57.5780   31.1300   43.9950 C   0  0  0  0  0  0  0  0  0  0  0  0
   58.0290   32.4990   43.5670 C   0  0  0  0  0  0  0  0  0  0  0  0
   58.4040   33.3130   44.7780 C   0  0  0  0  0  0  0  0  0  0  0  0
   59.2600   34.4200   44.6490 C   0  0  0  0  0  0  0  0  0  0  0  0
   59.5660   35.2060   45.7640 C   0  0  0  0  0  0  0  0  0  0  0  0
   59.0170   34.8980   47.0120 C   0  0  0  0  0  0  0  0  0  0  0  0
   58.1550   33.8050   47.1460 C   0  0  0  0  0  0  0  0  0  0  0  0
   57.8440   33.0170   46.0330 C   0  0  0  0  0  0  0  0  0  0  0  0
   56.2130   30.8070   44.0170 C   0  0  0  0  0  0  0  0  0  0  0  0
   55.7900   29.5700   44.5120 C   0  0  0  0  0  0  0  0  0  0  0  0
   54.9092   24.1469   47.7469 H   0  0  0  0  0  0  0  0  0  0  0  0
   54.5568   22.5730   46.9562 H   0  0  0  0  0  0  0  0  0  0  0  0
   56.2313   23.2230   46.9562 H   0  0  0  0  0  0  0  0  0  0  0  0
   56.2830   25.7190   44.2910 H   0  0  0  0  0  0  0  0  0  0  0  0
   57.1407   23.8331   46.2494 H   0  0  0  0  0  0  0  0  0  0  0  0
   58.2510   23.9626   44.8354 H   0  0  0  0  0  0  0  0  0  0  0  0
   58.7548   25.5823   46.7085 H   0  0  0  0  0  0  0  0  0  0  0  0
   58.4116   26.3505   45.0918 H   0  0  0  0  0  0  0  0  0  0  0  0
   56.1635   26.0230   47.0709 H   0  0  0  0  0  0  0  0  0  0  0  0
   57.3754   27.3516   47.2949 H   0  0  0  0  0  0  0  0  0  0  0  0
   58.8318   28.2248   45.3055 H   0  0  0  0  0  0  0  0  0  0  0  0
   59.5863   30.4321   44.4321 H   0  0  0  0  0  0  0  0  0  0  0  0
   58.9023   32.4056   42.9047 H   0  0  0  0  0  0  0  0  0  0  0  0
   57.2100   33.0007   43.0308 H   0  0  0  0  0  0  0  0  0  0  0  0
   59.6906   34.6688   43.6678 H   0  0  0  0  0  0  0  0  0  0  0  0
   60.2403   36.0687   45.6589 H   0  0  0  0  0  0  0  0  0  0  0  0
   59.2630   35.5153   47.8886 H   0  0  0  0  0  0  0  0  0  0  0  0
   57.7210   33.5647   48.1278 H   0  0  0  0  0  0  0  0  0  0  0  0
   57.1591   32.1630   46.1401 H   0  0  0  0  0  0  0  0  0  0  0  0
   55.4728   31.5298   43.6433 H   0  0  0  0  0  0  0  0  0  0  0  0
   54.7196   29.3168   44.5046 H   0  0  0  0  0  0  0  0  0  0  0  0
  1  2  1  0
  2  3  2  0
  2  4  2  0
  2  5  1  0
  5  6  1  0
  6  7  1  0
  7  8  1  0
  8  9  1  0
  9 10  1  0
 10 11  2  0
 11 12  1  0
 12 13  2  0
 13 14  1  0
 14 15  1  0
 15 16  2  0
 16 17  1  0
 17 18  2  0
 18 19  1  0
 19 20  2  0
 13 21  1  0
 21 22  2  0
 22 10  1  0
 20 15  1  0
  1 23  1  0
  1 24  1  0
  1 25  1  0
  5 26  1  0
  6 27  1  0
  6 28  1  0
  7 29  1  0
  7 30  1  0
  8 31  1  0
  8 32  1  0
 11 33  1  0
 12 34  1  0
 14 35  1  0
 14 36  1  0
 16 37  1  0
 17 38  1  0
 18 39  1  0
 19 40  1  0
 20 41  1  0
 21 42  1  0
 22 43  1  0
M  END
>  <UniqueID>  (78) 
74

>  <SMILES>  (78) 
CS(=O)(=O)NCCCOc1ccc(Cc2ccccc2)cc1

>  <Energy>  (78) 
30.321357669713716

>  <Genealogy>  (78) 
CS(=O)(=O)NCCCOc1ccc(Cc2ccccc2)cc1 (3D coordinates assigned)
CS(=O)(=O)NCCCOc1ccc(Cc2ccccc2)cc1 (optimized conformer: 30.321357669713716 kcal/mol)

>  <smiles>  (78) 
CS(=O)(=O)NCCCOc1ccc(Cc2ccccc2)cc1

>  <score_type>  (78) 
oracle

>  <origin>  (78) 
adg

>  <m_score__min__energy>  (78) 
-8.75

>  <m_primary>  (78) 
energy

$$$$
78:0
     RDKit          3D

 43 44  0  0  0  0  0  0  0  0999 V2000
   58.8750   32.6860   49.8030 C   0  0  0  0  0  0  0  0  0  0  0  0
   59.5140   33.0620   48.5040 C   0  0  0  0  0  0  0  0  0  0  0  0
   60.9050   33.0380   48.3650 C   0  0  0  0  0  0  0  0  0  0  0  0
   61.4680   33.4290   47.1420 C   0  0  0  0  0  0  0  0  0  0  0  0
   62.9600   33.3640   46.9330 C   0  0  0  0  0  0  0  0  0  0  0  0
   63.4120   32.0580   47.0140 F   0  0  0  0  0  0  0  0  0  0  0  0
   63.6150   34.1100   47.8950 F   0  0  0  0  0  0  0  0  0  0  0  0
   63.2650   33.8720   45.6830 F   0  0  0  0  0  0  0  0  0  0  0  0
   60.6460   33.7860   46.1130 N   0  0  0  0  0  0  0  0  0  0  0  0
   59.2940   33.8010   46.2680 C   0  0  0  0  0  0  0  0  0  0  0  0
   58.2330   34.2800   44.9050 S   0  0  0  0  0  0  0  0  0  0  0  0
   58.1770   32.6120   44.1630 C   0  0  0  0  0  0  0  0  0  0  0  0
   57.3400   31.6790   44.9970 C   0  0  0  0  0  0  0  0  0  0  0  0
   57.7560   31.3390   46.1350 O   0  0  0  0  0  0  0  0  0  0  0  0
   56.1060   31.1260   44.5190 N   0  0  0  0  0  0  0  0  0  0  0  0
   55.8820   29.7180   44.2100 C   0  0  0  0  0  0  0  0  0  0  0  0
   57.0310   29.1690   43.3530 C   0  0  0  0  0  0  0  0  0  0  0  0
   57.7730   28.0170   44.0430 C   0  0  0  0  0  0  0  0  0  0  0  0
   58.6220   28.5080   45.1900 C   0  0  0  0  0  0  0  0  0  0  0  0
   58.2110   28.3070   46.5190 C   0  0  0  0  0  0  0  0  0  0  0  0
   58.9780   28.8070   47.5760 C   0  0  0  0  0  0  0  0  0  0  0  0
   60.1580   29.5090   47.3150 C   0  0  0  0  0  0  0  0  0  0  0  0
   60.5730   29.7130   45.9970 C   0  0  0  0  0  0  0  0  0  0  0  0
   59.8090   29.2150   44.9360 C   0  0  0  0  0  0  0  0  0  0  0  0
   58.7400   33.4500   47.4570 N   0  0  0  0  0  0  0  0  0  0  0  0
   59.4946   33.0506   50.6355 H   0  0  0  0  0  0  0  0  0  0  0  0
   57.8747   33.1395   49.8644 H   0  0  0  0  0  0  0  0  0  0  0  0
   58.7857   31.5914   49.8644 H   0  0  0  0  0  0  0  0  0  0  0  0
   61.5459   32.7182   49.1999 H   0  0  0  0  0  0  0  0  0  0  0  0
   61.0500   34.0470   45.1850 H   0  0  0  0  0  0  0  0  0  0  0  0
   57.7426   32.6811   43.1548 H   0  0  0  0  0  0  0  0  0  0  0  0
   59.2018   32.2152   44.1144 H   0  0  0  0  0  0  0  0  0  0  0  0
   55.8239   29.1459   45.1477 H   0  0  0  0  0  0  0  0  0  0  0  0
   54.9407   29.6211   43.6492 H   0  0  0  0  0  0  0  0  0  0  0  0
   56.6189   28.8042   42.4006 H   0  0  0  0  0  0  0  0  0  0  0  0
   57.7510   29.9850   43.1929 H   0  0  0  0  0  0  0  0  0  0  0  0
   57.0353   27.2975   44.4279 H   0  0  0  0  0  0  0  0  0  0  0  0
   58.4358   27.5441   43.3034 H   0  0  0  0  0  0  0  0  0  0  0  0
   57.2831   27.7546   46.7283 H   0  0  0  0  0  0  0  0  0  0  0  0
   58.6521   28.6475   48.6144 H   0  0  0  0  0  0  0  0  0  0  0  0
   60.7602   29.9010   48.1479 H   0  0  0  0  0  0  0  0  0  0  0  0
   61.5018   30.2659   45.7929 H   0  0  0  0  0  0  0  0  0  0  0  0
   60.1389   29.3776   43.8993 H   0  0  0  0  0  0  0  0  0  0  0  0
  1  2  1  0
  2  3  2  0
  3  4  1  0
  4  5  1  0
  5  6  1  0
  5  7  1  0
  5  8  1  0
  4  9  2  0
  9 10  1  0
 10 11  1  0
 11 12  1  0
 12 13  1  0
 13 14  2  0
 13 15  1  0
 15 16  1  0
 16 17  1  0
 17 18  1  0
 18 19  1  0
 19 20  2  0
 20 21  1  0
 21 22  2  0
 22 23  1  0
 23 24  2  0
 10 25  2  0
 25  2  1  0
 24 19  1  0
  1 26  1  0
  1 27  1  0
  1 28  1  0
  3 29  1  0
  9 30  1  0
 12 31  1  0
 12 32  1  0
 16 33  1  0
 16 34  1  0
 17 35  1  0
 17 36  1  0
 18 37  1  0
 18 38  1  0
 20 39  1  0
 21 40  1  0
 22 41  1  0
 23 42  1  0
 24 43  1  0
M  CHG  2   9   1  15  -1
M  END
>  <UniqueID>  (79) 
75

>  <SMILES>  (79) 
Cc1cc(C(F)(F)F)[nH+]c(SCC(=O)[N-]CCCc2ccccc2)n1

>  <Energy>  (79) 
30.987260059720537

>  <Genealogy>  (79) 
Cc1cc(C(F)(F)F)[nH+]c(SCC(=O)[N-]CCCc2ccccc2)n1 (protonated)
Cc1cc(C(F)(F)F)[nH+]c(SCC(=O)[N-]CCCc2ccccc2)n1 (3D coordinates assigned)
Cc1cc(C(F)(F)F)[nH+]c(SCC(=O)[N-]CCCc2ccccc2)n1 (optimized conformer: 30.987260059720537 kcal/mol)

>  <smiles>  (79) 
Cc1cc(C(F)(F)F)nc(SCC(=O)NCCCc2ccccc2)n1

>  <score_type>  (79) 
oracle

>  <origin>  (79) 
adg

>  <m_score__min__energy>  (79) 
-7.54

>  <m_primary>  (79) 
energy

$$$$
79:0
     RDKit          3D

 28 29  0  0  0  0  0  0  0  0999 V2000
   59.6548   26.3739   46.3039 H   0  0  0  0  0  0  0  0  0  0  0  0
   58.5580   26.3590   46.2210 C   0  0  0  0  0  0  0  0  0  0  0  0
   57.8940   27.4630   45.7880 N   0  0  0  0  0  0  0  0  0  0  0  0
   56.5400   27.5040   45.6610 C   0  0  0  0  0  0  0  0  0  0  0  0
   56.0030   28.6120   45.2310 N   0  0  0  0  0  0  0  0  0  0  0  0
   56.6690   29.7210   44.6180 C   0  0  0  0  0  0  0  0  0  0  0  0
   56.1110   30.8490   44.6050 O   0  0  0  0  0  0  0  0  0  0  0  0
   58.0710   29.5750   44.1100 C   0  0  0  0  0  0  0  0  0  0  0  0
   58.2348   28.5334   43.7965 H   0  0  0  0  0  0  0  0  0  0  0  0
   58.2112   30.2566   43.2580 H   0  0  0  0  0  0  0  0  0  0  0  0
   59.2770   30.0060   45.4110 S   0  0  0  0  0  0  0  0  0  0  0  0
   58.6640   31.6810   45.6510 C   0  0  0  0  0  0  0  0  0  0  0  0
   58.4950   32.5150   44.5380 C   0  0  0  0  0  0  0  0  0  0  0  0
   58.7347   32.1493   43.5286 H   0  0  0  0  0  0  0  0  0  0  0  0
   58.0200   33.8130   44.7220 C   0  0  0  0  0  0  0  0  0  0  0  0
   57.8776   34.4762   43.8560 H   0  0  0  0  0  0  0  0  0  0  0  0
   57.7260   34.2680   46.0070 C   0  0  0  0  0  0  0  0  0  0  0  0
   57.3468   35.2889   46.1619 H   0  0  0  0  0  0  0  0  0  0  0  0
   57.9180   33.4140   47.0950 C   0  0  0  0  0  0  0  0  0  0  0  0
   57.6925   33.7654   48.1127 H   0  0  0  0  0  0  0  0  0  0  0  0
   58.3830   32.1480   46.9030 N   0  0  0  0  0  0  0  0  0  0  0  0
   58.5740   31.3370   48.0000 O   0  0  0  0  0  0  0  0  0  0  0  0
   55.7860   26.3560   46.0210 C   0  0  0  0  0  0  0  0  0  0  0  0
   54.3970   26.3330   45.9800 O   0  0  0  0  0  0  0  0  0  0  0  0
   56.4590   25.2110   46.4600 C   0  0  0  0  0  0  0  0  0  0  0  0
   55.8887   24.3092   46.7274 H   0  0  0  0  0  0  0  0  0  0  0  0
   57.8490   25.2080   46.5600 C   0  0  0  0  0  0  0  0  0  0  0  0
   58.3803   24.3078   46.9025 H   0  0  0  0  0  0  0  0  0  0  0  0
  1  2  1  0
  2  3  1  0
  3  4  1  0
  4  5  2  0
  5  6  1  0
  6  7  2  0
  6  8  1  0
  8  9  1  0
  8 10  1  0
  8 11  1  0
 11 12  1  0
 12 13  2  0
 13 14  1  0
 13 15  1  0
 15 16  1  0
 15 17  2  0
 17 18  1  0
 17 19  1  0
 19 20  1  0
 19 21  2  0
 21 22  1  0
  4 23  1  0
 23 24  1  0
 23 25  2  0
 25 26  1  0
 25 27  1  0
 27 28  1  0
 27  2  2  0
 21 12  1  0
M  CHG  4   3  -1  21   1  22  -1  24  -1
M  END
>  <UniqueID>  (80) 
76

>  <SMILES>  (80) 
O=C(CSc1cccc[n+]1[O-])/N=c1/[n-]cccc1[O-]

>  <Energy>  (80) 
39.013832284298886

>  <Genealogy>  (80) 
O=C(CSc1cccc[n+]1[O-])N=c1[n-]cccc1[O-] (protonated)
O=C(CSc1cccc[n+]1[O-])/N=c1/[n-]cccc1[O-] (cis-trans isomerization)
O=C(CSc1cccc[n+]1[O-])/N=c1/[n-]cccc1[O-] (3D coordinates assigned)
O=C(CSc1cccc[n+]1[O-])/N=c1/[n-]cccc1[O-] (optimized conformer: 39.013832284298886 kcal/mol)

>  <smiles>  (80) 
O=C(CSc1cccc[n+]1[O-])N=c1[nH]cccc1O

>  <score_type>  (80) 
oracle

>  <origin>  (80) 
adg

>  <m_score__min__energy>  (80) 
-12.08

>  <m_primary>  (80) 
energy

$$$$
80:0
     RDKit          3D

 45 46  0  0  0  0  0  0  0  0999 V2000
   63.6220   32.9160   47.0900 C   0  0  0  0  0  0  0  0  0  0  0  0
   62.4820   33.8200   47.5570 C   0  0  0  0  0  0  0  0  0  0  0  0
   61.1970   33.6300   46.7350 C   0  0  0  0  0  0  0  0  0  0  0  0
   59.9140   34.0230   47.4790 C   0  0  0  0  0  0  0  0  0  0  0  0
   58.8100   34.1190   46.5790 O   0  0  0  0  0  0  0  0  0  0  0  0
   58.7250   33.4260   45.3640 C   0  0  0  0  0  0  0  0  0  0  0  0
   59.1770   33.9420   44.3050 O   0  0  0  0  0  0  0  0  0  0  0  0
   58.1000   32.0860   45.3270 C   0  0  0  0  0  0  0  0  0  0  0  0
   58.5140   31.0840   46.2210 C   0  0  0  0  0  0  0  0  0  0  0  0
   57.9280   29.8170   46.1870 C   0  0  0  0  0  0  0  0  0  0  0  0
   56.9060   29.5310   45.2650 C   0  0  0  0  0  0  0  0  0  0  0  0
   56.3100   28.2280   45.1800 N   0  0  0  0  0  0  0  0  0  0  0  0
   56.8070   27.0300   45.7890 C   0  0  0  0  0  0  0  0  0  0  0  0
   58.0470   26.8150   45.7760 O   0  0  0  0  0  0  0  0  0  0  0  0
   55.8930   26.0050   46.3310 C   0  0  0  0  0  0  0  0  0  0  0  0
   56.3470   25.1400   47.1260 O   0  0  0  0  0  0  0  0  0  0  0  0
   54.5000   25.9640   45.9920 N   0  0  0  0  0  0  0  0  0  0  0  0
   53.7720   24.7860   45.5280 C   0  0  0  0  0  0  0  0  0  0  0  0
   54.7330   23.7460   45.0150 C   0  0  0  0  0  0  0  0  0  0  0  0
   55.0140   22.5940   45.7650 C   0  0  0  0  0  0  0  0  0  0  0  0
   55.8740   21.6260   45.2420 C   0  0  0  0  0  0  0  0  0  0  0  0
   56.4350   21.8010   44.0160 N   0  0  0  0  0  0  0  0  0  0  0  0
   56.1830   22.9080   43.2690 C   0  0  0  0  0  0  0  0  0  0  0  0
   55.3280   23.9020   43.7540 C   0  0  0  0  0  0  0  0  0  0  0  0
   56.5090   30.5180   44.3570 C   0  0  0  0  0  0  0  0  0  0  0  0
   57.0930   31.7880   44.3910 C   0  0  0  0  0  0  0  0  0  0  0  0
   64.1439   32.5021   47.9654 H   0  0  0  0  0  0  0  0  0  0  0  0
   63.2133   32.0938   46.4842 H   0  0  0  0  0  0  0  0  0  0  0  0
   64.3294   33.5013   46.4842 H   0  0  0  0  0  0  0  0  0  0  0  0
   62.2622   33.5928   48.6106 H   0  0  0  0  0  0  0  0  0  0  0  0
   62.8094   34.8617   47.4243 H   0  0  0  0  0  0  0  0  0  0  0  0
   61.2729   34.2470   45.8275 H   0  0  0  0  0  0  0  0  0  0  0  0
   61.1185   32.5556   46.5127 H   0  0  0  0  0  0  0  0  0  0  0  0
   59.6920   33.2610   48.2407 H   0  0  0  0  0  0  0  0  0  0  0  0
   60.0687   35.0049   47.9501 H   0  0  0  0  0  0  0  0  0  0  0  0
   59.3060   31.2994   46.9534 H   0  0  0  0  0  0  0  0  0  0  0  0
   58.2680   29.0383   46.8856 H   0  0  0  0  0  0  0  0  0  0  0  0
   53.1933   24.3647   46.3633 H   0  0  0  0  0  0  0  0  0  0  0  0
   53.0958   25.0816   44.7123 H   0  0  0  0  0  0  0  0  0  0  0  0
   54.5604   22.4544   46.7573 H   0  0  0  0  0  0  0  0  0  0  0  0
   56.0981   20.7196   45.8235 H   0  0  0  0  0  0  0  0  0  0  0  0
   56.6527   23.0221   42.2809 H   0  0  0  0  0  0  0  0  0  0  0  0
   55.1233   24.7994   43.1517 H   0  0  0  0  0  0  0  0  0  0  0  0
   55.7322   30.2937   43.6112 H   0  0  0  0  0  0  0  0  0  0  0  0
   56.7625   32.5599   43.6805 H   0  0  0  0  0  0  0  0  0  0  0  0
  1  2  1  0
  2  3  1  0
  3  4  1  0
  4  5  1  0
  5  6  1  0
  6  7  2  0
  6  8  1  0
  8  9  2  0
  9 10  1  0
 10 11  2  0
 11 12  1  0
 12 13  1  0
 13 14  2  0
 13 15  1  0
 15 16  2  0
 15 17  1  0
 17 18  1  0
 18 19  1  0
 19 20  2  0
 20 21  1  0
 21 22  2  0
 22 23  1  0
 23 24  2  0
 11 25  1  0
 25 26  2  0
 26  8  1  0
 24 19  1  0
  1 27  1  0
  1 28  1  0
  1 29  1  0
  2 30  1  0
  2 31  1  0
  3 32  1  0
  3 33  1  0
  4 34  1  0
  4 35  1  0
  9 36  1  0
 10 37  1  0
 18 38  1  0
 18 39  1  0
 20 40  1  0
 21 41  1  0
 23 42  1  0
 24 43  1  0
 25 44  1  0
 26 45  1  0
M  CHG  2  12  -1  17  -1
M  END
>  <UniqueID>  (81) 
77

>  <SMILES>  (81) 
CCCCOC(=O)c1ccc([N-]C(=O)C(=O)[N-]Cc2ccncc2)cc1

>  <Energy>  (81) 
44.399881346437155

>  <Genealogy>  (81) 
CCCCOC(=O)c1ccc([N-]C(=O)C(=O)[N-]Cc2ccncc2)cc1 (protonated)
CCCCOC(=O)c1ccc([N-]C(=O)C(=O)[N-]Cc2ccncc2)cc1 (3D coordinates assigned)
CCCCOC(=O)c1ccc([N-]C(=O)C(=O)[N-]Cc2ccncc2)cc1 (optimized conformer: 44.399881346437155 kcal/mol)

>  <smiles>  (81) 
CCCCOC(=O)c1ccc(NC(=O)C(=O)NCc2ccncc2)cc1

>  <score_type>  (81) 
oracle

>  <origin>  (81) 
adg

>  <m_score__min__energy>  (81) 
-10.779999999999999

>  <m_primary>  (81) 
energy

$$$$
81:0
     RDKit          3D

 56 59  0  0  0  0  0  0  0  0999 V2000
   57.6300   29.9560   42.1810 H   0  0  0  0  0  0  0  0  0  0  0  0
   56.8040   30.3420   42.6900 N   0  0  0  0  0  0  0  0  0  0  0  0
   56.7240   30.3640   43.9850 C   0  0  0  0  0  0  0  0  0  0  0  0
   57.4620   31.3790   44.7780 C   0  0  0  0  0  0  0  0  0  0  0  0
   57.8000   32.6240   44.2200 C   0  0  0  0  0  0  0  0  0  0  0  0
   57.5161   32.8513   43.1819 H   0  0  0  0  0  0  0  0  0  0  0  0
   58.4940   33.5760   44.9730 C   0  0  0  0  0  0  0  0  0  0  0  0
   58.7520   34.5464   44.5238 H   0  0  0  0  0  0  0  0  0  0  0  0
   58.8640   33.3000   46.3010 C   0  0  0  0  0  0  0  0  0  0  0  0
   59.6010   34.2870   47.1160 C   0  0  0  0  0  0  0  0  0  0  0  0
   59.7641   35.3017   46.7238 H   0  0  0  0  0  0  0  0  0  0  0  0
   60.0590   33.9720   48.2900 N   0  0  0  0  0  0  0  0  0  0  0  0
   61.4550   33.8640   48.6060 C   0  0  0  0  0  0  0  0  0  0  0  0
   62.1030   34.8730   48.9990 O   0  0  0  0  0  0  0  0  0  0  0  0
   62.1470   32.5280   48.4930 C   0  0  1  0  0  0  0  0  0  0  0  0
   63.6570   32.7010   48.7050 C   0  0  0  0  0  0  0  0  0  0  0  0
   63.8754   32.7260   49.7828 H   0  0  0  0  0  0  0  0  0  0  0  0
   64.1912   31.8582   48.2421 H   0  0  0  0  0  0  0  0  0  0  0  0
   63.9867   33.6428   48.2421 H   0  0  0  0  0  0  0  0  0  0  0  0
   61.6400   31.6280   49.4860 O   0  0  0  0  0  0  0  0  0  0  0  0
   61.0990   30.5080   48.8930 C   0  0  0  0  0  0  0  0  0  0  0  0
   60.5070   29.4280   49.5420 C   0  0  0  0  0  0  0  0  0  0  0  0
   60.4369   29.3985   50.6394 H   0  0  0  0  0  0  0  0  0  0  0  0
   60.0020   28.3780   48.7600 C   0  0  0  0  0  0  0  0  0  0  0  0
   59.5185   27.5189   49.2480 H   0  0  0  0  0  0  0  0  0  0  0  0
   60.1090   28.4140   47.3490 C   0  0  0  0  0  0  0  0  0  0  0  0
   59.5570   27.3360   46.5750 N   0  0  0  0  0  0  0  0  0  0  0  0
   60.2220   26.5990   46.2510 H   0  0  0  0  0  0  0  0  0  0  0  0
   58.1740   27.2590   46.1800 C   0  0  0  0  0  0  0  0  0  0  0  0
   57.4030   28.2330   46.4000 O   0  0  0  0  0  0  0  0  0  0  0  0
   57.6310   26.0540   45.5080 C   0  0  0  0  0  0  0  0  0  0  0  0
   56.9410   25.0890   46.2620 C   0  0  0  0  0  0  0  0  0  0  0  0
   56.8143   25.2325   47.3452 H   0  0  0  0  0  0  0  0  0  0  0  0
   56.4140   23.9480   45.6480 C   0  0  0  0  0  0  0  0  0  0  0  0
   55.8829   23.1979   46.2524 H   0  0  0  0  0  0  0  0  0  0  0  0
   56.5590   23.7540   44.2630 C   0  0  0  0  0  0  0  0  0  0  0  0
   56.0020   22.5490   43.6090 C   0  0  0  0  0  0  0  0  0  0  0  0
   55.8900   21.4660   44.2450 O   0  0  0  0  0  0  0  0  0  0  0  0
   55.5920   22.5950   42.2820 O   0  0  0  0  0  0  0  0  0  0  0  0
   57.2370   24.7240   43.5080 C   0  0  0  0  0  0  0  0  0  0  0  0
   57.3538   24.5863   42.4229 H   0  0  0  0  0  0  0  0  0  0  0  0
   57.7650   25.8630   44.1220 C   0  0  0  0  0  0  0  0  0  0  0  0
   58.2897   26.6161   43.5157 H   0  0  0  0  0  0  0  0  0  0  0  0
   60.6980   29.5380   46.7280 C   0  0  0  0  0  0  0  0  0  0  0  0
   60.7659   29.6025   45.6320 H   0  0  0  0  0  0  0  0  0  0  0  0
   61.1920   30.5650   47.5340 C   0  0  0  0  0  0  0  0  0  0  0  0
   61.8360   31.8400   47.1210 C   0  0  0  0  0  0  0  0  0  0  0  0
   61.1513   32.4526   46.5161 H   0  0  0  0  0  0  0  0  0  0  0  0
   62.7274   31.6957   46.4928 H   0  0  0  0  0  0  0  0  0  0  0  0
   58.5260   32.0590   46.8590 C   0  0  0  0  0  0  0  0  0  0  0  0
   58.8114   31.8315   47.8967 H   0  0  0  0  0  0  0  0  0  0  0  0
   57.8290   31.1080   46.1070 C   0  0  0  0  0  0  0  0  0  0  0  0
   57.5660   30.1404   46.5594 H   0  0  0  0  0  0  0  0  0  0  0  0
   55.9150   29.3860   44.6430 N   0  0  0  0  0  0  0  0  0  0  0  0
   55.7460   29.4280   45.6720 H   0  0  0  0  0  0  0  0  0  0  0  0
   55.4310   28.6440   44.0900 H   0  0  0  0  0  0  0  0  0  0  0  0
  1  2  1  0
  2  3  2  0
  3  4  1  0
  4  5  2  0
  5  6  1  0
  5  7  1  0
  7  8  1  0
  7  9  2  0
  9 10  1  0
 10 11  1  0
 10 12  2  0
 12 13  1  0
 13 14  2  0
 13 15  1  0
 15 16  1  1
 16 17  1  0
 16 18  1  0
 16 19  1  0
 15 20  1  0
 20 21  1  0
 21 22  2  0
 22 23  1  0
 22 24  1  0
 24 25  1  0
 24 26  2  0
 26 27  1  0
 27 28  1  0
 27 29  1  0
 29 30  2  0
 29 31  1  0
 31 32  2  0
 32 33  1  0
 32 34  1  0
 34 35  1  0
 34 36  2  0
 36 37  1  0
 37 38  2  0
 37 39  1  0
 36 40  1  0
 40 41  1  0
 40 42  2  0
 42 43  1  0
 26 44  1  0
 44 45  1  0
 44 46  2  0
 46 47  1  0
 47 48  1  0
 47 49  1  0
  9 50  1  0
 50 51  1  0
 50 52  2  0
 52 53  1  0
  3 54  1  0
 54 55  1  0
 54 56  1  0
 52  4  1  0
 47 15  1  0
 46 21  1  0
 42 31  1  0
M  CHG  1  39  -1
M  END
>  <UniqueID>  (82) 
78

>  <SMILES>  (82) 
[H]/N=C(/N)c1ccc(/C=N/C(=O)[C@]2(C)Cc3cc(NC(=O)c4ccc(C(=O)[O-])cc4)ccc3O2)cc1

>  <Energy>  (82) 
84.81515952655414

>  <Genealogy>  (82) 
CC1(C(=O)N=Cc2ccc(C(=N)N)cc2)Cc2cc(NC(=O)c3ccc(C(=O)[O-])cc3)ccc2O1 (protonated)
C[C@@]1(C(=O)N=Cc2ccc(C(=N)N)cc2)Cc2cc(NC(=O)c3ccc(C(=O)[O-])cc3)ccc2O1 (chirality)
[H]/N=C(/N)c1ccc(/C=N/C(=O)[C@]2(C)Cc3cc(NC(=O)c4ccc(C(=O)[O-])cc4)ccc3O2)cc1 (cis-trans isomerization)
[H]/N=C(/N)c1ccc(/C=N/C(=O)[C@]2(C)Cc3cc(NC(=O)c4ccc(C(=O)[O-])cc4)ccc3O2)cc1 (3D coordinates assigned)
[H]/N=C(/N)c1ccc(/C=N/C(=O)[C@]2(C)Cc3cc(NC(=O)c4ccc(C(=O)[O-])cc4)ccc3O2)cc1 (nonaromatic ring conformer: 84.81515952655414 kcal/mol)

>  <smiles>  (82) 
CC1(C(=O)N=Cc2ccc(C(=N)N)cc2)Cc2cc(NC(=O)c3ccc(C(=O)O)cc3)ccc2O1

>  <score_type>  (82) 
oracle

>  <origin>  (82) 
adg

>  <m_score__min__energy>  (82) 
-11.52

>  <m_primary>  (82) 
energy

$$$$
82:0
     RDKit          3D

 55 58  0  0  0  0  0  0  0  0999 V2000
   52.3670   29.2150   52.9120 O   0  0  0  0  0  0  0  0  0  0  0  0
   53.4110   29.9080   52.7880 C   0  0  0  0  0  0  0  0  0  0  0  0
   53.2990   31.2980   52.2150 C   0  0  0  0  0  0  0  0  0  0  0  0
   52.3240   31.3180   51.0790 C   0  0  0  0  0  0  0  0  0  0  0  0
   52.3060   30.4060   50.0840 N   0  0  0  0  0  0  0  0  0  0  0  0
   51.3100   30.8340   49.2820 C   0  0  0  0  0  0  0  0  0  0  0  0
   50.9790   30.2300   48.2240 O   0  0  0  0  0  0  0  0  0  0  0  0
   50.6940   31.9610   49.6970 N   0  0  0  0  0  0  0  0  0  0  0  0
   51.3410   32.2500   50.8360 C   0  0  0  0  0  0  0  0  0  0  0  0
   51.0230   33.3290   51.6550 O   0  0  0  0  0  0  0  0  0  0  0  0
   54.6690   29.3340   53.1610 N   0  0  0  0  0  0  0  0  0  0  0  0
   55.8040   30.0930   53.6800 C   0  0  0  0  0  0  0  0  0  0  0  0
   56.8080   30.3200   52.5840 C   0  0  0  0  0  0  0  0  0  0  0  0
   57.8230   29.3800   52.3480 C   0  0  0  0  0  0  0  0  0  0  0  0
   58.7830   29.6080   51.3550 C   0  0  0  0  0  0  0  0  0  0  0  0
   58.7440   30.7810   50.5790 C   0  0  0  0  0  0  0  0  0  0  0  0
   59.8180   31.0810   49.6020 C   0  0  0  0  0  0  0  0  0  0  0  0
   60.2630   32.2530   49.4880 O   0  0  0  0  0  0  0  0  0  0  0  0
   60.3270   30.0610   48.7410 N   0  0  0  0  0  0  0  0  0  0  0  0
   59.5010   29.2400   47.9090 C   0  0  0  0  0  0  0  0  0  0  0  0
   59.5570   27.8410   47.9690 C   0  0  0  0  0  0  0  0  0  0  0  0
   58.7760   27.0710   47.1060 C   0  0  0  0  0  0  0  0  0  0  0  0
   57.9190   27.6870   46.1920 C   0  0  0  0  0  0  0  0  0  0  0  0
   57.8310   29.0870   46.1370 C   0  0  0  0  0  0  0  0  0  0  0  0
   56.8740   29.7500   45.2280 C   0  0  0  0  0  0  0  0  0  0  0  0
   55.7190   29.2750   45.0660 O   0  0  0  0  0  0  0  0  0  0  0  0
   57.2500   30.9590   44.5550 N   0  0  0  0  0  0  0  0  0  0  0  0
   56.6950   32.2620   44.8790 C   0  0  0  0  0  0  0  0  0  0  0  0
   57.7460   33.1080   45.5450 C   0  0  0  0  0  0  0  0  0  0  0  0
   57.8630   33.1290   46.9440 C   0  0  0  0  0  0  0  0  0  0  0  0
   58.8090   33.9630   47.5420 C   0  0  0  0  0  0  0  0  0  0  0  0
   59.6220   34.7370   46.7710 N   0  0  0  0  0  0  0  0  0  0  0  0
   59.5500   34.7190   45.4200 C   0  0  0  0  0  0  0  0  0  0  0  0
   58.6130   33.9080   44.7810 C   0  0  0  0  0  0  0  0  0  0  0  0
   58.6410   29.8560   46.9910 C   0  0  0  0  0  0  0  0  0  0  0  0
   57.6950   31.7010   50.7910 C   0  0  0  0  0  0  0  0  0  0  0  0
   56.7350   31.4700   51.7800 C   0  0  0  0  0  0  0  0  0  0  0  0
   52.9545   31.9869   53.0003 H   0  0  0  0  0  0  0  0  0  0  0  0
   54.2859   31.6110   51.8434 H   0  0  0  0  0  0  0  0  0  0  0  0
   55.4516   31.0635   54.0594 H   0  0  0  0  0  0  0  0  0  0  0  0
   56.2777   29.5266   54.4953 H   0  0  0  0  0  0  0  0  0  0  0  0
   57.8645   28.4583   52.9470 H   0  0  0  0  0  0  0  0  0  0  0  0
   59.5742   28.8641   51.1800 H   0  0  0  0  0  0  0  0  0  0  0  0
   60.2178   27.3488   48.6977 H   0  0  0  0  0  0  0  0  0  0  0  0
   58.8359   25.9734   47.1461 H   0  0  0  0  0  0  0  0  0  0  0  0
   57.3102   27.0728   45.5122 H   0  0  0  0  0  0  0  0  0  0  0  0
   56.3584   32.7562   43.9557 H   0  0  0  0  0  0  0  0  0  0  0  0
   55.8418   32.1356   45.5617 H   0  0  0  0  0  0  0  0  0  0  0  0
   57.2141   32.4930   47.5640 H   0  0  0  0  0  0  0  0  0  0  0  0
   58.8980   33.9951   48.6379 H   0  0  0  0  0  0  0  0  0  0  0  0
   60.2315   35.3449   44.8251 H   0  0  0  0  0  0  0  0  0  0  0  0
   58.5525   33.8943   43.6827 H   0  0  0  0  0  0  0  0  0  0  0  0
   58.5988   30.9539   46.9376 H   0  0  0  0  0  0  0  0  0  0  0  0
   57.6324   32.6082   50.1721 H   0  0  0  0  0  0  0  0  0  0  0  0
   55.9185   32.1918   51.9297 H   0  0  0  0  0  0  0  0  0  0  0  0
  1  2  2  0
  2  3  1  0
  3  4  1  0
  4  5  1  0
  5  6  1  0
  6  7  2  0
  6  8  1  0
  8  9  1  0
  9 10  1  0
  2 11  1  0
 11 12  1  0
 12 13  1  0
 13 14  2  0
 14 15  1  0
 15 16  2  0
 16 17  1  0
 17 18  2  0
 17 19  1  0
 19 20  1  0
 20 21  2  0
 21 22  1  0
 22 23  2  0
 23 24  1  0
 24 25  1  0
 25 26  2  0
 25 27  1  0
 27 28  1  0
 28 29  1  0
 29 30  2  0
 30 31  1  0
 31 32  2  0
 32 33  1  0
 33 34  2  0
 24 35  2  0
 16 36  1  0
 36 37  2  0
  9  4  2  0
 37 13  1  0
 35 20  1  0
 34 29  1  0
  3 38  1  0
  3 39  1  0
 12 40  1  0
 12 41  1  0
 14 42  1  0
 15 43  1  0
 21 44  1  0
 22 45  1  0
 23 46  1  0
 28 47  1  0
 28 48  1  0
 30 49  1  0
 31 50  1  0
 33 51  1  0
 34 52  1  0
 35 53  1  0
 36 54  1  0
 37 55  1  0
M  CHG  6   5  -1   8  -1  10  -1  11  -1  19  -1  27  -1
M  END
>  <UniqueID>  (83) 
79

>  <SMILES>  (83) 
O=C(Cc1[n-]c(=O)[n-]c1[O-])[N-]Cc1ccc(C(=O)[N-]c2cccc(C(=O)[N-]Cc3ccncc3)c2)cc1

>  <Energy>  (83) 
96.11530157627104

>  <Genealogy>  (83) 
O=C(Cc1[n-]c(=O)[n-]c1[O-])[N-]Cc1ccc(C(=O)[N-]c2cccc(C(=O)[N-]Cc3ccncc3)c2)cc1 (protonated)
O=C(Cc1[n-]c(=O)[n-]c1[O-])[N-]Cc1ccc(C(=O)[N-]c2cccc(C(=O)[N-]Cc3ccncc3)c2)cc1 (3D coordinates assigned)
O=C(Cc1[n-]c(=O)[n-]c1[O-])[N-]Cc1ccc(C(=O)[N-]c2cccc(C(=O)[N-]Cc3ccncc3)c2)cc1 (optimized conformer: 96.11530157627104 kcal/mol)

>  <smiles>  (83) 
O=C(Cc1[nH]c(=O)[nH]c1O)NCc1ccc(C(=O)Nc2cccc(C(=O)NCc3ccncc3)c2)cc1

>  <score_type>  (83) 
oracle

>  <origin>  (83) 
adg

>  <m_score__min__energy>  (83) 
-23.140000000000001

>  <m_primary>  (83) 
energy

$$$$
83:0
     RDKit          3D

 48 50  0  0  1  0  0  0  0  0999 V2000
   64.6340   32.5420   49.7240 C   0  0  0  0  0  0  0  0  0  0  0  0
   63.6900   33.0410   48.6790 C   0  0  0  0  0  0  0  0  0  0  0  0
   64.1180   33.0820   47.3470 C   0  0  0  0  0  0  0  0  0  0  0  0
   63.2780   33.5370   46.3420 C   0  0  0  0  0  0  0  0  0  0  0  0
   62.0060   33.9450   46.7100 C   0  0  0  0  0  0  0  0  0  0  0  0
   61.5790   33.9050   48.0360 C   0  0  0  0  0  0  0  0  0  0  0  0
   60.1910   34.3730   48.2860 C   0  0  0  0  0  0  0  0  0  0  0  0
   59.3160   33.2390   48.8020 C   0  0  0  0  0  0  0  0  0  0  0  0
   58.9030   29.8020   45.2210 N   0  0  0  0  0  0  0  0  0  0  0  0
   58.3360   30.9090   45.3950 C   0  0  0  0  0  0  0  0  0  0  0  0
   57.0050   33.1500   46.1120 N   0  0  0  0  0  0  0  0  0  0  0  0
   56.7900   32.5960   44.9220 C   0  0  0  0  0  0  0  0  0  0  0  0
   57.4600   31.4290   44.5000 C   0  0  0  0  0  0  0  0  0  0  0  0
   57.1320   30.9680   43.1850 C   0  0  0  0  0  0  0  0  0  0  0  0
   56.3330   29.8720   42.8080 N   0  0  0  0  0  0  0  0  0  0  0  0
   57.6450   31.6330   42.2090 O   0  0  0  0  0  0  0  0  0  0  0  0
   57.8750   32.6220   46.9700 C   0  0  0  0  0  0  0  0  0  0  0  0
   58.0620   33.1760   48.1000 N   0  0  0  0  0  0  0  0  0  0  0  0
   58.4790   28.5350   45.6040 C   0  0  0  0  0  0  0  0  0  0  0  0
   59.3720   27.4990   45.9330 C   0  0  0  0  0  0  0  0  0  0  0  0
   58.9150   26.2320   46.2370 C   0  0  0  0  0  0  0  0  0  0  0  0
   57.5530   26.0050   46.2100 C   0  0  0  0  0  0  0  0  0  0  0  0
   56.6400   27.0060   45.8880 C   0  0  0  0  0  0  0  0  0  0  0  0
   55.2820   26.6980   45.8820 O   0  0  0  0  0  0  0  0  0  0  0  0
   57.0960   28.2880   45.5790 C   0  0  0  0  0  0  0  0  0  0  0  0
   58.5350   31.5090   46.6130 N   0  0  0  0  0  0  0  0  0  0  0  0
   62.4170   33.4520   49.0340 C   0  0  0  0  0  0  0  0  0  0  0  0
   64.2244   32.7585   50.7217 H   0  0  0  0  0  0  0  0  0  0  0  0
   64.7666   31.4560   49.6099 H   0  0  0  0  0  0  0  0  0  0  0  0
   65.6061   33.0441   49.6099 H   0  0  0  0  0  0  0  0  0  0  0  0
   65.1352   32.7485   47.0939 H   0  0  0  0  0  0  0  0  0  0  0  0
   63.6086   33.5727   45.2934 H   0  0  0  0  0  0  0  0  0  0  0  0
   61.3154   34.3099   45.9355 H   0  0  0  0  0  0  0  0  0  0  0  0
   60.2127   35.1792   49.0340 H   0  0  0  0  0  0  0  0  0  0  0  0
   59.7685   34.7373   47.3379 H   0  0  0  0  0  0  0  0  0  0  0  0
   59.8493   32.2865   48.6663 H   0  0  0  0  0  0  0  0  0  0  0  0
   59.1058   33.4235   49.8658 H   0  0  0  0  0  0  0  0  0  0  0  0
   56.4970   33.9990   46.3820 H   0  0  0  0  0  0  0  0  0  0  0  0
   56.0633   33.0651   44.2424 H   0  0  0  0  0  0  0  0  0  0  0  0
   55.6040   29.8890   42.0600 H   0  0  0  0  0  0  0  0  0  0  0  0
   56.4370   28.9290   43.2880 H   0  0  0  0  0  0  0  0  0  0  0  0
   60.4530   27.7018   45.9483 H   0  0  0  0  0  0  0  0  0  0  0  0
   59.6170   25.4250   46.4938 H   0  0  0  0  0  0  0  0  0  0  0  0
   57.1768   24.9998   46.4509 H   0  0  0  0  0  0  0  0  0  0  0  0
   54.8970   26.3640   46.7760 H   0  0  0  0  0  0  0  0  0  0  0  0
   56.3874   29.0888   45.3211 H   0  0  0  0  0  0  0  0  0  0  0  0
   59.2120   31.1120   47.2990 H   0  0  0  0  0  0  0  0  0  0  0  0
   62.0830   33.4185   50.0815 H   0  0  0  0  0  0  0  0  0  0  0  0
  1  2  1  0
  2  3  2  0
  3  4  1  0
  4  5  2  0
  5  6  1  0
  6  7  1  0
  7  8  1  0
  8  9  1  0
  9 10  2  0
 10 11  1  0
 11 12  1  0
 12 13  2  0
 13 14  1  0
 14 15  1  0
 14 16  2  0
 13 17  1  0
 17 18  2  0
 18 19  1  0
 19 20  2  0
 20 21  1  0
 21 22  2  0
 22 23  1  0
 23 24  1  0
 23 25  2  0
 17 26  1  0
  6 27  2  0
 27  2  1  0
 26 10  1  0
 25 19  1  0
  1 28  1  0
  1 29  1  0
  1 30  1  0
  3 31  1  0
  4 32  1  0
  5 33  1  0
  7 34  1  0
  7 35  1  0
  8 36  1  0
  8 37  1  0
 11 38  1  0
 12 39  1  0
 15 40  1  0
 15 41  1  0
 20 42  1  0
 21 43  1  0
 22 44  1  0
 24 45  1  0
 25 46  1  0
 26 47  1  0
 27 48  1  0
M  END
>  <smiles>  (84) 
Cc1cccc(CCN=c2[nH]cc(C(N)=O)c(=Nc3cccc(O)c3)[nH]2)c1

>  <score_type>  (84) 
oracle

>  <origin>  (84) 
adg

>  <m_score__min__energy>  (84) 
-9.6500000000000004

>  <m_primary>  (84) 
energy

$$$$
84:0
     RDKit          3D

 49 50  0  0  0  0  0  0  0  0999 V2000
   58.8170   33.6380   46.2620 C   0  0  0  0  0  0  0  0  0  0  0  0
   59.1180   33.6590   44.8850 O   0  0  0  0  0  0  0  0  0  0  0  0
   58.0640   33.0600   44.1600 C   0  0  0  0  0  0  0  0  0  0  0  0
   56.9920   32.5580   45.1270 C   0  0  0  0  0  0  0  0  0  0  0  0
   56.2680   31.4380   44.5360 N   0  0  0  0  0  0  0  0  0  0  0  0
   56.6070   30.0710   44.7830 C   0  0  0  0  0  0  0  0  0  0  0  0
   55.7110   29.2360   45.0860 O   0  0  0  0  0  0  0  0  0  0  0  0
   58.0160   29.6070   44.5910 C   0  0  0  0  0  0  0  0  0  0  0  0
   58.5070   28.9500   45.8610 C   0  0  0  0  0  0  0  0  0  0  0  0
   59.4610   29.6390   46.6300 C   0  0  0  0  0  0  0  0  0  0  0  0
   59.9310   29.1190   47.8450 C   0  0  0  0  0  0  0  0  0  0  0  0
   60.9300   29.8660   48.6500 C   0  0  0  0  0  0  0  0  0  0  0  0
   61.2700   29.4360   49.9460 C   0  0  0  0  0  0  0  0  0  0  0  0
   62.2150   30.1370   50.6980 C   0  0  0  0  0  0  0  0  0  0  0  0
   62.8310   31.2740   50.1710 C   0  0  0  0  0  0  0  0  0  0  0  0
   62.4990   31.7200   48.8860 C   0  0  0  0  0  0  0  0  0  0  0  0
   63.2890   33.1430   48.2150 S   0  0  0  0  0  0  0  0  0  0  0  0
   62.5690   34.5730   48.8670 N   0  0  0  0  0  0  0  0  0  0  0  0
   63.1260   33.1610   46.7210 O   0  0  0  0  0  0  0  0  0  0  0  0
   64.7510   33.1130   48.5600 O   0  0  0  0  0  0  0  0  0  0  0  0
   61.5560   31.0130   48.1270 C   0  0  0  0  0  0  0  0  0  0  0  0
   59.4340   27.8890   48.2930 C   0  0  0  0  0  0  0  0  0  0  0  0
   58.4800   27.1960   47.5480 C   0  0  0  0  0  0  0  0  0  0  0  0
   57.9930   27.7110   46.3320 C   0  0  0  0  0  0  0  0  0  0  0  0
   56.9730   26.9970   45.5960 N   0  0  0  0  0  0  0  0  0  0  0  0
   56.7390   25.5570   45.7010 C   0  0  0  0  0  0  0  0  0  0  0  0
   55.2840   25.2780   45.9080 C   0  0  0  0  0  0  0  0  0  0  0  0
   54.8790   24.0920   46.0300 O   0  0  0  0  0  0  0  0  0  0  0  0
   54.3760   26.3260   45.9840 O   0  0  0  0  0  0  0  0  0  0  0  0
   59.7493   33.7030   46.8421 H   0  0  0  0  0  0  0  0  0  0  0  0
   58.1709   34.4933   46.5092 H   0  0  0  0  0  0  0  0  0  0  0  0
   58.2959   32.7013   46.5092 H   0  0  0  0  0  0  0  0  0  0  0  0
   57.6224   33.8012   43.4776 H   0  0  0  0  0  0  0  0  0  0  0  0
   58.4572   32.2117   43.5805 H   0  0  0  0  0  0  0  0  0  0  0  0
   57.4702   32.2295   46.0615 H   0  0  0  0  0  0  0  0  0  0  0  0
   56.2845   33.3742   45.3351 H   0  0  0  0  0  0  0  0  0  0  0  0
   58.0540   28.8820   43.7646 H   0  0  0  0  0  0  0  0  0  0  0  0
   58.6568   30.4686   44.3522 H   0  0  0  0  0  0  0  0  0  0  0  0
   59.8465   30.6050   46.2719 H   0  0  0  0  0  0  0  0  0  0  0  0
   60.7884   28.5422   50.3693 H   0  0  0  0  0  0  0  0  0  0  0  0
   62.4752   29.7922   51.7096 H   0  0  0  0  0  0  0  0  0  0  0  0
   63.5779   31.8199   50.7661 H   0  0  0  0  0  0  0  0  0  0  0  0
   62.8680   34.6370   49.8660 H   0  0  0  0  0  0  0  0  0  0  0  0
   61.3030   31.3578   47.1135 H   0  0  0  0  0  0  0  0  0  0  0  0
   59.7990   27.4657   49.2404 H   0  0  0  0  0  0  0  0  0  0  0  0
   58.1020   26.2311   47.9169 H   0  0  0  0  0  0  0  0  0  0  0  0
   56.3310   27.5130   44.9580 H   0  0  0  0  0  0  0  0  0  0  0  0
   57.0736   25.0671   44.7747 H   0  0  0  0  0  0  0  0  0  0  0  0
   57.3028   25.1660   46.5608 H   0  0  0  0  0  0  0  0  0  0  0  0
  1  2  1  0
  2  3  1  0
  3  4  1  0
  4  5  1  0
  5  6  1  0
  6  7  2  0
  6  8  1  0
  8  9  1  0
  9 10  2  0
 10 11  1  0
 11 12  1  0
 12 13  2  0
 13 14  1  0
 14 15  2  0
 15 16  1  0
 16 17  1  0
 17 18  1  0
 17 19  2  0
 17 20  2  0
 16 21  2  0
 11 22  2  0
 22 23  1  0
 23 24  2  0
 24 25  1  0
 25 26  1  0
 26 27  1  0
 27 28  2  0
 27 29  1  0
 24  9  1  0
 21 12  1  0
  1 30  1  0
  1 31  1  0
  1 32  1  0
  3 33  1  0
  3 34  1  0
  4 35  1  0
  4 36  1  0
  8 37  1  0
  8 38  1  0
 10 39  1  0
 13 40  1  0
 14 41  1  0
 15 42  1  0
 18 43  1  0
 21 44  1  0
 22 45  1  0
 23 46  1  0
 25 47  1  0
 26 48  1  0
 26 49  1  0
M  CHG  3   5  -1  18  -1  29  -1
M  END
>  <UniqueID>  (85) 
80

>  <SMILES>  (85) 
COCC[N-]C(=O)Cc1cc(-c2cccc(S([NH-])(=O)=O)c2)ccc1NCC(=O)[O-]

>  <Energy>  (85) 
49.20979774482346

>  <Genealogy>  (85) 
COCC[N-]C(=O)Cc1cc(-c2cccc(S([NH-])(=O)=O)c2)ccc1NCC(=O)[O-] (protonated)
COCC[N-]C(=O)Cc1cc(-c2cccc(S([NH-])(=O)=O)c2)ccc1NCC(=O)[O-] (3D coordinates assigned)
COCC[N-]C(=O)Cc1cc(-c2cccc(S([NH-])(=O)=O)c2)ccc1NCC(=O)[O-] (optimized conformer: 49.20979774482346 kcal/mol)

>  <smiles>  (85) 
COCCNC(=O)Cc1cc(-c2cccc(S(N)(=O)=O)c2)ccc1NCC(=O)O

>  <score_type>  (85) 
oracle

>  <origin>  (85) 
adg

>  <m_score__min__energy>  (85) 
-14.06

>  <m_primary>  (85) 
energy

$$$$
85:0
     RDKit          3D

 32 34  0  0  0  0  0  0  0  0999 V2000
   59.4410   21.0590   45.4050 H   0  0  0  0  0  0  0  0  0  0  0  0
   59.4080   22.0950   45.5420 N   0  0  0  0  0  0  0  0  0  0  0  0
   58.3400   22.6860   45.9680 C   0  0  0  0  0  0  0  0  0  0  0  0
   58.1380   24.0060   45.7140 N   0  0  0  0  0  0  0  0  0  0  0  0
   57.0250   24.6550   46.1550 C   0  0  0  0  0  0  0  0  0  0  0  0
   56.8550   26.0930   45.8420 C   0  0  0  0  0  0  0  0  0  0  0  0
   55.6840   26.8300   45.7680 C   0  0  0  0  0  0  0  0  0  0  0  0
   54.4040   26.3400   45.9890 O   0  0  0  0  0  0  0  0  0  0  0  0
   55.9250   28.1250   45.4820 N   0  0  0  0  0  0  0  0  0  0  0  0
   57.2650   28.2360   45.3740 C   0  0  0  0  0  0  0  0  0  0  0  0
   57.9200   29.5210   45.0620 C   0  0  0  0  0  0  0  0  0  0  0  0
   59.0920   29.5490   44.6030 O   0  0  0  0  0  0  0  0  0  0  0  0
   57.1800   30.7360   45.2330 N   0  0  0  0  0  0  0  0  0  0  0  0
   57.7200   32.0330   45.5280 C   0  0  0  0  0  0  0  0  0  0  0  0
   57.7660   33.0600   44.5670 C   0  0  0  0  0  0  0  0  0  0  0  0
   57.3630   32.8859   43.5584 H   0  0  0  0  0  0  0  0  0  0  0  0
   58.3230   34.3020   44.8910 C   0  0  0  0  0  0  0  0  0  0  0  0
   58.3467   35.1060   44.1407 H   0  0  0  0  0  0  0  0  0  0  0  0
   58.8490   34.5220   46.1660 C   0  0  0  0  0  0  0  0  0  0  0  0
   59.2802   35.5013   46.4211 H   0  0  0  0  0  0  0  0  0  0  0  0
   58.8280   33.5000   47.1170 C   0  0  0  0  0  0  0  0  0  0  0  0
   59.2483   33.6727   48.1187 H   0  0  0  0  0  0  0  0  0  0  0  0
   58.2730   32.2570   46.7970 C   0  0  0  0  0  0  0  0  0  0  0  0
   58.2702   31.4504   47.5449 H   0  0  0  0  0  0  0  0  0  0  0  0
   57.8670   27.0020   45.6000 C   0  0  0  0  0  0  0  0  0  0  0  0
   59.2280   26.6970   45.5890 O   0  0  0  0  0  0  0  0  0  0  0  0
   59.5780   25.7500   45.5910 H   0  0  0  0  0  0  0  0  0  0  0  0
   56.0610   23.9350   46.8760 C   0  0  0  0  0  0  0  0  0  0  0  0
   55.1451   24.4275   47.2347 H   0  0  0  0  0  0  0  0  0  0  0  0
   56.2870   22.5820   47.1290 C   0  0  0  0  0  0  0  0  0  0  0  0
   55.5481   21.9989   47.6982 H   0  0  0  0  0  0  0  0  0  0  0  0
   57.4170   21.9840   46.6740 N   0  0  0  0  0  0  0  0  0  0  0  0
  1  2  1  0
  2  3  2  0
  3  4  1  0
  4  5  2  0
  5  6  1  0
  6  7  2  0
  7  8  1  0
  7  9  1  0
  9 10  1  0
 10 11  1  0
 11 12  2  0
 11 13  1  0
 13 14  1  0
 14 15  2  0
 15 16  1  0
 15 17  1  0
 17 18  1  0
 17 19  2  0
 19 20  1  0
 19 21  1  0
 21 22  1  0
 21 23  2  0
 23 24  1  0
 10 25  2  0
 25 26  1  0
 26 27  1  0
  5 28  1  0
 28 29  1  0
 28 30  2  0
 30 31  1  0
 30 32  1  0
 32  3  1  0
 25  6  1  0
 23 14  1  0
M  CHG  4   8  -1   9  -1  13  -1  32  -1
M  END
>  <UniqueID>  (86) 
81

>  <SMILES>  (86) 
[H]/N=c1\nc(-c2c([O-])[n-]c(C(=O)[N-]c3ccccc3)c2O)cc[n-]1

>  <Energy>  (86) 
70.03041098721476

>  <Genealogy>  (86) 
N=c1nc(-c2c([O-])[n-]c(C(=O)[N-]c3ccccc3)c2O)cc[n-]1 (protonated)
[H]/N=c1\nc(-c2c([O-])[n-]c(C(=O)[N-]c3ccccc3)c2O)cc[n-]1 (cis-trans isomerization)
[H]/N=c1\nc(-c2c([O-])[n-]c(C(=O)[N-]c3ccccc3)c2O)cc[n-]1 (3D coordinates assigned)
[H]/N=c1\nc(-c2c([O-])[n-]c(C(=O)[N-]c3ccccc3)c2O)cc[n-]1 (optimized conformer: 70.03041098721476 kcal/mol)

>  <smiles>  (86) 
N=c1nc(-c2c(O)[nH]c(C(=O)Nc3ccccc3)c2O)cc[nH]1

>  <score_type>  (86) 
oracle

>  <origin>  (86) 
adg

>  <m_score__min__energy>  (86) 
-15.130000000000001

>  <m_primary>  (86) 
energy

$$$$
86:0
     RDKit          3D

 42 44  0  0  0  0  0  0  0  0999 V2000
   57.0950   32.0010   51.9810 C   0  0  0  0  0  0  0  0  0  0  0  0
   58.0110   31.4760   50.9150 C   0  0  0  0  0  0  0  0  0  0  0  0
   58.3190   30.1120   50.8450 C   0  0  0  0  0  0  0  0  0  0  0  0
   59.1750   29.6340   49.8540 C   0  0  0  0  0  0  0  0  0  0  0  0
   59.7350   30.5080   48.9050 C   0  0  0  0  0  0  0  0  0  0  0  0
   60.6780   29.9490   47.8740 C   0  0  0  0  0  0  0  0  0  0  0  0
   59.4300   31.8930   48.9700 C   0  0  0  0  0  0  0  0  0  0  0  0
   59.9680   32.8930   47.9670 C   0  0  0  0  0  0  0  0  0  0  0  0
   59.1050   32.9490   46.7790 N   0  0  0  0  0  0  0  0  0  0  0  0
   58.7830   31.8000   46.1760 N   0  0  0  0  0  0  0  0  0  0  0  0
   57.9660   31.7500   45.0860 C   0  0  0  0  0  0  0  0  0  0  0  0
   57.6670   30.6220   44.5080 N   0  0  0  0  0  0  0  0  0  0  0  0
   56.6010   29.7240   44.8550 C   0  0  0  0  0  0  0  0  0  0  0  0
   55.4030   30.0080   44.5850 O   0  0  0  0  0  0  0  0  0  0  0  0
   56.9210   28.4660   45.5550 C   0  0  0  0  0  0  0  0  0  0  0  0
   58.1700   28.2630   46.1560 C   0  0  0  0  0  0  0  0  0  0  0  0
   58.4100   27.0500   46.8070 C   0  0  0  0  0  0  0  0  0  0  0  0
   59.5250   26.8420   47.3570 O   0  0  0  0  0  0  0  0  0  0  0  0
   57.4410   26.0960   46.8470 N   0  0  0  0  0  0  0  0  0  0  0  0
   56.2330   26.3090   46.2590 C   0  0  0  0  0  0  0  0  0  0  0  0
   55.3410   25.4200   46.3030 O   0  0  0  0  0  0  0  0  0  0  0  0
   55.9820   27.4840   45.6240 N   0  0  0  0  0  0  0  0  0  0  0  0
   57.4330   32.9370   44.5870 C   0  0  0  0  0  0  0  0  0  0  0  0
   57.7630   34.1400   45.1980 C   0  0  0  0  0  0  0  0  0  0  0  0
   58.6130   34.1380   46.3030 C   0  0  0  0  0  0  0  0  0  0  0  0
   58.9220   35.2350   46.8460 O   0  0  0  0  0  0  0  0  0  0  0  0
   58.5680   32.3570   49.9810 C   0  0  0  0  0  0  0  0  0  0  0  0
   57.5104   31.7629   52.9713 H   0  0  0  0  0  0  0  0  0  0  0  0
   56.9981   33.0917   51.8766 H   0  0  0  0  0  0  0  0  0  0  0  0
   56.1049   31.5333   51.8766 H   0  0  0  0  0  0  0  0  0  0  0  0
   57.8835   29.4143   51.5754 H   0  0  0  0  0  0  0  0  0  0  0  0
   59.4151   28.5613   49.8138 H   0  0  0  0  0  0  0  0  0  0  0  0
   61.5190   29.4505   48.3783 H   0  0  0  0  0  0  0  0  0  0  0  0
   60.1442   29.2214   47.2451 H   0  0  0  0  0  0  0  0  0  0  0  0
   61.0602   30.7666   47.2451 H   0  0  0  0  0  0  0  0  0  0  0  0
   60.0059   33.8884   48.4336 H   0  0  0  0  0  0  0  0  0  0  0  0
   60.9761   32.5788   47.6586 H   0  0  0  0  0  0  0  0  0  0  0  0
   58.9455   29.0421   46.1163 H   0  0  0  0  0  0  0  0  0  0  0  0
   57.6270   25.1890   47.3350 H   0  0  0  0  0  0  0  0  0  0  0  0
   56.7581   32.9214   43.7185 H   0  0  0  0  0  0  0  0  0  0  0  0
   57.3568   35.0870   44.8129 H   0  0  0  0  0  0  0  0  0  0  0  0
   58.3282   33.4290   50.0381 H   0  0  0  0  0  0  0  0  0  0  0  0
  1  2  1  0
  2  3  2  0
  3  4  1  0
  4  5  2  0
  5  6  1  0
  5  7  1  0
  7  8  1  0
  8  9  1  0
  9 10  1  0
 10 11  1  0
 11 12  2  3
 12 13  1  0
 13 14  2  0
 13 15  1  0
 15 16  2  0
 16 17  1  0
 17 18  2  0
 17 19  1  0
 19 20  1  0
 20 21  2  0
 20 22  1  0
 11 23  1  0
 23 24  2  0
 24 25  1  0
 25 26  2  0
  7 27  2  0
 27  2  1  0
 25  9  1  0
 22 15  1  0
  1 28  1  0
  1 29  1  0
  1 30  1  0
  3 31  1  0
  4 32  1  0
  6 33  1  0
  6 34  1  0
  6 35  1  0
  8 36  1  0
  8 37  1  0
 16 38  1  0
 19 39  1  0
 23 40  1  0
 24 41  1  0
 27 42  1  0
M  CHG  2  10  -1  22  -1
M  END
>  <UniqueID>  (87) 
82

>  <SMILES>  (87) 
Cc1ccc(C)c(Cn2[n-]c(=NC(=O)c3cc(=O)[nH]c(=O)[n-]3)ccc2=O)c1

>  <Energy>  (87) 
49.59635654382299

>  <Genealogy>  (87) 
Cc1ccc(C)c(Cn2[n-]c(=NC(=O)c3cc(=O)[nH]c(=O)[n-]3)ccc2=O)c1 (protonated)
Cc1ccc(C)c(Cn2[n-]c(=NC(=O)c3cc(=O)[nH]c(=O)[n-]3)ccc2=O)c1 (3D coordinates assigned)
Cc1ccc(C)c(Cn2[n-]c(=NC(=O)c3cc(=O)[nH]c(=O)[n-]3)ccc2=O)c1 (optimized conformer: 49.59635654382299 kcal/mol)

>  <smiles>  (87) 
Cc1ccc(C)c(Cn2[nH]c(=NC(=O)c3cc(=O)[nH]c(=O)[nH]3)ccc2=O)c1

>  <score_type>  (87) 
oracle

>  <origin>  (87) 
adg

>  <m_score__min__energy>  (87) 
-12.720000000000001

>  <m_primary>  (87) 
energy

$$$$
87:0
     RDKit          3D

 39 40  0  0  1  0  0  0  0  0999 V2000
   58.9180   35.0280   44.8920 C   0  0  0  0  0  0  0  0  0  0  0  0
   58.7650   33.8480   45.7850 C   0  0  0  0  0  0  0  0  0  0  0  0
   59.0340   33.9500   47.1420 C   0  0  0  0  0  0  0  0  0  0  0  0
   58.8880   32.8420   47.9780 C   0  0  0  0  0  0  0  0  0  0  0  0
   58.4680   31.6550   47.3920 C   0  0  0  0  0  0  0  0  0  0  0  0
   58.2020   31.5680   46.0310 C   0  0  0  0  0  0  0  0  0  0  0  0
   57.7640   30.2600   45.5440 C   0  0  0  0  0  0  0  0  0  0  0  0
   56.6460   30.0320   45.0540 O   0  0  0  0  0  0  0  0  0  0  0  0
   58.6990   29.1980   45.6510 N   0  0  0  0  0  0  0  0  0  0  0  0
   58.4310   28.0490   45.4560 C   0  0  0  0  0  0  0  0  0  0  0  0
   57.4750   27.4330   44.7450 N   0  0  0  0  0  0  0  0  0  0  0  0
   57.4460   26.1640   44.7310 N   0  0  0  0  0  0  0  0  0  0  0  0
   58.1980   25.3530   45.2960 C   0  0  0  0  0  0  0  0  0  0  0  0
   58.4680   23.6300   45.5040 S   0  0  0  0  0  0  0  0  0  0  0  0
   57.7450   22.7730   44.1130 C   0  0  0  0  0  0  0  0  0  0  0  0
   56.2760   22.9990   44.1620 C   0  0  0  0  0  0  0  0  0  0  0  0
   55.5610   22.2150   43.4580 O   0  0  0  0  0  0  0  0  0  0  0  0
   55.6460   23.9960   44.9160 N   0  0  0  0  0  0  0  0  0  0  0  0
   54.2460   24.1110   44.8800 C   0  0  0  0  0  0  0  0  0  0  0  0
   53.5540   25.1110   45.6230 N   0  0  0  0  0  0  0  0  0  0  0  0
   53.5380   23.3210   44.1730 O   0  0  0  0  0  0  0  0  0  0  0  0
   59.3560   26.5870   46.1540 S   0  0  0  0  0  0  0  0  0  0  0  0
   58.3500   32.6660   45.2240 C   0  0  0  0  0  0  0  0  0  0  0  0
   58.0790   32.6080   43.7860 C   0  0  0  0  0  0  0  0  0  0  0  0
   59.0358   35.9362   45.5014 H   0  0  0  0  0  0  0  0  0  0  0  0
   59.8064   34.8947   44.2572 H   0  0  0  0  0  0  0  0  0  0  0  0
   58.0250   35.1256   44.2572 H   0  0  0  0  0  0  0  0  0  0  0  0
   59.3648   34.9112   47.5623 H   0  0  0  0  0  0  0  0  0  0  0  0
   59.0969   32.9062   49.0561 H   0  0  0  0  0  0  0  0  0  0  0  0
   58.3428   30.7613   48.0211 H   0  0  0  0  0  0  0  0  0  0  0  0
   56.7630   28.0380   44.2080 H   0  0  0  0  0  0  0  0  0  0  0  0
   58.1548   23.1706   43.1728 H   0  0  0  0  0  0  0  0  0  0  0  0
   57.9730   21.6979   44.1598 H   0  0  0  0  0  0  0  0  0  0  0  0
   56.2290   24.6400   45.4950 H   0  0  0  0  0  0  0  0  0  0  0  0
   54.0870   25.6210   46.3630 H   0  0  0  0  0  0  0  0  0  0  0  0
   52.5510   25.3470   45.4560 H   0  0  0  0  0  0  0  0  0  0  0  0
   57.0153   32.3804   43.6222 H   0  0  0  0  0  0  0  0  0  0  0  0
   58.3211   33.5783   43.3278 H   0  0  0  0  0  0  0  0  0  0  0  0
   58.6970   31.8218   43.3278 H   0  0  0  0  0  0  0  0  0  0  0  0
  1  2  1  0
  2  3  2  0
  3  4  1  0
  4  5  2  0
  5  6  1  0
  6  7  1  0
  7  8  2  0
  7  9  1  0
  9 10  2  0
 10 11  1  0
 11 12  1  0
 12 13  2  0
 13 14  1  0
 14 15  1  0
 15 16  1  0
 16 17  2  0
 16 18  1  0
 18 19  1  0
 19 20  1  0
 19 21  2  0
 13 22  1  0
  6 23  2  0
 23 24  1  0
 23  2  1  0
 22 10  1  0
  1 25  1  0
  1 26  1  0
  1 27  1  0
  3 28  1  0
  4 29  1  0
  5 30  1  0
 11 31  1  0
 15 32  1  0
 15 33  1  0
 18 34  1  0
 20 35  1  0
 20 36  1  0
 24 37  1  0
 24 38  1  0
 24 39  1  0
M  END
>  <smiles>  (88) 
Cc1cccc(C(=O)N=c2[nH]nc(SCC(=O)NC(N)=O)s2)c1C

>  <score_type>  (88) 
oracle

>  <origin>  (88) 
adg

>  <m_score__min__energy>  (88) 
-8.8300000000000001

>  <m_primary>  (88) 
energy

$$$$
88:0
     RDKit          3D

 27 28  0  0  0  0  0  0  0  0999 V2000
   56.1520   31.0620   44.5670 O   0  0  0  0  0  0  0  0  0  0  0  0
   56.2130   29.8090   44.4590 C   0  0  0  0  0  0  0  0  0  0  0  0
   55.1430   29.0290   44.8740 O   0  0  0  0  0  0  0  0  0  0  0  0
   57.4110   29.1660   43.8360 C   0  0  0  0  0  0  0  0  0  0  0  0
   58.4480   28.8830   44.8890 C   0  0  0  0  0  0  0  0  0  0  0  0
   59.5580   29.7260   45.0740 C   0  0  0  0  0  0  0  0  0  0  0  0
   60.3120   29.4260   46.1990 C   0  0  0  0  0  0  0  0  0  0  0  0
   59.5930   28.1270   46.9830 S   0  0  0  0  0  0  0  0  0  0  0  0
   58.3360   27.9070   45.8870 C   0  0  0  0  0  0  0  0  0  0  0  0
   57.2840   26.8870   46.0460 C   0  0  0  0  0  0  0  0  0  0  0  0
   56.6340   26.8430   47.1230 O   0  0  0  0  0  0  0  0  0  0  0  0
   56.9730   25.9440   45.0120 N   0  0  0  0  0  0  0  0  0  0  0  0
   56.0650   24.8390   45.1220 C   0  0  0  0  0  0  0  0  0  0  0  0
   56.4690   23.6180   44.6760 N   0  0  0  0  0  0  0  0  0  0  0  0
   55.6710   22.5200   44.7470 C   0  0  0  0  0  0  0  0  0  0  0  0
   54.3890   22.6220   45.2840 C   0  0  0  0  0  0  0  0  0  0  0  0
   53.9300   23.8650   45.7220 C   0  0  0  0  0  0  0  0  0  0  0  0
   54.7580   24.9900   45.6280 C   0  0  0  0  0  0  0  0  0  0  0  0
   54.2740   26.2440   46.0000 O   0  0  0  0  0  0  0  0  0  0  0  0
   57.1106   28.2222   43.3574 H   0  0  0  0  0  0  0  0  0  0  0  0
   57.8362   29.8465   43.0836 H   0  0  0  0  0  0  0  0  0  0  0  0
   59.8062   30.5495   44.3882 H   0  0  0  0  0  0  0  0  0  0  0  0
   61.2241   29.9492   46.5220 H   0  0  0  0  0  0  0  0  0  0  0  0
   56.0374   21.5498   44.3802 H   0  0  0  0  0  0  0  0  0  0  0  0
   53.7462   21.7328   45.3617 H   0  0  0  0  0  0  0  0  0  0  0  0
   52.9175   23.9608   46.1412 H   0  0  0  0  0  0  0  0  0  0  0  0
   54.7880   27.0930   45.7950 H   0  0  0  0  0  0  0  0  0  0  0  0
  1  2  2  0
  2  3  1  0
  2  4  1  0
  4  5  1  0
  5  6  1  0
  6  7  2  0
  7  8  1  0
  8  9  1  0
  9 10  1  0
 10 11  2  0
 10 12  1  0
 12 13  1  0
 13 14  2  0
 14 15  1  0
 15 16  2  0
 16 17  1  0
 17 18  2  0
 18 19  1  0
  9  5  2  0
 18 13  1  0
  4 20  1  0
  4 21  1  0
  6 22  1  0
  7 23  1  0
 15 24  1  0
 16 25  1  0
 17 26  1  0
 19 27  1  0
M  CHG  2   3  -1  12  -1
M  END
>  <UniqueID>  (89) 
83

>  <SMILES>  (89) 
O=C([O-])Cc1ccsc1C(=O)[N-]c1ncccc1O

>  <Energy>  (89) 
62.045352714768015

>  <Genealogy>  (89) 
O=C([O-])Cc1ccsc1C(=O)[N-]c1ncccc1O (protonated)
O=C([O-])Cc1ccsc1C(=O)[N-]c1ncccc1O (3D coordinates assigned)
O=C([O-])Cc1ccsc1C(=O)[N-]c1ncccc1O (optimized conformer: 62.045352714768015 kcal/mol)

>  <smiles>  (89) 
O=C(O)Cc1ccsc1C(=O)Nc1ncccc1O

>  <score_type>  (89) 
oracle

>  <origin>  (89) 
adg

>  <m_score__min__energy>  (89) 
-11.16

>  <m_primary>  (89) 
energy

$$$$
89:0
     RDKit          3D

 45 47  0  0  0  0  0  0  0  0999 V2000
   57.5690   24.3370   44.3000 O   0  0  0  0  0  0  0  0  0  0  0  0
   56.4420   23.8130   44.5010 C   0  0  0  0  0  0  0  0  0  0  0  0
   55.4080   24.5900   45.2790 C   0  0  0  0  0  0  0  0  0  0  0  0
   55.8090   24.8150   46.6670 N   0  0  0  0  0  0  0  0  0  0  0  0
   57.1170   25.1970   47.1160 C   0  0  0  0  0  0  0  0  0  0  0  0
   57.6250   24.5870   48.0930 O   0  0  0  0  0  0  0  0  0  0  0  0
   57.9050   26.2430   46.4380 C   0  0  0  0  0  0  0  0  0  0  0  0
   59.2930   26.3020   46.6300 C   0  0  0  0  0  0  0  0  0  0  0  0
   60.0510   27.2780   45.9790 C   0  0  0  0  0  0  0  0  0  0  0  0
   59.4280   28.2170   45.1530 C   0  0  0  0  0  0  0  0  0  0  0  0
   58.0320   28.2000   44.9940 C   0  0  0  0  0  0  0  0  0  0  0  0
   57.3530   29.1410   44.1470 N   0  0  0  0  0  0  0  0  0  0  0  0
   56.1880   29.8990   44.4900 C   0  0  0  0  0  0  0  0  0  0  0  0
   55.1460   29.2880   44.8420 O   0  0  0  0  0  0  0  0  0  0  0  0
   56.2410   31.3320   44.5380 N   0  0  0  0  0  0  0  0  0  0  0  0
   57.2850   32.1320   45.1120 C   0  0  0  0  0  0  0  0  0  0  0  0
   58.1780   31.5280   46.0080 C   0  0  0  0  0  0  0  0  0  0  0  0
   59.2230   32.2670   46.5710 C   0  0  0  0  0  0  0  0  0  0  0  0
   59.3930   33.6110   46.2310 C   0  0  0  0  0  0  0  0  0  0  0  0
   58.5230   34.2160   45.3220 C   0  0  0  0  0  0  0  0  0  0  0  0
   57.4760   33.4810   44.7560 C   0  0  0  0  0  0  0  0  0  0  0  0
   57.2800   27.2020   45.6270 C   0  0  0  0  0  0  0  0  0  0  0  0
   56.2220   22.4610   44.0730 N   0  0  0  0  0  0  0  0  0  0  0  0
   56.2150   21.3600   44.7730 C   0  0  0  0  0  0  0  0  0  0  0  0
   55.5430   20.2950   44.2530 N   0  0  0  0  0  0  0  0  0  0  0  0
   55.5640   19.0630   44.8230 C   0  0  0  0  0  0  0  0  0  0  0  0
   56.3090   18.8440   45.9780 C   0  0  0  0  0  0  0  0  0  0  0  0
   56.9740   19.9140   46.5710 C   0  0  0  0  0  0  0  0  0  0  0  0
   56.8900   21.1950   46.0160 C   0  0  0  0  0  0  0  0  0  0  0  0
   57.3990   22.2560   46.7670 O   0  0  0  0  0  0  0  0  0  0  0  0
   55.2582   25.5649   44.7919 H   0  0  0  0  0  0  0  0  0  0  0  0
   54.4808   23.9982   45.2891 H   0  0  0  0  0  0  0  0  0  0  0  0
   59.7860   25.5777   47.2951 H   0  0  0  0  0  0  0  0  0  0  0  0
   61.1419   27.3075   46.1171 H   0  0  0  0  0  0  0  0  0  0  0  0
   60.0314   28.9709   44.6262 H   0  0  0  0  0  0  0  0  0  0  0  0
   58.0559   30.4666   46.2697 H   0  0  0  0  0  0  0  0  0  0  0  0
   59.9123   31.7892   47.2828 H   0  0  0  0  0  0  0  0  0  0  0  0
   60.2120   34.1926   46.6792 H   0  0  0  0  0  0  0  0  0  0  0  0
   58.6612   35.2729   45.0503 H   0  0  0  0  0  0  0  0  0  0  0  0
   56.8001   33.9580   44.0310 H   0  0  0  0  0  0  0  0  0  0  0  0
   56.1894   27.1700   45.4869 H   0  0  0  0  0  0  0  0  0  0  0  0
   54.9925   18.2383   44.3722 H   0  0  0  0  0  0  0  0  0  0  0  0
   56.3717   17.8375   46.4172 H   0  0  0  0  0  0  0  0  0  0  0  0
   57.5691   19.7508   47.4816 H   0  0  0  0  0  0  0  0  0  0  0  0
   57.3100   23.2210   46.4820 H   0  0  0  0  0  0  0  0  0  0  0  0
  1  2  2  0
  2  3  1  0
  3  4  1  0
  4  5  1  0
  5  6  2  0
  5  7  1  0
  7  8  2  0
  8  9  1  0
  9 10  2  0
 10 11  1  0
 11 12  1  0
 12 13  1  0
 13 14  2  0
 13 15  1  0
 15 16  1  0
 16 17  2  0
 17 18  1  0
 18 19  2  0
 19 20  1  0
 20 21  2  0
 11 22  2  0
  2 23  1  0
 23 24  2  3
 24 25  1  0
 25 26  1  0
 26 27  2  0
 27 28  1  0
 28 29  2  0
 29 30  1  0
 22  7  1  0
 29 24  1  0
 21 16  1  0
  3 31  1  0
  3 32  1  0
  8 33  1  0
  9 34  1  0
 10 35  1  0
 17 36  1  0
 18 37  1  0
 19 38  1  0
 20 39  1  0
 21 40  1  0
 22 41  1  0
 26 42  1  0
 27 43  1  0
 28 44  1  0
 30 45  1  0
M  CHG  4   4  -1  12  -1  15  -1  25  -1
M  END
>  <UniqueID>  (90) 
84

>  <SMILES>  (90) 
O=C(C[N-]C(=O)c1cccc([N-]C(=O)[N-]c2ccccc2)c1)N=c1[n-]cccc1O

>  <Energy>  (90) 
76.21493433372646

>  <Genealogy>  (90) 
O=C(C[N-]C(=O)c1cccc([N-]C(=O)[N-]c2ccccc2)c1)N=c1[n-]cccc1O (protonated)
O=C(C[N-]C(=O)c1cccc([N-]C(=O)[N-]c2ccccc2)c1)N=c1[n-]cccc1O (3D coordinates assigned)
O=C(C[N-]C(=O)c1cccc([N-]C(=O)[N-]c2ccccc2)c1)N=c1[n-]cccc1O (optimized conformer: 76.21493433372646 kcal/mol)

>  <smiles>  (90) 
O=C(CNC(=O)c1cccc(NC(=O)Nc2ccccc2)c1)N=c1[nH]cccc1O

>  <score_type>  (90) 
oracle

>  <origin>  (90) 
adg

>  <m_score__min__energy>  (90) 
-14.26

>  <m_primary>  (90) 
energy

$$$$
90:0
     RDKit          3D

 51 53  0  0  0  0  0  0  0  0999 V2000
   63.8260   33.0850   46.7130 N   0  0  0  0  0  0  0  0  0  0  0  0
   62.8110   33.4910   47.0900 C   0  0  0  0  0  0  0  0  0  0  0  0
   61.5260   34.0050   47.5670 C   0  0  0  0  0  0  0  0  0  0  0  0
   60.7330   34.4520   46.4320 N   0  0  0  0  0  0  0  0  0  0  0  0
   59.3160   34.2720   46.3560 C   0  0  0  0  0  0  0  0  0  0  0  0
   58.5570   35.0080   47.0460 O   0  0  0  0  0  0  0  0  0  0  0  0
   58.7460   33.2120   45.4880 C   0  0  0  0  0  0  0  0  0  0  0  0
   58.4490   33.5080   44.1460 C   0  0  0  0  0  0  0  0  0  0  0  0
   57.9480   32.5240   43.2940 C   0  0  0  0  0  0  0  0  0  0  0  0
   57.7520   31.2260   43.7620 C   0  0  0  0  0  0  0  0  0  0  0  0
   58.0550   30.8960   45.0880 C   0  0  0  0  0  0  0  0  0  0  0  0
   57.8100   29.5550   45.5440 N   0  0  0  0  0  0  0  0  0  0  0  0
   56.6130   28.8270   45.2370 C   0  0  0  0  0  0  0  0  0  0  0  0
   55.5790   29.4380   44.8510 O   0  0  0  0  0  0  0  0  0  0  0  0
   56.5790   27.3650   45.3740 C   0  0  0  0  0  0  0  0  0  0  0  0
   57.5200   26.5520   44.8440 N   0  0  0  0  0  0  0  0  0  0  0  0
   57.0870   25.3250   45.1710 C   0  0  0  0  0  0  0  0  0  0  0  0
   57.7660   24.1110   44.8100 C   0  0  0  0  0  0  0  0  0  0  0  0
   58.3120   23.1330   44.5190 N   0  0  0  0  0  0  0  0  0  0  0  0
   55.9130   25.4110   45.8770 C   0  0  0  0  0  0  0  0  0  0  0  0
   55.5830   26.7080   46.0080 N   0  0  0  0  0  0  0  0  0  0  0  0
   58.5080   31.9010   45.9710 C   0  0  0  0  0  0  0  0  0  0  0  0
   58.6870   31.5960   47.3260 O   0  0  0  0  0  0  0  0  0  0  0  0
   59.9550   31.2140   47.8570 C   0  0  0  0  0  0  0  0  0  0  0  0
   60.7710   30.4560   46.8060 C   0  0  0  0  0  0  0  0  0  0  0  0
   60.7160   28.9990   47.0500 N   0  0  0  0  0  0  0  0  0  0  0  0
   60.4510   28.2780   45.7840 C   0  0  0  0  0  0  0  0  0  0  0  0
   60.5300   26.7620   45.9930 C   0  0  0  0  0  0  0  0  0  0  0  0
   59.6820   26.3540   47.1600 C   0  0  0  0  0  0  0  0  0  0  0  0
   59.0530   25.3080   47.1300 O   0  0  0  0  0  0  0  0  0  0  0  0
   59.7080   27.1880   48.4070 C   0  0  0  0  0  0  0  0  0  0  0  0
   59.6650   28.6750   48.0420 C   0  0  0  0  0  0  0  0  0  0  0  0
   60.9870   33.2080   48.1001 H   0  0  0  0  0  0  0  0  0  0  0  0
   61.6988   34.8498   48.2500 H   0  0  0  0  0  0  0  0  0  0  0  0
   58.6135   34.5263   43.7640 H   0  0  0  0  0  0  0  0  0  0  0  0
   57.7070   32.7730   42.2500 H   0  0  0  0  0  0  0  0  0  0  0  0
   57.3563   30.4552   43.0843 H   0  0  0  0  0  0  0  0  0  0  0  0
   58.4960   29.1270   46.2060 H   0  0  0  0  0  0  0  0  0  0  0  0
   55.3375   24.5601   46.2704 H   0  0  0  0  0  0  0  0  0  0  0  0
   60.5062   32.1158   48.1618 H   0  0  0  0  0  0  0  0  0  0  0  0
   59.7938   30.5565   48.7240 H   0  0  0  0  0  0  0  0  0  0  0  0
   60.3614   30.6703   45.8078 H   0  0  0  0  0  0  0  0  0  0  0  0
   61.8188   30.7849   46.8683 H   0  0  0  0  0  0  0  0  0  0  0  0
   59.4453   28.5402   45.4236 H   0  0  0  0  0  0  0  0  0  0  0  0
   61.2116   28.5717   45.0457 H   0  0  0  0  0  0  0  0  0  0  0  0
   60.1710   26.2514   45.0872 H   0  0  0  0  0  0  0  0  0  0  0  0
   61.5746   26.4819   46.1938 H   0  0  0  0  0  0  0  0  0  0  0  0
   58.8357   26.9401   49.0296 H   0  0  0  0  0  0  0  0  0  0  0  0
   60.6338   26.9787   48.9629 H   0  0  0  0  0  0  0  0  0  0  0  0
   58.6796   28.9142   47.6158 H   0  0  0  0  0  0  0  0  0  0  0  0
   59.8406   29.2685   48.9513 H   0  0  0  0  0  0  0  0  0  0  0  0
  1  2  3  0
  2  3  1  0
  3  4  1  0
  4  5  1  0
  5  6  2  0
  5  7  1  0
  7  8  2  0
  8  9  1  0
  9 10  2  0
 10 11  1  0
 11 12  1  0
 12 13  1  0
 13 14  2  0
 13 15  1  0
 15 16  2  0
 16 17  1  0
 17 18  1  0
 18 19  3  0
 17 20  2  0
 20 21  1  0
 11 22  2  0
 22 23  1  0
 23 24  1  0
 24 25  1  0
 25 26  1  0
 26 27  1  0
 27 28  1  0
 28 29  1  0
 29 30  2  0
 29 31  1  0
 31 32  1  0
 22  7  1  0
 32 26  1  0
 21 15  1  0
  3 33  1  0
  3 34  1  0
  8 35  1  0
  9 36  1  0
 10 37  1  0
 12 38  1  0
 20 39  1  0
 24 40  1  0
 24 41  1  0
 25 42  1  0
 25 43  1  0
 27 44  1  0
 27 45  1  0
 28 46  1  0
 28 47  1  0
 31 48  1  0
 31 49  1  0
 32 50  1  0
 32 51  1  0
M  CHG  2   4  -1  21  -1
M  END
>  <UniqueID>  (91) 
85

>  <SMILES>  (91) 
N#CC[N-]C(=O)c1cccc(NC(=O)c2nc(C#N)c[n-]2)c1OCCN1CCC(=O)CC1

>  <Energy>  (91) 
84.29909538385631

>  <Genealogy>  (91) 
N#CC[N-]C(=O)c1cccc(NC(=O)c2nc(C#N)c[n-]2)c1OCCN1CCC(=O)CC1 (protonated)
N#CC[N-]C(=O)c1cccc(NC(=O)c2nc(C#N)c[n-]2)c1OCCN1CCC(=O)CC1 (3D coordinates assigned)
N#CC[N-]C(=O)c1cccc(NC(=O)c2nc(C#N)c[n-]2)c1OCCN1CCC(=O)CC1 (nonaromatic ring conformer: 84.29909538385631 kcal/mol)

>  <smiles>  (91) 
N#CCNC(=O)c1cccc(NC(=O)c2nc(C#N)c[nH]2)c1OCCN1CCC(=O)CC1

>  <score_type>  (91) 
oracle

>  <origin>  (91) 
adg

>  <m_score__min__energy>  (91) 
-10.82

>  <m_primary>  (91) 
energy

$$$$
91:0
     RDKit          3D

 44 46  0  0  0  0  0  0  0  0999 V2000
   55.1440   27.0720   45.2270 H   0  0  0  0  0  0  0  0  0  0  0  0
   55.0520   26.3470   45.9740 N   0  0  0  0  0  0  0  0  0  0  0  0
   56.2050   25.7080   46.5180 C   0  0  0  0  0  0  0  0  0  0  0  0
   56.0480   24.6820   47.2320 O   0  0  0  0  0  0  0  0  0  0  0  0
   57.5710   26.2540   46.2820 C   0  0  0  0  0  0  0  0  0  0  0  0
   58.6900   25.4390   46.5630 C   0  0  0  0  0  0  0  0  0  0  0  0
   58.5365   24.4010   46.8932 H   0  0  0  0  0  0  0  0  0  0  0  0
   59.9880   25.9340   46.4270 C   0  0  0  0  0  0  0  0  0  0  0  0
   60.8483   25.2860   46.6506 H   0  0  0  0  0  0  0  0  0  0  0  0
   60.1970   27.2460   46.0090 C   0  0  0  0  0  0  0  0  0  0  0  0
   61.2203   27.6384   45.9152 H   0  0  0  0  0  0  0  0  0  0  0  0
   59.1030   28.0630   45.7090 C   0  0  0  0  0  0  0  0  0  0  0  0
   59.2730   29.0982   45.3780 H   0  0  0  0  0  0  0  0  0  0  0  0
   57.7870   27.5780   45.8250 C   0  0  0  0  0  0  0  0  0  0  0  0
   56.6890   28.3910   45.3820 N   0  0  0  0  0  0  0  0  0  0  0  0
   56.7620   29.8090   45.2240 C   0  0  0  0  0  0  0  0  0  0  0  0
   55.9080   30.3960   44.5110 O   0  0  0  0  0  0  0  0  0  0  0  0
   57.7130   30.5320   45.9500 O   0  0  0  0  0  0  0  0  0  0  0  0
   57.9800   31.9020   45.8150 C   0  0  0  0  0  0  0  0  0  0  0  0
   57.7750   32.5770   44.5980 C   0  0  0  0  0  0  0  0  0  0  0  0
   57.3896   32.0295   43.7252 H   0  0  0  0  0  0  0  0  0  0  0  0
   58.0590   33.9380   44.4950 C   0  0  0  0  0  0  0  0  0  0  0  0
   57.8902   34.4621   43.5427 H   0  0  0  0  0  0  0  0  0  0  0  0
   58.5570   34.6390   45.5960 C   0  0  0  0  0  0  0  0  0  0  0  0
   58.7753   35.7137   45.5098 H   0  0  0  0  0  0  0  0  0  0  0  0
   58.7780   33.9780   46.8050 C   0  0  0  0  0  0  0  0  0  0  0  0
   59.1781   34.5320   47.6670 H   0  0  0  0  0  0  0  0  0  0  0  0
   58.4910   32.6050   46.9260 C   0  0  0  0  0  0  0  0  0  0  0  0
   58.7130   31.8740   48.1950 C   0  0  0  0  0  0  0  0  0  0  0  0
   58.0651   31.0144   48.4214 H   0  0  0  0  0  0  0  0  0  0  0  0
   59.6620   32.2050   49.0820 C   0  0  0  0  0  0  0  0  0  0  0  0
   60.7052   32.2813   48.7415 H   0  0  0  0  0  0  0  0  0  0  0  0
   59.3520   32.4710   50.5040 C   0  0  0  0  0  0  0  0  0  0  0  0
   60.0290   33.3420   51.1160 O   0  0  0  0  0  0  0  0  0  0  0  0
   58.2660   31.7600   51.2260 C   0  0  0  0  0  0  0  0  0  0  0  0
   57.4290   32.4510   52.1180 C   0  0  0  0  0  0  0  0  0  0  0  0
   57.6060   33.8160   52.3450 O   0  0  0  0  0  0  0  0  0  0  0  0
   58.3860   34.3140   51.9370 H   0  0  0  0  0  0  0  0  0  0  0  0
   56.4350   31.7890   52.7680 N   0  0  0  0  0  0  0  0  0  0  0  0
   56.2220   30.4650   52.5620 C   0  0  0  0  0  0  0  0  0  0  0  0
   55.2930   29.8760   53.1700 O   0  0  0  0  0  0  0  0  0  0  0  0
   57.0100   29.7760   51.7000 N   0  0  0  0  0  0  0  0  0  0  0  0
   58.0220   30.3850   51.0290 C   0  0  0  0  0  0  0  0  0  0  0  0
   58.7280   29.7070   50.2330 O   0  0  0  0  0  0  0  0  0  0  0  0
  1  2  1  0
  2  3  1  0
  3  4  2  0
  3  5  1  0
  5  6  2  0
  6  7  1  0
  6  8  1  0
  8  9  1  0
  8 10  2  0
 10 11  1  0
 10 12  1  0
 12 13  1  0
 12 14  2  0
 14 15  1  0
 15 16  1  0
 16 17  2  0
 16 18  1  0
 18 19  1  0
 19 20  2  0
 20 21  1  0
 20 22  1  0
 22 23  1  0
 22 24  2  0
 24 25  1  0
 24 26  1  0
 26 27  1  0
 26 28  2  0
 28 29  1  0
 29 30  1  0
 29 31  2  0
 31 32  1  0
 31 33  1  0
 33 34  2  0
 33 35  1  0
 35 36  2  0
 36 37  1  0
 37 38  1  0
 36 39  1  0
 39 40  1  0
 40 41  2  0
 40 42  1  0
 42 43  1  0
 43 44  2  0
 14  5  1  0
 28 19  1  0
 43 35  1  0
M  CHG  4   2  -1  15  -1  39  -1  42  -1
M  END
>  <UniqueID>  (92) 
86

>  <SMILES>  (92) 
[NH-]C(=O)c1ccccc1[N-]C(=O)Oc1ccccc1/C=C/C(=O)c1c(O)[n-]c(=O)[n-]c1=O

>  <Energy>  (92) 
67.69443515479077

>  <Genealogy>  (92) 
[NH-]C(=O)c1ccccc1[N-]C(=O)Oc1ccccc1C=CC(=O)c1c(O)[n-]c(=O)[n-]c1=O (protonated)
[NH-]C(=O)c1ccccc1[N-]C(=O)Oc1ccccc1/C=C/C(=O)c1c(O)[n-]c(=O)[n-]c1=O (cis-trans isomerization)
[NH-]C(=O)c1ccccc1[N-]C(=O)Oc1ccccc1/C=C/C(=O)c1c(O)[n-]c(=O)[n-]c1=O (3D coordinates assigned)
[NH-]C(=O)c1ccccc1[N-]C(=O)Oc1ccccc1/C=C/C(=O)c1c(O)[n-]c(=O)[n-]c1=O (optimized conformer: 67.69443515479077 kcal/mol)

>  <smiles>  (92) 
NC(=O)c1ccccc1NC(=O)Oc1ccccc1C=CC(=O)c1c(O)[nH]c(=O)[nH]c1=O

>  <score_type>  (92) 
oracle

>  <origin>  (92) 
adg

>  <m_score__min__energy>  (92) 
-15.91

>  <m_primary>  (92) 
energy

$$$$
