0:0
     RDKit          3D

 39 41  0  0  0  0  0  0  0  0999 V2000
   55.3040   29.6380   44.8770 N   0  0  0  0  0  0  0  0  0  0  0  0
   56.7300   30.1010   44.0180 S   0  0  0  0  0  0  0  0  0  0  0  0
   56.3650   30.4810   42.6110 O   0  0  0  0  0  0  0  0  0  0  0  0
   57.6870   28.9430   43.9710 O   0  0  0  0  0  0  0  0  0  0  0  0
   57.4860   31.4690   44.8280 C   0  0  0  0  0  0  0  0  0  0  0  0
   56.8390   32.7100   44.8680 C   0  0  0  0  0  0  0  0  0  0  0  0
   57.4330   33.7900   45.5220 C   0  0  0  0  0  0  0  0  0  0  0  0
   58.6760   33.6400   46.1420 C   0  0  0  0  0  0  0  0  0  0  0  0
   59.3380   32.3980   46.1200 C   0  0  0  0  0  0  0  0  0  0  0  0
   60.6560   32.2360   46.7790 C   0  0  0  0  0  0  0  0  0  0  0  0
   61.2200   33.2340   47.3070 O   0  0  0  0  0  0  0  0  0  0  0  0
   61.2640   30.9410   46.8600 N   0  0  0  0  0  0  0  0  0  0  0  0
   60.6130   29.7090   47.2070 C   0  0  0  0  0  0  0  0  0  0  0  0
   60.4560   29.3930   48.5620 C   0  0  0  0  0  0  0  0  0  0  0  0
   59.8020   28.2190   48.9430 C   0  0  0  0  0  0  0  0  0  0  0  0
   59.2870   27.3560   47.9720 C   0  0  0  0  0  0  0  0  0  0  0  0
   59.4250   27.6630   46.6100 C   0  0  0  0  0  0  0  0  0  0  0  0
   58.8170   26.7680   45.5650 C   0  0  0  0  0  0  0  0  0  0  0  0
   57.8090   25.8560   46.1910 C   0  0  0  0  0  0  0  0  0  0  0  0
   58.1140   24.6890   46.7850 N   0  0  0  0  0  0  0  0  0  0  0  0
   56.9050   24.1920   47.1300 C   0  0  0  0  0  0  0  0  0  0  0  0
   56.7710   23.0910   47.7260 O   0  0  0  0  0  0  0  0  0  0  0  0
   55.8540   24.9640   46.7820 N   0  0  0  0  0  0  0  0  0  0  0  0
   56.4440   26.0110   46.1830 C   0  0  0  0  0  0  0  0  0  0  0  0
   55.7520   27.0840   45.6320 O   0  0  0  0  0  0  0  0  0  0  0  0
   60.0730   28.8500   46.2320 C   0  0  0  0  0  0  0  0  0  0  0  0
   58.7300   31.3140   45.4590 C   0  0  0  0  0  0  0  0  0  0  0  0
   55.1600   28.6180   44.7020 H   0  0  0  0  0  0  0  0  0  0  0  0
   55.8597   32.8339   44.3825 H   0  0  0  0  0  0  0  0  0  0  0  0
   56.9208   34.7631   45.5495 H   0  0  0  0  0  0  0  0  0  0  0  0
   59.1402   34.4979   46.6505 H   0  0  0  0  0  0  0  0  0  0  0  0
   60.8501   30.0735   49.3312 H   0  0  0  0  0  0  0  0  0  0  0  0
   59.6921   27.9733   50.0096 H   0  0  0  0  0  0  0  0  0  0  0  0
   58.7718   26.4331   48.2765 H   0  0  0  0  0  0  0  0  0  0  0  0
   58.3233   27.3853   44.8000 H   0  0  0  0  0  0  0  0  0  0  0  0
   59.6113   26.1632   45.1031 H   0  0  0  0  0  0  0  0  0  0  0  0
   56.1670   27.6440   44.8970 H   0  0  0  0  0  0  0  0  0  0  0  0
   60.1591   29.1101   45.1667 H   0  0  0  0  0  0  0  0  0  0  0  0
   59.2344   30.3367   45.4368 H   0  0  0  0  0  0  0  0  0  0  0  0
  1  2  1  0
  2  3  2  0
  2  4  2  0
  2  5  1  0
  5  6  2  0
  6  7  1  0
  7  8  2  0
  8  9  1  0
  9 10  1  0
 10 11  2  0
 10 12  1  0
 12 13  1  0
 13 14  2  0
 14 15  1  0
 15 16  2  0
 16 17  1  0
 17 18  1  0
 18 19  1  0
 19 20  1  0
 20 21  1  0
 21 22  2  0
 21 23  1  0
 23 24  1  0
 24 25  1  0
 17 26  2  0
  9 27  2  0
 27  5  1  0
 26 13  1  0
 24 19  2  0
  1 28  1  0
  6 29  1  0
  7 30  1  0
  8 31  1  0
 14 32  1  0
 15 33  1  0
 16 34  1  0
 18 35  1  0
 18 36  1  0
 25 37  1  0
 26 38  1  0
 27 39  1  0
M  CHG  4   1  -1  12  -1  20  -1  23  -1
M  END
>  <UniqueID>  (1) 
1

>  <SMILES>  (1) 
[NH-]S(=O)(=O)c1cccc(C(=O)[N-]c2cccc(Cc3[n-]c(=O)[n-]c3O)c2)c1

>  <Energy>  (1) 
72.27357727308903

>  <Genealogy>  (1) 
[NH-]S(=O)(=O)c1cccc(C(=O)[N-]c2cccc(Cc3[n-]c(=O)[n-]c3O)c2)c1 (protonated)
[NH-]S(=O)(=O)c1cccc(C(=O)[N-]c2cccc(Cc3[n-]c(=O)[n-]c3O)c2)c1 (3D coordinates assigned)
[NH-]S(=O)(=O)c1cccc(C(=O)[N-]c2cccc(Cc3[n-]c(=O)[n-]c3O)c2)c1 (optimized conformer: 72.27357727308903 kcal/mol)

>  <smiles>  (1) 
NS(=O)(=O)c1cccc(C(=O)Nc2cccc(Cc3[nH]c(=O)[nH]c3O)c2)c1

>  <score_type>  (1) 
oracle

>  <origin>  (1) 
adg

>  <m_score__min__energy>  (1) 
-15.890000000000001

>  <m_primary>  (1) 
energy

$$$$
1:0
     RDKit          3D

 43 45  0  0  0  0  0  0  0  0999 V2000
   53.6950   28.5710   52.8480 C   0  0  0  0  0  0  0  0  0  0  0  0
   54.6310   29.4890   52.5550 C   0  0  0  0  0  0  0  0  0  0  0  0
   54.4260   30.7150   51.9010 C   0  0  0  0  0  0  0  0  0  0  0  0
   53.3510   31.2110   51.2570 C   0  0  0  0  0  0  0  0  0  0  0  0
   52.1390   31.7530   51.8930 C   0  0  0  0  0  0  0  0  0  0  0  0
   51.8070   31.5740   53.1850 N   0  0  0  0  0  0  0  0  0  0  0  0
   50.5720   32.1150   53.2660 C   0  0  0  0  0  0  0  0  0  0  0  0
   49.9190   32.1550   54.3410 O   0  0  0  0  0  0  0  0  0  0  0  0
   50.0870   32.5980   52.1020 N   0  0  0  0  0  0  0  0  0  0  0  0
   51.0870   32.3480   51.2420 C   0  0  0  0  0  0  0  0  0  0  0  0
   51.0350   32.6480   49.8860 O   0  0  0  0  0  0  0  0  0  0  0  0
   55.6240   31.4010   51.9810 C   0  0  0  0  0  0  0  0  0  0  0  0
   56.5310   30.5630   52.5980 C   0  0  0  0  0  0  0  0  0  0  0  0
   57.9610   30.8910   52.7630 C   0  0  0  0  0  0  0  0  0  0  0  0
   58.5260   30.6660   53.8680 O   0  0  0  0  0  0  0  0  0  0  0  0
   58.6920   31.5130   51.7010 N   0  0  0  0  0  0  0  0  0  0  0  0
   59.2760   30.7800   50.5850 C   0  0  0  0  0  0  0  0  0  0  0  0
   59.1870   31.5980   49.3250 C   0  0  0  0  0  0  0  0  0  0  0  0
   59.7370   32.8890   49.2900 C   0  0  0  0  0  0  0  0  0  0  0  0
   59.6330   33.6650   48.1340 C   0  0  0  0  0  0  0  0  0  0  0  0
   58.9770   33.1640   47.0070 C   0  0  0  0  0  0  0  0  0  0  0  0
   58.4140   31.8730   47.0300 C   0  0  0  0  0  0  0  0  0  0  0  0
   57.7430   31.3260   45.9270 O   0  0  0  0  0  0  0  0  0  0  0  0
   58.3860   30.6830   44.8300 C   0  0  0  0  0  0  0  0  0  0  0  0
   58.5230   31.1000   48.1930 C   0  0  0  0  0  0  0  0  0  0  0  0
   55.9240   29.4100   52.9740 N   0  0  0  0  0  0  0  0  0  0  0  0
   56.5430   28.3220   53.7450 C   0  0  0  0  0  0  0  0  0  0  0  0
   53.9781   27.6429   53.3662 H   0  0  0  0  0  0  0  0  0  0  0  0
   52.6455   28.7474   52.5697 H   0  0  0  0  0  0  0  0  0  0  0  0
   53.3820   31.2108   50.1574 H   0  0  0  0  0  0  0  0  0  0  0  0
   55.8177   32.4221   51.6208 H   0  0  0  0  0  0  0  0  0  0  0  0
   60.3320   30.5640   50.8045 H   0  0  0  0  0  0  0  0  0  0  0  0
   58.7229   29.8398   50.4433 H   0  0  0  0  0  0  0  0  0  0  0  0
   60.2513   33.2904   50.1757 H   0  0  0  0  0  0  0  0  0  0  0  0
   60.0692   34.6745   48.1106 H   0  0  0  0  0  0  0  0  0  0  0  0
   58.8999   33.7796   46.0987 H   0  0  0  0  0  0  0  0  0  0  0  0
   59.1160   29.9530   45.2096 H   0  0  0  0  0  0  0  0  0  0  0  0
   57.6341   30.1647   44.2168 H   0  0  0  0  0  0  0  0  0  0  0  0
   58.9043   31.4349   44.2168 H   0  0  0  0  0  0  0  0  0  0  0  0
   58.0836   30.0919   48.2195 H   0  0  0  0  0  0  0  0  0  0  0  0
   56.4284   28.5234   54.8203 H   0  0  0  0  0  0  0  0  0  0  0  0
   56.0512   27.3701   53.4958 H   0  0  0  0  0  0  0  0  0  0  0  0
   57.6125   28.2584   53.4958 H   0  0  0  0  0  0  0  0  0  0  0  0
  1  2  2  0
  2  3  1  0
  3  4  2  3
  4  5  1  0
  5  6  1  0
  6  7  1  0
  7  8  2  0
  7  9  1  0
  9 10  1  0
 10 11  1  0
  3 12  1  0
 12 13  2  0
 13 14  1  0
 14 15  2  0
 14 16  1  0
 16 17  1  0
 17 18  1  0
 18 19  2  0
 19 20  1  0
 20 21  2  0
 21 22  1  0
 22 23  1  0
 23 24  1  0
 22 25  2  0
 13 26  1  0
 26 27  1  0
 26  2  1  0
 10  5  2  0
 25 18  1  0
  1 28  1  0
  1 29  1  0
  4 30  1  0
 12 31  1  0
 17 32  1  0
 17 33  1  0
 19 34  1  0
 20 35  1  0
 21 36  1  0
 24 37  1  0
 24 38  1  0
 24 39  1  0
 25 40  1  0
 27 41  1  0
 27 42  1  0
 27 43  1  0
M  CHG  4   6  -1   9  -1  11  -1  16  -1
M  END
>  <UniqueID>  (2) 
2

>  <SMILES>  (2) 
C=c1c(=Cc2[n-]c(=O)[n-]c2[O-])cc(C(=O)[N-]Cc2cccc(OC)c2)n1C

>  <Energy>  (2) 
114.69128717689476

>  <Genealogy>  (2) 
C=c1c(=Cc2[n-]c(=O)[n-]c2[O-])cc(C(=O)[N-]Cc2cccc(OC)c2)n1C (protonated)
C=c1c(=Cc2[n-]c(=O)[n-]c2[O-])cc(C(=O)[N-]Cc2cccc(OC)c2)n1C (3D coordinates assigned)
C=c1c(=Cc2[n-]c(=O)[n-]c2[O-])cc(C(=O)[N-]Cc2cccc(OC)c2)n1C (optimized conformer: 114.69128717689476 kcal/mol)

>  <smiles>  (2) 
C=c1c(=Cc2[nH]c(=O)[nH]c2O)cc(C(=O)NCc2cccc(OC)c2)n1C

>  <score_type>  (2) 
oracle

>  <origin>  (2) 
adg

>  <m_score__min__energy>  (2) 
-17.829999999999998

>  <m_primary>  (2) 
energy

$$$$
2:0
     RDKit          3D

 53 56  0  0  0  0  0  0  0  0999 V2000
   56.2148   31.9108   52.3906 H   0  0  0  0  0  0  0  0  0  0  0  0
   55.1700   31.5920   52.2610 C   0  0  0  0  0  0  0  0  0  0  0  0
   54.4141   32.3122   51.9147 H   0  0  0  0  0  0  0  0  0  0  0  0
   54.8180   30.3260   52.5250 C   0  0  0  0  0  0  0  0  0  0  0  0
   53.5450   29.7420   52.4190 C   0  0  0  0  0  0  0  0  0  0  0  0
   52.4080   30.2220   51.8790 C   0  0  0  0  0  0  0  0  0  0  0  0
   52.0080   29.6919   51.0021 H   0  0  0  0  0  0  0  0  0  0  0  0
   51.6530   31.3910   52.3560 C   0  0  0  0  0  0  0  0  0  0  0  0
   51.3200   31.5840   53.6450 N   0  0  0  0  0  0  0  0  0  0  0  0
   50.5300   32.6790   53.6010 C   0  0  0  0  0  0  0  0  0  0  0  0
   50.0220   33.1880   54.6330 O   0  0  0  0  0  0  0  0  0  0  0  0
   50.3130   33.1740   52.3640 N   0  0  0  0  0  0  0  0  0  0  0  0
   51.0190   32.3380   51.5850 C   0  0  0  0  0  0  0  0  0  0  0  0
   51.0540   32.4210   50.1990 O   0  0  0  0  0  0  0  0  0  0  0  0
   53.5830   28.5050   52.9600 N   0  0  0  0  0  0  0  0  0  0  0  0
   54.8650   28.3420   53.3370 C   0  0  0  0  0  0  0  0  0  0  0  0
   55.2830   27.2840   53.8820 O   0  0  0  0  0  0  0  0  0  0  0  0
   55.6480   29.4100   53.0810 N   0  0  0  0  0  0  0  0  0  0  0  0
   57.0620   29.5560   53.4540 C   0  0  0  0  0  0  0  0  0  0  0  0
   57.1334   30.1676   54.3655 H   0  0  0  0  0  0  0  0  0  0  0  0
   57.4856   28.5562   53.6301 H   0  0  0  0  0  0  0  0  0  0  0  0
   57.8400   30.2230   52.3490 C   0  0  0  0  0  0  0  0  0  0  0  0
   58.2400   29.4880   51.2270 C   0  0  0  0  0  0  0  0  0  0  0  0
   57.9808   28.4215   51.1535 H   0  0  0  0  0  0  0  0  0  0  0  0
   58.9650   30.0960   50.2000 C   0  0  0  0  0  0  0  0  0  0  0  0
   59.2708   29.4988   49.3283 H   0  0  0  0  0  0  0  0  0  0  0  0
   59.3140   31.4680   50.2600 C   0  0  0  0  0  0  0  0  0  0  0  0
   60.0690   32.1070   49.1820 N   0  0  0  0  0  0  0  0  0  0  0  0
   60.0990   31.4610   47.8500 C   0  0  0  0  0  0  0  0  0  0  0  0
   60.5073   30.4472   47.9745 H   0  0  0  0  0  0  0  0  0  0  0  0
   59.0624   31.4806   47.4824 H   0  0  0  0  0  0  0  0  0  0  0  0
   60.9380   32.1810   46.7820 C   0  0  0  0  0  0  0  0  0  0  0  0
   61.9637   31.7858   46.8231 H   0  0  0  0  0  0  0  0  0  0  0  0
   60.4510   31.9931   45.8138 H   0  0  0  0  0  0  0  0  0  0  0  0
   60.9970   33.6370   46.9530 N   0  0  0  0  0  0  0  0  0  0  0  0
   61.6790   34.0040   46.2480 H   0  0  0  0  0  0  0  0  0  0  0  0
   59.4690   34.4200   46.5970 S   0  0  0  0  0  0  0  0  0  0  0  0
   58.4290   33.9330   47.5650 O   0  0  0  0  0  0  0  0  0  0  0  0
   59.5770   35.9160   46.7150 O   0  0  0  0  0  0  0  0  0  0  0  0
   58.9320   34.0120   44.9490 C   0  0  0  0  0  0  0  0  0  0  0  0
   58.0572   33.3473   45.0024 H   0  0  0  0  0  0  0  0  0  0  0  0
   58.6602   34.9335   44.4133 H   0  0  0  0  0  0  0  0  0  0  0  0
   59.7469   33.5032   44.4133 H   0  0  0  0  0  0  0  0  0  0  0  0
   61.5310   33.9650   48.2790 C   0  0  0  0  0  0  0  0  0  0  0  0
   62.5338   33.5226   48.3720 H   0  0  0  0  0  0  0  0  0  0  0  0
   61.5560   35.0617   48.3609 H   0  0  0  0  0  0  0  0  0  0  0  0
   60.6590   33.4410   49.4230 C   0  0  0  0  0  0  0  0  0  0  0  0
   61.2794   33.3837   50.3295 H   0  0  0  0  0  0  0  0  0  0  0  0
   59.8174   34.1424   49.5217 H   0  0  0  0  0  0  0  0  0  0  0  0
   58.9050   32.1920   51.4050 C   0  0  0  0  0  0  0  0  0  0  0  0
   59.1657   33.2572   51.4916 H   0  0  0  0  0  0  0  0  0  0  0  0
   58.1760   31.5790   52.4280 C   0  0  0  0  0  0  0  0  0  0  0  0
   57.8636   32.1679   53.3030 H   0  0  0  0  0  0  0  0  0  0  0  0
  1  2  1  0
  2  3  1  0
  2  4  2  0
  4  5  1  0
  5  6  2  0
  6  7  1  0
  6  8  1  0
  8  9  1  0
  9 10  1  0
 10 11  2  0
 10 12  1  0
 12 13  1  0
 13 14  1  0
  5 15  1  0
 15 16  1  0
 16 17  2  0
 16 18  1  0
 18 19  1  0
 19 20  1  0
 19 21  1  0
 19 22  1  0
 22 23  2  0
 23 24  1  0
 23 25  1  0
 25 26  1  0
 25 27  2  0
 27 28  1  0
 28 29  1  0
 29 30  1  0
 29 31  1  0
 29 32  1  0
 32 33  1  0
 32 34  1  0
 32 35  1  0
 35 36  1  0
 35 37  1  0
 37 38  2  0
 37 39  2  0
 37 40  1  0
 40 41  1  0
 40 42  1  0
 40 43  1  0
 35 44  1  0
 44 45  1  0
 44 46  1  0
 44 47  1  0
 47 48  1  0
 47 49  1  0
 27 50  1  0
 50 51  1  0
 50 52  2  0
 52 53  1  0
 18  4  1  0
 52 22  1  0
 13  8  2  0
 47 28  1  0
M  CHG  5   9  -1  12  -1  14  -1  15  -1  35   1
M  END
>  <UniqueID>  (3) 
3

>  <SMILES>  (3) 
C=c1/c(=C\c2[n-]c(=O)[n-]c2[O-])[n-]c(=O)n1Cc1ccc(N2CC[NH+](S(C)(=O)=O)CC2)cc1

>  <Energy>  (3) 
135.71554193478804

>  <Genealogy>  (3) 
C=c1c(=Cc2[n-]c(=O)[n-]c2[O-])[n-]c(=O)n1Cc1ccc(N2CC[NH+](S(C)(=O)=O)CC2)cc1 (protonated)
C=c1/c(=C\c2[n-]c(=O)[n-]c2[O-])[n-]c(=O)n1Cc1ccc(N2CC[NH+](S(C)(=O)=O)CC2)cc1 (cis-trans isomerization)
C=c1/c(=C\c2[n-]c(=O)[n-]c2[O-])[n-]c(=O)n1Cc1ccc(N2CC[NH+](S(C)(=O)=O)CC2)cc1 (3D coordinates assigned)
C=c1/c(=C\c2[n-]c(=O)[n-]c2[O-])[n-]c(=O)n1Cc1ccc(N2CC[NH+](S(C)(=O)=O)CC2)cc1 (nonaromatic ring conformer: 135.71554193478804 kcal/mol)

>  <smiles>  (3) 
C=c1c(=Cc2[nH]c(=O)[nH]c2O)[nH]c(=O)n1Cc1ccc(N2CCN(S(C)(=O)=O)CC2)cc1

>  <score_type>  (3) 
oracle

>  <origin>  (3) 
adg

>  <m_score__min__energy>  (3) 
-17.34

>  <m_primary>  (3) 
energy

$$$$
3:0
     RDKit          3D

 38 40  0  0  0  0  0  0  0  0999 V2000
   61.1860   28.2560   44.6810 N   0  0  0  0  0  0  0  0  0  0  0  0
   59.8080   28.4970   44.9750 C   0  0  0  0  0  0  0  0  0  0  0  0
   58.9770   27.4400   45.3670 C   0  0  0  0  0  0  0  0  0  0  0  0
   57.6190   27.6670   45.6300 C   0  0  0  0  0  0  0  0  0  0  0  0
   56.7460   26.5380   45.9970 C   0  0  0  0  0  0  0  0  0  0  0  0
   55.5010   26.6530   45.8460 O   0  0  0  0  0  0  0  0  0  0  0  0
   57.2650   25.3260   46.5640 N   0  0  0  0  0  0  0  0  0  0  0  0
   58.0790   24.3380   45.8610 C   0  0  0  0  0  0  0  0  0  0  0  0
   57.3360   23.7760   44.6870 C   0  0  0  0  0  0  0  0  0  0  0  0
   57.5090   22.5260   44.1310 C   0  0  0  0  0  0  0  0  0  0  0  0
   56.6330   22.5120   43.0610 C   0  0  0  0  0  0  0  0  0  0  0  0
   56.0120   23.6680   43.0130 O   0  0  0  0  0  0  0  0  0  0  0  0
   56.4120   24.4450   43.9740 N   0  0  0  0  0  0  0  0  0  0  0  0
   57.1050   28.9700   45.5450 C   0  0  0  0  0  0  0  0  0  0  0  0
   57.9310   30.0410   45.1710 C   0  0  0  0  0  0  0  0  0  0  0  0
   57.3950   31.4150   45.0580 C   0  0  0  0  0  0  0  0  0  0  0  0
   56.2810   31.6020   44.4980 O   0  0  0  0  0  0  0  0  0  0  0  0
   58.1300   32.5480   45.5300 N   0  0  0  0  0  0  0  0  0  0  0  0
   57.9310   34.0090   45.5360 C   0  0  0  0  0  0  0  0  0  0  0  0
   59.2940   34.3550   46.0340 C   0  0  0  0  0  0  0  0  0  0  0  0
   59.4800   32.8750   46.0310 C   0  0  0  0  0  0  0  0  0  0  0  0
   59.2810   29.7910   44.8690 C   0  0  0  0  0  0  0  0  0  0  0  0
   61.8780   28.1020   45.4480 H   0  0  0  0  0  0  0  0  0  0  0  0
   61.5260   28.2300   43.6930 H   0  0  0  0  0  0  0  0  0  0  0  0
   59.3921   26.4265   45.4690 H   0  0  0  0  0  0  0  0  0  0  0  0
   59.0032   24.8180   45.5069 H   0  0  0  0  0  0  0  0  0  0  0  0
   58.3157   23.5177   46.5546 H   0  0  0  0  0  0  0  0  0  0  0  0
   58.1868   21.7254   44.4620 H   0  0  0  0  0  0  0  0  0  0  0  0
   56.4817   21.6727   42.3662 H   0  0  0  0  0  0  0  0  0  0  0  0
   56.0710   25.4180   44.1400 H   0  0  0  0  0  0  0  0  0  0  0  0
   56.0448   29.1535   45.7737 H   0  0  0  0  0  0  0  0  0  0  0  0
   57.7304   34.4139   44.5331 H   0  0  0  0  0  0  0  0  0  0  0  0
   57.0759   34.3948   46.1105 H   0  0  0  0  0  0  0  0  0  0  0  0
   59.9284   34.9145   45.3307 H   0  0  0  0  0  0  0  0  0  0  0  0
   59.4841   34.9959   46.9075 H   0  0  0  0  0  0  0  0  0  0  0  0
   60.2772   32.5487   45.3469 H   0  0  0  0  0  0  0  0  0  0  0  0
   59.7899   32.4073   46.9772 H   0  0  0  0  0  0  0  0  0  0  0  0
   59.9296   30.6188   44.5465 H   0  0  0  0  0  0  0  0  0  0  0  0
  1  2  1  0
  2  3  2  0
  3  4  1  0
  4  5  1  0
  5  6  2  0
  5  7  1  0
  7  8  1  0
  8  9  1  0
  9 10  1  0
 10 11  2  0
 11 12  1  0
 12 13  1  0
  4 14  2  0
 14 15  1  0
 15 16  1  0
 16 17  2  0
 16 18  1  0
 18 19  1  0
 19 20  1  0
 20 21  1  0
 15 22  2  0
 22  2  1  0
 13  9  2  0
 21 18  1  0
  1 23  1  0
  1 24  1  0
  3 25  1  0
  8 26  1  0
  8 27  1  0
 10 28  1  0
 11 29  1  0
 13 30  1  0
 14 31  1  0
 19 32  1  0
 19 33  1  0
 20 34  1  0
 20 35  1  0
 21 36  1  0
 21 37  1  0
 22 38  1  0
M  CHG  2   7  -1  13   1
M  END
>  <UniqueID>  (4) 
4

>  <SMILES>  (4) 
Nc1cc(C(=O)[N-]Cc2cco[nH+]2)cc(C(=O)N2CCC2)c1

>  <Energy>  (4) 
116.6144893247941

>  <Genealogy>  (4) 
Nc1cc(C(=O)[N-]Cc2cco[nH+]2)cc(C(=O)N2CCC2)c1 (protonated)
Nc1cc(C(=O)[N-]Cc2cco[nH+]2)cc(C(=O)N2CCC2)c1 (3D coordinates assigned)
Nc1cc(C(=O)[N-]Cc2cco[nH+]2)cc(C(=O)N2CCC2)c1 (nonaromatic ring conformer: 116.6144893247941 kcal/mol)

>  <smiles>  (4) 
Nc1cc(C(=O)NCc2ccon2)cc(C(=O)N2CCC2)c1

>  <score_type>  (4) 
oracle

>  <origin>  (4) 
adg

>  <m_score__min__energy>  (4) 
-7.7400000000000002

>  <m_primary>  (4) 
energy

$$$$
4:0
     RDKit          3D

 44 46  0  0  0  0  0  0  0  0999 V2000
   55.1650   28.9860   44.5760 O   0  0  0  0  0  0  0  0  0  0  0  0
   56.2250   28.8080   45.2360 C   0  0  0  0  0  0  0  0  0  0  0  0
   56.6320   27.4270   45.6260 C   0  0  0  0  0  0  0  0  0  0  0  0
   55.4470   26.6680   45.9990 N   0  0  0  0  0  0  0  0  0  0  0  0
   55.1680   25.2900   45.7080 C   0  0  0  0  0  0  0  0  0  0  0  0
   54.0140   24.8590   45.9700 O   0  0  0  0  0  0  0  0  0  0  0  0
   56.1540   24.3470   45.1270 C   0  0  0  0  0  0  0  0  0  0  0  0
   55.9380   23.5900   43.9750 C   0  0  0  0  0  0  0  0  0  0  0  0
   57.0290   22.7920   43.6090 C   0  0  0  0  0  0  0  0  0  0  0  0
   58.1200   22.9120   44.4590 C   0  0  0  0  0  0  0  0  0  0  0  0
   57.7170   24.0110   45.6630 S   0  0  0  0  0  0  0  0  0  0  0  0
   57.0370   29.9200   45.6360 N   0  0  0  0  0  0  0  0  0  0  0  0
   57.4880   30.9980   44.7990 C   0  0  0  0  0  0  0  0  0  0  0  0
   57.4020   30.9170   43.3960 C   0  0  0  0  0  0  0  0  0  0  0  0
   57.8720   31.9640   42.5980 C   0  0  0  0  0  0  0  0  0  0  0  0
   58.4480   33.0890   43.1850 C   0  0  0  0  0  0  0  0  0  0  0  0
   58.5570   33.1740   44.5750 C   0  0  0  0  0  0  0  0  0  0  0  0
   58.0750   32.1380   45.3920 C   0  0  0  0  0  0  0  0  0  0  0  0
   58.2390   32.2300   46.8580 C   0  0  0  0  0  0  0  0  0  0  0  0
   57.3960   32.8830   47.5300 O   0  0  0  0  0  0  0  0  0  0  0  0
   59.3350   31.6110   47.5420 N   0  0  0  0  0  0  0  0  0  0  0  0
   59.2210   30.4260   48.3840 C   0  0  0  0  0  0  0  0  0  0  0  0
   59.5450   29.2070   47.5710 C   0  0  0  0  0  0  0  0  0  0  0  0
   60.1020   29.3390   46.2870 C   0  0  0  0  0  0  0  0  0  0  0  0
   60.3680   28.2050   45.5140 C   0  0  0  0  0  0  0  0  0  0  0  0
   60.0710   26.9320   46.0120 C   0  0  0  0  0  0  0  0  0  0  0  0
   59.5020   26.7940   47.2830 C   0  0  0  0  0  0  0  0  0  0  0  0
   59.2370   27.9260   48.0590 C   0  0  0  0  0  0  0  0  0  0  0  0
   57.1313   26.9367   44.7773 H   0  0  0  0  0  0  0  0  0  0  0  0
   57.3262   27.4722   46.4781 H   0  0  0  0  0  0  0  0  0  0  0  0
   54.9968   23.6175   43.4063 H   0  0  0  0  0  0  0  0  0  0  0  0
   57.0221   22.1313   42.7295 H   0  0  0  0  0  0  0  0  0  0  0  0
   59.0785   22.3813   44.3612 H   0  0  0  0  0  0  0  0  0  0  0  0
   56.9626   30.0251   42.9254 H   0  0  0  0  0  0  0  0  0  0  0  0
   57.7869   31.8997   41.5032 H   0  0  0  0  0  0  0  0  0  0  0  0
   58.8170   33.9105   42.5534 H   0  0  0  0  0  0  0  0  0  0  0  0
   59.0236   34.0585   45.0331 H   0  0  0  0  0  0  0  0  0  0  0  0
   59.9249   30.5041   49.2256 H   0  0  0  0  0  0  0  0  0  0  0  0
   58.1950   30.3476   48.7729 H   0  0  0  0  0  0  0  0  0  0  0  0
   60.3295   30.3389   45.8889 H   0  0  0  0  0  0  0  0  0  0  0  0
   60.8113   28.3138   44.5132 H   0  0  0  0  0  0  0  0  0  0  0  0
   60.2846   26.0399   45.4049 H   0  0  0  0  0  0  0  0  0  0  0  0
   59.2629   25.7932   47.6720 H   0  0  0  0  0  0  0  0  0  0  0  0
   58.7855   27.8135   49.0557 H   0  0  0  0  0  0  0  0  0  0  0  0
  1  2  2  0
  2  3  1  0
  3  4  1  0
  4  5  1  0
  5  6  2  0
  5  7  1  0
  7  8  2  0
  8  9  1  0
  9 10  2  0
 10 11  1  0
  2 12  1  0
 12 13  1  0
 13 14  2  0
 14 15  1  0
 15 16  2  0
 16 17  1  0
 17 18  2  0
 18 19  1  0
 19 20  2  0
 19 21  1  0
 21 22  1  0
 22 23  1  0
 23 24  2  0
 24 25  1  0
 25 26  2  0
 26 27  1  0
 27 28  2  0
 11  7  1  0
 18 13  1  0
 28 23  1  0
  3 29  1  0
  3 30  1  0
  8 31  1  0
  9 32  1  0
 10 33  1  0
 14 34  1  0
 15 35  1  0
 16 36  1  0
 17 37  1  0
 22 38  1  0
 22 39  1  0
 24 40  1  0
 25 41  1  0
 26 42  1  0
 27 43  1  0
 28 44  1  0
M  CHG  3   4  -1  12  -1  21  -1
M  END
>  <UniqueID>  (5) 
5

>  <SMILES>  (5) 
O=C(C[N-]C(=O)c1cccs1)[N-]c1ccccc1C(=O)[N-]Cc1ccccc1

>  <Energy>  (5) 
80.25681057853619

>  <Genealogy>  (5) 
O=C(C[N-]C(=O)c1cccs1)[N-]c1ccccc1C(=O)[N-]Cc1ccccc1 (protonated)
O=C(C[N-]C(=O)c1cccs1)[N-]c1ccccc1C(=O)[N-]Cc1ccccc1 (3D coordinates assigned)
O=C(C[N-]C(=O)c1cccs1)[N-]c1ccccc1C(=O)[N-]Cc1ccccc1 (optimized conformer: 80.25681057853619 kcal/mol)

>  <smiles>  (5) 
O=C(CNC(=O)c1cccs1)Nc1ccccc1C(=O)NCc1ccccc1

>  <score_type>  (5) 
oracle

>  <origin>  (5) 
adg

>  <m_score__min__energy>  (5) 
-14.83

>  <m_primary>  (5) 
energy

$$$$
5:0
     RDKit          3D

 45 47  0  0  0  0  0  0  0  0999 V2000
   63.3660   33.8590   49.7830 C   0  0  0  0  0  0  0  0  0  0  0  0
   63.0410   32.9000   48.6310 C   0  0  0  0  0  0  0  0  0  0  0  0
   61.5840   32.3970   48.7480 C   0  0  0  0  0  0  0  0  0  0  0  0
   61.0460   31.9380   47.3840 C   0  0  0  0  0  0  0  0  0  0  0  0
   61.0630   33.0160   46.3630 N   0  0  0  0  0  0  0  0  0  0  0  0
   59.4680   33.6860   46.1070 S   0  0  0  0  0  0  0  0  0  0  0  0
   58.7550   33.7910   47.4260 O   0  0  0  0  0  0  0  0  0  0  0  0
   59.5930   35.0720   45.5350 O   0  0  0  0  0  0  0  0  0  0  0  0
   58.5170   32.6850   45.0070 C   0  0  0  0  0  0  0  0  0  0  0  0
   58.2850   33.1070   43.6900 C   0  0  0  0  0  0  0  0  0  0  0  0
   57.5200   32.3200   42.8270 C   0  0  0  0  0  0  0  0  0  0  0  0
   56.9720   31.1150   43.2750 C   0  0  0  0  0  0  0  0  0  0  0  0
   57.1750   30.6920   44.5940 C   0  0  0  0  0  0  0  0  0  0  0  0
   56.5910   29.4530   45.0190 N   0  0  0  0  0  0  0  0  0  0  0  0
   57.2610   28.1900   45.1120 C   0  0  0  0  0  0  0  0  0  0  0  0
   57.5630   27.5420   44.0740 O   0  0  0  0  0  0  0  0  0  0  0  0
   57.7070   27.6920   46.4480 C   0  0  0  0  0  0  0  0  0  0  0  0
   57.1530   26.3220   46.6930 C   0  0  0  0  0  0  0  0  0  0  0  0
   57.8860   25.2750   47.1080 N   0  0  0  0  0  0  0  0  0  0  0  0
   56.9950   24.2600   47.1240 C   0  0  0  0  0  0  0  0  0  0  0  0
   57.3050   23.0910   47.4710 O   0  0  0  0  0  0  0  0  0  0  0  0
   55.7460   24.5940   46.7350 N   0  0  0  0  0  0  0  0  0  0  0  0
   55.8670   25.9030   46.4600 C   0  0  0  0  0  0  0  0  0  0  0  0
   54.8230   26.6960   45.9990 O   0  0  0  0  0  0  0  0  0  0  0  0
   57.9770   31.4700   45.4500 C   0  0  0  0  0  0  0  0  0  0  0  0
   62.0380   34.0970   46.6220 C   0  0  0  0  0  0  0  0  0  0  0  0
   63.3230   33.5540   47.2550 C   0  0  0  0  0  0  0  0  0  0  0  0
   63.1937   33.3505   50.7431 H   0  0  0  0  0  0  0  0  0  0  0  0
   64.4193   34.1689   49.7161 H   0  0  0  0  0  0  0  0  0  0  0  0
   62.7181   34.7454   49.7161 H   0  0  0  0  0  0  0  0  0  0  0  0
   63.7050   32.0262   48.7052 H   0  0  0  0  0  0  0  0  0  0  0  0
   61.5513   31.5510   49.4502 H   0  0  0  0  0  0  0  0  0  0  0  0
   60.9567   33.2247   49.1104 H   0  0  0  0  0  0  0  0  0  0  0  0
   61.6670   31.1043   47.0244 H   0  0  0  0  0  0  0  0  0  0  0  0
   59.9980   31.6361   47.5274 H   0  0  0  0  0  0  0  0  0  0  0  0
   58.7064   34.0595   43.3363 H   0  0  0  0  0  0  0  0  0  0  0  0
   57.3482   32.6493   41.7916 H   0  0  0  0  0  0  0  0  0  0  0  0
   56.3778   30.4954   42.5873 H   0  0  0  0  0  0  0  0  0  0  0  0
   58.8059   27.6509   46.4735 H   0  0  0  0  0  0  0  0  0  0  0  0
   57.3419   28.3750   47.2292 H   0  0  0  0  0  0  0  0  0  0  0  0
   58.1813   31.1221   46.4733 H   0  0  0  0  0  0  0  0  0  0  0  0
   62.2883   34.5882   45.6701 H   0  0  0  0  0  0  0  0  0  0  0  0
   61.5828   34.8116   47.3235 H   0  0  0  0  0  0  0  0  0  0  0  0
   63.7624   32.8012   46.5840 H   0  0  0  0  0  0  0  0  0  0  0  0
   64.0170   34.3940   47.4059 H   0  0  0  0  0  0  0  0  0  0  0  0
  1  2  1  0
  2  3  1  0
  3  4  1  0
  4  5  1  0
  5  6  1  0
  6  7  2  0
  6  8  2  0
  6  9  1  0
  9 10  2  0
 10 11  1  0
 11 12  2  0
 12 13  1  0
 13 14  1  0
 14 15  1  0
 15 16  2  0
 15 17  1  0
 17 18  1  0
 18 19  1  0
 19 20  1  0
 20 21  2  0
 20 22  1  0
 22 23  1  0
 23 24  1  0
 13 25  2  0
  5 26  1  0
 26 27  1  0
 27  2  1  0
 25  9  1  0
 23 18  2  0
  1 28  1  0
  1 29  1  0
  1 30  1  0
  2 31  1  0
  3 32  1  0
  3 33  1  0
  4 34  1  0
  4 35  1  0
 10 36  1  0
 11 37  1  0
 12 38  1  0
 17 39  1  0
 17 40  1  0
 25 41  1  0
 26 42  1  0
 26 43  1  0
 27 44  1  0
 27 45  1  0
M  CHG  4  14  -1  19  -1  22  -1  24  -1
M  END
>  <UniqueID>  (6) 
6

>  <SMILES>  (6) 
CC1CCN(S(=O)(=O)c2cccc([N-]C(=O)Cc3[n-]c(=O)[n-]c3[O-])c2)CC1

>  <Energy>  (6) 
79.17342530489236

>  <Genealogy>  (6) 
CC1CCN(S(=O)(=O)c2cccc([N-]C(=O)Cc3[n-]c(=O)[n-]c3[O-])c2)CC1 (protonated)
CC1CCN(S(=O)(=O)c2cccc([N-]C(=O)Cc3[n-]c(=O)[n-]c3[O-])c2)CC1 (3D coordinates assigned)
CC1CCN(S(=O)(=O)c2cccc([N-]C(=O)Cc3[n-]c(=O)[n-]c3[O-])c2)CC1 (nonaromatic ring conformer: 79.17342530489236 kcal/mol)

>  <smiles>  (6) 
CC1CCN(S(=O)(=O)c2cccc(NC(=O)Cc3[nH]c(=O)[nH]c3O)c2)CC1

>  <score_type>  (6) 
oracle

>  <origin>  (6) 
adg

>  <m_score__min__energy>  (6) 
-18.609999999999999

>  <m_primary>  (6) 
energy

$$$$
6:0
     RDKit          3D

 41 43  0  0  0  0  0  0  0  0999 V2000
   56.0400   23.3950   44.2810 C   0  0  0  0  0  0  0  0  0  0  0  0
   56.0700   24.5150   44.9990 C   0  0  0  0  0  0  0  0  0  0  0  0
   57.2380   25.3150   45.3350 C   0  0  0  0  0  0  0  0  0  0  0  0
   56.8320   26.3530   46.0760 C   0  0  0  0  0  0  0  0  0  0  0  0
   57.7250   27.3730   46.6590 C   0  0  0  0  0  0  0  0  0  0  0  0
   58.2210   27.1590   47.7990 O   0  0  0  0  0  0  0  0  0  0  0  0
   58.0320   28.6030   45.9700 N   0  0  0  0  0  0  0  0  0  0  0  0
   57.2640   29.0050   44.7850 C   0  0  0  0  0  0  0  0  0  0  0  0
   56.9860   30.4770   44.8210 C   0  0  0  0  0  0  0  0  0  0  0  0
   55.9180   30.9220   44.3210 O   0  0  0  0  0  0  0  0  0  0  0  0
   57.9570   31.3750   45.3960 N   0  0  0  0  0  0  0  0  0  0  0  0
   57.7290   32.8250   45.3660 C   0  0  0  0  0  0  0  0  0  0  0  0
   58.0900   33.4340   46.6940 C   0  0  0  0  0  0  0  0  0  0  0  0
   57.5140   33.0180   47.7340 O   0  0  0  0  0  0  0  0  0  0  0  0
   59.1220   34.4200   46.8220 N   0  0  0  0  0  0  0  0  0  0  0  0
   60.4570   34.1920   47.2930 C   0  0  0  0  0  0  0  0  0  0  0  0
   61.4450   33.8170   46.3740 C   0  0  0  0  0  0  0  0  0  0  0  0
   62.7510   33.5590   46.8070 C   0  0  0  0  0  0  0  0  0  0  0  0
   63.0710   33.6570   48.1630 C   0  0  0  0  0  0  0  0  0  0  0  0
   64.3370   33.4060   48.5790 F   0  0  0  0  0  0  0  0  0  0  0  0
   62.0840   34.0050   49.0910 C   0  0  0  0  0  0  0  0  0  0  0  0
   62.3880   34.0820   50.4100 F   0  0  0  0  0  0  0  0  0  0  0  0
   60.7780   34.2630   48.6600 C   0  0  0  0  0  0  0  0  0  0  0  0
   59.2400   30.8450   45.8740 C   0  0  0  0  0  0  0  0  0  0  0  0
   59.0620   29.4780   46.4700 C   0  0  0  0  0  0  0  0  0  0  0  0
   59.8470   29.0920   47.3780 O   0  0  0  0  0  0  0  0  0  0  0  0
   55.4200   26.3490   46.3180 N   0  0  0  0  0  0  0  0  0  0  0  0
   54.9610   25.1930   45.6350 C   0  0  0  0  0  0  0  0  0  0  0  0
   53.7580   24.8230   45.6150 O   0  0  0  0  0  0  0  0  0  0  0  0
   55.0831   22.8839   44.0988 H   0  0  0  0  0  0  0  0  0  0  0  0
   56.9721   22.9803   43.8696 H   0  0  0  0  0  0  0  0  0  0  0  0
   58.2743   25.1035   45.0326 H   0  0  0  0  0  0  0  0  0  0  0  0
   57.8419   28.7668   43.8799 H   0  0  0  0  0  0  0  0  0  0  0  0
   56.3084   28.4602   44.7758 H   0  0  0  0  0  0  0  0  0  0  0  0
   58.3515   33.2748   44.5785 H   0  0  0  0  0  0  0  0  0  0  0  0
   56.6659   33.0176   45.1592 H   0  0  0  0  0  0  0  0  0  0  0  0
   61.1937   33.7248   45.3071 H   0  0  0  0  0  0  0  0  0  0  0  0
   63.5261   33.2788   46.0785 H   0  0  0  0  0  0  0  0  0  0  0  0
   59.9999   34.5222   49.3931 H   0  0  0  0  0  0  0  0  0  0  0  0
   59.9416   30.7818   45.0292 H   0  0  0  0  0  0  0  0  0  0  0  0
   59.6342   31.5194   46.6485 H   0  0  0  0  0  0  0  0  0  0  0  0
  1  2  2  0
  2  3  1  0
  3  4  2  0
  4  5  1  0
  5  6  2  0
  5  7  1  0
  7  8  1  0
  8  9  1  0
  9 10  2  0
  9 11  1  0
 11 12  1  0
 12 13  1  0
 13 14  2  0
 13 15  1  0
 15 16  1  0
 16 17  2  0
 17 18  1  0
 18 19  2  0
 19 20  1  0
 19 21  1  0
 21 22  1  0
 21 23  2  0
 11 24  1  0
 24 25  1  0
 25 26  2  0
  4 27  1  0
 27 28  1  0
 28 29  2  0
 28  2  1  0
 25  7  1  0
 23 16  1  0
  1 30  1  0
  1 31  1  0
  3 32  1  0
  8 33  1  0
  8 34  1  0
 12 35  1  0
 12 36  1  0
 17 37  1  0
 18 38  1  0
 23 39  1  0
 24 40  1  0
 24 41  1  0
M  CHG  2  15  -1  27  -1
M  END
>  <UniqueID>  (7) 
7

>  <SMILES>  (7) 
C=C1C=C(C(=O)N2CC(=O)N(CC(=O)[N-]c3ccc(F)c(F)c3)CC2=O)[N-]C1=O

>  <Energy>  (7) 
74.95624700440658

>  <Genealogy>  (7) 
C=C1C=C(C(=O)N2CC(=O)N(CC(=O)[N-]c3ccc(F)c(F)c3)CC2=O)[N-]C1=O (protonated)
C=C1C=C(C(=O)N2CC(=O)N(CC(=O)[N-]c3ccc(F)c(F)c3)CC2=O)[N-]C1=O (3D coordinates assigned)
C=C1C=C(C(=O)N2CC(=O)N(CC(=O)[N-]c3ccc(F)c(F)c3)CC2=O)[N-]C1=O (nonaromatic ring conformer: 74.95624700440658 kcal/mol)

>  <smiles>  (7) 
C=C1C=C(C(=O)N2CC(=O)N(CC(=O)Nc3ccc(F)c(F)c3)CC2=O)NC1=O

>  <score_type>  (7) 
oracle

>  <origin>  (7) 
adg

>  <m_score__min__energy>  (7) 
-11.83

>  <m_primary>  (7) 
energy

$$$$
7:0
     RDKit          3D

 34 35  0  0  0  0  0  0  0  0999 V2000
   60.7570   29.6750   47.7430 C   0  0  0  0  0  0  0  0  0  0  0  0
   61.2320   30.9950   47.4980 O   0  0  0  0  0  0  0  0  0  0  0  0
   60.4650   32.0230   46.9270 C   0  0  0  0  0  0  0  0  0  0  0  0
   59.1470   31.8100   46.4770 C   0  0  0  0  0  0  0  0  0  0  0  0
   58.4000   32.8630   45.9240 C   0  0  0  0  0  0  0  0  0  0  0  0
   56.9970   32.6250   45.4300 C   0  0  0  0  0  0  0  0  0  0  0  0
   56.9640   31.5680   44.4220 N   0  0  0  0  0  0  0  0  0  0  0  0
   56.6470   30.1900   44.6580 C   0  0  0  0  0  0  0  0  0  0  0  0
   55.4480   29.8740   44.8790 O   0  0  0  0  0  0  0  0  0  0  0  0
   57.6990   29.1140   44.6810 C   0  0  0  0  0  0  0  0  0  0  0  0
   57.2550   27.9370   45.5020 C   0  0  0  0  0  0  0  0  0  0  0  0
   58.1480   27.2890   46.3650 C   0  0  0  0  0  0  0  0  0  0  0  0
   57.6940   26.1850   47.0890 C   0  0  0  0  0  0  0  0  0  0  0  0
   58.4670   25.5860   47.8810 O   0  0  0  0  0  0  0  0  0  0  0  0
   56.4150   25.7530   46.9370 N   0  0  0  0  0  0  0  0  0  0  0  0
   55.5650   26.3810   46.0830 C   0  0  0  0  0  0  0  0  0  0  0  0
   54.3860   25.9640   45.9510 O   0  0  0  0  0  0  0  0  0  0  0  0
   55.9870   27.4580   45.3710 N   0  0  0  0  0  0  0  0  0  0  0  0
   58.9910   34.1270   45.7890 C   0  0  0  0  0  0  0  0  0  0  0  0
   60.2960   34.3460   46.2330 C   0  0  0  0  0  0  0  0  0  0  0  0
   61.0340   33.3040   46.8030 C   0  0  0  0  0  0  0  0  0  0  0  0
   62.3350   33.5610   47.2370 O   0  0  0  0  0  0  0  0  0  0  0  0
   60.6951   29.5030   48.8277 H   0  0  0  0  0  0  0  0  0  0  0  0
   59.7594   29.5553   47.2953 H   0  0  0  0  0  0  0  0  0  0  0  0
   61.4496   28.9471   47.2953 H   0  0  0  0  0  0  0  0  0  0  0  0
   58.6985   30.8090   46.5596 H   0  0  0  0  0  0  0  0  0  0  0  0
   56.3627   32.3309   46.2792 H   0  0  0  0  0  0  0  0  0  0  0  0
   56.6264   33.5542   44.9726 H   0  0  0  0  0  0  0  0  0  0  0  0
   57.8932   28.7801   43.6510 H   0  0  0  0  0  0  0  0  0  0  0  0
   58.6118   29.5292   45.1330 H   0  0  0  0  0  0  0  0  0  0  0  0
   59.1844   27.6423   46.4700 H   0  0  0  0  0  0  0  0  0  0  0  0
   58.4234   34.9504   45.3308 H   0  0  0  0  0  0  0  0  0  0  0  0
   60.7467   35.3445   46.1339 H   0  0  0  0  0  0  0  0  0  0  0  0
   62.9130   32.8460   47.6610 H   0  0  0  0  0  0  0  0  0  0  0  0
  1  2  1  0
  2  3  1  0
  3  4  2  0
  4  5  1  0
  5  6  1  0
  6  7  1  0
  7  8  1  0
  8  9  2  0
  8 10  1  0
 10 11  1  0
 11 12  2  0
 12 13  1  0
 13 14  2  0
 13 15  1  0
 15 16  1  0
 16 17  2  0
 16 18  1  0
  5 19  2  0
 19 20  1  0
 20 21  2  0
 21 22  1  0
 21  3  1  0
 18 11  1  0
  1 23  1  0
  1 24  1  0
  1 25  1  0
  4 26  1  0
  6 27  1  0
  6 28  1  0
 10 29  1  0
 10 30  1  0
 12 31  1  0
 19 32  1  0
 20 33  1  0
 22 34  1  0
M  CHG  3   7  -1  15  -1  18  -1
M  END
>  <UniqueID>  (8) 
8

>  <SMILES>  (8) 
COc1cc(C[N-]C(=O)Cc2cc(=O)[n-]c(=O)[n-]2)ccc1O

>  <Energy>  (8) 
31.45478413809478

>  <Genealogy>  (8) 
COc1cc(C[N-]C(=O)Cc2cc(=O)[n-]c(=O)[n-]2)ccc1O (protonated)
COc1cc(C[N-]C(=O)Cc2cc(=O)[n-]c(=O)[n-]2)ccc1O (3D coordinates assigned)
COc1cc(C[N-]C(=O)Cc2cc(=O)[n-]c(=O)[n-]2)ccc1O (optimized conformer: 31.45478413809478 kcal/mol)

>  <smiles>  (8) 
COc1cc(CNC(=O)Cc2cc(=O)[nH]c(=O)[nH]2)ccc1O

>  <score_type>  (8) 
oracle

>  <origin>  (8) 
adg

>  <m_score__min__energy>  (8) 
-12.289999999999999

>  <m_primary>  (8) 
energy

$$$$
8:0
     RDKit          3D

 40 42  0  0  0  0  0  0  0  0999 V2000
   56.3780   31.4450   44.7010 O   0  0  0  0  0  0  0  0  0  0  0  0
   57.6190   31.4120   44.9250 C   0  0  0  0  0  0  0  0  0  0  0  0
   58.3890   30.1570   44.6150 C   0  0  0  0  0  0  0  0  0  0  0  0
   57.7880   28.9880   45.2650 N   0  0  0  0  0  0  0  0  0  0  0  0
   56.5150   28.5700   45.0700 C   0  0  0  0  0  0  0  0  0  0  0  0
   56.3070   27.4590   45.8590 C   0  0  0  0  0  0  0  0  0  0  0  0
   55.1370   26.7160   45.9660 O   0  0  0  0  0  0  0  0  0  0  0  0
   57.4920   27.2430   46.5160 C   0  0  0  0  0  0  0  0  0  0  0  0
   57.7200   26.3180   47.3410 O   0  0  0  0  0  0  0  0  0  0  0  0
   58.3860   28.1820   46.1430 N   0  0  0  0  0  0  0  0  0  0  0  0
   59.7730   28.2870   46.6140 C   0  0  0  0  0  0  0  0  0  0  0  0
   59.9510   29.4770   47.5190 C   0  0  0  0  0  0  0  0  0  0  0  0
   61.1780   30.1590   47.5620 C   0  0  0  0  0  0  0  0  0  0  0  0
   61.3410   31.2660   48.4010 C   0  0  0  0  0  0  0  0  0  0  0  0
   60.2780   31.7060   49.1950 C   0  0  0  0  0  0  0  0  0  0  0  0
   60.5020   33.2150   50.3430 Br  0  0  0  0  0  0  0  0  0  0  0  0
   59.0470   31.0420   49.1440 C   0  0  0  0  0  0  0  0  0  0  0  0
   58.8810   29.9370   48.3050 C   0  0  0  0  0  0  0  0  0  0  0  0
   58.2610   32.5530   45.5240 N   0  0  0  0  0  0  0  0  0  0  0  0
   59.6380   32.5720   45.9910 C   0  0  0  0  0  0  0  0  0  0  0  0
   59.8880   33.9930   46.4760 C   0  0  0  0  0  0  0  0  0  0  0  0
   58.5120   34.6330   46.6350 C   0  0  0  0  0  0  0  0  0  0  0  0
   57.5590   33.7960   45.7930 C   0  0  0  0  0  0  0  0  0  0  0  0
   58.3930   29.9989   43.5264 H   0  0  0  0  0  0  0  0  0  0  0  0
   59.4143   30.2763   44.9951 H   0  0  0  0  0  0  0  0  0  0  0  0
   55.7769   29.0350   44.4000 H   0  0  0  0  0  0  0  0  0  0  0  0
   60.0344   27.3729   47.1673 H   0  0  0  0  0  0  0  0  0  0  0  0
   60.4295   28.4120   45.7403 H   0  0  0  0  0  0  0  0  0  0  0  0
   62.0146   29.8209   46.9329 H   0  0  0  0  0  0  0  0  0  0  0  0
   62.3069   31.7911   48.4361 H   0  0  0  0  0  0  0  0  0  0  0  0
   58.2089   31.3906   49.7654 H   0  0  0  0  0  0  0  0  0  0  0  0
   57.9085   29.4250   48.2597 H   0  0  0  0  0  0  0  0  0  0  0  0
   59.7736   31.8559   46.8149 H   0  0  0  0  0  0  0  0  0  0  0  0
   60.3410   32.2847   45.1952 H   0  0  0  0  0  0  0  0  0  0  0  0
   60.4169   33.9799   47.4404 H   0  0  0  0  0  0  0  0  0  0  0  0
   60.5139   34.5556   45.7676 H   0  0  0  0  0  0  0  0  0  0  0  0
   58.2032   34.6176   47.6906 H   0  0  0  0  0  0  0  0  0  0  0  0
   58.5173   35.6844   46.3116 H   0  0  0  0  0  0  0  0  0  0  0  0
   56.6293   33.5993   46.3471 H   0  0  0  0  0  0  0  0  0  0  0  0
   57.2774   34.3128   44.8637 H   0  0  0  0  0  0  0  0  0  0  0  0
  1  2  2  0
  2  3  1  0
  3  4  1  0
  4  5  1  0
  5  6  2  0
  6  7  1  0
  6  8  1  0
  8  9  2  0
  8 10  1  0
 10 11  1  0
 11 12  1  0
 12 13  2  0
 13 14  1  0
 14 15  2  0
 15 16  1  0
 15 17  1  0
 17 18  2  0
  2 19  1  0
 19 20  1  0
 20 21  1  0
 21 22  1  0
 22 23  1  0
 10  4  1  0
 18 12  1  0
 23 19  1  0
  3 24  1  0
  3 25  1  0
  5 26  1  0
 11 27  1  0
 11 28  1  0
 13 29  1  0
 14 30  1  0
 17 31  1  0
 18 32  1  0
 20 33  1  0
 20 34  1  0
 21 35  1  0
 21 36  1  0
 22 37  1  0
 22 38  1  0
 23 39  1  0
 23 40  1  0
M  CHG  1   7  -1
M  END
>  <UniqueID>  (9) 
9

>  <SMILES>  (9) 
O=C(Cn1cc([O-])c(=O)n1Cc1ccc(Br)cc1)N1CCCC1

>  <Energy>  (9) 
72.56962149567109

>  <Genealogy>  (9) 
O=C(Cn1cc([O-])c(=O)n1Cc1ccc(Br)cc1)N1CCCC1 (protonated)
O=C(Cn1cc([O-])c(=O)n1Cc1ccc(Br)cc1)N1CCCC1 (3D coordinates assigned)
O=C(Cn1cc([O-])c(=O)n1Cc1ccc(Br)cc1)N1CCCC1 (nonaromatic ring conformer: 72.56962149567109 kcal/mol)

>  <smiles>  (9) 
O=C(Cn1cc(O)c(=O)n1Cc1ccc(Br)cc1)N1CCCC1

>  <score_type>  (9) 
oracle

>  <origin>  (9) 
adg

>  <m_score__min__energy>  (9) 
-10.85

>  <m_primary>  (9) 
energy

$$$$
9:0
     RDKit          3D

 41 43  0  0  0  0  0  0  0  0999 V2000
   57.1500   34.1980   45.8700 N   0  0  0  0  0  0  0  0  0  0  0  0
   58.8300   34.2370   46.2760 S   0  0  0  0  0  0  0  0  0  0  0  0
   59.6130   33.4830   45.2380 O   0  0  0  0  0  0  0  0  0  0  0  0
   59.3070   35.6620   46.2980 O   0  0  0  0  0  0  0  0  0  0  0  0
   59.0730   33.5020   47.8570 C   0  0  0  0  0  0  0  0  0  0  0  0
   58.5170   32.2470   48.1440 C   0  0  0  0  0  0  0  0  0  0  0  0
   58.6970   31.6700   49.4040 C   0  0  0  0  0  0  0  0  0  0  0  0
   59.4130   32.3530   50.4010 C   0  0  0  0  0  0  0  0  0  0  0  0
   59.6540   31.7410   51.7210 C   0  0  0  0  0  0  0  0  0  0  0  0
   58.6960   31.4120   52.6000 C   0  0  0  0  0  0  0  0  0  0  0  0
   58.5230   32.3040   54.1540 S   0  0  0  0  0  0  0  0  0  0  0  0
   57.1820   31.1900   54.5760 C   0  0  0  0  0  0  0  0  0  0  0  0
   56.5910   31.2520   55.6850 O   0  0  0  0  0  0  0  0  0  0  0  0
   56.8300   30.2300   53.5810 N   0  0  0  0  0  0  0  0  0  0  0  0
   55.6460   29.3720   53.6380 C   0  0  0  0  0  0  0  0  0  0  0  0
   54.4650   30.0780   53.0310 C   0  0  0  0  0  0  0  0  0  0  0  0
   54.4980   30.4970   51.6920 C   0  0  0  0  0  0  0  0  0  0  0  0
   53.4160   31.1880   51.1410 C   0  0  0  0  0  0  0  0  0  0  0  0
   52.2820   31.4780   51.9200 C   0  0  0  0  0  0  0  0  0  0  0  0
   51.1340   32.2090   51.3410 C   0  0  0  0  0  0  0  0  0  0  0  0
   50.2690   32.7390   52.0870 O   0  0  0  0  0  0  0  0  0  0  0  0
   50.9940   32.3220   49.9620 O   0  0  0  0  0  0  0  0  0  0  0  0
   52.2550   31.0640   53.2630 C   0  0  0  0  0  0  0  0  0  0  0  0
   53.3390   30.3740   53.8140 C   0  0  0  0  0  0  0  0  0  0  0  0
   57.6640   30.3800   52.4400 C   0  0  0  0  0  0  0  0  0  0  0  0
   57.4750   29.7230   51.3820 O   0  0  0  0  0  0  0  0  0  0  0  0
   59.9880   33.5970   50.1040 C   0  0  0  0  0  0  0  0  0  0  0  0
   59.8070   34.1750   48.8420 C   0  0  0  0  0  0  0  0  0  0  0  0
   56.6300   33.9820   46.7500 H   0  0  0  0  0  0  0  0  0  0  0  0
   56.8810   35.1670   45.5910 H   0  0  0  0  0  0  0  0  0  0  0  0
   57.9375   31.7152   47.3751 H   0  0  0  0  0  0  0  0  0  0  0  0
   58.2759   30.6761   49.6161 H   0  0  0  0  0  0  0  0  0  0  0  0
   60.6972   31.5394   52.0058 H   0  0  0  0  0  0  0  0  0  0  0  0
   55.8417   28.4447   53.0796 H   0  0  0  0  0  0  0  0  0  0  0  0
   55.4229   29.1366   54.6891 H   0  0  0  0  0  0  0  0  0  0  0  0
   55.3809   30.2801   51.0728 H   0  0  0  0  0  0  0  0  0  0  0  0
   53.4515   31.5078   50.0891 H   0  0  0  0  0  0  0  0  0  0  0  0
   51.3748   31.2844   53.8849 H   0  0  0  0  0  0  0  0  0  0  0  0
   53.3089   30.0612   54.8682 H   0  0  0  0  0  0  0  0  0  0  0  0
   60.5838   34.1209   50.8660 H   0  0  0  0  0  0  0  0  0  0  0  0
   60.2427   35.1610   48.6231 H   0  0  0  0  0  0  0  0  0  0  0  0
  1  2  1  0
  2  3  2  0
  2  4  2  0
  2  5  1  0
  5  6  2  0
  6  7  1  0
  7  8  2  0
  8  9  1  0
  9 10  2  3
 10 11  1  0
 11 12  1  0
 12 13  2  0
 12 14  1  0
 14 15  1  0
 15 16  1  0
 16 17  2  0
 17 18  1  0
 18 19  2  0
 19 20  1  0
 20 21  2  0
 20 22  1  0
 19 23  1  0
 23 24  2  0
 14 25  1  0
 25 26  2  0
  8 27  1  0
 27 28  2  0
 28  5  1  0
 25 10  1  0
 24 16  1  0
  1 29  1  0
  1 30  1  0
  6 31  1  0
  7 32  1  0
  9 33  1  0
 15 34  1  0
 15 35  1  0
 17 36  1  0
 18 37  1  0
 23 38  1  0
 24 39  1  0
 27 40  1  0
 28 41  1  0
M  CHG  1  22  -1
M  END
>  <UniqueID>  (10) 
10

>  <SMILES>  (10) 
NS(=O)(=O)c1ccc(C=C2SC(=O)N(Cc3ccc(C(=O)[O-])cc3)C2=O)cc1

>  <Energy>  (10) 
67.87168048647705

>  <Genealogy>  (10) 
NS(=O)(=O)c1ccc(C=C2SC(=O)N(Cc3ccc(C(=O)[O-])cc3)C2=O)cc1 (protonated)
NS(=O)(=O)c1ccc(C=C2SC(=O)N(Cc3ccc(C(=O)[O-])cc3)C2=O)cc1 (3D coordinates assigned)
NS(=O)(=O)c1ccc(C=C2SC(=O)N(Cc3ccc(C(=O)[O-])cc3)C2=O)cc1 (nonaromatic ring conformer: 67.87168048647705 kcal/mol)

>  <smiles>  (10) 
NS(=O)(=O)c1ccc(C=C2SC(=O)N(Cc3ccc(C(=O)O)cc3)C2=O)cc1

>  <score_type>  (10) 
oracle

>  <origin>  (10) 
adg

>  <m_score__min__energy>  (10) 
-12.07

>  <m_primary>  (10) 
energy

$$$$
10:0
     RDKit          3D

 25 26  0  0  0  0  0  0  0  0999 V2000
   58.8390   30.0690   44.2570 O   0  0  0  0  0  0  0  0  0  0  0  0
   57.7130   29.9740   44.8140 C   0  0  0  0  0  0  0  0  0  0  0  0
   56.9060   31.1380   45.0190 N   0  0  0  0  0  0  0  0  0  0  0  0
   57.2480   32.4580   44.5010 C   0  0  0  0  0  0  0  0  0  0  0  0
   58.0670   33.2190   45.5080 C   0  0  0  0  0  0  0  0  0  0  0  0
   58.8480   34.3100   45.0940 C   0  0  0  0  0  0  0  0  0  0  0  0
   59.6290   35.0100   46.0220 C   0  0  0  0  0  0  0  0  0  0  0  0
   59.6380   34.6200   47.3640 C   0  0  0  0  0  0  0  0  0  0  0  0
   58.8670   33.5310   47.7820 C   0  0  0  0  0  0  0  0  0  0  0  0
   58.0850   32.8310   46.8580 C   0  0  0  0  0  0  0  0  0  0  0  0
   57.2220   28.6640   45.2600 C   0  0  0  0  0  0  0  0  0  0  0  0
   58.0140   27.6250   45.7190 C   0  0  0  0  0  0  0  0  0  0  0  0
   57.1540   26.5940   46.0260 C   0  0  0  0  0  0  0  0  0  0  0  0
   55.8930   27.0630   45.7370 C   0  0  0  0  0  0  0  0  0  0  0  0
   54.7220   26.3350   45.9010 O   0  0  0  0  0  0  0  0  0  0  0  0
   55.9170   28.3250   45.2670 N   0  0  0  0  0  0  0  0  0  0  0  0
   57.8279   32.3445   43.5732 H   0  0  0  0  0  0  0  0  0  0  0  0
   56.3206   33.0146   44.3005 H   0  0  0  0  0  0  0  0  0  0  0  0
   58.8464   34.6158   44.0374 H   0  0  0  0  0  0  0  0  0  0  0  0
   60.2356   35.8672   45.6945 H   0  0  0  0  0  0  0  0  0  0  0  0
   60.2522   35.1702   48.0921 H   0  0  0  0  0  0  0  0  0  0  0  0
   58.8756   33.2247   48.8385 H   0  0  0  0  0  0  0  0  0  0  0  0
   57.4815   31.9731   47.1896 H   0  0  0  0  0  0  0  0  0  0  0  0
   59.1095   27.6234   45.8184 H   0  0  0  0  0  0  0  0  0  0  0  0
   57.4198   25.6021   46.4202 H   0  0  0  0  0  0  0  0  0  0  0  0
  1  2  2  0
  2  3  1  0
  3  4  1  0
  4  5  1  0
  5  6  2  0
  6  7  1  0
  7  8  2  0
  8  9  1  0
  9 10  2  0
  2 11  1  0
 11 12  2  0
 12 13  1  0
 13 14  2  0
 14 15  1  0
 14 16  1  0
 10  5  1  0
 16 11  1  0
  4 17  1  0
  4 18  1  0
  6 19  1  0
  7 20  1  0
  8 21  1  0
  9 22  1  0
 10 23  1  0
 12 24  1  0
 13 25  1  0
M  CHG  3   3  -1  15  -1  16  -1
M  END
>  <UniqueID>  (11) 
11

>  <SMILES>  (11) 
O=C([N-]Cc1ccccc1)c1ccc([O-])[n-]1

>  <Energy>  (11) 
47.283729585567755

>  <Genealogy>  (11) 
O=C([N-]Cc1ccccc1)c1ccc([O-])[n-]1 (protonated)
O=C([N-]Cc1ccccc1)c1ccc([O-])[n-]1 (3D coordinates assigned)
O=C([N-]Cc1ccccc1)c1ccc([O-])[n-]1 (optimized conformer: 47.283729585567755 kcal/mol)

>  <smiles>  (11) 
O=C(NCc1ccccc1)c1ccc(O)[nH]1

>  <score_type>  (11) 
oracle

>  <origin>  (11) 
adg

>  <m_score__min__energy>  (11) 
-13.42

>  <m_primary>  (11) 
energy

$$$$
11:0
     RDKit          3D

 45 44  0  0  0  0  0  0  0  0999 V2000
   57.9810   26.6180   44.2170 C   0  0  0  0  0  0  0  0  0  0  0  0
   57.7690   27.9090   44.5090 C   0  0  0  0  0  0  0  0  0  0  0  0
   58.7470   28.9010   44.1260 N   0  0  0  0  0  0  0  0  0  0  0  0
   59.9840   28.7170   44.9020 C   0  0  0  0  0  0  0  0  0  0  0  0
   59.8690   29.3460   46.2980 C   0  0  0  0  0  0  0  0  0  0  0  0
   58.8770   30.4300   46.2940 N   0  0  0  0  0  0  0  0  0  0  0  0
   59.1560   31.4370   47.3300 C   0  0  0  0  0  0  0  0  0  0  0  0
   59.7910   32.6810   46.7440 C   0  0  0  0  0  0  0  0  0  0  0  0
   59.1440   33.8330   46.4430 C   0  0  0  0  0  0  0  0  0  0  0  0
   59.2460   34.9730   47.4260 C   0  0  0  0  0  0  0  0  0  0  0  0
   58.3650   34.0460   45.1530 C   0  0  0  0  0  0  0  0  0  0  0  0
   57.4440   32.8650   44.8090 C   0  0  0  0  0  0  0  0  0  0  0  0
   58.0390   31.9610   43.7520 C   0  0  0  0  0  0  0  0  0  0  0  0
   57.3870   31.6240   42.6190 C   0  0  0  0  0  0  0  0  0  0  0  0
   57.6290   32.4390   41.3760 C   0  0  0  0  0  0  0  0  0  0  0  0
   56.4280   30.4570   42.5780 C   0  0  0  0  0  0  0  0  0  0  0  0
   56.5100   28.3320   45.1680 C   0  0  0  0  0  0  0  0  0  0  0  0
   56.2410   29.5530   45.3280 O   0  0  0  0  0  0  0  0  0  0  0  0
   55.6070   27.3790   45.6230 O   0  0  0  0  0  0  0  0  0  0  0  0
   57.2389   25.8595   44.5068 H   0  0  0  0  0  0  0  0  0  0  0  0
   58.8971   26.3171   43.6876 H   0  0  0  0  0  0  0  0  0  0  0  0
   58.9550   28.8130   43.1040 H   0  0  0  0  0  0  0  0  0  0  0  0
   58.3650   29.8640   44.2870 H   0  0  0  0  0  0  0  0  0  0  0  0
   60.1819   27.6403   45.0099 H   0  0  0  0  0  0  0  0  0  0  0  0
   60.8060   29.2134   44.3655 H   0  0  0  0  0  0  0  0  0  0  0  0
   59.5592   28.5745   47.0182 H   0  0  0  0  0  0  0  0  0  0  0  0
   60.8473   29.7602   46.5832 H   0  0  0  0  0  0  0  0  0  0  0  0
   57.9280   30.0170   46.4570 H   0  0  0  0  0  0  0  0  0  0  0  0
   58.2115   31.7157   47.8201 H   0  0  0  0  0  0  0  0  0  0  0  0
   59.8605   30.9998   48.0529 H   0  0  0  0  0  0  0  0  0  0  0  0
   60.8723   32.6463   46.5453 H   0  0  0  0  0  0  0  0  0  0  0  0
   59.2106   34.5770   48.4516 H   0  0  0  0  0  0  0  0  0  0  0  0
   60.1955   35.5065   47.2715 H   0  0  0  0  0  0  0  0  0  0  0  0
   58.4063   35.6666   47.2715 H   0  0  0  0  0  0  0  0  0  0  0  0
   57.7496   34.9515   45.2600 H   0  0  0  0  0  0  0  0  0  0  0  0
   59.0968   34.1425   44.3374 H   0  0  0  0  0  0  0  0  0  0  0  0
   57.2694   32.2754   45.7211 H   0  0  0  0  0  0  0  0  0  0  0  0
   56.5049   33.2761   44.4100 H   0  0  0  0  0  0  0  0  0  0  0  0
   59.0502   31.5595   43.9142 H   0  0  0  0  0  0  0  0  0  0  0  0
   57.9316   33.4580   41.6588 H   0  0  0  0  0  0  0  0  0  0  0  0
   58.4271   31.9715   40.7806 H   0  0  0  0  0  0  0  0  0  0  0  0
   56.7051   32.4828   40.7806 H   0  0  0  0  0  0  0  0  0  0  0  0
   56.1774   30.1521   43.6048 H   0  0  0  0  0  0  0  0  0  0  0  0
   55.5103   30.7549   42.0497 H   0  0  0  0  0  0  0  0  0  0  0  0
   56.8981   29.6145   42.0497 H   0  0  0  0  0  0  0  0  0  0  0  0
  1  2  2  0
  2  3  1  0
  3  4  1  0
  4  5  1  0
  5  6  1  0
  6  7  1  0
  7  8  1  0
  8  9  2  3
  9 10  1  0
  9 11  1  0
 11 12  1  0
 12 13  1  0
 13 14  2  3
 14 15  1  0
 14 16  1  0
  2 17  1  0
 17 18  2  0
 17 19  1  0
  1 20  1  0
  1 21  1  0
  3 22  1  0
  3 23  1  0
  4 24  1  0
  4 25  1  0
  5 26  1  0
  5 27  1  0
  6 28  1  0
  7 29  1  0
  7 30  1  0
  8 31  1  0
 10 32  1  0
 10 33  1  0
 10 34  1  0
 11 35  1  0
 11 36  1  0
 12 37  1  0
 12 38  1  0
 13 39  1  0
 15 40  1  0
 15 41  1  0
 15 42  1  0
 16 43  1  0
 16 44  1  0
 16 45  1  0
M  CHG  2   3   1  19  -1
M  END
>  <UniqueID>  (12) 
12

>  <SMILES>  (12) 
C=C([NH2+]CCNCC=C(C)CCC=C(C)C)C(=O)[O-]

>  <Energy>  (12) 
29.104290081218124

>  <Genealogy>  (12) 
C=C([NH2+]CCNCC=C(C)CCC=C(C)C)C(=O)[O-] (protonated)
C=C([NH2+]CCNCC=C(C)CCC=C(C)C)C(=O)[O-] (3D coordinates assigned)
C=C([NH2+]CCNCC=C(C)CCC=C(C)C)C(=O)[O-] (optimized conformer: 29.104290081218124 kcal/mol)

>  <smiles>  (12) 
C=C(NCCNCC=C(C)CCC=C(C)C)C(=O)O

>  <score_type>  (12) 
oracle

>  <origin>  (12) 
adg

>  <m_score__min__energy>  (12) 
-8.5899999999999999

>  <m_primary>  (12) 
energy

$$$$
12:0
     RDKit          3D

 22 23  0  0  0  0  0  0  0  0999 V2000
   60.4850   26.3960   46.3520 C   0  0  0  0  0  0  0  0  0  0  0  0
   58.9890   26.4750   46.2690 C   0  0  0  0  0  0  0  0  0  0  0  0
   58.1790   25.4090   46.7170 C   0  0  0  0  0  0  0  0  0  0  0  0
   56.7730   25.4850   46.6310 C   0  0  0  0  0  0  0  0  0  0  0  0
   55.9970   24.4220   47.0770 O   0  0  0  0  0  0  0  0  0  0  0  0
   56.1550   26.6290   46.0950 C   0  0  0  0  0  0  0  0  0  0  0  0
   54.7700   26.7140   46.0000 O   0  0  0  0  0  0  0  0  0  0  0  0
   56.9680   27.6740   45.6600 C   0  0  0  0  0  0  0  0  0  0  0  0
   58.3450   27.6030   45.7420 C   0  0  0  0  0  0  0  0  0  0  0  0
   58.8760   28.8480   45.1830 C   0  0  0  0  0  0  0  0  0  0  0  0
   60.0950   29.1280   45.0360 O   0  0  0  0  0  0  0  0  0  0  0  0
   57.8070   29.7120   44.7890 N   0  0  0  0  0  0  0  0  0  0  0  0
   57.9150   30.8270   43.8560 C   0  0  0  0  0  0  0  0  0  0  0  0
   56.6240   28.9580   45.0530 C   0  0  0  0  0  0  0  0  0  0  0  0
   55.4600   29.3470   44.7710 O   0  0  0  0  0  0  0  0  0  0  0  0
   60.7933   26.3797   47.4078 H   0  0  0  0  0  0  0  0  0  0  0  0
   60.8319   25.4783   45.8545 H   0  0  0  0  0  0  0  0  0  0  0  0
   60.9266   27.2721   45.8545 H   0  0  0  0  0  0  0  0  0  0  0  0
   58.6498   24.5085   47.1381 H   0  0  0  0  0  0  0  0  0  0  0  0
   58.0062   31.7681   44.4182 H   0  0  0  0  0  0  0  0  0  0  0  0
   58.8041   30.6905   43.2229 H   0  0  0  0  0  0  0  0  0  0  0  0
   57.0162   30.8637   43.2229 H   0  0  0  0  0  0  0  0  0  0  0  0
  1  2  1  0
  2  3  2  0
  3  4  1  0
  4  5  1  0
  4  6  2  0
  6  7  1  0
  6  8  1  0
  8  9  2  0
  9 10  1  0
 10 11  2  0
 10 12  1  0
 12 13  1  0
 12 14  1  0
 14 15  2  0
  9  2  1  0
 14  8  1  0
  1 16  1  0
  1 17  1  0
  1 18  1  0
  3 19  1  0
 13 20  1  0
 13 21  1  0
 13 22  1  0
M  CHG  2   5  -1   7  -1
M  END
>  <UniqueID>  (13) 
13

>  <SMILES>  (13) 
Cc1cc([O-])c([O-])c2c1C(=O)N(C)C2=O

>  <Energy>  (13) 
53.465401849891805

>  <Genealogy>  (13) 
Cc1cc([O-])c([O-])c2c1C(=O)N(C)C2=O (protonated)
Cc1cc([O-])c([O-])c2c1C(=O)N(C)C2=O (3D coordinates assigned)
Cc1cc([O-])c([O-])c2c1C(=O)N(C)C2=O (nonaromatic ring conformer: 53.465401849891805 kcal/mol)

>  <smiles>  (13) 
Cc1cc(O)c(O)c2c1C(=O)N(C)C2=O

>  <score_type>  (13) 
oracle

>  <origin>  (13) 
adg

>  <m_score__min__energy>  (13) 
-12.83

>  <m_primary>  (13) 
energy

$$$$
13:0
     RDKit          3D

 41 43  0  0  0  0  0  0  0  0999 V2000
   56.3360   22.3430   42.6950 C   0  0  0  0  0  0  0  0  0  0  0  0
   56.8090   22.1920   44.1350 C   0  0  0  0  0  0  0  0  0  0  0  0
   56.3390   23.3220   44.9440 N   0  0  0  0  0  0  0  0  0  0  0  0
   55.3620   23.3360   45.8890 C   0  0  0  0  0  0  0  0  0  0  0  0
   54.5070   22.0160   46.3480 S   0  0  0  0  0  0  0  0  0  0  0  0
   55.1500   24.5600   46.4380 N   0  0  0  0  0  0  0  0  0  0  0  0
   56.0330   25.3370   45.7840 C   0  0  0  0  0  0  0  0  0  0  0  0
   56.2760   26.6930   45.9850 C   0  0  0  0  0  0  0  0  0  0  0  0
   57.2990   27.2990   45.2250 C   0  0  0  0  0  0  0  0  0  0  0  0
   57.7790   28.9630   45.5370 S   0  0  0  0  0  0  0  0  0  0  0  0
   58.1140   29.1040   46.9960 O   0  0  0  0  0  0  0  0  0  0  0  0
   58.9960   29.3200   44.7290 O   0  0  0  0  0  0  0  0  0  0  0  0
   56.4670   30.0420   45.1460 N   0  0  0  0  0  0  0  0  0  0  0  0
   56.8760   31.0640   44.1780 C   0  0  0  0  0  0  0  0  0  0  0  0
   57.5900   32.2050   44.8560 C   0  0  0  0  0  0  0  0  0  0  0  0
   57.7750   32.2040   46.2480 C   0  0  0  0  0  0  0  0  0  0  0  0
   58.5070   33.2240   46.8640 C   0  0  0  0  0  0  0  0  0  0  0  0
   59.0670   34.2560   46.0960 C   0  0  0  0  0  0  0  0  0  0  0  0
   59.8660   35.3390   46.7560 C   0  0  0  0  0  0  0  0  0  0  0  0
   58.8330   34.2890   44.7140 C   0  0  0  0  0  0  0  0  0  0  0  0
   58.1000   33.2710   44.0970 C   0  0  0  0  0  0  0  0  0  0  0  0
   58.0090   26.5410   44.2620 C   0  0  0  0  0  0  0  0  0  0  0  0
   57.7360   25.1730   44.0820 C   0  0  0  0  0  0  0  0  0  0  0  0
   56.7450   24.6020   44.8800 C   0  0  0  0  0  0  0  0  0  0  0  0
   55.2881   22.6775   42.6864 H   0  0  0  0  0  0  0  0  0  0  0  0
   56.9623   23.0859   42.1793 H   0  0  0  0  0  0  0  0  0  0  0  0
   56.4160   21.3747   42.1793 H   0  0  0  0  0  0  0  0  0  0  0  0
   56.4100   21.2557   44.5522 H   0  0  0  0  0  0  0  0  0  0  0  0
   57.9087   22.1719   44.1512 H   0  0  0  0  0  0  0  0  0  0  0  0
   55.6896   27.2732   46.7126 H   0  0  0  0  0  0  0  0  0  0  0  0
   57.5506   30.6078   43.4386 H   0  0  0  0  0  0  0  0  0  0  0  0
   55.9739   31.4602   43.6890 H   0  0  0  0  0  0  0  0  0  0  0  0
   57.3419   31.3968   46.8570 H   0  0  0  0  0  0  0  0  0  0  0  0
   58.6443   33.2172   47.9554 H   0  0  0  0  0  0  0  0  0  0  0  0
   59.7903   35.2365   47.8486 H   0  0  0  0  0  0  0  0  0  0  0  0
   60.9197   35.2544   46.4519 H   0  0  0  0  0  0  0  0  0  0  0  0
   59.4743   36.3209   46.4519 H   0  0  0  0  0  0  0  0  0  0  0  0
   59.2283   35.1204   44.1120 H   0  0  0  0  0  0  0  0  0  0  0  0
   57.9218   33.3050   43.0121 H   0  0  0  0  0  0  0  0  0  0  0  0
   58.7819   27.0272   43.6486 H   0  0  0  0  0  0  0  0  0  0  0  0
   58.2842   24.5753   43.3389 H   0  0  0  0  0  0  0  0  0  0  0  0
  1  2  1  0
  2  3  1  0
  3  4  1  0
  4  5  2  0
  4  6  1  0
  6  7  1  0
  7  8  2  0
  8  9  1  0
  9 10  1  0
 10 11  2  0
 10 12  2  0
 10 13  1  0
 13 14  1  0
 14 15  1  0
 15 16  2  0
 16 17  1  0
 17 18  2  0
 18 19  1  0
 18 20  1  0
 20 21  2  0
  9 22  2  0
 22 23  1  0
 23 24  2  0
 24  3  1  0
 24  7  1  0
 21 15  1  0
  1 25  1  0
  1 26  1  0
  1 27  1  0
  2 28  1  0
  2 29  1  0
  8 30  1  0
 14 31  1  0
 14 32  1  0
 16 33  1  0
 17 34  1  0
 19 35  1  0
 19 36  1  0
 19 37  1  0
 20 38  1  0
 21 39  1  0
 22 40  1  0
 23 41  1  0
M  CHG  2   6  -1  13  -1
M  END
>  <UniqueID>  (14) 
14

>  <SMILES>  (14) 
CCn1c(=S)[n-]c2cc(S(=O)(=O)[N-]Cc3ccc(C)cc3)ccc21

>  <Energy>  (14) 
70.95745557779284

>  <Genealogy>  (14) 
CCn1c(=S)[n-]c2cc(S(=O)(=O)[N-]Cc3ccc(C)cc3)ccc21 (protonated)
CCn1c(=S)[n-]c2cc(S(=O)(=O)[N-]Cc3ccc(C)cc3)ccc21 (3D coordinates assigned)
CCn1c(=S)[n-]c2cc(S(=O)(=O)[N-]Cc3ccc(C)cc3)ccc21 (optimized conformer: 70.95745557779284 kcal/mol)

>  <smiles>  (14) 
CCn1c(=S)[nH]c2cc(S(=O)(=O)NCc3ccc(C)cc3)ccc21

>  <score_type>  (14) 
oracle

>  <origin>  (14) 
adg

>  <m_score__min__energy>  (14) 
-10.77

>  <m_primary>  (14) 
energy

$$$$
14:0
     RDKit          3D

 36 38  0  0  0  0  0  0  0  0999 V2000
   55.9280   29.0680   52.2630 O   0  0  0  0  0  0  0  0  0  0  0  0
   55.0320   29.9550   52.2710 C   0  0  0  0  0  0  0  0  0  0  0  0
   53.6180   29.5710   52.5810 C   0  0  0  0  0  0  0  0  0  0  0  0
   52.6760   30.4050   51.7670 C   0  0  0  0  0  0  0  0  0  0  0  0
   52.3020   30.0100   50.4770 C   0  0  0  0  0  0  0  0  0  0  0  0
   51.4550   30.8430   49.7450 C   0  0  0  0  0  0  0  0  0  0  0  0
   51.0940   30.5180   48.5840 O   0  0  0  0  0  0  0  0  0  0  0  0
   51.0190   32.0110   50.2860 N   0  0  0  0  0  0  0  0  0  0  0  0
   51.4000   32.3850   51.5340 C   0  0  0  0  0  0  0  0  0  0  0  0
   50.9900   33.4720   52.0170 O   0  0  0  0  0  0  0  0  0  0  0  0
   52.2240   31.5880   52.2630 N   0  0  0  0  0  0  0  0  0  0  0  0
   55.3590   31.3270   51.9950 N   0  0  0  0  0  0  0  0  0  0  0  0
   56.6970   31.8500   52.0080 C   0  0  0  0  0  0  0  0  0  0  0  0
   57.3750   31.9700   53.2290 C   0  0  0  0  0  0  0  0  0  0  0  0
   58.6840   32.4550   53.2640 C   0  0  0  0  0  0  0  0  0  0  0  0
   59.3340   32.8100   52.0810 C   0  0  0  0  0  0  0  0  0  0  0  0
   58.6840   32.6740   50.8410 C   0  0  0  0  0  0  0  0  0  0  0  0
   59.3820   33.0310   49.5820 C   0  0  0  0  0  0  0  0  0  0  0  0
   60.1460   34.0340   49.5540 O   0  0  0  0  0  0  0  0  0  0  0  0
   59.1840   32.2330   48.4040 N   0  0  0  0  0  0  0  0  0  0  0  0
   58.5100   32.5800   47.3460 C   0  0  0  0  0  0  0  0  0  0  0  0
   58.4010   33.8710   46.8830 C   0  0  0  0  0  0  0  0  0  0  0  0
   57.6060   33.7380   45.7640 C   0  0  0  0  0  0  0  0  0  0  0  0
   57.2950   32.4680   45.6170 O   0  0  0  0  0  0  0  0  0  0  0  0
   57.8240   31.7360   46.5550 N   0  0  0  0  0  0  0  0  0  0  0  0
   57.3640   32.1850   50.8150 C   0  0  0  0  0  0  0  0  0  0  0  0
   53.4668   28.5085   52.3398 H   0  0  0  0  0  0  0  0  0  0  0  0
   53.4216   29.7397   53.6501 H   0  0  0  0  0  0  0  0  0  0  0  0
   52.6676   29.0644   50.0501 H   0  0  0  0  0  0  0  0  0  0  0  0
   54.5830   31.9660   51.7110 H   0  0  0  0  0  0  0  0  0  0  0  0
   56.8734   31.6807   54.1642 H   0  0  0  0  0  0  0  0  0  0  0  0
   59.2048   32.5576   54.2275 H   0  0  0  0  0  0  0  0  0  0  0  0
   60.3622   33.1990   52.1186 H   0  0  0  0  0  0  0  0  0  0  0  0
   58.8413   34.7872   47.3035 H   0  0  0  0  0  0  0  0  0  0  0  0
   57.2852   34.5575   45.1040 H   0  0  0  0  0  0  0  0  0  0  0  0
   56.8481   32.0634   49.8511 H   0  0  0  0  0  0  0  0  0  0  0  0
  1  2  2  0
  2  3  1  0
  3  4  1  0
  4  5  2  0
  5  6  1  0
  6  7  2  0
  6  8  1  0
  8  9  1  0
  9 10  2  0
  9 11  1  0
  2 12  1  0
 12 13  1  0
 13 14  2  0
 14 15  1  0
 15 16  2  0
 16 17  1  0
 17 18  1  0
 18 19  2  0
 18 20  1  0
 20 21  2  3
 21 22  1  0
 22 23  2  0
 23 24  1  0
 24 25  1  0
 17 26  2  0
 11  4  1  0
 26 13  1  0
 25 21  1  0
  3 27  1  0
  3 28  1  0
  5 29  1  0
 12 30  1  0
 14 31  1  0
 15 32  1  0
 16 33  1  0
 22 34  1  0
 23 35  1  0
 26 36  1  0
M  CHG  3   8  -1  11  -1  25  -1
M  END
>  <UniqueID>  (15) 
15

>  <SMILES>  (15) 
O=C(Cc1cc(=O)[n-]c(=O)[n-]1)Nc1cccc(C(=O)N=c2cco[n-]2)c1

>  <Energy>  (15) 
74.39815666696401

>  <Genealogy>  (15) 
O=C(Cc1cc(=O)[n-]c(=O)[n-]1)Nc1cccc(C(=O)N=c2cco[n-]2)c1 (protonated)
O=C(Cc1cc(=O)[n-]c(=O)[n-]1)Nc1cccc(C(=O)N=c2cco[n-]2)c1 (3D coordinates assigned)
O=C(Cc1cc(=O)[n-]c(=O)[n-]1)Nc1cccc(C(=O)N=c2cco[n-]2)c1 (optimized conformer: 74.39815666696401 kcal/mol)

>  <smiles>  (15) 
O=C(Cc1cc(=O)[nH]c(=O)[nH]1)Nc1cccc(C(=O)N=c2cco[nH]2)c1

>  <score_type>  (15) 
oracle

>  <origin>  (15) 
adg

>  <m_score__min__energy>  (15) 
-14.199999999999999

>  <m_primary>  (15) 
energy

$$$$
15:0
     RDKit          3D

 65 70  0  0  0  0  0  0  0  0999 V2000
   57.3840   24.2270   48.9080 O   0  0  0  0  0  0  0  0  0  0  0  0
   56.5950   23.6620   48.1020 C   0  0  0  0  0  0  0  0  0  0  0  0
   55.9580   22.4180   48.4350 N   0  0  0  0  0  0  0  0  0  0  0  0
   55.0020   22.1820   49.2930 C   0  0  0  0  0  0  0  0  0  0  0  0
   53.6700   22.6160   49.1160 C   0  0  0  0  0  0  0  0  0  0  0  0
   52.7150   22.3250   50.0940 C   0  0  0  0  0  0  0  0  0  0  0  0
   53.0610   21.6120   51.1970 N   0  0  0  0  0  0  0  0  0  0  0  0
   54.3280   21.1610   51.3850 C   0  0  0  0  0  0  0  0  0  0  0  0
   55.3160   21.4320   50.4350 C   0  0  0  0  0  0  0  0  0  0  0  0
   56.3430   24.2700   46.7480 C   0  0  1  0  0  0  0  0  0  0  0  0
   57.6970   24.5930   46.0460 C   0  0  2  0  0  0  0  0  0  0  0  0
   57.6440   25.9540   45.4020 C   0  0  0  0  0  0  0  0  0  0  0  0
   58.7260   26.6330   44.8690 C   0  0  0  0  0  0  0  0  0  0  0  0
   58.2810   27.9120   44.6000 C   0  0  0  0  0  0  0  0  0  0  0  0
   59.0860   28.9190   44.0700 O   0  0  0  0  0  0  0  0  0  0  0  0
   56.9810   28.0550   44.9410 N   0  0  0  0  0  0  0  0  0  0  0  0
   56.1660   29.2700   44.9180 C   0  0  0  0  0  0  0  0  0  0  0  0
   57.0470   30.4890   44.9150 C   0  0  0  0  0  0  0  0  0  0  0  0
   57.1450   31.2890   43.7630 C   0  0  0  0  0  0  0  0  0  0  0  0
   57.9760   32.4120   43.7540 C   0  0  0  0  0  0  0  0  0  0  0  0
   58.7220   32.7400   44.8860 C   0  0  0  0  0  0  0  0  0  0  0  0
   58.6130   31.9660   46.0480 C   0  0  0  0  0  0  0  0  0  0  0  0
   59.3860   32.2880   47.1670 O   0  0  0  0  0  0  0  0  0  0  0  0
   60.7750   32.4920   47.1230 C   0  0  0  0  0  0  0  0  0  0  0  0
   61.6200   31.4420   47.5030 C   0  0  0  0  0  0  0  0  0  0  0  0
   63.0100   31.5890   47.4390 C   0  0  0  0  0  0  0  0  0  0  0  0
   63.5650   32.7880   46.9900 C   0  0  0  0  0  0  0  0  0  0  0  0
   62.7310   33.8440   46.6120 C   0  0  0  0  0  0  0  0  0  0  0  0
   61.3410   33.7030   46.6810 C   0  0  0  0  0  0  0  0  0  0  0  0
   57.7650   30.8500   46.0670 C   0  0  0  0  0  0  0  0  0  0  0  0
   56.6020   26.8640   45.4460 C   0  0  0  0  0  0  0  0  0  0  0  0
   55.3380   26.6160   45.9670 O   0  0  0  0  0  0  0  0  0  0  0  0
   57.8430   23.5840   45.0540 O   0  0  0  0  0  0  0  0  0  0  0  0
   56.6680   22.8760   44.9460 C   0  0  0  0  0  0  0  0  0  0  0  0
   56.5060   21.9220   44.1400 O   0  0  0  0  0  0  0  0  0  0  0  0
   55.6770   23.3070   45.8650 N   0  0  0  0  0  0  0  0  0  0  0  0
   54.2590   23.3160   45.5990 C   0  0  0  0  0  0  0  0  0  0  0  0
   53.6240   24.4670   45.1020 C   0  0  0  0  0  0  0  0  0  0  0  0
   52.2470   24.4730   44.8800 C   0  0  0  0  0  0  0  0  0  0  0  0
   51.5050   23.3240   45.1600 C   0  0  0  0  0  0  0  0  0  0  0  0
   52.1250   22.2200   45.6450 N   0  0  0  0  0  0  0  0  0  0  0  0
   53.4660   22.1860   45.8720 C   0  0  0  0  0  0  0  0  0  0  0  0
   54.0220   21.0480   46.3450 F   0  0  0  0  0  0  0  0  0  0  0  0
   53.3860   23.1791   48.2147 H   0  0  0  0  0  0  0  0  0  0  0  0
   51.6794   22.6747   49.9700 H   0  0  0  0  0  0  0  0  0  0  0  0
   54.5768   20.5816   52.2863 H   0  0  0  0  0  0  0  0  0  0  0  0
   56.3395   21.0571   50.5830 H   0  0  0  0  0  0  0  0  0  0  0  0
   55.7301   25.1691   46.9092 H   0  0  0  0  0  0  0  0  0  0  0  0
   58.5384   24.6068   46.7545 H   0  0  0  0  0  0  0  0  0  0  0  0
   59.7363   26.2342   44.6949 H   0  0  0  0  0  0  0  0  0  0  0  0
   58.8300   29.4340   43.2390 H   0  0  0  0  0  0  0  0  0  0  0  0
   55.5417   29.2712   44.0123 H   0  0  0  0  0  0  0  0  0  0  0  0
   55.5290   29.2908   45.8146 H   0  0  0  0  0  0  0  0  0  0  0  0
   56.5650   31.0296   42.8651 H   0  0  0  0  0  0  0  0  0  0  0  0
   58.0421   33.0388   42.8524 H   0  0  0  0  0  0  0  0  0  0  0  0
   59.3972   33.6082   44.8660 H   0  0  0  0  0  0  0  0  0  0  0  0
   61.1874   30.4938   47.8547 H   0  0  0  0  0  0  0  0  0  0  0  0
   63.6653   30.7593   47.7427 H   0  0  0  0  0  0  0  0  0  0  0  0
   64.6576   32.9019   46.9336 H   0  0  0  0  0  0  0  0  0  0  0  0
   63.1692   34.7892   46.2590 H   0  0  0  0  0  0  0  0  0  0  0  0
   60.6891   34.5397   46.3894 H   0  0  0  0  0  0  0  0  0  0  0  0
   57.6616   30.2553   46.9866 H   0  0  0  0  0  0  0  0  0  0  0  0
   54.2164   25.3685   44.8868 H   0  0  0  0  0  0  0  0  0  0  0  0
   51.7510   25.3734   44.4885 H   0  0  0  0  0  0  0  0  0  0  0  0
   50.4187   23.3144   44.9873 H   0  0  0  0  0  0  0  0  0  0  0  0
  1  2  2  0
  2  3  1  0
  3  4  2  3
  4  5  1  0
  5  6  2  0
  6  7  1  0
  7  8  1  0
  8  9  2  0
  2 10  1  0
 10 11  1  0
 11 12  1  0
 12 13  1  0
 13 14  2  0
 14 15  1  0
 14 16  1  0
 16 17  1  0
 17 18  1  0
 18 19  2  0
 19 20  1  0
 20 21  2  0
 21 22  1  0
 22 23  1  0
 23 24  1  0
 24 25  2  0
 25 26  1  0
 26 27  2  0
 27 28  1  0
 28 29  2  0
 22 30  2  0
 16 31  1  0
 31 32  1  0
 11 33  1  0
 33 34  1  0
 34 35  2  0
 34 36  1  0
 36 37  1  0
 37 38  2  0
 38 39  1  0
 39 40  2  0
 40 41  1  0
 41 42  2  0
 42 43  1  0
  9  4  1  0
 36 10  1  0
 42 37  1  0
 31 12  2  0
 30 18  1  0
 29 24  1  0
  5 44  1  0
  6 45  1  0
  8 46  1  0
  9 47  1  0
 10 48  1  1
 11 49  1  1
 13 50  1  0
 15 51  1  0
 17 52  1  0
 17 53  1  0
 19 54  1  0
 20 55  1  0
 21 56  1  0
 25 57  1  0
 26 58  1  0
 27 59  1  0
 28 60  1  0
 29 61  1  0
 30 62  1  0
 38 63  1  0
 39 64  1  0
 40 65  1  0
M  CHG  2   7  -1  32  -1
M  END
>  <UniqueID>  (16) 
16

>  <SMILES>  (16) 
O=C(N=c1cc[n-]cc1)[C@H]1[C@H](c2cc(O)n(Cc3cccc(Oc4ccccc4)c3)c2[O-])OC(=O)N1c1cccnc1F

>  <Energy>  (16) 
138.04873682859534

>  <Genealogy>  (16) 
O=C(N=c1cc[n-]cc1)C1C(c2cc(O)n(Cc3cccc(Oc4ccccc4)c3)c2[O-])OC(=O)N1c1cccnc1F (protonated)
O=C(N=c1cc[n-]cc1)[C@H]1[C@H](c2cc(O)n(Cc3cccc(Oc4ccccc4)c3)c2[O-])OC(=O)N1c1cccnc1F (chirality)
O=C(N=c1cc[n-]cc1)[C@H]1[C@H](c2cc(O)n(Cc3cccc(Oc4ccccc4)c3)c2[O-])OC(=O)N1c1cccnc1F (3D coordinates assigned)
O=C(N=c1cc[n-]cc1)[C@H]1[C@H](c2cc(O)n(Cc3cccc(Oc4ccccc4)c3)c2[O-])OC(=O)N1c1cccnc1F (nonaromatic ring conformer: 138.04873682859534 kcal/mol)

>  <smiles>  (16) 
O=C(N=c1cc[nH]cc1)C1C(c2cc(O)n(Cc3cccc(Oc4ccccc4)c3)c2O)OC(=O)N1c1cccnc1F

>  <score_type>  (16) 
oracle

>  <origin>  (16) 
adg

>  <m_score__min__energy>  (16) 
-11.82

>  <m_primary>  (16) 
energy

$$$$
16:0
     RDKit          3D

 60 63  0  0  0  0  0  0  0  0999 V2000
   65.9990   32.7780   50.4980 C   0  0  0  0  0  0  0  0  0  0  0  0
   64.7430   33.1480   49.8570 N   0  0  0  0  0  0  0  0  0  0  0  0
   63.6600   33.6590   50.4710 C   0  0  0  0  0  0  0  0  0  0  0  0
   62.7000   33.9290   49.5140 C   0  0  0  0  0  0  0  0  0  0  0  0
   63.2890   33.5710   48.3110 C   0  0  0  0  0  0  0  0  0  0  0  0
   62.6470   33.6380   46.9840 C   0  0  0  0  0  0  0  0  0  0  0  0
   63.3300   34.0310   45.9990 O   0  0  0  0  0  0  0  0  0  0  0  0
   61.2670   33.2760   46.7890 N   0  0  0  0  0  0  0  0  0  0  0  0
   60.4800   34.0040   45.7820 C   0  0  0  0  0  0  0  0  0  0  0  0
   59.0080   33.5750   45.7940 C   0  0  0  0  0  0  0  0  0  0  0  0
   58.8950   32.1110   45.7800 N   0  0  0  0  0  0  0  0  0  0  0  0
   57.7080   31.5050   45.2330 C   0  0  0  0  0  0  0  0  0  0  0  0
   56.6220   32.1460   45.2410 O   0  0  0  0  0  0  0  0  0  0  0  0
   57.7280   30.1380   44.6690 C   0  0  0  0  0  0  0  0  0  0  0  0
   58.4260   29.1030   45.3080 C   0  0  0  0  0  0  0  0  0  0  0  0
   58.4420   27.8220   44.7520 C   0  0  0  0  0  0  0  0  0  0  0  0
   57.7710   27.5900   43.5490 C   0  0  0  0  0  0  0  0  0  0  0  0
   57.7720   25.9540   42.8140 S   0  0  0  0  0  0  0  0  0  0  0  0
   57.1160   25.1000   44.2930 C   0  0  0  0  0  0  0  0  0  0  0  0
   58.2030   24.3800   45.1180 C   0  0  0  0  0  0  0  0  0  0  0  0
   58.0220   22.9160   45.2500 N   0  0  0  0  0  0  0  0  0  0  0  0
   56.7660   22.4760   45.8900 C   0  0  0  0  0  0  0  0  0  0  0  0
   55.6810   22.0610   44.8700 C   0  0  0  0  0  0  0  0  0  0  0  0
   56.1250   22.1440   43.5310 O   0  0  0  0  0  0  0  0  0  0  0  0
   57.3140   21.4010   43.3840 C   0  0  0  0  0  0  0  0  0  0  0  0
   58.4770   22.0970   44.1080 C   0  0  0  0  0  0  0  0  0  0  0  0
   57.1040   28.6050   42.9380 N   0  0  0  0  0  0  0  0  0  0  0  0
   57.0750   29.8610   43.4590 C   0  0  0  0  0  0  0  0  0  0  0  0
   59.8360   31.2890   46.5620 C   0  0  0  0  0  0  0  0  0  0  0  0
   60.6700   32.1470   47.5160 C   0  0  0  0  0  0  0  0  0  0  0  0
   64.5280   33.0990   48.5530 N   0  0  0  0  0  0  0  0  0  0  0  0
   65.8775   32.8138   51.5907 H   0  0  0  0  0  0  0  0  0  0  0  0
   66.2798   31.7590   50.1935 H   0  0  0  0  0  0  0  0  0  0  0  0
   66.7874   33.4821   50.1935 H   0  0  0  0  0  0  0  0  0  0  0  0
   63.5563   33.8326   51.5523 H   0  0  0  0  0  0  0  0  0  0  0  0
   61.6911   34.3378   49.6720 H   0  0  0  0  0  0  0  0  0  0  0  0
   60.5390   35.0817   45.9943 H   0  0  0  0  0  0  0  0  0  0  0  0
   60.8960   33.7743   44.7899 H   0  0  0  0  0  0  0  0  0  0  0  0
   58.5251   33.9660   46.7017 H   0  0  0  0  0  0  0  0  0  0  0  0
   58.5147   33.9768   44.8967 H   0  0  0  0  0  0  0  0  0  0  0  0
   58.9616   29.3004   46.2483 H   0  0  0  0  0  0  0  0  0  0  0  0
   58.9775   27.0041   45.2562 H   0  0  0  0  0  0  0  0  0  0  0  0
   56.6259   25.8450   44.9370 H   0  0  0  0  0  0  0  0  0  0  0  0
   56.4144   24.3304   43.9388 H   0  0  0  0  0  0  0  0  0  0  0  0
   59.1743   24.5615   44.6347 H   0  0  0  0  0  0  0  0  0  0  0  0
   58.1382   24.7907   46.1364 H   0  0  0  0  0  0  0  0  0  0  0  0
   56.9858   21.6146   46.5378 H   0  0  0  0  0  0  0  0  0  0  0  0
   56.3714   23.3293   46.4610 H   0  0  0  0  0  0  0  0  0  0  0  0
   55.3831   21.0226   45.0773 H   0  0  0  0  0  0  0  0  0  0  0  0
   54.8380   22.7587   44.9823 H   0  0  0  0  0  0  0  0  0  0  0  0
   57.1694   20.3982   43.8122 H   0  0  0  0  0  0  0  0  0  0  0  0
   57.5559   21.3252   42.3136 H   0  0  0  0  0  0  0  0  0  0  0  0
   59.1719   21.3292   44.4790 H   0  0  0  0  0  0  0  0  0  0  0  0
   58.9654   22.7695   43.3874 H   0  0  0  0  0  0  0  0  0  0  0  0
   56.5378   30.6619   42.9299 H   0  0  0  0  0  0  0  0  0  0  0  0
   59.2661   30.5532   47.1484 H   0  0  0  0  0  0  0  0  0  0  0  0
   60.5198   30.7864   45.8621 H   0  0  0  0  0  0  0  0  0  0  0  0
   60.0236   32.5320   48.3184 H   0  0  0  0  0  0  0  0  0  0  0  0
   61.4732   31.5304   47.9457 H   0  0  0  0  0  0  0  0  0  0  0  0
   65.2060   32.7220   47.8550 H   0  0  0  0  0  0  0  0  0  0  0  0
  1  2  1  0
  2  3  1  0
  3  4  2  0
  4  5  1  0
  5  6  1  0
  6  7  2  0
  6  8  1  0
  8  9  1  0
  9 10  1  0
 10 11  1  0
 11 12  1  0
 12 13  2  0
 12 14  1  0
 14 15  2  0
 15 16  1  0
 16 17  2  0
 17 18  1  0
 18 19  1  0
 19 20  1  0
 20 21  1  0
 21 22  1  0
 22 23  1  0
 23 24  1  0
 24 25  1  0
 25 26  1  0
 17 27  1  0
 27 28  2  0
 11 29  1  0
 29 30  1  0
  5 31  2  0
 31  2  1  0
 30  8  1  0
 28 14  1  0
 26 21  1  0
  1 32  1  0
  1 33  1  0
  1 34  1  0
  3 35  1  0
  4 36  1  0
  9 37  1  0
  9 38  1  0
 10 39  1  0
 10 40  1  0
 15 41  1  0
 16 42  1  0
 19 43  1  0
 19 44  1  0
 20 45  1  0
 20 46  1  0
 22 47  1  0
 22 48  1  0
 23 49  1  0
 23 50  1  0
 25 51  1  0
 25 52  1  0
 26 53  1  0
 26 54  1  0
 28 55  1  0
 29 56  1  0
 29 57  1  0
 30 58  1  0
 30 59  1  0
 31 60  1  0
M  CHG  1  31   1
M  END
>  <UniqueID>  (17) 
17

>  <SMILES>  (17) 
Cn1ccc(C(=O)N2CCN(C(=O)c3ccc(SCCN4CCOCC4)nc3)CC2)[nH+]1

>  <Energy>  (17) 
112.70176398279699

>  <Genealogy>  (17) 
Cn1ccc(C(=O)N2CCN(C(=O)c3ccc(SCCN4CCOCC4)nc3)CC2)[nH+]1 (protonated)
Cn1ccc(C(=O)N2CCN(C(=O)c3ccc(SCCN4CCOCC4)nc3)CC2)[nH+]1 (3D coordinates assigned)
Cn1ccc(C(=O)N2CCN(C(=O)c3ccc(SCCN4CCOCC4)nc3)CC2)[nH+]1 (nonaromatic ring conformer: 112.70176398279699 kcal/mol)

>  <smiles>  (17) 
Cn1ccc(C(=O)N2CCN(C(=O)c3ccc(SCCN4CCOCC4)nc3)CC2)n1

>  <score_type>  (17) 
oracle

>  <origin>  (17) 
adg

>  <m_score__min__energy>  (17) 
-8.2100000000000009

>  <m_primary>  (17) 
energy

$$$$
17:0
     RDKit          3D

 59 63  0  0  0  0  0  0  0  0999 V2000
   56.9640   31.0930   52.0040 C   0  0  0  0  0  0  0  0  0  0  0  0
   57.4420   30.0810   51.1240 O   0  0  0  0  0  0  0  0  0  0  0  0
   58.5710   30.2160   50.2990 C   0  0  0  0  0  0  0  0  0  0  0  0
   58.8750   29.2920   49.2800 C   0  0  0  0  0  0  0  0  0  0  0  0
   60.0140   29.4670   48.4900 C   0  0  0  0  0  0  0  0  0  0  0  0
   60.8550   30.5600   48.7050 C   0  0  0  0  0  0  0  0  0  0  0  0
   60.5580   31.4980   49.6980 C   0  0  0  0  0  0  0  0  0  0  0  0
   61.4560   32.5990   49.8890 N   0  0  0  0  0  0  0  0  0  0  0  0
   61.9260   33.5100   48.8890 C   0  0  0  0  0  0  0  0  0  0  0  0
   63.0990   33.3690   48.4520 O   0  0  0  0  0  0  0  0  0  0  0  0
   61.0430   34.4850   48.3140 N   0  0  0  0  0  0  0  0  0  0  0  0
   60.1950   34.3240   47.1660 C   0  0  0  0  0  0  0  0  0  0  0  0
   60.0170   35.4190   46.3130 C   0  0  0  0  0  0  0  0  0  0  0  0
   59.2080   35.3100   45.1830 C   0  0  0  0  0  0  0  0  0  0  0  0
   58.5650   34.1050   44.8910 C   0  0  0  0  0  0  0  0  0  0  0  0
   58.7410   32.9860   45.7210 C   0  0  0  0  0  0  0  0  0  0  0  0
   58.0370   31.7120   45.4290 C   0  0  0  0  0  0  0  0  0  0  0  0
   56.8220   31.6690   45.0010 N   0  0  0  0  0  0  0  0  0  0  0  0
   56.4470   30.3700   44.7770 O   0  0  0  0  0  0  0  0  0  0  0  0
   57.5000   29.4490   45.0170 C   0  0  2  0  0  0  0  0  0  0  0  0
   58.6380   30.3470   45.5670 C   0  0  0  0  0  0  0  0  0  0  0  0
   57.8940   28.7200   43.7220 C   0  0  0  0  0  0  0  0  0  0  0  0
   58.3290   27.3220   44.1750 C   0  0  2  0  0  0  0  0  0  0  0  0
   57.8900   26.2620   43.2020 C   0  0  0  0  0  0  0  0  0  0  0  0
   57.1690   25.1190   43.6570 N   0  0  0  0  0  0  0  0  0  0  0  0
   58.1440   26.3940   41.9750 O   0  0  0  0  0  0  0  0  0  0  0  0
   57.7180   27.1360   45.4820 N   0  0  0  0  0  0  0  0  0  0  0  0
   57.9090   25.9570   46.2790 C   0  0  0  0  0  0  0  0  0  0  0  0
   59.0120   25.7710   46.8570 O   0  0  0  0  0  0  0  0  0  0  0  0
   56.8290   24.9740   46.4550 C   0  0  0  0  0  0  0  0  0  0  0  0
   56.9960   23.6500   46.8210 C   0  0  0  0  0  0  0  0  0  0  0  0
   55.7400   23.0880   46.8160 C   0  0  0  0  0  0  0  0  0  0  0  0
   54.8830   24.0980   46.4410 C   0  0  0  0  0  0  0  0  0  0  0  0
   53.5090   23.9570   46.3030 O   0  0  0  0  0  0  0  0  0  0  0  0
   55.5320   25.2530   46.2120 N   0  0  0  0  0  0  0  0  0  0  0  0
   57.0690   28.3370   45.9820 C   0  0  0  0  0  0  0  0  0  0  0  0
   59.5770   33.0990   46.8490 C   0  0  0  0  0  0  0  0  0  0  0  0
   59.4210   31.3110   50.5050 C   0  0  0  0  0  0  0  0  0  0  0  0
   57.1147   30.7740   53.0459 H   0  0  0  0  0  0  0  0  0  0  0  0
   57.5161   32.0270   51.8230 H   0  0  0  0  0  0  0  0  0  0  0  0
   55.8919   31.2599   51.8230 H   0  0  0  0  0  0  0  0  0  0  0  0
   58.2138   28.4303   49.1058 H   0  0  0  0  0  0  0  0  0  0  0  0
   60.2485   28.7418   47.6968 H   0  0  0  0  0  0  0  0  0  0  0  0
   61.7577   30.6841   48.0888 H   0  0  0  0  0  0  0  0  0  0  0  0
   60.5188   36.3722   46.5357 H   0  0  0  0  0  0  0  0  0  0  0  0
   59.0755   36.1766   44.5186 H   0  0  0  0  0  0  0  0  0  0  0  0
   57.9167   34.0320   44.0054 H   0  0  0  0  0  0  0  0  0  0  0  0
   58.8629   30.1117   46.6177 H   0  0  0  0  0  0  0  0  0  0  0  0
   59.5975   30.2251   45.0430 H   0  0  0  0  0  0  0  0  0  0  0  0
   57.0355   28.6556   43.0373 H   0  0  0  0  0  0  0  0  0  0  0  0
   58.6912   29.2458   43.1762 H   0  0  0  0  0  0  0  0  0  0  0  0
   59.4244   27.2343   44.2233 H   0  0  0  0  0  0  0  0  0  0  0  0
   56.2620   25.2200   44.1640 H   0  0  0  0  0  0  0  0  0  0  0  0
   57.9431   23.1474   47.0667 H   0  0  0  0  0  0  0  0  0  0  0  0
   55.4758   22.0486   47.0606 H   0  0  0  0  0  0  0  0  0  0  0  0
   55.9754   28.2186   45.9725 H   0  0  0  0  0  0  0  0  0  0  0  0
   57.3516   28.5583   47.0218 H   0  0  0  0  0  0  0  0  0  0  0  0
   59.7489   32.2211   47.4890 H   0  0  0  0  0  0  0  0  0  0  0  0
   59.1969   32.0313   51.3056 H   0  0  0  0  0  0  0  0  0  0  0  0
  1  2  1  0
  2  3  1  0
  3  4  2  0
  4  5  1  0
  5  6  2  0
  6  7  1  0
  7  8  1  0
  8  9  1  0
  9 10  2  0
  9 11  1  0
 11 12  1  0
 12 13  2  0
 13 14  1  0
 14 15  2  0
 15 16  1  0
 16 17  1  0
 17 18  2  0
 18 19  1  0
 20 19  1  6
 20 21  1  0
 20 22  1  0
 22 23  1  0
 23 24  1  0
 24 25  1  0
 24 26  2  0
 23 27  1  0
 27 28  1  0
 28 29  2  0
 28 30  1  0
 30 31  2  0
 31 32  1  0
 32 33  2  0
 33 34  1  0
 33 35  1  0
 27 36  1  0
 16 37  2  0
  7 38  2  0
 38  3  1  0
 37 12  1  0
 21 17  1  0
 35 30  1  0
 36 20  1  0
  1 39  1  0
  1 40  1  0
  1 41  1  0
  4 42  1  0
  5 43  1  0
  6 44  1  0
 13 45  1  0
 14 46  1  0
 15 47  1  0
 21 48  1  0
 21 49  1  0
 22 50  1  0
 22 51  1  0
 23 52  1  1
 25 53  1  0
 31 54  1  0
 32 55  1  0
 36 56  1  0
 36 57  1  0
 37 58  1  0
 38 59  1  0
M  CHG  5   8  -1  11  -1  25  -1  34  -1  35  -1
M  END
>  <UniqueID>  (18) 
18

>  <SMILES>  (18) 
COc1cccc([N-]C(=O)[N-]c2cccc(C3=NO[C@]4(C3)C[C@H](C([NH-])=O)N(C(=O)c3ccc([O-])[n-]3)C4)c2)c1

>  <Energy>  (18) 
117.95638655117304

>  <Genealogy>  (18) 
COc1cccc([N-]C(=O)[N-]c2cccc(C3=NOC4(C3)CC(C([NH-])=O)N(C(=O)c3ccc([O-])[n-]3)C4)c2)c1 (protonated)
COc1cccc([N-]C(=O)[N-]c2cccc(C3=NO[C@]4(C3)C[C@H](C([NH-])=O)N(C(=O)c3ccc([O-])[n-]3)C4)c2)c1 (chirality)
COc1cccc([N-]C(=O)[N-]c2cccc(C3=NO[C@]4(C3)C[C@H](C([NH-])=O)N(C(=O)c3ccc([O-])[n-]3)C4)c2)c1 (3D coordinates assigned)
COc1cccc([N-]C(=O)[N-]c2cccc(C3=NO[C@]4(C3)C[C@H](C([NH-])=O)N(C(=O)c3ccc([O-])[n-]3)C4)c2)c1 (nonaromatic ring conformer: 117.95638655117304 kcal/mol)

>  <smiles>  (18) 
COc1cccc(NC(=O)Nc2cccc(C3=NOC4(C3)CC(C(N)=O)N(C(=O)c3ccc(O)[nH]3)C4)c2)c1

>  <score_type>  (18) 
oracle

>  <origin>  (18) 
adg

>  <m_score__min__energy>  (18) 
-16.41

>  <m_primary>  (18) 
energy

$$$$
18:0
     RDKit          3D

 32 34  0  0  0  0  0  0  0  0999 V2000
   50.5630   33.8000   51.6210 H   0  0  0  0  0  0  0  0  0  0  0  0
   50.9610   33.0970   52.2340 O   0  0  0  0  0  0  0  0  0  0  0  0
   51.5810   31.9560   51.7290 C   0  0  0  0  0  0  0  0  0  0  0  0
   52.4120   31.1780   52.5490 C   0  0  0  0  0  0  0  0  0  0  0  0
   52.5876   31.4777   53.5927 H   0  0  0  0  0  0  0  0  0  0  0  0
   53.0200   30.0190   52.0430 C   0  0  0  0  0  0  0  0  0  0  0  0
   53.9320   29.2440   52.9040 C   0  0  0  0  0  0  0  0  0  0  0  0
   53.5105   28.3897   53.4540 H   0  0  0  0  0  0  0  0  0  0  0  0
   55.2380   29.5040   53.0660 C   0  0  0  0  0  0  0  0  0  0  0  0
   56.2640   28.4540   54.1010 S   0  0  0  0  0  0  0  0  0  0  0  0
   57.6980   29.3990   53.5730 C   0  0  0  0  0  0  0  0  0  0  0  0
   59.1740   28.6900   53.5770 S   0  0  0  0  0  0  0  0  0  0  0  0
   57.4070   30.5120   52.7220 N   0  0  0  0  0  0  0  0  0  0  0  0
   58.3820   31.4540   52.2390 C   0  0  0  0  0  0  0  0  0  0  0  0
   58.5270   32.7110   52.8530 C   0  0  0  0  0  0  0  0  0  0  0  0
   57.8919   32.9784   53.7104 H   0  0  0  0  0  0  0  0  0  0  0  0
   59.4750   33.6220   52.3780 C   0  0  0  0  0  0  0  0  0  0  0  0
   59.5840   34.6033   52.8630 H   0  0  0  0  0  0  0  0  0  0  0  0
   60.2850   33.2890   51.2880 C   0  0  0  0  0  0  0  0  0  0  0  0
   61.2270   34.1960   50.8180 O   0  0  0  0  0  0  0  0  0  0  0  0
   60.1450   32.0420   50.6710 C   0  0  0  0  0  0  0  0  0  0  0  0
   60.7811   31.7793   49.8129 H   0  0  0  0  0  0  0  0  0  0  0  0
   59.1980   31.1290   51.1430 C   0  0  0  0  0  0  0  0  0  0  0  0
   59.0911   30.1499   50.6532 H   0  0  0  0  0  0  0  0  0  0  0  0
   56.0180   30.5650   52.4220 C   0  0  0  0  0  0  0  0  0  0  0  0
   55.5290   31.4350   51.6520 O   0  0  0  0  0  0  0  0  0  0  0  0
   52.8320   29.6710   50.6950 C   0  0  0  0  0  0  0  0  0  0  0  0
   53.3383   28.7867   50.2808 H   0  0  0  0  0  0  0  0  0  0  0  0
   52.0030   30.4460   49.8790 C   0  0  0  0  0  0  0  0  0  0  0  0
   51.8434   30.1593   48.8291 H   0  0  0  0  0  0  0  0  0  0  0  0
   51.3760   31.5850   50.3940 C   0  0  0  0  0  0  0  0  0  0  0  0
   50.5510   32.3490   49.5760 O   0  0  0  0  0  0  0  0  0  0  0  0
  1  2  1  0
  2  3  1  0
  3  4  2  0
  4  5  1  0
  4  6  1  0
  6  7  1  0
  7  8  1  0
  7  9  2  0
  9 10  1  0
 10 11  1  0
 11 12  2  0
 11 13  1  0
 13 14  1  0
 14 15  2  0
 15 16  1  0
 15 17  1  0
 17 18  1  0
 17 19  2  0
 19 20  1  0
 19 21  1  0
 21 22  1  0
 21 23  2  0
 23 24  1  0
 13 25  1  0
 25 26  2  0
  6 27  2  0
 27 28  1  0
 27 29  1  0
 29 30  1  0
 29 31  2  0
 31 32  1  0
 31  3  1  0
 25  9  1  0
 23 14  1  0
M  CHG  2  20  -1  32  -1
M  END
>  <UniqueID>  (19) 
19

>  <SMILES>  (19) 
O=C1/C(=C\c2ccc([O-])c(O)c2)SC(=S)N1c1ccc([O-])cc1

>  <Energy>  (19) 
67.71682955882864

>  <Genealogy>  (19) 
O=C1C(=Cc2ccc([O-])c(O)c2)SC(=S)N1c1ccc([O-])cc1 (protonated)
O=C1/C(=C\c2ccc([O-])c(O)c2)SC(=S)N1c1ccc([O-])cc1 (cis-trans isomerization)
O=C1/C(=C\c2ccc([O-])c(O)c2)SC(=S)N1c1ccc([O-])cc1 (3D coordinates assigned)
O=C1/C(=C\c2ccc([O-])c(O)c2)SC(=S)N1c1ccc([O-])cc1 (nonaromatic ring conformer: 67.71682955882864 kcal/mol)

>  <smiles>  (19) 
O=C1C(=Cc2ccc(O)c(O)c2)SC(=S)N1c1ccc(O)cc1

>  <score_type>  (19) 
oracle

>  <origin>  (19) 
adg

>  <m_score__min__energy>  (19) 
-12.02

>  <m_primary>  (19) 
energy

$$$$
19:0
     RDKit          3D

 62 65  0  0  0  0  0  0  0  0999 V2000
   58.1440   27.0710   43.4090 C   0  0  0  0  0  0  0  0  0  0  0  0
   58.3170   28.1760   44.3490 N   0  0  0  0  0  0  0  0  0  0  0  0
   58.0130   29.4620   44.0820 C   0  0  0  0  0  0  0  0  0  0  0  0
   58.3520   30.2620   45.1620 C   0  0  0  0  0  0  0  0  0  0  0  0
   58.2040   31.7340   45.2690 C   0  0  0  0  0  0  0  0  0  0  0  0
   57.7900   32.3140   46.4040 C   0  0  0  0  0  0  0  0  0  0  0  0
   57.5660   33.7990   46.4400 C   0  0  0  0  0  0  0  0  0  0  0  0
   58.6340   34.5440   45.7300 N   0  0  0  0  0  0  0  0  0  0  0  0
   59.6250   35.1770   46.6280 C   0  0  0  0  0  0  0  0  0  0  0  0
   60.8280   34.2990   46.9080 C   0  0  0  0  0  0  0  0  0  0  0  0
   61.9360   34.5740   46.3710 O   0  0  0  0  0  0  0  0  0  0  0  0
   60.7390   33.1750   47.8070 N   0  0  0  0  0  0  0  0  0  0  0  0
   59.7220   33.1260   48.8640 C   0  0  0  0  0  0  0  0  0  0  0  0
   60.2070   32.2570   50.0330 C   0  0  0  0  0  0  0  0  0  0  0  0
   60.6320   30.8980   49.6180 N   0  0  0  0  0  0  0  0  0  0  0  0
   59.4080   29.7070   49.9820 S   0  0  0  0  0  0  0  0  0  0  0  0
   60.0700   28.3870   50.2590 O   0  0  0  0  0  0  0  0  0  0  0  0
   58.5050   29.5330   48.7950 O   0  0  0  0  0  0  0  0  0  0  0  0
   58.4440   30.1770   51.3850 C   0  0  0  0  0  0  0  0  0  0  0  0
   57.4440   31.1520   51.2610 C   0  0  0  0  0  0  0  0  0  0  0  0
   56.6640   31.5060   52.3660 C   0  0  0  0  0  0  0  0  0  0  0  0
   56.8800   30.8900   53.6000 C   0  0  0  0  0  0  0  0  0  0  0  0
   57.8800   29.9240   53.7320 C   0  0  0  0  0  0  0  0  0  0  0  0
   58.6620   29.5690   52.6290 C   0  0  0  0  0  0  0  0  0  0  0  0
   61.0700   30.7790   48.2100 C   0  0  0  0  0  0  0  0  0  0  0  0
   61.7010   32.0730   47.6890 C   0  0  0  0  0  0  0  0  0  0  0  0
   59.2420   33.8800   44.5460 C   0  0  0  0  0  0  0  0  0  0  0  0
   58.4750   32.6280   44.0880 C   0  0  0  0  0  0  0  0  0  0  0  0
   58.8820   29.4190   46.1250 C   0  0  0  0  0  0  0  0  0  0  0  0
   58.8300   28.1390   45.6030 C   0  0  0  0  0  0  0  0  0  0  0  0
   59.3160   26.9380   46.3130 C   0  0  0  0  0  0  0  0  0  0  0  0
   59.5190   26.9360   47.7260 N   0  0  0  0  0  0  0  0  0  0  0  0
   59.6000   25.9040   45.6510 O   0  0  0  0  0  0  0  0  0  0  0  0
   57.9974   26.1345   43.9670 H   0  0  0  0  0  0  0  0  0  0  0  0
   57.2649   27.2622   42.7761 H   0  0  0  0  0  0  0  0  0  0  0  0
   59.0395   26.9844   42.7761 H   0  0  0  0  0  0  0  0  0  0  0  0
   57.5626   29.8230   43.1456 H   0  0  0  0  0  0  0  0  0  0  0  0
   57.6152   31.7062   47.3040 H   0  0  0  0  0  0  0  0  0  0  0  0
   56.6005   34.0233   45.9630 H   0  0  0  0  0  0  0  0  0  0  0  0
   57.5756   34.1166   47.4931 H   0  0  0  0  0  0  0  0  0  0  0  0
   59.9746   36.1092   46.1602 H   0  0  0  0  0  0  0  0  0  0  0  0
   59.1234   35.3584   47.5900 H   0  0  0  0  0  0  0  0  0  0  0  0
   59.5270   34.1459   49.2270 H   0  0  0  0  0  0  0  0  0  0  0  0
   58.8003   32.6887   48.4525 H   0  0  0  0  0  0  0  0  0  0  0  0
   61.0614   32.7593   50.5102 H   0  0  0  0  0  0  0  0  0  0  0  0
   59.3585   32.1362   50.7226 H   0  0  0  0  0  0  0  0  0  0  0  0
   57.2725   31.6404   50.2904 H   0  0  0  0  0  0  0  0  0  0  0  0
   55.8797   32.2703   52.2630 H   0  0  0  0  0  0  0  0  0  0  0  0
   56.2629   31.1653   54.4680 H   0  0  0  0  0  0  0  0  0  0  0  0
   58.0525   29.4417   54.7055 H   0  0  0  0  0  0  0  0  0  0  0  0
   59.4509   28.8101   52.7377 H   0  0  0  0  0  0  0  0  0  0  0  0
   61.8108   29.9692   48.1368 H   0  0  0  0  0  0  0  0  0  0  0  0
   60.1818   30.5659   47.5970 H   0  0  0  0  0  0  0  0  0  0  0  0
   62.5985   32.3062   48.2807 H   0  0  0  0  0  0  0  0  0  0  0  0
   61.9785   31.9433   46.6325 H   0  0  0  0  0  0  0  0  0  0  0  0
   59.2627   34.6000   43.7146 H   0  0  0  0  0  0  0  0  0  0  0  0
   60.2511   33.5542   44.8385 H   0  0  0  0  0  0  0  0  0  0  0  0
   57.5205   32.9309   43.6329 H   0  0  0  0  0  0  0  0  0  0  0  0
   59.0808   32.0811   43.3505 H   0  0  0  0  0  0  0  0  0  0  0  0
   59.2689   29.7107   47.1125 H   0  0  0  0  0  0  0  0  0  0  0  0
   59.8050   26.0570   48.2100 H   0  0  0  0  0  0  0  0  0  0  0  0
   59.4920   27.8190   48.2800 H   0  0  0  0  0  0  0  0  0  0  0  0
  1  2  1  0
  2  3  1  0
  3  4  2  0
  4  5  1  0
  5  6  2  0
  6  7  1  0
  7  8  1  0
  8  9  1  0
  9 10  1  0
 10 11  2  0
 10 12  1  0
 12 13  1  0
 13 14  1  0
 14 15  1  0
 15 16  1  0
 16 17  2  0
 16 18  2  0
 16 19  1  0
 19 20  2  0
 20 21  1  0
 21 22  2  0
 22 23  1  0
 23 24  2  0
 15 25  1  0
 25 26  1  0
  8 27  1  0
 27 28  1  0
  4 29  1  0
 29 30  2  0
 30 31  1  0
 31 32  1  0
 31 33  2  0
 30  2  1  0
 28  5  1  0
 26 12  1  0
 24 19  1  0
  1 34  1  0
  1 35  1  0
  1 36  1  0
  3 37  1  0
  6 38  1  0
  7 39  1  0
  7 40  1  0
  9 41  1  0
  9 42  1  0
 13 43  1  0
 13 44  1  0
 14 45  1  0
 14 46  1  0
 20 47  1  0
 21 48  1  0
 22 49  1  0
 23 50  1  0
 24 51  1  0
 25 52  1  0
 25 53  1  0
 26 54  1  0
 26 55  1  0
 27 56  1  0
 27 57  1  0
 28 58  1  0
 28 59  1  0
 29 60  1  0
 32 61  1  0
 32 62  1  0
M  END
>  <UniqueID>  (20) 
20

>  <SMILES>  (20) 
Cn1cc(C2=CCN(CC(=O)N3CCN(S(=O)(=O)c4ccccc4)CC3)CC2)cc1C(N)=O

>  <Energy>  (20) 
110.1045413163047

>  <Genealogy>  (20) 
Cn1cc(C2=CCN(CC(=O)N3CCN(S(=O)(=O)c4ccccc4)CC3)CC2)cc1C(N)=O (3D coordinates assigned)
Cn1cc(C2=CCN(CC(=O)N3CCN(S(=O)(=O)c4ccccc4)CC3)CC2)cc1C(N)=O (nonaromatic ring conformer: 110.1045413163047 kcal/mol)

>  <smiles>  (20) 
Cn1cc(C2=CCN(CC(=O)N3CCN(S(=O)(=O)c4ccccc4)CC3)CC2)cc1C(N)=O

>  <score_type>  (20) 
oracle

>  <origin>  (20) 
adg

>  <m_score__min__energy>  (20) 
-9.9299999999999997

>  <m_primary>  (20) 
energy

$$$$
20:0
     RDKit          3D

 42 45  0  0  1  0  0  0  0  0999 V2000
   59.2780   32.1850   46.7660 C   0  0  0  0  0  0  0  0  0  0  0  0
   58.5360   31.2880   45.9160 N   0  0  0  0  0  0  0  0  0  0  0  0
   57.9940   31.6670   44.7440 C   0  0  0  0  0  0  0  0  0  0  0  0
   57.3450   30.5800   44.1610 C   0  0  0  0  0  0  0  0  0  0  0  0
   57.5230   29.5320   45.0330 C   0  0  0  0  0  0  0  0  0  0  0  0
   57.0830   28.2170   44.9440 C   0  0  0  0  0  0  0  0  0  0  0  0
   57.4220   27.3690   45.9990 C   0  0  0  0  0  0  0  0  0  0  0  0
   56.8550   25.7090   45.8630 S   0  0  0  0  0  0  0  0  0  0  0  0
   57.4340   24.8780   46.9790 O   0  0  0  0  0  0  0  0  0  0  0  0
   55.3730   25.6580   46.0060 O   0  0  0  0  0  0  0  0  0  0  0  0
   57.3910   24.9830   44.3910 N   0  0  0  0  0  0  0  0  0  0  0  0
   57.4030   23.7210   44.1620 C   0  0  0  0  0  0  0  0  0  0  0  0
   56.5960   23.2180   43.1600 C   0  0  0  0  0  0  0  0  0  0  0  0
   56.6090   21.8590   42.9120 C   0  0  0  0  0  0  0  0  0  0  0  0
   57.4180   21.0960   43.6710 N   0  0  0  0  0  0  0  0  0  0  0  0
   58.1890   21.6320   44.6380 C   0  0  0  0  0  0  0  0  0  0  0  0
   58.2100   22.9510   44.9160 N   0  0  0  0  0  0  0  0  0  0  0  0
   58.1560   27.8080   47.0780 C   0  0  0  0  0  0  0  0  0  0  0  0
   58.5780   29.1260   47.1350 C   0  0  0  0  0  0  0  0  0  0  0  0
   58.2610   29.9770   46.1160 C   0  0  0  0  0  0  0  0  0  0  0  0
   56.6500   30.6760   42.8690 C   0  0  0  0  0  0  0  0  0  0  0  0
   57.2270   31.6660   41.9130 C   0  0  0  0  0  0  0  0  0  0  0  0
   58.1520   32.6750   42.5180 C   0  0  0  0  0  0  0  0  0  0  0  0
   57.9380   32.9410   43.9720 C   0  0  0  0  0  0  0  0  0  0  0  0
   59.0769   31.9419   47.8198 H   0  0  0  0  0  0  0  0  0  0  0  0
   60.3537   32.0763   46.5634 H   0  0  0  0  0  0  0  0  0  0  0  0
   58.9696   33.2213   46.5634 H   0  0  0  0  0  0  0  0  0  0  0  0
   56.4962   27.8619   44.0840 H   0  0  0  0  0  0  0  0  0  0  0  0
   55.9539   23.8882   42.5696 H   0  0  0  0  0  0  0  0  0  0  0  0
   55.9818   21.4168   42.1239 H   0  0  0  0  0  0  0  0  0  0  0  0
   57.4290   20.0660   43.4840 H   0  0  0  0  0  0  0  0  0  0  0  0
   58.8313   20.9617   45.2281 H   0  0  0  0  0  0  0  0  0  0  0  0
   58.4068   27.1133   47.8932 H   0  0  0  0  0  0  0  0  0  0  0  0
   59.1638   29.4840   47.9945 H   0  0  0  0  0  0  0  0  0  0  0  0
   56.6783   29.6851   42.3922 H   0  0  0  0  0  0  0  0  0  0  0  0
   55.6312   31.0244   43.0938 H   0  0  0  0  0  0  0  0  0  0  0  0
   57.7851   31.1110   41.1446 H   0  0  0  0  0  0  0  0  0  0  0  0
   56.3749   32.2355   41.5135 H   0  0  0  0  0  0  0  0  0  0  0  0
   59.1828   32.3143   42.3859 H   0  0  0  0  0  0  0  0  0  0  0  0
   57.9496   33.6243   42.0005 H   0  0  0  0  0  0  0  0  0  0  0  0
   58.7225   33.6208   44.3360 H   0  0  0  0  0  0  0  0  0  0  0  0
   56.9480   33.4002   44.1102 H   0  0  0  0  0  0  0  0  0  0  0  0
  1  2  1  0
  2  3  1  0
  3  4  2  0
  4  5  1  0
  5  6  2  0
  6  7  1  0
  7  8  1  0
  8  9  2  0
  8 10  2  0
  8 11  1  0
 11 12  2  0
 12 13  1  0
 13 14  2  0
 14 15  1  0
 15 16  1  0
 16 17  2  0
  7 18  2  0
 18 19  1  0
 19 20  2  0
  4 21  1  0
 21 22  1  0
 22 23  1  0
 23 24  1  0
 20  2  1  0
 24  3  1  0
 20  5  1  0
 17 12  1  0
  1 25  1  0
  1 26  1  0
  1 27  1  0
  6 28  1  0
 13 29  1  0
 14 30  1  0
 15 31  1  0
 16 32  1  0
 18 33  1  0
 19 34  1  0
 21 35  1  0
 21 36  1  0
 22 37  1  0
 22 38  1  0
 23 39  1  0
 23 40  1  0
 24 41  1  0
 24 42  1  0
M  END
>  <smiles>  (21) 
Cn1c2c(c3cc(S(=O)(=O)N=c4cc[nH]cn4)ccc31)CCCC2

>  <score_type>  (21) 
oracle

>  <origin>  (21) 
adg

>  <m_score__min__energy>  (21) 
-8.9199999999999999

>  <m_primary>  (21) 
energy

$$$$
21:0
     RDKit          3D

 37 39  0  0  0  0  0  0  0  0999 V2000
   57.7690   34.2500   44.8040 H   0  0  0  0  0  0  0  0  0  0  0  0
   58.2300   33.7910   45.6220 N   0  0  0  0  0  0  0  0  0  0  0  0
   58.2950   32.5020   45.7300 C   0  0  0  0  0  0  0  0  0  0  0  0
   57.3960   31.7290   45.0610 N   0  0  0  0  0  0  0  0  0  0  0  0
   57.4310   30.3720   45.1070 C   0  0  0  0  0  0  0  0  0  0  0  0
   56.6830   29.7869   44.5519 H   0  0  0  0  0  0  0  0  0  0  0  0
   58.4150   29.7120   45.8580 C   0  0  0  0  0  0  0  0  0  0  0  0
   58.4610   28.2290   45.9150 C   0  0  0  0  0  0  0  0  0  0  0  0
   59.6950   27.5550   45.9690 C   0  0  0  0  0  0  0  0  0  0  0  0
   60.6323   28.1308   45.9711 H   0  0  0  0  0  0  0  0  0  0  0  0
   59.7380   26.1590   46.0200 C   0  0  0  0  0  0  0  0  0  0  0  0
   60.7073   25.6406   46.0602 H   0  0  0  0  0  0  0  0  0  0  0  0
   58.5520   25.4210   46.0200 C   0  0  0  0  0  0  0  0  0  0  0  0
   58.5896   24.3223   46.0570 H   0  0  0  0  0  0  0  0  0  0  0  0
   57.3160   26.0760   45.9730 C   0  0  0  0  0  0  0  0  0  0  0  0
   55.8220   25.1430   45.9530 S   0  0  0  0  0  0  0  0  0  0  0  0
   55.7690   24.2420   47.1550 O   0  0  0  0  0  0  0  0  0  0  0  0
   55.7650   24.2970   44.7130 O   0  0  0  0  0  0  0  0  0  0  0  0
   54.4710   26.2190   45.9810 N   0  0  0  0  0  0  0  0  0  0  0  0
   54.7840   27.0910   46.4620 H   0  0  0  0  0  0  0  0  0  0  0  0
   57.2730   27.4750   45.9140 C   0  0  0  0  0  0  0  0  0  0  0  0
   56.3015   27.9888   45.8665 H   0  0  0  0  0  0  0  0  0  0  0  0
   59.3510   30.4900   46.5570 C   0  0  0  0  0  0  0  0  0  0  0  0
   60.1346   29.9947   47.1492 H   0  0  0  0  0  0  0  0  0  0  0  0
   59.3000   31.8920   46.5100 C   0  0  0  0  0  0  0  0  0  0  0  0
   60.3010   32.6860   47.2660 C   0  0  0  0  0  0  0  0  0  0  0  0
   59.9050   33.4510   48.3770 C   0  0  0  0  0  0  0  0  0  0  0  0
   58.8509   33.4537   48.6915 H   0  0  0  0  0  0  0  0  0  0  0  0
   60.8430   34.2080   49.0840 C   0  0  0  0  0  0  0  0  0  0  0  0
   60.5262   34.7990   49.9560 H   0  0  0  0  0  0  0  0  0  0  0  0
   62.1820   34.2160   48.6860 C   0  0  0  0  0  0  0  0  0  0  0  0
   62.9185   34.8108   49.2461 H   0  0  0  0  0  0  0  0  0  0  0  0
   62.5870   33.4670   47.5740 C   0  0  0  0  0  0  0  0  0  0  0  0
   63.9180   33.4720   47.1630 O   0  0  0  0  0  0  0  0  0  0  0  0
   64.5230   32.6730   47.3160 H   0  0  0  0  0  0  0  0  0  0  0  0
   61.6500   32.7070   46.8660 C   0  0  0  0  0  0  0  0  0  0  0  0
   61.9697   32.1221   45.9910 H   0  0  0  0  0  0  0  0  0  0  0  0
  1  2  1  0
  2  3  2  0
  3  4  1  0
  4  5  1  0
  5  6  1  0
  5  7  2  0
  7  8  1  0
  8  9  2  0
  9 10  1  0
  9 11  1  0
 11 12  1  0
 11 13  2  0
 13 14  1  0
 13 15  1  0
 15 16  1  0
 16 17  2  0
 16 18  2  0
 16 19  1  0
 19 20  1  0
 15 21  2  0
 21 22  1  0
  7 23  1  0
 23 24  1  0
 23 25  2  0
 25 26  1  0
 26 27  2  0
 27 28  1  0
 27 29  1  0
 29 30  1  0
 29 31  2  0
 31 32  1  0
 31 33  1  0
 33 34  1  0
 34 35  1  0
 33 36  2  0
 36 37  1  0
 25  3  1  0
 36 26  1  0
 21  8  1  0
M  CHG  2   4  -1  19  -1
M  END
>  <UniqueID>  (22) 
21

>  <SMILES>  (22) 
[H]/N=c1\[n-]cc(-c2cccc(S([NH-])(=O)=O)c2)cc1-c1cccc(O)c1

>  <Energy>  (22) 
52.236209937918744

>  <Genealogy>  (22) 
N=c1[n-]cc(-c2cccc(S([NH-])(=O)=O)c2)cc1-c1cccc(O)c1 (protonated)
[H]/N=c1\[n-]cc(-c2cccc(S([NH-])(=O)=O)c2)cc1-c1cccc(O)c1 (cis-trans isomerization)
[H]/N=c1\[n-]cc(-c2cccc(S([NH-])(=O)=O)c2)cc1-c1cccc(O)c1 (3D coordinates assigned)
[H]/N=c1\[n-]cc(-c2cccc(S([NH-])(=O)=O)c2)cc1-c1cccc(O)c1 (optimized conformer: 52.236209937918744 kcal/mol)

>  <smiles>  (22) 
N=c1[nH]cc(-c2cccc(S(N)(=O)=O)c2)cc1-c1cccc(O)c1

>  <score_type>  (22) 
oracle

>  <origin>  (22) 
adg

>  <m_score__min__energy>  (22) 
-12.17

>  <m_primary>  (22) 
energy

$$$$
22:0
     RDKit          3D

 50 53  0  0  0  0  0  0  0  0999 V2000
   58.2150   33.6280   46.4360 C   0  0  0  0  0  0  0  0  0  0  0  0
   59.1730   32.4670   46.4530 C   0  0  0  0  0  0  0  0  0  0  0  0
   60.1960   32.3240   47.4070 C   0  0  0  0  0  0  0  0  0  0  0  0
   60.5770   33.2620   48.4770 C   0  0  0  0  0  0  0  0  0  0  0  0
   59.7180   34.0780   48.9080 O   0  0  0  0  0  0  0  0  0  0  0  0
   61.8850   33.2140   49.0680 N   0  0  0  0  0  0  0  0  0  0  0  0
   62.3250   34.1760   50.0740 C   0  0  0  0  0  0  0  0  0  0  0  0
   63.7420   33.8900   50.4870 C   0  0  0  0  0  0  0  0  0  0  0  0
   64.5480   33.0260   49.7270 C   0  0  0  0  0  0  0  0  0  0  0  0
   65.8720   32.7830   50.1050 C   0  0  0  0  0  0  0  0  0  0  0  0
   66.4010   33.4010   51.2420 C   0  0  0  0  0  0  0  0  0  0  0  0
   65.6060   34.2610   52.0020 C   0  0  0  0  0  0  0  0  0  0  0  0
   64.2820   34.5090   51.6270 C   0  0  0  0  0  0  0  0  0  0  0  0
   60.9760   30.8530   47.1440 S   0  0  0  0  0  0  0  0  0  0  0  0
   60.0290   30.4760   45.8150 C   0  0  0  0  0  0  0  0  0  0  0  0
   60.1530   29.4180   45.1430 O   0  0  0  0  0  0  0  0  0  0  0  0
   59.1110   31.4370   45.5460 N   0  0  0  0  0  0  0  0  0  0  0  0
   58.1460   31.3330   44.4430 C   0  0  0  0  0  0  0  0  0  0  0  0
   57.2190   30.1840   44.6770 C   0  0  0  0  0  0  0  0  0  0  0  0
   55.8810   30.2580   44.5350 N   0  0  0  0  0  0  0  0  0  0  0  0
   55.4470   29.0850   44.8820 O   0  0  0  0  0  0  0  0  0  0  0  0
   56.4560   28.3220   45.2300 C   0  0  0  0  0  0  0  0  0  0  0  0
   56.3030   26.9260   45.6830 C   0  0  0  0  0  0  0  0  0  0  0  0
   55.1530   26.5200   45.9940 O   0  0  0  0  0  0  0  0  0  0  0  0
   57.4010   26.0080   45.7820 N   0  0  0  0  0  0  0  0  0  0  0  0
   58.3550   25.9140   46.8840 C   0  0  0  0  0  0  0  0  0  0  0  0
   59.7890   25.8220   46.3740 C   0  0  0  0  0  0  0  0  0  0  0  0
   60.0930   27.1820   46.9870 C   0  0  0  0  0  0  0  0  0  0  0  0
   58.6660   27.2730   47.5050 C   0  0  0  0  0  0  0  0  0  0  0  0
   57.6260   28.9800   45.1260 N   0  0  0  0  0  0  0  0  0  0  0  0
   57.9742   33.9198   47.4689 H   0  0  0  0  0  0  0  0  0  0  0  0
   58.6781   34.4779   45.9133 H   0  0  0  0  0  0  0  0  0  0  0  0
   57.2926   33.3347   45.9133 H   0  0  0  0  0  0  0  0  0  0  0  0
   62.5330   32.4340   48.8150 H   0  0  0  0  0  0  0  0  0  0  0  0
   62.2675   35.1912   49.6545 H   0  0  0  0  0  0  0  0  0  0  0  0
   61.6725   34.0943   50.9558 H   0  0  0  0  0  0  0  0  0  0  0  0
   64.1358   32.5388   48.8311 H   0  0  0  0  0  0  0  0  0  0  0  0
   66.4983   32.1047   49.5070 H   0  0  0  0  0  0  0  0  0  0  0  0
   67.4431   33.2098   51.5377 H   0  0  0  0  0  0  0  0  0  0  0  0
   66.0222   34.7447   52.8980 H   0  0  0  0  0  0  0  0  0  0  0  0
   63.6611   35.1910   52.2265 H   0  0  0  0  0  0  0  0  0  0  0  0
   57.5630   32.2638   44.3808 H   0  0  0  0  0  0  0  0  0  0  0  0
   58.6916   31.1690   43.5020 H   0  0  0  0  0  0  0  0  0  0  0  0
   57.9149   25.1124   47.4953 H   0  0  0  0  0  0  0  0  0  0  0  0
   60.3681   24.9938   46.8085 H   0  0  0  0  0  0  0  0  0  0  0  0
   59.9906   25.6332   45.3092 H   0  0  0  0  0  0  0  0  0  0  0  0
   60.8565   27.1565   47.7785 H   0  0  0  0  0  0  0  0  0  0  0  0
   60.5112   27.9891   46.3676 H   0  0  0  0  0  0  0  0  0  0  0  0
   58.5868   27.2944   48.6019 H   0  0  0  0  0  0  0  0  0  0  0  0
   58.0429   28.1485   47.2701 H   0  0  0  0  0  0  0  0  0  0  0  0
  1  2  1  0
  2  3  2  0
  3  4  1  0
  4  5  2  0
  4  6  1  0
  6  7  1  0
  7  8  1  0
  8  9  2  0
  9 10  1  0
 10 11  2  0
 11 12  1  0
 12 13  2  0
  3 14  1  0
 14 15  1  0
 15 16  2  0
 15 17  1  0
 17 18  1  0
 18 19  1  0
 19 20  2  0
 20 21  1  0
 21 22  1  0
 22 23  1  0
 23 24  2  0
 23 25  1  0
 25 26  1  0
 26 27  1  0
 27 28  1  0
 28 29  1  0
 22 30  2  0
 17  2  1  0
 30 19  1  0
 13  8  1  0
 29 26  1  0
  1 31  1  0
  1 32  1  0
  1 33  1  0
  6 34  1  0
  7 35  1  0
  7 36  1  0
  9 37  1  0
 10 38  1  0
 11 39  1  0
 12 40  1  0
 13 41  1  0
 18 42  1  0
 18 43  1  0
 26 44  1  0
 27 45  1  0
 27 46  1  0
 28 47  1  0
 28 48  1  0
 29 49  1  0
 29 50  1  0
M  CHG  1  25  -1
M  END
>  <UniqueID>  (23) 
22

>  <SMILES>  (23) 
Cc1c(C(=O)NCc2ccccc2)sc(=O)n1Cc1noc(C(=O)[N-]C2CCC2)n1

>  <Energy>  (23) 
174.82935564146953

>  <Genealogy>  (23) 
Cc1c(C(=O)NCc2ccccc2)sc(=O)n1Cc1noc(C(=O)[N-]C2CCC2)n1 (protonated)
Cc1c(C(=O)NCc2ccccc2)sc(=O)n1Cc1noc(C(=O)[N-]C2CCC2)n1 (3D coordinates assigned)
Cc1c(C(=O)NCc2ccccc2)sc(=O)n1Cc1noc(C(=O)[N-]C2CCC2)n1 (nonaromatic ring conformer: 174.82935564146953 kcal/mol)

>  <smiles>  (23) 
Cc1c(C(=O)NCc2ccccc2)sc(=O)n1Cc1noc(C(=O)NC2CCC2)n1

>  <score_type>  (23) 
oracle

>  <origin>  (23) 
adg

>  <m_score__min__energy>  (23) 
-11.1

>  <m_primary>  (23) 
energy

$$$$
23:0
     RDKit          3D

 62 64  0  0  0  0  0  0  0  0999 V2000
   60.4980   26.5230   46.4910 C   0  0  0  0  0  0  0  0  0  0  0  0
   59.9110   27.9200   46.6770 C   0  0  0  0  0  0  0  0  0  0  0  0
   58.6860   28.0840   45.8750 N   0  0  0  0  0  0  0  0  0  0  0  0
   57.3930   27.7700   46.5030 C   0  0  0  0  0  0  0  0  0  0  0  0
   56.8180   26.5100   45.9220 C   0  0  0  0  0  0  0  0  0  0  0  0
   55.5860   26.2760   46.0470 O   0  0  0  0  0  0  0  0  0  0  0  0
   57.6670   25.5820   45.2250 N   0  0  0  0  0  0  0  0  0  0  0  0
   57.2290   24.2770   44.8030 C   0  0  0  0  0  0  0  0  0  0  0  0
   57.0970   23.9970   43.4310 C   0  0  0  0  0  0  0  0  0  0  0  0
   56.6260   22.7570   42.9980 C   0  0  0  0  0  0  0  0  0  0  0  0
   56.2660   21.7860   43.9290 C   0  0  0  0  0  0  0  0  0  0  0  0
   56.3770   22.0470   45.2960 C   0  0  0  0  0  0  0  0  0  0  0  0
   56.8700   23.2850   45.7540 C   0  0  0  0  0  0  0  0  0  0  0  0
   56.9840   23.5500   47.2410 C   0  0  0  0  0  0  0  0  0  0  0  0
   58.1030   24.3230   47.4870 F   0  0  0  0  0  0  0  0  0  0  0  0
   55.8720   24.2220   47.7250 F   0  0  0  0  0  0  0  0  0  0  0  0
   57.0910   22.3550   47.9310 F   0  0  0  0  0  0  0  0  0  0  0  0
   58.7980   28.5180   44.4930 C   0  0  0  0  0  0  0  0  0  0  0  0
   59.7860   29.2170   44.1420 O   0  0  0  0  0  0  0  0  0  0  0  0
   57.7590   28.2020   43.4420 C   0  0  0  0  0  0  0  0  0  0  0  0
   56.9360   29.4380   43.0550 C   0  0  0  0  0  0  0  0  0  0  0  0
   56.2250   30.0500   44.2390 C   0  0  0  0  0  0  0  0  0  0  0  0
   55.3390   29.3690   44.8190 O   0  0  0  0  0  0  0  0  0  0  0  0
   56.6220   31.2960   44.8340 N   0  0  0  0  0  0  0  0  0  0  0  0
   57.7160   31.5720   45.4790 C   0  0  0  0  0  0  0  0  0  0  0  0
   58.1120   30.8540   46.5510 N   0  0  0  0  0  0  0  0  0  0  0  0
   59.2450   31.2970   47.0940 N   0  0  0  0  0  0  0  0  0  0  0  0
   59.7570   32.3780   46.4650 C   0  0  0  0  0  0  0  0  0  0  0  0
   61.0230   33.0650   46.8980 C   0  0  0  0  0  0  0  0  0  0  0  0
   60.7840   33.9480   48.1500 C   0  0  0  0  0  0  0  0  0  0  0  0
   62.0580   34.1680   48.9940 C   0  0  0  0  0  0  0  0  0  0  0  0
   63.3280   34.1080   48.1370 C   0  0  0  0  0  0  0  0  0  0  0  0
   63.4880   32.7360   47.4490 C   0  0  0  0  0  0  0  0  0  0  0  0
   62.1460   32.0420   47.1390 C   0  0  0  0  0  0  0  0  0  0  0  0
   58.7780   32.8470   45.1730 S   0  0  0  0  0  0  0  0  0  0  0  0
   60.6879   26.0710   47.4757 H   0  0  0  0  0  0  0  0  0  0  0  0
   59.7865   25.8978   45.9316 H   0  0  0  0  0  0  0  0  0  0  0  0
   61.4425   26.5936   45.9316 H   0  0  0  0  0  0  0  0  0  0  0  0
   59.6694   28.0711   47.7394 H   0  0  0  0  0  0  0  0  0  0  0  0
   60.6524   28.6611   46.3437 H   0  0  0  0  0  0  0  0  0  0  0  0
   57.5392   27.6358   47.5850 H   0  0  0  0  0  0  0  0  0  0  0  0
   56.6953   28.5993   46.3145 H   0  0  0  0  0  0  0  0  0  0  0  0
   58.6280   25.8960   44.9660 H   0  0  0  0  0  0  0  0  0  0  0  0
   57.3682   24.7643   42.6909 H   0  0  0  0  0  0  0  0  0  0  0  0
   56.5391   22.5466   41.9218 H   0  0  0  0  0  0  0  0  0  0  0  0
   55.8928   20.8097   43.5861 H   0  0  0  0  0  0  0  0  0  0  0  0
   56.0765   21.2782   46.0231 H   0  0  0  0  0  0  0  0  0  0  0  0
   58.2670   27.8188   42.5447 H   0  0  0  0  0  0  0  0  0  0  0  0
   57.0702   27.4534   43.8605 H   0  0  0  0  0  0  0  0  0  0  0  0
   57.6111   30.1902   42.6208 H   0  0  0  0  0  0  0  0  0  0  0  0
   56.1706   29.1186   42.3324 H   0  0  0  0  0  0  0  0  0  0  0  0
   61.3433   33.7308   46.0830 H   0  0  0  0  0  0  0  0  0  0  0  0
   60.4103   34.9284   47.8197 H   0  0  0  0  0  0  0  0  0  0  0  0
   60.0582   33.4210   48.7868 H   0  0  0  0  0  0  0  0  0  0  0  0
   61.9998   35.1554   49.4752 H   0  0  0  0  0  0  0  0  0  0  0  0
   62.1138   33.3648   49.7435 H   0  0  0  0  0  0  0  0  0  0  0  0
   63.2744   34.8898   47.3650 H   0  0  0  0  0  0  0  0  0  0  0  0
   64.1944   34.2640   48.7965 H   0  0  0  0  0  0  0  0  0  0  0  0
   64.0308   32.8820   46.5035 H   0  0  0  0  0  0  0  0  0  0  0  0
   64.0342   32.0857   48.1481 H   0  0  0  0  0  0  0  0  0  0  0  0
   62.2641   31.4224   46.2378 H   0  0  0  0  0  0  0  0  0  0  0  0
   61.8691   31.4245   48.0062 H   0  0  0  0  0  0  0  0  0  0  0  0
  1  2  1  0
  2  3  1  0
  3  4  1  0
  4  5  1  0
  5  6  2  0
  5  7  1  0
  7  8  1  0
  8  9  2  0
  9 10  1  0
 10 11  2  0
 11 12  1  0
 12 13  2  0
 13 14  1  0
 14 15  1  0
 14 16  1  0
 14 17  1  0
  3 18  1  0
 18 19  2  0
 18 20  1  0
 20 21  1  0
 21 22  1  0
 22 23  2  0
 22 24  1  0
 24 25  2  3
 25 26  1  0
 26 27  1  0
 27 28  2  0
 28 29  1  0
 29 30  1  0
 30 31  1  0
 31 32  1  0
 32 33  1  0
 33 34  1  0
 28 35  1  0
 13  8  1  0
 35 25  1  0
 34 29  1  0
  1 36  1  0
  1 37  1  0
  1 38  1  0
  2 39  1  0
  2 40  1  0
  4 41  1  0
  4 42  1  0
  7 43  1  0
  9 44  1  0
 10 45  1  0
 11 46  1  0
 12 47  1  0
 20 48  1  0
 20 49  1  0
 21 50  1  0
 21 51  1  0
 29 52  1  0
 30 53  1  0
 30 54  1  0
 31 55  1  0
 31 56  1  0
 32 57  1  0
 32 58  1  0
 33 59  1  0
 33 60  1  0
 34 61  1  0
 34 62  1  0
M  CHG  1  26  -1
M  END
>  <UniqueID>  (24) 
23

>  <SMILES>  (24) 
CCN(CC(=O)Nc1ccccc1C(F)(F)F)C(=O)CCC(=O)N=c1[n-]nc(C2CCCCC2)s1

>  <Energy>  (24) 
103.17494288919656

>  <Genealogy>  (24) 
CCN(CC(=O)Nc1ccccc1C(F)(F)F)C(=O)CCC(=O)N=c1[n-]nc(C2CCCCC2)s1 (protonated)
CCN(CC(=O)Nc1ccccc1C(F)(F)F)C(=O)CCC(=O)N=c1[n-]nc(C2CCCCC2)s1 (3D coordinates assigned)
CCN(CC(=O)Nc1ccccc1C(F)(F)F)C(=O)CCC(=O)N=c1[n-]nc(C2CCCCC2)s1 (nonaromatic ring conformer: 103.17494288919656 kcal/mol)

>  <smiles>  (24) 
CCN(CC(=O)Nc1ccccc1C(F)(F)F)C(=O)CCC(=O)N=c1[nH]nc(C2CCCCC2)s1

>  <score_type>  (24) 
oracle

>  <origin>  (24) 
adg

>  <m_score__min__energy>  (24) 
-11.130000000000001

>  <m_primary>  (24) 
energy

$$$$
24:0
     RDKit          3D

 26 27  0  0  0  0  0  0  0  0999 V2000
   54.3760   26.1240   46.3710 H   0  0  0  0  0  0  0  0  0  0  0  0
   55.1350   26.7050   46.0400 O   0  0  0  0  0  0  0  0  0  0  0  0
   56.3650   26.1960   45.6040 C   0  0  0  0  0  0  0  0  0  0  0  0
   56.2930   24.9090   44.8610 C   0  0  0  0  0  0  0  0  0  0  0  0
   55.4530   23.8620   45.2850 C   0  0  0  0  0  0  0  0  0  0  0  0
   54.6660   24.0020   46.4250 O   0  0  0  0  0  0  0  0  0  0  0  0
   54.7920   24.7880   47.0520 H   0  0  0  0  0  0  0  0  0  0  0  0
   55.3940   22.7080   44.5690 N   0  0  0  0  0  0  0  0  0  0  0  0
   56.1220   22.5470   43.4360 C   0  0  0  0  0  0  0  0  0  0  0  0
   56.0520   21.4690   42.7920 O   0  0  0  0  0  0  0  0  0  0  0  0
   56.9210   23.5500   42.9920 N   0  0  0  0  0  0  0  0  0  0  0  0
   57.0190   24.7220   43.6700 C   0  0  0  0  0  0  0  0  0  0  0  0
   57.7760   25.6280   43.2280 O   0  0  0  0  0  0  0  0  0  0  0  0
   57.5400   26.8220   45.9170 C   0  0  0  0  0  0  0  0  0  0  0  0
   58.4460   26.1530   46.7760 C   0  0  0  0  0  0  0  0  0  0  0  0
   58.1251   25.2312   47.2833 H   0  0  0  0  0  0  0  0  0  0  0  0
   59.7360   26.6370   46.9930 C   0  0  0  0  0  0  0  0  0  0  0  0
   60.4180   26.0956   47.6652 H   0  0  0  0  0  0  0  0  0  0  0  0
   60.1630   27.7980   46.3650 C   0  0  0  0  0  0  0  0  0  0  0  0
   61.1957   28.1504   46.5041 H   0  0  0  0  0  0  0  0  0  0  0  0
   59.2850   28.5170   45.5590 C   0  0  0  0  0  0  0  0  0  0  0  0
   59.6331   29.4361   45.0649 H   0  0  0  0  0  0  0  0  0  0  0  0
   57.9570   28.0860   45.3660 C   0  0  0  0  0  0  0  0  0  0  0  0
   57.1150   28.9530   44.7730 C   0  0  0  0  0  0  0  0  0  0  0  0
   56.0669   28.6690   44.5975 H   0  0  0  0  0  0  0  0  0  0  0  0
   57.4751   29.9454   44.4640 H   0  0  0  0  0  0  0  0  0  0  0  0
  1  2  1  0
  2  3  1  0
  3  4  1  0
  4  5  2  0
  5  6  1  0
  6  7  1  0
  5  8  1  0
  8  9  1  0
  9 10  2  0
  9 11  1  0
 11 12  1  0
 12 13  2  0
  3 14  2  0
 14 15  1  0
 15 16  1  0
 15 17  2  0
 17 18  1  0
 17 19  1  0
 19 20  1  0
 19 21  2  0
 21 22  1  0
 21 23  1  0
 23 24  2  0
 24 25  1  0
 24 26  1  0
 12  4  1  0
 23 14  1  0
M  CHG  2   8  -1  11  -1
M  END
>  <UniqueID>  (25) 
24

>  <SMILES>  (25) 
C=c1cccc/c1=C(\O)c1c(O)[n-]c(=O)[n-]c1=O

>  <Energy>  (25) 
56.304219306240334

>  <Genealogy>  (25) 
C=c1ccccc1=C(O)c1c(O)[n-]c(=O)[n-]c1=O (protonated)
C=c1cccc/c1=C(\O)c1c(O)[n-]c(=O)[n-]c1=O (cis-trans isomerization)
C=c1cccc/c1=C(\O)c1c(O)[n-]c(=O)[n-]c1=O (3D coordinates assigned)
C=c1cccc/c1=C(\O)c1c(O)[n-]c(=O)[n-]c1=O (optimized conformer: 56.304219306240334 kcal/mol)

>  <smiles>  (25) 
C=c1ccccc1=C(O)c1c(O)[nH]c(=O)[nH]c1=O

>  <score_type>  (25) 
oracle

>  <origin>  (25) 
adg

>  <m_score__min__energy>  (25) 
-11.19

>  <m_primary>  (25) 
energy

$$$$
25:0
     RDKit          3D

 40 41  0  0  0  0  0  0  0  0999 V2000
   56.6088   22.4377   45.1233 H   0  0  0  0  0  0  0  0  0  0  0  0
   57.1850   23.1650   45.7140 C   0  0  0  0  0  0  0  0  0  0  0  0
   57.6250   22.8270   46.8440 O   0  0  0  0  0  0  0  0  0  0  0  0
   57.4240   24.5180   45.1600 C   0  0  0  0  0  0  0  0  0  0  0  0
   57.6190   25.6180   45.9170 C   0  0  0  0  0  0  0  0  0  0  0  0
   58.4829   25.6173   46.5979 H   0  0  0  0  0  0  0  0  0  0  0  0
   56.7610   26.8280   45.9040 C   0  0  0  0  0  0  0  0  0  0  0  0
   55.5330   26.7260   46.1730 O   0  0  0  0  0  0  0  0  0  0  0  0
   57.3250   28.1730   45.6260 C   0  0  0  0  0  0  0  0  0  0  0  0
   58.6840   28.4490   45.8610 C   0  0  0  0  0  0  0  0  0  0  0  0
   59.3408   27.6565   46.2490 H   0  0  0  0  0  0  0  0  0  0  0  0
   59.2090   29.7190   45.6070 C   0  0  0  0  0  0  0  0  0  0  0  0
   60.2751   29.9173   45.7916 H   0  0  0  0  0  0  0  0  0  0  0  0
   58.3820   30.7440   45.1170 C   0  0  0  0  0  0  0  0  0  0  0  0
   58.8530   32.0350   44.8440 O   0  0  0  0  0  0  0  0  0  0  0  0
   58.2580   33.4670   45.5710 S   0  0  0  0  0  0  0  0  0  0  0  0
   58.6770   34.6600   44.7580 O   0  0  0  0  0  0  0  0  0  0  0  0
   56.7560   33.4160   45.6320 O   0  0  0  0  0  0  0  0  0  0  0  0
   58.9030   33.6110   47.1840 N   0  0  0  0  0  0  0  0  0  0  0  0
   58.4630   32.4540   47.9910 C   0  0  0  0  0  0  0  0  0  0  0  0
   57.3986   32.5821   48.2373 H   0  0  0  0  0  0  0  0  0  0  0  0
   58.6380   31.5478   47.3924 H   0  0  0  0  0  0  0  0  0  0  0  0
   59.2550   32.3030   49.3000 C   0  0  0  0  0  0  0  0  0  0  0  0
   58.6019   31.8580   50.0651 H   0  0  0  0  0  0  0  0  0  0  0  0
   60.1243   31.6569   49.1083 H   0  0  0  0  0  0  0  0  0  0  0  0
   59.8560   33.9160   49.8970 S   0  0  0  0  0  0  0  0  0  0  0  0
   60.9370   34.2360   48.4490 C   0  0  0  0  0  0  0  0  0  0  0  0
   61.0732   35.3231   48.3507 H   0  0  0  0  0  0  0  0  0  0  0  0
   61.8851   33.7094   48.6327 H   0  0  0  0  0  0  0  0  0  0  0  0
   60.3710   33.6950   47.1230 C   0  0  0  0  0  0  0  0  0  0  0  0
   60.6610   34.3695   46.3039 H   0  0  0  0  0  0  0  0  0  0  0  0
   60.7775   32.6880   46.9478 H   0  0  0  0  0  0  0  0  0  0  0  0
   57.0290   30.4750   44.8890 C   0  0  0  0  0  0  0  0  0  0  0  0
   56.3738   31.2722   44.5080 H   0  0  0  0  0  0  0  0  0  0  0  0
   56.4980   29.2060   45.1390 C   0  0  0  0  0  0  0  0  0  0  0  0
   55.1500   28.9780   44.8840 O   0  0  0  0  0  0  0  0  0  0  0  0
   57.3110   24.6830   43.6690 C   0  0  0  0  0  0  0  0  0  0  0  0
   56.7027   25.5713   43.4435 H   0  0  0  0  0  0  0  0  0  0  0  0
   58.3149   24.8067   43.2367 H   0  0  0  0  0  0  0  0  0  0  0  0
   56.8328   23.7917   43.2367 H   0  0  0  0  0  0  0  0  0  0  0  0
  1  2  1  0
  2  3  2  0
  2  4  1  0
  4  5  2  0
  5  6  1  0
  5  7  1  0
  7  8  2  0
  7  9  1  0
  9 10  2  0
 10 11  1  0
 10 12  1  0
 12 13  1  0
 12 14  2  0
 14 15  1  0
 15 16  1  0
 16 17  2  0
 16 18  2  0
 16 19  1  0
 19 20  1  0
 20 21  1  0
 20 22  1  0
 20 23  1  0
 23 24  1  0
 23 25  1  0
 23 26  1  0
 26 27  1  0
 27 28  1  0
 27 29  1  0
 27 30  1  0
 30 31  1  0
 30 32  1  0
 14 33  1  0
 33 34  1  0
 33 35  2  0
 35 36  1  0
  4 37  1  0
 37 38  1  0
 37 39  1  0
 37 40  1  0
 35  9  1  0
 30 19  1  0
M  CHG  1  36  -1
M  END
>  <UniqueID>  (26) 
25

>  <SMILES>  (26) 
C/C(C=O)=C/C(=O)c1ccc(OS(=O)(=O)N2CCSCC2)cc1[O-]

>  <Energy>  (26) 
51.27027694667769

>  <Genealogy>  (26) 
CC(C=O)=CC(=O)c1ccc(OS(=O)(=O)N2CCSCC2)cc1[O-] (protonated)
C/C(C=O)=C/C(=O)c1ccc(OS(=O)(=O)N2CCSCC2)cc1[O-] (cis-trans isomerization)
C/C(C=O)=C/C(=O)c1ccc(OS(=O)(=O)N2CCSCC2)cc1[O-] (3D coordinates assigned)
C/C(C=O)=C/C(=O)c1ccc(OS(=O)(=O)N2CCSCC2)cc1[O-] (nonaromatic ring conformer: 51.27027694667769 kcal/mol)

>  <smiles>  (26) 
CC(C=O)=CC(=O)c1ccc(OS(=O)(=O)N2CCSCC2)cc1O

>  <score_type>  (26) 
oracle

>  <origin>  (26) 
adg

>  <m_score__min__energy>  (26) 
-12.6

>  <m_primary>  (26) 
energy

$$$$
26:0
     RDKit          3D

 54 57  0  0  0  0  0  0  0  0999 V2000
   64.6950   33.4610   50.2050 C   0  0  0  0  0  0  0  0  0  0  0  0
   63.4740   33.7680   49.4390 N   0  0  2  0  0  0  0  0  0  0  0  0
   62.3250   33.0160   49.9840 C   0  0  0  0  0  0  0  0  0  0  0  0
   60.9970   33.4690   49.3380 C   0  0  0  0  0  0  0  0  0  0  0  0
   61.1960   34.0110   47.9070 C   0  0  2  0  0  0  0  0  0  0  0  0
   59.9630   33.8920   47.1200 N   0  0  0  0  0  0  0  0  0  0  0  0
   59.0160   32.7910   47.2230 C   0  0  0  0  0  0  0  0  0  0  0  0
   57.8560   33.1610   46.2550 C   0  0  2  0  0  0  0  0  0  0  0  0
   57.6550   32.1140   45.1930 C   0  0  0  0  0  0  0  0  0  0  0  0
   57.4020   32.4140   43.8560 C   0  0  0  0  0  0  0  0  0  0  0  0
   57.3060   30.9690   43.0050 S   0  0  0  0  0  0  0  0  0  0  0  0
   57.5940   29.9500   44.3160 C   0  0  0  0  0  0  0  0  0  0  0  0
   57.6940   28.4750   44.2600 C   0  0  0  0  0  0  0  0  0  0  0  0
   57.7610   27.8300   43.0120 C   0  0  0  0  0  0  0  0  0  0  0  0
   57.8040   26.4350   42.9340 C   0  0  0  0  0  0  0  0  0  0  0  0
   57.7800   25.6680   44.0990 C   0  0  0  0  0  0  0  0  0  0  0  0
   57.7250   26.2940   45.3460 C   0  0  0  0  0  0  0  0  0  0  0  0
   57.7020   27.6910   45.4360 C   0  0  0  0  0  0  0  0  0  0  0  0
   57.7070   28.2830   46.6990 O   0  0  0  0  0  0  0  0  0  0  0  0
   59.1730   28.5730   47.5290 S   0  0  0  0  0  0  0  0  0  0  0  0
   58.8790   29.3360   48.7910 O   0  0  0  0  0  0  0  0  0  0  0  0
   60.0960   29.3850   46.6650 O   0  0  0  0  0  0  0  0  0  0  0  0
   59.9580   27.0290   47.9440 C   0  0  0  0  0  0  0  0  0  0  0  0
   58.9960   26.0490   48.1040 F   0  0  0  0  0  0  0  0  0  0  0  0
   60.6660   27.1720   49.1230 F   0  0  0  0  0  0  0  0  0  0  0  0
   60.8250   26.6600   46.9340 F   0  0  0  0  0  0  0  0  0  0  0  0
   57.7830   30.7400   45.4450 C   0  0  0  0  0  0  0  0  0  0  0  0
   58.2290   34.4040   45.6670 O   0  0  0  0  0  0  0  0  0  0  0  0
   59.4380   34.8120   46.1810 C   0  0  0  0  0  0  0  0  0  0  0  0
   60.0070   35.8830   45.8420 O   0  0  0  0  0  0  0  0  0  0  0  0
   62.3680   33.3120   47.2050 C   0  0  0  0  0  0  0  0  0  0  0  0
   63.6860   33.4770   47.9970 C   0  0  0  0  0  0  0  0  0  0  0  0
   64.4760   33.5161   51.2816 H   0  0  0  0  0  0  0  0  0  0  0  0
   65.0412   32.4479   49.9526 H   0  0  0  0  0  0  0  0  0  0  0  0
   65.4792   34.1899   49.9526 H   0  0  0  0  0  0  0  0  0  0  0  0
   63.2900   34.7940   49.5550 H   0  0  0  0  0  0  0  0  0  0  0  0
   62.4722   31.9441   49.7854 H   0  0  0  0  0  0  0  0  0  0  0  0
   62.2671   33.2084   51.0655 H   0  0  0  0  0  0  0  0  0  0  0  0
   60.3117   32.6095   49.2985 H   0  0  0  0  0  0  0  0  0  0  0  0
   60.5852   34.2836   49.9518 H   0  0  0  0  0  0  0  0  0  0  0  0
   61.4433   35.0799   47.9869 H   0  0  0  0  0  0  0  0  0  0  0  0
   59.4880   31.8459   46.9164 H   0  0  0  0  0  0  0  0  0  0  0  0
   58.6617   32.6478   48.2545 H   0  0  0  0  0  0  0  0  0  0  0  0
   56.9012   33.2279   46.7970 H   0  0  0  0  0  0  0  0  0  0  0  0
   57.2854   33.4221   43.4315 H   0  0  0  0  0  0  0  0  0  0  0  0
   57.7797   28.4285   42.0893 H   0  0  0  0  0  0  0  0  0  0  0  0
   57.8568   25.9413   41.9525 H   0  0  0  0  0  0  0  0  0  0  0  0
   57.8044   24.5701   44.0353 H   0  0  0  0  0  0  0  0  0  0  0  0
   57.6996   25.6863   46.2625 H   0  0  0  0  0  0  0  0  0  0  0  0
   58.0107   30.3274   46.4389 H   0  0  0  0  0  0  0  0  0  0  0  0
   62.1398   32.2400   47.1110 H   0  0  0  0  0  0  0  0  0  0  0  0
   62.5011   33.7735   46.2154 H   0  0  0  0  0  0  0  0  0  0  0  0
   64.2642   32.5452   47.9104 H   0  0  0  0  0  0  0  0  0  0  0  0
   64.2188   34.3376   47.5663 H   0  0  0  0  0  0  0  0  0  0  0  0
  1  2  1  0
  2  3  1  0
  3  4  1  0
  4  5  1  0
  5  6  1  0
  6  7  1  0
  7  8  1  0
  8  9  1  0
  9 10  2  0
 10 11  1  0
 11 12  1  0
 12 13  1  0
 13 14  2  0
 14 15  1  0
 15 16  2  0
 16 17  1  0
 17 18  2  0
 18 19  1  0
 19 20  1  0
 20 21  2  0
 20 22  2  0
 20 23  1  0
 23 24  1  0
 23 25  1  0
 23 26  1  0
 12 27  2  0
  8 28  1  0
 28 29  1  0
 29 30  2  0
  5 31  1  0
 31 32  1  0
 32  2  1  0
 29  6  1  0
 27  9  1  0
 18 13  1  0
  1 33  1  0
  1 34  1  0
  1 35  1  0
  2 36  1  6
  3 37  1  0
  3 38  1  0
  4 39  1  0
  4 40  1  0
  5 41  1  1
  7 42  1  0
  7 43  1  0
  8 44  1  1
 10 45  1  0
 14 46  1  0
 15 47  1  0
 16 48  1  0
 17 49  1  0
 27 50  1  0
 31 51  1  0
 31 52  1  0
 32 53  1  0
 32 54  1  0
M  CHG  1   2   1
M  END
>  <UniqueID>  (27) 
26

>  <SMILES>  (27) 
C[NH+]1CCC(N2C[C@H](c3csc(-c4ccccc4OS(=O)(=O)C(F)(F)F)c3)OC2=O)CC1

>  <Energy>  (27) 
105.72468847327016

>  <Genealogy>  (27) 
C[NH+]1CCC(N2CC(c3csc(-c4ccccc4OS(=O)(=O)C(F)(F)F)c3)OC2=O)CC1 (protonated)
C[NH+]1CCC(N2C[C@H](c3csc(-c4ccccc4OS(=O)(=O)C(F)(F)F)c3)OC2=O)CC1 (chirality)
C[NH+]1CCC(N2C[C@H](c3csc(-c4ccccc4OS(=O)(=O)C(F)(F)F)c3)OC2=O)CC1 (3D coordinates assigned)
C[NH+]1CCC(N2C[C@H](c3csc(-c4ccccc4OS(=O)(=O)C(F)(F)F)c3)OC2=O)CC1 (nonaromatic ring conformer: 105.72468847327016 kcal/mol)

>  <smiles>  (27) 
CN1CCC(N2CC(c3csc(-c4ccccc4OS(=O)(=O)C(F)(F)F)c3)OC2=O)CC1

>  <score_type>  (27) 
oracle

>  <origin>  (27) 
adg

>  <m_score__min__energy>  (27) 
-7.2999999999999998

>  <m_primary>  (27) 
energy

$$$$
27:0
     RDKit          3D

 56 59  0  0  0  0  0  0  0  0999 V2000
   59.2590   34.9210   44.5200 O   0  0  0  0  0  0  0  0  0  0  0  0
   58.5460   34.0300   45.0550 C   0  0  0  0  0  0  0  0  0  0  0  0
   57.8040   33.1090   44.2470 N   0  0  0  0  0  0  0  0  0  0  0  0
   57.6890   31.6930   44.4510 C   0  0  0  0  0  0  0  0  0  0  0  0
   58.4780   31.0920   45.4370 C   0  0  0  0  0  0  0  0  0  0  0  0
   58.3810   29.7200   45.6890 C   0  0  0  0  0  0  0  0  0  0  0  0
   57.4800   28.9230   44.9590 C   0  0  0  0  0  0  0  0  0  0  0  0
   57.3700   27.4670   45.2370 C   0  0  0  0  0  0  0  0  0  0  0  0
   56.3860   27.0010   46.0290 C   0  0  0  0  0  0  0  0  0  0  0  0
   56.2100   25.5410   46.3660 C   0  0  0  0  0  0  0  0  0  0  0  0
   57.1810   24.6690   45.6900 N   0  0  0  0  0  0  0  0  0  0  0  0
   56.9730   23.2430   45.7650 C   0  0  0  0  0  0  0  0  0  0  0  0
   57.5020   22.5960   46.7100 O   0  0  0  0  0  0  0  0  0  0  0  0
   56.1230   22.4750   44.7730 C   0  0  1  0  0  0  0  0  0  0  0  0
   55.8410   23.1870   43.4660 C   0  0  0  0  0  0  0  0  0  0  0  0
   56.2660   22.1860   42.4040 C   0  0  0  0  0  0  0  0  0  0  0  0
   56.4470   20.9230   42.9990 O   0  0  0  0  0  0  0  0  0  0  0  0
   56.7450   21.1500   44.3560 C   0  0  0  0  0  0  0  0  0  0  0  0
   58.4910   25.2250   45.3400 C   0  0  0  0  0  0  0  0  0  0  0  0
   58.3040   26.5090   44.5390 C   0  0  0  0  0  0  0  0  0  0  0  0
   56.6660   29.5350   43.9880 C   0  0  0  0  0  0  0  0  0  0  0  0
   56.7650   30.9080   43.7400 C   0  0  0  0  0  0  0  0  0  0  0  0
   58.5120   33.8960   46.4800 N   0  0  0  0  0  0  0  0  0  0  0  0
   59.2180   34.8090   47.3760 C   0  0  0  0  0  0  0  0  0  0  0  0
   60.5770   34.2590   47.7170 C   0  0  0  0  0  0  0  0  0  0  0  0
   61.5350   34.0550   46.7090 C   0  0  0  0  0  0  0  0  0  0  0  0
   62.8050   33.5670   47.0300 C   0  0  0  0  0  0  0  0  0  0  0  0
   63.7240   33.3740   46.0530 F   0  0  0  0  0  0  0  0  0  0  0  0
   63.1290   33.2800   48.3600 C   0  0  0  0  0  0  0  0  0  0  0  0
   62.1850   33.4830   49.3690 C   0  0  0  0  0  0  0  0  0  0  0  0
   60.9130   33.9730   49.0540 C   0  0  0  0  0  0  0  0  0  0  0  0
   60.0120   34.1720   50.0500 F   0  0  0  0  0  0  0  0  0  0  0  0
   59.1816   31.7045   46.0199 H   0  0  0  0  0  0  0  0  0  0  0  0
   59.0133   29.2607   46.4631 H   0  0  0  0  0  0  0  0  0  0  0  0
   55.6726   27.7230   46.4528 H   0  0  0  0  0  0  0  0  0  0  0  0
   56.3260   25.4167   47.4528 H   0  0  0  0  0  0  0  0  0  0  0  0
   55.2087   25.2444   46.0204 H   0  0  0  0  0  0  0  0  0  0  0  0
   55.1924   22.3488   45.3457 H   0  0  0  0  0  0  0  0  0  0  0  0
   54.7711   23.4252   43.3732 H   0  0  0  0  0  0  0  0  0  0  0  0
   56.3738   24.1457   43.3821 H   0  0  0  0  0  0  0  0  0  0  0  0
   55.4873   22.1190   41.6300 H   0  0  0  0  0  0  0  0  0  0  0  0
   57.2099   22.5151   41.9450 H   0  0  0  0  0  0  0  0  0  0  0  0
   56.3292   20.3362   44.9682 H   0  0  0  0  0  0  0  0  0  0  0  0
   57.8348   21.1833   44.5016 H   0  0  0  0  0  0  0  0  0  0  0  0
   59.0526   25.4457   46.2597 H   0  0  0  0  0  0  0  0  0  0  0  0
   59.0481   24.4946   44.7348 H   0  0  0  0  0  0  0  0  0  0  0  0
   59.2824   26.9948   44.4093 H   0  0  0  0  0  0  0  0  0  0  0  0
   57.8641   26.2467   43.5655 H   0  0  0  0  0  0  0  0  0  0  0  0
   55.9458   28.9286   43.4192 H   0  0  0  0  0  0  0  0  0  0  0  0
   56.1164   31.3758   42.9847 H   0  0  0  0  0  0  0  0  0  0  0  0
   57.9610   33.1110   46.8970 H   0  0  0  0  0  0  0  0  0  0  0  0
   59.3349   35.7846   46.8816 H   0  0  0  0  0  0  0  0  0  0  0  0
   58.6355   34.9234   48.3021 H   0  0  0  0  0  0  0  0  0  0  0  0
   61.2841   34.2805   45.6620 H   0  0  0  0  0  0  0  0  0  0  0  0
   64.1280   32.8942   48.6114 H   0  0  0  0  0  0  0  0  0  0  0  0
   62.4423   33.2570   50.4143 H   0  0  0  0  0  0  0  0  0  0  0  0
  1  2  2  0
  2  3  1  0
  3  4  1  0
  4  5  2  0
  5  6  1  0
  6  7  2  0
  7  8  1  0
  8  9  2  0
  9 10  1  0
 10 11  1  0
 11 12  1  0
 12 13  2  0
 12 14  1  0
 14 15  1  0
 15 16  1  0
 16 17  1  0
 17 18  1  0
 11 19  1  0
 19 20  1  0
  7 21  1  0
 21 22  2  0
  2 23  1  0
 23 24  1  0
 24 25  1  0
 25 26  2  0
 26 27  1  0
 27 28  1  0
 27 29  2  0
 29 30  1  0
 30 31  2  0
 31 32  1  0
 22  4  1  0
 31 25  1  0
 20  8  1  0
 18 14  1  0
  5 33  1  0
  6 34  1  0
  9 35  1  0
 10 36  1  0
 10 37  1  0
 14 38  1  1
 15 39  1  0
 15 40  1  0
 16 41  1  0
 16 42  1  0
 18 43  1  0
 18 44  1  0
 19 45  1  0
 19 46  1  0
 20 47  1  0
 20 48  1  0
 21 49  1  0
 22 50  1  0
 23 51  1  0
 24 52  1  0
 24 53  1  0
 26 54  1  0
 29 55  1  0
 30 56  1  0
M  CHG  1   3  -1
M  END
>  <UniqueID>  (28) 
27

>  <SMILES>  (28) 
O=C([N-]c1ccc(C2=CCN(C(=O)[C@H]3CCOC3)CC2)cc1)NCc1cc(F)ccc1F

>  <Energy>  (28) 
70.05997641305083

>  <Genealogy>  (28) 
O=C([N-]c1ccc(C2=CCN(C(=O)C3CCOC3)CC2)cc1)NCc1cc(F)ccc1F (protonated)
O=C([N-]c1ccc(C2=CCN(C(=O)[C@H]3CCOC3)CC2)cc1)NCc1cc(F)ccc1F (chirality)
O=C([N-]c1ccc(C2=CCN(C(=O)[C@H]3CCOC3)CC2)cc1)NCc1cc(F)ccc1F (3D coordinates assigned)
O=C([N-]c1ccc(C2=CCN(C(=O)[C@H]3CCOC3)CC2)cc1)NCc1cc(F)ccc1F (nonaromatic ring conformer: 70.05997641305083 kcal/mol)

>  <smiles>  (28) 
O=C(NCc1cc(F)ccc1F)Nc1ccc(C2=CCN(C(=O)C3CCOC3)CC2)cc1

>  <score_type>  (28) 
oracle

>  <origin>  (28) 
adg

>  <m_score__min__energy>  (28) 
-10.6

>  <m_primary>  (28) 
energy

$$$$
28:0
     RDKit          3D

 51 53  0  0  0  0  0  0  0  0999 V2000
   64.4809   33.7232   47.7758 H   0  0  0  0  0  0  0  0  0  0  0  0
   63.5600   33.2720   47.3780 C   0  0  0  0  0  0  0  0  0  0  0  0
   63.3750   31.8220   47.5780 C   0  0  0  0  0  0  0  0  0  0  0  0
   63.7530   30.9940   46.7060 O   0  0  0  0  0  0  0  0  0  0  0  0
   62.8040   31.3600   48.8060 N   0  0  0  0  0  0  0  0  0  0  0  0
   61.3660   31.3120   49.0640 C   0  0  0  0  0  0  0  0  0  0  0  0
   60.9912   32.3076   49.3437 H   0  0  0  0  0  0  0  0  0  0  0  0
   61.0900   30.3630   50.2550 C   0  0  0  0  0  0  0  0  0  0  0  0
   61.9845   30.3259   50.8941 H   0  0  0  0  0  0  0  0  0  0  0  0
   60.2224   30.7540   50.8068 H   0  0  0  0  0  0  0  0  0  0  0  0
   60.7540   28.9410   49.7910 C   0  0  0  0  0  0  0  0  0  0  0  0
   61.6002   28.5452   49.2103 H   0  0  0  0  0  0  0  0  0  0  0  0
   60.5667   28.3227   50.6813 H   0  0  0  0  0  0  0  0  0  0  0  0
   59.4880   28.9180   48.9110 C   0  0  0  0  0  0  0  0  0  0  0  0
   59.5669   28.0744   48.2094 H   0  0  0  0  0  0  0  0  0  0  0  0
   58.6258   28.8192   49.5869 H   0  0  0  0  0  0  0  0  0  0  0  0
   59.2810   30.2110   48.0980 C   0  0  0  0  0  0  0  0  0  0  0  0
   58.7707   29.9623   47.1558 H   0  0  0  0  0  0  0  0  0  0  0  0
   58.6761   30.9036   48.7017 H   0  0  0  0  0  0  0  0  0  0  0  0
   60.6140   30.8950   47.7760 C   0  0  0  0  0  0  0  0  0  0  0  0
   61.2442   30.1977   47.2045 H   0  0  0  0  0  0  0  0  0  0  0  0
   60.4028   31.8026   47.1915 H   0  0  0  0  0  0  0  0  0  0  0  0
   62.6960   34.0860   46.7500 C   0  0  0  0  0  0  0  0  0  0  0  0
   63.1151   34.8363   46.0634 H   0  0  0  0  0  0  0  0  0  0  0  0
   61.2270   34.0540   46.9080 C   0  0  0  0  0  0  0  0  0  0  0  0
   60.6580   34.4720   48.1180 C   0  0  0  0  0  0  0  0  0  0  0  0
   61.3032   34.8509   48.9244 H   0  0  0  0  0  0  0  0  0  0  0  0
   59.2770   34.4100   48.3050 C   0  0  0  0  0  0  0  0  0  0  0  0
   58.8369   34.7457   49.2556 H   0  0  0  0  0  0  0  0  0  0  0  0
   58.4510   33.9230   47.2890 C   0  0  0  0  0  0  0  0  0  0  0  0
   57.3625   33.8836   47.4429 H   0  0  0  0  0  0  0  0  0  0  0  0
   58.9990   33.4830   46.0720 C   0  0  0  0  0  0  0  0  0  0  0  0
   58.0800   32.9620   45.0300 C   0  0  0  0  0  0  0  0  0  0  0  0
   57.1603   33.5287   44.8227 H   0  0  0  0  0  0  0  0  0  0  0  0
   58.3020   31.8420   44.3250 C   0  0  0  0  0  0  0  0  0  0  0  0
   59.2573   31.7359   43.7901 H   0  0  0  0  0  0  0  0  0  0  0  0
   57.3150   30.7450   44.2380 C   0  0  0  0  0  0  0  0  0  0  0  0
   56.2220   30.9750   43.6570 O   0  0  0  0  0  0  0  0  0  0  0  0
   57.5430   29.4080   44.8400 C   0  0  0  0  0  0  0  0  0  0  0  0
   58.8510   28.9740   45.1230 C   0  0  0  0  0  0  0  0  0  0  0  0
   59.7061   29.6210   44.8776 H   0  0  0  0  0  0  0  0  0  0  0  0
   59.0720   27.7260   45.7140 C   0  0  0  0  0  0  0  0  0  0  0  0
   60.7090   27.2000   46.0640 Cl  0  0  0  0  0  0  0  0  0  0  0  0
   57.9890   26.9040   46.0370 C   0  0  0  0  0  0  0  0  0  0  0  0
   58.1636   25.9206   46.4980 H   0  0  0  0  0  0  0  0  0  0  0  0
   56.6860   27.3300   45.7750 C   0  0  0  0  0  0  0  0  0  0  0  0
   55.8354   26.6834   46.0366 H   0  0  0  0  0  0  0  0  0  0  0  0
   56.4570   28.5760   45.1810 C   0  0  0  0  0  0  0  0  0  0  0  0
   55.1500   28.9690   44.9170 O   0  0  0  0  0  0  0  0  0  0  0  0
   60.3980   33.5250   45.9030 C   0  0  0  0  0  0  0  0  0  0  0  0
   60.8458   33.1398   44.9750 H   0  0  0  0  0  0  0  0  0  0  0  0
  1  2  1  0
  2  3  1  0
  3  4  2  0
  3  5  1  0
  5  6  1  0
  6  7  1  0
  6  8  1  0
  8  9  1  0
  8 10  1  0
  8 11  1  0
 11 12  1  0
 11 13  1  0
 11 14  1  0
 14 15  1  0
 14 16  1  0
 14 17  1  0
 17 18  1  0
 17 19  1  0
 17 20  1  0
 20 21  1  0
 20 22  1  0
  2 23  2  3
 23 24  1  0
 23 25  1  0
 25 26  2  0
 26 27  1  0
 26 28  1  0
 28 29  1  0
 28 30  2  0
 30 31  1  0
 30 32  1  0
 32 33  1  0
 33 34  1  0
 33 35  2  0
 35 36  1  0
 35 37  1  0
 37 38  2  0
 37 39  1  0
 39 40  2  0
 40 41  1  0
 40 42  1  0
 42 43  1  0
 42 44  2  0
 44 45  1  0
 44 46  1  0
 46 47  1  0
 46 48  2  0
 48 49  1  0
 32 50  2  0
 50 51  1  0
 20  6  1  0
 50 25  1  0
 48 39  1  0
M  CHG  2   5  -1  49  -1
M  END
>  <UniqueID>  (29) 
28

>  <SMILES>  (29) 
O=C(C=Cc1cccc(/C=C/C(=O)c2cc(Cl)ccc2[O-])c1)[N-]C1CCCCC1

>  <Energy>  (29) 
67.14242353938073

>  <Genealogy>  (29) 
O=C(C=Cc1cccc(C=CC(=O)c2cc(Cl)ccc2[O-])c1)[N-]C1CCCCC1 (protonated)
O=C(C=Cc1cccc(/C=C/C(=O)c2cc(Cl)ccc2[O-])c1)[N-]C1CCCCC1 (cis-trans isomerization)
O=C(C=Cc1cccc(/C=C/C(=O)c2cc(Cl)ccc2[O-])c1)[N-]C1CCCCC1 (3D coordinates assigned)
O=C(C=Cc1cccc(/C=C/C(=O)c2cc(Cl)ccc2[O-])c1)[N-]C1CCCCC1 (nonaromatic ring conformer: 67.14242353938073 kcal/mol)

>  <smiles>  (29) 
O=C(C=Cc1cccc(C=CC(=O)c2cc(Cl)ccc2O)c1)NC1CCCCC1

>  <score_type>  (29) 
oracle

>  <origin>  (29) 
adg

>  <m_score__min__energy>  (29) 
-14.630000000000001

>  <m_primary>  (29) 
energy

$$$$
29:0
     RDKit          3D

 56 59  0  0  0  0  0  0  0  0999 V2000
   58.8200   34.8200   44.8570 C   0  0  0  0  0  0  0  0  0  0  0  0
   58.3860   33.4740   45.3880 C   0  0  0  0  0  0  0  0  0  0  0  0
   58.5350   33.1390   46.7560 C   0  0  0  0  0  0  0  0  0  0  0  0
   59.1110   34.0950   47.7810 C   0  0  0  0  0  0  0  0  0  0  0  0
   60.3800   34.6700   47.3230 N   0  0  0  0  0  0  0  0  0  0  0  0
   61.7370   33.7160   47.8540 S   0  0  0  0  0  0  0  0  0  0  0  0
   62.1460   34.1720   49.2250 O   0  0  0  0  0  0  0  0  0  0  0  0
   62.8930   33.9220   46.9130 O   0  0  0  0  0  0  0  0  0  0  0  0
   61.3150   32.0070   47.9330 C   0  0  0  0  0  0  0  0  0  0  0  0
   60.9670   31.4110   49.1530 C   0  0  0  0  0  0  0  0  0  0  0  0
   60.6360   30.0540   49.2050 C   0  0  0  0  0  0  0  0  0  0  0  0
   60.6270   29.2830   48.0370 C   0  0  0  0  0  0  0  0  0  0  0  0
   60.2960   27.9240   48.1280 O   0  0  0  0  0  0  0  0  0  0  0  0
   59.2020   27.3140   47.4940 C   0  0  0  0  0  0  0  0  0  0  0  0
   58.3800   28.0140   46.5910 C   0  0  0  0  0  0  0  0  0  0  0  0
   57.2860   27.3800   45.9960 C   0  0  0  0  0  0  0  0  0  0  0  0
   56.9960   26.0360   46.2880 C   0  0  0  0  0  0  0  0  0  0  0  0
   55.8310   25.3650   45.6660 C   0  0  0  0  0  0  0  0  0  0  0  0
   54.6910   25.9030   45.7350 O   0  0  0  0  0  0  0  0  0  0  0  0
   55.9790   24.1190   44.9630 N   0  0  0  0  0  0  0  0  0  0  0  0
   55.1880   23.8750   43.7550 C   0  0  0  0  0  0  0  0  0  0  0  0
   55.9090   22.8540   42.8690 C   0  0  0  0  0  0  0  0  0  0  0  0
   56.2370   21.6890   43.6050 O   0  0  0  0  0  0  0  0  0  0  0  0
   57.1660   22.0090   44.6250 C   0  0  0  0  0  0  0  0  0  0  0  0
   56.5380   22.9530   45.6520 C   0  0  0  0  0  0  0  0  0  0  0  0
   57.8050   25.3500   47.2110 C   0  0  0  0  0  0  0  0  0  0  0  0
   58.8950   25.9870   47.8090 C   0  0  0  0  0  0  0  0  0  0  0  0
   60.9900   29.8780   46.8150 C   0  0  0  0  0  0  0  0  0  0  0  0
   61.3260   31.2340   46.7650 C   0  0  0  0  0  0  0  0  0  0  0  0
   58.1610   31.8530   47.1740 C   0  0  0  0  0  0  0  0  0  0  0  0
   57.6250   30.9780   46.2880 N   0  0  0  0  0  0  0  0  0  0  0  0
   57.4530   31.3010   45.0080 N   0  0  0  0  0  0  0  0  0  0  0  0
   57.8150   32.5160   44.5240 C   0  0  0  0  0  0  0  0  0  0  0  0
   57.6310   32.7680   43.3030 O   0  0  0  0  0  0  0  0  0  0  0  0
   59.0372   35.4937   45.6990 H   0  0  0  0  0  0  0  0  0  0  0  0
   59.7242   34.6976   44.2427 H   0  0  0  0  0  0  0  0  0  0  0  0
   58.0146   35.2488   44.2427 H   0  0  0  0  0  0  0  0  0  0  0  0
   58.3917   34.9087   47.9553 H   0  0  0  0  0  0  0  0  0  0  0  0
   59.2996   33.5351   48.7089 H   0  0  0  0  0  0  0  0  0  0  0  0
   60.9543   32.0136   50.0732 H   0  0  0  0  0  0  0  0  0  0  0  0
   60.3812   29.5896   50.1691 H   0  0  0  0  0  0  0  0  0  0  0  0
   58.5998   29.0651   46.3525 H   0  0  0  0  0  0  0  0  0  0  0  0
   56.6474   27.9366   45.2943 H   0  0  0  0  0  0  0  0  0  0  0  0
   54.1999   23.4825   44.0370 H   0  0  0  0  0  0  0  0  0  0  0  0
   55.0643   24.8176   43.2016 H   0  0  0  0  0  0  0  0  0  0  0  0
   55.2527   22.5776   42.0306 H   0  0  0  0  0  0  0  0  0  0  0  0
   56.8390   23.3073   42.4954 H   0  0  0  0  0  0  0  0  0  0  0  0
   57.4806   21.0838   45.1300 H   0  0  0  0  0  0  0  0  0  0  0  0
   58.0333   22.5090   44.1691 H   0  0  0  0  0  0  0  0  0  0  0  0
   55.7371   22.4271   46.1924 H   0  0  0  0  0  0  0  0  0  0  0  0
   57.3065   23.2821   46.3669 H   0  0  0  0  0  0  0  0  0  0  0  0
   57.5779   24.3039   47.4641 H   0  0  0  0  0  0  0  0  0  0  0  0
   59.5166   25.4402   48.5334 H   0  0  0  0  0  0  0  0  0  0  0  0
   61.0095   29.2742   45.8957 H   0  0  0  0  0  0  0  0  0  0  0  0
   61.6000   31.6956   45.8049 H   0  0  0  0  0  0  0  0  0  0  0  0
   58.3030   31.5540   48.2230 H   0  0  0  0  0  0  0  0  0  0  0  0
  1  2  1  0
  2  3  2  0
  3  4  1  0
  4  5  1  0
  5  6  1  0
  6  7  2  0
  6  8  2  0
  6  9  1  0
  9 10  2  0
 10 11  1  0
 11 12  2  0
 12 13  1  0
 13 14  1  0
 14 15  2  0
 15 16  1  0
 16 17  2  0
 17 18  1  0
 18 19  2  0
 18 20  1  0
 20 21  1  0
 21 22  1  0
 22 23  1  0
 23 24  1  0
 24 25  1  0
 17 26  1  0
 26 27  2  0
 12 28  1  0
 28 29  2  0
  3 30  1  0
 30 31  2  0
 31 32  1  0
 32 33  1  0
 33 34  2  0
 33  2  1  0
 29  9  1  0
 27 14  1  0
 25 20  1  0
  1 35  1  0
  1 36  1  0
  1 37  1  0
  4 38  1  0
  4 39  1  0
 10 40  1  0
 11 41  1  0
 15 42  1  0
 16 43  1  0
 21 44  1  0
 21 45  1  0
 22 46  1  0
 22 47  1  0
 24 48  1  0
 24 49  1  0
 25 50  1  0
 25 51  1  0
 26 52  1  0
 27 53  1  0
 28 54  1  0
 29 55  1  0
 30 56  1  0
M  CHG  2   5  -1  32  -1
M  END
>  <UniqueID>  (30) 
29

>  <SMILES>  (30) 
Cc1c(C[N-]S(=O)(=O)c2ccc(Oc3ccc(C(=O)N4CCOCC4)cc3)cc2)cn[n-]c1=O

>  <Energy>  (30) 
74.40952525542295

>  <Genealogy>  (30) 
Cc1c(C[N-]S(=O)(=O)c2ccc(Oc3ccc(C(=O)N4CCOCC4)cc3)cc2)cn[n-]c1=O (protonated)
Cc1c(C[N-]S(=O)(=O)c2ccc(Oc3ccc(C(=O)N4CCOCC4)cc3)cc2)cn[n-]c1=O (3D coordinates assigned)
Cc1c(C[N-]S(=O)(=O)c2ccc(Oc3ccc(C(=O)N4CCOCC4)cc3)cc2)cn[n-]c1=O (nonaromatic ring conformer: 74.40952525542295 kcal/mol)

>  <smiles>  (30) 
Cc1c(CNS(=O)(=O)c2ccc(Oc3ccc(C(=O)N4CCOCC4)cc3)cc2)cn[nH]c1=O

>  <score_type>  (30) 
oracle

>  <origin>  (30) 
adg

>  <m_score__min__energy>  (30) 
-13.029999999999999

>  <m_primary>  (30) 
energy

$$$$
30:0
     RDKit          3D

 50 52  0  0  0  0  0  0  0  0999 V2000
   62.7510   33.8450   46.7280 C   0  0  0  0  0  0  0  0  0  0  0  0
   63.8040   33.5030   47.4760 C   0  0  0  0  0  0  0  0  0  0  0  0
   63.6570   33.1590   48.9300 C   0  0  0  0  0  0  0  0  0  0  0  0
   62.3340   32.5910   49.1860 N   0  0  0  0  0  0  0  0  0  0  0  0
   61.9350   31.4190   48.7200 N   0  0  0  0  0  0  0  0  0  0  0  0
   60.6870   31.1980   49.1910 C   0  0  0  0  0  0  0  0  0  0  0  0
   59.8960   29.9940   48.8940 C   0  0  0  0  0  0  0  0  0  0  0  0
   58.6920   29.9350   49.2640 O   0  0  0  0  0  0  0  0  0  0  0  0
   60.4850   28.8940   48.1880 N   0  0  0  0  0  0  0  0  0  0  0  0
   59.7150   27.6910   47.8730 C   0  0  0  0  0  0  0  0  0  0  0  0
   58.9350   27.8780   46.5920 C   0  0  0  0  0  0  0  0  0  0  0  0
   58.3920   29.1440   46.3100 C   0  0  0  0  0  0  0  0  0  0  0  0
   57.6500   29.3650   45.1410 C   0  0  0  0  0  0  0  0  0  0  0  0
   57.0770   30.6990   44.8700 C   0  0  0  0  0  0  0  0  0  0  0  0
   55.8910   30.7770   44.4490 O   0  0  0  0  0  0  0  0  0  0  0  0
   57.8350   31.9040   45.0830 N   0  0  0  0  0  0  0  0  0  0  0  0
   58.8960   32.0280   46.0710 C   0  0  0  0  0  0  0  0  0  0  0  0
   59.3480   33.4800   46.0100 C   0  0  0  0  0  0  0  0  0  0  0  0
   58.2390   34.2360   45.2830 C   0  0  0  0  0  0  0  0  0  0  0  0
   57.4420   33.1840   44.5200 C   0  0  0  0  0  0  0  0  0  0  0  0
   57.4140   28.2970   44.2660 C   0  0  0  0  0  0  0  0  0  0  0  0
   57.9310   27.0300   44.5420 C   0  0  0  0  0  0  0  0  0  0  0  0
   58.6860   26.8030   45.7040 C   0  0  0  0  0  0  0  0  0  0  0  0
   59.2260   25.4210   45.9690 C   0  0  0  0  0  0  0  0  0  0  0  0
   60.2820   32.2590   49.9880 C   0  0  0  0  0  0  0  0  0  0  0  0
   61.3610   33.1120   49.9570 C   0  0  0  0  0  0  0  0  0  0  0  0
   61.4380   34.2150   50.5580 O   0  0  0  0  0  0  0  0  0  0  0  0
   62.8885   34.0921   45.6650 H   0  0  0  0  0  0  0  0  0  0  0  0
   61.7466   33.8794   47.1752 H   0  0  0  0  0  0  0  0  0  0  0  0
   64.8025   33.4728   47.0155 H   0  0  0  0  0  0  0  0  0  0  0  0
   64.4272   32.4248   49.2089 H   0  0  0  0  0  0  0  0  0  0  0  0
   63.7751   34.0747   49.5280 H   0  0  0  0  0  0  0  0  0  0  0  0
   61.4860   28.9570   47.8940 H   0  0  0  0  0  0  0  0  0  0  0  0
   60.4038   26.8414   47.7559 H   0  0  0  0  0  0  0  0  0  0  0  0
   59.0080   27.4979   48.6933 H   0  0  0  0  0  0  0  0  0  0  0  0
   58.5515   29.9723   47.0161 H   0  0  0  0  0  0  0  0  0  0  0  0
   58.5157   31.7865   47.0745 H   0  0  0  0  0  0  0  0  0  0  0  0
   59.7255   31.3356   45.8650 H   0  0  0  0  0  0  0  0  0  0  0  0
   59.4821   33.8815   47.0253 H   0  0  0  0  0  0  0  0  0  0  0  0
   60.3119   33.5803   45.4896 H   0  0  0  0  0  0  0  0  0  0  0  0
   57.5926   34.7546   46.0063 H   0  0  0  0  0  0  0  0  0  0  0  0
   58.6495   34.9994   44.6057 H   0  0  0  0  0  0  0  0  0  0  0  0
   56.3628   33.3474   44.6567 H   0  0  0  0  0  0  0  0  0  0  0  0
   57.6424   33.2295   43.4394 H   0  0  0  0  0  0  0  0  0  0  0  0
   56.8176   28.4576   43.3558 H   0  0  0  0  0  0  0  0  0  0  0  0
   57.7452   26.2016   43.8426 H   0  0  0  0  0  0  0  0  0  0  0  0
   59.2910   25.2546   47.0544 H   0  0  0  0  0  0  0  0  0  0  0  0
   58.5540   24.6730   45.5230 H   0  0  0  0  0  0  0  0  0  0  0  0
   60.2271   25.3268   45.5230 H   0  0  0  0  0  0  0  0  0  0  0  0
   59.3267   32.3875   50.5179 H   0  0  0  0  0  0  0  0  0  0  0  0
  1  2  2  0
  2  3  1  0
  3  4  1  0
  4  5  1  0
  5  6  1  0
  6  7  1  0
  7  8  2  0
  7  9  1  0
  9 10  1  0
 10 11  1  0
 11 12  2  0
 12 13  1  0
 13 14  1  0
 14 15  2  0
 14 16  1  0
 16 17  1  0
 17 18  1  0
 18 19  1  0
 19 20  1  0
 13 21  2  0
 21 22  1  0
 22 23  2  0
 23 24  1  0
  6 25  2  0
 25 26  1  0
 26 27  2  0
 26  4  1  0
 23 11  1  0
 20 16  1  0
  1 28  1  0
  1 29  1  0
  2 30  1  0
  3 31  1  0
  3 32  1  0
  9 33  1  0
 10 34  1  0
 10 35  1  0
 12 36  1  0
 17 37  1  0
 17 38  1  0
 18 39  1  0
 18 40  1  0
 19 41  1  0
 19 42  1  0
 20 43  1  0
 20 44  1  0
 21 45  1  0
 22 46  1  0
 24 47  1  0
 24 48  1  0
 24 49  1  0
 25 50  1  0
M  CHG  1   5  -1
M  END
>  <UniqueID>  (31) 
30

>  <SMILES>  (31) 
C=CCn1[n-]c(C(=O)NCc2cc(C(=O)N3CCCC3)ccc2C)cc1=O

>  <Energy>  (31) 
80.95241761425942

>  <Genealogy>  (31) 
C=CCn1[n-]c(C(=O)NCc2cc(C(=O)N3CCCC3)ccc2C)cc1=O (protonated)
C=CCn1[n-]c(C(=O)NCc2cc(C(=O)N3CCCC3)ccc2C)cc1=O (3D coordinates assigned)
C=CCn1[n-]c(C(=O)NCc2cc(C(=O)N3CCCC3)ccc2C)cc1=O (nonaromatic ring conformer: 80.95241761425942 kcal/mol)

>  <smiles>  (31) 
C=CCn1[nH]c(C(=O)NCc2cc(C(=O)N3CCCC3)ccc2C)cc1=O

>  <score_type>  (31) 
oracle

>  <origin>  (31) 
adg

>  <m_score__min__energy>  (31) 
-10.23

>  <m_primary>  (31) 
energy

$$$$
31:0
     RDKit          3D

 49 52  0  0  0  0  0  0  0  0999 V2000
   67.3640   31.3360   51.3060 N   0  0  0  0  0  0  0  0  0  0  0  0
   66.5150   32.2140   50.5620 C   0  0  0  0  0  0  0  0  0  0  0  0
   67.0400   33.0320   49.7580 O   0  0  0  0  0  0  0  0  0  0  0  0
   65.0380   32.1710   50.7040 C   0  0  0  0  0  0  0  0  0  0  0  0
   64.4360   31.7190   51.8910 C   0  0  0  0  0  0  0  0  0  0  0  0
   63.0450   31.6860   52.0080 C   0  0  0  0  0  0  0  0  0  0  0  0
   62.2380   32.1080   50.9510 C   0  0  0  0  0  0  0  0  0  0  0  0
   62.8150   32.5760   49.7590 C   0  0  0  0  0  0  0  0  0  0  0  0
   61.9570   33.0320   48.6350 C   0  0  0  0  0  0  0  0  0  0  0  0
   62.5290   33.4250   47.4130 C   0  0  0  0  0  0  0  0  0  0  0  0
   61.7220   33.8540   46.3560 C   0  0  0  0  0  0  0  0  0  0  0  0
   60.3220   33.9020   46.4930 C   0  0  0  0  0  0  0  0  0  0  0  0
   59.4840   34.3610   45.3480 C   0  0  0  0  0  0  0  0  0  0  0  0
   59.3110   35.5970   45.1640 O   0  0  0  0  0  0  0  0  0  0  0  0
   58.8490   33.4100   44.3700 C   0  0  0  0  0  0  0  0  0  0  0  0
   57.3560   33.2430   44.6670 C   0  0  0  0  0  0  0  0  0  0  0  0
   57.0200   31.7980   44.8440 C   0  0  0  0  0  0  0  0  0  0  0  0
   55.8540   31.2410   44.4720 N   0  0  0  0  0  0  0  0  0  0  0  0
   55.9500   29.9530   44.7640 N   0  0  0  0  0  0  0  0  0  0  0  0
   57.1750   29.7720   45.3000 C   0  0  0  0  0  0  0  0  0  0  0  0
   57.7110   28.4750   45.7710 C   0  0  0  0  0  0  0  0  0  0  0  0
   59.0820   28.3700   46.0720 C   0  0  0  0  0  0  0  0  0  0  0  0
   59.6200   27.1600   46.5200 C   0  0  0  0  0  0  0  0  0  0  0  0
   58.7990   26.0420   46.6710 C   0  0  0  0  0  0  0  0  0  0  0  0
   57.4380   26.1300   46.3770 C   0  0  0  0  0  0  0  0  0  0  0  0
   56.8880   27.3370   45.9280 C   0  0  0  0  0  0  0  0  0  0  0  0
   55.5270   27.3890   45.6440 O   0  0  0  0  0  0  0  0  0  0  0  0
   57.8360   30.9050   45.3480 O   0  0  0  0  0  0  0  0  0  0  0  0
   59.7530   33.5060   47.7180 C   0  0  0  0  0  0  0  0  0  0  0  0
   60.5610   33.0780   48.7740 C   0  0  0  0  0  0  0  0  0  0  0  0
   64.2180   32.6070   49.6460 C   0  0  0  0  0  0  0  0  0  0  0  0
   66.9810   30.5410   51.8620 H   0  0  0  0  0  0  0  0  0  0  0  0
   68.4010   31.4290   51.2300 H   0  0  0  0  0  0  0  0  0  0  0  0
   65.0639   31.3896   52.7320 H   0  0  0  0  0  0  0  0  0  0  0  0
   62.5828   31.3253   52.9387 H   0  0  0  0  0  0  0  0  0  0  0  0
   61.1432   32.0740   51.0518 H   0  0  0  0  0  0  0  0  0  0  0  0
   63.6214   33.3946   47.2875 H   0  0  0  0  0  0  0  0  0  0  0  0
   62.1861   34.1577   45.4061 H   0  0  0  0  0  0  0  0  0  0  0  0
   58.9722   33.8050   43.3508 H   0  0  0  0  0  0  0  0  0  0  0  0
   59.3391   32.4295   44.4619 H   0  0  0  0  0  0  0  0  0  0  0  0
   57.1063   33.7890   45.5887 H   0  0  0  0  0  0  0  0  0  0  0  0
   56.7765   33.6438   43.8223 H   0  0  0  0  0  0  0  0  0  0  0  0
   59.7353   29.2471   45.9538 H   0  0  0  0  0  0  0  0  0  0  0  0
   60.6925   27.0892   46.7539 H   0  0  0  0  0  0  0  0  0  0  0  0
   59.2251   25.0906   47.0221 H   0  0  0  0  0  0  0  0  0  0  0  0
   56.7937   25.2468   46.4985 H   0  0  0  0  0  0  0  0  0  0  0  0
   58.6607   33.5339   47.8451 H   0  0  0  0  0  0  0  0  0  0  0  0
   60.0984   32.7738   49.7245 H   0  0  0  0  0  0  0  0  0  0  0  0
   64.6797   32.9769   48.7186 H   0  0  0  0  0  0  0  0  0  0  0  0
  1  2  1  0
  2  3  2  0
  2  4  1  0
  4  5  2  0
  5  6  1  0
  6  7  2  0
  7  8  1  0
  8  9  1  0
  9 10  2  0
 10 11  1  0
 11 12  2  0
 12 13  1  0
 13 14  2  0
 13 15  1  0
 15 16  1  0
 16 17  1  0
 17 18  2  0
 18 19  1  0
 19 20  2  0
 20 21  1  0
 21 22  2  0
 22 23  1  0
 23 24  2  0
 24 25  1  0
 25 26  2  0
 26 27  1  0
 20 28  1  0
 12 29  1  0
 29 30  2  0
  8 31  2  0
 31  4  1  0
 30  9  1  0
 28 17  1  0
 26 21  1  0
  1 32  1  0
  1 33  1  0
  5 34  1  0
  6 35  1  0
  7 36  1  0
 10 37  1  0
 11 38  1  0
 15 39  1  0
 15 40  1  0
 16 41  1  0
 16 42  1  0
 22 43  1  0
 23 44  1  0
 24 45  1  0
 25 46  1  0
 29 47  1  0
 30 48  1  0
 31 49  1  0
M  CHG  1  27  -1
M  END
>  <UniqueID>  (32) 
31

>  <SMILES>  (32) 
NC(=O)c1cccc(-c2ccc(C(=O)CCc3nnc(-c4ccccc4[O-])o3)cc2)c1

>  <Energy>  (32) 
94.50848461615061

>  <Genealogy>  (32) 
NC(=O)c1cccc(-c2ccc(C(=O)CCc3nnc(-c4ccccc4[O-])o3)cc2)c1 (protonated)
NC(=O)c1cccc(-c2ccc(C(=O)CCc3nnc(-c4ccccc4[O-])o3)cc2)c1 (3D coordinates assigned)
NC(=O)c1cccc(-c2ccc(C(=O)CCc3nnc(-c4ccccc4[O-])o3)cc2)c1 (optimized conformer: 94.50848461615061 kcal/mol)

>  <smiles>  (32) 
NC(=O)c1cccc(-c2ccc(C(=O)CCc3nnc(-c4ccccc4O)o3)cc2)c1

>  <score_type>  (32) 
oracle

>  <origin>  (32) 
adg

>  <m_score__min__energy>  (32) 
-13.890000000000001

>  <m_primary>  (32) 
energy

$$$$
32:0
     RDKit          3D

 51 53  0  0  0  0  0  0  0  0999 V2000
   55.4730   29.5720   44.8340 N   0  0  0  0  0  0  0  0  0  0  0  0
   56.1400   30.0910   43.6860 C   0  0  0  0  0  0  0  0  0  0  0  0
   55.8940   29.6100   42.5480 O   0  0  0  0  0  0  0  0  0  0  0  0
   57.0990   31.2260   43.8320 C   0  0  0  0  0  0  0  0  0  0  0  0
   56.7730   31.9750   44.9990 O   0  0  0  0  0  0  0  0  0  0  0  0
   57.7110   32.6520   45.7940 C   0  0  0  0  0  0  0  0  0  0  0  0
   57.4400   33.0370   47.1210 C   0  0  0  0  0  0  0  0  0  0  0  0
   58.4160   33.6910   47.8790 C   0  0  0  0  0  0  0  0  0  0  0  0
   59.6690   33.9840   47.3200 C   0  0  0  0  0  0  0  0  0  0  0  0
   60.7420   34.6320   48.1500 C   0  0  0  0  0  0  0  0  0  0  0  0
   60.9330   33.8610   49.3840 N   0  0  0  0  0  0  0  0  0  0  0  0
   61.8460   32.7250   49.1890 C   0  0  0  0  0  0  0  0  0  0  0  0
   61.1950   31.5910   48.4340 C   0  0  0  0  0  0  0  0  0  0  0  0
   60.0440   30.9700   48.9240 C   0  0  0  0  0  0  0  0  0  0  0  0
   59.4740   29.9540   48.2290 N   0  0  0  0  0  0  0  0  0  0  0  0
   59.9940   29.5100   47.0520 C   0  0  0  0  0  0  0  0  0  0  0  0
   59.3370   28.4330   46.3350 N   0  0  0  0  0  0  0  0  0  0  0  0
   59.1690   27.1110   46.9620 C   0  0  0  0  0  0  0  0  0  0  0  0
   57.7490   26.5730   46.7310 C   0  0  0  0  0  0  0  0  0  0  0  0
   57.2310   26.7820   45.2910 C   0  0  0  0  0  0  0  0  0  0  0  0
   58.2970   27.3410   44.3440 C   0  0  0  0  0  0  0  0  0  0  0  0
   58.9230   28.6130   44.9310 C   0  0  0  0  0  0  0  0  0  0  0  0
   61.1280   30.1020   46.5640 N   0  0  0  0  0  0  0  0  0  0  0  0
   61.7310   31.1200   47.2320 C   0  0  0  0  0  0  0  0  0  0  0  0
   59.9390   33.5980   45.9980 C   0  0  0  0  0  0  0  0  0  0  0  0
   58.9630   32.9440   45.2410 C   0  0  0  0  0  0  0  0  0  0  0  0
   55.1510   28.5800   44.8640 H   0  0  0  0  0  0  0  0  0  0  0  0
   58.1221   30.8324   43.9227 H   0  0  0  0  0  0  0  0  0  0  0  0
   57.0341   31.8773   42.9479 H   0  0  0  0  0  0  0  0  0  0  0  0
   56.4560   32.8223   47.5633 H   0  0  0  0  0  0  0  0  0  0  0  0
   58.2003   33.9773   48.9190 H   0  0  0  0  0  0  0  0  0  0  0  0
   61.6833   34.6542   47.5813 H   0  0  0  0  0  0  0  0  0  0  0  0
   60.4430   35.6605   48.4008 H   0  0  0  0  0  0  0  0  0  0  0  0
   61.3200   34.4930   50.1250 H   0  0  0  0  0  0  0  0  0  0  0  0
   62.7237   33.0695   48.6225 H   0  0  0  0  0  0  0  0  0  0  0  0
   62.1320   32.3483   50.1821 H   0  0  0  0  0  0  0  0  0  0  0  0
   59.5999   31.3046   49.8731 H   0  0  0  0  0  0  0  0  0  0  0  0
   59.8955   26.4100   46.5252 H   0  0  0  0  0  0  0  0  0  0  0  0
   59.3358   27.2110   48.0447 H   0  0  0  0  0  0  0  0  0  0  0  0
   57.7471   25.4945   46.9474 H   0  0  0  0  0  0  0  0  0  0  0  0
   57.0799   27.1368   47.3977 H   0  0  0  0  0  0  0  0  0  0  0  0
   56.8874   25.8135   44.8986 H   0  0  0  0  0  0  0  0  0  0  0  0
   56.4162   27.5194   45.3394 H   0  0  0  0  0  0  0  0  0  0  0  0
   59.0828   26.5854   44.1970 H   0  0  0  0  0  0  0  0  0  0  0  0
   57.8242   27.5883   43.3821 H   0  0  0  0  0  0  0  0  0  0  0  0
   59.8062   28.8818   44.3329 H   0  0  0  0  0  0  0  0  0  0  0  0
   58.1631   29.4078   44.9021 H   0  0  0  0  0  0  0  0  0  0  0  0
   61.5610   29.7930   45.6670 H   0  0  0  0  0  0  0  0  0  0  0  0
   62.6456   31.5758   46.8248 H   0  0  0  0  0  0  0  0  0  0  0  0
   60.9233   33.8112   45.5556 H   0  0  0  0  0  0  0  0  0  0  0  0
   59.1807   32.6564   44.2018 H   0  0  0  0  0  0  0  0  0  0  0  0
  1  2  1  0
  2  3  2  0
  2  4  1  0
  4  5  1  0
  5  6  1  0
  6  7  2  0
  7  8  1  0
  8  9  2  0
  9 10  1  0
 10 11  1  0
 11 12  1  0
 12 13  1  0
 13 14  2  0
 14 15  1  0
 15 16  2  0
 16 17  1  0
 17 18  1  0
 18 19  1  0
 19 20  1  0
 20 21  1  0
 21 22  1  0
 16 23  1  0
 23 24  2  0
  9 25  1  0
 25 26  2  0
 26  6  1  0
 24 13  1  0
 22 17  1  0
  1 27  1  0
  4 28  1  0
  4 29  1  0
  7 30  1  0
  8 31  1  0
 10 32  1  0
 10 33  1  0
 11 34  1  0
 12 35  1  0
 12 36  1  0
 14 37  1  0
 18 38  1  0
 18 39  1  0
 19 40  1  0
 19 41  1  0
 20 42  1  0
 20 43  1  0
 21 44  1  0
 21 45  1  0
 22 46  1  0
 22 47  1  0
 23 48  1  0
 24 49  1  0
 25 50  1  0
 26 51  1  0
M  CHG  2   1  -1  23   1
M  END
>  <UniqueID>  (33) 
32

>  <SMILES>  (33) 
[NH-]C(=O)COc1ccc(CNCc2cnc(N3CCCCC3)[nH+]c2)cc1

>  <Energy>  (33) 
51.975077950154045

>  <Genealogy>  (33) 
[NH-]C(=O)COc1ccc(CNCc2cnc(N3CCCCC3)[nH+]c2)cc1 (protonated)
[NH-]C(=O)COc1ccc(CNCc2cnc(N3CCCCC3)[nH+]c2)cc1 (3D coordinates assigned)
[NH-]C(=O)COc1ccc(CNCc2cnc(N3CCCCC3)[nH+]c2)cc1 (nonaromatic ring conformer: 51.975077950154045 kcal/mol)

>  <smiles>  (33) 
NC(=O)COc1ccc(CNCc2cnc(N3CCCCC3)nc2)cc1

>  <score_type>  (33) 
oracle

>  <origin>  (33) 
adg

>  <m_score__min__energy>  (33) 
-9.5099999999999998

>  <m_primary>  (33) 
energy

$$$$
33:0
     RDKit          3D

 54 58  0  0  0  0  0  0  0  0999 V2000
   55.8830   29.5110   44.9780 C   0  0  0  0  0  0  0  0  0  0  0  0
   56.5530   28.3830   45.2550 C   0  0  0  0  0  0  0  0  0  0  0  0
   55.8050   27.3100   45.6150 N   0  0  0  0  0  0  0  0  0  0  0  0
   56.3450   26.1680   46.0960 C   0  0  0  0  0  0  0  0  0  0  0  0
   55.5810   25.2050   46.3760 O   0  0  0  0  0  0  0  0  0  0  0  0
   57.6950   26.0740   46.2920 N   0  0  0  0  0  0  0  0  0  0  0  0
   58.2800   24.8330   46.8410 C   0  0  0  0  0  0  0  0  0  0  0  0
   58.4850   23.8030   45.7100 C   0  0  0  0  0  0  0  0  0  0  0  0
   57.2350   23.3260   45.0780 N   0  0  0  0  0  0  0  0  0  0  0  0
   57.0420   21.8590   45.1110 C   0  0  0  0  0  0  0  0  0  0  0  0
   57.1620   21.2460   43.7040 C   0  0  0  0  0  0  0  0  0  0  0  0
   56.2420   21.7860   42.7620 O   0  0  0  0  0  0  0  0  0  0  0  0
   55.8860   23.1400   43.0100 C   0  0  0  0  0  0  0  0  0  0  0  0
   56.9640   23.9400   43.7620 C   0  0  0  0  0  0  0  0  0  0  0  0
   58.5140   27.1050   45.8980 C   0  0  0  0  0  0  0  0  0  0  0  0
   59.7660   26.9880   46.0400 O   0  0  0  0  0  0  0  0  0  0  0  0
   57.9770   28.2760   45.2960 C   0  0  0  0  0  0  0  0  0  0  0  0
   58.8450   29.1780   44.7520 C   0  0  0  0  0  0  0  0  0  0  0  0
   59.1280   30.5510   45.2370 C   0  0  0  0  0  0  0  0  0  0  0  0
   59.9730   30.8070   46.3500 C   0  0  0  0  0  0  0  0  0  0  0  0
   60.5880   29.7430   47.0930 N   0  0  0  0  0  0  0  0  0  0  0  0
   60.1550   32.1000   46.7360 N   0  0  0  0  0  0  0  0  0  0  0  0
   60.9200   32.4850   47.7560 N   0  0  0  0  0  0  0  0  0  0  0  0
   60.8880   33.8270   47.9450 C   0  0  0  0  0  0  0  0  0  0  0  0
   61.6590   34.5440   49.0100 C   0  0  0  0  0  0  0  0  0  0  0  0
   61.8660   33.7100   50.2660 C   0  0  0  0  0  0  0  0  0  0  0  0
   63.0370   33.9820   49.3370 C   0  0  0  0  0  0  0  0  0  0  0  0
   59.8910   34.6020   46.8120 S   0  0  0  0  0  0  0  0  0  0  0  0
   59.5280   33.1190   46.1130 C   0  0  0  0  0  0  0  0  0  0  0  0
   58.6930   32.9130   45.0700 N   0  0  0  0  0  0  0  0  0  0  0  0
   58.4800   31.6470   44.6220 C   0  0  0  0  0  0  0  0  0  0  0  0
   57.7010   31.4640   43.6480 O   0  0  0  0  0  0  0  0  0  0  0  0
   56.4309   30.4170   44.6798 H   0  0  0  0  0  0  0  0  0  0  0  0
   54.7855   29.5303   45.0489 H   0  0  0  0  0  0  0  0  0  0  0  0
   59.2503   25.0619   47.3060 H   0  0  0  0  0  0  0  0  0  0  0  0
   57.5965   24.4128   47.5936 H   0  0  0  0  0  0  0  0  0  0  0  0
   59.1076   24.2677   44.9313 H   0  0  0  0  0  0  0  0  0  0  0  0
   58.9570   22.9229   46.1712 H   0  0  0  0  0  0  0  0  0  0  0  0
   57.8069   21.4118   45.7629 H   0  0  0  0  0  0  0  0  0  0  0  0
   56.0324   21.6507   45.4949 H   0  0  0  0  0  0  0  0  0  0  0  0
   58.1823   21.4245   43.3338 H   0  0  0  0  0  0  0  0  0  0  0  0
   56.9305   20.1750   43.8003 H   0  0  0  0  0  0  0  0  0  0  0  0
   55.7005   23.6320   42.0438 H   0  0  0  0  0  0  0  0  0  0  0  0
   54.9939   23.1231   43.6533 H   0  0  0  0  0  0  0  0  0  0  0  0
   57.8898   23.9482   43.1681 H   0  0  0  0  0  0  0  0  0  0  0  0
   56.6044   24.9683   43.9147 H   0  0  0  0  0  0  0  0  0  0  0  0
   59.3943   28.8513   43.8567 H   0  0  0  0  0  0  0  0  0  0  0  0
   61.2220   29.9250   47.9010 H   0  0  0  0  0  0  0  0  0  0  0  0
   60.4720   28.7500   46.7940 H   0  0  0  0  0  0  0  0  0  0  0  0
   61.2804   35.5493   48.7732 H   0  0  0  0  0  0  0  0  0  0  0  0
   61.8271   34.1882   51.2559 H   0  0  0  0  0  0  0  0  0  0  0  0
   61.3995   32.8057   50.6839 H   0  0  0  0  0  0  0  0  0  0  0  0
   63.8453   34.6573   49.6542 H   0  0  0  0  0  0  0  0  0  0  0  0
   63.7685   33.3568   48.8040 H   0  0  0  0  0  0  0  0  0  0  0  0
  1  2  2  0
  2  3  1  0
  3  4  1  0
  4  5  2  0
  4  6  1  0
  6  7  1  0
  7  8  1  0
  8  9  1  0
  9 10  1  0
 10 11  1  0
 11 12  1  0
 12 13  1  0
 13 14  1  0
  6 15  1  0
 15 16  2  0
 15 17  1  0
 17 18  2  3
 18 19  1  0
 19 20  2  0
 20 21  1  0
 20 22  1  0
 22 23  1  0
 23 24  2  0
 24 25  1  0
 25 26  1  0
 26 27  1  0
 24 28  1  0
 28 29  1  0
 29 30  2  0
 30 31  1  0
 31 32  2  0
 17  2  1  0
 31 19  1  0
 14  9  1  0
 29 22  1  0
 27 25  1  0
  1 33  1  0
  1 34  1  0
  7 35  1  0
  7 36  1  0
  8 37  1  0
  8 38  1  0
 10 39  1  0
 10 40  1  0
 11 41  1  0
 11 42  1  0
 13 43  1  0
 13 44  1  0
 14 45  1  0
 14 46  1  0
 18 47  1  0
 21 48  1  0
 21 49  1  0
 25 50  1  0
 26 51  1  0
 26 52  1  0
 27 53  1  0
 27 54  1  0
M  CHG  1   3  -1
M  END
>  <UniqueID>  (34) 
33

>  <SMILES>  (34) 
C=c1[n-]c(=O)n(CCN2CCOCC2)c(=O)c1=Cc1c(N)n2nc(C3CC3)sc2nc1=O

>  <Energy>  (34) 
403.9533545419479

>  <Genealogy>  (34) 
C=c1[n-]c(=O)n(CCN2CCOCC2)c(=O)c1=Cc1c(N)n2nc(C3CC3)sc2nc1=O (protonated)
C=c1[n-]c(=O)n(CCN2CCOCC2)c(=O)c1=Cc1c(N)n2nc(C3CC3)sc2nc1=O (3D coordinates assigned)
C=c1[n-]c(=O)n(CCN2CCOCC2)c(=O)c1=Cc1c(N)n2nc(C3CC3)sc2nc1=O (nonaromatic ring conformer: 403.9533545419479 kcal/mol)

>  <smiles>  (34) 
C=c1[nH]c(=O)n(CCN2CCOCC2)c(=O)c1=Cc1c(N)n2nc(C3CC3)sc2nc1=O

>  <score_type>  (34) 
oracle

>  <origin>  (34) 
adg

>  <m_score__min__energy>  (34) 
-10.75

>  <m_primary>  (34) 
energy

$$$$
34:0
     RDKit          3D

 56 59  0  0  0  0  0  0  0  0999 V2000
   53.2580   28.6860   54.0770 C   0  0  0  0  0  0  0  0  0  0  0  0
   54.2360   29.3030   53.3890 C   0  0  0  0  0  0  0  0  0  0  0  0
   54.1020   30.4700   52.6290 C   0  0  0  0  0  0  0  0  0  0  0  0
   53.0050   31.2420   52.5010 C   0  0  0  0  0  0  0  0  0  0  0  0
   52.1740   31.2990   51.2870 C   0  0  0  0  0  0  0  0  0  0  0  0
   52.2440   30.3840   50.3060 N   0  0  0  0  0  0  0  0  0  0  0  0
   51.3710   30.8480   49.3840 C   0  0  0  0  0  0  0  0  0  0  0  0
   51.1430   30.2400   48.3050 O   0  0  0  0  0  0  0  0  0  0  0  0
   50.7680   32.0120   49.7060 N   0  0  0  0  0  0  0  0  0  0  0  0
   51.2950   32.2920   50.9090 C   0  0  0  0  0  0  0  0  0  0  0  0
   51.0190   33.4530   51.6220 O   0  0  0  0  0  0  0  0  0  0  0  0
   55.3530   30.7210   52.0840 C   0  0  0  0  0  0  0  0  0  0  0  0
   56.1930   29.7160   52.5290 C   0  0  0  0  0  0  0  0  0  0  0  0
   57.6260   29.6080   52.1770 C   0  0  0  0  0  0  0  0  0  0  0  0
   58.3340   28.7470   52.7650 O   0  0  0  0  0  0  0  0  0  0  0  0
   58.2210   30.4600   51.1760 N   0  0  0  0  0  0  0  0  0  0  0  0
   59.5340   30.1290   50.6100 C   0  0  0  0  0  0  0  0  0  0  0  0
   59.6180   30.6570   49.1730 C   0  0  0  0  0  0  0  0  0  0  0  0
   59.3550   32.1190   49.0640 N   0  0  0  0  0  0  0  0  0  0  0  0
   58.6820   32.4320   47.7860 C   0  0  0  0  0  0  0  0  0  0  0  0
   58.7640   33.9070   47.4840 C   0  0  0  0  0  0  0  0  0  0  0  0
   59.8940   34.6170   47.4090 C   0  0  0  0  0  0  0  0  0  0  0  0
   61.2390   34.1140   47.7570 C   0  0  0  0  0  0  0  0  0  0  0  0
   61.7060   34.2550   49.0750 C   0  0  0  0  0  0  0  0  0  0  0  0
   62.9900   33.8230   49.4180 C   0  0  0  0  0  0  0  0  0  0  0  0
   63.8310   33.2820   48.4390 C   0  0  0  0  0  0  0  0  0  0  0  0
   63.3920   33.1810   47.1170 C   0  0  0  0  0  0  0  0  0  0  0  0
   62.1010   33.5950   46.7720 C   0  0  0  0  0  0  0  0  0  0  0  0
   58.6490   32.7060   50.2340 C   0  0  0  0  0  0  0  0  0  0  0  0
   57.6100   31.7530   50.8380 C   0  0  0  0  0  0  0  0  0  0  0  0
   55.5160   28.8570   53.3300 N   0  0  0  0  0  0  0  0  0  0  0  0
   56.0670   27.6950   54.0400 C   0  0  0  0  0  0  0  0  0  0  0  0
   53.4781   27.7688   54.6430 H   0  0  0  0  0  0  0  0  0  0  0  0
   52.2384   29.0988   54.0735 H   0  0  0  0  0  0  0  0  0  0  0  0
   52.7122   31.8684   53.3565 H   0  0  0  0  0  0  0  0  0  0  0  0
   55.6247   31.5585   51.4246 H   0  0  0  0  0  0  0  0  0  0  0  0
   60.3236   30.5942   51.2185 H   0  0  0  0  0  0  0  0  0  0  0  0
   59.6683   29.0372   50.6083 H   0  0  0  0  0  0  0  0  0  0  0  0
   60.6273   30.4544   48.7855 H   0  0  0  0  0  0  0  0  0  0  0  0
   58.8386   30.1425   48.5918 H   0  0  0  0  0  0  0  0  0  0  0  0
   59.1690   31.8704   46.9751 H   0  0  0  0  0  0  0  0  0  0  0  0
   57.6225   32.1474   47.8668 H   0  0  0  0  0  0  0  0  0  0  0  0
   57.8182   34.4415   47.3116 H   0  0  0  0  0  0  0  0  0  0  0  0
   59.8165   35.6576   47.0608 H   0  0  0  0  0  0  0  0  0  0  0  0
   61.0579   34.7074   49.8401 H   0  0  0  0  0  0  0  0  0  0  0  0
   63.3396   33.9082   50.4575 H   0  0  0  0  0  0  0  0  0  0  0  0
   64.8391   32.9359   48.7110 H   0  0  0  0  0  0  0  0  0  0  0  0
   64.0628   32.7751   46.3454 H   0  0  0  0  0  0  0  0  0  0  0  0
   61.7588   33.5150   45.7297 H   0  0  0  0  0  0  0  0  0  0  0  0
   59.3924   32.9515   51.0067 H   0  0  0  0  0  0  0  0  0  0  0  0
   58.1145   33.6016   49.8843 H   0  0  0  0  0  0  0  0  0  0  0  0
   57.1941   32.2047   51.7507 H   0  0  0  0  0  0  0  0  0  0  0  0
   56.8146   31.5838   50.0973 H   0  0  0  0  0  0  0  0  0  0  0  0
   55.9898   27.8579   55.1251 H   0  0  0  0  0  0  0  0  0  0  0  0
   55.5004   26.7937   53.7633 H   0  0  0  0  0  0  0  0  0  0  0  0
   57.1234   27.5633   53.7633 H   0  0  0  0  0  0  0  0  0  0  0  0
  1  2  2  0
  2  3  1  0
  3  4  2  3
  4  5  1  0
  5  6  1  0
  6  7  1  0
  7  8  2  0
  7  9  1  0
  9 10  1  0
 10 11  1  0
  3 12  1  0
 12 13  2  0
 13 14  1  0
 14 15  2  0
 14 16  1  0
 16 17  1  0
 17 18  1  0
 18 19  1  0
 19 20  1  0
 20 21  1  0
 21 22  2  3
 22 23  1  0
 23 24  2  0
 24 25  1  0
 25 26  2  0
 26 27  1  0
 27 28  2  0
 19 29  1  0
 29 30  1  0
 13 31  1  0
 31 32  1  0
 31  2  1  0
 10  5  2  0
 30 16  1  0
 28 23  1  0
  1 33  1  0
  1 34  1  0
  4 35  1  0
 12 36  1  0
 17 37  1  0
 17 38  1  0
 18 39  1  0
 18 40  1  0
 20 41  1  0
 20 42  1  0
 21 43  1  0
 22 44  1  0
 24 45  1  0
 25 46  1  0
 26 47  1  0
 27 48  1  0
 28 49  1  0
 29 50  1  0
 29 51  1  0
 30 52  1  0
 30 53  1  0
 32 54  1  0
 32 55  1  0
 32 56  1  0
M  CHG  3   6  -1   9  -1  11  -1
M  END
>  <UniqueID>  (35) 
34

>  <SMILES>  (35) 
C=c1c(=Cc2[n-]c(=O)[n-]c2[O-])cc(C(=O)N2CCN(CC=Cc3ccccc3)CC2)n1C

>  <Energy>  (35) 
141.8870136696811

>  <Genealogy>  (35) 
C=c1c(=Cc2[n-]c(=O)[n-]c2[O-])cc(C(=O)N2CCN(CC=Cc3ccccc3)CC2)n1C (protonated)
C=c1c(=Cc2[n-]c(=O)[n-]c2[O-])cc(C(=O)N2CCN(CC=Cc3ccccc3)CC2)n1C (3D coordinates assigned)
C=c1c(=Cc2[n-]c(=O)[n-]c2[O-])cc(C(=O)N2CCN(CC=Cc3ccccc3)CC2)n1C (nonaromatic ring conformer: 141.8870136696811 kcal/mol)

>  <smiles>  (35) 
C=c1c(=Cc2[nH]c(=O)[nH]c2O)cc(C(=O)N2CCN(CC=Cc3ccccc3)CC2)n1C

>  <score_type>  (35) 
oracle

>  <origin>  (35) 
adg

>  <m_score__min__energy>  (35) 
-18.579999999999998

>  <m_primary>  (35) 
energy

$$$$
35:0
     RDKit          3D

 51 54  0  0  0  0  0  0  0  0999 V2000
   57.9058   30.2058   42.4974 H   0  0  0  0  0  0  0  0  0  0  0  0
   57.8190   30.9830   43.2710 C   0  0  0  0  0  0  0  0  0  0  0  0
   57.6770   30.6240   44.6230 C   0  0  0  0  0  0  0  0  0  0  0  0
   57.6150   29.2070   45.0600 C   0  0  0  0  0  0  0  0  0  0  0  0
   58.7790   28.4290   45.2010 C   0  0  0  0  0  0  0  0  0  0  0  0
   59.7646   28.8838   45.0228 H   0  0  0  0  0  0  0  0  0  0  0  0
   58.6920   27.0820   45.5660 C   0  0  0  0  0  0  0  0  0  0  0  0
   59.6105   26.4901   45.6920 H   0  0  0  0  0  0  0  0  0  0  0  0
   57.4460   26.4820   45.7720 C   0  0  0  0  0  0  0  0  0  0  0  0
   57.3960   25.0960   46.1350 N   0  0  0  0  0  0  0  0  0  0  0  0
   57.8520   24.0060   45.3240 C   0  0  0  0  0  0  0  0  0  0  0  0
   58.7880   23.2790   45.7490 O   0  0  0  0  0  0  0  0  0  0  0  0
   57.2710   23.7250   43.9710 C   0  0  0  0  0  0  0  0  0  0  0  0
   56.2862   23.2487   44.0866 H   0  0  0  0  0  0  0  0  0  0  0  0
   57.1592   24.6686   43.4168 H   0  0  0  0  0  0  0  0  0  0  0  0
   57.9413   23.0515   43.4168 H   0  0  0  0  0  0  0  0  0  0  0  0
   56.2800   27.2600   45.6720 C   0  0  0  0  0  0  0  0  0  0  0  0
   55.0340   26.7160   45.9630 O   0  0  0  0  0  0  0  0  0  0  0  0
   56.3660   28.6060   45.3020 C   0  0  0  0  0  0  0  0  0  0  0  0
   55.4469   29.2015   45.1990 H   0  0  0  0  0  0  0  0  0  0  0  0
   57.5900   31.6080   45.5600 N   0  0  0  0  0  0  0  0  0  0  0  0
   57.6100   32.9330   45.2420 C   0  0  0  0  0  0  0  0  0  0  0  0
   57.4980   33.8420   46.1650 N   0  0  0  0  0  0  0  0  0  0  0  0
   58.5630   34.2250   47.0930 C   0  0  0  0  0  0  0  0  0  0  0  0
   59.2783   34.8773   46.5706 H   0  0  0  0  0  0  0  0  0  0  0  0
   58.1122   34.7536   47.9458 H   0  0  0  0  0  0  0  0  0  0  0  0
   59.2900   33.0100   47.6100 C   0  0  0  0  0  0  0  0  0  0  0  0
   60.5600   32.6740   47.1140 C   0  0  0  0  0  0  0  0  0  0  0  0
   61.0485   33.3243   46.3734 H   0  0  0  0  0  0  0  0  0  0  0  0
   61.2050   31.5180   47.5570 C   0  0  0  0  0  0  0  0  0  0  0  0
   62.1946   31.2536   47.1559 H   0  0  0  0  0  0  0  0  0  0  0  0
   60.5960   30.6960   48.5090 C   0  0  0  0  0  0  0  0  0  0  0  0
   61.1009   29.7777   48.8433 H   0  0  0  0  0  0  0  0  0  0  0  0
   59.3410   31.0380   49.0410 C   0  0  0  0  0  0  0  0  0  0  0  0
   58.6750   30.2030   49.9970 N   0  0  0  0  0  0  0  0  0  0  0  0
   58.1100   30.6160   51.2480 C   0  0  0  0  0  0  0  0  0  0  0  0
   57.0050   30.1250   51.6000 O   0  0  0  0  0  0  0  0  0  0  0  0
   58.7770   31.6780   52.0910 C   0  0  0  0  0  0  0  0  0  0  0  0
   59.6570   31.0671   52.3409 H   0  0  0  0  0  0  0  0  0  0  0  0
   57.8070   32.5750   52.8470 C   0  0  0  0  0  0  0  0  0  0  0  0
   56.7233   32.4055   52.7641 H   0  0  0  0  0  0  0  0  0  0  0  0
   57.6810   32.8704   53.8991 H   0  0  0  0  0  0  0  0  0  0  0  0
   58.5820   33.1280   51.6620 C   0  0  0  0  0  0  0  0  0  0  0  0
   58.0593   33.3579   50.7218 H   0  0  0  0  0  0  0  0  0  0  0  0
   59.2487   33.9881   51.5016 H   0  0  0  0  0  0  0  0  0  0  0  0
   58.6840   32.1810   48.5680 C   0  0  0  0  0  0  0  0  0  0  0  0
   57.6836   32.4318   48.9506 H   0  0  0  0  0  0  0  0  0  0  0  0
   57.7390   33.3170   43.9040 C   0  0  0  0  0  0  0  0  0  0  0  0
   57.7537   34.3823   43.6303 H   0  0  0  0  0  0  0  0  0  0  0  0
   57.8490   32.3330   42.9180 C   0  0  0  0  0  0  0  0  0  0  0  0
   57.9593   32.6226   41.8626 H   0  0  0  0  0  0  0  0  0  0  0  0
  1  2  1  0
  2  3  2  0
  3  4  1  0
  4  5  2  0
  5  6  1  0
  5  7  1  0
  7  8  1  0
  7  9  2  0
  9 10  1  0
 10 11  1  0
 11 12  2  0
 11 13  1  0
 13 14  1  0
 13 15  1  0
 13 16  1  0
  9 17  1  0
 17 18  1  0
 17 19  2  0
 19 20  1  0
  3 21  1  0
 21 22  1  0
 22 23  2  0
 23 24  1  0
 24 25  1  0
 24 26  1  0
 24 27  1  0
 27 28  2  0
 28 29  1  0
 28 30  1  0
 30 31  1  0
 30 32  2  0
 32 33  1  0
 32 34  1  0
 34 35  1  0
 35 36  1  0
 36 37  2  0
 36 38  1  0
 38 39  1  0
 38 40  1  0
 40 41  1  0
 40 42  1  0
 40 43  1  0
 43 44  1  0
 43 45  1  0
 34 46  2  0
 46 47  1  0
 22 48  1  0
 48 49  1  0
 48 50  2  0
 50 51  1  0
 50  2  1  0
 19  4  1  0
 46 27  1  0
 43 38  1  0
M  CHG  4  10  -1  18  -1  21  -1  35  -1
M  END
>  <UniqueID>  (36) 
35

>  <SMILES>  (36) 
CC(=O)[N-]c1ccc(-c2ccc/c(=N/Cc3cccc([N-]C(=O)C4CC4)c3)[n-]2)cc1[O-]

>  <Energy>  (36) 
330.59794803852816

>  <Genealogy>  (36) 
CC(=O)[N-]c1ccc(-c2cccc(=NCc3cccc([N-]C(=O)C4CC4)c3)[n-]2)cc1[O-] (protonated)
CC(=O)[N-]c1ccc(-c2ccc/c(=N/Cc3cccc([N-]C(=O)C4CC4)c3)[n-]2)cc1[O-] (cis-trans isomerization)
CC(=O)[N-]c1ccc(-c2ccc/c(=N/Cc3cccc([N-]C(=O)C4CC4)c3)[n-]2)cc1[O-] (3D coordinates assigned)
CC(=O)[N-]c1ccc(-c2ccc/c(=N/Cc3cccc([N-]C(=O)C4CC4)c3)[n-]2)cc1[O-] (nonaromatic ring conformer: 330.59794803852816 kcal/mol)

>  <smiles>  (36) 
CC(=O)Nc1ccc(-c2cccc(=NCc3cccc(NC(=O)C4CC4)c3)[nH]2)cc1O

>  <score_type>  (36) 
oracle

>  <origin>  (36) 
adg

>  <m_score__min__energy>  (36) 
-16.850000000000001

>  <m_primary>  (36) 
energy

$$$$
36:0
     RDKit          3D

 28 30  0  0  0  0  0  0  0  0999 V2000
   53.1363   27.8433   54.3565 H   0  0  0  0  0  0  0  0  0  0  0  0
   53.0520   28.7470   53.7350 C   0  0  0  0  0  0  0  0  0  0  0  0
   52.0653   29.1958   53.5479 H   0  0  0  0  0  0  0  0  0  0  0  0
   54.1530   29.3020   53.2050 C   0  0  0  0  0  0  0  0  0  0  0  0
   54.2320   30.4450   52.3950 C   0  0  0  0  0  0  0  0  0  0  0  0
   53.3140   31.3940   52.1390 C   0  0  0  0  0  0  0  0  0  0  0  0
   53.2340   32.2212   52.8596 H   0  0  0  0  0  0  0  0  0  0  0  0
   52.4060   31.4240   50.9790 C   0  0  0  0  0  0  0  0  0  0  0  0
   52.3640   30.4880   50.0140 N   0  0  0  0  0  0  0  0  0  0  0  0
   51.3040   30.8610   49.2640 C   0  0  0  0  0  0  0  0  0  0  0  0
   50.9450   30.2300   48.2360 O   0  0  0  0  0  0  0  0  0  0  0  0
   50.6530   31.9580   49.7090 N   0  0  0  0  0  0  0  0  0  0  0  0
   51.3550   32.2910   50.8030 C   0  0  0  0  0  0  0  0  0  0  0  0
   51.0390   33.3640   51.6280 O   0  0  0  0  0  0  0  0  0  0  0  0
   55.4660   30.5120   51.8510 N   0  0  0  0  0  0  0  0  0  0  0  0
   56.1220   29.4580   52.3720 C   0  0  0  0  0  0  0  0  0  0  0  0
   57.3320   29.2180   52.1150 O   0  0  0  0  0  0  0  0  0  0  0  0
   55.3700   28.7070   53.2030 N   0  0  0  0  0  0  0  0  0  0  0  0
   55.7900   27.5300   53.9200 C   0  0  0  0  0  0  0  0  0  0  0  0
   55.0310   26.4000   53.8730 N   0  0  0  0  0  0  0  0  0  0  0  0
   55.3800   25.2680   54.5410 C   0  0  0  0  0  0  0  0  0  0  0  0
   54.7425   24.3738   54.4778 H   0  0  0  0  0  0  0  0  0  0  0  0
   56.5470   25.2400   55.3070 C   0  0  0  0  0  0  0  0  0  0  0  0
   56.8346   24.3275   55.8497 H   0  0  0  0  0  0  0  0  0  0  0  0
   57.3440   26.3830   55.3760 C   0  0  0  0  0  0  0  0  0  0  0  0
   58.2664   26.3760   55.9753 H   0  0  0  0  0  0  0  0  0  0  0  0
   56.9690   27.5360   54.6830 C   0  0  0  0  0  0  0  0  0  0  0  0
   57.5918   28.4412   54.7343 H   0  0  0  0  0  0  0  0  0  0  0  0
  1  2  1  0
  2  3  1  0
  2  4  2  0
  4  5  1  0
  5  6  2  0
  6  7  1  0
  6  8  1  0
  8  9  1  0
  9 10  1  0
 10 11  2  0
 10 12  1  0
 12 13  1  0
 13 14  1  0
  5 15  1  0
 15 16  1  0
 16 17  2  0
 16 18  1  0
 18 19  1  0
 19 20  2  0
 20 21  1  0
 21 22  1  0
 21 23  2  0
 23 24  1  0
 23 25  1  0
 25 26  1  0
 25 27  2  0
 27 28  1  0
 18  4  1  0
 27 19  1  0
 13  8  2  0
M  CHG  4   9  -1  12  -1  14  -1  15  -1
M  END
>  <UniqueID>  (37) 
36

>  <SMILES>  (37) 
C=c1/c(=C\c2[n-]c(=O)[n-]c2[O-])[n-]c(=O)n1-c1ccccn1

>  <Energy>  (37) 
110.59707669259743

>  <Genealogy>  (37) 
C=c1c(=Cc2[n-]c(=O)[n-]c2[O-])[n-]c(=O)n1-c1ccccn1 (protonated)
C=c1/c(=C\c2[n-]c(=O)[n-]c2[O-])[n-]c(=O)n1-c1ccccn1 (cis-trans isomerization)
C=c1/c(=C\c2[n-]c(=O)[n-]c2[O-])[n-]c(=O)n1-c1ccccn1 (3D coordinates assigned)
C=c1/c(=C\c2[n-]c(=O)[n-]c2[O-])[n-]c(=O)n1-c1ccccn1 (optimized conformer: 110.59707669259743 kcal/mol)

>  <smiles>  (37) 
C=c1c(=Cc2[nH]c(=O)[nH]c2O)[nH]c(=O)n1-c1ccccn1

>  <score_type>  (37) 
oracle

>  <origin>  (37) 
adg

>  <m_score__min__energy>  (37) 
-16.469999999999999

>  <m_primary>  (37) 
energy

$$$$
37:0
     RDKit          3D

 58 61  0  0  0  0  0  0  0  0999 V2000
   61.6479   27.6049   53.0952 H   0  0  0  0  0  0  0  0  0  0  0  0
   61.3280   28.1350   52.1860 C   0  0  0  0  0  0  0  0  0  0  0  0
   61.1030   29.4730   52.2270 N   0  0  0  0  0  0  0  0  0  0  0  0
   60.7170   30.1790   51.1290 C   0  0  0  0  0  0  0  0  0  0  0  0
   60.5100   31.4580   51.2560 N   0  0  0  0  0  0  0  0  0  0  0  0
   59.5560   32.2510   50.5330 C   0  0  0  0  0  0  0  0  0  0  0  0
   58.7230   32.9440   51.1730 O   0  0  0  0  0  0  0  0  0  0  0  0
   59.5900   32.3330   49.0320 C   0  0  0  0  0  0  0  0  0  0  0  0
   59.2927   31.3612   48.6111 H   0  0  0  0  0  0  0  0  0  0  0  0
   58.8945   33.1207   48.7065 H   0  0  0  0  0  0  0  0  0  0  0  0
   60.9710   32.6790   48.5460 C   0  0  0  0  0  0  0  0  0  0  0  0
   61.6070   31.8770   47.5810 C   0  0  0  0  0  0  0  0  0  0  0  0
   61.0853   31.0031   47.1636 H   0  0  0  0  0  0  0  0  0  0  0  0
   62.9010   32.1880   47.1510 C   0  0  0  0  0  0  0  0  0  0  0  0
   63.3906   31.5638   46.3890 H   0  0  0  0  0  0  0  0  0  0  0  0
   63.5740   33.2900   47.6870 C   0  0  0  0  0  0  0  0  0  0  0  0
   64.5919   33.5320   47.3474 H   0  0  0  0  0  0  0  0  0  0  0  0
   62.9520   34.0840   48.6550 C   0  0  0  0  0  0  0  0  0  0  0  0
   63.4815   34.9509   49.0771 H   0  0  0  0  0  0  0  0  0  0  0  0
   61.6570   33.7780   49.0880 C   0  0  0  0  0  0  0  0  0  0  0  0
   61.1745   34.4006   49.8558 H   0  0  0  0  0  0  0  0  0  0  0  0
   60.5180   29.4950   49.9110 C   0  0  0  0  0  0  0  0  0  0  0  0
   60.1986   30.0465   49.0144 H   0  0  0  0  0  0  0  0  0  0  0  0
   60.7280   28.1140   49.8470 C   0  0  0  0  0  0  0  0  0  0  0  0
   60.5480   27.4590   48.6200 O   0  0  0  0  0  0  0  0  0  0  0  0
   59.4670   27.6640   47.7460 C   0  0  0  0  0  0  0  0  0  0  0  0
   59.3070   28.9210   47.1570 C   0  0  0  0  0  0  0  0  0  0  0  0
   60.0355   29.7180   47.3669 H   0  0  0  0  0  0  0  0  0  0  0  0
   58.2290   29.1750   46.3030 C   0  0  0  0  0  0  0  0  0  0  0  0
   58.1258   30.1613   45.8269 H   0  0  0  0  0  0  0  0  0  0  0  0
   57.2760   28.1700   46.0520 C   0  0  0  0  0  0  0  0  0  0  0  0
   56.1480   28.3880   45.1900 N   0  0  0  0  0  0  0  0  0  0  0  0
   55.9330   29.5120   44.3240 C   0  0  0  0  0  0  0  0  0  0  0  0
   55.7900   29.3490   43.0860 O   0  0  0  0  0  0  0  0  0  0  0  0
   55.8730   30.8380   44.8600 N   0  0  0  0  0  0  0  0  0  0  0  0
   56.8760   31.8520   44.7080 C   0  0  0  0  0  0  0  0  0  0  0  0
   57.5120   31.9890   43.4690 C   0  0  0  0  0  0  0  0  0  0  0  0
   57.2301   31.3307   42.6341 H   0  0  0  0  0  0  0  0  0  0  0  0
   58.5030   32.9570   43.2860 C   0  0  0  0  0  0  0  0  0  0  0  0
   58.9835   33.0715   42.3031 H   0  0  0  0  0  0  0  0  0  0  0  0
   58.8850   33.7800   44.3490 C   0  0  0  0  0  0  0  0  0  0  0  0
   59.6550   34.5508   44.1972 H   0  0  0  0  0  0  0  0  0  0  0  0
   58.2880   33.6250   45.6100 C   0  0  0  0  0  0  0  0  0  0  0  0
   58.7030   34.5050   46.7590 C   0  0  0  0  0  0  0  0  0  0  0  0
   58.9220   33.8760   47.6345 H   0  0  0  0  0  0  0  0  0  0  0  0
   57.8822   35.2018   46.9845 H   0  0  0  0  0  0  0  0  0  0  0  0
   59.9450   35.3120   46.4000 C   0  0  0  0  0  0  0  0  0  0  0  0
   60.4487   35.6393   47.3215 H   0  0  0  0  0  0  0  0  0  0  0  0
   60.6307   34.6865   45.8097 H   0  0  0  0  0  0  0  0  0  0  0  0
   59.6520   36.1927   45.8097 H   0  0  0  0  0  0  0  0  0  0  0  0
   57.2790   32.6630   45.7840 C   0  0  0  0  0  0  0  0  0  0  0  0
   56.8014   32.5434   46.7677 H   0  0  0  0  0  0  0  0  0  0  0  0
   57.4420   26.9080   46.6340 C   0  0  0  0  0  0  0  0  0  0  0  0
   56.7179   26.1081   46.4197 H   0  0  0  0  0  0  0  0  0  0  0  0
   58.5220   26.6570   47.4860 C   0  0  0  0  0  0  0  0  0  0  0  0
   58.6322   25.6678   47.9544 H   0  0  0  0  0  0  0  0  0  0  0  0
   61.1550   27.4300   50.9950 C   0  0  0  0  0  0  0  0  0  0  0  0
   61.3514   26.3484   50.9562 H   0  0  0  0  0  0  0  0  0  0  0  0
  1  2  1  0
  2  3  1  0
  3  4  1  0
  4  5  2  0
  5  6  1  0
  6  7  2  0
  6  8  1  0
  8  9  1  0
  8 10  1  0
  8 11  1  0
 11 12  2  0
 12 13  1  0
 12 14  1  0
 14 15  1  0
 14 16  2  0
 16 17  1  0
 16 18  1  0
 18 19  1  0
 18 20  2  0
 20 21  1  0
  4 22  1  0
 22 23  1  0
 22 24  2  0
 24 25  1  0
 25 26  1  0
 26 27  2  0
 27 28  1  0
 27 29  1  0
 29 30  1  0
 29 31  2  0
 31 32  1  0
 32 33  1  0
 33 34  2  0
 33 35  1  0
 35 36  1  0
 36 37  2  0
 37 38  1  0
 37 39  1  0
 39 40  1  0
 39 41  2  0
 41 42  1  0
 41 43  1  0
 43 44  1  0
 44 45  1  0
 44 46  1  0
 44 47  1  0
 47 48  1  0
 47 49  1  0
 47 50  1  0
 43 51  2  0
 51 52  1  0
 31 53  1  0
 53 54  1  0
 53 55  2  0
 55 56  1  0
 24 57  1  0
 57 58  1  0
 57  2  2  0
 20 11  1  0
 55 26  1  0
 51 36  1  0
M  CHG  3   3  -1  32  -1  35  -1
M  END
>  <UniqueID>  (38) 
37

>  <SMILES>  (38) 
CCc1cccc([N-]C(=O)[N-]c2ccc(Oc3cc[n-]/c(=N/C(=O)Cc4ccccc4)c3)cc2)c1

>  <Energy>  (38) 
81.81186975823009

>  <Genealogy>  (38) 
CCc1cccc([N-]C(=O)[N-]c2ccc(Oc3cc[n-]c(=NC(=O)Cc4ccccc4)c3)cc2)c1 (protonated)
CCc1cccc([N-]C(=O)[N-]c2ccc(Oc3cc[n-]/c(=N/C(=O)Cc4ccccc4)c3)cc2)c1 (cis-trans isomerization)
CCc1cccc([N-]C(=O)[N-]c2ccc(Oc3cc[n-]/c(=N/C(=O)Cc4ccccc4)c3)cc2)c1 (3D coordinates assigned)
CCc1cccc([N-]C(=O)[N-]c2ccc(Oc3cc[n-]/c(=N/C(=O)Cc4ccccc4)c3)cc2)c1 (optimized conformer: 81.81186975823009 kcal/mol)

>  <smiles>  (38) 
CCc1cccc(NC(=O)Nc2ccc(Oc3cc[nH]c(=NC(=O)Cc4ccccc4)c3)cc2)c1

>  <score_type>  (38) 
oracle

>  <origin>  (38) 
adg

>  <m_score__min__energy>  (38) 
-12.73

>  <m_primary>  (38) 
energy

$$$$
38:0
     RDKit          3D

 45 47  0  0  0  0  0  0  0  0999 V2000
   55.9040   29.6490   42.6050 O   0  0  0  0  0  0  0  0  0  0  0  0
   56.3640   29.9480   43.7390 C   0  0  0  0  0  0  0  0  0  0  0  0
   57.1150   31.2010   43.9500 C   0  0  0  0  0  0  0  0  0  0  0  0
   56.8710   32.1070   44.9120 C   0  0  0  0  0  0  0  0  0  0  0  0
   57.8850   32.9700   45.5500 C   0  0  0  0  0  0  0  0  0  0  0  0
   58.0160   33.0290   46.9500 C   0  0  0  0  0  0  0  0  0  0  0  0
   58.9530   33.8890   47.5330 C   0  0  0  0  0  0  0  0  0  0  0  0
   59.7470   34.7100   46.7290 C   0  0  0  0  0  0  0  0  0  0  0  0
   59.6000   34.6790   45.3400 C   0  0  0  0  0  0  0  0  0  0  0  0
   58.6650   33.8210   44.7510 C   0  0  0  0  0  0  0  0  0  0  0  0
   56.1080   29.1020   44.8610 N   0  0  0  0  0  0  0  0  0  0  0  0
   57.3060   28.0320   45.5060 S   0  0  0  0  0  0  0  0  0  0  0  0
   56.6670   27.1180   46.5140 O   0  0  0  0  0  0  0  0  0  0  0  0
   57.8750   27.1960   44.3950 O   0  0  0  0  0  0  0  0  0  0  0  0
   58.6010   28.9680   46.2430 C   0  0  0  0  0  0  0  0  0  0  0  0
   59.7150   29.3280   45.4830 C   0  0  0  0  0  0  0  0  0  0  0  0
   60.7430   30.0860   46.0470 C   0  0  0  0  0  0  0  0  0  0  0  0
   60.6820   30.5120   47.3960 C   0  0  0  0  0  0  0  0  0  0  0  0
   61.7540   31.3070   47.9910 N   0  0  0  0  0  0  0  0  0  0  0  0
   62.1680   31.0390   49.3840 C   0  0  0  0  0  0  0  0  0  0  0  0
   63.2440   31.9970   49.9010 C   0  0  0  0  0  0  0  0  0  0  0  0
   64.1810   32.2950   48.8930 O   0  0  0  0  0  0  0  0  0  0  0  0
   63.5430   33.0800   47.9140 C   0  0  0  0  0  0  0  0  0  0  0  0
   62.5030   32.2610   47.1440 C   0  0  0  0  0  0  0  0  0  0  0  0
   59.5450   30.1330   48.1500 C   0  0  0  0  0  0  0  0  0  0  0  0
   58.5200   29.3740   47.5770 C   0  0  0  0  0  0  0  0  0  0  0  0
   57.9459   31.4113   43.2605 H   0  0  0  0  0  0  0  0  0  0  0  0
   55.8304   32.2145   45.2521 H   0  0  0  0  0  0  0  0  0  0  0  0
   57.3800   32.3973   47.5876 H   0  0  0  0  0  0  0  0  0  0  0  0
   59.0646   33.9186   48.6269 H   0  0  0  0  0  0  0  0  0  0  0  0
   60.4876   35.3806   47.1892 H   0  0  0  0  0  0  0  0  0  0  0  0
   60.2210   35.3308   44.7079 H   0  0  0  0  0  0  0  0  0  0  0  0
   58.5406   33.8131   43.6581 H   0  0  0  0  0  0  0  0  0  0  0  0
   59.7836   29.0121   44.4316 H   0  0  0  0  0  0  0  0  0  0  0  0
   61.6147   30.3567   45.4332 H   0  0  0  0  0  0  0  0  0  0  0  0
   61.2837   31.1274   50.0323 H   0  0  0  0  0  0  0  0  0  0  0  0
   62.6019   30.0283   49.4017 H   0  0  0  0  0  0  0  0  0  0  0  0
   62.7652   32.9296   50.2342 H   0  0  0  0  0  0  0  0  0  0  0  0
   63.7707   31.5140   50.7373 H   0  0  0  0  0  0  0  0  0  0  0  0
   63.0420   33.9281   48.4036 H   0  0  0  0  0  0  0  0  0  0  0  0
   64.3023   33.4382   47.2033 H   0  0  0  0  0  0  0  0  0  0  0  0
   61.7847   32.9556   46.6840 H   0  0  0  0  0  0  0  0  0  0  0  0
   63.0495   31.6677   46.3961 H   0  0  0  0  0  0  0  0  0  0  0  0
   59.4668   30.4406   49.2032 H   0  0  0  0  0  0  0  0  0  0  0  0
   57.6440   29.0948   48.1808 H   0  0  0  0  0  0  0  0  0  0  0  0
  1  2  2  0
  2  3  1  0
  3  4  2  3
  4  5  1  0
  5  6  2  0
  6  7  1  0
  7  8  2  0
  8  9  1  0
  9 10  2  0
  2 11  1  0
 11 12  1  0
 12 13  2  0
 12 14  2  0
 12 15  1  0
 15 16  2  0
 16 17  1  0
 17 18  2  0
 18 19  1  0
 19 20  1  0
 20 21  1  0
 21 22  1  0
 22 23  1  0
 23 24  1  0
 18 25  1  0
 25 26  2  0
 10  5  1  0
 26 15  1  0
 24 19  1  0
  3 27  1  0
  4 28  1  0
  6 29  1  0
  7 30  1  0
  8 31  1  0
  9 32  1  0
 10 33  1  0
 16 34  1  0
 17 35  1  0
 20 36  1  0
 20 37  1  0
 21 38  1  0
 21 39  1  0
 23 40  1  0
 23 41  1  0
 24 42  1  0
 24 43  1  0
 25 44  1  0
 26 45  1  0
M  CHG  1  11  -1
M  END
>  <UniqueID>  (39) 
38

>  <SMILES>  (39) 
O=C(C=Cc1ccccc1)[N-]S(=O)(=O)c1ccc(N2CCOCC2)cc1

>  <Energy>  (39) 
63.556625282020605

>  <Genealogy>  (39) 
O=C(C=Cc1ccccc1)[N-]S(=O)(=O)c1ccc(N2CCOCC2)cc1 (protonated)
O=C(C=Cc1ccccc1)[N-]S(=O)(=O)c1ccc(N2CCOCC2)cc1 (3D coordinates assigned)
O=C(C=Cc1ccccc1)[N-]S(=O)(=O)c1ccc(N2CCOCC2)cc1 (nonaromatic ring conformer: 63.556625282020605 kcal/mol)

>  <smiles>  (39) 
O=C(C=Cc1ccccc1)NS(=O)(=O)c1ccc(N2CCOCC2)cc1

>  <score_type>  (39) 
oracle

>  <origin>  (39) 
adg

>  <m_score__min__energy>  (39) 
-10.18

>  <m_primary>  (39) 
energy

$$$$
39:0
     RDKit          3D

 31 32  0  0  0  0  0  0  0  0999 V2000
   59.8230   28.8610   47.4977 H   0  0  0  0  0  0  0  0  0  0  0  0
   59.0930   29.0330   46.6930 C   0  0  0  0  0  0  0  0  0  0  0  0
   58.6320   30.2870   46.4500 N   0  0  0  0  0  0  0  0  0  0  0  0
   57.7270   30.5670   45.4730 C   0  0  0  0  0  0  0  0  0  0  0  0
   57.3300   31.8070   45.3710 N   0  0  0  0  0  0  0  0  0  0  0  0
   58.0060   33.0090   45.7540 C   0  0  0  0  0  0  0  0  0  0  0  0
   58.4060   34.0580   44.5610 S   0  0  0  0  0  0  0  0  0  0  0  0
   58.6970   33.0460   47.0150 N   0  0  0  0  0  0  0  0  0  0  0  0
   58.7820   32.1490   47.5440 H   0  0  0  0  0  0  0  0  0  0  0  0
   59.2150   34.2380   47.6300 C   0  0  0  0  0  0  0  0  0  0  0  0
   58.9480   35.3760   47.1590 O   0  0  0  0  0  0  0  0  0  0  0  0
   60.0890   34.1330   48.8420 C   0  0  0  0  0  0  0  0  0  0  0  0
   60.1007   35.0993   49.3674 H   0  0  0  0  0  0  0  0  0  0  0  0
   59.6920   33.3515   49.5066 H   0  0  0  0  0  0  0  0  0  0  0  0
   61.4910   33.7700   48.4360 C   0  0  0  0  0  0  0  0  0  0  0  0
   62.4560   33.4780   49.4140 C   0  0  0  0  0  0  0  0  0  0  0  0
   62.1781   33.4869   50.4783 H   0  0  0  0  0  0  0  0  0  0  0  0
   63.7690   33.1760   49.0390 C   0  0  0  0  0  0  0  0  0  0  0  0
   64.5199   32.9428   49.8083 H   0  0  0  0  0  0  0  0  0  0  0  0
   64.1290   33.1700   47.6880 C   0  0  0  0  0  0  0  0  0  0  0  0
   65.1612   32.9286   47.3943 H   0  0  0  0  0  0  0  0  0  0  0  0
   63.1760   33.4710   46.7110 C   0  0  0  0  0  0  0  0  0  0  0  0
   63.4599   33.4696   45.6483 H   0  0  0  0  0  0  0  0  0  0  0  0
   61.8620   33.7740   47.0820 C   0  0  0  0  0  0  0  0  0  0  0  0
   61.1166   34.0163   46.3102 H   0  0  0  0  0  0  0  0  0  0  0  0
   57.2880   29.5070   44.6260 C   0  0  0  0  0  0  0  0  0  0  0  0
   56.2890   29.7180   42.9960 Br  0  0  0  0  0  0  0  0  0  0  0  0
   57.7460   28.2100   44.8840 C   0  0  0  0  0  0  0  0  0  0  0  0
   57.3956   27.3747   44.2599 H   0  0  0  0  0  0  0  0  0  0  0  0
   58.6410   27.9660   45.9230 C   0  0  0  0  0  0  0  0  0  0  0  0
   59.2770   26.1960   46.2570 Br  0  0  0  0  0  0  0  0  0  0  0  0
  1  2  1  0
  2  3  1  0
  3  4  1  0
  4  5  2  0
  5  6  1  0
  6  7  2  0
  6  8  1  0
  8  9  1  0
  8 10  1  0
 10 11  2  0
 10 12  1  0
 12 13  1  0
 12 14  1  0
 12 15  1  0
 15 16  2  0
 16 17  1  0
 16 18  1  0
 18 19  1  0
 18 20  2  0
 20 21  1  0
 20 22  1  0
 22 23  1  0
 22 24  2  0
 24 25  1  0
  4 26  1  0
 26 27  1  0
 26 28  2  0
 28 29  1  0
 28 30  1  0
 30 31  1  0
 30  2  2  0
 24 15  1  0
M  CHG  1   3  -1
M  END
>  <UniqueID>  (40) 
39

>  <SMILES>  (40) 
O=C(Cc1ccccc1)NC(=S)/N=c1/[n-]cc(Br)cc1Br

>  <Energy>  (40) 
47.25422478172397

>  <Genealogy>  (40) 
O=C(Cc1ccccc1)NC(=S)N=c1[n-]cc(Br)cc1Br (protonated)
O=C(Cc1ccccc1)NC(=S)/N=c1/[n-]cc(Br)cc1Br (cis-trans isomerization)
O=C(Cc1ccccc1)NC(=S)/N=c1/[n-]cc(Br)cc1Br (3D coordinates assigned)
O=C(Cc1ccccc1)NC(=S)/N=c1/[n-]cc(Br)cc1Br (optimized conformer: 47.25422478172397 kcal/mol)

>  <smiles>  (40) 
O=C(Cc1ccccc1)NC(=S)N=c1[nH]cc(Br)cc1Br

>  <score_type>  (40) 
oracle

>  <origin>  (40) 
adg

>  <m_score__min__energy>  (40) 
-9.1400000000000006

>  <m_primary>  (40) 
energy

$$$$
40:0
     RDKit          3D

 57 60  0  0  0  0  0  0  0  0999 V2000
   58.5840   26.6490   46.0910 C   0  0  0  0  0  0  0  0  0  0  0  0
   58.9070   27.9370   45.9420 C   0  0  0  0  0  0  0  0  0  0  0  0
   58.0610   28.9380   45.2570 C   0  0  0  0  0  0  0  0  0  0  0  0
   58.5410   30.1940   44.8390 C   0  0  0  0  0  0  0  0  0  0  0  0
   57.6780   31.0970   44.1960 C   0  0  0  0  0  0  0  0  0  0  0  0
   58.1700   32.4250   43.7630 C   0  0  0  0  0  0  0  0  0  0  0  0
   58.4780   32.6080   42.5530 O   0  0  0  0  0  0  0  0  0  0  0  0
   58.3290   33.5010   44.7050 N   0  0  0  0  0  0  0  0  0  0  0  0
   59.4840   34.3990   44.5800 C   0  0  0  0  0  0  0  0  0  0  0  0
   59.6800   35.2440   45.8510 C   0  0  0  0  0  0  0  0  0  0  0  0
   59.2800   34.4540   47.1130 C   0  0  0  0  0  0  0  0  0  0  0  0
   60.0600   33.2580   47.2540 O   0  0  0  0  0  0  0  0  0  0  0  0
   61.3310   33.1870   47.8460 C   0  0  0  0  0  0  0  0  0  0  0  0
   62.4410   33.2130   46.9940 C   0  0  0  0  0  0  0  0  0  0  0  0
   63.7370   33.2080   47.5080 C   0  0  0  0  0  0  0  0  0  0  0  0
   63.9490   33.1770   48.8920 C   0  0  0  0  0  0  0  0  0  0  0  0
   65.2940   33.1780   49.4030 N   0  0  0  0  0  0  0  0  0  0  0  0
   65.6300   33.6190   50.7330 C   0  0  0  0  0  0  0  0  0  0  0  0
   64.8290   34.3600   51.3660 O   0  0  0  0  0  0  0  0  0  0  0  0
   66.9330   33.2590   51.4070 C   0  0  0  0  0  0  0  0  0  0  0  0
   67.6520   32.0030   50.9310 C   0  0  0  0  0  0  0  0  0  0  0  0
   68.1810   33.3810   50.5470 C   0  0  0  0  0  0  0  0  0  0  0  0
   62.8420   33.0820   49.7510 C   0  0  0  0  0  0  0  0  0  0  0  0
   61.5310   33.0620   49.2420 C   0  0  0  0  0  0  0  0  0  0  0  0
   60.3880   32.8780   50.2020 C   0  0  0  0  0  0  0  0  0  0  0  0
   57.7850   34.0700   47.0660 C   0  0  0  0  0  0  0  0  0  0  0  0
   57.2460   33.8460   45.6380 C   0  0  0  0  0  0  0  0  0  0  0  0
   56.3560   30.7100   43.9360 C   0  0  0  0  0  0  0  0  0  0  0  0
   55.9150   29.4500   44.3490 C   0  0  0  0  0  0  0  0  0  0  0  0
   54.7310   29.0900   44.1230 O   0  0  0  0  0  0  0  0  0  0  0  0
   56.7650   28.6080   44.9940 N   0  0  0  0  0  0  0  0  0  0  0  0
   59.2700   25.9669   46.6146 H   0  0  0  0  0  0  0  0  0  0  0  0
   57.6321   26.2708   45.6901 H   0  0  0  0  0  0  0  0  0  0  0  0
   59.8676   28.2758   46.3572 H   0  0  0  0  0  0  0  0  0  0  0  0
   59.5915   30.4681   45.0159 H   0  0  0  0  0  0  0  0  0  0  0  0
   60.3883   33.7968   44.4079 H   0  0  0  0  0  0  0  0  0  0  0  0
   59.3019   35.0809   43.7363 H   0  0  0  0  0  0  0  0  0  0  0  0
   60.7382   35.5338   45.9295 H   0  0  0  0  0  0  0  0  0  0  0  0
   59.0382   36.1345   45.7796 H   0  0  0  0  0  0  0  0  0  0  0  0
   59.4697   35.1090   47.9761 H   0  0  0  0  0  0  0  0  0  0  0  0
   62.2890   33.2377   45.9048 H   0  0  0  0  0  0  0  0  0  0  0  0
   64.5974   33.2285   46.8230 H   0  0  0  0  0  0  0  0  0  0  0  0
   66.0620   32.9880   48.7250 H   0  0  0  0  0  0  0  0  0  0  0  0
   66.6136   33.6346   52.3903 H   0  0  0  0  0  0  0  0  0  0  0  0
   68.2067   31.3808   51.6488 H   0  0  0  0  0  0  0  0  0  0  0  0
   67.3573   31.0997   50.3767 H   0  0  0  0  0  0  0  0  0  0  0  0
   69.1181   33.7526   50.9873 H   0  0  0  0  0  0  0  0  0  0  0  0
   68.4266   33.8835   49.5998 H   0  0  0  0  0  0  0  0  0  0  0  0
   63.0026   33.0224   50.8376 H   0  0  0  0  0  0  0  0  0  0  0  0
   60.7629   32.9384   51.2344 H   0  0  0  0  0  0  0  0  0  0  0  0
   59.6398   33.6673   50.0369 H   0  0  0  0  0  0  0  0  0  0  0  0
   59.9253   31.8938   50.0369 H   0  0  0  0  0  0  0  0  0  0  0  0
   57.6470   33.1411   47.6388 H   0  0  0  0  0  0  0  0  0  0  0  0
   57.2231   34.9140   47.4926 H   0  0  0  0  0  0  0  0  0  0  0  0
   56.5139   33.0252   45.6562 H   0  0  0  0  0  0  0  0  0  0  0  0
   56.7764   34.7795   45.2942 H   0  0  0  0  0  0  0  0  0  0  0  0
   55.6714   31.3926   43.4112 H   0  0  0  0  0  0  0  0  0  0  0  0
  1  2  2  0
  2  3  1  0
  3  4  2  0
  4  5  1  0
  5  6  1  0
  6  7  2  0
  6  8  1  0
  8  9  1  0
  9 10  1  0
 10 11  1  0
 11 12  1  0
 12 13  1  0
 13 14  2  0
 14 15  1  0
 15 16  2  0
 16 17  1  0
 17 18  1  0
 18 19  2  0
 18 20  1  0
 20 21  1  0
 21 22  1  0
 16 23  1  0
 23 24  2  0
 24 25  1  0
 11 26  1  0
 26 27  1  0
  5 28  2  0
 28 29  1  0
 29 30  2  0
 29 31  1  0
 31  3  1  0
 27  8  1  0
 24 13  1  0
 22 20  1  0
  1 32  1  0
  1 33  1  0
  2 34  1  0
  4 35  1  0
  9 36  1  0
  9 37  1  0
 10 38  1  0
 10 39  1  0
 11 40  1  0
 14 41  1  0
 15 42  1  0
 17 43  1  0
 20 44  1  0
 21 45  1  0
 21 46  1  0
 22 47  1  0
 22 48  1  0
 23 49  1  0
 25 50  1  0
 25 51  1  0
 25 52  1  0
 26 53  1  0
 26 54  1  0
 27 55  1  0
 27 56  1  0
 28 57  1  0
M  CHG  1  31  -1
M  END
>  <UniqueID>  (41) 
40

>  <SMILES>  (41) 
C=Cc1cc(C(=O)N2CCC(Oc3ccc(NC(=O)C4CC4)cc3C)CC2)cc(=O)[n-]1

>  <Energy>  (41) 
341.8000009839445

>  <Genealogy>  (41) 
C=Cc1cc(C(=O)N2CCC(Oc3ccc(NC(=O)C4CC4)cc3C)CC2)cc(=O)[n-]1 (protonated)
C=Cc1cc(C(=O)N2CCC(Oc3ccc(NC(=O)C4CC4)cc3C)CC2)cc(=O)[n-]1 (3D coordinates assigned)
C=Cc1cc(C(=O)N2CCC(Oc3ccc(NC(=O)C4CC4)cc3C)CC2)cc(=O)[n-]1 (nonaromatic ring conformer: 341.8000009839445 kcal/mol)

>  <smiles>  (41) 
C=Cc1cc(C(=O)N2CCC(Oc3ccc(NC(=O)C4CC4)cc3C)CC2)cc(=O)[nH]1

>  <score_type>  (41) 
oracle

>  <origin>  (41) 
adg

>  <m_score__min__energy>  (41) 
-11.130000000000001

>  <m_primary>  (41) 
energy

$$$$
41:0
     RDKit          3D

 38 40  0  0  0  0  0  0  0  0999 V2000
   55.6150   29.7580   44.0870 C   0  0  0  0  0  0  0  0  0  0  0  0
   56.5040   30.9560   44.0520 C   0  0  0  0  0  0  0  0  0  0  0  0
   57.2630   31.3020   42.9370 C   0  0  0  0  0  0  0  0  0  0  0  0
   58.1600   32.6700   43.3280 S   0  0  0  0  0  0  0  0  0  0  0  0
   57.5510   32.7530   44.9000 C   0  0  0  0  0  0  0  0  0  0  0  0
   57.8530   33.6360   45.8060 N   0  0  0  0  0  0  0  0  0  0  0  0
   58.9490   34.5670   45.7910 C   0  0  0  0  0  0  0  0  0  0  0  0
   59.0690   35.4270   44.8770 O   0  0  0  0  0  0  0  0  0  0  0  0
   59.9370   34.5460   46.9110 C   0  0  0  0  0  0  0  0  0  0  0  0
   59.9500   33.1940   47.5540 C   0  0  0  0  0  0  0  0  0  0  0  0
   59.5860   32.9830   48.8840 C   0  0  0  0  0  0  0  0  0  0  0  0
   59.6650   31.3310   49.1840 S   0  0  0  0  0  0  0  0  0  0  0  0
   60.1620   30.9610   47.6140 C   0  0  0  0  0  0  0  0  0  0  0  0
   60.3720   29.7720   47.1320 N   0  0  0  0  0  0  0  0  0  0  0  0
   59.3970   28.7300   46.9750 C   0  0  0  0  0  0  0  0  0  0  0  0
   58.3130   28.9400   46.1150 C   0  0  0  0  0  0  0  0  0  0  0  0
   57.3650   27.9330   45.9080 C   0  0  0  0  0  0  0  0  0  0  0  0
   57.5100   26.6900   46.5390 C   0  0  0  0  0  0  0  0  0  0  0  0
   56.3100   25.4260   46.2890 S   0  0  0  0  0  0  0  0  0  0  0  0
   54.7690   26.1450   45.9860 N   0  0  0  0  0  0  0  0  0  0  0  0
   56.2250   24.5550   47.5110 O   0  0  0  0  0  0  0  0  0  0  0  0
   56.7050   24.5730   45.1160 O   0  0  0  0  0  0  0  0  0  0  0  0
   58.6090   26.4640   47.3780 C   0  0  0  0  0  0  0  0  0  0  0  0
   59.5550   27.4720   47.5860 C   0  0  0  0  0  0  0  0  0  0  0  0
   60.2530   32.0690   46.8500 N   0  0  0  0  0  0  0  0  0  0  0  0
   56.6740   31.7560   45.1410 N   0  0  0  0  0  0  0  0  0  0  0  0
   55.4111   29.4832   45.1324 H   0  0  0  0  0  0  0  0  0  0  0  0
   54.6681   29.9891   43.5772 H   0  0  0  0  0  0  0  0  0  0  0  0
   56.1106   28.9186   43.5772 H   0  0  0  0  0  0  0  0  0  0  0  0
   57.2740   30.7743   41.9719 H   0  0  0  0  0  0  0  0  0  0  0  0
   60.9390   34.7724   46.5177 H   0  0  0  0  0  0  0  0  0  0  0  0
   59.6520   35.3001   47.6594 H   0  0  0  0  0  0  0  0  0  0  0  0
   59.2984   33.7597   49.6078 H   0  0  0  0  0  0  0  0  0  0  0  0
   58.2059   29.9049   45.5978 H   0  0  0  0  0  0  0  0  0  0  0  0
   56.5039   28.1168   45.2487 H   0  0  0  0  0  0  0  0  0  0  0  0
   54.7730   27.0810   46.4510 H   0  0  0  0  0  0  0  0  0  0  0  0
   58.7279   25.4899   47.8749 H   0  0  0  0  0  0  0  0  0  0  0  0
   60.4263   27.2812   48.2297 H   0  0  0  0  0  0  0  0  0  0  0  0
  1  2  1  0
  2  3  2  0
  3  4  1  0
  4  5  1  0
  5  6  2  3
  6  7  1  0
  7  8  2  0
  7  9  1  0
  9 10  1  0
 10 11  2  0
 11 12  1  0
 12 13  1  0
 13 14  2  3
 14 15  1  0
 15 16  2  0
 16 17  1  0
 17 18  2  0
 18 19  1  0
 19 20  1  0
 19 21  2  0
 19 22  2  0
 18 23  1  0
 23 24  2  0
 13 25  1  0
  5 26  1  0
 26  2  1  0
 25 10  1  0
 24 15  1  0
  1 27  1  0
  1 28  1  0
  1 29  1  0
  3 30  1  0
  9 31  1  0
  9 32  1  0
 11 33  1  0
 16 34  1  0
 17 35  1  0
 20 36  1  0
 23 37  1  0
 24 38  1  0
M  CHG  3  20  -1  25  -1  26  -1
M  END
>  <UniqueID>  (42) 
41

>  <SMILES>  (42) 
Cc1csc(=NC(=O)Cc2csc(=Nc3ccc(S([NH-])(=O)=O)cc3)[n-]2)[n-]1

>  <Energy>  (42) 
106.37011939832966

>  <Genealogy>  (42) 
Cc1csc(=NC(=O)Cc2csc(=Nc3ccc(S([NH-])(=O)=O)cc3)[n-]2)[n-]1 (protonated)
Cc1csc(=NC(=O)Cc2csc(=Nc3ccc(S([NH-])(=O)=O)cc3)[n-]2)[n-]1 (3D coordinates assigned)
Cc1csc(=NC(=O)Cc2csc(=Nc3ccc(S([NH-])(=O)=O)cc3)[n-]2)[n-]1 (optimized conformer: 106.37011939832966 kcal/mol)

>  <smiles>  (42) 
Cc1csc(=NC(=O)Cc2csc(=Nc3ccc(S(N)(=O)=O)cc3)[nH]2)[nH]1

>  <score_type>  (42) 
oracle

>  <origin>  (42) 
adg

>  <m_score__min__energy>  (42) 
-13.470000000000001

>  <m_primary>  (42) 
energy

$$$$
42:0
     RDKit          3D

 65 68  0  0  0  0  0  0  0  0999 V2000
   56.2941   29.2735   53.0388 H   0  0  0  0  0  0  0  0  0  0  0  0
   56.9230   29.9050   52.3940 C   0  0  0  0  0  0  0  0  0  0  0  0
   57.8530   29.3370   51.5860 N   0  0  0  0  0  0  0  0  0  0  0  0
   58.6520   30.0570   50.7520 C   0  0  0  0  0  0  0  0  0  0  0  0
   59.5700   29.3940   50.1040 N   0  0  0  0  0  0  0  0  0  0  0  0
   59.4740   28.4840   48.9990 C   0  0  0  0  0  0  0  0  0  0  0  0
   60.1420   27.4170   48.9980 O   0  0  0  0  0  0  0  0  0  0  0  0
   58.5270   28.7660   47.9530 N   0  0  0  0  0  0  0  0  0  0  0  0
   58.0500   29.6930   48.0230 H   0  0  0  0  0  0  0  0  0  0  0  0
   58.2180   27.9110   46.8280 C   0  0  0  0  0  0  0  0  0  0  0  0
   57.6020   26.6560   47.0180 C   0  0  0  0  0  0  0  0  0  0  0  0
   57.2880   26.3509   48.0271 H   0  0  0  0  0  0  0  0  0  0  0  0
   57.3870   25.7980   45.9390 C   0  0  0  0  0  0  0  0  0  0  0  0
   56.9272   24.8127   46.1057 H   0  0  0  0  0  0  0  0  0  0  0  0
   57.7530   26.1850   44.6490 C   0  0  0  0  0  0  0  0  0  0  0  0
   57.6139   25.4921   43.8061 H   0  0  0  0  0  0  0  0  0  0  0  0
   58.2940   27.4480   44.4300 C   0  0  0  0  0  0  0  0  0  0  0  0
   58.5515   27.7597   43.4070 H   0  0  0  0  0  0  0  0  0  0  0  0
   58.5150   28.3300   45.5020 C   0  0  0  0  0  0  0  0  0  0  0  0
   59.0390   29.6430   45.2190 N   0  0  0  0  0  0  0  0  0  0  0  0
   58.5310   30.3820   44.0560 C   0  0  0  0  0  0  0  0  0  0  0  0
   57.8828   29.7230   43.4597 H   0  0  0  0  0  0  0  0  0  0  0  0
   59.3793   30.7218   43.4437 H   0  0  0  0  0  0  0  0  0  0  0  0
   57.7250   31.6010   44.5240 C   0  0  0  0  0  0  0  0  0  0  0  0
   56.7449   31.2621   44.8908 H   0  0  0  0  0  0  0  0  0  0  0  0
   57.6085   32.2858   43.6711 H   0  0  0  0  0  0  0  0  0  0  0  0
   58.4150   32.3210   45.6020 N   0  0  0  0  0  0  0  0  0  0  0  0
   57.7860   33.4830   46.1800 C   0  0  0  0  0  0  0  0  0  0  0  0
   56.5320   33.4920   46.3390 O   0  0  0  0  0  0  0  0  0  0  0  0
   58.6070   34.6500   46.6650 C   0  0  0  0  0  0  0  0  0  0  0  0
   59.1385   34.3522   47.5809 H   0  0  0  0  0  0  0  0  0  0  0  0
   57.9209   35.4889   46.8534 H   0  0  0  0  0  0  0  0  0  0  0  0
   59.6340   35.1090   45.6270 C   0  0  0  0  0  0  0  0  0  0  0  0
   60.5221   35.5059   46.1405 H   0  0  0  0  0  0  0  0  0  0  0  0
   59.9254   34.2555   44.9973 H   0  0  0  0  0  0  0  0  0  0  0  0
   59.1925   35.8954   44.9973 H   0  0  0  0  0  0  0  0  0  0  0  0
   59.7520   31.8860   46.0340 C   0  0  0  0  0  0  0  0  0  0  0  0
   60.0243   32.4106   46.9617 H   0  0  0  0  0  0  0  0  0  0  0  0
   60.4821   32.1219   45.2458 H   0  0  0  0  0  0  0  0  0  0  0  0
   59.7520   30.3750   46.2860 C   0  0  0  0  0  0  0  0  0  0  0  0
   59.2576   30.1740   47.2478 H   0  0  0  0  0  0  0  0  0  0  0  0
   60.7963   30.0297   46.2998 H   0  0  0  0  0  0  0  0  0  0  0  0
   58.4430   31.4680   50.6580 C   0  0  0  0  0  0  0  0  0  0  0  0
   59.0220   32.3490   49.6150 C   0  0  0  0  0  0  0  0  0  0  0  0
   58.2310   32.8960   48.7940 O   0  0  0  0  0  0  0  0  0  0  0  0
   60.4460   32.5680   49.4850 N   0  0  0  0  0  0  0  0  0  0  0  0
   60.8940   33.7460   48.7100 C   0  0  0  0  0  0  0  0  0  0  0  0
   60.7722   33.5273   47.6389 H   0  0  0  0  0  0  0  0  0  0  0  0
   60.2795   34.6010   49.0283 H   0  0  0  0  0  0  0  0  0  0  0  0
   62.3530   34.1130   48.9680 C   0  0  0  0  0  0  0  0  0  0  0  0
   62.6382   34.9575   48.3234 H   0  0  0  0  0  0  0  0  0  0  0  0
   62.4783   34.3983   50.0229 H   0  0  0  0  0  0  0  0  0  0  0  0
   63.3900   32.7130   48.6050 S   0  0  0  0  0  0  0  0  0  0  0  0
   64.6900   32.8360   49.3490 O   0  0  0  0  0  0  0  0  0  0  0  0
   63.6560   32.6400   47.1270 O   0  0  0  0  0  0  0  0  0  0  0  0
   62.5200   31.2490   49.1380 C   0  0  0  0  0  0  0  0  0  0  0  0
   62.0798   30.7469   48.2639 H   0  0  0  0  0  0  0  0  0  0  0  0
   63.2247   30.5690   49.6390 H   0  0  0  0  0  0  0  0  0  0  0  0
   61.4110   31.6350   50.1130 C   0  0  0  0  0  0  0  0  0  0  0  0
   60.8779   30.7259   50.4282 H   0  0  0  0  0  0  0  0  0  0  0  0
   61.8676   32.1368   50.9789 H   0  0  0  0  0  0  0  0  0  0  0  0
   57.5230   32.0630   51.5350 C   0  0  0  0  0  0  0  0  0  0  0  0
   57.3989   33.1560   51.5340 H   0  0  0  0  0  0  0  0  0  0  0  0
   56.7660   31.2850   52.4060 C   0  0  0  0  0  0  0  0  0  0  0  0
   56.0515   31.7576   53.0960 H   0  0  0  0  0  0  0  0  0  0  0  0
  1  2  1  0
  2  3  1  0
  3  4  1  0
  4  5  2  0
  5  6  1  0
  6  7  2  0
  6  8  1  0
  8  9  1  0
  8 10  1  0
 10 11  2  0
 11 12  1  0
 11 13  1  0
 13 14  1  0
 13 15  2  0
 15 16  1  0
 15 17  1  0
 17 18  1  0
 17 19  2  0
 19 20  1  0
 20 21  1  0
 21 22  1  0
 21 23  1  0
 21 24  1  0
 24 25  1  0
 24 26  1  0
 24 27  1  0
 27 28  1  0
 28 29  2  0
 28 30  1  0
 30 31  1  0
 30 32  1  0
 30 33  1  0
 33 34  1  0
 33 35  1  0
 33 36  1  0
 27 37  1  0
 37 38  1  0
 37 39  1  0
 37 40  1  0
 40 41  1  0
 40 42  1  0
  4 43  1  0
 43 44  1  0
 44 45  2  0
 44 46  1  0
 46 47  1  0
 47 48  1  0
 47 49  1  0
 47 50  1  0
 50 51  1  0
 50 52  1  0
 50 53  1  0
 53 54  2  0
 53 55  2  0
 53 56  1  0
 56 57  1  0
 56 58  1  0
 56 59  1  0
 59 60  1  0
 59 61  1  0
 43 62  2  0
 62 63  1  0
 62 64  1  0
 64 65  1  0
 64  2  2  0
 19 10  1  0
 40 20  1  0
 59 46  1  0
M  CHG  1   3  -1
M  END
>  <UniqueID>  (43) 
42

>  <SMILES>  (43) 
CCC(=O)N1CCN(c2ccccc2NC(=O)/N=c2/[n-]cccc2C(=O)N2CCS(=O)(=O)CC2)CC1

>  <Energy>  (43) 
91.38045089497804

>  <Genealogy>  (43) 
CCC(=O)N1CCN(c2ccccc2NC(=O)N=c2[n-]cccc2C(=O)N2CCS(=O)(=O)CC2)CC1 (protonated)
CCC(=O)N1CCN(c2ccccc2NC(=O)/N=c2/[n-]cccc2C(=O)N2CCS(=O)(=O)CC2)CC1 (cis-trans isomerization)
CCC(=O)N1CCN(c2ccccc2NC(=O)/N=c2/[n-]cccc2C(=O)N2CCS(=O)(=O)CC2)CC1 (3D coordinates assigned)
CCC(=O)N1CCN(c2ccccc2NC(=O)/N=c2/[n-]cccc2C(=O)N2CCS(=O)(=O)CC2)CC1 (nonaromatic ring conformer: 91.38045089497804 kcal/mol)

>  <smiles>  (43) 
CCC(=O)N1CCN(c2ccccc2NC(=O)N=c2[nH]cccc2C(=O)N2CCS(=O)(=O)CC2)CC1

>  <score_type>  (43) 
oracle

>  <origin>  (43) 
adg

>  <m_score__min__energy>  (43) 
-12.18

>  <m_primary>  (43) 
energy

$$$$
43:0
     RDKit          3D

 34 36  0  0  0  0  0  0  0  0999 V2000
   58.1550   31.5410   43.9560 C   0  0  0  0  0  0  0  0  0  0  0  0
   58.0770   30.4010   44.6460 C   0  0  0  0  0  0  0  0  0  0  0  0
   57.9110   29.1960   44.0670 N   0  0  0  0  0  0  0  0  0  0  0  0
   57.9010   28.2800   45.0580 C   0  0  0  0  0  0  0  0  0  0  0  0
   57.7400   26.9670   44.8320 C   0  0  0  0  0  0  0  0  0  0  0  0
   57.2740   25.9970   45.8410 C   0  0  0  0  0  0  0  0  0  0  0  0
   57.9980   24.9870   46.3560 N   0  0  0  0  0  0  0  0  0  0  0  0
   57.1330   24.3150   47.1420 C   0  0  0  0  0  0  0  0  0  0  0  0
   57.4540   23.2900   47.7970 O   0  0  0  0  0  0  0  0  0  0  0  0
   55.8830   24.8280   47.1500 N   0  0  0  0  0  0  0  0  0  0  0  0
   55.9870   25.8810   46.3160 C   0  0  0  0  0  0  0  0  0  0  0  0
   54.9250   26.7150   45.9920 O   0  0  0  0  0  0  0  0  0  0  0  0
   58.0420   28.9070   46.2890 C   0  0  0  0  0  0  0  0  0  0  0  0
   58.1490   30.2610   46.0260 C   0  0  0  0  0  0  0  0  0  0  0  0
   58.3880   31.3260   47.0600 C   0  0  0  0  0  0  0  0  0  0  0  0
   59.8330   31.7400   47.0570 C   0  0  0  0  0  0  0  0  0  0  0  0
   60.1880   33.0750   46.8140 C   0  0  0  0  0  0  0  0  0  0  0  0
   61.5300   33.4600   46.8430 C   0  0  0  0  0  0  0  0  0  0  0  0
   62.5140   32.5000   47.1220 C   0  0  0  0  0  0  0  0  0  0  0  0
   63.7680   32.8230   47.1570 N   0  0  0  0  0  0  0  0  0  0  0  0
   62.1500   31.2120   47.3620 N   0  0  0  0  0  0  0  0  0  0  0  0
   60.8490   30.8150   47.3400 C   0  0  0  0  0  0  0  0  0  0  0  0
   58.2910   32.4958   44.4849 H   0  0  0  0  0  0  0  0  0  0  0  0
   58.0833   31.5256   42.8585 H   0  0  0  0  0  0  0  0  0  0  0  0
   57.8200   29.0050   43.0430 H   0  0  0  0  0  0  0  0  0  0  0  0
   57.9713   26.5882   43.8255 H   0  0  0  0  0  0  0  0  0  0  0  0
   58.9890   24.7300   46.1510 H   0  0  0  0  0  0  0  0  0  0  0  0
   58.0642   28.4233   47.2767 H   0  0  0  0  0  0  0  0  0  0  0  0
   57.7596   32.1998   46.8331 H   0  0  0  0  0  0  0  0  0  0  0  0
   58.1322   30.9258   48.0521 H   0  0  0  0  0  0  0  0  0  0  0  0
   59.4077   33.8202   46.6001 H   0  0  0  0  0  0  0  0  0  0  0  0
   61.8126   34.5052   46.6491 H   0  0  0  0  0  0  0  0  0  0  0  0
   64.5220   32.1800   46.8230 H   0  0  0  0  0  0  0  0  0  0  0  0
   60.5928   29.7650   47.5448 H   0  0  0  0  0  0  0  0  0  0  0  0
  1  2  2  0
  2  3  1  0
  3  4  1  0
  4  5  2  3
  5  6  1  0
  6  7  1  0
  7  8  1  0
  8  9  2  0
  8 10  1  0
 10 11  1  0
 11 12  1  0
  4 13  1  0
 13 14  2  0
 14 15  1  0
 15 16  1  0
 16 17  1  0
 17 18  2  0
 18 19  1  0
 19 20  2  3
 19 21  1  0
 21 22  1  0
 14  2  1  0
 22 16  2  0
 11  6  2  0
  1 23  1  0
  1 24  1  0
  3 25  1  0
  5 26  1  0
  7 27  1  0
 13 28  1  0
 15 29  1  0
 15 30  1  0
 17 31  1  0
 18 32  1  0
 20 33  1  0
 22 34  1  0
M  CHG  3  10  -1  12  -1  21  -1
M  END
>  <UniqueID>  (44) 
43

>  <SMILES>  (44) 
C=c1[nH]c(=Cc2[nH]c(=O)[n-]c2[O-])cc1Cc1ccc(=N)[n-]c1

>  <Energy>  (44) 
97.26555832246828

>  <Genealogy>  (44) 
C=c1[nH]c(=Cc2[nH]c(=O)[n-]c2[O-])cc1Cc1ccc(=N)[n-]c1 (protonated)
C=c1[nH]c(=Cc2[nH]c(=O)[n-]c2[O-])cc1Cc1ccc(=N)[n-]c1 (3D coordinates assigned)
C=c1[nH]c(=Cc2[nH]c(=O)[n-]c2[O-])cc1Cc1ccc(=N)[n-]c1 (optimized conformer: 97.26555832246828 kcal/mol)

>  <smiles>  (44) 
C=c1[nH]c(=Cc2[nH]c(=O)[nH]c2O)cc1Cc1ccc(=N)[nH]c1

>  <score_type>  (44) 
oracle

>  <origin>  (44) 
adg

>  <m_score__min__energy>  (44) 
-14.34

>  <m_primary>  (44) 
energy

$$$$
44:0
     RDKit          3D

 52 54  0  0  0  0  0  0  0  0999 V2000
   56.0470   27.0800   45.9110 O   0  0  0  0  0  0  0  0  0  0  0  0
   56.4960   28.0920   45.3090 C   0  0  0  0  0  0  0  0  0  0  0  0
   57.9780   28.1890   45.0640 C   0  0  0  0  0  0  0  0  0  0  0  0
   58.6660   28.8310   46.2400 C   0  0  0  0  0  0  0  0  0  0  0  0
   58.3750   28.4130   47.5470 C   0  0  0  0  0  0  0  0  0  0  0  0
   59.0080   29.0140   48.6380 C   0  0  0  0  0  0  0  0  0  0  0  0
   59.9500   30.0400   48.4420 C   0  0  0  0  0  0  0  0  0  0  0  0
   60.6100   30.6620   49.5650 N   0  0  0  0  0  0  0  0  0  0  0  0
   62.0220   30.5040   49.8840 C   0  0  0  0  0  0  0  0  0  0  0  0
   62.3190   31.4980   51.0210 C   0  0  0  0  0  0  0  0  0  0  0  0
   60.9670   32.0090   51.5370 C   0  0  0  0  0  0  0  0  0  0  0  0
   60.0070   31.4880   50.5460 C   0  0  0  0  0  0  0  0  0  0  0  0
   58.7670   31.6990   50.6110 O   0  0  0  0  0  0  0  0  0  0  0  0
   60.2160   30.4740   47.1330 C   0  0  0  0  0  0  0  0  0  0  0  0
   59.5790   29.8760   46.0420 C   0  0  0  0  0  0  0  0  0  0  0  0
   55.5770   29.0980   44.8740 N   0  0  0  0  0  0  0  0  0  0  0  0
   55.5820   29.7240   43.5570 C   0  0  0  0  0  0  0  0  0  0  0  0
   56.5890   30.8280   43.5370 C   0  0  0  0  0  0  0  0  0  0  0  0
   57.0320   31.2390   42.4290 O   0  0  0  0  0  0  0  0  0  0  0  0
   57.0440   31.4210   44.7600 N   0  0  0  0  0  0  0  0  0  0  0  0
   58.0250   32.5060   44.7670 C   0  0  0  0  0  0  0  0  0  0  0  0
   58.1650   33.0850   46.1480 C   0  0  0  0  0  0  0  0  0  0  0  0
   57.4050   32.6740   47.0610 O   0  0  0  0  0  0  0  0  0  0  0  0
   59.0690   34.1570   46.4340 N   0  0  0  0  0  0  0  0  0  0  0  0
   60.3590   34.0360   47.0440 C   0  0  0  0  0  0  0  0  0  0  0  0
   61.4690   33.5600   46.3240 C   0  0  0  0  0  0  0  0  0  0  0  0
   62.7090   33.4230   46.9530 C   0  0  0  0  0  0  0  0  0  0  0  0
   62.8490   33.7420   48.3060 C   0  0  0  0  0  0  0  0  0  0  0  0
   64.0540   33.6060   48.9100 F   0  0  0  0  0  0  0  0  0  0  0  0
   61.7430   34.1910   49.0350 C   0  0  0  0  0  0  0  0  0  0  0  0
   61.8750   34.4870   50.3490 F   0  0  0  0  0  0  0  0  0  0  0  0
   60.4990   34.3280   48.4080 C   0  0  0  0  0  0  0  0  0  0  0  0
   59.4310   34.7630   49.1230 F   0  0  0  0  0  0  0  0  0  0  0  0
   58.3868   27.1791   44.9125 H   0  0  0  0  0  0  0  0  0  0  0  0
   58.1512   28.8061   44.1700 H   0  0  0  0  0  0  0  0  0  0  0  0
   57.6445   27.6077   47.7139 H   0  0  0  0  0  0  0  0  0  0  0  0
   58.7677   28.6820   49.6588 H   0  0  0  0  0  0  0  0  0  0  0  0
   62.2255   29.4747   50.2144 H   0  0  0  0  0  0  0  0  0  0  0  0
   62.6556   30.6982   49.0060 H   0  0  0  0  0  0  0  0  0  0  0  0
   62.8656   30.9928   51.8309 H   0  0  0  0  0  0  0  0  0  0  0  0
   62.9412   32.3307   50.6611 H   0  0  0  0  0  0  0  0  0  0  0  0
   60.7524   31.6119   52.5401 H   0  0  0  0  0  0  0  0  0  0  0  0
   60.9304   33.1038   51.6376 H   0  0  0  0  0  0  0  0  0  0  0  0
   60.9321   31.2919   46.9649 H   0  0  0  0  0  0  0  0  0  0  0  0
   59.7954   30.2274   45.0223 H   0  0  0  0  0  0  0  0  0  0  0  0
   55.8435   28.9747   42.7953 H   0  0  0  0  0  0  0  0  0  0  0  0
   54.5840   30.1325   43.3401 H   0  0  0  0  0  0  0  0  0  0  0  0
   56.6430   31.0800   45.6660 H   0  0  0  0  0  0  0  0  0  0  0  0
   58.9992   32.1145   44.4388 H   0  0  0  0  0  0  0  0  0  0  0  0
   57.6829   33.2975   44.0839 H   0  0  0  0  0  0  0  0  0  0  0  0
   61.3607   33.2946   45.2620 H   0  0  0  0  0  0  0  0  0  0  0  0
   63.5773   33.0631   46.3815 H   0  0  0  0  0  0  0  0  0  0  0  0
  1  2  2  0
  2  3  1  0
  3  4  1  0
  4  5  2  0
  5  6  1  0
  6  7  2  0
  7  8  1  0
  8  9  1  0
  9 10  1  0
 10 11  1  0
 11 12  1  0
 12 13  2  0
  7 14  1  0
 14 15  2  0
  2 16  1  0
 16 17  1  0
 17 18  1  0
 18 19  2  0
 18 20  1  0
 20 21  1  0
 21 22  1  0
 22 23  2  0
 22 24  1  0
 24 25  1  0
 25 26  2  0
 26 27  1  0
 27 28  2  0
 28 29  1  0
 28 30  1  0
 30 31  1  0
 30 32  2  0
 32 33  1  0
 15  4  1  0
 32 25  1  0
 12  8  1  0
  3 34  1  0
  3 35  1  0
  5 36  1  0
  6 37  1  0
  9 38  1  0
  9 39  1  0
 10 40  1  0
 10 41  1  0
 11 42  1  0
 11 43  1  0
 14 44  1  0
 15 45  1  0
 17 46  1  0
 17 47  1  0
 20 48  1  0
 21 49  1  0
 21 50  1  0
 26 51  1  0
 27 52  1  0
M  CHG  2  16  -1  24  -1
M  END
>  <UniqueID>  (45) 
44

>  <SMILES>  (45) 
O=C(Cc1ccc(N2CCCC2=O)cc1)[N-]CC(=O)NCC(=O)[N-]c1ccc(F)c(F)c1F

>  <Energy>  (45) 
63.058604659977846

>  <Genealogy>  (45) 
O=C(Cc1ccc(N2CCCC2=O)cc1)[N-]CC(=O)NCC(=O)[N-]c1ccc(F)c(F)c1F (protonated)
O=C(Cc1ccc(N2CCCC2=O)cc1)[N-]CC(=O)NCC(=O)[N-]c1ccc(F)c(F)c1F (3D coordinates assigned)
O=C(Cc1ccc(N2CCCC2=O)cc1)[N-]CC(=O)NCC(=O)[N-]c1ccc(F)c(F)c1F (nonaromatic ring conformer: 63.058604659977846 kcal/mol)

>  <smiles>  (45) 
O=C(CNC(=O)Cc1ccc(N2CCCC2=O)cc1)NCC(=O)Nc1ccc(F)c(F)c1F

>  <score_type>  (45) 
oracle

>  <origin>  (45) 
adg

>  <m_score__min__energy>  (45) 
-12.74

>  <m_primary>  (45) 
energy

$$$$
45:0
     RDKit          3D

 52 54  0  0  0  0  0  0  0  0999 V2000
   57.4076   33.8983   43.5874 H   0  0  0  0  0  0  0  0  0  0  0  0
   57.8050   33.8070   44.6090 C   0  0  0  0  0  0  0  0  0  0  0  0
   58.8310   34.6540   45.0380 C   0  0  0  0  0  0  0  0  0  0  0  0
   59.2423   35.4092   44.3520 H   0  0  0  0  0  0  0  0  0  0  0  0
   59.3360   34.5430   46.3390 C   0  0  0  0  0  0  0  0  0  0  0  0
   60.1467   35.2081   46.6712 H   0  0  0  0  0  0  0  0  0  0  0  0
   58.8100   33.5840   47.2220 C   0  0  0  0  0  0  0  0  0  0  0  0
   59.3780   33.4420   48.6110 C   0  0  0  0  0  0  0  0  0  0  0  0
   59.8422   32.4496   48.7091 H   0  0  0  0  0  0  0  0  0  0  0  0
   58.5593   33.5605   49.3360 H   0  0  0  0  0  0  0  0  0  0  0  0
   60.4310   34.5150   48.8900 C   0  0  0  0  0  0  0  0  0  0  0  0
   60.3649   34.8237   49.9437 H   0  0  0  0  0  0  0  0  0  0  0  0
   60.2466   35.3782   48.2336 H   0  0  0  0  0  0  0  0  0  0  0  0
   61.7670   33.9910   48.6240 N   0  0  0  0  0  0  0  0  0  0  0  0
   62.0800   33.0040   47.6320 C   0  0  0  0  0  0  0  0  0  0  0  0
   62.0840   33.3440   46.4200 O   0  0  0  0  0  0  0  0  0  0  0  0
   62.4330   31.5850   47.9910 C   0  0  0  0  0  0  0  0  0  0  0  0
   62.6594   31.5280   49.0659 H   0  0  0  0  0  0  0  0  0  0  0  0
   63.3105   31.2748   47.4047 H   0  0  0  0  0  0  0  0  0  0  0  0
   61.2830   30.6660   47.6760 C   0  0  0  0  0  0  0  0  0  0  0  0
   61.1040   30.1830   46.3690 C   0  0  0  0  0  0  0  0  0  0  0  0
   61.7927   30.4965   45.5706 H   0  0  0  0  0  0  0  0  0  0  0  0
   60.0550   29.3060   46.0780 C   0  0  0  0  0  0  0  0  0  0  0  0
   59.9204   28.9355   45.0511 H   0  0  0  0  0  0  0  0  0  0  0  0
   59.1730   28.8960   47.0890 C   0  0  0  0  0  0  0  0  0  0  0  0
   58.0740   27.9550   46.7770 C   0  0  0  0  0  0  0  0  0  0  0  0
   57.0270   28.2900   45.8890 C   0  0  0  0  0  0  0  0  0  0  0  0
   56.9410   29.6370   45.2310 C   0  0  0  0  0  0  0  0  0  0  0  0
   56.8910   30.4194   46.0025 H   0  0  0  0  0  0  0  0  0  0  0  0
   57.8308   29.7964   44.6042 H   0  0  0  0  0  0  0  0  0  0  0  0
   56.0382   29.6819   44.6042 H   0  0  0  0  0  0  0  0  0  0  0  0
   56.0580   27.3710   45.6180 N   0  0  0  0  0  0  0  0  0  0  0  0
   56.0400   26.1300   46.1740 C   0  0  0  0  0  0  0  0  0  0  0  0
   55.0620   25.3270   45.8600 N   0  0  0  0  0  0  0  0  0  0  0  0
   55.0910   24.2150   44.9510 C   0  0  0  0  0  0  0  0  0  0  0  0
   54.1020   23.4340   44.9120 O   0  0  0  0  0  0  0  0  0  0  0  0
   56.1850   24.0570   43.9340 C   0  0  0  0  0  0  0  0  0  0  0  0
   55.8468   24.4662   42.9706 H   0  0  0  0  0  0  0  0  0  0  0  0
   57.0773   24.5988   44.2808 H   0  0  0  0  0  0  0  0  0  0  0  0
   56.5950   22.3340   43.7300 Cl  0  0  0  0  0  0  0  0  0  0  0  0
   57.0460   25.7800   47.0940 C   0  0  0  0  0  0  0  0  0  0  0  0
   57.0330   24.7938   47.5811 H   0  0  0  0  0  0  0  0  0  0  0  0
   58.0590   26.6930   47.3830 C   0  0  0  0  0  0  0  0  0  0  0  0
   58.8533   26.4196   48.0932 H   0  0  0  0  0  0  0  0  0  0  0  0
   59.3610   29.3640   48.4010 C   0  0  0  0  0  0  0  0  0  0  0  0
   58.5200   28.9820   49.3970 F   0  0  0  0  0  0  0  0  0  0  0  0
   60.4080   30.2440   48.6900 C   0  0  0  0  0  0  0  0  0  0  0  0
   60.5474   30.6083   49.7185 H   0  0  0  0  0  0  0  0  0  0  0  0
   57.7860   32.7280   46.7780 C   0  0  0  0  0  0  0  0  0  0  0  0
   57.3783   31.9640   47.4563 H   0  0  0  0  0  0  0  0  0  0  0  0
   57.2840   32.8440   45.4780 C   0  0  0  0  0  0  0  0  0  0  0  0
   56.4781   32.1766   45.1388 H   0  0  0  0  0  0  0  0  0  0  0  0
  1  2  1  0
  2  3  2  0
  3  4  1  0
  3  5  1  0
  5  6  1  0
  5  7  2  0
  7  8  1  0
  8  9  1  0
  8 10  1  0
  8 11  1  0
 11 12  1  0
 11 13  1  0
 11 14  1  0
 14 15  1  0
 15 16  2  0
 15 17  1  0
 17 18  1  0
 17 19  1  0
 17 20  1  0
 20 21  2  0
 21 22  1  0
 21 23  1  0
 23 24  1  0
 23 25  2  0
 25 26  1  0
 26 27  2  0
 27 28  1  0
 28 29  1  0
 28 30  1  0
 28 31  1  0
 27 32  1  0
 32 33  1  0
 33 34  2  0
 34 35  1  0
 35 36  2  0
 35 37  1  0
 37 38  1  0
 37 39  1  0
 37 40  1  0
 33 41  1  0
 41 42  1  0
 41 43  2  0
 43 44  1  0
 25 45  1  0
 45 46  1  0
 45 47  2  0
 47 48  1  0
  7 49  1  0
 49 50  1  0
 49 51  2  0
 51 52  1  0
 51  2  1  0
 47 20  1  0
 43 26  1  0
M  CHG  2  14  -1  32  -1
M  END
>  <UniqueID>  (46) 
45

>  <SMILES>  (46) 
Cc1[n-]/c(=N/C(=O)CCl)ccc1-c1ccc(CC(=O)[N-]CCc2ccccc2)cc1F

>  <Energy>  (46) 
63.80744463805823

>  <Genealogy>  (46) 
Cc1[n-]c(=NC(=O)CCl)ccc1-c1ccc(CC(=O)[N-]CCc2ccccc2)cc1F (protonated)
Cc1[n-]/c(=N/C(=O)CCl)ccc1-c1ccc(CC(=O)[N-]CCc2ccccc2)cc1F (cis-trans isomerization)
Cc1[n-]/c(=N/C(=O)CCl)ccc1-c1ccc(CC(=O)[N-]CCc2ccccc2)cc1F (3D coordinates assigned)
Cc1[n-]/c(=N/C(=O)CCl)ccc1-c1ccc(CC(=O)[N-]CCc2ccccc2)cc1F (optimized conformer: 63.80744463805823 kcal/mol)

>  <smiles>  (46) 
Cc1[nH]c(=NC(=O)CCl)ccc1-c1ccc(CC(=O)NCCc2ccccc2)cc1F

>  <score_type>  (46) 
oracle

>  <origin>  (46) 
adg

>  <m_score__min__energy>  (46) 
-11.130000000000001

>  <m_primary>  (46) 
energy

$$$$
46:0
     RDKit          3D

 39 41  0  0  0  0  0  0  0  0999 V2000
   58.3640   29.2410   51.0940 O   0  0  0  0  0  0  0  0  0  0  0  0
   57.8880   30.3960   50.9190 C   0  0  0  0  0  0  0  0  0  0  0  0
   56.9510   30.9380   51.8540 N   0  0  0  0  0  0  0  0  0  0  0  0
   56.5120   30.2370   53.0560 C   0  0  0  0  0  0  0  0  0  0  0  0
   55.0090   30.2230   53.1330 C   0  0  0  0  0  0  0  0  0  0  0  0
   54.3740   29.9280   54.3470 C   0  0  0  0  0  0  0  0  0  0  0  0
   52.9820   29.9530   54.4370 C   0  0  0  0  0  0  0  0  0  0  0  0
   52.2110   30.2700   53.3150 C   0  0  0  0  0  0  0  0  0  0  0  0
   52.8270   30.5600   52.0850 C   0  0  0  0  0  0  0  0  0  0  0  0
   51.9890   30.9060   50.9120 C   0  0  0  0  0  0  0  0  0  0  0  0
   51.9100   30.1430   49.8060 N   0  0  0  0  0  0  0  0  0  0  0  0
   51.0630   30.8240   49.0050 C   0  0  0  0  0  0  0  0  0  0  0  0
   50.7330   30.4150   47.8630 O   0  0  0  0  0  0  0  0  0  0  0  0
   50.6010   31.9800   49.5260 N   0  0  0  0  0  0  0  0  0  0  0  0
   51.1970   32.0230   50.7280 C   0  0  0  0  0  0  0  0  0  0  0  0
   51.0390   33.0800   51.6150 O   0  0  0  0  0  0  0  0  0  0  0  0
   54.2320   30.5460   52.0070 C   0  0  0  0  0  0  0  0  0  0  0  0
   58.2830   31.1770   49.7860 N   0  0  0  0  0  0  0  0  0  0  0  0
   59.2460   30.6990   48.7960 C   0  0  0  0  0  0  0  0  0  0  0  0
   59.6100   31.8050   47.8440 C   0  0  0  0  0  0  0  0  0  0  0  0
   60.9380   32.2520   47.7420 C   0  0  0  0  0  0  0  0  0  0  0  0
   61.2640   33.2990   46.8720 C   0  0  0  0  0  0  0  0  0  0  0  0
   62.9240   33.8530   46.7490 Cl  0  0  0  0  0  0  0  0  0  0  0  0
   60.2660   33.9050   46.1010 C   0  0  0  0  0  0  0  0  0  0  0  0
   58.9410   33.4670   46.2010 C   0  0  0  0  0  0  0  0  0  0  0  0
   57.6900   34.2320   45.2380 Cl  0  0  0  0  0  0  0  0  0  0  0  0
   58.6130   32.4210   47.0720 C   0  0  0  0  0  0  0  0  0  0  0  0
   56.8836   29.2020   53.0286 H   0  0  0  0  0  0  0  0  0  0  0  0
   56.9107   30.7573   53.9394 H   0  0  0  0  0  0  0  0  0  0  0  0
   54.9756   29.6757   55.2326 H   0  0  0  0  0  0  0  0  0  0  0  0
   52.4899   29.7226   55.3934 H   0  0  0  0  0  0  0  0  0  0  0  0
   51.1141   30.2927   53.3950 H   0  0  0  0  0  0  0  0  0  0  0  0
   54.7271   30.7902   51.0556 H   0  0  0  0  0  0  0  0  0  0  0  0
   57.8540   32.1210   49.6520 H   0  0  0  0  0  0  0  0  0  0  0  0
   60.1533   30.3507   49.3113 H   0  0  0  0  0  0  0  0  0  0  0  0
   58.7940   29.8727   48.2278 H   0  0  0  0  0  0  0  0  0  0  0  0
   61.7242   31.7777   48.3478 H   0  0  0  0  0  0  0  0  0  0  0  0
   60.5233   34.7262   45.4159 H   0  0  0  0  0  0  0  0  0  0  0  0
   57.5700   32.0808   47.1515 H   0  0  0  0  0  0  0  0  0  0  0  0
  1  2  2  0
  2  3  1  0
  3  4  1  0
  4  5  1  0
  5  6  2  0
  6  7  1  0
  7  8  2  0
  8  9  1  0
  9 10  1  0
 10 11  1  0
 11 12  1  0
 12 13  2  0
 12 14  1  0
 14 15  1  0
 15 16  1  0
  9 17  2  0
  2 18  1  0
 18 19  1  0
 19 20  1  0
 20 21  2  0
 21 22  1  0
 22 23  1  0
 22 24  2  0
 24 25  1  0
 25 26  1  0
 25 27  2  0
 17  5  1  0
 27 20  1  0
 15 10  2  0
  4 28  1  0
  4 29  1  0
  6 30  1  0
  7 31  1  0
  8 32  1  0
 17 33  1  0
 18 34  1  0
 19 35  1  0
 19 36  1  0
 21 37  1  0
 24 38  1  0
 27 39  1  0
M  CHG  4   3  -1  11  -1  14  -1  16  -1
M  END
>  <UniqueID>  (47) 
46

>  <SMILES>  (47) 
O=C([N-]Cc1cccc(-c2[n-]c(=O)[n-]c2[O-])c1)NCc1cc(Cl)cc(Cl)c1

>  <Energy>  (47) 
68.5012224057648

>  <Genealogy>  (47) 
O=C([N-]Cc1cccc(-c2[n-]c(=O)[n-]c2[O-])c1)NCc1cc(Cl)cc(Cl)c1 (protonated)
O=C([N-]Cc1cccc(-c2[n-]c(=O)[n-]c2[O-])c1)NCc1cc(Cl)cc(Cl)c1 (3D coordinates assigned)
O=C([N-]Cc1cccc(-c2[n-]c(=O)[n-]c2[O-])c1)NCc1cc(Cl)cc(Cl)c1 (optimized conformer: 68.5012224057648 kcal/mol)

>  <smiles>  (47) 
O=C(NCc1cc(Cl)cc(Cl)c1)NCc1cccc(-c2[nH]c(=O)[nH]c2O)c1

>  <score_type>  (47) 
oracle

>  <origin>  (47) 
adg

>  <m_score__min__energy>  (47) 
-19.109999999999999

>  <m_primary>  (47) 
energy

$$$$
47:0
     RDKit          3D

 54 57  0  0  0  0  0  0  0  0999 V2000
   54.4741   27.7168   54.6528 H   0  0  0  0  0  0  0  0  0  0  0  0
   53.8820   28.3720   53.9970 C   0  0  0  0  0  0  0  0  0  0  0  0
   52.7864   28.2773   53.9690 H   0  0  0  0  0  0  0  0  0  0  0  0
   54.4970   29.2880   53.2300 C   0  0  0  0  0  0  0  0  0  0  0  0
   53.8820   30.1910   52.3470 C   0  0  0  0  0  0  0  0  0  0  0  0
   52.5900   30.5430   52.1980 C   0  0  0  0  0  0  0  0  0  0  0  0
   51.9613   30.5397   53.1006 H   0  0  0  0  0  0  0  0  0  0  0  0
   51.9460   30.9320   50.9310 C   0  0  0  0  0  0  0  0  0  0  0  0
   51.8280   30.1310   49.8550 N   0  0  0  0  0  0  0  0  0  0  0  0
   51.0390   30.8450   49.0210 C   0  0  0  0  0  0  0  0  0  0  0  0
   50.7020   30.4260   47.8830 O   0  0  0  0  0  0  0  0  0  0  0  0
   50.6280   32.0350   49.5080 N   0  0  0  0  0  0  0  0  0  0  0  0
   51.1990   32.0660   50.7240 C   0  0  0  0  0  0  0  0  0  0  0  0
   51.0320   33.1070   51.6290 O   0  0  0  0  0  0  0  0  0  0  0  0
   54.8970   30.7430   51.5870 C   0  0  0  0  0  0  0  0  0  0  0  0
   54.7816   31.4613   50.7620 H   0  0  0  0  0  0  0  0  0  0  0  0
   56.0800   30.2210   52.0610 C   0  0  0  0  0  0  0  0  0  0  0  0
   57.4140   30.5790   51.5490 C   0  0  0  0  0  0  0  0  0  0  0  0
   58.0830   29.7020   50.9370 O   0  0  0  0  0  0  0  0  0  0  0  0
   57.9510   31.9060   51.7190 N   0  0  0  0  0  0  0  0  0  0  0  0
   57.2430   32.9910   52.3810 C   0  0  0  0  0  0  0  0  0  0  0  0
   56.3939   33.3255   51.7669 H   0  0  0  0  0  0  0  0  0  0  0  0
   56.8351   32.6755   53.3526 H   0  0  0  0  0  0  0  0  0  0  0  0
   58.2590   34.1130   52.5370 C   0  0  0  0  0  0  0  0  0  0  0  0
   57.7942   35.0837   52.3097 H   0  0  0  0  0  0  0  0  0  0  0  0
   58.6432   34.1681   53.5662 H   0  0  0  0  0  0  0  0  0  0  0  0
   59.3740   33.8130   51.5400 C   0  0  0  0  0  0  0  0  0  0  0  0
   59.2369   34.4040   50.6224 H   0  0  0  0  0  0  0  0  0  0  0  0
   60.3625   34.0724   51.9470 H   0  0  0  0  0  0  0  0  0  0  0  0
   59.2650   32.3150   51.2320 C   0  0  2  0  0  0  0  0  0  0  0  0
   60.0656   31.7425   51.7231 H   0  0  0  0  0  0  0  0  0  0  0  0
   59.4260   32.0420   49.7480 C   0  0  0  0  0  0  0  0  0  0  0  0
   60.1150   30.9050   49.2970 C   0  0  0  0  0  0  0  0  0  0  0  0
   60.5461   30.2018   50.0248 H   0  0  0  0  0  0  0  0  0  0  0  0
   60.2560   30.6620   47.9280 C   0  0  0  0  0  0  0  0  0  0  0  0
   60.8072   29.7752   47.5819 H   0  0  0  0  0  0  0  0  0  0  0  0
   59.6990   31.5420   46.9990 C   0  0  0  0  0  0  0  0  0  0  0  0
   59.8072   31.3409   45.9230 H   0  0  0  0  0  0  0  0  0  0  0  0
   59.0040   32.6780   47.4270 C   0  0  0  0  0  0  0  0  0  0  0  0
   58.4690   33.5370   46.4540 O   0  0  0  0  0  0  0  0  0  0  0  0
   57.1210   33.4860   45.9910 C   0  0  0  0  0  0  0  0  0  0  0  0
   56.4380   33.4602   46.8529 H   0  0  0  0  0  0  0  0  0  0  0  0
   56.9087   34.3768   45.3815 H   0  0  0  0  0  0  0  0  0  0  0  0
   56.9766   32.5817   45.3815 H   0  0  0  0  0  0  0  0  0  0  0  0
   58.8630   32.9200   48.8070 C   0  0  0  0  0  0  0  0  0  0  0  0
   58.3070   33.8045   49.1513 H   0  0  0  0  0  0  0  0  0  0  0  0
   55.8480   29.3570   53.0780 N   0  0  0  0  0  0  0  0  0  0  0  0
   56.8690   28.5310   53.7400 C   0  0  0  0  0  0  0  0  0  0  0  0
   56.3753   27.7120   54.2836 H   0  0  0  0  0  0  0  0  0  0  0  0
   57.5477   28.1242   52.9759 H   0  0  0  0  0  0  0  0  0  0  0  0
   57.6790   29.3690   54.7230 C   0  0  0  0  0  0  0  0  0  0  0  0
   57.4091   29.0898   55.7522 H   0  0  0  0  0  0  0  0  0  0  0  0
   58.7519   29.1867   54.5630 H   0  0  0  0  0  0  0  0  0  0  0  0
   57.4604   30.4351   54.5630 H   0  0  0  0  0  0  0  0  0  0  0  0
  1  2  1  0
  2  3  1  0
  2  4  2  0
  4  5  1  0
  5  6  2  0
  6  7  1  0
  6  8  1  0
  8  9  1  0
  9 10  1  0
 10 11  2  0
 10 12  1  0
 12 13  1  0
 13 14  1  0
  5 15  1  0
 15 16  1  0
 15 17  2  0
 17 18  1  0
 18 19  2  0
 18 20  1  0
 20 21  1  0
 21 22  1  0
 21 23  1  0
 21 24  1  0
 24 25  1  0
 24 26  1  0
 24 27  1  0
 27 28  1  0
 27 29  1  0
 27 30  1  0
 30 31  1  1
 30 32  1  0
 32 33  2  0
 33 34  1  0
 33 35  1  0
 35 36  1  0
 35 37  2  0
 37 38  1  0
 37 39  1  0
 39 40  1  0
 40 41  1  0
 41 42  1  0
 41 43  1  0
 41 44  1  0
 39 45  2  0
 45 46  1  0
 17 47  1  0
 47 48  1  0
 48 49  1  0
 48 50  1  0
 48 51  1  0
 51 52  1  0
 51 53  1  0
 51 54  1  0
 47  4  1  0
 13  8  2  0
 30 20  1  0
 45 32  1  0
M  CHG  3   9  -1  12  -1  14  -1
M  END
>  <UniqueID>  (48) 
47

>  <SMILES>  (48) 
C=c1/c(=C\c2[n-]c(=O)[n-]c2[O-])cc(C(=O)N2CCC[C@@H]2c2cccc(OC)c2)n1CC

>  <Energy>  (48) 
128.26173237851714

>  <Genealogy>  (48) 
C=c1c(=Cc2[n-]c(=O)[n-]c2[O-])cc(C(=O)N2CCCC2c2cccc(OC)c2)n1CC (protonated)
C=c1c(=Cc2[n-]c(=O)[n-]c2[O-])cc(C(=O)N2CCC[C@@H]2c2cccc(OC)c2)n1CC (chirality)
C=c1/c(=C\c2[n-]c(=O)[n-]c2[O-])cc(C(=O)N2CCC[C@@H]2c2cccc(OC)c2)n1CC (cis-trans isomerization)
C=c1/c(=C\c2[n-]c(=O)[n-]c2[O-])cc(C(=O)N2CCC[C@@H]2c2cccc(OC)c2)n1CC (3D coordinates assigned)
C=c1/c(=C\c2[n-]c(=O)[n-]c2[O-])cc(C(=O)N2CCC[C@@H]2c2cccc(OC)c2)n1CC (nonaromatic ring conformer: 128.26173237851714 kcal/mol)

>  <smiles>  (48) 
C=c1c(=Cc2[nH]c(=O)[nH]c2O)cc(C(=O)N2CCCC2c2cccc(OC)c2)n1CC

>  <score_type>  (48) 
oracle

>  <origin>  (48) 
adg

>  <m_score__min__energy>  (48) 
-17.629999999999999

>  <m_primary>  (48) 
energy

$$$$
48:0
     RDKit          3D

 57 59  0  0  0  0  0  0  0  0999 V2000
   55.2772   28.3880   44.0245 H   0  0  0  0  0  0  0  0  0  0  0  0
   55.7590   29.3700   44.1410 C   0  0  0  0  0  0  0  0  0  0  0  0
   55.2095   30.2866   43.8805 H   0  0  0  0  0  0  0  0  0  0  0  0
   57.0200   29.4500   44.6020 C   0  0  0  0  0  0  0  0  0  0  0  0
   57.7780   30.6170   44.8090 C   0  0  0  0  0  0  0  0  0  0  0  0
   57.4380   31.9200   44.7560 C   0  0  0  0  0  0  0  0  0  0  0  0
   56.5528   32.1839   44.1587 H   0  0  0  0  0  0  0  0  0  0  0  0
   58.1470   33.0200   45.4270 C   0  0  0  0  0  0  0  0  0  0  0  0
   58.7530   34.3610   44.6130 S   0  0  0  0  0  0  0  0  0  0  0  0
   59.4190   35.0200   46.0040 C   0  0  0  0  0  0  0  0  0  0  0  0
   60.0260   36.1230   46.0350 O   0  0  0  0  0  0  0  0  0  0  0  0
   59.2260   34.2330   47.0930 N   0  0  0  0  0  0  0  0  0  0  0  0
   59.6590   34.6030   48.4480 C   0  0  0  0  0  0  0  0  0  0  0  0
   59.4905   35.6791   48.6014 H   0  0  0  0  0  0  0  0  0  0  0  0
   59.0785   34.0220   49.1797 H   0  0  0  0  0  0  0  0  0  0  0  0
   61.1150   34.3000   48.6310 C   0  0  0  0  0  0  0  0  0  0  0  0
   61.8490   34.1710   47.6100 O   0  0  0  0  0  0  0  0  0  0  0  0
   61.6730   34.2000   49.9490 N   0  0  0  0  0  0  0  0  0  0  0  0
   61.1250   34.6030   50.7410 H   0  0  0  0  0  0  0  0  0  0  0  0
   62.9890   33.6900   50.2350 C   0  0  0  0  0  0  0  0  0  0  0  0
   63.7870   34.2470   51.2480 C   0  0  0  0  0  0  0  0  0  0  0  0
   63.4003   35.0814   51.8516 H   0  0  0  0  0  0  0  0  0  0  0  0
   65.0690   33.7480   51.4940 C   0  0  0  0  0  0  0  0  0  0  0  0
   65.6746   34.1851   52.3016 H   0  0  0  0  0  0  0  0  0  0  0  0
   65.6000   32.6890   50.7200 C   0  0  0  0  0  0  0  0  0  0  0  0
   66.9380   32.1740   50.9690 N   0  0  0  0  0  0  0  0  0  0  0  0
   68.1010   33.0770   50.9560 C   0  0  0  0  0  0  0  0  0  0  0  0
   68.3978   33.3075   51.9898 H   0  0  0  0  0  0  0  0  0  0  0  0
   68.9378   32.5896   50.4342 H   0  0  0  0  0  0  0  0  0  0  0  0
   67.8362   34.0085   50.4342 H   0  0  0  0  0  0  0  0  0  0  0  0
   67.1570   30.7420   51.2320 C   0  0  0  0  0  0  0  0  0  0  0  0
   67.1835   30.5685   52.3179 H   0  0  0  0  0  0  0  0  0  0  0  0
   66.3377   30.1580   50.7873 H   0  0  0  0  0  0  0  0  0  0  0  0
   68.1134   30.4296   50.7873 H   0  0  0  0  0  0  0  0  0  0  0  0
   64.7960   32.1550   49.6890 C   0  0  0  0  0  0  0  0  0  0  0  0
   65.1843   31.3346   49.0676 H   0  0  0  0  0  0  0  0  0  0  0  0
   63.5140   32.6550   49.4480 C   0  0  0  0  0  0  0  0  0  0  0  0
   62.9097   32.2321   48.6319 H   0  0  0  0  0  0  0  0  0  0  0  0
   58.5300   33.0930   46.7770 C   0  0  0  0  0  0  0  0  0  0  0  0
   58.1860   32.0390   47.7970 C   0  0  0  0  0  0  0  0  0  0  0  0
   58.3201   32.4500   48.8085 H   0  0  0  0  0  0  0  0  0  0  0  0
   57.1395   31.7274   47.6636 H   0  0  0  0  0  0  0  0  0  0  0  0
   58.8472   31.1701   47.6636 H   0  0  0  0  0  0  0  0  0  0  0  0
   59.0490   30.1960   45.1620 C   0  0  0  0  0  0  0  0  0  0  0  0
   59.9197   30.8384   45.3601 H   0  0  0  0  0  0  0  0  0  0  0  0
   59.0160   28.8190   45.2180 C   0  0  0  0  0  0  0  0  0  0  0  0
   60.1780   27.9630   45.6210 C   0  0  0  0  0  0  0  0  0  0  0  0
   60.2378   27.9190   46.7185 H   0  0  0  0  0  0  0  0  0  0  0  0
   60.0419   26.9477   45.2202 H   0  0  0  0  0  0  0  0  0  0  0  0
   61.1073   28.3939   45.2202 H   0  0  0  0  0  0  0  0  0  0  0  0
   57.7890   28.3590   44.8700 N   0  0  0  0  0  0  0  0  0  0  0  0
   57.3730   26.9490   44.8750 C   0  0  0  0  0  0  0  0  0  0  0  0
   56.7885   26.7392   43.9670 H   0  0  0  0  0  0  0  0  0  0  0  0
   58.2683   26.3104   44.9008 H   0  0  0  0  0  0  0  0  0  0  0  0
   56.5340   26.6630   46.0800 C   0  0  0  0  0  0  0  0  0  0  0  0
   57.0820   26.3760   47.1750 O   0  0  0  0  0  0  0  0  0  0  0  0
   55.1470   26.7070   45.9930 O   0  0  0  0  0  0  0  0  0  0  0  0
  1  2  1  0
  2  3  1  0
  2  4  2  0
  4  5  1  0
  5  6  2  0
  6  7  1  0
  6  8  1  0
  8  9  1  0
  9 10  1  0
 10 11  2  0
 10 12  1  0
 12 13  1  0
 13 14  1  0
 13 15  1  0
 13 16  1  0
 16 17  2  0
 16 18  1  0
 18 19  1  0
 18 20  1  0
 20 21  2  0
 21 22  1  0
 21 23  1  0
 23 24  1  0
 23 25  2  0
 25 26  1  0
 26 27  1  0
 27 28  1  0
 27 29  1  0
 27 30  1  0
 26 31  1  0
 31 32  1  0
 31 33  1  0
 31 34  1  0
 25 35  1  0
 35 36  1  0
 35 37  2  0
 37 38  1  0
 12 39  1  0
 39 40  1  0
 40 41  1  0
 40 42  1  0
 40 43  1  0
  5 44  1  0
 44 45  1  0
 44 46  2  0
 46 47  1  0
 47 48  1  0
 47 49  1  0
 47 50  1  0
 46 51  1  0
 51 52  1  0
 52 53  1  0
 52 54  1  0
 52 55  1  0
 55 56  2  0
 55 57  1  0
 51  4  1  0
 39  8  2  0
 37 20  1  0
M  CHG  1  57  -1
M  END
>  <UniqueID>  (49) 
48

>  <SMILES>  (49) 
C=c1/c(=C\c2sc(=O)n(CC(=O)Nc3ccc(N(C)C)cc3)c2C)cc(C)n1CC(=O)[O-]

>  <Energy>  (49) 
131.41702556215023

>  <Genealogy>  (49) 
C=c1c(=Cc2sc(=O)n(CC(=O)Nc3ccc(N(C)C)cc3)c2C)cc(C)n1CC(=O)[O-] (protonated)
C=c1/c(=C\c2sc(=O)n(CC(=O)Nc3ccc(N(C)C)cc3)c2C)cc(C)n1CC(=O)[O-] (cis-trans isomerization)
C=c1/c(=C\c2sc(=O)n(CC(=O)Nc3ccc(N(C)C)cc3)c2C)cc(C)n1CC(=O)[O-] (3D coordinates assigned)
C=c1/c(=C\c2sc(=O)n(CC(=O)Nc3ccc(N(C)C)cc3)c2C)cc(C)n1CC(=O)[O-] (optimized conformer: 131.41702556215023 kcal/mol)

>  <smiles>  (49) 
C=c1c(=Cc2sc(=O)n(CC(=O)Nc3ccc(N(C)C)cc3)c2C)cc(C)n1CC(=O)O

>  <score_type>  (49) 
oracle

>  <origin>  (49) 
adg

>  <m_score__min__energy>  (49) 
-11.59

>  <m_primary>  (49) 
energy

$$$$
49:0
     RDKit          3D

 40 42  0  0  0  0  0  0  0  0999 V2000
   57.7080   27.1570   47.6500 O   0  0  0  0  0  0  0  0  0  0  0  0
   57.8370   26.9060   46.4230 C   0  0  0  0  0  0  0  0  0  0  0  0
   58.5390   27.8500   45.6020 N   0  0  0  0  0  0  0  0  0  0  0  0
   57.9600   28.9660   44.9100 C   0  0  0  0  0  0  0  0  0  0  0  0
   57.3680   28.8230   43.6430 C   0  0  0  0  0  0  0  0  0  0  0  0
   56.8310   29.9340   42.9890 C   0  0  0  0  0  0  0  0  0  0  0  0
   56.8850   31.1950   43.5890 C   0  0  0  0  0  0  0  0  0  0  0  0
   57.4750   31.3530   44.8520 C   0  0  0  0  0  0  0  0  0  0  0  0
   57.5600   32.6870   45.4800 C   0  0  0  0  0  0  0  0  0  0  0  0
   56.6650   33.5370   45.2240 O   0  0  0  0  0  0  0  0  0  0  0  0
   58.6420   33.0380   46.3630 N   0  0  0  0  0  0  0  0  0  0  0  0
   58.5900   34.1920   47.2430 C   0  0  0  0  0  0  0  0  0  0  0  0
   60.0250   34.4440   47.6870 C   0  0  0  0  0  0  0  0  0  0  0  0
   60.8030   33.1800   47.3330 C   0  0  0  0  0  0  0  0  0  0  0  0
   59.9720   32.4550   46.2830 C   0  0  0  0  0  0  0  0  0  0  0  0
   58.0330   30.2360   45.4950 C   0  0  0  0  0  0  0  0  0  0  0  0
   57.2060   25.6900   45.8550 C   0  0  0  0  0  0  0  0  0  0  0  0
   58.0030   24.5880   45.4910 C   0  0  0  0  0  0  0  0  0  0  0  0
   57.4220   23.4390   44.9500 C   0  0  0  0  0  0  0  0  0  0  0  0
   56.0370   23.3770   44.7540 C   0  0  0  0  0  0  0  0  0  0  0  0
   55.4470   22.2350   44.2140 O   0  0  0  0  0  0  0  0  0  0  0  0
   55.2380   24.4690   45.1020 C   0  0  0  0  0  0  0  0  0  0  0  0
   55.8130   25.6210   45.6500 C   0  0  0  0  0  0  0  0  0  0  0  0
   54.9880   26.6860   46.0000 O   0  0  0  0  0  0  0  0  0  0  0  0
   57.3276   27.8330   43.1652 H   0  0  0  0  0  0  0  0  0  0  0  0
   56.3646   29.8163   41.9997 H   0  0  0  0  0  0  0  0  0  0  0  0
   56.4630   32.0675   43.0687 H   0  0  0  0  0  0  0  0  0  0  0  0
   58.1971   35.0667   46.7040 H   0  0  0  0  0  0  0  0  0  0  0  0
   57.9268   34.0147   48.1025 H   0  0  0  0  0  0  0  0  0  0  0  0
   60.4429   35.3115   47.1552 H   0  0  0  0  0  0  0  0  0  0  0  0
   60.0810   34.6633   48.7635 H   0  0  0  0  0  0  0  0  0  0  0  0
   61.7907   33.4409   46.9252 H   0  0  0  0  0  0  0  0  0  0  0  0
   60.9716   32.5497   48.2186 H   0  0  0  0  0  0  0  0  0  0  0  0
   60.3993   32.6102   45.2813 H   0  0  0  0  0  0  0  0  0  0  0  0
   59.9510   31.3695   46.4600 H   0  0  0  0  0  0  0  0  0  0  0  0
   58.5321   30.3601   46.4674 H   0  0  0  0  0  0  0  0  0  0  0  0
   59.0928   24.6324   45.6340 H   0  0  0  0  0  0  0  0  0  0  0  0
   58.0538   22.5809   44.6773 H   0  0  0  0  0  0  0  0  0  0  0  0
   55.1260   22.2100   43.2540 H   0  0  0  0  0  0  0  0  0  0  0  0
   54.1503   24.4229   44.9443 H   0  0  0  0  0  0  0  0  0  0  0  0
  1  2  2  0
  2  3  1  0
  3  4  1  0
  4  5  2  0
  5  6  1  0
  6  7  2  0
  7  8  1  0
  8  9  1  0
  9 10  2  0
  9 11  1  0
 11 12  1  0
 12 13  1  0
 13 14  1  0
 14 15  1  0
  8 16  2  0
  2 17  1  0
 17 18  2  0
 18 19  1  0
 19 20  2  0
 20 21  1  0
 20 22  1  0
 22 23  2  0
 23 24  1  0
 16  4  1  0
 23 17  1  0
 15 11  1  0
  5 25  1  0
  6 26  1  0
  7 27  1  0
 12 28  1  0
 12 29  1  0
 13 30  1  0
 13 31  1  0
 14 32  1  0
 14 33  1  0
 15 34  1  0
 15 35  1  0
 16 36  1  0
 18 37  1  0
 19 38  1  0
 21 39  1  0
 22 40  1  0
M  CHG  2   3  -1  24  -1
M  END
>  <UniqueID>  (50) 
49

>  <SMILES>  (50) 
O=C([N-]c1cccc(C(=O)N2CCCC2)c1)c1ccc(O)cc1[O-]

>  <Energy>  (50) 
53.70237028913863

>  <Genealogy>  (50) 
O=C([N-]c1cccc(C(=O)N2CCCC2)c1)c1ccc(O)cc1[O-] (protonated)
O=C([N-]c1cccc(C(=O)N2CCCC2)c1)c1ccc(O)cc1[O-] (3D coordinates assigned)
O=C([N-]c1cccc(C(=O)N2CCCC2)c1)c1ccc(O)cc1[O-] (nonaromatic ring conformer: 53.70237028913863 kcal/mol)

>  <smiles>  (50) 
O=C(Nc1cccc(C(=O)N2CCCC2)c1)c1ccc(O)cc1O

>  <score_type>  (50) 
oracle

>  <origin>  (50) 
adg

>  <m_score__min__energy>  (50) 
-13.92

>  <m_primary>  (50) 
energy

$$$$
50:0
     RDKit          3D

 57 60  0  0  0  0  0  0  0  0999 V2000
   57.9662   34.0709   43.7728 H   0  0  0  0  0  0  0  0  0  0  0  0
   57.9400   33.0340   44.1390 C   0  0  0  0  0  0  0  0  0  0  0  0
   58.0640   32.7720   45.5080 C   0  0  0  0  0  0  0  0  0  0  0  0
   58.1948   33.6034   46.2163 H   0  0  0  0  0  0  0  0  0  0  0  0
   58.0220   31.4570   45.9770 C   0  0  0  0  0  0  0  0  0  0  0  0
   58.1399   31.2540   47.0517 H   0  0  0  0  0  0  0  0  0  0  0  0
   57.8300   30.3950   45.0820 C   0  0  0  0  0  0  0  0  0  0  0  0
   57.8020   29.0460   45.5680 N   0  0  0  0  0  0  0  0  0  0  0  0
   56.7200   28.2940   45.4470 N   0  0  0  0  0  0  0  0  0  0  0  0
   56.9170   27.1600   46.1520 C   0  0  0  0  0  0  0  0  0  0  0  0
   55.8980   26.1080   46.2960 C   0  0  0  0  0  0  0  0  0  0  0  0
   54.7930   26.2380   45.7080 O   0  0  0  0  0  0  0  0  0  0  0  0
   56.1130   24.9610   47.1220 N   0  0  0  0  0  0  0  0  0  0  0  0
   57.2630   24.0720   46.9830 C   0  0  0  0  0  0  0  0  0  0  0  0
   58.1369   24.6543   46.6555 H   0  0  0  0  0  0  0  0  0  0  0  0
   57.4744   23.5985   47.9531 H   0  0  0  0  0  0  0  0  0  0  0  0
   56.9600   22.9890   45.9500 C   0  0  0  0  0  0  0  0  0  0  0  0
   57.2100   22.0039   46.3708 H   0  0  0  0  0  0  0  0  0  0  0  0
   55.8911   23.0241   45.6927 H   0  0  0  0  0  0  0  0  0  0  0  0
   57.7630   23.2180   44.7260 N   0  0  0  0  0  0  0  0  0  0  0  0
   57.0190   23.9810   43.6980 C   0  0  0  0  0  0  0  0  0  0  0  0
   56.3402   24.6844   44.2025 H   0  0  0  0  0  0  0  0  0  0  0  0
   57.7552   24.5087   43.0738 H   0  0  0  0  0  0  0  0  0  0  0  0
   56.1870   23.0660   42.7730 C   0  0  0  0  0  0  0  0  0  0  0  0
   55.2163   23.5435   42.5737 H   0  0  0  0  0  0  0  0  0  0  0  0
   56.7435   22.9168   41.8360 H   0  0  0  0  0  0  0  0  0  0  0  0
   55.9670   21.8040   43.3710 O   0  0  0  0  0  0  0  0  0  0  0  0
   57.1970   21.1120   43.4930 C   0  0  0  0  0  0  0  0  0  0  0  0
   57.0341   20.2100   44.1012 H   0  0  0  0  0  0  0  0  0  0  0  0
   57.5392   20.8629   42.4777 H   0  0  0  0  0  0  0  0  0  0  0  0
   58.3000   21.9650   44.1600 C   0  0  0  0  0  0  0  0  0  0  0  0
   58.7618   21.3793   44.9685 H   0  0  0  0  0  0  0  0  0  0  0  0
   59.0384   22.2294   43.3887 H   0  0  0  0  0  0  0  0  0  0  0  0
   58.1530   27.1990   46.7720 C   0  0  0  0  0  0  0  0  0  0  0  0
   58.5994   26.4484   47.4408 H   0  0  0  0  0  0  0  0  0  0  0  0
   58.6950   28.3950   46.3580 C   0  0  0  0  0  0  0  0  0  0  0  0
   59.9050   28.7760   46.6660 N   0  0  0  0  0  0  0  0  0  0  0  0
   60.3730   29.3320   47.9010 C   0  0  0  0  0  0  0  0  0  0  0  0
   60.6800   28.5470   48.8370 O   0  0  0  0  0  0  0  0  0  0  0  0
   60.5910   30.7890   48.0700 C   0  0  0  0  0  0  0  0  0  0  0  0
   59.7050   31.5510   48.8520 C   0  0  0  0  0  0  0  0  0  0  0  0
   58.8589   31.0591   49.3541 H   0  0  0  0  0  0  0  0  0  0  0  0
   59.8910   32.9270   48.9960 C   0  0  0  0  0  0  0  0  0  0  0  0
   59.1896   33.5138   49.6073 H   0  0  0  0  0  0  0  0  0  0  0  0
   60.9640   33.5610   48.3670 C   0  0  0  0  0  0  0  0  0  0  0  0
   61.1420   34.8970   48.5420 F   0  0  0  0  0  0  0  0  0  0  0  0
   61.8590   32.8170   47.5810 C   0  0  0  0  0  0  0  0  0  0  0  0
   63.0360   33.4890   46.9360 C   0  0  0  0  0  0  0  0  0  0  0  0
   63.7105   33.8741   47.7149 H   0  0  0  0  0  0  0  0  0  0  0  0
   63.5753   32.7627   46.3102 H   0  0  0  0  0  0  0  0  0  0  0  0
   62.6847   34.3226   46.3102 H   0  0  0  0  0  0  0  0  0  0  0  0
   61.6800   31.4310   47.4540 C   0  0  0  0  0  0  0  0  0  0  0  0
   62.3988   30.8408   46.8667 H   0  0  0  0  0  0  0  0  0  0  0  0
   57.7360   30.6620   43.7050 C   0  0  0  0  0  0  0  0  0  0  0  0
   57.6250   29.8316   42.9922 H   0  0  0  0  0  0  0  0  0  0  0  0
   57.7830   31.9790   43.2380 C   0  0  0  0  0  0  0  0  0  0  0  0
   57.6963   32.1840   42.1608 H   0  0  0  0  0  0  0  0  0  0  0  0
  1  2  1  0
  2  3  2  0
  3  4  1  0
  3  5  1  0
  5  6  1  0
  5  7  2  0
  7  8  1  0
  8  9  1  0
  9 10  1  0
 10 11  1  0
 11 12  2  0
 11 13  1  0
 13 14  1  0
 14 15  1  0
 14 16  1  0
 14 17  1  0
 17 18  1  0
 17 19  1  0
 17 20  1  0
 20 21  1  0
 21 22  1  0
 21 23  1  0
 21 24  1  0
 24 25  1  0
 24 26  1  0
 24 27  1  0
 27 28  1  0
 28 29  1  0
 28 30  1  0
 28 31  1  0
 31 32  1  0
 31 33  1  0
 10 34  2  0
 34 35  1  0
 34 36  1  0
 36 37  2  0
 37 38  1  0
 38 39  2  0
 38 40  1  0
 40 41  2  0
 41 42  1  0
 41 43  1  0
 43 44  1  0
 43 45  2  0
 45 46  1  0
 45 47  1  0
 47 48  1  0
 48 49  1  0
 48 50  1  0
 48 51  1  0
 47 52  2  0
 52 53  1  0
  7 54  1  0
 54 55  1  0
 54 56  2  0
 56 57  1  0
 56  2  1  0
 36  8  1  0
 52 40  1  0
 31 20  1  0
M  CHG  2   9  -1  13  -1
M  END
>  <UniqueID>  (51) 
50

>  <SMILES>  (51) 
Cc1cc(C(=O)/N=c2/cc(C(=O)[N-]CCN3CCOCC3)[n-]n2-c2ccccc2)ccc1F

>  <Energy>  (51) 
120.2928501888271

>  <Genealogy>  (51) 
Cc1cc(C(=O)N=c2cc(C(=O)[N-]CCN3CCOCC3)[n-]n2-c2ccccc2)ccc1F (protonated)
Cc1cc(C(=O)/N=c2/cc(C(=O)[N-]CCN3CCOCC3)[n-]n2-c2ccccc2)ccc1F (cis-trans isomerization)
Cc1cc(C(=O)/N=c2/cc(C(=O)[N-]CCN3CCOCC3)[n-]n2-c2ccccc2)ccc1F (3D coordinates assigned)
Cc1cc(C(=O)/N=c2/cc(C(=O)[N-]CCN3CCOCC3)[n-]n2-c2ccccc2)ccc1F (nonaromatic ring conformer: 120.2928501888271 kcal/mol)

>  <smiles>  (51) 
Cc1cc(C(=O)N=c2cc(C(=O)NCCN3CCOCC3)[nH]n2-c2ccccc2)ccc1F

>  <score_type>  (51) 
oracle

>  <origin>  (51) 
adg

>  <m_score__min__energy>  (51) 
-12.960000000000001

>  <m_primary>  (51) 
energy

$$$$
51:0
     RDKit          3D

 50 53  0  0  0  0  0  0  0  0999 V2000
   56.2710   20.1680   44.3600 C   0  0  0  0  0  0  0  0  0  0  0  0
   55.9050   21.3990   43.7470 O   0  0  0  0  0  0  0  0  0  0  0  0
   56.2850   22.6640   44.2200 C   0  0  0  0  0  0  0  0  0  0  0  0
   57.6190   23.1130   44.1800 C   0  0  0  0  0  0  0  0  0  0  0  0
   57.9510   24.3820   44.6620 C   0  0  0  0  0  0  0  0  0  0  0  0
   56.9650   25.2230   45.2030 C   0  0  0  0  0  0  0  0  0  0  0  0
   57.3370   26.5710   45.7060 C   0  0  0  0  0  0  0  0  0  0  0  0
   58.3560   26.7450   46.6620 C   0  0  0  0  0  0  0  0  0  0  0  0
   58.6760   28.0350   47.0950 C   0  0  0  0  0  0  0  0  0  0  0  0
   59.6600   28.2380   48.0070 N   0  0  0  0  0  0  0  0  0  0  0  0
   59.9700   29.4940   48.4190 C   0  0  0  0  0  0  0  0  0  0  0  0
   60.9220   29.6650   49.2870 N   0  0  0  0  0  0  0  0  0  0  0  0
   61.2270   30.9300   49.9560 C   0  0  0  0  0  0  0  0  0  0  0  0
   61.9160   31.8770   49.0080 C   0  0  0  0  0  0  0  0  0  0  0  0
   63.2980   32.0900   49.1170 C   0  0  0  0  0  0  0  0  0  0  0  0
   63.9490   32.9440   48.2260 C   0  0  0  0  0  0  0  0  0  0  0  0
   63.2280   33.5870   47.2170 C   0  0  0  0  0  0  0  0  0  0  0  0
   61.8450   33.3830   47.0840 C   0  0  0  0  0  0  0  0  0  0  0  0
   61.1400   34.0590   46.0270 N   0  0  0  0  0  0  0  0  0  0  0  0
   59.5080   34.6410   46.1410 S   0  0  0  0  0  0  0  0  0  0  0  0
   58.3550   33.3030   45.9110 C   0  0  0  0  0  0  0  0  0  0  0  0
   59.2890   35.3000   47.4750 O   0  0  0  0  0  0  0  0  0  0  0  0
   59.2780   35.6580   45.0600 O   0  0  0  0  0  0  0  0  0  0  0  0
   61.1940   32.5250   47.9920 C   0  0  0  0  0  0  0  0  0  0  0  0
   59.2830   30.5550   47.9090 N   0  0  0  0  0  0  0  0  0  0  0  0
   58.3130   30.3810   47.0110 N   0  0  0  0  0  0  0  0  0  0  0  0
   57.9830   29.1370   46.5760 C   0  0  0  0  0  0  0  0  0  0  0  0
   56.9810   28.9320   45.6230 C   0  0  0  0  0  0  0  0  0  0  0  0
   56.3480   29.9060   45.1370 O   0  0  0  0  0  0  0  0  0  0  0  0
   56.6900   27.6670   45.2140 N   0  0  0  0  0  0  0  0  0  0  0  0
   55.6320   24.7730   45.2330 C   0  0  0  0  0  0  0  0  0  0  0  0
   55.2990   23.5060   44.7460 C   0  0  0  0  0  0  0  0  0  0  0  0
   54.0070   23.0940   44.7820 F   0  0  0  0  0  0  0  0  0  0  0  0
   56.2380   20.2790   45.4539 H   0  0  0  0  0  0  0  0  0  0  0  0
   55.5681   19.3807   44.0500 H   0  0  0  0  0  0  0  0  0  0  0  0
   57.2899   19.8927   44.0500 H   0  0  0  0  0  0  0  0  0  0  0  0
   58.4036   22.4617   43.7674 H   0  0  0  0  0  0  0  0  0  0  0  0
   58.9950   24.7255   44.6172 H   0  0  0  0  0  0  0  0  0  0  0  0
   58.8949   25.8744   47.0641 H   0  0  0  0  0  0  0  0  0  0  0  0
   60.2909   31.3879   50.3081 H   0  0  0  0  0  0  0  0  0  0  0  0
   61.8953   30.7300   50.8065 H   0  0  0  0  0  0  0  0  0  0  0  0
   63.8704   31.5823   49.9073 H   0  0  0  0  0  0  0  0  0  0  0  0
   65.0323   33.1113   48.3183 H   0  0  0  0  0  0  0  0  0  0  0  0
   63.7487   34.2598   46.5197 H   0  0  0  0  0  0  0  0  0  0  0  0
   61.6160   34.1860   45.1040 H   0  0  0  0  0  0  0  0  0  0  0  0
   58.0302   32.9261   46.8921 H   0  0  0  0  0  0  0  0  0  0  0  0
   57.4810   33.6646   45.3494 H   0  0  0  0  0  0  0  0  0  0  0  0
   58.8417   32.4920   45.3494 H   0  0  0  0  0  0  0  0  0  0  0  0
   60.1098   32.3608   47.9046 H   0  0  0  0  0  0  0  0  0  0  0  0
   54.8457   25.4238   45.6431 H   0  0  0  0  0  0  0  0  0  0  0  0
  1  2  1  0
  2  3  1  0
  3  4  2  0
  4  5  1  0
  5  6  2  0
  6  7  1  0
  7  8  2  0
  8  9  1  0
  9 10  2  0
 10 11  1  0
 11 12  2  3
 12 13  1  0
 13 14  1  0
 14 15  2  0
 15 16  1  0
 16 17  2  0
 17 18  1  0
 18 19  1  0
 19 20  1  0
 20 21  1  0
 20 22  2  0
 20 23  2  0
 18 24  2  0
 11 25  1  0
 25 26  1  0
 26 27  2  0
 27 28  1  0
 28 29  2  0
 28 30  1  0
  6 31  1  0
 31 32  2  0
 32 33  1  0
 32  3  1  0
 30  7  1  0
 27  9  1  0
 24 14  1  0
  1 34  1  0
  1 35  1  0
  1 36  1  0
  4 37  1  0
  5 38  1  0
  8 39  1  0
 13 40  1  0
 13 41  1  0
 15 42  1  0
 16 43  1  0
 17 44  1  0
 19 45  1  0
 21 46  1  0
 21 47  1  0
 21 48  1  0
 24 49  1  0
 31 50  1  0
M  CHG  2  25  -1  30  -1
M  END
>  <UniqueID>  (52) 
51

>  <SMILES>  (52) 
COc1ccc(-c2cc3nc(=NCc4cccc(NS(C)(=O)=O)c4)[n-]nc3c(=O)[n-]2)cc1F

>  <Energy>  (52) 
60.92322769831053

>  <Genealogy>  (52) 
COc1ccc(-c2cc3nc(=NCc4cccc(NS(C)(=O)=O)c4)[n-]nc3c(=O)[n-]2)cc1F (protonated)
COc1ccc(-c2cc3nc(=NCc4cccc(NS(C)(=O)=O)c4)[n-]nc3c(=O)[n-]2)cc1F (3D coordinates assigned)
COc1ccc(-c2cc3nc(=NCc4cccc(NS(C)(=O)=O)c4)[n-]nc3c(=O)[n-]2)cc1F (optimized conformer: 60.92322769831053 kcal/mol)

>  <smiles>  (52) 
COc1ccc(-c2cc3nc(=NCc4cccc(NS(C)(=O)=O)c4)[nH]nc3c(=O)[nH]2)cc1F

>  <score_type>  (52) 
oracle

>  <origin>  (52) 
adg

>  <m_score__min__energy>  (52) 
-11.76

>  <m_primary>  (52) 
energy

$$$$
52:0
     RDKit          3D

 67 70  0  0  0  0  0  0  0  0999 V2000
   57.9145   33.4161   48.0779 H   0  0  0  0  0  0  0  0  0  0  0  0
   58.2300   33.8530   47.1190 C   0  0  0  0  0  0  0  0  0  0  0  0
   57.4730   33.4440   45.9140 C   0  0  0  0  0  0  0  0  0  0  0  0
   56.8650   34.3310   45.2570 O   0  0  0  0  0  0  0  0  0  0  0  0
   57.4070   32.0770   45.4960 N   0  0  0  0  0  0  0  0  0  0  0  0
   58.5580   31.1820   45.4380 C   0  0  0  0  0  0  0  0  0  0  0  0
   59.3013   31.5023   46.1829 H   0  0  0  0  0  0  0  0  0  0  0  0
   58.9861   31.2247   44.4256 H   0  0  0  0  0  0  0  0  0  0  0  0
   58.1480   29.7590   45.7290 C   0  0  0  0  0  0  0  0  0  0  0  0
   57.0590   29.1970   45.0430 C   0  0  0  0  0  0  0  0  0  0  0  0
   56.5328   29.7873   44.2783 H   0  0  0  0  0  0  0  0  0  0  0  0
   56.6390   27.8970   45.3230 C   0  0  0  0  0  0  0  0  0  0  0  0
   55.7825   27.4713   44.7796 H   0  0  0  0  0  0  0  0  0  0  0  0
   57.3000   27.1280   46.2920 C   0  0  0  0  0  0  0  0  0  0  0  0
   56.8380   25.7570   46.6080 C   0  0  0  0  0  0  0  0  0  0  0  0
   57.6420   24.9160   47.0980 O   0  0  0  0  0  0  0  0  0  0  0  0
   55.4760   25.3810   46.3660 N   0  0  0  0  0  0  0  0  0  0  0  0
   55.0060   23.9980   46.3360 C   0  0  1  0  0  0  0  0  0  0  0  0
   53.9387   23.9886   46.0700 H   0  0  0  0  0  0  0  0  0  0  0  0
   55.7850   23.2210   45.2980 C   0  0  0  0  0  0  0  0  0  0  0  0
   56.7700   22.2990   45.6970 C   0  0  0  0  0  0  0  0  0  0  0  0
   56.9572   22.1265   46.7671 H   0  0  0  0  0  0  0  0  0  0  0  0
   57.5120   21.6010   44.7390 C   0  0  0  0  0  0  0  0  0  0  0  0
   58.2749   20.8752   45.0572 H   0  0  0  0  0  0  0  0  0  0  0  0
   57.2860   21.8240   43.3780 C   0  0  0  0  0  0  0  0  0  0  0  0
   57.8723   21.2748   42.6266 H   0  0  0  0  0  0  0  0  0  0  0  0
   56.3170   22.7430   42.9710 C   0  0  0  0  0  0  0  0  0  0  0  0
   56.1426   22.9197   41.8994 H   0  0  0  0  0  0  0  0  0  0  0  0
   55.5680   23.4390   43.9250 C   0  0  0  0  0  0  0  0  0  0  0  0
   54.8046   24.1612   43.6001 H   0  0  0  0  0  0  0  0  0  0  0  0
   55.1620   23.3470   47.7150 C   0  0  0  0  0  0  0  0  0  0  0  0
   54.9819   24.0986   48.4978 H   0  0  0  0  0  0  0  0  0  0  0  0
   54.4346   22.5283   47.8184 H   0  0  0  0  0  0  0  0  0  0  0  0
   56.1814   22.9469   47.8184 H   0  0  0  0  0  0  0  0  0  0  0  0
   58.4010   27.6820   46.9670 C   0  0  0  0  0  0  0  0  0  0  0  0
   58.9403   27.0771   47.7108 H   0  0  0  0  0  0  0  0  0  0  0  0
   58.8250   29.0000   46.7060 C   0  0  0  0  0  0  0  0  0  0  0  0
   59.9090   29.5900   47.3830 O   0  0  0  0  0  0  0  0  0  0  0  0
   59.9430   29.9740   48.7600 C   0  0  0  0  0  0  0  0  0  0  0  0
   59.0512   29.5753   49.2656 H   0  0  0  0  0  0  0  0  0  0  0  0
   60.8599   29.5677   49.2118 H   0  0  0  0  0  0  0  0  0  0  0  0
   59.9630   31.4990   48.9110 C   0  0  0  0  0  0  0  0  0  0  0  0
   61.0077   31.8335   48.9931 H   0  0  0  0  0  0  0  0  0  0  0  0
   59.4729   31.9331   48.0270 H   0  0  0  0  0  0  0  0  0  0  0  0
   59.2090   31.9580   50.1310 C   0  0  0  0  0  0  0  0  0  0  0  0
   59.6040   33.1190   50.8190 C   0  0  0  0  0  0  0  0  0  0  0  0
   60.5011   33.6687   50.4980 H   0  0  0  0  0  0  0  0  0  0  0  0
   58.8590   33.5760   51.9100 C   0  0  0  0  0  0  0  0  0  0  0  0
   59.1722   34.4842   52.4458 H   0  0  0  0  0  0  0  0  0  0  0  0
   57.7180   32.8830   52.3220 C   0  0  0  0  0  0  0  0  0  0  0  0
   57.1323   33.2483   53.1785 H   0  0  0  0  0  0  0  0  0  0  0  0
   57.3200   31.7250   51.6460 C   0  0  0  0  0  0  0  0  0  0  0  0
   55.8800   30.8630   52.1560 Cl  0  0  0  0  0  0  0  0  0  0  0  0
   58.0640   31.2610   50.5550 C   0  0  0  0  0  0  0  0  0  0  0  0
   57.7517   30.3477   50.0274 H   0  0  0  0  0  0  0  0  0  0  0  0
   59.2640   34.7060   47.1510 C   0  0  0  0  0  0  0  0  0  0  0  0
   59.0564   35.7664   46.9452 H   0  0  0  0  0  0  0  0  0  0  0  0
   60.6550   34.3280   47.4410 C   0  0  0  0  0  0  0  0  0  0  0  0
   61.1680   34.5180   48.6890 N   0  0  0  0  0  0  0  0  0  0  0  0
   62.4460   34.1650   48.9970 C   0  0  0  0  0  0  0  0  0  0  0  0
   62.8333   34.3344   50.0125 H   0  0  0  0  0  0  0  0  0  0  0  0
   63.2660   33.5880   48.0250 C   0  0  0  0  0  0  0  0  0  0  0  0
   64.3018   33.3075   48.2667 H   0  0  0  0  0  0  0  0  0  0  0  0
   62.7570   33.3710   46.7430 C   0  0  0  0  0  0  0  0  0  0  0  0
   63.3911   32.9157   45.9680 H   0  0  0  0  0  0  0  0  0  0  0  0
   61.4420   33.7330   46.4470 C   0  0  0  0  0  0  0  0  0  0  0  0
   61.0282   33.5529   45.4438 H   0  0  0  0  0  0  0  0  0  0  0  0
  1  2  1  0
  2  3  1  0
  3  4  2  0
  3  5  1  0
  5  6  1  0
  6  7  1  0
  6  8  1  0
  6  9  1  0
  9 10  2  0
 10 11  1  0
 10 12  1  0
 12 13  1  0
 12 14  2  0
 14 15  1  0
 15 16  2  0
 15 17  1  0
 17 18  1  0
 18 19  1  6
 18 20  1  0
 20 21  2  0
 21 22  1  0
 21 23  1  0
 23 24  1  0
 23 25  2  0
 25 26  1  0
 25 27  1  0
 27 28  1  0
 27 29  2  0
 29 30  1  0
 18 31  1  0
 31 32  1  0
 31 33  1  0
 31 34  1  0
 14 35  1  0
 35 36  1  0
 35 37  2  0
 37 38  1  0
 38 39  1  0
 39 40  1  0
 39 41  1  0
 39 42  1  0
 42 43  1  0
 42 44  1  0
 42 45  1  0
 45 46  2  0
 46 47  1  0
 46 48  1  0
 48 49  1  0
 48 50  2  0
 50 51  1  0
 50 52  1  0
 52 53  1  0
 52 54  2  0
 54 55  1  0
  2 56  2  0
 56 57  1  0
 56 58  1  0
 58 59  2  0
 59 60  1  0
 60 61  1  0
 60 62  2  0
 62 63  1  0
 62 64  1  0
 64 65  1  0
 64 66  2  0
 66 67  1  0
 37  9  1  0
 54 45  1  0
 66 58  1  0
 29 20  1  0
M  CHG  2   5  -1  17  -1
M  END
>  <UniqueID>  (53) 
52

>  <SMILES>  (53) 
C[C@@H]([N-]C(=O)c1ccc(C[N-]C(=O)/C=C\c2ccccn2)c(OCCc2cccc(Cl)c2)c1)c1ccccc1

>  <Energy>  (53) 
70.51585919518662

>  <Genealogy>  (53) 
CC([N-]C(=O)c1ccc(C[N-]C(=O)C=Cc2ccccn2)c(OCCc2cccc(Cl)c2)c1)c1ccccc1 (protonated)
C[C@@H]([N-]C(=O)c1ccc(C[N-]C(=O)C=Cc2ccccn2)c(OCCc2cccc(Cl)c2)c1)c1ccccc1 (chirality)
C[C@@H]([N-]C(=O)c1ccc(C[N-]C(=O)/C=C\c2ccccn2)c(OCCc2cccc(Cl)c2)c1)c1ccccc1 (cis-trans isomerization)
C[C@@H]([N-]C(=O)c1ccc(C[N-]C(=O)/C=C\c2ccccn2)c(OCCc2cccc(Cl)c2)c1)c1ccccc1 (3D coordinates assigned)
C[C@@H]([N-]C(=O)c1ccc(C[N-]C(=O)/C=C\c2ccccn2)c(OCCc2cccc(Cl)c2)c1)c1ccccc1 (optimized conformer: 70.51585919518662 kcal/mol)

>  <smiles>  (53) 
CC(NC(=O)c1ccc(CNC(=O)C=Cc2ccccn2)c(OCCc2cccc(Cl)c2)c1)c1ccccc1

>  <score_type>  (53) 
oracle

>  <origin>  (53) 
adg

>  <m_score__min__energy>  (53) 
-12.949999999999999

>  <m_primary>  (53) 
energy

$$$$
53:0
     RDKit          3D

 72 76  0  0  0  0  0  0  0  0999 V2000
   59.2710   34.9590   48.6030 O   0  0  0  0  0  0  0  0  0  0  0  0
   59.8980   34.2820   47.7420 C   0  0  0  0  0  0  0  0  0  0  0  0
   59.1470   33.6990   46.6060 C   0  0  0  0  0  0  0  0  0  0  0  0
   58.5430   34.5730   45.6860 C   0  0  0  0  0  0  0  0  0  0  0  0
   57.8630   34.0760   44.5730 C   0  0  0  0  0  0  0  0  0  0  0  0
   57.7910   32.7010   44.3560 C   0  0  0  0  0  0  0  0  0  0  0  0
   58.3850   31.8180   45.2580 C   0  0  0  0  0  0  0  0  0  0  0  0
   59.0540   32.2990   46.3970 C   0  0  0  0  0  0  0  0  0  0  0  0
   59.7200   31.1220   47.5400 S   0  0  0  0  0  0  0  0  0  0  0  0
   60.9690   30.5330   46.9430 O   0  0  0  0  0  0  0  0  0  0  0  0
   60.0430   31.7820   48.8540 O   0  0  0  0  0  0  0  0  0  0  0  0
   58.5430   29.8780   47.8240 N   0  0  0  0  0  0  0  0  0  0  0  0
   58.7540   28.4800   47.5910 C   0  0  0  0  0  0  0  0  0  0  0  0
   57.6750   27.7220   47.1180 C   0  0  0  0  0  0  0  0  0  0  0  0
   57.8110   26.3500   46.8870 C   0  0  0  0  0  0  0  0  0  0  0  0
   56.4180   25.4030   46.3580 S   0  0  0  0  0  0  0  0  0  0  0  0
   55.3740   26.3220   45.7860 O   0  0  0  0  0  0  0  0  0  0  0  0
   55.8200   24.7020   47.5480 O   0  0  0  0  0  0  0  0  0  0  0  0
   56.8780   24.2190   45.1580 N   0  0  0  0  0  0  0  0  0  0  0  0
   55.7470   23.9410   44.2570 C   0  0  0  0  0  0  0  0  0  0  0  0
   56.1980   23.0770   43.0650 C   0  0  0  0  0  0  0  0  0  0  0  0
   57.4660   22.2660   43.3790 C   0  0  0  0  0  0  0  0  0  0  0  0
   57.4740   21.7980   44.8370 C   0  0  0  0  0  0  0  0  0  0  0  0
   57.3450   22.9840   45.8190 C   0  0  0  0  0  0  0  0  0  0  0  0
   59.0470   25.7310   47.1140 C   0  0  0  0  0  0  0  0  0  0  0  0
   60.1230   26.4720   47.6100 C   0  0  0  0  0  0  0  0  0  0  0  0
   59.9750   27.8420   47.8980 C   0  0  0  0  0  0  0  0  0  0  0  0
   61.0190   28.5820   48.4750 O   0  0  0  0  0  0  0  0  0  0  0  0
   61.0010   29.1740   49.7480 C   0  0  0  0  0  0  0  0  0  0  0  0
   59.9680   28.9290   50.6760 C   0  0  0  0  0  0  0  0  0  0  0  0
   59.9830   29.5510   51.9300 C   0  0  0  0  0  0  0  0  0  0  0  0
   61.0180   30.4270   52.2620 C   0  0  0  0  0  0  0  0  0  0  0  0
   62.0310   30.6920   51.3370 C   0  0  0  0  0  0  0  0  0  0  0  0
   62.0220   30.0700   50.0840 C   0  0  0  0  0  0  0  0  0  0  0  0
   61.3100   34.0410   47.9160 N   0  0  0  0  0  0  0  0  0  0  0  0
   61.8870   34.1560   49.2650 C   0  0  0  0  0  0  0  0  0  0  0  0
   63.3890   33.8440   49.2720 C   0  0  0  0  0  0  0  0  0  0  0  0
   63.6750   32.5750   48.4610 C   0  0  0  0  0  0  0  0  0  0  0  0
   63.1510   32.6560   47.0100 C   0  0  0  0  0  0  0  0  0  0  0  0
   62.2030   33.8390   46.7610 C   0  0  0  0  0  0  0  0  0  0  0  0
   58.6068   35.6596   45.8446 H   0  0  0  0  0  0  0  0  0  0  0  0
   57.3836   34.7698   43.8667 H   0  0  0  0  0  0  0  0  0  0  0  0
   57.2649   32.3115   43.4720 H   0  0  0  0  0  0  0  0  0  0  0  0
   58.3293   30.7346   45.0762 H   0  0  0  0  0  0  0  0  0  0  0  0
   56.7092   28.2123   46.9261 H   0  0  0  0  0  0  0  0  0  0  0  0
   54.9645   23.4058   44.8148 H   0  0  0  0  0  0  0  0  0  0  0  0
   55.3583   24.8959   43.8736 H   0  0  0  0  0  0  0  0  0  0  0  0
   55.3872   22.3800   42.8065 H   0  0  0  0  0  0  0  0  0  0  0  0
   56.4291   23.7524   42.2281 H   0  0  0  0  0  0  0  0  0  0  0  0
   57.5026   21.3866   42.7192 H   0  0  0  0  0  0  0  0  0  0  0  0
   58.3424   22.9099   43.2139 H   0  0  0  0  0  0  0  0  0  0  0  0
   56.6299   21.1107   44.9954 H   0  0  0  0  0  0  0  0  0  0  0  0
   58.4333   21.2956   45.0305 H   0  0  0  0  0  0  0  0  0  0  0  0
   56.6269   22.7127   46.6069 H   0  0  0  0  0  0  0  0  0  0  0  0
   58.3442   23.1845   46.2330 H   0  0  0  0  0  0  0  0  0  0  0  0
   59.1709   24.6589   46.9013 H   0  0  0  0  0  0  0  0  0  0  0  0
   61.0931   25.9810   47.7767 H   0  0  0  0  0  0  0  0  0  0  0  0
   59.1467   28.2460   50.4134 H   0  0  0  0  0  0  0  0  0  0  0  0
   59.1794   29.3495   52.6536 H   0  0  0  0  0  0  0  0  0  0  0  0
   61.0360   30.9082   53.2510 H   0  0  0  0  0  0  0  0  0  0  0  0
   62.8389   31.3925   51.5950 H   0  0  0  0  0  0  0  0  0  0  0  0
   62.8211   30.2862   49.3596 H   0  0  0  0  0  0  0  0  0  0  0  0
   61.7350   35.1822   49.6307 H   0  0  0  0  0  0  0  0  0  0  0  0
   61.3835   33.4253   49.9151 H   0  0  0  0  0  0  0  0  0  0  0  0
   63.9367   34.6886   48.8286 H   0  0  0  0  0  0  0  0  0  0  0  0
   63.7156   33.6850   50.3103 H   0  0  0  0  0  0  0  0  0  0  0  0
   64.7629   32.4148   48.4325 H   0  0  0  0  0  0  0  0  0  0  0  0
   63.1506   31.7435   48.9546 H   0  0  0  0  0  0  0  0  0  0  0  0
   64.0134   32.7539   46.3343 H   0  0  0  0  0  0  0  0  0  0  0  0
   62.5747   31.7376   46.8246 H   0  0  0  0  0  0  0  0  0  0  0  0
   62.7972   34.7506   46.5998 H   0  0  0  0  0  0  0  0  0  0  0  0
   61.5907   33.6217   45.8734 H   0  0  0  0  0  0  0  0  0  0  0  0
  1  2  2  0
  2  3  1  0
  3  4  2  0
  4  5  1  0
  5  6  2  0
  6  7  1  0
  7  8  2  0
  8  9  1  0
  9 10  2  0
  9 11  2  0
  9 12  1  0
 12 13  1  0
 13 14  2  0
 14 15  1  0
 15 16  1  0
 16 17  2  0
 16 18  2  0
 16 19  1  0
 19 20  1  0
 20 21  1  0
 21 22  1  0
 22 23  1  0
 23 24  1  0
 15 25  2  0
 25 26  1  0
 26 27  2  0
 27 28  1  0
 28 29  1  0
 29 30  2  0
 30 31  1  0
 31 32  2  0
 32 33  1  0
 33 34  2  0
  2 35  1  0
 35 36  1  0
 36 37  1  0
 37 38  1  0
 38 39  1  0
 39 40  1  0
  8  3  1  0
 27 13  1  0
 34 29  1  0
 40 35  1  0
 24 19  1  0
  4 41  1  0
  5 42  1  0
  6 43  1  0
  7 44  1  0
 14 45  1  0
 20 46  1  0
 20 47  1  0
 21 48  1  0
 21 49  1  0
 22 50  1  0
 22 51  1  0
 23 52  1  0
 23 53  1  0
 24 54  1  0
 24 55  1  0
 25 56  1  0
 26 57  1  0
 30 58  1  0
 31 59  1  0
 32 60  1  0
 33 61  1  0
 34 62  1  0
 36 63  1  0
 36 64  1  0
 37 65  1  0
 37 66  1  0
 38 67  1  0
 38 68  1  0
 39 69  1  0
 39 70  1  0
 40 71  1  0
 40 72  1  0
M  CHG  1  12  -1
M  END
>  <UniqueID>  (54) 
53

>  <SMILES>  (54) 
O=C(c1ccccc1S(=O)(=O)[N-]c1cc(S(=O)(=O)N2CCCCC2)ccc1Oc1ccccc1)N1CCCCC1

>  <Energy>  (54) 
101.38868549214533

>  <Genealogy>  (54) 
O=C(c1ccccc1S(=O)(=O)[N-]c1cc(S(=O)(=O)N2CCCCC2)ccc1Oc1ccccc1)N1CCCCC1 (protonated)
O=C(c1ccccc1S(=O)(=O)[N-]c1cc(S(=O)(=O)N2CCCCC2)ccc1Oc1ccccc1)N1CCCCC1 (3D coordinates assigned)
O=C(c1ccccc1S(=O)(=O)[N-]c1cc(S(=O)(=O)N2CCCCC2)ccc1Oc1ccccc1)N1CCCCC1 (nonaromatic ring conformer: 101.38868549214533 kcal/mol)

>  <smiles>  (54) 
O=C(c1ccccc1S(=O)(=O)Nc1cc(S(=O)(=O)N2CCCCC2)ccc1Oc1ccccc1)N1CCCCC1

>  <score_type>  (54) 
oracle

>  <origin>  (54) 
adg

>  <m_score__min__energy>  (54) 
-11.800000000000001

>  <m_primary>  (54) 
energy

$$$$
54:0
     RDKit          3D

 45 48  0  0  0  0  0  0  0  0999 V2000
   55.1800   31.2280   51.6190 C   0  0  0  0  0  0  0  0  0  0  0  0
   54.8140   30.3510   52.5690 C   0  0  0  0  0  0  0  0  0  0  0  0
   53.5000   30.0630   52.9700 C   0  0  0  0  0  0  0  0  0  0  0  0
   52.3420   30.7130   52.7420 C   0  0  0  0  0  0  0  0  0  0  0  0
   51.7530   30.9760   51.4180 C   0  0  0  0  0  0  0  0  0  0  0  0
   51.8170   30.1360   50.3690 N   0  0  0  0  0  0  0  0  0  0  0  0
   51.2710   30.8520   49.3630 C   0  0  0  0  0  0  0  0  0  0  0  0
   51.1370   30.3940   48.1990 O   0  0  0  0  0  0  0  0  0  0  0  0
   50.8880   32.1020   49.7000 N   0  0  0  0  0  0  0  0  0  0  0  0
   51.2140   32.1680   51.0010 C   0  0  0  0  0  0  0  0  0  0  0  0
   51.0270   33.2970   51.7900 O   0  0  0  0  0  0  0  0  0  0  0  0
   53.5710   28.9050   53.7240 C   0  0  0  0  0  0  0  0  0  0  0  0
   54.9070   28.5740   53.8270 C   0  0  0  0  0  0  0  0  0  0  0  0
   55.4230   27.4030   54.6080 C   0  0  0  0  0  0  0  0  0  0  0  0
   55.6680   29.4560   53.1360 N   0  0  0  0  0  0  0  0  0  0  0  0
   57.1060   29.4270   53.0280 C   0  0  0  0  0  0  0  0  0  0  0  0
   57.8170   29.3860   54.0680 O   0  0  0  0  0  0  0  0  0  0  0  0
   57.7310   29.4530   51.7390 N   0  0  0  0  0  0  0  0  0  0  0  0
   58.2860   30.6290   51.1350 C   0  0  0  0  0  0  0  0  0  0  0  0
   58.2050   31.8240   51.8540 C   0  0  0  0  0  0  0  0  0  0  0  0
   58.7660   32.9960   51.3570 C   0  0  0  0  0  0  0  0  0  0  0  0
   59.4280   32.9940   50.1260 C   0  0  0  0  0  0  0  0  0  0  0  0
   60.0180   34.1760   49.6490 C   0  0  0  0  0  0  0  0  0  0  0  0
   60.6890   34.1850   48.4260 C   0  0  0  0  0  0  0  0  0  0  0  0
   60.7790   33.0170   47.6700 C   0  0  0  0  0  0  0  0  0  0  0  0
   60.1940   31.8340   48.1270 C   0  0  0  0  0  0  0  0  0  0  0  0
   59.5000   31.8000   49.3590 C   0  0  0  0  0  0  0  0  0  0  0  0
   58.8810   30.6140   49.8460 C   0  0  0  0  0  0  0  0  0  0  0  0
   58.8270   29.3680   48.9900 C   0  0  0  0  0  0  0  0  0  0  0  0
   56.2451   31.3739   51.3861 H   0  0  0  0  0  0  0  0  0  0  0  0
   54.4145   31.8000   51.0742 H   0  0  0  0  0  0  0  0  0  0  0  0
   51.7892   31.0785   53.6199 H   0  0  0  0  0  0  0  0  0  0  0  0
   52.7242   28.3534   54.1585 H   0  0  0  0  0  0  0  0  0  0  0  0
   55.3313   27.6110   55.6843 H   0  0  0  0  0  0  0  0  0  0  0  0
   54.8362   26.5072   54.3564 H   0  0  0  0  0  0  0  0  0  0  0  0
   56.4800   27.2315   54.3564 H   0  0  0  0  0  0  0  0  0  0  0  0
   57.6907   31.8384   52.8263 H   0  0  0  0  0  0  0  0  0  0  0  0
   58.6882   33.9284   51.9354 H   0  0  0  0  0  0  0  0  0  0  0  0
   59.9506   35.0994   50.2429 H   0  0  0  0  0  0  0  0  0  0  0  0
   61.1476   35.1146   48.0577 H   0  0  0  0  0  0  0  0  0  0  0  0
   61.3135   33.0273   46.7086 H   0  0  0  0  0  0  0  0  0  0  0  0
   60.2738   30.9187   47.5222 H   0  0  0  0  0  0  0  0  0  0  0  0
   58.7885   28.4797   49.6376 H   0  0  0  0  0  0  0  0  0  0  0  0
   57.9293   29.3980   48.3550 H   0  0  0  0  0  0  0  0  0  0  0  0
   59.7239   29.3202   48.3550 H   0  0  0  0  0  0  0  0  0  0  0  0
  1  2  2  0
  2  3  1  0
  3  4  2  3
  4  5  1  0
  5  6  1  0
  6  7  1  0
  7  8  2  0
  7  9  1  0
  9 10  1  0
 10 11  1  0
  3 12  1  0
 12 13  2  0
 13 14  1  0
 13 15  1  0
 15 16  1  0
 16 17  2  0
 16 18  1  0
 18 19  1  0
 19 20  2  0
 20 21  1  0
 21 22  2  0
 22 23  1  0
 23 24  2  0
 24 25  1  0
 25 26  2  0
 26 27  1  0
 27 28  2  0
 28 29  1  0
 15  2  1  0
 28 19  1  0
 10  5  2  0
 27 22  1  0
  1 30  1  0
  1 31  1  0
  4 32  1  0
 12 33  1  0
 14 34  1  0
 14 35  1  0
 14 36  1  0
 20 37  1  0
 21 38  1  0
 23 39  1  0
 24 40  1  0
 25 41  1  0
 26 42  1  0
 29 43  1  0
 29 44  1  0
 29 45  1  0
M  CHG  4   6  -1   9  -1  11  -1  18  -1
M  END
>  <UniqueID>  (55) 
54

>  <SMILES>  (55) 
C=c1c(=Cc2[n-]c(=O)[n-]c2[O-])cc(C)n1C(=O)[N-]c1ccc2ccccc2c1C

>  <Energy>  (55) 
135.669000414882

>  <Genealogy>  (55) 
C=c1c(=Cc2[n-]c(=O)[n-]c2[O-])cc(C)n1C(=O)[N-]c1ccc2ccccc2c1C (protonated)
C=c1c(=Cc2[n-]c(=O)[n-]c2[O-])cc(C)n1C(=O)[N-]c1ccc2ccccc2c1C (3D coordinates assigned)
C=c1c(=Cc2[n-]c(=O)[n-]c2[O-])cc(C)n1C(=O)[N-]c1ccc2ccccc2c1C (optimized conformer: 135.669000414882 kcal/mol)

>  <smiles>  (55) 
C=c1c(=Cc2[nH]c(=O)[nH]c2O)cc(C)n1C(=O)Nc1ccc2ccccc2c1C

>  <score_type>  (55) 
oracle

>  <origin>  (55) 
adg

>  <m_score__min__energy>  (55) 
-18.239999999999998

>  <m_primary>  (55) 
energy

$$$$
55:0
     RDKit          3D

 27 28  0  0  0  0  0  0  0  0999 V2000
   56.4370   28.6590   54.5010 O   0  0  0  0  0  0  0  0  0  0  0  0
   55.8640   29.3850   53.6470 C   0  0  0  0  0  0  0  0  0  0  0  0
   54.5620   29.0110   53.1760 N   0  0  0  0  0  0  0  0  0  0  0  0
   54.0130   29.3510   51.8660 C   0  0  0  0  0  0  0  0  0  0  0  0
   52.9790   30.4400   51.9860 C   0  0  0  0  0  0  0  0  0  0  0  0
   52.4650   30.7860   53.2450 C   0  0  0  0  0  0  0  0  0  0  0  0
   51.4740   31.7660   53.3570 C   0  0  0  0  0  0  0  0  0  0  0  0
   50.9910   32.4090   52.2130 C   0  0  0  0  0  0  0  0  0  0  0  0
   50.0020   33.3790   52.3310 O   0  0  0  0  0  0  0  0  0  0  0  0
   51.5030   32.0750   50.9540 C   0  0  0  0  0  0  0  0  0  0  0  0
   51.0250   32.7090   49.8140 O   0  0  0  0  0  0  0  0  0  0  0  0
   52.4980   31.0970   50.8410 C   0  0  0  0  0  0  0  0  0  0  0  0
   56.5570   30.5880   53.1420 C   0  0  0  0  0  0  0  0  0  0  0  0
   56.6090   30.8200   51.7600 C   0  0  0  0  0  0  0  0  0  0  0  0
   57.2720   31.9410   51.2610 C   0  0  0  0  0  0  0  0  0  0  0  0
   57.8770   32.8280   52.1500 C   0  0  0  0  0  0  0  0  0  0  0  0
   57.8190   32.5980   53.4880 N   0  0  0  0  0  0  0  0  0  0  0  0
   57.1800   31.5160   54.0080 C   0  0  0  0  0  0  0  0  0  0  0  0
   57.2010   31.3010   55.6330 S   0  0  0  0  0  0  0  0  0  0  0  0
   54.8273   29.6972   51.2125 H   0  0  0  0  0  0  0  0  0  0  0  0
   53.5351   28.4561   51.4407 H   0  0  0  0  0  0  0  0  0  0  0  0
   52.8433   30.2841   54.1477 H   0  0  0  0  0  0  0  0  0  0  0  0
   51.0737   32.0316   54.3465 H   0  0  0  0  0  0  0  0  0  0  0  0
   52.9051   30.8417   49.8515 H   0  0  0  0  0  0  0  0  0  0  0  0
   56.1253   30.1156   51.0673 H   0  0  0  0  0  0  0  0  0  0  0  0
   57.3170   32.1233   50.1771 H   0  0  0  0  0  0  0  0  0  0  0  0
   58.4023   33.7157   51.7678 H   0  0  0  0  0  0  0  0  0  0  0  0
  1  2  2  0
  2  3  1  0
  3  4  1  0
  4  5  1  0
  5  6  2  0
  6  7  1  0
  7  8  2  0
  8  9  1  0
  8 10  1  0
 10 11  1  0
 10 12  2  0
  2 13  1  0
 13 14  2  0
 14 15  1  0
 15 16  2  0
 16 17  1  0
 17 18  1  0
 18 19  2  0
 12  5  1  0
 18 13  1  0
  4 20  1  0
  4 21  1  0
  6 22  1  0
  7 23  1  0
 12 24  1  0
 14 25  1  0
 15 26  1  0
 16 27  1  0
M  CHG  4   3  -1   9  -1  11  -1  17  -1
M  END
>  <UniqueID>  (56) 
55

>  <SMILES>  (56) 
O=C([N-]Cc1ccc([O-])c([O-])c1)c1ccc[n-]c1=S

>  <Energy>  (56) 
32.720068065626045

>  <Genealogy>  (56) 
O=C([N-]Cc1ccc([O-])c([O-])c1)c1ccc[n-]c1=S (protonated)
O=C([N-]Cc1ccc([O-])c([O-])c1)c1ccc[n-]c1=S (3D coordinates assigned)
O=C([N-]Cc1ccc([O-])c([O-])c1)c1ccc[n-]c1=S (optimized conformer: 32.720068065626045 kcal/mol)

>  <smiles>  (56) 
O=C(NCc1ccc(O)c(O)c1)c1ccc[nH]c1=S

>  <score_type>  (56) 
oracle

>  <origin>  (56) 
adg

>  <m_score__min__energy>  (56) 
-16.469999999999999

>  <m_primary>  (56) 
energy

$$$$
56:0
     RDKit          3D

 62 65  0  0  0  0  0  0  0  0999 V2000
   61.9580   31.5070   49.2840 H   0  0  0  0  0  0  0  0  0  0  0  0
   62.7970   31.6270   48.7670 O   0  0  0  0  0  0  0  0  0  0  0  0
   63.1130   32.9990   48.7610 C   0  0  0  0  0  0  0  0  0  0  0  0
   63.1170   33.4800   47.3030 C   0  0  0  0  0  0  0  0  0  0  0  0
   63.1261   34.5797   47.2797 H   0  0  0  0  0  0  0  0  0  0  0  0
   64.0120   33.0950   46.7923 H   0  0  0  0  0  0  0  0  0  0  0  0
   62.2157   33.1099   46.7923 H   0  0  0  0  0  0  0  0  0  0  0  0
   64.5160   33.2070   49.3610 C   0  0  0  0  0  0  0  0  0  0  0  0
   64.4504   33.1973   50.4590 H   0  0  0  0  0  0  0  0  0  0  0  0
   65.1816   32.3977   49.0263 H   0  0  0  0  0  0  0  0  0  0  0  0
   64.9182   34.1746   49.0263 H   0  0  0  0  0  0  0  0  0  0  0  0
   62.0680   33.7840   49.5890 C   0  0  0  0  0  0  0  0  0  0  0  0
   62.5207   34.7221   49.9426 H   0  0  0  0  0  0  0  0  0  0  0  0
   61.1987   33.9922   48.9479 H   0  0  0  0  0  0  0  0  0  0  0  0
   61.6290   33.0230   50.7170 O   0  0  0  0  0  0  0  0  0  0  0  0
   60.3070   32.6410   51.0120 C   0  0  0  0  0  0  0  0  0  0  0  0
   59.4480   33.4400   51.7950 C   0  0  0  0  0  0  0  0  0  0  0  0
   59.8220   34.3772   52.2330 H   0  0  0  0  0  0  0  0  0  0  0  0
   58.1250   33.0490   52.0180 C   0  0  0  0  0  0  0  0  0  0  0  0
   57.4641   33.6751   52.6354 H   0  0  0  0  0  0  0  0  0  0  0  0
   57.6410   31.8660   51.4590 C   0  0  0  0  0  0  0  0  0  0  0  0
   56.5958   31.5666   51.6260 H   0  0  0  0  0  0  0  0  0  0  0  0
   58.4820   31.0620   50.6880 C   0  0  0  0  0  0  0  0  0  0  0  0
   58.0929   30.1350   50.2415 H   0  0  0  0  0  0  0  0  0  0  0  0
   59.8170   31.4270   50.4790 C   0  0  0  0  0  0  0  0  0  0  0  0
   60.6220   30.5700   49.7090 O   0  0  0  0  0  0  0  0  0  0  0  0
   60.1940   29.3730   49.1150 C   0  0  0  0  0  0  0  0  0  0  0  0
   60.8440   28.1830   49.4500 C   0  0  0  0  0  0  0  0  0  0  0  0
   61.6950   28.1945   50.1469 H   0  0  0  0  0  0  0  0  0  0  0  0
   60.4070   26.9790   48.8950 C   0  0  0  0  0  0  0  0  0  0  0  0
   60.9147   26.0384   49.1548 H   0  0  0  0  0  0  0  0  0  0  0  0
   59.3550   26.9670   48.0340 N   0  0  0  0  0  0  0  0  0  0  0  0
   58.7150   28.1130   47.6660 C   0  0  0  0  0  0  0  0  0  0  0  0
   57.6810   28.0900   46.8770 N   0  0  0  0  0  0  0  0  0  0  0  0
   57.5580   28.7180   45.5900 C   0  0  0  0  0  0  0  0  0  0  0  0
   57.9460   28.1370   44.5420 O   0  0  0  0  0  0  0  0  0  0  0  0
   56.9650   30.0120   45.4890 N   0  0  0  0  0  0  0  0  0  0  0  0
   57.1800   30.8570   44.3570 C   0  0  0  0  0  0  0  0  0  0  0  0
   56.7400   30.4220   43.0990 C   0  0  0  0  0  0  0  0  0  0  0  0
   56.1990   29.4684   43.0097 H   0  0  0  0  0  0  0  0  0  0  0  0
   56.9830   31.1890   41.9600 C   0  0  0  0  0  0  0  0  0  0  0  0
   56.6284   30.8438   40.9776 H   0  0  0  0  0  0  0  0  0  0  0  0
   57.6760   32.3940   42.0680 C   0  0  0  0  0  0  0  0  0  0  0  0
   57.8678   32.9988   41.1694 H   0  0  0  0  0  0  0  0  0  0  0  0
   58.1270   32.8350   43.3130 C   0  0  0  0  0  0  0  0  0  0  0  0
   58.6796   33.7833   43.3860 H   0  0  0  0  0  0  0  0  0  0  0  0
   57.8830   32.0800   44.4780 C   0  0  0  0  0  0  0  0  0  0  0  0
   58.3880   32.5420   45.7520 N   0  0  0  0  0  0  0  0  0  0  0  0
   59.6260   32.0580   46.3460 C   0  0  0  0  0  0  0  0  0  0  0  0
   59.5863   30.9671   46.4814 H   0  0  0  0  0  0  0  0  0  0  0  0
   60.4952   32.2709   45.7064 H   0  0  0  0  0  0  0  0  0  0  0  0
   59.7330   32.7570   47.6930 C   0  0  0  0  0  0  0  0  0  0  0  0
   59.3720   32.1005   48.4984 H   0  0  0  0  0  0  0  0  0  0  0  0
   60.7726   33.0184   47.9399 H   0  0  0  0  0  0  0  0  0  0  0  0
   58.8480   33.9910   47.5720 C   0  0  0  0  0  0  0  0  0  0  0  0
   58.3634   34.2138   48.5340 H   0  0  0  0  0  0  0  0  0  0  0  0
   59.4253   34.8847   47.2927 H   0  0  0  0  0  0  0  0  0  0  0  0
   57.8070   33.6350   46.5200 C   0  0  0  0  0  0  0  0  0  0  0  0
   56.8707   33.3130   46.9992 H   0  0  0  0  0  0  0  0  0  0  0  0
   57.5605   34.4964   45.8818 H   0  0  0  0  0  0  0  0  0  0  0  0
   59.1460   29.3400   48.1810 C   0  0  0  0  0  0  0  0  0  0  0  0
   58.6661   30.2749   47.8558 H   0  0  0  0  0  0  0  0  0  0  0  0
  1  2  1  0
  2  3  1  0
  3  4  1  0
  4  5  1  0
  4  6  1  0
  4  7  1  0
  3  8  1  0
  8  9  1  0
  8 10  1  0
  8 11  1  0
  3 12  1  0
 12 13  1  0
 12 14  1  0
 12 15  1  0
 15 16  1  0
 16 17  2  0
 17 18  1  0
 17 19  1  0
 19 20  1  0
 19 21  2  0
 21 22  1  0
 21 23  1  0
 23 24  1  0
 23 25  2  0
 25 26  1  0
 26 27  1  0
 27 28  1  0
 28 29  1  0
 28 30  2  0
 30 31  1  0
 30 32  1  0
 32 33  1  0
 33 34  2  0
 34 35  1  0
 35 36  2  0
 35 37  1  0
 37 38  1  0
 38 39  2  0
 39 40  1  0
 39 41  1  0
 41 42  1  0
 41 43  2  0
 43 44  1  0
 43 45  1  0
 45 46  1  0
 45 47  2  0
 47 48  1  0
 48 49  1  0
 49 50  1  0
 49 51  1  0
 49 52  1  0
 52 53  1  0
 52 54  1  0
 52 55  1  0
 55 56  1  0
 55 57  1  0
 55 58  1  0
 58 59  1  0
 58 60  1  0
 33 61  1  0
 61 62  1  0
 25 16  1  0
 61 27  2  0
 47 38  1  0
 58 48  1  0
M  CHG  2  32  -1  37  -1
M  END
>  <UniqueID>  (57) 
56

>  <SMILES>  (57) 
CC(C)(O)COc1ccccc1Oc1cc[n-]/c(=N\C(=O)[N-]c2ccccc2N2CCCC2)c1

>  <Energy>  (57) 
83.41673277959573

>  <Genealogy>  (57) 
CC(C)(O)COc1ccccc1Oc1cc[n-]c(=NC(=O)[N-]c2ccccc2N2CCCC2)c1 (protonated)
CC(C)(O)COc1ccccc1Oc1cc[n-]/c(=N\C(=O)[N-]c2ccccc2N2CCCC2)c1 (cis-trans isomerization)
CC(C)(O)COc1ccccc1Oc1cc[n-]/c(=N\C(=O)[N-]c2ccccc2N2CCCC2)c1 (3D coordinates assigned)
CC(C)(O)COc1ccccc1Oc1cc[n-]/c(=N\C(=O)[N-]c2ccccc2N2CCCC2)c1 (nonaromatic ring conformer: 83.41673277959573 kcal/mol)

>  <smiles>  (57) 
CC(C)(O)COc1ccccc1Oc1cc[nH]c(=NC(=O)Nc2ccccc2N2CCCC2)c1

>  <score_type>  (57) 
oracle

>  <origin>  (57) 
adg

>  <m_score__min__energy>  (57) 
-11.23

>  <m_primary>  (57) 
energy

$$$$
57:0
     RDKit          3D

 31 31  0  0  0  0  0  0  0  0999 V2000
   56.1128   24.2661   43.8477 H   0  0  0  0  0  0  0  0  0  0  0  0
   57.0480   24.8110   44.0440 C   0  0  0  0  0  0  0  0  0  0  0  0
   57.8747   24.7634   43.3199 H   0  0  0  0  0  0  0  0  0  0  0  0
   57.1800   25.5320   45.1640 C   0  0  0  0  0  0  0  0  0  0  0  0
   56.0510   25.6730   46.1130 C   0  0  0  0  0  0  0  0  0  0  0  0
   55.8980   24.8560   47.0610 O   0  0  0  0  0  0  0  0  0  0  0  0
   55.1410   26.7130   45.9660 O   0  0  0  0  0  0  0  0  0  0  0  0
   58.4630   26.2740   45.4240 C   0  0  0  0  0  0  0  0  0  0  0  0
   58.3773   26.8381   46.3644 H   0  0  0  0  0  0  0  0  0  0  0  0
   59.2939   25.5575   45.5036 H   0  0  0  0  0  0  0  0  0  0  0  0
   58.7170   27.1980   44.3220 N   0  0  0  0  0  0  0  0  0  0  0  0
   57.8350   27.9460   43.7250 C   0  0  0  0  0  0  0  0  0  0  0  0
   57.3575   27.5549   42.8145 H   0  0  0  0  0  0  0  0  0  0  0  0
   57.4350   29.2920   44.1970 C   0  0  0  0  0  0  0  0  0  0  0  0
   58.4030   30.1360   44.6030 C   0  0  0  0  0  0  0  0  0  0  0  0
   59.4382   29.7642   44.6063 H   0  0  0  0  0  0  0  0  0  0  0  0
   58.1700   31.5290   45.0450 C   0  0  0  0  0  0  0  0  0  0  0  0
   58.2480   31.8630   46.4090 C   0  0  0  0  0  0  0  0  0  0  0  0
   58.4571   31.0792   47.1519 H   0  0  0  0  0  0  0  0  0  0  0  0
   58.0620   33.1820   46.8270 C   0  0  0  0  0  0  0  0  0  0  0  0
   58.1124   33.4320   47.8970 H   0  0  0  0  0  0  0  0  0  0  0  0
   57.8120   34.1840   45.8870 C   0  0  0  0  0  0  0  0  0  0  0  0
   57.6590   35.2218   46.2179 H   0  0  0  0  0  0  0  0  0  0  0  0
   57.7560   33.8700   44.5270 C   0  0  0  0  0  0  0  0  0  0  0  0
   57.5652   34.6629   43.7888 H   0  0  0  0  0  0  0  0  0  0  0  0
   57.9420   32.5490   44.1000 C   0  0  0  0  0  0  0  0  0  0  0  0
   57.8530   32.2020   42.3750 Cl  0  0  0  0  0  0  0  0  0  0  0  0
   55.9910   29.7200   44.0990 C   0  0  0  0  0  0  0  0  0  0  0  0
   55.5756   29.8431   45.1101 H   0  0  0  0  0  0  0  0  0  0  0  0
   55.9277   30.6755   43.5577 H   0  0  0  0  0  0  0  0  0  0  0  0
   55.4172   28.9533   43.5577 H   0  0  0  0  0  0  0  0  0  0  0  0
  1  2  1  0
  2  3  1  0
  2  4  2  0
  4  5  1  0
  5  6  2  0
  5  7  1  0
  4  8  1  0
  8  9  1  0
  8 10  1  0
  8 11  1  0
 11 12  2  0
 12 13  1  0
 12 14  1  0
 14 15  2  0
 15 16  1  0
 15 17  1  0
 17 18  2  0
 18 19  1  0
 18 20  1  0
 20 21  1  0
 20 22  2  0
 22 23  1  0
 22 24  1  0
 24 25  1  0
 24 26  2  0
 26 27  1  0
 14 28  1  0
 28 29  1  0
 28 30  1  0
 28 31  1  0
 26 17  1  0
M  CHG  1   7  -1
M  END
>  <UniqueID>  (58) 
57

>  <SMILES>  (58) 
C=C(C/N=C\C(C)=C\c1ccccc1Cl)C(=O)[O-]

>  <Energy>  (58) 
39.05346104302704

>  <Genealogy>  (58) 
C=C(CN=CC(C)=Cc1ccccc1Cl)C(=O)[O-] (protonated)
C=C(C/N=C\C(C)=C\c1ccccc1Cl)C(=O)[O-] (cis-trans isomerization)
C=C(C/N=C\C(C)=C\c1ccccc1Cl)C(=O)[O-] (3D coordinates assigned)
C=C(C/N=C\C(C)=C\c1ccccc1Cl)C(=O)[O-] (optimized conformer: 39.05346104302704 kcal/mol)

>  <smiles>  (58) 
C=C(CN=CC(C)=Cc1ccccc1Cl)C(=O)O

>  <score_type>  (58) 
oracle

>  <origin>  (58) 
adg

>  <m_score__min__energy>  (58) 
-10.08

>  <m_primary>  (58) 
energy

$$$$
58:0
     RDKit          3D

 52 55  0  0  0  0  0  0  0  0999 V2000
   54.3910   28.2400   53.2270 C   0  0  0  0  0  0  0  0  0  0  0  0
   54.7220   29.4060   52.6510 C   0  0  0  0  0  0  0  0  0  0  0  0
   53.8470   30.4380   52.2750 C   0  0  0  0  0  0  0  0  0  0  0  0
   52.5050   30.4680   52.1710 C   0  0  0  0  0  0  0  0  0  0  0  0
   51.7460   30.8210   50.9590 C   0  0  0  0  0  0  0  0  0  0  0  0
   51.7000   30.0750   49.8390 N   0  0  0  0  0  0  0  0  0  0  0  0
   51.0150   30.8550   48.9740 C   0  0  0  0  0  0  0  0  0  0  0  0
   50.7480   30.4920   47.8000 O   0  0  0  0  0  0  0  0  0  0  0  0
   50.6500   32.0600   49.4640 N   0  0  0  0  0  0  0  0  0  0  0  0
   51.1340   32.0260   50.7160 C   0  0  0  0  0  0  0  0  0  0  0  0
   51.0210   33.0770   51.6170 O   0  0  0  0  0  0  0  0  0  0  0  0
   54.6440   31.5300   51.9810 C   0  0  0  0  0  0  0  0  0  0  0  0
   55.9530   31.1190   52.1140 C   0  0  0  0  0  0  0  0  0  0  0  0
   57.1240   31.9850   51.8800 C   0  0  0  0  0  0  0  0  0  0  0  0
   57.0810   33.1760   52.2920 O   0  0  0  0  0  0  0  0  0  0  0  0
   58.2930   31.4970   51.1830 N   0  0  0  0  0  0  0  0  0  0  0  0
   59.4860   32.3480   51.0280 C   0  0  0  0  0  0  0  0  0  0  0  0
   59.7210   32.6330   49.5400 C   0  0  0  0  0  0  0  0  0  0  0  0
   59.4800   31.4320   48.7280 N   0  0  0  0  0  0  0  0  0  0  0  0
   59.3050   31.5850   47.3100 C   0  0  0  0  0  0  0  0  0  0  0  0
   60.2140   32.1400   46.6360 O   0  0  0  0  0  0  0  0  0  0  0  0
   58.0260   31.1790   46.6200 C   0  0  2  0  0  0  0  0  0  0  0  0
   58.1800   29.8910   45.8260 C   0  0  0  0  0  0  0  0  0  0  0  0
   57.2250   30.0860   44.6910 C   0  0  0  0  0  0  0  0  0  0  0  0
   57.1230   31.5950   44.5710 C   0  0  0  0  0  0  0  0  0  0  0  0
   57.5740   32.2020   45.7620 O   0  0  0  0  0  0  0  0  0  0  0  0
   59.3360   30.1290   49.3890 C   0  0  0  0  0  0  0  0  0  0  0  0
   58.2400   30.2150   50.4560 C   0  0  0  0  0  0  0  0  0  0  0  0
   56.0060   29.8240   52.5040 N   0  0  0  0  0  0  0  0  0  0  0  0
   57.2130   29.0810   52.8870 C   0  0  0  0  0  0  0  0  0  0  0  0
   55.1733   27.5076   53.4754 H   0  0  0  0  0  0  0  0  0  0  0  0
   53.3374   28.0166   53.4508 H   0  0  0  0  0  0  0  0  0  0  0  0
   51.9254   30.2063   53.0685 H   0  0  0  0  0  0  0  0  0  0  0  0
   54.2989   32.5347   51.6955 H   0  0  0  0  0  0  0  0  0  0  0  0
   59.3317   33.2966   51.5631 H   0  0  0  0  0  0  0  0  0  0  0  0
   60.3623   31.8301   51.4449 H   0  0  0  0  0  0  0  0  0  0  0  0
   59.0368   33.4304   49.2143 H   0  0  0  0  0  0  0  0  0  0  0  0
   60.7676   32.9430   49.4041 H   0  0  0  0  0  0  0  0  0  0  0  0
   57.2852   31.0046   47.4142 H   0  0  0  0  0  0  0  0  0  0  0  0
   59.2107   29.7714   45.4607 H   0  0  0  0  0  0  0  0  0  0  0  0
   57.9745   28.9869   46.4180 H   0  0  0  0  0  0  0  0  0  0  0  0
   57.6195   29.6434   43.7645 H   0  0  0  0  0  0  0  0  0  0  0  0
   56.2518   29.6025   44.8614 H   0  0  0  0  0  0  0  0  0  0  0  0
   57.7435   31.9369   43.7295 H   0  0  0  0  0  0  0  0  0  0  0  0
   56.0736   31.8747   44.3963 H   0  0  0  0  0  0  0  0  0  0  0  0
   59.0626   29.3680   48.6433 H   0  0  0  0  0  0  0  0  0  0  0  0
   60.2887   29.8519   49.8640 H   0  0  0  0  0  0  0  0  0  0  0  0
   57.2584   30.1208   49.9686 H   0  0  0  0  0  0  0  0  0  0  0  0
   58.3977   29.4013   51.1792 H   0  0  0  0  0  0  0  0  0  0  0  0
   57.2840   29.0373   53.9838 H   0  0  0  0  0  0  0  0  0  0  0  0
   57.1588   28.0597   52.4821 H   0  0  0  0  0  0  0  0  0  0  0  0
   58.1005   29.5894   52.4821 H   0  0  0  0  0  0  0  0  0  0  0  0
  1  2  2  0
  2  3  1  0
  3  4  2  3
  4  5  1  0
  5  6  1  0
  6  7  1  0
  7  8  2  0
  7  9  1  0
  9 10  1  0
 10 11  1  0
  3 12  1  0
 12 13  2  0
 13 14  1  0
 14 15  2  0
 14 16  1  0
 16 17  1  0
 17 18  1  0
 18 19  1  0
 19 20  1  0
 20 21  2  0
 20 22  1  0
 22 23  1  0
 23 24  1  0
 24 25  1  0
 25 26  1  0
 19 27  1  0
 27 28  1  0
 13 29  1  0
 29 30  1  0
 29  2  1  0
 10  5  2  0
 28 16  1  0
 26 22  1  0
  1 31  1  0
  1 32  1  0
  4 33  1  0
 12 34  1  0
 17 35  1  0
 17 36  1  0
 18 37  1  0
 18 38  1  0
 22 39  1  1
 23 40  1  0
 23 41  1  0
 24 42  1  0
 24 43  1  0
 25 44  1  0
 25 45  1  0
 27 46  1  0
 27 47  1  0
 28 48  1  0
 28 49  1  0
 30 50  1  0
 30 51  1  0
 30 52  1  0
M  CHG  3   6  -1   9  -1  11  -1
M  END
>  <UniqueID>  (59) 
58

>  <SMILES>  (59) 
C=c1c(=Cc2[n-]c(=O)[n-]c2[O-])cc(C(=O)N2CCN(C(=O)[C@@H]3CCCO3)CC2)n1C

>  <Energy>  (59) 
132.2532583299132

>  <Genealogy>  (59) 
C=c1c(=Cc2[n-]c(=O)[n-]c2[O-])cc(C(=O)N2CCN(C(=O)C3CCCO3)CC2)n1C (protonated)
C=c1c(=Cc2[n-]c(=O)[n-]c2[O-])cc(C(=O)N2CCN(C(=O)[C@@H]3CCCO3)CC2)n1C (chirality)
C=c1c(=Cc2[n-]c(=O)[n-]c2[O-])cc(C(=O)N2CCN(C(=O)[C@@H]3CCCO3)CC2)n1C (3D coordinates assigned)
C=c1c(=Cc2[n-]c(=O)[n-]c2[O-])cc(C(=O)N2CCN(C(=O)[C@@H]3CCCO3)CC2)n1C (nonaromatic ring conformer: 132.2532583299132 kcal/mol)

>  <smiles>  (59) 
C=c1c(=Cc2[nH]c(=O)[nH]c2O)cc(C(=O)N2CCN(C(=O)C3CCCO3)CC2)n1C

>  <score_type>  (59) 
oracle

>  <origin>  (59) 
adg

>  <m_score__min__energy>  (59) 
-17.690000000000001

>  <m_primary>  (59) 
energy

$$$$
59:0
     RDKit          3D

 60 64  0  0  0  0  0  0  0  0999 V2000
   59.6380   29.3690   44.8320 C   0  0  0  0  0  0  0  0  0  0  0  0
   59.3190   29.1260   46.1160 C   0  0  0  0  0  0  0  0  0  0  0  0
   58.5900   28.0220   46.5760 C   0  0  0  0  0  0  0  0  0  0  0  0
   58.1020   27.0000   45.8450 C   0  0  0  0  0  0  0  0  0  0  0  0
   57.3100   25.8890   46.4070 C   0  0  0  0  0  0  0  0  0  0  0  0
   57.8590   24.7440   46.8500 N   0  0  0  0  0  0  0  0  0  0  0  0
   56.7880   23.9930   47.1860 C   0  0  0  0  0  0  0  0  0  0  0  0
   56.8960   22.8330   47.6620 O   0  0  0  0  0  0  0  0  0  0  0  0
   55.5920   24.5770   46.9600 N   0  0  0  0  0  0  0  0  0  0  0  0
   55.9390   25.7720   46.4560 C   0  0  0  0  0  0  0  0  0  0  0  0
   55.0190   26.7110   46.0050 O   0  0  0  0  0  0  0  0  0  0  0  0
   58.5150   28.1500   47.9530 C   0  0  0  0  0  0  0  0  0  0  0  0
   59.1850   29.3080   48.2800 C   0  0  0  0  0  0  0  0  0  0  0  0
   59.3500   29.8090   49.6850 C   0  0  0  0  0  0  0  0  0  0  0  0
   59.6540   29.9260   47.1680 N   0  0  0  0  0  0  0  0  0  0  0  0
   60.4310   31.1800   47.1550 C   0  0  0  0  0  0  0  0  0  0  0  0
   59.5880   32.3600   46.7160 C   0  0  0  0  0  0  0  0  0  0  0  0
   58.9810   32.3290   45.4470 C   0  0  0  0  0  0  0  0  0  0  0  0
   58.1980   33.3970   45.0040 C   0  0  0  0  0  0  0  0  0  0  0  0
   58.0010   34.5070   45.8250 C   0  0  0  0  0  0  0  0  0  0  0  0
   58.5820   34.5500   47.0930 C   0  0  0  0  0  0  0  0  0  0  0  0
   59.3680   33.4830   47.5520 C   0  0  0  0  0  0  0  0  0  0  0  0
   59.9400   33.5740   48.9070 C   0  0  0  0  0  0  0  0  0  0  0  0
   59.1520   33.5720   49.8910 O   0  0  0  0  0  0  0  0  0  0  0  0
   61.3690   33.6170   49.1150 N   0  0  0  0  0  0  0  0  0  0  0  0
   62.2850   33.5790   47.9660 C   0  0  0  0  0  0  0  0  0  0  0  0
   63.7450   33.6200   48.4210 C   0  0  0  0  0  0  0  0  0  0  0  0
   63.9660   32.6110   49.4740 N   0  0  0  0  0  0  0  0  0  0  0  0
   65.4230   32.4260   49.7140 C   0  0  0  0  0  0  0  0  0  0  0  0
   66.0850   33.4730   50.5870 C   0  0  0  0  0  0  0  0  0  0  0  0
   66.3730   32.5360   51.6010 O   0  0  0  0  0  0  0  0  0  0  0  0
   65.7960   31.4920   50.8470 C   0  0  0  0  0  0  0  0  0  0  0  0
   63.1000   32.7890   50.6750 C   0  0  0  0  0  0  0  0  0  0  0  0
   61.9310   33.7660   50.4640 C   0  0  0  0  0  0  0  0  0  0  0  0
   60.2161   30.2672   44.5694 H   0  0  0  0  0  0  0  0  0  0  0  0
   59.3207   28.6695   44.0446 H   0  0  0  0  0  0  0  0  0  0  0  0
   58.3065   26.9938   44.7642 H   0  0  0  0  0  0  0  0  0  0  0  0
   58.0168   27.4604   48.6504 H   0  0  0  0  0  0  0  0  0  0  0  0
   59.0866   29.0092   50.3928 H   0  0  0  0  0  0  0  0  0  0  0  0
   60.3952   30.1116   49.8460 H   0  0  0  0  0  0  0  0  0  0  0  0
   58.6891   30.6735   49.8460 H   0  0  0  0  0  0  0  0  0  0  0  0
   60.8129   31.3727   48.1684 H   0  0  0  0  0  0  0  0  0  0  0  0
   61.2561   31.0634   46.4370 H   0  0  0  0  0  0  0  0  0  0  0  0
   59.1249   31.4536   44.7966 H   0  0  0  0  0  0  0  0  0  0  0  0
   57.7360   33.3627   44.0063 H   0  0  0  0  0  0  0  0  0  0  0  0
   57.3872   35.3492   45.4728 H   0  0  0  0  0  0  0  0  0  0  0  0
   58.4224   35.4272   47.7373 H   0  0  0  0  0  0  0  0  0  0  0  0
   62.1116   32.6522   47.3994 H   0  0  0  0  0  0  0  0  0  0  0  0
   62.0913   34.4602   47.3368 H   0  0  0  0  0  0  0  0  0  0  0  0
   64.4010   33.4046   47.5647 H   0  0  0  0  0  0  0  0  0  0  0  0
   63.9744   34.6191   48.8199 H   0  0  0  0  0  0  0  0  0  0  0  0
   65.6907   32.2463   48.6623 H   0  0  0  0  0  0  0  0  0  0  0  0
   66.9825   33.9190   50.1336 H   0  0  0  0  0  0  0  0  0  0  0  0
   65.5255   34.3841   50.8453 H   0  0  0  0  0  0  0  0  0  0  0  0
   66.5148   30.7124   50.5547 H   0  0  0  0  0  0  0  0  0  0  0  0
   65.0131   30.8709   51.3067 H   0  0  0  0  0  0  0  0  0  0  0  0
   62.6855   31.8082   50.9510 H   0  0  0  0  0  0  0  0  0  0  0  0
   63.7348   33.2179   51.4643 H   0  0  0  0  0  0  0  0  0  0  0  0
   61.1472   33.5576   51.2071 H   0  0  0  0  0  0  0  0  0  0  0  0
   62.3031   34.7945   50.5813 H   0  0  0  0  0  0  0  0  0  0  0  0
  1  2  2  0
  2  3  1  0
  3  4  2  3
  4  5  1  0
  5  6  1  0
  6  7  1  0
  7  8  2  0
  7  9  1  0
  9 10  1  0
 10 11  1  0
  3 12  1  0
 12 13  2  0
 13 14  1  0
 13 15  1  0
 15 16  1  0
 16 17  1  0
 17 18  2  0
 18 19  1  0
 19 20  2  0
 20 21  1  0
 21 22  2  0
 22 23  1  0
 23 24  2  0
 23 25  1  0
 25 26  1  0
 26 27  1  0
 27 28  1  0
 28 29  1  0
 29 30  1  0
 30 31  1  0
 31 32  1  0
 28 33  1  0
 33 34  1  0
 15  2  1  0
 22 17  1  0
 34 25  1  0
 10  5  2  0
 32 29  1  0
  1 35  1  0
  1 36  1  0
  4 37  1  0
 12 38  1  0
 14 39  1  0
 14 40  1  0
 14 41  1  0
 16 42  1  0
 16 43  1  0
 18 44  1  0
 19 45  1  0
 20 46  1  0
 21 47  1  0
 26 48  1  0
 26 49  1  0
 27 50  1  0
 27 51  1  0
 29 52  1  0
 30 53  1  0
 30 54  1  0
 32 55  1  0
 32 56  1  0
 33 57  1  0
 33 58  1  0
 34 59  1  0
 34 60  1  0
M  CHG  3   6  -1   9  -1  11  -1
M  END
>  <UniqueID>  (60) 
59

>  <SMILES>  (60) 
C=c1c(=Cc2[n-]c(=O)[n-]c2[O-])cc(C)n1Cc1ccccc1C(=O)N1CCN(C2COC2)CC1

>  <Energy>  (60) 
212.82761331360226

>  <Genealogy>  (60) 
C=c1c(=Cc2[n-]c(=O)[n-]c2[O-])cc(C)n1Cc1ccccc1C(=O)N1CCN(C2COC2)CC1 (protonated)
C=c1c(=Cc2[n-]c(=O)[n-]c2[O-])cc(C)n1Cc1ccccc1C(=O)N1CCN(C2COC2)CC1 (3D coordinates assigned)
C=c1c(=Cc2[n-]c(=O)[n-]c2[O-])cc(C)n1Cc1ccccc1C(=O)N1CCN(C2COC2)CC1 (nonaromatic ring conformer: 212.82761331360226 kcal/mol)

>  <smiles>  (60) 
C=c1c(=Cc2[nH]c(=O)[nH]c2O)cc(C)n1Cc1ccccc1C(=O)N1CCN(C2COC2)CC1

>  <score_type>  (60) 
oracle

>  <origin>  (60) 
adg

>  <m_score__min__energy>  (60) 
-18.170000000000002

>  <m_primary>  (60) 
energy

$$$$
60:0
     RDKit          3D

 30 31  0  0  1  0  0  0  0  0999 V2000
   64.1370   32.5840   47.3200 N   0  0  0  0  0  0  0  0  0  0  0  0
   63.2720   33.5480   46.7330 C   0  0  0  0  0  0  0  0  0  0  0  0
   63.6300   34.2470   45.7350 O   0  0  0  0  0  0  0  0  0  0  0  0
   61.9210   33.7360   47.3030 C   0  0  0  0  0  0  0  0  0  0  0  0
   61.7320   33.6930   48.6540 C   0  0  0  0  0  0  0  0  0  0  0  0
   60.4460   33.8770   49.1160 C   0  0  0  0  0  0  0  0  0  0  0  0
   59.3840   34.0950   48.2770 C   0  0  0  0  0  0  0  0  0  0  0  0
   59.5510   34.1430   46.9100 C   0  0  0  0  0  0  0  0  0  0  0  0
   58.3740   34.2480   46.0980 C   0  0  0  0  0  0  0  0  0  0  0  0
   58.2560   34.0630   44.8190 C   0  0  0  0  0  0  0  0  0  0  0  0
   57.8750   32.8680   44.1240 C   0  0  0  0  0  0  0  0  0  0  0  0
   57.1270   31.9370   44.8350 C   0  0  0  0  0  0  0  0  0  0  0  0
   56.6200   30.8220   44.2280 C   0  0  0  0  0  0  0  0  0  0  0  0
   55.9620   30.0210   44.9000 O   0  0  0  0  0  0  0  0  0  0  0  0
   56.8340   30.5850   42.8870 C   0  0  0  0  0  0  0  0  0  0  0  0
   56.3890   29.5780   42.2940 O   0  0  0  0  0  0  0  0  0  0  0  0
   57.5580   31.5030   42.2270 N   0  0  0  0  0  0  0  0  0  0  0  0
   58.0530   32.5960   42.8280 N   0  0  0  0  0  0  0  0  0  0  0  0
   60.8450   33.9560   46.4600 C   0  0  0  0  0  0  0  0  0  0  0  0
   64.1600   31.5770   47.0340 H   0  0  0  0  0  0  0  0  0  0  0  0
   64.7730   32.9590   48.0840 H   0  0  0  0  0  0  0  0  0  0  0  0
   62.5700   33.5189   49.3449 H   0  0  0  0  0  0  0  0  0  0  0  0
   60.2651   33.8477   50.2006 H   0  0  0  0  0  0  0  0  0  0  0  0
   58.3795   34.2343   48.7031 H   0  0  0  0  0  0  0  0  0  0  0  0
   57.4500   34.5211   46.6287 H   0  0  0  0  0  0  0  0  0  0  0  0
   58.4767   34.9354   44.1864 H   0  0  0  0  0  0  0  0  0  0  0  0
   56.9394   32.1005   45.9065 H   0  0  0  0  0  0  0  0  0  0  0  0
   57.7220   31.3260   41.2110 H   0  0  0  0  0  0  0  0  0  0  0  0
   58.5540   33.2420   42.1860 H   0  0  0  0  0  0  0  0  0  0  0  0
   61.0291   33.9835   45.3759 H   0  0  0  0  0  0  0  0  0  0  0  0
  1  2  1  0
  2  3  2  0
  2  4  1  0
  4  5  2  0
  5  6  1  0
  6  7  2  0
  7  8  1  0
  8  9  1  0
  9 10  2  0
 10 11  1  0
 11 12  2  0
 12 13  1  0
 13 14  2  0
 13 15  1  0
 15 16  2  0
 15 17  1  0
 17 18  1  0
  8 19  2  0
 19  4  1  0
 18 11  1  0
  1 20  1  0
  1 21  1  0
  5 22  1  0
  6 23  1  0
  7 24  1  0
  9 25  1  0
 10 26  1  0
 12 27  1  0
 17 28  1  0
 18 29  1  0
 19 30  1  0
M  END
>  <smiles>  (61) 
NC(=O)c1cccc(C=Cc2cc(=O)c(=O)[nH][nH]2)c1

>  <score_type>  (61) 
oracle

>  <origin>  (61) 
adg

>  <m_score__min__energy>  (61) 
-7.6100000000000003

>  <m_primary>  (61) 
energy

$$$$
61:0
     RDKit          3D

 49 52  0  0  0  0  0  0  0  0999 V2000
   63.0870   33.8150   48.9420 C   0  0  0  0  0  0  0  0  0  0  0  0
   62.7060   33.2730   47.2920 S   0  0  0  0  0  0  0  0  0  0  0  0
   63.4800   34.0940   46.3000 O   0  0  0  0  0  0  0  0  0  0  0  0
   63.0990   31.8300   47.1360 O   0  0  0  0  0  0  0  0  0  0  0  0
   60.9800   33.4620   47.0000 C   0  0  0  0  0  0  0  0  0  0  0  0
   60.3300   34.6490   47.3570 C   0  0  0  0  0  0  0  0  0  0  0  0
   58.9640   34.8000   47.1130 C   0  0  0  0  0  0  0  0  0  0  0  0
   58.2390   33.7690   46.5090 C   0  0  0  0  0  0  0  0  0  0  0  0
   58.8770   32.5720   46.1370 C   0  0  0  0  0  0  0  0  0  0  0  0
   58.1100   31.4800   45.4870 C   0  0  0  0  0  0  0  0  0  0  0  0
   58.1200   30.1450   45.8640 C   0  0  0  0  0  0  0  0  0  0  0  0
   57.2700   29.4900   44.9920 C   0  0  0  0  0  0  0  0  0  0  0  0
   56.9740   28.0460   44.9920 C   0  0  0  0  0  0  0  0  0  0  0  0
   55.9640   27.6260   45.6190 O   0  0  0  0  0  0  0  0  0  0  0  0
   57.7980   27.1270   44.2550 N   0  0  0  0  0  0  0  0  0  0  0  0
   57.7850   25.7020   44.4550 C   0  0  0  0  0  0  0  0  0  0  0  0
   58.3970   25.1640   45.5940 C   0  0  0  0  0  0  0  0  0  0  0  0
   58.3770   23.7860   45.8260 C   0  0  0  0  0  0  0  0  0  0  0  0
   57.7200   22.9270   44.9340 C   0  0  0  0  0  0  0  0  0  0  0  0
   57.1060   23.4580   43.7820 C   0  0  0  0  0  0  0  0  0  0  0  0
   57.1210   24.8430   43.5620 C   0  0  0  0  0  0  0  0  0  0  0  0
   56.3440   22.5680   42.8340 C   0  0  0  0  0  0  0  0  0  0  0  0
   56.7120   21.0910   43.0190 C   0  0  0  0  0  0  0  0  0  0  0  0
   56.7040   20.7240   44.4410 N   0  0  0  0  0  0  0  0  0  0  0  0
   57.7640   21.4350   45.1680 C   0  0  0  0  0  0  0  0  0  0  0  0
   56.7780   30.4450   44.1190 C   0  0  0  0  0  0  0  0  0  0  0  0
   57.2920   31.6490   44.4260 N   0  0  0  0  0  0  0  0  0  0  0  0
   60.2560   32.4310   46.3850 C   0  0  0  0  0  0  0  0  0  0  0  0
   62.6121   33.1394   49.6687 H   0  0  0  0  0  0  0  0  0  0  0  0
   64.1771   33.8039   49.0891 H   0  0  0  0  0  0  0  0  0  0  0  0
   62.7075   34.8369   49.0891 H   0  0  0  0  0  0  0  0  0  0  0  0
   60.8966   35.4642   47.8306 H   0  0  0  0  0  0  0  0  0  0  0  0
   58.4564   35.7336   47.3970 H   0  0  0  0  0  0  0  0  0  0  0  0
   57.1621   33.8946   46.3233 H   0  0  0  0  0  0  0  0  0  0  0  0
   58.6901   29.6971   46.6912 H   0  0  0  0  0  0  0  0  0  0  0  0
   58.3640   27.5010   43.4600 H   0  0  0  0  0  0  0  0  0  0  0  0
   58.8972   25.8311   46.3115 H   0  0  0  0  0  0  0  0  0  0  0  0
   58.8794   23.3732   46.7132 H   0  0  0  0  0  0  0  0  0  0  0  0
   56.6086   25.2609   42.6829 H   0  0  0  0  0  0  0  0  0  0  0  0
   55.2666   22.6921   43.0176 H   0  0  0  0  0  0  0  0  0  0  0  0
   56.6063   22.8594   41.8062 H   0  0  0  0  0  0  0  0  0  0  0  0
   55.9819   20.4677   42.4819 H   0  0  0  0  0  0  0  0  0  0  0  0
   57.7237   20.9277   42.6192 H   0  0  0  0  0  0  0  0  0  0  0  0
   55.7770   20.9790   44.8560 H   0  0  0  0  0  0  0  0  0  0  0  0
   57.6449   21.2423   46.2444 H   0  0  0  0  0  0  0  0  0  0  0  0
   58.7316   21.0652   44.7977 H   0  0  0  0  0  0  0  0  0  0  0  0
   56.0729   30.2485   43.2979 H   0  0  0  0  0  0  0  0  0  0  0  0
   57.0690   32.5420   43.9340 H   0  0  0  0  0  0  0  0  0  0  0  0
   60.7699   31.5032   46.0934 H   0  0  0  0  0  0  0  0  0  0  0  0
  1  2  1  0
  2  3  2  0
  2  4  2  0
  2  5  1  0
  5  6  2  0
  6  7  1  0
  7  8  2  0
  8  9  1  0
  9 10  1  0
 10 11  2  0
 11 12  1  0
 12 13  1  0
 13 14  2  0
 13 15  1  0
 15 16  1  0
 16 17  2  0
 17 18  1  0
 18 19  2  0
 19 20  1  0
 20 21  2  0
 20 22  1  0
 22 23  1  0
 23 24  1  0
 24 25  1  0
 12 26  2  0
 26 27  1  0
  9 28  2  0
 28  5  1  0
 27 10  1  0
 21 16  1  0
 25 19  1  0
  1 29  1  0
  1 30  1  0
  1 31  1  0
  6 32  1  0
  7 33  1  0
  8 34  1  0
 11 35  1  0
 15 36  1  0
 17 37  1  0
 18 38  1  0
 21 39  1  0
 22 40  1  0
 22 41  1  0
 23 42  1  0
 23 43  1  0
 24 44  1  0
 25 45  1  0
 25 46  1  0
 26 47  1  0
 27 48  1  0
 28 49  1  0
M  END
>  <UniqueID>  (62) 
60

>  <SMILES>  (62) 
CS(=O)(=O)c1cccc(-c2cc(C(=O)Nc3ccc4c(c3)CCNC4)c[nH]2)c1

>  <Energy>  (62) 
83.00176409628786

>  <Genealogy>  (62) 
CS(=O)(=O)c1cccc(-c2cc(C(=O)Nc3ccc4c(c3)CCNC4)c[nH]2)c1 (3D coordinates assigned)
CS(=O)(=O)c1cccc(-c2cc(C(=O)Nc3ccc4c(c3)CCNC4)c[nH]2)c1 (nonaromatic ring conformer: 83.00176409628786 kcal/mol)

>  <smiles>  (62) 
CS(=O)(=O)c1cccc(-c2cc(C(=O)Nc3ccc4c(c3)CCNC4)c[nH]2)c1

>  <score_type>  (62) 
oracle

>  <origin>  (62) 
adg

>  <m_score__min__energy>  (62) 
-9

>  <m_primary>  (62) 
energy

$$$$
62:0
     RDKit          3D

 43 46  0  0  0  0  0  0  0  0999 V2000
   59.6210   27.5910   47.9540 O   0  0  0  0  0  0  0  0  0  0  0  0
   58.6770   28.1100   47.2970 C   0  0  0  0  0  0  0  0  0  0  0  0
   57.6650   27.2750   46.7050 N   0  0  0  0  0  0  0  0  0  0  0  0
   57.7100   25.8390   46.7220 C   0  0  0  0  0  0  0  0  0  0  0  0
   58.7870   25.2420   46.9970 O   0  0  0  0  0  0  0  0  0  0  0  0
   56.5150   25.0390   46.3650 C   0  0  0  0  0  0  0  0  0  0  0  0
   56.5760   23.6370   46.4100 C   0  0  0  0  0  0  0  0  0  0  0  0
   55.4620   22.8700   46.0660 C   0  0  0  0  0  0  0  0  0  0  0  0
   54.2820   23.5120   45.6880 C   0  0  0  0  0  0  0  0  0  0  0  0
   53.2680   22.8380   45.3690 O   0  0  0  0  0  0  0  0  0  0  0  0
   54.2250   24.8700   45.6670 N   0  0  0  0  0  0  0  0  0  0  0  0
   55.2940   25.6430   45.9970 C   0  0  0  0  0  0  0  0  0  0  0  0
   55.1500   27.0250   45.9940 O   0  0  0  0  0  0  0  0  0  0  0  0
   58.6100   29.5810   47.1530 C   0  0  0  0  0  0  0  0  0  0  0  0
   59.2890   30.4330   48.0390 C   0  0  0  0  0  0  0  0  0  0  0  0
   59.2010   31.7790   47.8730 N   0  0  0  0  0  0  0  0  0  0  0  0
   58.4580   32.3280   46.8740 C   0  0  0  0  0  0  0  0  0  0  0  0
   58.4220   33.8200   46.7030 C   0  0  0  0  0  0  0  0  0  0  0  0
   59.1270   34.3450   45.4600 C   0  0  0  0  0  0  0  0  0  0  0  0
   59.7730   34.5090   46.8250 C   0  0  0  0  0  0  0  0  0  0  0  0
   57.7930   31.4800   45.9760 C   0  0  0  0  0  0  0  0  0  0  0  0
   57.0470   32.0190   44.9240 O   0  0  0  0  0  0  0  0  0  0  0  0
   57.3890   31.8300   43.5530 C   0  0  0  0  0  0  0  0  0  0  0  0
   56.6400   30.6470   42.9180 C   0  0  0  0  0  0  0  0  0  0  0  0
   55.6730   29.8790   43.8110 C   0  0  0  0  0  0  0  0  0  0  0  0
   57.0110   29.2610   43.4270 C   0  0  0  0  0  0  0  0  0  0  0  0
   57.8850   30.1340   46.1450 N   0  0  0  0  0  0  0  0  0  0  0  0
   56.8710   27.7320   46.2050 H   0  0  0  0  0  0  0  0  0  0  0  0
   57.5077   23.1401   46.7183 H   0  0  0  0  0  0  0  0  0  0  0  0
   55.5135   21.7715   46.0925 H   0  0  0  0  0  0  0  0  0  0  0  0
   59.8877   30.0141   48.8613 H   0  0  0  0  0  0  0  0  0  0  0  0
   57.4282   33.9613   47.1529 H   0  0  0  0  0  0  0  0  0  0  0  0
   59.5535   33.6405   44.7308 H   0  0  0  0  0  0  0  0  0  0  0  0
   58.8548   35.0276   44.6415 H   0  0  0  0  0  0  0  0  0  0  0  0
   60.6674   33.9233   47.0838 H   0  0  0  0  0  0  0  0  0  0  0  0
   60.1622   35.3598   47.4036 H   0  0  0  0  0  0  0  0  0  0  0  0
   57.1384   32.7456   42.9973 H   0  0  0  0  0  0  0  0  0  0  0  0
   58.4656   31.6096   43.5040 H   0  0  0  0  0  0  0  0  0  0  0  0
   56.5686   31.1249   41.9298 H   0  0  0  0  0  0  0  0  0  0  0  0
   55.4969   30.2111   44.8448 H   0  0  0  0  0  0  0  0  0  0  0  0
   54.6209   29.5678   43.7319 H   0  0  0  0  0  0  0  0  0  0  0  0
   57.8011   29.1464   44.1837 H   0  0  0  0  0  0  0  0  0  0  0  0
   57.3252   28.3180   42.9558 H   0  0  0  0  0  0  0  0  0  0  0  0
  1  2  2  0
  2  3  1  0
  3  4  1  0
  4  5  2  0
  4  6  1  0
  6  7  1  0
  7  8  2  0
  8  9  1  0
  9 10  2  0
  9 11  1  0
 11 12  1  0
 12 13  1  0
  2 14  1  0
 14 15  2  0
 15 16  1  0
 16 17  2  0
 17 18  1  0
 18 19  1  0
 19 20  1  0
 17 21  1  0
 21 22  1  0
 22 23  1  0
 23 24  1  0
 24 25  1  0
 25 26  1  0
 21 27  2  0
 12  6  2  0
 27 14  1  0
 20 18  1  0
 26 24  1  0
  3 28  1  0
  7 29  1  0
  8 30  1  0
 15 31  1  0
 18 32  1  0
 19 33  1  0
 19 34  1  0
 20 35  1  0
 20 36  1  0
 23 37  1  0
 23 38  1  0
 24 39  1  0
 25 40  1  0
 25 41  1  0
 26 42  1  0
 26 43  1  0
M  CHG  2  11  -1  13  -1
M  END
>  <UniqueID>  (63) 
61

>  <SMILES>  (63) 
O=C(NC(=O)c1ccc(=O)[n-]c1[O-])c1cnc(C2CC2)c(OCC2CC2)n1

>  <Energy>  (63) 
578.0745031757409

>  <Genealogy>  (63) 
O=C(NC(=O)c1ccc(=O)[n-]c1[O-])c1cnc(C2CC2)c(OCC2CC2)n1 (protonated)
O=C(NC(=O)c1ccc(=O)[n-]c1[O-])c1cnc(C2CC2)c(OCC2CC2)n1 (3D coordinates assigned)
O=C(NC(=O)c1ccc(=O)[n-]c1[O-])c1cnc(C2CC2)c(OCC2CC2)n1 (nonaromatic ring conformer: 578.0745031757409 kcal/mol)

>  <smiles>  (63) 
O=C(NC(=O)c1ccc(=O)[nH]c1O)c1cnc(C2CC2)c(OCC2CC2)n1

>  <score_type>  (63) 
oracle

>  <origin>  (63) 
adg

>  <m_score__min__energy>  (63) 
-14.16

>  <m_primary>  (63) 
energy

$$$$
63:0
     RDKit          3D

 57 60  0  0  0  0  0  0  0  0999 V2000
   59.9020   27.9260   48.2560 O   0  0  0  0  0  0  0  0  0  0  0  0
   59.0490   28.8530   48.2000 C   0  0  0  0  0  0  0  0  0  0  0  0
   58.9440   29.8060   49.2640 N   0  0  0  0  0  0  0  0  0  0  0  0
   59.6170   31.0720   49.3330 C   0  0  0  0  0  0  0  0  0  0  0  0
   58.9650   32.2350   49.7800 C   0  0  0  0  0  0  0  0  0  0  0  0
   59.6660   33.4380   49.8800 C   0  0  0  0  0  0  0  0  0  0  0  0
   61.0200   33.4930   49.5410 C   0  0  0  0  0  0  0  0  0  0  0  0
   61.6860   32.3420   49.0920 C   0  0  0  0  0  0  0  0  0  0  0  0
   63.1240   32.4030   48.7480 C   0  0  0  0  0  0  0  0  0  0  0  0
   63.4570   32.5580   47.5420 O   0  0  0  0  0  0  0  0  0  0  0  0
   64.1500   32.2590   49.7510 N   0  0  0  0  0  0  0  0  0  0  0  0
   65.3530   33.0930   49.7060 C   0  0  0  0  0  0  0  0  0  0  0  0
   66.5680   32.2630   50.1310 C   0  0  0  0  0  0  0  0  0  0  0  0
   66.3350   31.6260   51.3720 O   0  0  0  0  0  0  0  0  0  0  0  0
   65.2860   30.6840   51.2390 C   0  0  0  0  0  0  0  0  0  0  0  0
   63.9640   31.3840   50.9130 C   0  0  0  0  0  0  0  0  0  0  0  0
   60.9800   31.1280   49.0130 C   0  0  0  0  0  0  0  0  0  0  0  0
   58.1640   28.9580   47.0770 N   0  0  0  0  0  0  0  0  0  0  0  0
   58.0800   27.9590   46.0440 C   0  0  0  0  0  0  0  0  0  0  0  0
   57.6980   26.6460   46.3710 C   0  0  0  0  0  0  0  0  0  0  0  0
   57.5560   25.6790   45.3740 C   0  0  0  0  0  0  0  0  0  0  0  0
   57.7790   26.0140   44.0390 C   0  0  0  0  0  0  0  0  0  0  0  0
   58.1530   27.3160   43.6960 C   0  0  0  0  0  0  0  0  0  0  0  0
   58.3190   28.2960   44.6900 C   0  0  0  0  0  0  0  0  0  0  0  0
   58.7360   29.6910   44.2780 C   0  0  0  0  0  0  0  0  0  0  0  0
   57.8440   30.7560   44.8720 C   0  0  0  0  0  0  0  0  0  0  0  0
   56.6410   30.4780   45.1400 O   0  0  0  0  0  0  0  0  0  0  0  0
   58.3610   32.1140   45.1840 C   0  0  0  0  0  0  0  0  0  0  0  0
   59.4410   32.2680   46.0760 C   0  0  0  0  0  0  0  0  0  0  0  0
   59.9340   33.5410   46.3810 C   0  0  0  0  0  0  0  0  0  0  0  0
   59.3620   34.6730   45.7990 C   0  0  0  0  0  0  0  0  0  0  0  0
   58.2970   34.5350   44.9060 C   0  0  0  0  0  0  0  0  0  0  0  0
   57.7970   33.2660   44.5980 C   0  0  0  0  0  0  0  0  0  0  0  0
   57.8997   32.1967   50.0516 H   0  0  0  0  0  0  0  0  0  0  0  0
   59.1504   34.3457   50.2269 H   0  0  0  0  0  0  0  0  0  0  0  0
   61.5672   34.4434   49.6264 H   0  0  0  0  0  0  0  0  0  0  0  0
   65.5032   33.4643   48.6815 H   0  0  0  0  0  0  0  0  0  0  0  0
   65.2337   33.9447   50.3918 H   0  0  0  0  0  0  0  0  0  0  0  0
   66.7675   31.4985   49.3656 H   0  0  0  0  0  0  0  0  0  0  0  0
   67.4325   32.9347   50.2376 H   0  0  0  0  0  0  0  0  0  0  0  0
   65.5320   29.9825   50.4282 H   0  0  0  0  0  0  0  0  0  0  0  0
   65.1738   30.1449   52.1912 H   0  0  0  0  0  0  0  0  0  0  0  0
   63.1959   30.6302   50.6856 H   0  0  0  0  0  0  0  0  0  0  0  0
   63.6430   31.9840   51.7772 H   0  0  0  0  0  0  0  0  0  0  0  0
   61.5031   30.2135   48.6969 H   0  0  0  0  0  0  0  0  0  0  0  0
   57.5960   29.8300   46.9830 H   0  0  0  0  0  0  0  0  0  0  0  0
   57.5094   26.3784   47.4212 H   0  0  0  0  0  0  0  0  0  0  0  0
   57.2679   24.6518   45.6420 H   0  0  0  0  0  0  0  0  0  0  0  0
   57.6603   25.2521   43.2545 H   0  0  0  0  0  0  0  0  0  0  0  0
   58.3188   27.5760   42.6401 H   0  0  0  0  0  0  0  0  0  0  0  0
   59.7682   29.8657   44.6156 H   0  0  0  0  0  0  0  0  0  0  0  0
   58.6544   29.7566   43.1830 H   0  0  0  0  0  0  0  0  0  0  0  0
   59.8999   31.3804   46.5359 H   0  0  0  0  0  0  0  0  0  0  0  0
   60.7750   33.6501   47.0816 H   0  0  0  0  0  0  0  0  0  0  0  0
   59.7495   35.6731   46.0433 H   0  0  0  0  0  0  0  0  0  0  0  0
   57.8501   35.4274   44.4435 H   0  0  0  0  0  0  0  0  0  0  0  0
   56.9580   33.1656   43.8938 H   0  0  0  0  0  0  0  0  0  0  0  0
  1  2  2  0
  2  3  1  0
  3  4  1  0
  4  5  2  0
  5  6  1  0
  6  7  2  0
  7  8  1  0
  8  9  1  0
  9 10  2  0
  9 11  1  0
 11 12  1  0
 12 13  1  0
 13 14  1  0
 14 15  1  0
 15 16  1  0
  8 17  2  0
  2 18  1  0
 18 19  1  0
 19 20  2  0
 20 21  1  0
 21 22  2  0
 22 23  1  0
 23 24  2  0
 24 25  1  0
 25 26  1  0
 26 27  2  0
 26 28  1  0
 28 29  2  0
 29 30  1  0
 30 31  2  0
 31 32  1  0
 32 33  2  0
 17  4  1  0
 24 19  1  0
 33 28  1  0
 16 11  1  0
  5 34  1  0
  6 35  1  0
  7 36  1  0
 12 37  1  0
 12 38  1  0
 13 39  1  0
 13 40  1  0
 15 41  1  0
 15 42  1  0
 16 43  1  0
 16 44  1  0
 17 45  1  0
 18 46  1  0
 20 47  1  0
 21 48  1  0
 22 49  1  0
 23 50  1  0
 25 51  1  0
 25 52  1  0
 29 53  1  0
 30 54  1  0
 31 55  1  0
 32 56  1  0
 33 57  1  0
M  CHG  1   3  -1
M  END
>  <UniqueID>  (64) 
62

>  <SMILES>  (64) 
O=C([N-]c1cccc(C(=O)N2CCOCC2)c1)Nc1ccccc1CC(=O)c1ccccc1

>  <Energy>  (64) 
77.57151448687807

>  <Genealogy>  (64) 
O=C([N-]c1cccc(C(=O)N2CCOCC2)c1)Nc1ccccc1CC(=O)c1ccccc1 (protonated)
O=C([N-]c1cccc(C(=O)N2CCOCC2)c1)Nc1ccccc1CC(=O)c1ccccc1 (3D coordinates assigned)
O=C([N-]c1cccc(C(=O)N2CCOCC2)c1)Nc1ccccc1CC(=O)c1ccccc1 (nonaromatic ring conformer: 77.57151448687807 kcal/mol)

>  <smiles>  (64) 
O=C(Nc1cccc(C(=O)N2CCOCC2)c1)Nc1ccccc1CC(=O)c1ccccc1

>  <score_type>  (64) 
oracle

>  <origin>  (64) 
adg

>  <m_score__min__energy>  (64) 
-11.67

>  <m_primary>  (64) 
energy

$$$$
64:0
     RDKit          3D

 68 71  0  0  0  0  0  0  0  0999 V2000
   54.2020   28.4980   53.9980 C   0  0  0  0  0  0  0  0  0  0  0  0
   54.7010   29.4740   53.2180 C   0  0  0  0  0  0  0  0  0  0  0  0
   53.9570   30.3260   52.3900 C   0  0  0  0  0  0  0  0  0  0  0  0
   52.6140   30.3420   52.2370 C   0  0  0  0  0  0  0  0  0  0  0  0
   51.8800   30.7680   51.0200 C   0  0  0  0  0  0  0  0  0  0  0  0
   51.7550   30.0630   49.8820 N   0  0  0  0  0  0  0  0  0  0  0  0
   51.0200   30.8680   49.0860 C   0  0  0  0  0  0  0  0  0  0  0  0
   50.6980   30.5500   47.9120 O   0  0  0  0  0  0  0  0  0  0  0  0
   50.6640   32.0430   49.6440 N   0  0  0  0  0  0  0  0  0  0  0  0
   51.2160   31.9640   50.8680 C   0  0  0  0  0  0  0  0  0  0  0  0
   51.1190   32.9670   51.8250 O   0  0  0  0  0  0  0  0  0  0  0  0
   54.8800   31.1540   51.7680 C   0  0  0  0  0  0  0  0  0  0  0  0
   56.1270   30.8010   52.2390 C   0  0  0  0  0  0  0  0  0  0  0  0
   57.3740   31.4830   51.8270 C   0  0  0  0  0  0  0  0  0  0  0  0
   57.8280   32.4550   52.4890 O   0  0  0  0  0  0  0  0  0  0  0  0
   58.0690   31.0560   50.6540 N   0  0  0  0  0  0  0  0  0  0  0  0
   58.4470   31.9610   49.5720 C   0  0  0  0  0  0  0  0  0  0  0  0
   58.8840   31.2060   48.3300 C   0  0  0  0  0  0  0  0  0  0  0  0
   59.1820   29.8430   48.5380 C   0  0  0  0  0  0  0  0  0  0  0  0
   59.6310   29.0340   47.5040 C   0  0  0  0  0  0  0  0  0  0  0  0
   59.8130   29.5680   46.2400 C   0  0  0  0  0  0  0  0  0  0  0  0
   59.5110   30.9060   45.9930 C   0  0  0  0  0  0  0  0  0  0  0  0
   58.9890   31.7640   47.0020 C   0  0  0  0  0  0  0  0  0  0  0  0
   58.6440   33.2460   46.6340 C   0  0  0  0  0  0  0  0  0  0  0  0
   57.1140   33.4560   46.7070 C   0  0  0  0  0  0  0  0  0  0  0  0
   59.2870   34.2600   47.6240 C   0  0  0  0  0  0  0  0  0  0  0  0
   59.1780   33.6410   45.2290 C   0  0  0  0  0  0  0  0  0  0  0  0
   56.0270   29.7690   53.1150 N   0  0  0  0  0  0  0  0  0  0  0  0
   57.1500   29.0740   53.7660 C   0  0  0  0  0  0  0  0  0  0  0  0
   58.2010   28.6280   52.7420 C   0  0  0  0  0  0  0  0  0  0  0  0
   59.5630   28.6880   53.3240 N   0  0  0  0  0  0  0  0  0  0  0  0
   60.3610   29.8110   52.7910 C   0  0  0  0  0  0  0  0  0  0  0  0
   60.8700   29.5400   51.3550 C   0  0  0  0  0  0  0  0  0  0  0  0
   60.4950   28.2620   50.8860 O   0  0  0  0  0  0  0  0  0  0  0  0
   60.9550   27.2710   51.7790 C   0  0  0  0  0  0  0  0  0  0  0  0
   60.3000   27.4130   53.1720 C   0  0  0  0  0  0  0  0  0  0  0  0
   54.8781   27.8846   54.6117 H   0  0  0  0  0  0  0  0  0  0  0  0
   53.1179   28.3134   54.0221 H   0  0  0  0  0  0  0  0  0  0  0  0
   52.0098   30.0085   53.0936 H   0  0  0  0  0  0  0  0  0  0  0  0
   51.6260   32.8950   52.6990 H   0  0  0  0  0  0  0  0  0  0  0  0
   54.6585   31.9445   51.0358 H   0  0  0  0  0  0  0  0  0  0  0  0
   57.5830   32.5929   49.3186 H   0  0  0  0  0  0  0  0  0  0  0  0
   59.2956   32.5699   49.9173 H   0  0  0  0  0  0  0  0  0  0  0  0
   59.0556   29.4120   49.5421 H   0  0  0  0  0  0  0  0  0  0  0  0
   59.8419   27.9703   47.6884 H   0  0  0  0  0  0  0  0  0  0  0  0
   60.1974   28.9340   45.4274 H   0  0  0  0  0  0  0  0  0  0  0  0
   59.6816   31.3125   44.9852 H   0  0  0  0  0  0  0  0  0  0  0  0
   56.7997   33.4991   47.7602 H   0  0  0  0  0  0  0  0  0  0  0  0
   56.8490   34.3989   46.2063 H   0  0  0  0  0  0  0  0  0  0  0  0
   56.6048   32.6193   46.2063 H   0  0  0  0  0  0  0  0  0  0  0  0
   59.0852   33.9417   48.6574 H   0  0  0  0  0  0  0  0  0  0  0  0
   60.3737   34.2965   47.4572 H   0  0  0  0  0  0  0  0  0  0  0  0
   58.8567   35.2585   47.4572 H   0  0  0  0  0  0  0  0  0  0  0  0
   60.0578   34.2918   45.3408 H   0  0  0  0  0  0  0  0  0  0  0  0
   59.4612   32.7333   44.6759 H   0  0  0  0  0  0  0  0  0  0  0  0
   58.3930   34.1775   44.6759 H   0  0  0  0  0  0  0  0  0  0  0  0
   57.6216   29.7554   54.4894 H   0  0  0  0  0  0  0  0  0  0  0  0
   56.7574   28.1793   54.2713 H   0  0  0  0  0  0  0  0  0  0  0  0
   57.9866   27.5945   52.4322 H   0  0  0  0  0  0  0  0  0  0  0  0
   58.1581   29.3046   51.8758 H   0  0  0  0  0  0  0  0  0  0  0  0
   59.7353   30.7156   52.7797 H   0  0  0  0  0  0  0  0  0  0  0  0
   61.2392   29.9382   53.4410 H   0  0  0  0  0  0  0  0  0  0  0  0
   60.4501   30.3014   50.6812 H   0  0  0  0  0  0  0  0  0  0  0  0
   61.9690   29.5825   51.3738 H   0  0  0  0  0  0  0  0  0  0  0  0
   60.7110   26.2798   51.3690 H   0  0  0  0  0  0  0  0  0  0  0  0
   62.0422   27.3906   51.8959 H   0  0  0  0  0  0  0  0  0  0  0  0
   59.5971   26.5796   53.3181 H   0  0  0  0  0  0  0  0  0  0  0  0
   61.1040   27.3999   53.9226 H   0  0  0  0  0  0  0  0  0  0  0  0
  1  2  2  0
  2  3  1  0
  3  4  2  3
  4  5  1  0
  5  6  1  0
  6  7  1  0
  7  8  2  0
  7  9  1  0
  9 10  1  0
 10 11  1  0
  3 12  1  0
 12 13  2  0
 13 14  1  0
 14 15  2  0
 14 16  1  0
 16 17  1  0
 17 18  1  0
 18 19  2  0
 19 20  1  0
 20 21  2  0
 21 22  1  0
 22 23  2  0
 23 24  1  0
 24 25  1  0
 24 26  1  0
 24 27  1  0
 13 28  1  0
 28 29  1  0
 29 30  1  0
 30 31  1  0
 31 32  1  0
 32 33  1  0
 33 34  1  0
 34 35  1  0
 35 36  1  0
 28  2  1  0
 36 31  1  0
 10  5  2  0
 23 18  1  0
  1 37  1  0
  1 38  1  0
  4 39  1  0
 11 40  1  0
 12 41  1  0
 17 42  1  0
 17 43  1  0
 19 44  1  0
 20 45  1  0
 21 46  1  0
 22 47  1  0
 25 48  1  0
 25 49  1  0
 25 50  1  0
 26 51  1  0
 26 52  1  0
 26 53  1  0
 27 54  1  0
 27 55  1  0
 27 56  1  0
 29 57  1  0
 29 58  1  0
 30 59  1  0
 30 60  1  0
 32 61  1  0
 32 62  1  0
 33 63  1  0
 33 64  1  0
 35 65  1  0
 35 66  1  0
 36 67  1  0
 36 68  1  0
M  CHG  3   6  -1   9  -1  16  -1
M  END
>  <UniqueID>  (65) 
63

>  <SMILES>  (65) 
C=c1c(=Cc2[n-]c(=O)[n-]c2O)cc(C(=O)[N-]Cc2ccccc2C(C)(C)C)n1CCN1CCOCC1

>  <Energy>  (65) 
165.37441748389102

>  <Genealogy>  (65) 
C=c1c(=Cc2[n-]c(=O)[n-]c2O)cc(C(=O)[N-]Cc2ccccc2C(C)(C)C)n1CCN1CCOCC1 (protonated)
C=c1c(=Cc2[n-]c(=O)[n-]c2O)cc(C(=O)[N-]Cc2ccccc2C(C)(C)C)n1CCN1CCOCC1 (3D coordinates assigned)
C=c1c(=Cc2[n-]c(=O)[n-]c2O)cc(C(=O)[N-]Cc2ccccc2C(C)(C)C)n1CCN1CCOCC1 (nonaromatic ring conformer: 165.37441748389102 kcal/mol)

>  <smiles>  (65) 
C=c1c(=Cc2[nH]c(=O)[nH]c2O)cc(C(=O)NCc2ccccc2C(C)(C)C)n1CCN1CCOCC1

>  <score_type>  (65) 
oracle

>  <origin>  (65) 
adg

>  <m_score__min__energy>  (65) 
-14.01

>  <m_primary>  (65) 
energy

$$$$
65:0
     RDKit          3D

 61 65  0  0  0  0  0  0  0  0999 V2000
   58.5610   30.0860   45.0510 C   0  0  0  0  0  0  0  0  0  0  0  0
   58.5610   29.6420   46.3190 C   0  0  0  0  0  0  0  0  0  0  0  0
   58.4180   28.3100   46.7390 C   0  0  0  0  0  0  0  0  0  0  0  0
   58.0690   27.1980   46.0640 C   0  0  0  0  0  0  0  0  0  0  0  0
   57.3430   26.0450   46.6190 C   0  0  0  0  0  0  0  0  0  0  0  0
   57.9280   24.9450   47.1290 N   0  0  0  0  0  0  0  0  0  0  0  0
   56.8860   24.1170   47.3590 C   0  0  0  0  0  0  0  0  0  0  0  0
   57.0280   22.9710   47.8590 O   0  0  0  0  0  0  0  0  0  0  0  0
   55.6810   24.6090   47.0000 N   0  0  0  0  0  0  0  0  0  0  0  0
   55.9920   25.8240   46.5190 C   0  0  0  0  0  0  0  0  0  0  0  0
   55.0600   26.7080   45.9910 O   0  0  0  0  0  0  0  0  0  0  0  0
   58.6600   28.3060   48.0990 C   0  0  0  0  0  0  0  0  0  0  0  0
   58.8560   29.6180   48.4830 C   0  0  0  0  0  0  0  0  0  0  0  0
   59.0070   30.0410   49.8930 C   0  0  0  0  0  0  0  0  0  0  0  0
   58.1320   29.7520   50.7520 O   0  0  0  0  0  0  0  0  0  0  0  0
   60.1800   30.7470   50.3080 N   0  0  0  0  0  0  0  0  0  0  0  0
   61.3310   29.9990   50.8170 C   0  0  0  0  0  0  0  0  0  0  0  0
   62.6330   30.6900   50.4010 C   0  0  0  0  0  0  0  0  0  0  0  0
   62.5910   32.1390   50.6550 N   0  0  0  0  0  0  0  0  0  0  0  0
   63.8110   32.8980   50.5260 C   0  0  0  0  0  0  0  0  0  0  0  0
   64.7600   32.4430   49.8300 O   0  0  0  0  0  0  0  0  0  0  0  0
   63.9750   34.2410   51.1810 C   0  0  0  0  0  0  0  0  0  0  0  0
   64.0220   34.1990   52.7010 C   0  0  0  0  0  0  0  0  0  0  0  0
   65.2960   34.4390   51.9120 C   0  0  0  0  0  0  0  0  0  0  0  0
   61.3500   32.7730   51.1290 C   0  0  0  0  0  0  0  0  0  0  0  0
   60.1370   32.2100   50.3800 C   0  0  0  0  0  0  0  0  0  0  0  0
   58.8210   30.4330   47.3970 N   0  0  0  0  0  0  0  0  0  0  0  0
   59.0920   31.8830   47.3890 C   0  0  0  0  0  0  0  0  0  0  0  0
   60.5730   32.2140   47.2830 C   0  0  0  0  0  0  0  0  0  0  0  0
   61.5540   31.1980   47.2830 C   0  0  0  0  0  0  0  0  0  0  0  0
   62.9090   31.5150   47.1820 C   0  0  0  0  0  0  0  0  0  0  0  0
   63.3130   32.8430   47.0750 C   0  0  0  0  0  0  0  0  0  0  0  0
   62.3620   33.8630   47.0680 C   0  0  0  0  0  0  0  0  0  0  0  0
   60.9910   33.5660   47.1680 C   0  0  0  0  0  0  0  0  0  0  0  0
   59.9980   34.6980   47.1500 C   0  0  0  0  0  0  0  0  0  0  0  0
   58.6818   31.1596   44.8442 H   0  0  0  0  0  0  0  0  0  0  0  0
   58.4402   29.3759   44.2196 H   0  0  0  0  0  0  0  0  0  0  0  0
   58.3522   27.1473   45.0023 H   0  0  0  0  0  0  0  0  0  0  0  0
   58.6908   27.4227   48.7539 H   0  0  0  0  0  0  0  0  0  0  0  0
   61.2783   29.9527   51.9148 H   0  0  0  0  0  0  0  0  0  0  0  0
   61.3133   28.9819   50.3984 H   0  0  0  0  0  0  0  0  0  0  0  0
   63.4656   30.2529   50.9718 H   0  0  0  0  0  0  0  0  0  0  0  0
   62.7696   30.5373   49.3203 H   0  0  0  0  0  0  0  0  0  0  0  0
   63.4071   34.8101   50.4303 H   0  0  0  0  0  0  0  0  0  0  0  0
   63.5765   35.0161   53.2874 H   0  0  0  0  0  0  0  0  0  0  0  0
   63.7078   33.4762   53.4684 H   0  0  0  0  0  0  0  0  0  0  0  0
   65.7733   35.4300   51.9265 H   0  0  0  0  0  0  0  0  0  0  0  0
   66.2865   33.9623   51.8708 H   0  0  0  0  0  0  0  0  0  0  0  0
   61.2327   32.5783   52.2053 H   0  0  0  0  0  0  0  0  0  0  0  0
   61.4110   33.8554   50.9428 H   0  0  0  0  0  0  0  0  0  0  0  0
   59.2199   32.5149   50.9052 H   0  0  0  0  0  0  0  0  0  0  0  0
   60.1516   32.6060   49.3538 H   0  0  0  0  0  0  0  0  0  0  0  0
   58.5709   32.3316   46.5303 H   0  0  0  0  0  0  0  0  0  0  0  0
   58.7336   32.2884   48.3467 H   0  0  0  0  0  0  0  0  0  0  0  0
   61.2464   30.1450   47.3635 H   0  0  0  0  0  0  0  0  0  0  0  0
   63.6612   30.7124   47.1869 H   0  0  0  0  0  0  0  0  0  0  0  0
   64.3825   33.0878   46.9960 H   0  0  0  0  0  0  0  0  0  0  0  0
   62.6875   34.9103   46.9834 H   0  0  0  0  0  0  0  0  0  0  0  0
   59.7481   34.9829   48.1826 H   0  0  0  0  0  0  0  0  0  0  0  0
   60.4355   35.5612   46.6271 H   0  0  0  0  0  0  0  0  0  0  0  0
   59.0851   34.3767   46.6271 H   0  0  0  0  0  0  0  0  0  0  0  0
  1  2  2  0
  2  3  1  0
  3  4  2  3
  4  5  1  0
  5  6  1  0
  6  7  1  0
  7  8  2  0
  7  9  1  0
  9 10  1  0
 10 11  1  0
  3 12  1  0
 12 13  2  0
 13 14  1  0
 14 15  2  0
 14 16  1  0
 16 17  1  0
 17 18  1  0
 18 19  1  0
 19 20  1  0
 20 21  2  0
 20 22  1  0
 22 23  1  0
 23 24  1  0
 19 25  1  0
 25 26  1  0
 13 27  1  0
 27 28  1  0
 28 29  1  0
 29 30  2  0
 30 31  1  0
 31 32  2  0
 32 33  1  0
 33 34  2  0
 34 35  1  0
 27  2  1  0
 34 29  1  0
 10  5  2  0
 26 16  1  0
 24 22  1  0
  1 36  1  0
  1 37  1  0
  4 38  1  0
 12 39  1  0
 17 40  1  0
 17 41  1  0
 18 42  1  0
 18 43  1  0
 22 44  1  0
 23 45  1  0
 23 46  1  0
 24 47  1  0
 24 48  1  0
 25 49  1  0
 25 50  1  0
 26 51  1  0
 26 52  1  0
 28 53  1  0
 28 54  1  0
 30 55  1  0
 31 56  1  0
 32 57  1  0
 33 58  1  0
 35 59  1  0
 35 60  1  0
 35 61  1  0
M  CHG  3   6  -1   9  -1  11  -1
M  END
>  <UniqueID>  (66) 
64

>  <SMILES>  (66) 
C=c1c(=Cc2[n-]c(=O)[n-]c2[O-])cc(C(=O)N2CCN(C(=O)C3CC3)CC2)n1Cc1ccccc1C

>  <Energy>  (66) 
407.6914042275152

>  <Genealogy>  (66) 
C=c1c(=Cc2[n-]c(=O)[n-]c2[O-])cc(C(=O)N2CCN(C(=O)C3CC3)CC2)n1Cc1ccccc1C (protonated)
C=c1c(=Cc2[n-]c(=O)[n-]c2[O-])cc(C(=O)N2CCN(C(=O)C3CC3)CC2)n1Cc1ccccc1C (3D coordinates assigned)
C=c1c(=Cc2[n-]c(=O)[n-]c2[O-])cc(C(=O)N2CCN(C(=O)C3CC3)CC2)n1Cc1ccccc1C (nonaromatic ring conformer: 407.6914042275152 kcal/mol)

>  <smiles>  (66) 
C=c1c(=Cc2[nH]c(=O)[nH]c2O)cc(C(=O)N2CCN(C(=O)C3CC3)CC2)n1Cc1ccccc1C

>  <score_type>  (66) 
oracle

>  <origin>  (66) 
adg

>  <m_score__min__energy>  (66) 
-16.789999999999999

>  <m_primary>  (66) 
energy

$$$$
66:0
     RDKit          3D

 46 49  0  0  0  0  0  0  0  0999 V2000
   64.6100   32.2740   46.4310 H   0  0  0  0  0  0  0  0  0  0  0  0
   63.7060   32.7230   46.7020 N   0  0  0  0  0  0  0  0  0  0  0  0
   63.1320   32.4590   47.8320 C   0  0  0  0  0  0  0  0  0  0  0  0
   63.7080   31.5880   48.7040 N   0  0  0  0  0  0  0  0  0  0  0  0
   63.1310   31.2840   49.8960 C   0  0  0  0  0  0  0  0  0  0  0  0
   63.6217   30.5742   50.5781 H   0  0  0  0  0  0  0  0  0  0  0  0
   61.9160   31.8710   50.2570 C   0  0  0  0  0  0  0  0  0  0  0  0
   61.4463   31.6215   51.2199 H   0  0  0  0  0  0  0  0  0  0  0  0
   61.2970   32.7810   49.3850 C   0  0  0  0  0  0  0  0  0  0  0  0
   60.0000   33.4030   49.7450 C   0  0  0  0  0  0  0  0  0  0  0  0
   59.9830   34.5610   50.2450 O   0  0  0  0  0  0  0  0  0  0  0  0
   58.7580   32.6940   49.5420 N   0  0  0  0  0  0  0  0  0  0  0  0
   58.2420   31.9960   50.7340 C   0  0  0  0  0  0  0  0  0  0  0  0
   58.3898   32.6320   51.6193 H   0  0  0  0  0  0  0  0  0  0  0  0
   57.1707   31.7902   50.5923 H   0  0  0  0  0  0  0  0  0  0  0  0
   58.9910   30.6530   50.9380 C   0  0  0  0  0  0  0  0  0  0  0  0
   59.8700   30.8343   51.5740 H   0  0  0  0  0  0  0  0  0  0  0  0
   58.2863   29.9493   51.4052 H   0  0  0  0  0  0  0  0  0  0  0  0
   59.4560   30.0340   49.6350 C   0  0  0  0  0  0  0  0  0  0  0  0
   59.2840   30.6680   48.4060 C   0  0  0  0  0  0  0  0  0  0  0  0
   60.1290   29.7910   47.2400 S   0  0  0  0  0  0  0  0  0  0  0  0
   60.6530   28.6250   48.3380 C   0  0  0  0  0  0  0  0  0  0  0  0
   61.2707   27.7535   48.0755 H   0  0  0  0  0  0  0  0  0  0  0  0
   60.2120   28.9050   49.5850 N   0  0  0  0  0  0  0  0  0  0  0  0
   60.4570   28.3320   50.4240 H   0  0  0  0  0  0  0  0  0  0  0  0
   58.4970   31.9480   48.2910 C   0  0  2  0  0  0  0  0  0  0  0  0
   57.4202   31.7399   48.2067 H   0  0  0  0  0  0  0  0  0  0  0  0
   58.6630   32.7190   46.9700 C   0  0  0  0  0  0  0  0  0  0  0  0
   59.1940   34.0280   46.9060 C   0  0  0  0  0  0  0  0  0  0  0  0
   59.5147   34.5274   47.8321 H   0  0  0  0  0  0  0  0  0  0  0  0
   59.3180   34.6970   45.6870 C   0  0  0  0  0  0  0  0  0  0  0  0
   60.0180   36.3070   45.6380 Cl  0  0  0  0  0  0  0  0  0  0  0  0
   58.8650   34.1020   44.5140 C   0  0  0  0  0  0  0  0  0  0  0  0
   58.9958   34.6157   43.5501 H   0  0  0  0  0  0  0  0  0  0  0  0
   58.2460   32.8560   44.5610 C   0  0  0  0  0  0  0  0  0  0  0  0
   57.8616   32.4037   43.6349 H   0  0  0  0  0  0  0  0  0  0  0  0
   58.1070   32.1690   45.7820 C   0  0  0  0  0  0  0  0  0  0  0  0
   57.3930   30.9580   45.8610 O   0  0  0  0  0  0  0  0  0  0  0  0
   57.4380   29.8960   44.9060 C   0  0  0  0  0  0  0  0  0  0  0  0
   57.4041   30.3216   43.8923 H   0  0  0  0  0  0  0  0  0  0  0  0
   58.3693   29.3296   45.0541 H   0  0  0  0  0  0  0  0  0  0  0  0
   56.2790   28.9660   45.0860 C   0  0  0  0  0  0  0  0  0  0  0  0
   55.1070   29.3660   44.8640 O   0  0  0  0  0  0  0  0  0  0  0  0
   56.4950   27.6490   45.4710 O   0  0  0  0  0  0  0  0  0  0  0  0
   61.9140   33.0690   48.1560 C   0  0  0  0  0  0  0  0  0  0  0  0
   61.4425   33.7703   47.4518 H   0  0  0  0  0  0  0  0  0  0  0  0
  1  2  1  0
  2  3  2  0
  3  4  1  0
  4  5  1  0
  5  6  1  0
  5  7  2  0
  7  8  1  0
  7  9  1  0
  9 10  1  0
 10 11  2  0
 10 12  1  0
 12 13  1  0
 13 14  1  0
 13 15  1  0
 13 16  1  0
 16 17  1  0
 16 18  1  0
 16 19  1  0
 19 20  2  0
 20 21  1  0
 21 22  1  0
 22 23  1  0
 22 24  2  0
 24 25  1  0
 20 26  1  0
 26 27  1  1
 26 28  1  0
 28 29  2  0
 29 30  1  0
 29 31  1  0
 31 32  1  0
 31 33  2  0
 33 34  1  0
 33 35  1  0
 35 36  1  0
 35 37  2  0
 37 38  1  0
 38 39  1  0
 39 40  1  0
 39 41  1  0
 39 42  1  0
 42 43  2  0
 42 44  1  0
  9 45  2  0
 45 46  1  0
 45  3  1  0
 26 12  1  0
 37 28  1  0
 24 19  1  0
M  CHG  3   4  -1  24   1  44  -1
M  END
>  <UniqueID>  (67) 
65

>  <SMILES>  (67) 
[H]/N=c1/cc(C(=O)N2CCc3[nH+]csc3[C@@H]2c2cc(Cl)ccc2OCC(=O)[O-])cc[n-]1

>  <Energy>  (67) 
104.37178790528984

>  <Genealogy>  (67) 
N=c1cc(C(=O)N2CCc3[nH+]csc3C2c2cc(Cl)ccc2OCC(=O)[O-])cc[n-]1 (protonated)
N=c1cc(C(=O)N2CCc3[nH+]csc3[C@@H]2c2cc(Cl)ccc2OCC(=O)[O-])cc[n-]1 (chirality)
[H]/N=c1/cc(C(=O)N2CCc3[nH+]csc3[C@@H]2c2cc(Cl)ccc2OCC(=O)[O-])cc[n-]1 (cis-trans isomerization)
[H]/N=c1/cc(C(=O)N2CCc3[nH+]csc3[C@@H]2c2cc(Cl)ccc2OCC(=O)[O-])cc[n-]1 (3D coordinates assigned)
[H]/N=c1/cc(C(=O)N2CCc3[nH+]csc3[C@@H]2c2cc(Cl)ccc2OCC(=O)[O-])cc[n-]1 (nonaromatic ring conformer: 104.37178790528984 kcal/mol)

>  <smiles>  (67) 
N=c1cc(C(=O)N2CCc3ncsc3C2c2cc(Cl)ccc2OCC(=O)O)cc[nH]1

>  <score_type>  (67) 
oracle

>  <origin>  (67) 
adg

>  <m_score__min__energy>  (67) 
-10.35

>  <m_primary>  (67) 
energy

$$$$
67:0
     RDKit          3D

 68 70  0  0  0  0  0  0  0  0999 V2000
   61.4564   29.8977   45.5772 H   0  0  0  0  0  0  0  0  0  0  0  0
   60.7130   30.0110   46.3800 C   0  0  0  0  0  0  0  0  0  0  0  0
   59.5210   29.4210   46.2170 C   0  0  0  0  0  0  0  0  0  0  0  0
   59.2761   28.5612   46.8580 H   0  0  0  0  0  0  0  0  0  0  0  0
   58.5190   29.8580   45.2280 C   0  0  0  0  0  0  0  0  0  0  0  0
   58.2680   31.2300   45.0570 C   0  0  0  0  0  0  0  0  0  0  0  0
   58.7987   31.9659   45.6789 H   0  0  0  0  0  0  0  0  0  0  0  0
   57.3460   31.6630   44.0990 C   0  0  0  0  0  0  0  0  0  0  0  0
   57.1558   32.7383   43.9664 H   0  0  0  0  0  0  0  0  0  0  0  0
   56.6660   30.7320   43.3100 C   0  0  0  0  0  0  0  0  0  0  0  0
   55.9299   31.0738   42.5675 H   0  0  0  0  0  0  0  0  0  0  0  0
   56.9210   29.3650   43.4640 C   0  0  0  0  0  0  0  0  0  0  0  0
   56.3870   28.6347   42.8384 H   0  0  0  0  0  0  0  0  0  0  0  0
   57.8530   28.9220   44.4110 C   0  0  0  0  0  0  0  0  0  0  0  0
   58.1460   27.0370   44.5970 Br  0  0  0  0  0  0  0  0  0  0  0  0
   61.0970   30.8090   47.5750 C   0  0  0  0  0  0  0  0  0  0  0  0
   60.8240   30.1770   48.9110 C   0  0  0  0  0  0  0  0  0  0  0  0
   60.7150   28.9190   48.9380 O   0  0  0  0  0  0  0  0  0  0  0  0
   60.5560   30.9500   50.1200 N   0  0  0  0  0  0  0  0  0  0  0  0
   61.4030   31.5030   50.3520 H   0  0  0  0  0  0  0  0  0  0  0  0
   59.4490   31.9120   49.8740 C   0  0  0  0  0  0  0  0  0  0  0  0
   59.8821   32.8620   49.5277 H   0  0  0  0  0  0  0  0  0  0  0  0
   58.7857   31.4611   49.1212 H   0  0  0  0  0  0  0  0  0  0  0  0
   58.6010   32.1890   51.1200 C   0  0  0  0  0  0  0  0  0  0  0  0
   59.2306   32.6294   51.9071 H   0  0  0  0  0  0  0  0  0  0  0  0
   57.7923   32.8939   50.8768 H   0  0  0  0  0  0  0  0  0  0  0  0
   58.0370   30.9190   51.5900 N   0  0  0  0  0  0  0  0  0  0  0  0
   56.6760   30.8210   52.0410 C   0  0  0  0  0  0  0  0  0  0  0  0
   55.9830   31.8650   52.1860 O   0  0  0  0  0  0  0  0  0  0  0  0
   56.1300   29.5550   52.3110 O   0  0  0  0  0  0  0  0  0  0  0  0
   54.9680   29.2820   53.1080 C   0  0  0  0  0  0  0  0  0  0  0  0
   53.6880   29.7310   52.3750 C   0  0  0  0  0  0  0  0  0  0  0  0
   52.9184   30.0010   53.1131 H   0  0  0  0  0  0  0  0  0  0  0  0
   53.9135   30.6037   51.7445 H   0  0  0  0  0  0  0  0  0  0  0  0
   53.3189   28.9087   51.7445 H   0  0  0  0  0  0  0  0  0  0  0  0
   55.1100   30.0970   54.4010 C   0  0  0  0  0  0  0  0  0  0  0  0
   54.9940   29.4311   55.2688 H   0  0  0  0  0  0  0  0  0  0  0  0
   56.1037   30.5678   54.4304 H   0  0  0  0  0  0  0  0  0  0  0  0
   54.3341   30.8762   54.4304 H   0  0  0  0  0  0  0  0  0  0  0  0
   54.8930   27.7860   53.4650 C   0  0  0  0  0  0  0  0  0  0  0  0
   54.8872   27.6699   54.5588 H   0  0  0  0  0  0  0  0  0  0  0  0
   53.9721   27.3547   53.0456 H   0  0  0  0  0  0  0  0  0  0  0  0
   55.7661   27.2647   53.0456 H   0  0  0  0  0  0  0  0  0  0  0  0
   58.8680   29.7100   51.5330 C   0  0  0  0  0  0  0  0  0  0  0  0
   58.7692   29.1581   52.4794 H   0  0  0  0  0  0  0  0  0  0  0  0
   58.5302   29.0860   50.6924 H   0  0  0  0  0  0  0  0  0  0  0  0
   60.3450   30.0800   51.3150 C   0  0  0  0  0  0  0  0  0  0  0  0
   60.7084   30.6132   52.2059 H   0  0  0  0  0  0  0  0  0  0  0  0
   60.8978   29.1445   51.1439 H   0  0  0  0  0  0  0  0  0  0  0  0
   61.8130   31.9530   47.3990 C   0  0  0  0  0  0  0  0  0  0  0  0
   61.1740   33.2260   47.2210 N   0  0  0  0  0  0  0  0  0  0  0  0
   61.0990   34.1840   48.3250 C   0  0  0  0  0  0  0  0  0  0  0  0
   61.4206   33.6960   49.2569 H   0  0  0  0  0  0  0  0  0  0  0  0
   61.7572   35.0398   48.1143 H   0  0  0  0  0  0  0  0  0  0  0  0
   59.6490   34.6760   48.4770 C   0  0  0  0  0  0  0  0  0  0  0  0
   59.0644   33.8617   48.9300 H   0  0  0  0  0  0  0  0  0  0  0  0
   59.7108   35.5864   49.0912 H   0  0  0  0  0  0  0  0  0  0  0  0
   58.9850   35.0720   47.2730 O   0  0  0  0  0  0  0  0  0  0  0  0
   59.7380   34.8610   46.0910 C   0  0  0  0  0  0  0  0  0  0  0  0
   59.0766   34.9937   45.2222 H   0  0  0  0  0  0  0  0  0  0  0  0
   60.5628   35.5888   46.0839 H   0  0  0  0  0  0  0  0  0  0  0  0
   60.3520   33.4570   46.0330 C   0  0  0  0  0  0  0  0  0  0  0  0
   59.5474   32.7079   45.9944 H   0  0  0  0  0  0  0  0  0  0  0  0
   60.9807   33.3724   45.1343 H   0  0  0  0  0  0  0  0  0  0  0  0
   63.3100   31.9630   47.5980 C   0  0  0  0  0  0  0  0  0  0  0  0
   63.5368   31.9645   48.6744 H   0  0  0  0  0  0  0  0  0  0  0  0
   63.7478   31.0678   47.1323 H   0  0  0  0  0  0  0  0  0  0  0  0
   63.7358   32.8640   47.1323 H   0  0  0  0  0  0  0  0  0  0  0  0
  1  2  1  0
  2  3  2  0
  3  4  1  0
  3  5  1  0
  5  6  2  0
  6  7  1  0
  6  8  1  0
  8  9  1  0
  8 10  2  0
 10 11  1  0
 10 12  1  0
 12 13  1  0
 12 14  2  0
 14 15  1  0
  2 16  1  0
 16 17  1  0
 17 18  2  0
 17 19  1  0
 19 20  1  0
 19 21  1  0
 21 22  1  0
 21 23  1  0
 21 24  1  0
 24 25  1  0
 24 26  1  0
 24 27  1  0
 27 28  1  0
 28 29  2  0
 28 30  1  0
 30 31  1  0
 31 32  1  0
 32 33  1  0
 32 34  1  0
 32 35  1  0
 31 36  1  0
 36 37  1  0
 36 38  1  0
 36 39  1  0
 31 40  1  0
 40 41  1  0
 40 42  1  0
 40 43  1  0
 27 44  1  0
 44 45  1  0
 44 46  1  0
 44 47  1  0
 47 48  1  0
 47 49  1  0
 16 50  2  0
 50 51  1  0
 51 52  1  0
 52 53  1  0
 52 54  1  0
 52 55  1  0
 55 56  1  0
 55 57  1  0
 55 58  1  0
 58 59  1  0
 59 60  1  0
 59 61  1  0
 59 62  1  0
 62 63  1  0
 62 64  1  0
 50 65  1  0
 65 66  1  0
 65 67  1  0
 65 68  1  0
 14  5  1  0
 47 19  1  0
 62 51  1  0
M  CHG  1  19   1
M  END
>  <UniqueID>  (68) 
66

>  <SMILES>  (68) 
C/C(=C(\C=Cc1ccccc1Br)C(=O)[NH+]1CCN(C(=O)OC(C)(C)C)CC1)N1CCOCC1

>  <Energy>  (68) 
102.99805888221621

>  <Genealogy>  (68) 
CC(=C(C=Cc1ccccc1Br)C(=O)[NH+]1CCN(C(=O)OC(C)(C)C)CC1)N1CCOCC1 (protonated)
C/C(=C(\C=Cc1ccccc1Br)C(=O)[NH+]1CCN(C(=O)OC(C)(C)C)CC1)N1CCOCC1 (cis-trans isomerization)
C/C(=C(\C=Cc1ccccc1Br)C(=O)[NH+]1CCN(C(=O)OC(C)(C)C)CC1)N1CCOCC1 (3D coordinates assigned)
C/C(=C(\C=Cc1ccccc1Br)C(=O)[NH+]1CCN(C(=O)OC(C)(C)C)CC1)N1CCOCC1 (nonaromatic ring conformer: 102.99805888221621 kcal/mol)

>  <smiles>  (68) 
CC(=C(C=Cc1ccccc1Br)C(=O)N1CCN(C(=O)OC(C)(C)C)CC1)N1CCOCC1

>  <score_type>  (68) 
oracle

>  <origin>  (68) 
adg

>  <m_score__min__energy>  (68) 
-7.5800000000000001

>  <m_primary>  (68) 
energy

$$$$
68:0
     RDKit          3D

 45 48  0  0  0  0  0  0  0  0999 V2000
   54.8270   29.6900   43.6900 O   0  0  0  0  0  0  0  0  0  0  0  0
   55.8950   29.7220   44.3600 C   0  0  0  0  0  0  0  0  0  0  0  0
   56.2360   28.6460   45.2430 N   0  0  0  0  0  0  0  0  0  0  0  0
   57.5310   28.3810   45.8000 C   0  0  0  0  0  0  0  0  0  0  0  0
   58.2600   27.2240   45.4690 C   0  0  0  0  0  0  0  0  0  0  0  0
   59.5060   26.9880   46.0580 C   0  0  0  0  0  0  0  0  0  0  0  0
   60.0270   27.8910   46.9870 C   0  0  0  0  0  0  0  0  0  0  0  0
   59.2970   29.0330   47.3430 C   0  0  0  0  0  0  0  0  0  0  0  0
   59.9580   30.1740   48.5120 S   0  0  0  0  0  0  0  0  0  0  0  0
   59.0340   30.2650   49.6940 O   0  0  0  0  0  0  0  0  0  0  0  0
   61.2980   29.6630   48.9650 O   0  0  0  0  0  0  0  0  0  0  0  0
   60.1370   31.7500   47.7670 N   0  0  0  0  0  0  0  0  0  0  0  0
   59.8820   32.8470   48.7270 C   0  0  0  0  0  0  0  0  0  0  0  0
   61.1770   33.4820   49.2630 C   0  0  0  0  0  0  0  0  0  0  0  0
   62.1880   32.5050   49.3730 O   0  0  0  0  0  0  0  0  0  0  0  0
   62.6040   32.0820   48.0850 C   0  0  0  0  0  0  0  0  0  0  0  0
   61.4370   31.8870   47.0880 C   0  0  0  0  0  0  0  0  0  0  0  0
   58.0490   29.2710   46.7490 C   0  0  0  0  0  0  0  0  0  0  0  0
   56.8270   30.8460   44.1950 C   0  0  0  0  0  0  0  0  0  0  0  0
   56.7860   32.0510   44.8700 C   0  0  0  0  0  0  0  0  0  0  0  0
   57.8640   32.7470   44.3590 C   0  0  0  0  0  0  0  0  0  0  0  0
   58.2960   34.1230   44.7610 C   0  0  0  0  0  0  0  0  0  0  0  0
   59.6470   34.1770   45.4550 C   0  0  0  0  0  0  0  0  0  0  0  0
   58.3730   34.3530   46.2620 C   0  0  0  0  0  0  0  0  0  0  0  0
   58.4770   32.0010   43.4700 O   0  0  0  0  0  0  0  0  0  0  0  0
   57.8730   30.8560   43.3480 N   0  0  0  0  0  0  0  0  0  0  0  0
   57.8491   26.5041   44.7459 H   0  0  0  0  0  0  0  0  0  0  0  0
   60.0779   26.0878   45.7886 H   0  0  0  0  0  0  0  0  0  0  0  0
   61.0120   27.7056   47.4401 H   0  0  0  0  0  0  0  0  0  0  0  0
   59.2912   33.6257   48.2223 H   0  0  0  0  0  0  0  0  0  0  0  0
   59.3431   32.4184   49.5848 H   0  0  0  0  0  0  0  0  0  0  0  0
   61.5079   34.2714   48.5720 H   0  0  0  0  0  0  0  0  0  0  0  0
   60.9822   33.9111   50.2570 H   0  0  0  0  0  0  0  0  0  0  0  0
   63.2884   32.8392   47.6749 H   0  0  0  0  0  0  0  0  0  0  0  0
   63.0883   31.1022   48.2090 H   0  0  0  0  0  0  0  0  0  0  0  0
   61.3956   32.7581   46.4175 H   0  0  0  0  0  0  0  0  0  0  0  0
   61.6239   30.9579   46.5296 H   0  0  0  0  0  0  0  0  0  0  0  0
   57.4722   30.1642   47.0309 H   0  0  0  0  0  0  0  0  0  0  0  0
   56.0653   32.3785   45.6337 H   0  0  0  0  0  0  0  0  0  0  0  0
   57.8280   34.6494   43.9161 H   0  0  0  0  0  0  0  0  0  0  0  0
   60.2455   33.2607   45.5652 H   0  0  0  0  0  0  0  0  0  0  0  0
   60.5682   34.7626   45.3188 H   0  0  0  0  0  0  0  0  0  0  0  0
   58.0486   33.5642   46.9566 H   0  0  0  0  0  0  0  0  0  0  0  0
   57.9891   35.1187   46.9522 H   0  0  0  0  0  0  0  0  0  0  0  0
   58.1680   30.0920   42.7020 H   0  0  0  0  0  0  0  0  0  0  0  0
  1  2  2  0
  2  3  1  0
  3  4  1  0
  4  5  2  0
  5  6  1  0
  6  7  2  0
  7  8  1  0
  8  9  1  0
  9 10  2  0
  9 11  2  0
  9 12  1  0
 12 13  1  0
 13 14  1  0
 14 15  1  0
 15 16  1  0
 16 17  1  0
  8 18  2  0
  2 19  1  0
 19 20  1  0
 20 21  2  0
 21 22  1  0
 22 23  1  0
 23 24  1  0
 21 25  1  0
 25 26  1  0
 18  4  1  0
 26 19  2  0
 17 12  1  0
 24 22  1  0
  5 27  1  0
  6 28  1  0
  7 29  1  0
 13 30  1  0
 13 31  1  0
 14 32  1  0
 14 33  1  0
 16 34  1  0
 16 35  1  0
 17 36  1  0
 17 37  1  0
 18 38  1  0
 20 39  1  0
 22 40  1  0
 23 41  1  0
 23 42  1  0
 24 43  1  0
 24 44  1  0
 26 45  1  0
M  CHG  2   3  -1  26   1
M  END
>  <UniqueID>  (69) 
67

>  <SMILES>  (69) 
O=C([N-]c1cccc(S(=O)(=O)N2CCOCC2)c1)c1cc(C2CC2)o[nH+]1

>  <Energy>  (69) 
354.4943603720777

>  <Genealogy>  (69) 
O=C([N-]c1cccc(S(=O)(=O)N2CCOCC2)c1)c1cc(C2CC2)o[nH+]1 (protonated)
O=C([N-]c1cccc(S(=O)(=O)N2CCOCC2)c1)c1cc(C2CC2)o[nH+]1 (3D coordinates assigned)
O=C([N-]c1cccc(S(=O)(=O)N2CCOCC2)c1)c1cc(C2CC2)o[nH+]1 (nonaromatic ring conformer: 354.4943603720777 kcal/mol)

>  <smiles>  (69) 
O=C(Nc1cccc(S(=O)(=O)N2CCOCC2)c1)c1cc(C2CC2)on1

>  <score_type>  (69) 
oracle

>  <origin>  (69) 
adg

>  <m_score__min__energy>  (69) 
-9.5800000000000001

>  <m_primary>  (69) 
energy

$$$$
69:0
     RDKit          3D

 43 45  0  0  0  0  0  0  0  0999 V2000
   58.1880   29.3890   51.2540 O   0  0  0  0  0  0  0  0  0  0  0  0
   57.4220   30.3880   51.2430 C   0  0  0  0  0  0  0  0  0  0  0  0
   56.0960   30.2290   51.6240 O   0  0  0  0  0  0  0  0  0  0  0  0
   57.9160   31.7370   50.9030 C   0  0  0  0  0  0  0  0  0  0  0  0
   58.5760   32.0690   49.7830 C   0  0  0  0  0  0  0  0  0  0  0  0
   58.8840   31.1520   48.6670 C   0  0  0  0  0  0  0  0  0  0  0  0
   59.4440   29.8880   48.8990 C   0  0  0  0  0  0  0  0  0  0  0  0
   59.6900   29.0110   47.8380 C   0  0  0  0  0  0  0  0  0  0  0  0
   60.5710   27.3550   48.2360 Br  0  0  0  0  0  0  0  0  0  0  0  0
   59.3320   29.3770   46.5230 C   0  0  0  0  0  0  0  0  0  0  0  0
   59.6050   28.2320   45.1520 S   0  0  0  0  0  0  0  0  0  0  0  0
   58.4250   27.0160   45.7530 C   0  0  0  0  0  0  0  0  0  0  0  0
   58.8720   25.7890   46.2570 C   0  0  0  0  0  0  0  0  0  0  0  0
   57.9560   24.8430   46.7220 C   0  0  0  0  0  0  0  0  0  0  0  0
   56.5790   25.1080   46.6870 C   0  0  0  0  0  0  0  0  0  0  0  0
   55.6600   24.1150   47.1720 N   0  0  0  0  0  0  0  0  0  0  0  0
   56.0860   22.9150   47.8380 C   0  0  0  0  0  0  0  0  0  0  0  0
   57.2590   22.8410   48.2990 O   0  0  0  0  0  0  0  0  0  0  0  0
   55.1530   21.7790   48.0320 C   0  0  0  0  0  0  0  0  0  0  0  0
   53.9300   21.7180   47.3350 C   0  0  0  0  0  0  0  0  0  0  0  0
   53.0620   20.6380   47.5240 C   0  0  0  0  0  0  0  0  0  0  0  0
   53.4030   19.6080   48.4020 C   0  0  0  0  0  0  0  0  0  0  0  0
   54.6170   19.6500   49.0900 C   0  0  0  0  0  0  0  0  0  0  0  0
   55.4900   20.7270   48.9050 C   0  0  0  0  0  0  0  0  0  0  0  0
   56.1330   26.3660   46.2340 C   0  0  0  0  0  0  0  0  0  0  0  0
   54.7840   26.6990   46.2720 O   0  0  0  0  0  0  0  0  0  0  0  0
   57.0550   27.3090   45.7670 C   0  0  0  0  0  0  0  0  0  0  0  0
   58.7830   30.6550   46.2890 C   0  0  0  0  0  0  0  0  0  0  0  0
   58.3930   31.2930   44.5240 Br  0  0  0  0  0  0  0  0  0  0  0  0
   58.5430   31.5210   47.3610 C   0  0  0  0  0  0  0  0  0  0  0  0
   57.7266   32.5396   51.6310 H   0  0  0  0  0  0  0  0  0  0  0  0
   58.9160   33.1108   49.6881 H   0  0  0  0  0  0  0  0  0  0  0  0
   59.6925   29.5829   49.9262 H   0  0  0  0  0  0  0  0  0  0  0  0
   59.9494   25.5690   46.2869 H   0  0  0  0  0  0  0  0  0  0  0  0
   58.3171   23.8827   47.1188 H   0  0  0  0  0  0  0  0  0  0  0  0
   54.6470   24.3660   47.2050 H   0  0  0  0  0  0  0  0  0  0  0  0
   53.6565   22.5242   46.6384 H   0  0  0  0  0  0  0  0  0  0  0  0
   52.1073   20.6001   46.9789 H   0  0  0  0  0  0  0  0  0  0  0  0
   52.7150   18.7629   48.5519 H   0  0  0  0  0  0  0  0  0  0  0  0
   54.8872   18.8355   49.7781 H   0  0  0  0  0  0  0  0  0  0  0  0
   56.4475   20.7523   49.4459 H   0  0  0  0  0  0  0  0  0  0  0  0
   56.7019   28.2871   45.4084 H   0  0  0  0  0  0  0  0  0  0  0  0
   58.0815   32.5021   47.1754 H   0  0  0  0  0  0  0  0  0  0  0  0
  1  2  2  0
  2  3  1  0
  2  4  1  0
  4  5  2  3
  5  6  1  0
  6  7  2  0
  7  8  1  0
  8  9  1  0
  8 10  2  0
 10 11  1  0
 11 12  1  0
 12 13  2  0
 13 14  1  0
 14 15  2  0
 15 16  1  0
 16 17  1  0
 17 18  2  0
 17 19  1  0
 19 20  2  0
 20 21  1  0
 21 22  2  0
 22 23  1  0
 23 24  2  0
 15 25  1  0
 25 26  1  0
 25 27  2  0
 10 28  1  0
 28 29  1  0
 28 30  2  0
 30  6  1  0
 27 12  1  0
 24 19  1  0
  4 31  1  0
  5 32  1  0
  7 33  1  0
 13 34  1  0
 14 35  1  0
 16 36  1  0
 20 37  1  0
 21 38  1  0
 22 39  1  0
 23 40  1  0
 24 41  1  0
 27 42  1  0
 30 43  1  0
M  CHG  2   3  -1  26  -1
M  END
>  <UniqueID>  (70) 
68

>  <SMILES>  (70) 
O=C([O-])C=Cc1cc(Br)c(Sc2ccc(NC(=O)c3ccccc3)c([O-])c2)c(Br)c1

>  <Energy>  (70) 
59.286209563542386

>  <Genealogy>  (70) 
O=C([O-])C=Cc1cc(Br)c(Sc2ccc(NC(=O)c3ccccc3)c([O-])c2)c(Br)c1 (protonated)
O=C([O-])C=Cc1cc(Br)c(Sc2ccc(NC(=O)c3ccccc3)c([O-])c2)c(Br)c1 (3D coordinates assigned)
O=C([O-])C=Cc1cc(Br)c(Sc2ccc(NC(=O)c3ccccc3)c([O-])c2)c(Br)c1 (optimized conformer: 59.286209563542386 kcal/mol)

>  <smiles>  (70) 
O=C(O)C=Cc1cc(Br)c(Sc2ccc(NC(=O)c3ccccc3)c(O)c2)c(Br)c1

>  <score_type>  (70) 
oracle

>  <origin>  (70) 
adg

>  <m_score__min__energy>  (70) 
-12.82

>  <m_primary>  (70) 
energy

$$$$
70:0
     RDKit          3D

 32 33  0  0  0  0  0  0  0  0999 V2000
   56.5980   30.1770   43.3130 C   0  0  0  0  0  0  0  0  0  0  0  0
   57.2680   30.0740   44.4660 C   0  0  0  0  0  0  0  0  0  0  0  0
   57.7990   31.1400   45.0960 N   0  0  0  0  0  0  0  0  0  0  0  0
   58.3920   30.6790   46.2130 C   0  0  0  0  0  0  0  0  0  0  0  0
   59.1550   31.5410   47.1700 C   0  0  0  0  0  0  0  0  0  0  0  0
   58.9490   32.9800   46.8300 C   0  0  0  0  0  0  0  0  0  0  0  0
   59.9370   33.7640   46.7960 O   0  0  0  0  0  0  0  0  0  0  0  0
   57.6670   33.4330   46.5050 O   0  0  0  0  0  0  0  0  0  0  0  0
   57.4130   34.2660   45.3810 C   0  0  0  0  0  0  0  0  0  0  0  0
   58.2630   29.3060   46.3030 C   0  0  0  0  0  0  0  0  0  0  0  0
   57.5400   28.9090   45.1850 C   0  0  0  0  0  0  0  0  0  0  0  0
   57.1590   27.6530   44.8840 C   0  0  0  0  0  0  0  0  0  0  0  0
   57.2350   26.5260   45.8390 C   0  0  0  0  0  0  0  0  0  0  0  0
   56.0600   25.8900   46.2700 C   0  0  0  0  0  0  0  0  0  0  0  0
   54.8160   26.3370   45.8320 O   0  0  0  0  0  0  0  0  0  0  0  0
   56.1340   24.8390   47.1290 N   0  0  0  0  0  0  0  0  0  0  0  0
   57.3310   24.3780   47.5720 C   0  0  0  0  0  0  0  0  0  0  0  0
   57.3720   23.4070   48.3710 O   0  0  0  0  0  0  0  0  0  0  0  0
   58.4820   24.9570   47.1490 N   0  0  0  0  0  0  0  0  0  0  0  0
   58.4640   26.0090   46.2890 C   0  0  0  0  0  0  0  0  0  0  0  0
   59.5550   26.4980   45.8900 O   0  0  0  0  0  0  0  0  0  0  0  0
   56.1824   29.2771   42.8361 H   0  0  0  0  0  0  0  0  0  0  0  0
   56.4626   31.1616   42.8416 H   0  0  0  0  0  0  0  0  0  0  0  0
   57.7670   32.1360   44.7810 H   0  0  0  0  0  0  0  0  0  0  0  0
   58.7993   31.3532   48.1938 H   0  0  0  0  0  0  0  0  0  0  0  0
   60.2262   31.3012   47.0997 H   0  0  0  0  0  0  0  0  0  0  0  0
   57.1084   35.2650   45.7263 H   0  0  0  0  0  0  0  0  0  0  0  0
   58.3261   34.3507   44.7736 H   0  0  0  0  0  0  0  0  0  0  0  0
   56.6080   33.8268   44.7736 H   0  0  0  0  0  0  0  0  0  0  0  0
   58.6545   28.6572   47.1004 H   0  0  0  0  0  0  0  0  0  0  0  0
   56.7706   27.4545   43.8742 H   0  0  0  0  0  0  0  0  0  0  0  0
   54.0130   26.3290   46.4500 H   0  0  0  0  0  0  0  0  0  0  0  0
  1  2  2  0
  2  3  1  0
  3  4  1  0
  4  5  1  0
  5  6  1  0
  6  7  2  0
  6  8  1  0
  8  9  1  0
  4 10  2  0
 10 11  1  0
 11 12  2  3
 12 13  1  0
 13 14  2  0
 14 15  1  0
 14 16  1  0
 16 17  1  0
 17 18  2  0
 17 19  1  0
 19 20  1  0
 20 21  2  0
 11  2  1  0
 20 13  1  0
  1 22  1  0
  1 23  1  0
  3 24  1  0
  5 25  1  0
  5 26  1  0
  9 27  1  0
  9 28  1  0
  9 29  1  0
 10 30  1  0
 12 31  1  0
 15 32  1  0
M  CHG  2  16  -1  19  -1
M  END
>  <UniqueID>  (71) 
69

>  <SMILES>  (71) 
C=c1[nH]c(CC(=O)OC)cc1=Cc1c(O)[n-]c(=O)[n-]c1=O

>  <Energy>  (71) 
63.7671710805053

>  <Genealogy>  (71) 
C=c1[nH]c(CC(=O)OC)cc1=Cc1c(O)[n-]c(=O)[n-]c1=O (protonated)
C=c1[nH]c(CC(=O)OC)cc1=Cc1c(O)[n-]c(=O)[n-]c1=O (3D coordinates assigned)
C=c1[nH]c(CC(=O)OC)cc1=Cc1c(O)[n-]c(=O)[n-]c1=O (optimized conformer: 63.7671710805053 kcal/mol)

>  <smiles>  (71) 
C=c1[nH]c(CC(=O)OC)cc1=Cc1c(O)[nH]c(=O)[nH]c1=O

>  <score_type>  (71) 
oracle

>  <origin>  (71) 
adg

>  <m_score__min__energy>  (71) 
-11.32

>  <m_primary>  (71) 
energy

$$$$
71:0
     RDKit          3D

 60 62  0  0  0  0  0  0  0  0999 V2000
   56.2520   22.4940   48.5770 C   0  0  0  0  0  0  0  0  0  0  0  0
   56.6930   23.7740   47.8740 C   0  0  0  0  0  0  0  0  0  0  0  0
   55.5660   24.4220   47.2140 N   0  0  0  0  0  0  0  0  0  0  0  0
   55.5680   24.9910   45.8950 C   0  0  0  0  0  0  0  0  0  0  0  0
   54.7470   25.9110   45.6370 O   0  0  0  0  0  0  0  0  0  0  0  0
   56.5350   24.5650   44.8280 C   0  0  0  0  0  0  0  0  0  0  0  0
   57.8850   25.0490   45.1300 N   0  0  0  0  0  0  0  0  0  0  0  0
   58.2410   26.4390   45.2480 C   0  0  0  0  0  0  0  0  0  0  0  0
   59.5430   26.8410   45.6030 C   0  0  0  0  0  0  0  0  0  0  0  0
   59.8500   28.1990   45.7190 C   0  0  0  0  0  0  0  0  0  0  0  0
   58.8750   29.1680   45.4840 C   0  0  0  0  0  0  0  0  0  0  0  0
   57.5720   28.7910   45.1230 C   0  0  0  0  0  0  0  0  0  0  0  0
   56.5500   29.8220   44.8320 C   0  0  0  0  0  0  0  0  0  0  0  0
   55.3500   29.6320   45.1750 O   0  0  0  0  0  0  0  0  0  0  0  0
   56.9260   31.0510   44.1970 N   0  0  0  0  0  0  0  0  0  0  0  0
   57.5810   32.1590   44.8300 C   0  0  0  0  0  0  0  0  0  0  0  0
   57.6760   33.4080   44.2080 C   0  0  0  0  0  0  0  0  0  0  0  0
   58.3550   34.4500   44.8340 C   0  0  0  0  0  0  0  0  0  0  0  0
   58.9720   34.2600   46.0830 C   0  0  0  0  0  0  0  0  0  0  0  0
   59.6420   35.4440   46.7270 C   0  0  0  0  0  0  0  0  0  0  0  0
   58.9550   32.9690   46.6830 C   0  0  0  0  0  0  0  0  0  0  0  0
   59.7550   32.6320   48.2510 S   0  0  0  0  0  0  0  0  0  0  0  0
   59.0080   33.3240   49.3570 O   0  0  0  0  0  0  0  0  0  0  0  0
   59.6770   31.1470   48.4950 O   0  0  0  0  0  0  0  0  0  0  0  0
   61.4200   33.1740   48.3900 N   0  0  0  0  0  0  0  0  0  0  0  0
   62.3020   32.5110   47.4130 C   0  0  0  0  0  0  0  0  0  0  0  0
   63.7000   33.1380   47.4450 C   0  0  0  0  0  0  0  0  0  0  0  0
   64.2770   33.0900   48.8650 C   0  0  0  0  0  0  0  0  0  0  0  0
   63.3150   33.7440   49.8590 C   0  0  0  0  0  0  0  0  0  0  0  0
   61.9280   33.0970   49.7720 C   0  0  0  0  0  0  0  0  0  0  0  0
   58.2130   31.9520   46.0600 C   0  0  0  0  0  0  0  0  0  0  0  0
   57.2660   27.4210   45.0080 C   0  0  0  0  0  0  0  0  0  0  0  0
   56.3017   22.6382   49.6664 H   0  0  0  0  0  0  0  0  0  0  0  0
   55.2190   22.2530   48.2858 H   0  0  0  0  0  0  0  0  0  0  0  0
   56.9173   21.6678   48.2858 H   0  0  0  0  0  0  0  0  0  0  0  0
   57.1200   24.4637   48.6169 H   0  0  0  0  0  0  0  0  0  0  0  0
   57.4436   23.5151   47.1127 H   0  0  0  0  0  0  0  0  0  0  0  0
   56.5494   23.4666   44.7712 H   0  0  0  0  0  0  0  0  0  0  0  0
   56.2125   24.9923   43.8671 H   0  0  0  0  0  0  0  0  0  0  0  0
   58.6260   24.3310   45.2830 H   0  0  0  0  0  0  0  0  0  0  0  0
   60.3196   26.0846   45.7893 H   0  0  0  0  0  0  0  0  0  0  0  0
   60.8687   28.5063   45.9979 H   0  0  0  0  0  0  0  0  0  0  0  0
   59.1285   30.2339   45.5821 H   0  0  0  0  0  0  0  0  0  0  0  0
   57.2136   33.5674   43.2227 H   0  0  0  0  0  0  0  0  0  0  0  0
   58.4094   35.4340   44.3453 H   0  0  0  0  0  0  0  0  0  0  0  0
   59.5867   35.3462   47.8213 H   0  0  0  0  0  0  0  0  0  0  0  0
   60.6962   35.4832   46.4152 H   0  0  0  0  0  0  0  0  0  0  0  0
   59.1328   36.3679   46.4152 H   0  0  0  0  0  0  0  0  0  0  0  0
   62.3783   31.4419   47.6604 H   0  0  0  0  0  0  0  0  0  0  0  0
   61.8774   32.6361   46.4060 H   0  0  0  0  0  0  0  0  0  0  0  0
   64.3623   32.5810   46.7660 H   0  0  0  0  0  0  0  0  0  0  0  0
   63.6266   34.1881   47.1258 H   0  0  0  0  0  0  0  0  0  0  0  0
   64.4382   32.0411   49.1545 H   0  0  0  0  0  0  0  0  0  0  0  0
   65.2299   33.6393   48.8796 H   0  0  0  0  0  0  0  0  0  0  0  0
   63.7087   33.6196   50.8786 H   0  0  0  0  0  0  0  0  0  0  0  0
   63.2241   34.8126   49.6142 H   0  0  0  0  0  0  0  0  0  0  0  0
   61.9987   32.0421   50.0756 H   0  0  0  0  0  0  0  0  0  0  0  0
   61.2377   33.6328   50.4402 H   0  0  0  0  0  0  0  0  0  0  0  0
   58.1272   30.9712   46.5505 H   0  0  0  0  0  0  0  0  0  0  0  0
   56.2477   27.1154   44.7259 H   0  0  0  0  0  0  0  0  0  0  0  0
  1  2  1  0
  2  3  1  0
  3  4  1  0
  4  5  2  0
  4  6  1  0
  6  7  1  0
  7  8  1  0
  8  9  2  0
  9 10  1  0
 10 11  2  0
 11 12  1  0
 12 13  1  0
 13 14  2  0
 13 15  1  0
 15 16  1  0
 16 17  2  0
 17 18  1  0
 18 19  2  0
 19 20  1  0
 19 21  1  0
 21 22  1  0
 22 23  2  0
 22 24  2  0
 22 25  1  0
 25 26  1  0
 26 27  1  0
 27 28  1  0
 28 29  1  0
 29 30  1  0
 21 31  2  0
 12 32  2  0
 32  8  1  0
 31 16  1  0
 30 25  1  0
  1 33  1  0
  1 34  1  0
  1 35  1  0
  2 36  1  0
  2 37  1  0
  6 38  1  0
  6 39  1  0
  7 40  1  0
  9 41  1  0
 10 42  1  0
 11 43  1  0
 17 44  1  0
 18 45  1  0
 20 46  1  0
 20 47  1  0
 20 48  1  0
 26 49  1  0
 26 50  1  0
 27 51  1  0
 27 52  1  0
 28 53  1  0
 28 54  1  0
 29 55  1  0
 29 56  1  0
 30 57  1  0
 30 58  1  0
 31 59  1  0
 32 60  1  0
M  CHG  2   3  -1  15  -1
M  END
>  <UniqueID>  (72) 
70

>  <SMILES>  (72) 
CC[N-]C(=O)CNc1cccc(C(=O)[N-]c2ccc(C)c(S(=O)(=O)N3CCCCC3)c2)c1

>  <Energy>  (72) 
63.926385764044795

>  <Genealogy>  (72) 
CC[N-]C(=O)CNc1cccc(C(=O)[N-]c2ccc(C)c(S(=O)(=O)N3CCCCC3)c2)c1 (protonated)
CC[N-]C(=O)CNc1cccc(C(=O)[N-]c2ccc(C)c(S(=O)(=O)N3CCCCC3)c2)c1 (3D coordinates assigned)
CC[N-]C(=O)CNc1cccc(C(=O)[N-]c2ccc(C)c(S(=O)(=O)N3CCCCC3)c2)c1 (nonaromatic ring conformer: 63.926385764044795 kcal/mol)

>  <smiles>  (72) 
CCNC(=O)CNc1cccc(C(=O)Nc2ccc(C)c(S(=O)(=O)N3CCCCC3)c2)c1

>  <score_type>  (72) 
oracle

>  <origin>  (72) 
adg

>  <m_score__min__energy>  (72) 
-13.1

>  <m_primary>  (72) 
energy

$$$$
72:0
     RDKit          3D

 36 38  0  0  0  0  0  0  0  0999 V2000
   59.4546   34.7981   43.7454 H   0  0  0  0  0  0  0  0  0  0  0  0
   59.0080   34.1350   44.5010 C   0  0  0  0  0  0  0  0  0  0  0  0
   59.5080   34.1280   45.8050 C   0  0  0  0  0  0  0  0  0  0  0  0
   60.3430   34.7902   46.0776 H   0  0  0  0  0  0  0  0  0  0  0  0
   58.9470   33.2790   46.7640 C   0  0  0  0  0  0  0  0  0  0  0  0
   59.6520   33.2460   48.5390 Br  0  0  0  0  0  0  0  0  0  0  0  0
   57.8780   32.4420   46.4200 C   0  0  0  0  0  0  0  0  0  0  0  0
   57.4468   31.7652   47.1723 H   0  0  0  0  0  0  0  0  0  0  0  0
   57.3540   32.4650   45.1130 C   0  0  0  0  0  0  0  0  0  0  0  0
   56.2740   31.6090   44.7090 N   0  0  0  0  0  0  0  0  0  0  0  0
   56.3380   30.1940   44.4990 C   0  0  0  0  0  0  0  0  0  0  0  0
   55.3020   29.4840   44.6120 O   0  0  0  0  0  0  0  0  0  0  0  0
   57.6120   29.6010   44.2000 N   0  0  0  0  0  0  0  0  0  0  0  0
   58.4860   29.0540   45.0050 C   0  0  0  0  0  0  0  0  0  0  0  0
   59.7800   29.5840   45.1910 C   0  0  0  0  0  0  0  0  0  0  0  0
   60.0864   30.4885   44.6451 H   0  0  0  0  0  0  0  0  0  0  0  0
   60.6710   28.9640   46.0650 C   0  0  0  0  0  0  0  0  0  0  0  0
   61.6813   29.3783   46.1976 H   0  0  0  0  0  0  0  0  0  0  0  0
   60.3040   27.8540   46.7540 N   0  0  0  0  0  0  0  0  0  0  0  0
   61.0020   27.4200   47.4010 H   0  0  0  0  0  0  0  0  0  0  0  0
   59.0590   27.3160   46.6260 C   0  0  0  0  0  0  0  0  0  0  0  0
   58.7070   26.1760   47.3630 C   0  0  0  0  0  0  0  0  0  0  0  0
   59.4409   25.7176   48.0422 H   0  0  0  0  0  0  0  0  0  0  0  0
   57.4330   25.6180   47.2420 C   0  0  0  0  0  0  0  0  0  0  0  0
   57.1693   24.7236   47.8255 H   0  0  0  0  0  0  0  0  0  0  0  0
   56.4860   26.1940   46.3780 C   0  0  0  0  0  0  0  0  0  0  0  0
   55.1950   25.6680   46.2230 O   0  0  0  0  0  0  0  0  0  0  0  0
   54.8990   24.4390   45.5670 C   0  0  0  0  0  0  0  0  0  0  0  0
   54.7109   23.6582   46.3186 H   0  0  0  0  0  0  0  0  0  0  0  0
   54.0055   24.5651   44.9378 H   0  0  0  0  0  0  0  0  0  0  0  0
   55.7519   24.1445   44.9378 H   0  0  0  0  0  0  0  0  0  0  0  0
   56.8310   27.3300   45.6390 C   0  0  0  0  0  0  0  0  0  0  0  0
   56.0915   27.7799   44.9602 H   0  0  0  0  0  0  0  0  0  0  0  0
   58.1140   27.9080   45.7510 C   0  0  0  0  0  0  0  0  0  0  0  0
   57.9410   33.3010   44.1540 C   0  0  0  0  0  0  0  0  0  0  0  0
   57.5601   33.3011   43.1221 H   0  0  0  0  0  0  0  0  0  0  0  0
  1  2  1  0
  2  3  2  0
  3  4  1  0
  3  5  1  0
  5  6  1  0
  5  7  2  0
  7  8  1  0
  7  9  1  0
  9 10  1  0
 10 11  1  0
 11 12  2  0
 11 13  1  0
 13 14  2  0
 14 15  1  0
 15 16  1  0
 15 17  2  0
 17 18  1  0
 17 19  1  0
 19 20  1  0
 19 21  1  0
 21 22  2  0
 22 23  1  0
 22 24  1  0
 24 25  1  0
 24 26  2  0
 26 27  1  0
 27 28  1  0
 28 29  1  0
 28 30  1  0
 28 31  1  0
 26 32  1  0
 32 33  1  0
 32 34  2  0
  9 35  2  0
 35 36  1  0
 35  2  1  0
 34 14  1  0
 34 21  1  0
M  CHG  1  10  -1
M  END
>  <UniqueID>  (73) 
71

>  <SMILES>  (73) 
COc1ccc2[nH]cc/c(=N\C(=O)[N-]c3cccc(Br)c3)c2c1

>  <Energy>  (73) 
54.26730261844035

>  <Genealogy>  (73) 
COc1ccc2[nH]ccc(=NC(=O)[N-]c3cccc(Br)c3)c2c1 (protonated)
COc1ccc2[nH]cc/c(=N\C(=O)[N-]c3cccc(Br)c3)c2c1 (cis-trans isomerization)
COc1ccc2[nH]cc/c(=N\C(=O)[N-]c3cccc(Br)c3)c2c1 (3D coordinates assigned)
COc1ccc2[nH]cc/c(=N\C(=O)[N-]c3cccc(Br)c3)c2c1 (optimized conformer: 54.26730261844035 kcal/mol)

>  <smiles>  (73) 
COc1ccc2[nH]ccc(=NC(=O)Nc3cccc(Br)c3)c2c1

>  <score_type>  (73) 
oracle

>  <origin>  (73) 
adg

>  <m_score__min__energy>  (73) 
-10.039999999999999

>  <m_primary>  (73) 
energy

$$$$
73:0
     RDKit          3D

 30 31  0  0  0  0  0  0  0  0999 V2000
   57.7720   32.3370   41.2740 C   0  0  0  0  0  0  0  0  0  0  0  0
   57.8120   32.0270   42.5730 C   0  0  0  0  0  0  0  0  0  0  0  0
   56.8210   31.0810   43.1910 C   0  0  0  0  0  0  0  0  0  0  0  0
   57.4830   30.2240   44.2390 C   0  0  0  0  0  0  0  0  0  0  0  0
   58.3210   30.8010   45.1950 C   0  0  0  0  0  0  0  0  0  0  0  0
   58.9220   30.0120   46.1730 C   0  0  0  0  0  0  0  0  0  0  0  0
   58.7170   28.6190   46.2090 C   0  0  0  0  0  0  0  0  0  0  0  0
   59.1160   27.9660   47.3140 C   0  0  0  0  0  0  0  0  0  0  0  0
   57.9880   27.9970   45.1410 C   0  0  0  0  0  0  0  0  0  0  0  0
   57.9000   26.6600   44.9260 C   0  0  0  0  0  0  0  0  0  0  0  0
   57.2210   25.6790   45.7920 C   0  0  0  0  0  0  0  0  0  0  0  0
   57.8350   24.6320   46.3660 N   0  0  0  0  0  0  0  0  0  0  0  0
   56.8960   24.0710   47.1520 C   0  0  0  0  0  0  0  0  0  0  0  0
   57.1060   23.0430   47.8470 O   0  0  0  0  0  0  0  0  0  0  0  0
   55.7090   24.7150   47.1370 N   0  0  0  0  0  0  0  0  0  0  0  0
   55.9320   25.7350   46.2860 C   0  0  0  0  0  0  0  0  0  0  0  0
   54.9900   26.7140   45.9970 O   0  0  0  0  0  0  0  0  0  0  0  0
   57.3200   28.8330   44.2170 C   0  0  0  0  0  0  0  0  0  0  0  0
   58.5118   33.0329   40.8516 H   0  0  0  0  0  0  0  0  0  0  0  0
   56.9993   31.8963   40.6269 H   0  0  0  0  0  0  0  0  0  0  0  0
   58.5908   32.4760   43.2069 H   0  0  0  0  0  0  0  0  0  0  0  0
   56.0112   31.6609   43.6578 H   0  0  0  0  0  0  0  0  0  0  0  0
   56.4181   30.4274   42.4033 H   0  0  0  0  0  0  0  0  0  0  0  0
   58.5077   31.8849   45.1758 H   0  0  0  0  0  0  0  0  0  0  0  0
   59.5667   30.4842   46.9289 H   0  0  0  0  0  0  0  0  0  0  0  0
   58.9775   26.8774   47.3897 H   0  0  0  0  0  0  0  0  0  0  0  0
   59.5811   28.5202   48.1426 H   0  0  0  0  0  0  0  0  0  0  0  0
   58.3821   26.2704   44.0173 H   0  0  0  0  0  0  0  0  0  0  0  0
   58.8250   24.3240   46.2380 H   0  0  0  0  0  0  0  0  0  0  0  0
   56.6576   28.3810   43.4641 H   0  0  0  0  0  0  0  0  0  0  0  0
  1  2  2  0
  2  3  1  0
  3  4  1  0
  4  5  1  0
  5  6  2  0
  6  7  1  0
  7  8  2  0
  7  9  1  0
  9 10  2  3
 10 11  1  0
 11 12  1  0
 12 13  1  0
 13 14  2  0
 13 15  1  0
 15 16  1  0
 16 17  1  0
  9 18  1  0
 18  4  2  0
 16 11  2  0
  1 19  1  0
  1 20  1  0
  2 21  1  0
  3 22  1  0
  3 23  1  0
  5 24  1  0
  6 25  1  0
  8 26  1  0
  8 27  1  0
 10 28  1  0
 12 29  1  0
 18 30  1  0
M  CHG  2  15  -1  17  -1
M  END
>  <UniqueID>  (74) 
72

>  <SMILES>  (74) 
C=CCc1ccc(=C)c(=Cc2[nH]c(=O)[n-]c2[O-])c1

>  <Energy>  (74) 
78.86440392870595

>  <Genealogy>  (74) 
C=CCc1ccc(=C)c(=Cc2[nH]c(=O)[n-]c2[O-])c1 (protonated)
C=CCc1ccc(=C)c(=Cc2[nH]c(=O)[n-]c2[O-])c1 (3D coordinates assigned)
C=CCc1ccc(=C)c(=Cc2[nH]c(=O)[n-]c2[O-])c1 (optimized conformer: 78.86440392870595 kcal/mol)

>  <smiles>  (74) 
C=CCc1ccc(=C)c(=Cc2[nH]c(=O)[nH]c2O)c1

>  <score_type>  (74) 
oracle

>  <origin>  (74) 
adg

>  <m_score__min__energy>  (74) 
-13.369999999999999

>  <m_primary>  (74) 
energy

$$$$
74:0
     RDKit          3D

 58 61  0  0  0  0  0  0  0  0999 V2000
   54.2750   28.7010   54.0480 C   0  0  0  0  0  0  0  0  0  0  0  0
   54.6620   29.6610   53.1920 C   0  0  0  0  0  0  0  0  0  0  0  0
   53.8000   30.5320   52.5040 C   0  0  0  0  0  0  0  0  0  0  0  0
   52.4690   30.4890   52.3060 C   0  0  0  0  0  0  0  0  0  0  0  0
   51.7790   30.8180   51.0470 C   0  0  0  0  0  0  0  0  0  0  0  0
   51.7910   30.0500   49.9410 N   0  0  0  0  0  0  0  0  0  0  0  0
   51.1540   30.8110   49.0250 C   0  0  0  0  0  0  0  0  0  0  0  0
   50.9510   30.4240   47.8450 O   0  0  0  0  0  0  0  0  0  0  0  0
   50.7620   32.0250   49.4710 N   0  0  0  0  0  0  0  0  0  0  0  0
   51.1780   32.0150   50.7470 C   0  0  0  0  0  0  0  0  0  0  0  0
   51.0150   33.0830   51.6210 O   0  0  0  0  0  0  0  0  0  0  0  0
   54.5940   31.5360   51.9910 C   0  0  0  0  0  0  0  0  0  0  0  0
   55.8980   31.2170   52.3020 C   0  0  0  0  0  0  0  0  0  0  0  0
   57.0430   32.0810   51.9500 C   0  0  0  0  0  0  0  0  0  0  0  0
   57.1410   33.2210   52.4790 O   0  0  0  0  0  0  0  0  0  0  0  0
   57.9950   31.6780   50.9490 N   0  0  0  0  0  0  0  0  0  0  0  0
   58.6010   32.7040   50.0870 C   0  0  0  0  0  0  0  0  0  0  0  0
   59.5320   32.0800   49.0400 C   0  0  0  0  0  0  0  0  0  0  0  0
   58.9140   30.8700   48.4850 N   0  0  0  0  0  0  0  0  0  0  0  0
   58.8140   30.6590   47.0670 C   0  0  0  0  0  0  0  0  0  0  0  0
   59.3180   29.6190   46.5630 O   0  0  0  0  0  0  0  0  0  0  0  0
   58.0600   31.6140   46.1760 C   0  0  1  0  0  0  0  0  0  0  0  0
   58.9840   32.5940   45.4650 C   0  0  0  0  0  0  0  0  0  0  0  0
   58.2660   32.8380   44.1750 C   0  0  0  0  0  0  0  0  0  0  0  0
   57.4650   31.5640   43.9790 C   0  0  0  0  0  0  0  0  0  0  0  0
   57.3000   30.9140   45.2190 O   0  0  0  0  0  0  0  0  0  0  0  0
   58.4150   29.8230   49.3860 C   0  0  0  0  0  0  0  0  0  0  0  0
   58.4450   30.2800   50.8490 C   0  0  0  0  0  0  0  0  0  0  0  0
   55.9580   30.0590   53.0110 N   0  0  0  0  0  0  0  0  0  0  0  0
   57.2130   29.3890   53.4270 C   0  0  0  0  0  0  0  0  0  0  0  0
   57.0690   27.8600   53.4960 C   0  0  0  0  0  0  0  0  0  0  0  0
   57.7770   29.9920   54.7180 C   0  0  0  0  0  0  0  0  0  0  0  0
   55.0272   28.0668   54.5399 H   0  0  0  0  0  0  0  0  0  0  0  0
   53.2058   28.5490   54.2572 H   0  0  0  0  0  0  0  0  0  0  0  0
   51.8435   30.1820   53.1571 H   0  0  0  0  0  0  0  0  0  0  0  0
   54.2514   32.4232   51.4383 H   0  0  0  0  0  0  0  0  0  0  0  0
   57.8011   33.2552   49.5709 H   0  0  0  0  0  0  0  0  0  0  0  0
   59.1962   33.3788   50.7197 H   0  0  0  0  0  0  0  0  0  0  0  0
   59.7092   32.8038   48.2309 H   0  0  0  0  0  0  0  0  0  0  0  0
   60.4879   31.8149   49.5153 H   0  0  0  0  0  0  0  0  0  0  0  0
   57.3902   32.1891   46.8322 H   0  0  0  0  0  0  0  0  0  0  0  0
   59.0949   33.5249   46.0405 H   0  0  0  0  0  0  0  0  0  0  0  0
   60.0077   32.2140   45.3321 H   0  0  0  0  0  0  0  0  0  0  0  0
   57.6036   33.7128   44.2514 H   0  0  0  0  0  0  0  0  0  0  0  0
   58.9450   33.0544   43.3371 H   0  0  0  0  0  0  0  0  0  0  0  0
   56.4780   31.8126   43.5617 H   0  0  0  0  0  0  0  0  0  0  0  0
   58.0006   30.8985   43.2860 H   0  0  0  0  0  0  0  0  0  0  0  0
   57.3791   29.5772   49.1094 H   0  0  0  0  0  0  0  0  0  0  0  0
   59.0663   28.9422   49.2860 H   0  0  0  0  0  0  0  0  0  0  0  0
   57.7782   29.6392   51.4446 H   0  0  0  0  0  0  0  0  0  0  0  0
   59.4740   30.2037   51.2301 H   0  0  0  0  0  0  0  0  0  0  0  0
   57.9561   29.5825   52.6394 H   0  0  0  0  0  0  0  0  0  0  0  0
   57.0390   27.5417   54.5485 H   0  0  0  0  0  0  0  0  0  0  0  0
   56.1383   27.5564   52.9944 H   0  0  0  0  0  0  0  0  0  0  0  0
   57.9267   27.3879   52.9944 H   0  0  0  0  0  0  0  0  0  0  0  0
   57.3151   29.4982   55.5857 H   0  0  0  0  0  0  0  0  0  0  0  0
   58.8663   29.8418   54.7475 H   0  0  0  0  0  0  0  0  0  0  0  0
   57.5544   31.0688   54.7475 H   0  0  0  0  0  0  0  0  0  0  0  0
  1  2  2  0
  2  3  1  0
  3  4  2  3
  4  5  1  0
  5  6  1  0
  6  7  1  0
  7  8  2  0
  7  9  1  0
  9 10  1  0
 10 11  1  0
  3 12  1  0
 12 13  2  0
 13 14  1  0
 14 15  2  0
 14 16  1  0
 16 17  1  0
 17 18  1  0
 18 19  1  0
 19 20  1  0
 20 21  2  0
 20 22  1  0
 22 23  1  0
 23 24  1  0
 24 25  1  0
 25 26  1  0
 19 27  1  0
 27 28  1  0
 13 29  1  0
 29 30  1  0
 30 31  1  0
 30 32  1  0
 29  2  1  0
 10  5  2  0
 28 16  1  0
 26 22  1  0
  1 33  1  0
  1 34  1  0
  4 35  1  0
 12 36  1  0
 17 37  1  0
 17 38  1  0
 18 39  1  0
 18 40  1  0
 22 41  1  1
 23 42  1  0
 23 43  1  0
 24 44  1  0
 24 45  1  0
 25 46  1  0
 25 47  1  0
 27 48  1  0
 27 49  1  0
 28 50  1  0
 28 51  1  0
 30 52  1  0
 31 53  1  0
 31 54  1  0
 31 55  1  0
 32 56  1  0
 32 57  1  0
 32 58  1  0
M  CHG  3   6  -1   9  -1  11  -1
M  END
>  <UniqueID>  (75) 
73

>  <SMILES>  (75) 
C=c1c(=Cc2[n-]c(=O)[n-]c2[O-])cc(C(=O)N2CCN(C(=O)[C@H]3CCCO3)CC2)n1C(C)C

>  <Energy>  (75) 
138.47895398443654

>  <Genealogy>  (75) 
C=c1c(=Cc2[n-]c(=O)[n-]c2[O-])cc(C(=O)N2CCN(C(=O)C3CCCO3)CC2)n1C(C)C (protonated)
C=c1c(=Cc2[n-]c(=O)[n-]c2[O-])cc(C(=O)N2CCN(C(=O)[C@H]3CCCO3)CC2)n1C(C)C (chirality)
C=c1c(=Cc2[n-]c(=O)[n-]c2[O-])cc(C(=O)N2CCN(C(=O)[C@H]3CCCO3)CC2)n1C(C)C (3D coordinates assigned)
C=c1c(=Cc2[n-]c(=O)[n-]c2[O-])cc(C(=O)N2CCN(C(=O)[C@H]3CCCO3)CC2)n1C(C)C (nonaromatic ring conformer: 138.47895398443654 kcal/mol)

>  <smiles>  (75) 
C=c1c(=Cc2[nH]c(=O)[nH]c2O)cc(C(=O)N2CCN(C(=O)C3CCCO3)CC2)n1C(C)C

>  <score_type>  (75) 
oracle

>  <origin>  (75) 
adg

>  <m_score__min__energy>  (75) 
-17.800000000000001

>  <m_primary>  (75) 
energy

$$$$
75:0
     RDKit          3D

 51 53  0  0  0  0  0  0  0  0999 V2000
   59.0710   28.5380   48.4000 C   0  0  0  0  0  0  0  0  0  0  0  0
   59.6930   29.5760   47.8320 C   0  0  0  0  0  0  0  0  0  0  0  0
   60.3190   30.5290   48.5480 N   0  0  0  0  0  0  0  0  0  0  0  0
   60.8110   31.4220   47.6700 C   0  0  0  0  0  0  0  0  0  0  0  0
   61.4870   32.6680   48.0600 C   0  0  0  0  0  0  0  0  0  0  0  0
   62.5640   33.0070   47.4970 O   0  0  0  0  0  0  0  0  0  0  0  0
   60.9090   33.5170   49.0590 N   0  0  0  0  0  0  0  0  0  0  0  0
   61.2240   33.2910   50.4740 C   0  0  0  0  0  0  0  0  0  0  0  0
   59.9430   33.0970   51.2930 C   0  0  0  0  0  0  0  0  0  0  0  0
   59.2800   31.8230   50.9330 N   0  0  0  0  0  0  0  0  0  0  0  0
   57.8180   31.9880   50.8990 C   0  0  0  0  0  0  0  0  0  0  0  0
   59.6370   30.7550   51.8830 C   0  0  0  0  0  0  0  0  0  0  0  0
   60.0200   34.6110   48.6440 C   0  0  0  0  0  0  0  0  0  0  0  0
   59.2450   34.2170   47.4170 C   0  0  0  0  0  0  0  0  0  0  0  0
   58.1280   33.3750   47.5270 C   0  0  0  0  0  0  0  0  0  0  0  0
   57.4670   32.9540   46.3700 C   0  0  0  0  0  0  0  0  0  0  0  0
   57.9100   33.3550   45.1460 N   0  0  0  0  0  0  0  0  0  0  0  0
   58.9930   34.1670   45.0110 C   0  0  0  0  0  0  0  0  0  0  0  0
   59.6820   34.6120   46.1420 C   0  0  0  0  0  0  0  0  0  0  0  0
   60.5150   31.0430   46.3740 C   0  0  0  0  0  0  0  0  0  0  0  0
   59.7790   29.8690   46.4690 C   0  0  0  0  0  0  0  0  0  0  0  0
   59.2620   29.1610   45.4480 C   0  0  0  0  0  0  0  0  0  0  0  0
   57.8790   28.6550   45.4210 C   0  0  0  0  0  0  0  0  0  0  0  0
   57.5390   27.4210   45.8330 N   0  0  0  0  0  0  0  0  0  0  0  0
   56.1980   27.3980   45.6820 C   0  0  0  0  0  0  0  0  0  0  0  0
   55.5030   26.3860   45.9600 O   0  0  0  0  0  0  0  0  0  0  0  0
   55.6590   28.5460   45.2220 N   0  0  0  0  0  0  0  0  0  0  0  0
   56.7310   29.3420   45.0760 C   0  0  0  0  0  0  0  0  0  0  0  0
   56.6380   30.6780   44.6870 O   0  0  0  0  0  0  0  0  0  0  0  0
   58.5732   27.7844   47.7721 H   0  0  0  0  0  0  0  0  0  0  0  0
   59.0569   28.4375   49.4953 H   0  0  0  0  0  0  0  0  0  0  0  0
   60.3980   30.5740   49.5900 H   0  0  0  0  0  0  0  0  0  0  0  0
   61.8498   32.3909   50.5648 H   0  0  0  0  0  0  0  0  0  0  0  0
   61.7596   34.1706   50.8606 H   0  0  0  0  0  0  0  0  0  0  0  0
   60.1973   33.0820   52.3631 H   0  0  0  0  0  0  0  0  0  0  0  0
   59.2551   33.9275   51.0760 H   0  0  0  0  0  0  0  0  0  0  0  0
   57.4299   32.0318   51.9273 H   0  0  0  0  0  0  0  0  0  0  0  0
   57.5664   32.9202   50.3721 H   0  0  0  0  0  0  0  0  0  0  0  0
   57.3649   31.1353   50.3721 H   0  0  0  0  0  0  0  0  0  0  0  0
   59.5138   31.1234   52.9121 H   0  0  0  0  0  0  0  0  0  0  0  0
   58.9800   29.8873   51.7231 H   0  0  0  0  0  0  0  0  0  0  0  0
   60.6837   30.4568   51.7231 H   0  0  0  0  0  0  0  0  0  0  0  0
   59.3176   34.8370   49.4598 H   0  0  0  0  0  0  0  0  0  0  0  0
   60.6281   35.4982   48.4135 H   0  0  0  0  0  0  0  0  0  0  0  0
   57.7753   33.0488   48.5165 H   0  0  0  0  0  0  0  0  0  0  0  0
   56.5876   32.2978   46.4479 H   0  0  0  0  0  0  0  0  0  0  0  0
   59.3271   34.4740   44.0089 H   0  0  0  0  0  0  0  0  0  0  0  0
   60.5596   35.2664   46.0348 H   0  0  0  0  0  0  0  0  0  0  0  0
   60.8047   31.5669   45.4512 H   0  0  0  0  0  0  0  0  0  0  0  0
   59.9091   28.9480   44.5844 H   0  0  0  0  0  0  0  0  0  0  0  0
   57.4370   31.2980   44.7180 H   0  0  0  0  0  0  0  0  0  0  0  0
  1  2  2  0
  2  3  1  0
  3  4  1  0
  4  5  1  0
  5  6  2  0
  5  7  1  0
  7  8  1  0
  8  9  1  0
  9 10  1  0
 10 11  1  0
 10 12  1  0
  7 13  1  0
 13 14  1  0
 14 15  2  0
 15 16  1  0
 16 17  2  0
 17 18  1  0
 18 19  2  0
  4 20  2  0
 20 21  1  0
 21 22  2  3
 22 23  1  0
 23 24  1  0
 24 25  1  0
 25 26  2  0
 25 27  1  0
 27 28  1  0
 28 29  1  0
 21  2  1  0
 28 23  2  0
 19 14  1  0
  1 30  1  0
  1 31  1  0
  3 32  1  0
  8 33  1  0
  8 34  1  0
  9 35  1  0
  9 36  1  0
 11 37  1  0
 11 38  1  0
 11 39  1  0
 12 40  1  0
 12 41  1  0
 12 42  1  0
 13 43  1  0
 13 44  1  0
 15 45  1  0
 16 46  1  0
 18 47  1  0
 19 48  1  0
 20 49  1  0
 22 50  1  0
 29 51  1  0
M  CHG  2  24  -1  27  -1
M  END
>  <UniqueID>  (76) 
74

>  <SMILES>  (76) 
C=c1[nH]c(C(=O)N(CCN(C)C)Cc2ccncc2)cc1=Cc1[n-]c(=O)[n-]c1O

>  <Energy>  (76) 
115.57153253679787

>  <Genealogy>  (76) 
C=c1[nH]c(C(=O)N(CCN(C)C)Cc2ccncc2)cc1=Cc1[n-]c(=O)[n-]c1O (protonated)
C=c1[nH]c(C(=O)N(CCN(C)C)Cc2ccncc2)cc1=Cc1[n-]c(=O)[n-]c1O (3D coordinates assigned)
C=c1[nH]c(C(=O)N(CCN(C)C)Cc2ccncc2)cc1=Cc1[n-]c(=O)[n-]c1O (optimized conformer: 115.57153253679787 kcal/mol)

>  <smiles>  (76) 
C=c1[nH]c(C(=O)N(CCN(C)C)Cc2ccncc2)cc1=Cc1[nH]c(=O)[nH]c1O

>  <score_type>  (76) 
oracle

>  <origin>  (76) 
adg

>  <m_score__min__energy>  (76) 
-12.300000000000001

>  <m_primary>  (76) 
energy

$$$$
76:0
     RDKit          3D

 53 57  0  0  0  0  0  0  0  0999 V2000
   60.1490   33.8400   50.5870 O   0  0  0  0  0  0  0  0  0  0  0  0
   59.6880   33.3320   49.5300 C   0  0  0  0  0  0  0  0  0  0  0  0
   58.9900   34.1800   48.6040 N   0  0  0  0  0  0  0  0  0  0  0  0
   58.9570   34.0410   47.1740 C   0  0  0  0  0  0  0  0  0  0  0  0
   59.5760   35.0190   46.3880 C   0  0  0  0  0  0  0  0  0  0  0  0
   59.5370   34.9320   44.9960 C   0  0  0  0  0  0  0  0  0  0  0  0
   58.8740   33.8700   44.3740 C   0  0  0  0  0  0  0  0  0  0  0  0
   58.2570   32.8670   45.1440 C   0  0  0  0  0  0  0  0  0  0  0  0
   57.5170   31.7490   44.5070 C   0  0  0  0  0  0  0  0  0  0  0  0
   57.6060   31.4200   43.1490 C   0  0  0  0  0  0  0  0  0  0  0  0
   56.5730   30.1280   42.8440 S   0  0  0  0  0  0  0  0  0  0  0  0
   56.0640   30.0420   44.4390 C   0  0  0  0  0  0  0  0  0  0  0  0
   55.2240   29.2140   44.8740 O   0  0  0  0  0  0  0  0  0  0  0  0
   56.6490   30.9740   45.2170 N   0  0  0  0  0  0  0  0  0  0  0  0
   58.3360   32.9460   46.5480 C   0  0  0  0  0  0  0  0  0  0  0  0
   59.8520   31.8770   49.2960 C   0  0  0  0  0  0  0  0  0  0  0  0
   58.8330   30.9740   49.6410 C   0  0  0  0  0  0  0  0  0  0  0  0
   58.9580   29.6150   49.3360 C   0  0  0  0  0  0  0  0  0  0  0  0
   60.1120   29.1370   48.7010 C   0  0  0  0  0  0  0  0  0  0  0  0
   60.2170   27.6910   48.2910 C   0  0  0  0  0  0  0  0  0  0  0  0
   60.3780   27.5630   46.8250 N   0  0  0  0  0  0  0  0  0  0  0  0
   59.6000   28.5530   46.0440 C   0  0  0  0  0  0  0  0  0  0  0  0
   58.0830   28.3660   46.2000 C   0  0  0  0  0  0  0  0  0  0  0  0
   57.6760   26.9190   46.1220 C   0  0  0  0  0  0  0  0  0  0  0  0
   56.3160   26.5970   45.9810 C   0  0  0  0  0  0  0  0  0  0  0  0
   55.9040   25.2620   45.9530 C   0  0  0  0  0  0  0  0  0  0  0  0
   56.8450   24.2370   46.0710 C   0  0  0  0  0  0  0  0  0  0  0  0
   58.1990   24.5430   46.2260 C   0  0  0  0  0  0  0  0  0  0  0  0
   58.6240   25.8830   46.2710 C   0  0  0  0  0  0  0  0  0  0  0  0
   60.1010   26.1900   46.3570 C   0  0  0  0  0  0  0  0  0  0  0  0
   61.1530   30.0300   48.4000 C   0  0  0  0  0  0  0  0  0  0  0  0
   61.0260   31.3890   48.7010 C   0  0  0  0  0  0  0  0  0  0  0  0
   60.0958   35.8603   46.8696 H   0  0  0  0  0  0  0  0  0  0  0  0
   60.0302   35.7025   44.3852 H   0  0  0  0  0  0  0  0  0  0  0  0
   58.8345   33.8182   43.2759 H   0  0  0  0  0  0  0  0  0  0  0  0
   58.2440   31.9219   42.4066 H   0  0  0  0  0  0  0  0  0  0  0  0
   57.9065   32.1410   47.1624 H   0  0  0  0  0  0  0  0  0  0  0  0
   57.9309   31.3381   50.1544 H   0  0  0  0  0  0  0  0  0  0  0  0
   58.1472   28.9185   49.5956 H   0  0  0  0  0  0  0  0  0  0  0  0
   61.0874   27.2387   48.7888 H   0  0  0  0  0  0  0  0  0  0  0  0
   59.2913   27.1758   48.5871 H   0  0  0  0  0  0  0  0  0  0  0  0
   59.8680   29.5628   46.3882 H   0  0  0  0  0  0  0  0  0  0  0  0
   59.8467   28.4084   44.9818 H   0  0  0  0  0  0  0  0  0  0  0  0
   57.7754   28.7681   47.1766 H   0  0  0  0  0  0  0  0  0  0  0  0
   57.5909   28.8996   45.3735 H   0  0  0  0  0  0  0  0  0  0  0  0
   55.5705   27.4009   45.8920 H   0  0  0  0  0  0  0  0  0  0  0  0
   54.8375   25.0183   45.8379 H   0  0  0  0  0  0  0  0  0  0  0  0
   56.5193   23.1867   46.0418 H   0  0  0  0  0  0  0  0  0  0  0  0
   58.9368   23.7318   46.3133 H   0  0  0  0  0  0  0  0  0  0  0  0
   60.5665   25.4804   47.0568 H   0  0  0  0  0  0  0  0  0  0  0  0
   60.5162   26.0978   45.3425 H   0  0  0  0  0  0  0  0  0  0  0  0
   62.0729   29.6582   47.9250 H   0  0  0  0  0  0  0  0  0  0  0  0
   61.8504   32.0798   48.4704 H   0  0  0  0  0  0  0  0  0  0  0  0
  1  2  2  0
  2  3  1  0
  3  4  1  0
  4  5  2  0
  5  6  1  0
  6  7  2  0
  7  8  1  0
  8  9  1  0
  9 10  2  0
 10 11  1  0
 11 12  1  0
 12 13  2  0
 12 14  1  0
  8 15  2  0
  2 16  1  0
 16 17  2  0
 17 18  1  0
 18 19  2  0
 19 20  1  0
 20 21  1  0
 21 22  1  0
 22 23  1  0
 23 24  1  0
 24 25  2  0
 25 26  1  0
 26 27  2  0
 27 28  1  0
 28 29  2  0
 29 30  1  0
 19 31  1  0
 31 32  2  0
 15  4  1  0
 32 16  1  0
 14  9  1  0
 30 21  1  0
 29 24  1  0
  5 33  1  0
  6 34  1  0
  7 35  1  0
 10 36  1  0
 15 37  1  0
 17 38  1  0
 18 39  1  0
 20 40  1  0
 20 41  1  0
 22 42  1  0
 22 43  1  0
 23 44  1  0
 23 45  1  0
 25 46  1  0
 26 47  1  0
 27 48  1  0
 28 49  1  0
 30 50  1  0
 30 51  1  0
 31 52  1  0
 32 53  1  0
M  CHG  2   3  -1  14  -1
M  END
>  <UniqueID>  (77) 
75

>  <SMILES>  (77) 
O=C([N-]c1cccc(-c2csc(=O)[n-]2)c1)c1ccc(CN2CCc3ccccc3C2)cc1

>  <Energy>  (77) 
101.64976770462087

>  <Genealogy>  (77) 
O=C([N-]c1cccc(-c2csc(=O)[n-]2)c1)c1ccc(CN2CCc3ccccc3C2)cc1 (protonated)
O=C([N-]c1cccc(-c2csc(=O)[n-]2)c1)c1ccc(CN2CCc3ccccc3C2)cc1 (3D coordinates assigned)
O=C([N-]c1cccc(-c2csc(=O)[n-]2)c1)c1ccc(CN2CCc3ccccc3C2)cc1 (nonaromatic ring conformer: 101.64976770462087 kcal/mol)

>  <smiles>  (77) 
O=C(Nc1cccc(-c2csc(=O)[nH]2)c1)c1ccc(CN2CCc3ccccc3C2)cc1

>  <score_type>  (77) 
oracle

>  <origin>  (77) 
adg

>  <m_score__min__energy>  (77) 
-12.92

>  <m_primary>  (77) 
energy

$$$$
77:0
     RDKit          3D

 48 50  0  0  0  0  0  0  0  0999 V2000
   57.0440   25.1470   44.8060 C   0  0  0  0  0  0  0  0  0  0  0  0
   56.0970   25.8100   45.7480 C   0  0  0  0  0  0  0  0  0  0  0  0
   55.5360   25.1360   46.6540 O   0  0  0  0  0  0  0  0  0  0  0  0
   55.8510   27.2120   45.6280 N   0  0  0  0  0  0  0  0  0  0  0  0
   57.1090   28.3480   45.2740 S   0  0  0  0  0  0  0  0  0  0  0  0
   57.6990   28.0370   43.9280 O   0  0  0  0  0  0  0  0  0  0  0  0
   56.5280   29.7340   45.2430 O   0  0  0  0  0  0  0  0  0  0  0  0
   58.3660   28.2200   46.4990 C   0  0  0  0  0  0  0  0  0  0  0  0
   59.2350   27.1220   46.4850 C   0  0  0  0  0  0  0  0  0  0  0  0
   60.2040   26.9810   47.4810 C   0  0  0  0  0  0  0  0  0  0  0  0
   60.3130   27.9310   48.4990 C   0  0  0  0  0  0  0  0  0  0  0  0
   61.2770   27.7560   49.4880 O   0  0  0  0  0  0  0  0  0  0  0  0
   59.4540   29.0480   48.5160 C   0  0  0  0  0  0  0  0  0  0  0  0
   59.4980   30.0580   49.6360 C   0  0  0  0  0  0  0  0  0  0  0  0
   59.6830   31.4110   49.0870 N   0  0  0  0  0  0  0  0  0  0  0  0
   58.6210   32.3870   49.1380 C   0  0  0  0  0  0  0  0  0  0  0  0
   57.7560   32.3230   50.0540 O   0  0  0  0  0  0  0  0  0  0  0  0
   58.5220   33.4020   48.1290 N   0  0  0  0  0  0  0  0  0  0  0  0
   58.2900   33.1970   46.7280 C   0  0  0  0  0  0  0  0  0  0  0  0
   57.6900   34.1810   45.9180 C   0  0  0  0  0  0  0  0  0  0  0  0
   57.5080   33.9500   44.5490 C   0  0  0  0  0  0  0  0  0  0  0  0
   57.9320   32.7470   43.9780 C   0  0  0  0  0  0  0  0  0  0  0  0
   58.5490   31.7770   44.7730 C   0  0  0  0  0  0  0  0  0  0  0  0
   58.7310   32.0030   46.1410 C   0  0  0  0  0  0  0  0  0  0  0  0
   60.9810   31.7910   48.5940 C   0  0  0  0  0  0  0  0  0  0  0  0
   61.5940   32.9780   49.0220 C   0  0  0  0  0  0  0  0  0  0  0  0
   62.8380   33.3460   48.5060 C   0  0  0  0  0  0  0  0  0  0  0  0
   63.4570   32.5240   47.5630 C   0  0  0  0  0  0  0  0  0  0  0  0
   62.8500   31.3790   47.1520 N   0  0  0  0  0  0  0  0  0  0  0  0
   61.6370   31.0010   47.6370 C   0  0  0  0  0  0  0  0  0  0  0  0
   58.4810   29.1830   47.5110 C   0  0  0  0  0  0  0  0  0  0  0  0
   57.8135   24.6083   45.3783 H   0  0  0  0  0  0  0  0  0  0  0  0
   56.4934   24.4361   44.1724 H   0  0  0  0  0  0  0  0  0  0  0  0
   57.5236   25.9076   44.1724 H   0  0  0  0  0  0  0  0  0  0  0  0
   59.1543   26.3686   45.6876 H   0  0  0  0  0  0  0  0  0  0  0  0
   60.8849   26.1172   47.4635 H   0  0  0  0  0  0  0  0  0  0  0  0
   58.5536   30.0192   50.1987 H   0  0  0  0  0  0  0  0  0  0  0  0
   60.3399   29.8209   50.3031 H   0  0  0  0  0  0  0  0  0  0  0  0
   57.3637   35.1331   46.3620 H   0  0  0  0  0  0  0  0  0  0  0  0
   57.0303   34.7170   43.9217 H   0  0  0  0  0  0  0  0  0  0  0  0
   57.7803   32.5637   42.9040 H   0  0  0  0  0  0  0  0  0  0  0  0
   58.8920   30.8342   44.3218 H   0  0  0  0  0  0  0  0  0  0  0  0
   59.2234   31.2388   46.7604 H   0  0  0  0  0  0  0  0  0  0  0  0
   61.0947   33.6186   49.7639 H   0  0  0  0  0  0  0  0  0  0  0  0
   63.3253   34.2742   48.8392 H   0  0  0  0  0  0  0  0  0  0  0  0
   64.4382   32.8032   47.1514 H   0  0  0  0  0  0  0  0  0  0  0  0
   61.1683   30.0729   47.2781 H   0  0  0  0  0  0  0  0  0  0  0  0
   57.8048   30.0506   47.5186 H   0  0  0  0  0  0  0  0  0  0  0  0
  1  2  1  0
  2  3  2  0
  2  4  1  0
  4  5  1  0
  5  6  2  0
  5  7  2  0
  5  8  1  0
  8  9  2  0
  9 10  1  0
 10 11  2  0
 11 12  1  0
 11 13  1  0
 13 14  1  0
 14 15  1  0
 15 16  1  0
 16 17  2  0
 16 18  1  0
 18 19  1  0
 19 20  2  0
 20 21  1  0
 21 22  2  0
 22 23  1  0
 23 24  2  0
 15 25  1  0
 25 26  2  0
 26 27  1  0
 27 28  2  0
 28 29  1  0
 29 30  2  0
 13 31  2  0
 31  8  1  0
 24 19  1  0
 30 25  1  0
  1 32  1  0
  1 33  1  0
  1 34  1  0
  9 35  1  0
 10 36  1  0
 14 37  1  0
 14 38  1  0
 20 39  1  0
 21 40  1  0
 22 41  1  0
 23 42  1  0
 24 43  1  0
 26 44  1  0
 27 45  1  0
 28 46  1  0
 30 47  1  0
 31 48  1  0
M  CHG  3   4  -1  12  -1  18  -1
M  END
>  <UniqueID>  (78) 
76

>  <SMILES>  (78) 
CC(=O)[N-]S(=O)(=O)c1ccc([O-])c(CN(C(=O)[N-]c2ccccc2)c2cccnc2)c1

>  <Energy>  (78) 
60.14745255870095

>  <Genealogy>  (78) 
CC(=O)[N-]S(=O)(=O)c1ccc([O-])c(CN(C(=O)[N-]c2ccccc2)c2cccnc2)c1 (protonated)
CC(=O)[N-]S(=O)(=O)c1ccc([O-])c(CN(C(=O)[N-]c2ccccc2)c2cccnc2)c1 (3D coordinates assigned)
CC(=O)[N-]S(=O)(=O)c1ccc([O-])c(CN(C(=O)[N-]c2ccccc2)c2cccnc2)c1 (optimized conformer: 60.14745255870095 kcal/mol)

>  <smiles>  (78) 
CC(=O)NS(=O)(=O)c1ccc(O)c(CN(C(=O)Nc2ccccc2)c2cccnc2)c1

>  <score_type>  (78) 
oracle

>  <origin>  (78) 
adg

>  <m_score__min__energy>  (78) 
-12.99

>  <m_primary>  (78) 
energy

$$$$
78:0
     RDKit          3D

 54 57  0  0  0  0  0  0  0  0999 V2000
   58.1500   26.7580   42.6610 C   0  0  0  0  0  0  0  0  0  0  0  0
   58.2020   27.5850   43.9060 C   0  0  0  0  0  0  0  0  0  0  0  0
   58.8540   27.1090   45.0460 C   0  0  0  0  0  0  0  0  0  0  0  0
   58.8850   27.9170   46.1880 C   0  0  0  0  0  0  0  0  0  0  0  0
   59.5440   27.4220   47.4410 C   0  0  0  0  0  0  0  0  0  0  0  0
   58.2600   29.1280   46.1730 N   0  0  0  0  0  0  0  0  0  0  0  0
   57.6290   29.5780   45.0530 C   0  0  0  0  0  0  0  0  0  0  0  0
   57.0080   30.8320   45.0710 O   0  0  0  0  0  0  0  0  0  0  0  0
   57.1070   31.7790   44.0070 C   0  0  0  0  0  0  0  0  0  0  0  0
   57.7540   33.0880   44.4950 C   0  0  1  0  0  0  0  0  0  0  0  0
   56.8700   33.8210   45.5260 C   0  0  0  0  0  0  0  0  0  0  0  0
   57.7930   33.8600   46.7530 C   0  0  2  0  0  0  0  0  0  0  0  0
   58.9060   34.8920   46.5050 C   0  0  0  0  0  0  0  0  0  0  0  0
   59.7910   34.1510   45.4900 C   0  0  0  0  0  0  0  0  0  0  0  0
   59.0280   32.8250   45.3280 C   0  0  1  0  0  0  0  0  0  0  0  0
   58.4960   32.5960   46.6550 N   0  0  0  0  0  0  0  0  0  0  0  0
   59.2220   31.9830   47.7330 C   0  0  0  0  0  0  0  0  0  0  0  0
   58.7680   30.9380   48.2720 O   0  0  0  0  0  0  0  0  0  0  0  0
   60.4560   32.6140   48.2550 C   0  0  0  0  0  0  0  0  0  0  0  0
   61.5630   32.5910   47.4630 N   0  0  0  0  0  0  0  0  0  0  0  0
   62.7440   33.1530   47.8350 C   0  0  0  0  0  0  0  0  0  0  0  0
   63.9150   33.1070   46.9060 C   0  0  0  0  0  0  0  0  0  0  0  0
   62.8410   33.8070   49.0660 C   0  0  0  0  0  0  0  0  0  0  0  0
   61.7310   33.8460   49.9080 C   0  0  0  0  0  0  0  0  0  0  0  0
   60.5250   33.2380   49.5250 C   0  0  0  0  0  0  0  0  0  0  0  0
   59.3560   33.2670   50.4740 C   0  0  0  0  0  0  0  0  0  0  0  0
   57.6050   28.8050   43.9350 N   0  0  0  0  0  0  0  0  0  0  0  0
   58.0831   25.6936   42.9304 H   0  0  0  0  0  0  0  0  0  0  0  0
   57.2680   27.0424   42.0684 H   0  0  0  0  0  0  0  0  0  0  0  0
   59.0607   26.9297   42.0684 H   0  0  0  0  0  0  0  0  0  0  0  0
   59.3334   26.1190   45.0460 H   0  0  0  0  0  0  0  0  0  0  0  0
   59.0123   27.8214   48.3173 H   0  0  0  0  0  0  0  0  0  0  0  0
   59.5121   26.3227   47.4624 H   0  0  0  0  0  0  0  0  0  0  0  0
   60.5909   27.7589   47.4624 H   0  0  0  0  0  0  0  0  0  0  0  0
   58.2610   29.7280   47.0290 H   0  0  0  0  0  0  0  0  0  0  0  0
   57.7218   31.3521   43.2009 H   0  0  0  0  0  0  0  0  0  0  0  0
   56.0943   32.0029   43.6404 H   0  0  0  0  0  0  0  0  0  0  0  0
   57.9290   33.6554   43.5690 H   0  0  0  0  0  0  0  0  0  0  0  0
   56.6125   34.8347   45.1852 H   0  0  0  0  0  0  0  0  0  0  0  0
   55.9010   33.3343   45.7106 H   0  0  0  0  0  0  0  0  0  0  0  0
   57.2429   34.0648   47.6833 H   0  0  0  0  0  0  0  0  0  0  0  0
   58.5028   35.8238   46.0816 H   0  0  0  0  0  0  0  0  0  0  0  0
   59.4360   35.2073   47.4158 H   0  0  0  0  0  0  0  0  0  0  0  0
   59.8538   34.6974   44.5374 H   0  0  0  0  0  0  0  0  0  0  0  0
   60.8364   34.0306   45.8104 H   0  0  0  0  0  0  0  0  0  0  0  0
   59.6572   32.0351   44.8919 H   0  0  0  0  0  0  0  0  0  0  0  0
   64.8459   33.0704   47.4909 H   0  0  0  0  0  0  0  0  0  0  0  0
   63.8450   32.2109   46.2719 H   0  0  0  0  0  0  0  0  0  0  0  0
   63.9155   34.0058   46.2719 H   0  0  0  0  0  0  0  0  0  0  0  0
   63.7840   34.2863   49.3676 H   0  0  0  0  0  0  0  0  0  0  0  0
   61.8004   34.3569   50.8797 H   0  0  0  0  0  0  0  0  0  0  0  0
   59.7247   33.2579   51.5103 H   0  0  0  0  0  0  0  0  0  0  0  0
   58.7670   34.1800   50.3024 H   0  0  0  0  0  0  0  0  0  0  0  0
   58.7224   32.3843   50.3024 H   0  0  0  0  0  0  0  0  0  0  0  0
  1  2  1  0
  2  3  2  0
  3  4  1  0
  4  5  1  0
  4  6  2  0
  6  7  1  0
  7  8  1  0
  8  9  1  0
  9 10  1  0
 10 11  1  0
 11 12  1  0
 12 13  1  0
 13 14  1  0
 14 15  1  0
 15 16  1  0
 16 17  1  0
 17 18  2  0
 17 19  1  0
 19 20  2  0
 20 21  1  0
 21 22  1  0
 21 23  2  0
 23 24  1  0
 24 25  2  0
 25 26  1  0
  7 27  2  0
 27  2  1  0
 15 10  1  0
 25 19  1  0
 16 12  1  0
  1 28  1  0
  1 29  1  0
  1 30  1  0
  3 31  1  0
  5 32  1  0
  5 33  1  0
  5 34  1  0
  6 35  1  0
  9 36  1  0
  9 37  1  0
 10 38  1  6
 11 39  1  0
 11 40  1  0
 12 41  1  1
 13 42  1  0
 13 43  1  0
 14 44  1  0
 14 45  1  0
 15 46  1  6
 22 47  1  0
 22 48  1  0
 22 49  1  0
 23 50  1  0
 24 51  1  0
 26 52  1  0
 26 53  1  0
 26 54  1  0
M  CHG  1   6   1
M  END
>  <UniqueID>  (79) 
77

>  <SMILES>  (79) 
Cc1cc(C)[nH+]c(OC[C@H]2C[C@@H]3CCC2N3C(=O)c2nc(C)ccc2C)n1

>  <Energy>  (79) 
90.50323150971388

>  <Genealogy>  (79) 
Cc1cc(C)[nH+]c(OCC2CC3CCC2N3C(=O)c2nc(C)ccc2C)n1 (protonated)
Cc1cc(C)[nH+]c(OC[C@H]2C[C@@H]3CCC2N3C(=O)c2nc(C)ccc2C)n1 (chirality)
Cc1cc(C)[nH+]c(OC[C@H]2C[C@@H]3CCC2N3C(=O)c2nc(C)ccc2C)n1 (3D coordinates assigned)
Cc1cc(C)[nH+]c(OC[C@H]2C[C@@H]3CCC2N3C(=O)c2nc(C)ccc2C)n1 (nonaromatic ring conformer: 90.50323150971388 kcal/mol)

>  <smiles>  (79) 
Cc1cc(C)nc(OCC2CC3CCC2N3C(=O)c2nc(C)ccc2C)n1

>  <score_type>  (79) 
oracle

>  <origin>  (79) 
adg

>  <m_score__min__energy>  (79) 
-7.7199999999999998

>  <m_primary>  (79) 
energy

$$$$
79:0
     RDKit          3D

 48 49  0  0  1  0  0  0  0  0999 V2000
   64.0890   33.2540   49.8970 C   0  0  0  0  0  0  0  0  0  0  0  0
   64.1380   32.5320   48.7930 C   0  0  0  0  0  0  0  0  0  0  0  0
   64.0340   33.1820   47.4690 C   0  0  0  0  0  0  0  0  0  0  0  0
   62.8120   32.8290   46.8080 N   0  0  0  0  0  0  0  0  0  0  0  0
   61.6600   33.3250   47.0130 C   0  0  0  0  0  0  0  0  0  0  0  0
   61.1890   33.3150   48.2800 N   0  0  0  0  0  0  0  0  0  0  0  0
   59.9850   33.8120   48.6160 C   0  0  0  0  0  0  0  0  0  0  0  0
   59.4740   33.7950   50.0200 C   0  0  0  0  0  0  0  0  0  0  0  0
   59.2190   34.3480   47.6090 C   0  0  0  0  0  0  0  0  0  0  0  0
   59.7180   34.3510   46.3150 C   0  0  0  0  0  0  0  0  0  0  0  0
   59.0110   34.8460   45.3850 N   0  0  0  0  0  0  0  0  0  0  0  0
   57.7990   34.2450   44.8390 C   0  0  0  0  0  0  0  0  0  0  0  0
   58.2020   32.8220   44.4710 C   0  0  2  0  0  0  0  0  0  0  0  0
   58.1360   32.5400   43.0070 C   0  0  0  0  0  0  0  0  0  0  0  0
   57.1520   31.4800   42.6320 C   0  0  0  0  0  0  0  0  0  0  0  0
   57.1980   30.2350   43.4500 C   0  0  2  0  0  0  0  0  0  0  0  0
   55.7590   29.7360   43.6160 C   0  0  0  0  0  0  0  0  0  0  0  0
   55.5140   29.1810   44.9200 N   0  0  0  0  0  0  0  0  0  0  0  0
   57.6780   30.5010   44.8830 C   0  0  0  0  0  0  0  0  0  0  0  0
   57.2180   31.9060   45.2060 C   0  0  0  0  0  0  0  0  0  0  0  0
   60.9250   33.8490   45.9980 N   0  0  0  0  0  0  0  0  0  0  0  0
   64.1670   32.7638   50.8787 H   0  0  0  0  0  0  0  0  0  0  0  0
   63.9702   34.3458   49.8353 H   0  0  0  0  0  0  0  0  0  0  0  0
   64.2569   31.4404   48.8584 H   0  0  0  0  0  0  0  0  0  0  0  0
   64.0664   34.2734   47.6025 H   0  0  0  0  0  0  0  0  0  0  0  0
   64.8750   32.8397   46.8481 H   0  0  0  0  0  0  0  0  0  0  0  0
   61.7640   32.9100   49.0460 H   0  0  0  0  0  0  0  0  0  0  0  0
   60.3226   33.8232   50.7194 H   0  0  0  0  0  0  0  0  0  0  0  0
   58.8318   34.6723   50.1871 H   0  0  0  0  0  0  0  0  0  0  0  0
   58.8915   32.8770   50.1871 H   0  0  0  0  0  0  0  0  0  0  0  0
   58.2257   34.7681   47.8258 H   0  0  0  0  0  0  0  0  0  0  0  0
   56.9968   34.2382   45.5917 H   0  0  0  0  0  0  0  0  0  0  0  0
   57.4116   34.8037   43.9742 H   0  0  0  0  0  0  0  0  0  0  0  0
   59.2515   32.6599   44.7578 H   0  0  0  0  0  0  0  0  0  0  0  0
   57.8566   33.4692   42.4888 H   0  0  0  0  0  0  0  0  0  0  0  0
   59.1285   32.1694   42.7111 H   0  0  0  0  0  0  0  0  0  0  0  0
   56.1429   31.9079   42.7248 H   0  0  0  0  0  0  0  0  0  0  0  0
   57.4158   31.1754   41.6085 H   0  0  0  0  0  0  0  0  0  0  0  0
   57.8746   29.5319   42.9421 H   0  0  0  0  0  0  0  0  0  0  0  0
   55.0725   30.5808   43.4578 H   0  0  0  0  0  0  0  0  0  0  0  0
   55.5956   28.9373   42.8775 H   0  0  0  0  0  0  0  0  0  0  0  0
   54.9060   29.8200   45.4880 H   0  0  0  0  0  0  0  0  0  0  0  0
   55.1460   28.2200   44.8790 H   0  0  0  0  0  0  0  0  0  0  0  0
   57.2279   29.7788   45.5800 H   0  0  0  0  0  0  0  0  0  0  0  0
   58.7691   30.3962   44.9753 H   0  0  0  0  0  0  0  0  0  0  0  0
   56.1923   32.0702   44.8441 H   0  0  0  0  0  0  0  0  0  0  0  0
   57.2034   32.0982   46.2890 H   0  0  0  0  0  0  0  0  0  0  0  0
   61.2790   33.8620   45.0190 H   0  0  0  0  0  0  0  0  0  0  0  0
  1  2  2  0
  2  3  1  0
  3  4  1  0
  4  5  2  0
  5  6  1  0
  6  7  1  0
  7  8  1  0
  7  9  2  0
  9 10  1  0
 10 11  2  0
 11 12  1  0
 12 13  1  0
 13 14  1  0
 14 15  1  0
 15 16  1  0
 16 17  1  0
 17 18  1  0
 16 19  1  0
 19 20  1  0
 10 21  1  0
 21  5  1  0
 20 13  1  0
  1 22  1  0
  1 23  1  0
  2 24  1  0
  3 25  1  0
  3 26  1  0
  6 27  1  0
  8 28  1  0
  8 29  1  0
  8 30  1  0
  9 31  1  0
 12 32  1  0
 12 33  1  0
 13 34  1  1
 14 35  1  0
 14 36  1  0
 15 37  1  0
 15 38  1  0
 16 39  1  6
 17 40  1  0
 17 41  1  0
 18 42  1  0
 18 43  1  0
 19 44  1  0
 19 45  1  0
 20 46  1  0
 20 47  1  0
 21 48  1  0
M  END
>  <smiles>  (80) 
C=CCN=c1[nH]c(C)cc(=NCC2CCC(CN)CC2)[nH]1

>  <score_type>  (80) 
oracle

>  <origin>  (80) 
adg

>  <m_score__min__energy>  (80) 
-7.9699999999999998

>  <m_primary>  (80) 
energy

$$$$
80:0
     RDKit          3D

 42 44  0  0  0  0  0  0  0  0999 V2000
   55.6710   31.2690   44.2130 H   0  0  0  0  0  0  0  0  0  0  0  0
   56.6610   31.2520   44.4240 O   0  0  0  0  0  0  0  0  0  0  0  0
   57.2830   30.1060   44.9170 C   0  0  0  0  0  0  0  0  0  0  0  0
   58.6640   30.0900   45.1350 C   0  0  0  0  0  0  0  0  0  0  0  0
   59.2630   30.9852   44.9116 H   0  0  0  0  0  0  0  0  0  0  0  0
   59.2870   28.9460   45.6340 C   0  0  0  0  0  0  0  0  0  0  0  0
   60.3768   28.9415   45.7835 H   0  0  0  0  0  0  0  0  0  0  0  0
   58.5350   27.7950   45.9490 C   0  0  0  0  0  0  0  0  0  0  0  0
   59.1410   26.6260   46.4870 C   0  0  0  0  0  0  0  0  0  0  0  0
   60.5650   26.5700   46.8910 C   0  0  0  0  0  0  0  0  0  0  0  0
   61.4450   26.3750   46.0110 O   0  0  0  0  0  0  0  0  0  0  0  0
   60.9800   26.7370   48.2550 N   0  0  0  0  0  0  0  0  0  0  0  0
   60.5160   27.7450   49.1650 C   0  0  0  0  0  0  0  0  0  0  0  0
   60.6520   27.6020   50.5560 C   0  0  0  0  0  0  0  0  0  0  0  0
   61.1251   26.7001   50.9716 H   0  0  0  0  0  0  0  0  0  0  0  0
   60.1880   28.6020   51.4110 C   0  0  0  0  0  0  0  0  0  0  0  0
   60.2905   28.4825   52.4997 H   0  0  0  0  0  0  0  0  0  0  0  0
   59.5940   29.7540   50.8910 C   0  0  0  0  0  0  0  0  0  0  0  0
   59.2289   30.5366   51.5723 H   0  0  0  0  0  0  0  0  0  0  0  0
   59.4600   29.9190   49.4980 C   0  0  0  0  0  0  0  0  0  0  0  0
   58.8530   31.1310   48.8930 C   0  0  0  0  0  0  0  0  0  0  0  0
   57.8947   31.4886   49.2978 H   0  0  0  0  0  0  0  0  0  0  0  0
   59.4060   31.8140   47.8820 C   0  0  0  0  0  0  0  0  0  0  0  0
   60.4567   31.6216   47.6191 H   0  0  0  0  0  0  0  0  0  0  0  0
   58.6490   32.8140   47.1130 C   0  0  0  0  0  0  0  0  0  0  0  0
   57.4610   33.0760   47.4470 O   0  0  0  0  0  0  0  0  0  0  0  0
   59.2380   33.4690   46.0260 O   0  0  0  0  0  0  0  0  0  0  0  0
   58.4770   34.1710   45.0500 C   0  0  0  0  0  0  0  0  0  0  0  0
   57.7580   34.8343   45.5531 H   0  0  0  0  0  0  0  0  0  0  0  0
   59.1513   34.7709   44.4212 H   0  0  0  0  0  0  0  0  0  0  0  0
   57.9334   33.4506   44.4212 H   0  0  0  0  0  0  0  0  0  0  0  0
   59.9470   28.9140   48.6460 C   0  0  0  0  0  0  0  0  0  0  0  0
   59.8804   29.0474   47.5562 H   0  0  0  0  0  0  0  0  0  0  0  0
   58.3610   25.4770   46.6830 C   0  0  0  0  0  0  0  0  0  0  0  0
   58.8342   24.5568   47.0564 H   0  0  0  0  0  0  0  0  0  0  0  0
   56.9950   25.4860   46.4110 C   0  0  0  0  0  0  0  0  0  0  0  0
   56.3984   24.5765   46.5749 H   0  0  0  0  0  0  0  0  0  0  0  0
   56.3800   26.6420   45.9320 C   0  0  0  0  0  0  0  0  0  0  0  0
   55.2966   26.6465   45.7416 H   0  0  0  0  0  0  0  0  0  0  0  0
   57.1370   27.8020   45.6910 C   0  0  0  0  0  0  0  0  0  0  0  0
   56.5200   28.9660   45.1870 C   0  0  0  0  0  0  0  0  0  0  0  0
   55.1480   28.9960   44.9480 O   0  0  0  0  0  0  0  0  0  0  0  0
  1  2  1  0
  2  3  1  0
  3  4  2  0
  4  5  1  0
  4  6  1  0
  6  7  1  0
  6  8  2  0
  8  9  1  0
  9 10  1  0
 10 11  2  0
 10 12  1  0
 12 13  1  0
 13 14  2  0
 14 15  1  0
 14 16  1  0
 16 17  1  0
 16 18  2  0
 18 19  1  0
 18 20  1  0
 20 21  1  0
 21 22  1  0
 21 23  2  0
 23 24  1  0
 23 25  1  0
 25 26  2  0
 25 27  1  0
 27 28  1  0
 28 29  1  0
 28 30  1  0
 28 31  1  0
 20 32  2  0
 32 33  1  0
  9 34  2  0
 34 35  1  0
 34 36  1  0
 36 37  1  0
 36 38  2  0
 38 39  1  0
 38 40  1  0
 40 41  2  0
 41 42  1  0
 41  3  1  0
 40  8  1  0
 32 13  1  0
M  CHG  2  12  -1  42  -1
M  END
>  <UniqueID>  (81) 
78

>  <SMILES>  (81) 
COC(=O)/C=C/c1cccc([N-]C(=O)c2cccc3c([O-])c(O)ccc23)c1

>  <Energy>  (81) 
57.712843956955886

>  <Genealogy>  (81) 
COC(=O)C=Cc1cccc([N-]C(=O)c2cccc3c([O-])c(O)ccc23)c1 (protonated)
COC(=O)/C=C/c1cccc([N-]C(=O)c2cccc3c([O-])c(O)ccc23)c1 (cis-trans isomerization)
COC(=O)/C=C/c1cccc([N-]C(=O)c2cccc3c([O-])c(O)ccc23)c1 (3D coordinates assigned)
COC(=O)/C=C/c1cccc([N-]C(=O)c2cccc3c([O-])c(O)ccc23)c1 (optimized conformer: 57.712843956955886 kcal/mol)

>  <smiles>  (81) 
COC(=O)C=Cc1cccc(NC(=O)c2cccc3c(O)c(O)ccc23)c1

>  <score_type>  (81) 
oracle

>  <origin>  (81) 
adg

>  <m_score__min__energy>  (81) 
-12.369999999999999

>  <m_primary>  (81) 
energy

$$$$
81:0
     RDKit          3D

 53 55  0  0  0  0  0  0  0  0999 V2000
   60.3480   28.2900   49.5480 C   0  0  0  0  0  0  0  0  0  0  0  0
   60.7120   28.9880   50.8530 C   0  0  0  0  0  0  0  0  0  0  0  0
   59.5390   29.3110   51.5960 O   0  0  0  0  0  0  0  0  0  0  0  0
   58.6130   30.2820   51.1940 C   0  0  0  0  0  0  0  0  0  0  0  0
   57.3760   30.0620   51.2950 O   0  0  0  0  0  0  0  0  0  0  0  0
   59.1040   31.5570   50.6450 C   0  0  0  0  0  0  0  0  0  0  0  0
   60.0720   31.6760   49.2710 S   0  0  0  0  0  0  0  0  0  0  0  0
   60.1560   33.3580   49.3490 C   0  0  0  0  0  0  0  0  0  0  0  0
   60.8270   34.1320   48.5510 N   0  0  0  0  0  0  0  0  0  0  0  0
   60.8260   34.0810   47.1170 C   0  0  0  0  0  0  0  0  0  0  0  0
   61.6230   33.2930   46.5420 O   0  0  0  0  0  0  0  0  0  0  0  0
   60.0210   35.0450   46.2780 C   0  0  0  0  0  0  0  0  0  0  0  0
   58.5890   34.5520   45.9510 C   0  0  0  0  0  0  0  0  0  0  0  0
   57.9750   33.6720   47.0740 C   0  0  0  0  0  0  0  0  0  0  0  0
   58.1310   32.1640   46.8160 C   0  0  0  0  0  0  0  0  0  0  0  0
   57.7020   31.7980   45.4560 N   0  0  0  0  0  0  0  0  0  0  0  0
   57.4020   30.4250   45.1520 C   0  0  0  0  0  0  0  0  0  0  0  0
   56.3330   30.1440   44.5450 O   0  0  0  0  0  0  0  0  0  0  0  0
   58.3330   29.3390   45.5260 C   0  0  0  0  0  0  0  0  0  0  0  0
   59.6650   29.3550   45.0770 C   0  0  0  0  0  0  0  0  0  0  0  0
   60.5380   28.3190   45.4210 C   0  0  0  0  0  0  0  0  0  0  0  0
   60.0880   27.2550   46.2070 C   0  0  0  0  0  0  0  0  0  0  0  0
   58.7620   27.2220   46.6440 C   0  0  0  0  0  0  0  0  0  0  0  0
   57.8840   28.2560   46.3010 C   0  0  0  0  0  0  0  0  0  0  0  0
   57.4170   32.8380   44.4640 C   0  0  0  0  0  0  0  0  0  0  0  0
   58.5000   33.9140   44.5400 C   0  0  0  0  0  0  0  0  0  0  0  0
   59.4790   33.8430   50.4100 N   0  0  0  0  0  0  0  0  0  0  0  0
   58.8840   32.8530   51.1340 C   0  0  0  0  0  0  0  0  0  0  0  0
   58.0760   33.1740   52.3520 C   0  0  0  0  0  0  0  0  0  0  0  0
   59.8498   27.3347   49.7697 H   0  0  0  0  0  0  0  0  0  0  0  0
   59.6694   28.9311   48.9662 H   0  0  0  0  0  0  0  0  0  0  0  0
   61.2621   28.1005   48.9662 H   0  0  0  0  0  0  0  0  0  0  0  0
   61.3479   28.3213   51.4539 H   0  0  0  0  0  0  0  0  0  0  0  0
   61.2494   29.9187   50.6183 H   0  0  0  0  0  0  0  0  0  0  0  0
   59.9429   35.9968   46.8239 H   0  0  0  0  0  0  0  0  0  0  0  0
   60.5486   35.1491   45.3184 H   0  0  0  0  0  0  0  0  0  0  0  0
   57.9496   35.4465   45.9179 H   0  0  0  0  0  0  0  0  0  0  0  0
   58.4741   33.9177   48.0229 H   0  0  0  0  0  0  0  0  0  0  0  0
   56.8969   33.8882   47.1059 H   0  0  0  0  0  0  0  0  0  0  0  0
   59.1882   31.8879   46.9429 H   0  0  0  0  0  0  0  0  0  0  0  0
   57.4946   31.6253   47.5334 H   0  0  0  0  0  0  0  0  0  0  0  0
   60.0220   30.1868   44.4519 H   0  0  0  0  0  0  0  0  0  0  0  0
   61.5810   28.3414   45.0724 H   0  0  0  0  0  0  0  0  0  0  0  0
   60.7780   26.4435   46.4815 H   0  0  0  0  0  0  0  0  0  0  0  0
   58.4072   26.3817   47.2589 H   0  0  0  0  0  0  0  0  0  0  0  0
   56.8379   28.2211   46.6394 H   0  0  0  0  0  0  0  0  0  0  0  0
   57.4089   32.3943   43.4575 H   0  0  0  0  0  0  0  0  0  0  0  0
   56.4343   33.2870   44.6706 H   0  0  0  0  0  0  0  0  0  0  0  0
   59.4707   33.4585   44.2946 H   0  0  0  0  0  0  0  0  0  0  0  0
   58.2401   34.7080   43.8245 H   0  0  0  0  0  0  0  0  0  0  0  0
   58.6625   32.9410   53.2530 H   0  0  0  0  0  0  0  0  0  0  0  0
   57.8174   34.2432   52.3492 H   0  0  0  0  0  0  0  0  0  0  0  0
   57.1542   32.5738   52.3492 H   0  0  0  0  0  0  0  0  0  0  0  0
  1  2  1  0
  2  3  1  0
  3  4  1  0
  4  5  2  0
  4  6  1  0
  6  7  1  0
  7  8  1  0
  8  9  2  3
  9 10  1  0
 10 11  2  0
 10 12  1  0
 12 13  1  0
 13 14  1  0
 14 15  1  0
 15 16  1  0
 16 17  1  0
 17 18  2  0
 17 19  1  0
 19 20  2  0
 20 21  1  0
 21 22  2  0
 22 23  1  0
 23 24  2  0
 16 25  1  0
 25 26  1  0
  8 27  1  0
 27 28  1  0
 28 29  1  0
 28  6  2  0
 26 13  1  0
 24 19  1  0
  1 30  1  0
  1 31  1  0
  1 32  1  0
  2 33  1  0
  2 34  1  0
 12 35  1  0
 12 36  1  0
 13 37  1  0
 14 38  1  0
 14 39  1  0
 15 40  1  0
 15 41  1  0
 20 42  1  0
 21 43  1  0
 22 44  1  0
 23 45  1  0
 24 46  1  0
 25 47  1  0
 25 48  1  0
 26 49  1  0
 26 50  1  0
 29 51  1  0
 29 52  1  0
 29 53  1  0
M  CHG  1  27  -1
M  END
>  <UniqueID>  (82) 
79

>  <SMILES>  (82) 
CCOC(=O)c1sc(=NC(=O)CC2CCN(C(=O)c3ccccc3)CC2)[n-]c1C

>  <Energy>  (82) 
92.87450969421451

>  <Genealogy>  (82) 
CCOC(=O)c1sc(=NC(=O)CC2CCN(C(=O)c3ccccc3)CC2)[n-]c1C (protonated)
CCOC(=O)c1sc(=NC(=O)CC2CCN(C(=O)c3ccccc3)CC2)[n-]c1C (3D coordinates assigned)
CCOC(=O)c1sc(=NC(=O)CC2CCN(C(=O)c3ccccc3)CC2)[n-]c1C (nonaromatic ring conformer: 92.87450969421451 kcal/mol)

>  <smiles>  (82) 
CCOC(=O)c1sc(=NC(=O)CC2CCN(C(=O)c3ccccc3)CC2)[nH]c1C

>  <score_type>  (82) 
oracle

>  <origin>  (82) 
adg

>  <m_score__min__energy>  (82) 
-10.92

>  <m_primary>  (82) 
energy

$$$$
82:0
     RDKit          3D

 57 59  0  0  0  0  0  0  0  0999 V2000
   59.9660   33.7270   51.4230 C   0  0  0  0  0  0  0  0  0  0  0  0
   61.0920   32.8630   50.9410 C   0  0  0  0  0  0  0  0  0  0  0  0
   62.0730   33.3840   50.0830 C   0  0  0  0  0  0  0  0  0  0  0  0
   63.1380   32.5800   49.6500 C   0  0  0  0  0  0  0  0  0  0  0  0
   64.1530   33.1240   48.6890 C   0  0  0  0  0  0  0  0  0  0  0  0
   63.2080   31.2430   50.0650 C   0  0  0  0  0  0  0  0  0  0  0  0
   62.2420   30.7160   50.9370 C   0  0  0  0  0  0  0  0  0  0  0  0
   62.3130   29.2660   51.3430 C   0  0  0  0  0  0  0  0  0  0  0  0
   61.0640   28.6210   51.0930 O   0  0  0  0  0  0  0  0  0  0  0  0
   60.3120   28.7710   49.9160 C   0  0  0  0  0  0  0  0  0  0  0  0
   60.7030   28.0510   48.7800 C   0  0  0  0  0  0  0  0  0  0  0  0
   60.0430   28.2410   47.5620 C   0  0  0  0  0  0  0  0  0  0  0  0
   58.9710   29.1380   47.4770 C   0  0  0  0  0  0  0  0  0  0  0  0
   58.3820   29.4390   46.2030 N   0  0  0  0  0  0  0  0  0  0  0  0
   59.1160   30.3050   45.2610 C   0  0  0  0  0  0  0  0  0  0  0  0
   58.8020   31.7740   45.4910 C   0  0  0  0  0  0  0  0  0  0  0  0
   57.6900   32.3220   44.8270 C   0  0  0  0  0  0  0  0  0  0  0  0
   57.3850   33.6780   44.9440 C   0  0  0  0  0  0  0  0  0  0  0  0
   58.1810   34.5060   45.7290 C   0  0  0  0  0  0  0  0  0  0  0  0
   59.2930   33.9860   46.3930 C   0  0  0  0  0  0  0  0  0  0  0  0
   59.6340   32.6220   46.2780 C   0  0  0  0  0  0  0  0  0  0  0  0
   60.8390   32.0900   47.0320 C   0  0  0  0  0  0  0  0  0  0  0  0
   60.4980   31.7850   48.3360 F   0  0  0  0  0  0  0  0  0  0  0  0
   61.3400   30.9390   46.4500 F   0  0  0  0  0  0  0  0  0  0  0  0
   61.8410   33.0430   47.0330 F   0  0  0  0  0  0  0  0  0  0  0  0
   57.1940   28.7190   45.8080 C   0  0  0  0  0  0  0  0  0  0  0  0
   56.2510   29.3400   45.2440 O   0  0  0  0  0  0  0  0  0  0  0  0
   57.0720   27.2310   46.0120 C   0  0  0  0  0  0  0  0  0  0  0  0
   55.6740   26.8090   45.9700 N   0  0  0  0  0  0  0  0  0  0  0  0
   58.5370   29.8130   48.6230 C   0  0  0  0  0  0  0  0  0  0  0  0
   59.2020   29.6320   49.8380 C   0  0  0  0  0  0  0  0  0  0  0  0
   61.1950   31.5360   51.3820 C   0  0  0  0  0  0  0  0  0  0  0  0
   59.9551   33.7353   52.5229 H   0  0  0  0  0  0  0  0  0  0  0  0
   60.1050   34.7524   51.0499 H   0  0  0  0  0  0  0  0  0  0  0  0
   59.0115   33.3273   51.0499 H   0  0  0  0  0  0  0  0  0  0  0  0
   62.0063   34.4296   49.7479 H   0  0  0  0  0  0  0  0  0  0  0  0
   64.9868   33.5709   49.2503 H   0  0  0  0  0  0  0  0  0  0  0  0
   64.5326   32.3084   48.0559 H   0  0  0  0  0  0  0  0  0  0  0  0
   63.6840   33.8917   48.0559 H   0  0  0  0  0  0  0  0  0  0  0  0
   64.0260   30.6018   49.7048 H   0  0  0  0  0  0  0  0  0  0  0  0
   63.1027   28.7650   50.7639 H   0  0  0  0  0  0  0  0  0  0  0  0
   62.5388   29.2054   52.4179 H   0  0  0  0  0  0  0  0  0  0  0  0
   61.5333   27.3326   48.8463 H   0  0  0  0  0  0  0  0  0  0  0  0
   60.3663   27.6852   46.6695 H   0  0  0  0  0  0  0  0  0  0  0  0
   60.1959   30.1453   45.3965 H   0  0  0  0  0  0  0  0  0  0  0  0
   58.8054   30.0426   44.2389 H   0  0  0  0  0  0  0  0  0  0  0  0
   57.0530   31.6733   44.2078 H   0  0  0  0  0  0  0  0  0  0  0  0
   56.5143   34.0931   44.4151 H   0  0  0  0  0  0  0  0  0  0  0  0
   57.9333   35.5733   45.8266 H   0  0  0  0  0  0  0  0  0  0  0  0
   59.9123   34.6492   47.0148 H   0  0  0  0  0  0  0  0  0  0  0  0
   57.6282   26.7123   45.2173 H   0  0  0  0  0  0  0  0  0  0  0  0
   57.4846   26.9780   46.9998 H   0  0  0  0  0  0  0  0  0  0  0  0
   55.2880   26.8900   46.9380 H   0  0  0  0  0  0  0  0  0  0  0  0
   55.1450   27.4910   45.3810 H   0  0  0  0  0  0  0  0  0  0  0  0
   57.6701   30.4878   48.5671 H   0  0  0  0  0  0  0  0  0  0  0  0
   58.8568   30.1643   50.7366 H   0  0  0  0  0  0  0  0  0  0  0  0
   60.4482   31.1348   52.0830 H   0  0  0  0  0  0  0  0  0  0  0  0
  1  2  1  0
  2  3  2  0
  3  4  1  0
  4  5  1  0
  4  6  2  0
  6  7  1  0
  7  8  1  0
  8  9  1  0
  9 10  1  0
 10 11  2  0
 11 12  1  0
 12 13  2  0
 13 14  1  0
 14 15  1  0
 15 16  1  0
 16 17  2  0
 17 18  1  0
 18 19  2  0
 19 20  1  0
 20 21  2  0
 21 22  1  0
 22 23  1  0
 22 24  1  0
 22 25  1  0
 14 26  1  0
 26 27  2  0
 26 28  1  0
 28 29  1  0
 13 30  1  0
 30 31  2  0
  7 32  2  0
 32  2  1  0
 31 10  1  0
 21 16  1  0
  1 33  1  0
  1 34  1  0
  1 35  1  0
  3 36  1  0
  5 37  1  0
  5 38  1  0
  5 39  1  0
  6 40  1  0
  8 41  1  0
  8 42  1  0
 11 43  1  0
 12 44  1  0
 15 45  1  0
 15 46  1  0
 17 47  1  0
 18 48  1  0
 19 49  1  0
 20 50  1  0
 28 51  1  0
 28 52  1  0
 29 53  1  0
 29 54  1  0
 30 55  1  0
 31 56  1  0
 32 57  1  0
M  END
>  <UniqueID>  (83) 
80

>  <SMILES>  (83) 
Cc1cc(C)cc(COc2ccc(N(Cc3ccccc3C(F)(F)F)C(=O)CN)cc2)c1

>  <Energy>  (83) 
62.658774933874795

>  <Genealogy>  (83) 
Cc1cc(C)cc(COc2ccc(N(Cc3ccccc3C(F)(F)F)C(=O)CN)cc2)c1 (3D coordinates assigned)
Cc1cc(C)cc(COc2ccc(N(Cc3ccccc3C(F)(F)F)C(=O)CN)cc2)c1 (optimized conformer: 62.658774933874795 kcal/mol)

>  <smiles>  (83) 
Cc1cc(C)cc(COc2ccc(N(Cc3ccccc3C(F)(F)F)C(=O)CN)cc2)c1

>  <score_type>  (83) 
oracle

>  <origin>  (83) 
adg

>  <m_score__min__energy>  (83) 
-9.1400000000000006

>  <m_primary>  (83) 
energy

$$$$
83:0
     RDKit          3D

 44 47  0  0  0  0  0  0  0  0999 V2000
   59.4480   26.2790   46.0790 O   0  0  0  0  0  0  0  0  0  0  0  0
   59.3270   27.4970   46.3880 C   0  0  0  0  0  0  0  0  0  0  0  0
   58.2060   28.2820   45.8260 C   0  0  0  0  0  0  0  0  0  0  0  0
   56.8920   27.7790   45.8220 C   0  0  0  0  0  0  0  0  0  0  0  0
   56.5610   26.5580   46.4120 O   0  0  0  0  0  0  0  0  0  0  0  0
   55.9030   28.5040   45.2470 N   0  0  0  0  0  0  0  0  0  0  0  0
   56.1330   29.7170   44.6890 C   0  0  0  0  0  0  0  0  0  0  0  0
   55.1700   30.3360   44.1590 O   0  0  0  0  0  0  0  0  0  0  0  0
   57.3930   30.2580   44.7000 N   0  0  0  0  0  0  0  0  0  0  0  0
   57.6420   31.5710   44.0740 C   0  0  0  0  0  0  0  0  0  0  0  0
   57.0670   32.6920   44.9420 C   0  0  0  0  0  0  0  0  0  0  0  0
   58.1670   33.4970   45.5640 C   0  0  0  0  0  0  0  0  0  0  0  0
   58.8350   34.5740   44.9900 C   0  0  0  0  0  0  0  0  0  0  0  0
   59.7150   35.1060   45.8680 N   0  0  0  0  0  0  0  0  0  0  0  0
   59.5990   34.3820   46.9960 C   0  0  0  0  0  0  0  0  0  0  0  0
   60.2890   34.5650   48.1930 C   0  0  0  0  0  0  0  0  0  0  0  0
   59.9930   33.7000   49.2620 C   0  0  0  0  0  0  0  0  0  0  0  0
   59.0220   32.6850   49.1130 C   0  0  0  0  0  0  0  0  0  0  0  0
   58.3390   32.5250   47.8930 C   0  0  0  0  0  0  0  0  0  0  0  0
   58.6590   33.3940   46.8500 C   0  0  0  0  0  0  0  0  0  0  0  0
   58.4330   29.5420   45.2400 C   0  0  0  0  0  0  0  0  0  0  0  0
   59.6090   30.0040   45.1960 O   0  0  0  0  0  0  0  0  0  0  0  0
   60.3430   28.1510   47.2980 C   0  0  0  0  0  0  0  0  0  0  0  0
   60.5540   27.4010   48.6120 C   0  0  0  0  0  0  0  0  0  0  0  0
   60.0140   28.6010   49.3800 C   0  0  0  0  0  0  0  0  0  0  0  0
   59.8030   29.3520   48.0720 C   0  0  0  0  0  0  0  0  0  0  0  0
   57.2400   25.8310   46.5990 H   0  0  0  0  0  0  0  0  0  0  0  0
   58.7261   31.7193   43.9614 H   0  0  0  0  0  0  0  0  0  0  0  0
   57.1534   31.5956   43.0888 H   0  0  0  0  0  0  0  0  0  0  0  0
   56.4465   33.3508   44.3167 H   0  0  0  0  0  0  0  0  0  0  0  0
   56.4604   32.2437   45.7427 H   0  0  0  0  0  0  0  0  0  0  0  0
   58.6704   34.9410   43.9662 H   0  0  0  0  0  0  0  0  0  0  0  0
   60.3440   35.9230   45.7050 H   0  0  0  0  0  0  0  0  0  0  0  0
   61.0412   35.3606   48.2984 H   0  0  0  0  0  0  0  0  0  0  0  0
   60.5211   33.8147   50.2201 H   0  0  0  0  0  0  0  0  0  0  0  0
   58.7982   32.0151   49.9563 H   0  0  0  0  0  0  0  0  0  0  0  0
   57.5782   31.7408   47.7662 H   0  0  0  0  0  0  0  0  0  0  0  0
   61.1702   28.2788   46.5843 H   0  0  0  0  0  0  0  0  0  0  0  0
   59.9442   26.4911   48.7132 H   0  0  0  0  0  0  0  0  0  0  0  0
   61.5381   26.9767   48.8603 H   0  0  0  0  0  0  0  0  0  0  0  0
   59.0860   28.3974   49.9345 H   0  0  0  0  0  0  0  0  0  0  0  0
   60.6057   29.0531   50.1896 H   0  0  0  0  0  0  0  0  0  0  0  0
   58.7512   29.5904   47.8552 H   0  0  0  0  0  0  0  0  0  0  0  0
   60.2393   30.3512   47.9262 H   0  0  0  0  0  0  0  0  0  0  0  0
  1  2  2  0
  2  3  1  0
  3  4  2  0
  4  5  1  0
  4  6  1  0
  6  7  1  0
  7  8  2  0
  7  9  1  0
  9 10  1  0
 10 11  1  0
 11 12  1  0
 12 13  2  0
 13 14  1  0
 14 15  1  0
 15 16  2  0
 16 17  1  0
 17 18  2  0
 18 19  1  0
 19 20  2  0
  9 21  1  0
 21 22  2  0
  2 23  1  0
 23 24  1  0
 24 25  1  0
 25 26  1  0
 21  3  1  0
 26 23  1  0
 20 12  1  0
 20 15  1  0
  5 27  1  0
 10 28  1  0
 10 29  1  0
 11 30  1  0
 11 31  1  0
 13 32  1  0
 14 33  1  0
 16 34  1  0
 17 35  1  0
 18 36  1  0
 19 37  1  0
 23 38  1  0
 24 39  1  0
 24 40  1  0
 25 41  1  0
 25 42  1  0
 26 43  1  0
 26 44  1  0
M  CHG  1   6  -1
M  END
>  <UniqueID>  (84) 
81

>  <SMILES>  (84) 
O=C(c1c(O)[n-]c(=O)n(CCc2c[nH]c3ccccc23)c1=O)C1CCC1

>  <Energy>  (84) 
148.11872660735435

>  <Genealogy>  (84) 
O=C(c1c(O)[n-]c(=O)n(CCc2c[nH]c3ccccc23)c1=O)C1CCC1 (protonated)
O=C(c1c(O)[n-]c(=O)n(CCc2c[nH]c3ccccc23)c1=O)C1CCC1 (3D coordinates assigned)
O=C(c1c(O)[n-]c(=O)n(CCc2c[nH]c3ccccc23)c1=O)C1CCC1 (nonaromatic ring conformer: 148.11872660735435 kcal/mol)

>  <smiles>  (84) 
O=C(c1c(O)[nH]c(=O)n(CCc2c[nH]c3ccccc23)c1=O)C1CCC1

>  <score_type>  (84) 
oracle

>  <origin>  (84) 
adg

>  <m_score__min__energy>  (84) 
-10.300000000000001

>  <m_primary>  (84) 
energy

$$$$
84:0
     RDKit          3D

 61 65  0  0  0  0  0  0  0  0999 V2000
   64.0470   33.8210   49.7030 C   0  0  0  0  0  0  0  0  0  0  0  0
   63.8180   32.5010   49.0910 N   0  0  0  0  0  0  0  0  0  0  0  0
   62.6550   31.8030   49.7100 C   0  0  0  0  0  0  0  0  0  0  0  0
   61.5130   31.4790   48.7270 C   0  0  0  0  0  0  0  0  0  0  0  0
   61.2970   32.5890   47.7990 N   0  0  0  0  0  0  0  0  0  0  0  0
   59.9680   33.0950   47.5900 C   0  0  0  0  0  0  0  0  0  0  0  0
   59.2560   33.3950   48.5870 O   0  0  0  0  0  0  0  0  0  0  0  0
   59.3970   33.2350   46.2360 C   0  0  0  0  0  0  0  0  0  0  0  0
   59.2550   34.4080   45.4920 C   0  0  0  0  0  0  0  0  0  0  0  0
   58.6370   34.1420   44.3140 N   0  0  0  0  0  0  0  0  0  0  0  0
   58.3830   32.8440   44.3030 N   0  0  0  0  0  0  0  0  0  0  0  0
   57.7780   32.1280   43.3220 C   0  0  0  0  0  0  0  0  0  0  0  0
   57.3790   32.6850   42.2640 O   0  0  0  0  0  0  0  0  0  0  0  0
   57.6150   30.7480   43.5130 C   0  0  0  0  0  0  0  0  0  0  0  0
   58.0770   30.1690   44.7210 C   0  0  0  0  0  0  0  0  0  0  0  0
   58.0020   28.7110   44.9540 C   0  0  0  0  0  0  0  0  0  0  0  0
   57.8430   27.8630   43.8430 C   0  0  0  0  0  0  0  0  0  0  0  0
   57.8070   26.4750   44.0070 C   0  0  0  0  0  0  0  0  0  0  0  0
   57.9250   25.9190   45.2770 C   0  0  0  0  0  0  0  0  0  0  0  0
   58.0620   26.7470   46.3950 C   0  0  0  0  0  0  0  0  0  0  0  0
   58.0720   28.1430   46.2530 C   0  0  0  0  0  0  0  0  0  0  0  0
   58.1790   28.9480   47.4430 N   0  0  0  0  0  0  0  0  0  0  0  0
   59.1420   28.6800   48.4800 C   0  0  0  0  0  0  0  0  0  0  0  0
   59.8400   27.6320   48.4440 O   0  0  0  0  0  0  0  0  0  0  0  0
   59.3500   29.5960   49.5600 N   0  0  0  0  0  0  0  0  0  0  0  0
   58.4800   29.7730   50.7250 C   0  0  0  0  0  0  0  0  0  0  0  0
   58.4540   31.2060   51.2210 C   0  0  0  0  0  0  0  0  0  0  0  0
   59.6430   31.9620   51.1720 C   0  0  0  0  0  0  0  0  0  0  0  0
   59.6940   33.2420   51.7260 C   0  0  0  0  0  0  0  0  0  0  0  0
   58.5630   33.7940   52.3300 C   0  0  0  0  0  0  0  0  0  0  0  0
   57.3720   33.0710   52.3740 C   0  0  0  0  0  0  0  0  0  0  0  0
   57.3070   31.7760   51.8310 C   0  0  0  0  0  0  0  0  0  0  0  0
   55.6510   30.8130   52.0080 Br  0  0  0  0  0  0  0  0  0  0  0  0
   58.6490   30.9570   45.6790 N   0  0  0  0  0  0  0  0  0  0  0  0
   58.8100   32.2790   45.4390 C   0  0  0  0  0  0  0  0  0  0  0  0
   62.4430   33.2200   47.1400 C   0  0  0  0  0  0  0  0  0  0  0  0
   63.7550   32.5850   47.6170 C   0  0  0  0  0  0  0  0  0  0  0  0
   64.0303   33.7250   50.7987 H   0  0  0  0  0  0  0  0  0  0  0  0
   65.0258   34.2084   49.3837 H   0  0  0  0  0  0  0  0  0  0  0  0
   63.2559   34.5154   49.3837 H   0  0  0  0  0  0  0  0  0  0  0  0
   63.0124   30.8585   50.1462 H   0  0  0  0  0  0  0  0  0  0  0  0
   62.2385   32.4903   50.4611 H   0  0  0  0  0  0  0  0  0  0  0  0
   61.7743   30.5763   48.1552 H   0  0  0  0  0  0  0  0  0  0  0  0
   60.5893   31.3140   49.3011 H   0  0  0  0  0  0  0  0  0  0  0  0
   59.5949   35.4033   45.8143 H   0  0  0  0  0  0  0  0  0  0  0  0
   57.1379   30.1274   42.7402 H   0  0  0  0  0  0  0  0  0  0  0  0
   57.7461   28.2957   42.8363 H   0  0  0  0  0  0  0  0  0  0  0  0
   57.6852   25.8215   43.1306 H   0  0  0  0  0  0  0  0  0  0  0  0
   57.9105   24.8262   45.4015 H   0  0  0  0  0  0  0  0  0  0  0  0
   58.1629   26.3002   47.3951 H   0  0  0  0  0  0  0  0  0  0  0  0
   57.7750   29.9060   47.3910 H   0  0  0  0  0  0  0  0  0  0  0  0
   57.4571   29.4771   50.4491 H   0  0  0  0  0  0  0  0  0  0  0  0
   58.8785   29.1466   51.5367 H   0  0  0  0  0  0  0  0  0  0  0  0
   60.5384   31.5393   50.6929 H   0  0  0  0  0  0  0  0  0  0  0  0
   60.6299   33.8186   51.6865 H   0  0  0  0  0  0  0  0  0  0  0  0
   58.6117   34.8003   52.7716 H   0  0  0  0  0  0  0  0  0  0  0  0
   56.4784   33.5161   52.8360 H   0  0  0  0  0  0  0  0  0  0  0  0
   62.3521   33.0884   46.0517 H   0  0  0  0  0  0  0  0  0  0  0  0
   62.4536   34.2903   47.3935 H   0  0  0  0  0  0  0  0  0  0  0  0
   63.8328   31.5707   47.1986 H   0  0  0  0  0  0  0  0  0  0  0  0
   64.5866   33.2180   47.2740 H   0  0  0  0  0  0  0  0  0  0  0  0
  1  2  1  0
  2  3  1  0
  3  4  1  0
  4  5  1  0
  5  6  1  0
  6  7  2  0
  6  8  1  0
  8  9  1  0
  9 10  2  0
 10 11  1  0
 11 12  1  0
 12 13  2  0
 12 14  1  0
 14 15  2  0
 15 16  1  0
 16 17  2  0
 17 18  1  0
 18 19  2  0
 19 20  1  0
 20 21  2  0
 21 22  1  0
 22 23  1  0
 23 24  2  0
 23 25  1  0
 25 26  1  0
 26 27  1  0
 27 28  2  0
 28 29  1  0
 29 30  2  0
 30 31  1  0
 31 32  2  0
 32 33  1  0
 15 34  1  0
 34 35  1  0
  5 36  1  0
 36 37  1  0
 37  2  1  0
 35  8  2  0
 35 11  1  0
 21 16  1  0
 32 27  1  0
  1 38  1  0
  1 39  1  0
  1 40  1  0
  3 41  1  0
  3 42  1  0
  4 43  1  0
  4 44  1  0
  9 45  1  0
 14 46  1  0
 17 47  1  0
 18 48  1  0
 19 49  1  0
 20 50  1  0
 22 51  1  0
 26 52  1  0
 26 53  1  0
 28 54  1  0
 29 55  1  0
 30 56  1  0
 31 57  1  0
 36 58  1  0
 36 59  1  0
 37 60  1  0
 37 61  1  0
M  CHG  2  25  -1  34  -1
M  END
>  <UniqueID>  (85) 
82

>  <SMILES>  (85) 
CN1CCN(C(=O)c2cnn3c(=O)cc(-c4ccccc4NC(=O)[N-]Cc4ccccc4Br)[n-]c23)CC1

>  <Energy>  (85) 
127.00975736715972

>  <Genealogy>  (85) 
CN1CCN(C(=O)c2cnn3c(=O)cc(-c4ccccc4NC(=O)[N-]Cc4ccccc4Br)[n-]c23)CC1 (protonated)
CN1CCN(C(=O)c2cnn3c(=O)cc(-c4ccccc4NC(=O)[N-]Cc4ccccc4Br)[n-]c23)CC1 (3D coordinates assigned)
CN1CCN(C(=O)c2cnn3c(=O)cc(-c4ccccc4NC(=O)[N-]Cc4ccccc4Br)[n-]c23)CC1 (nonaromatic ring conformer: 127.00975736715972 kcal/mol)

>  <smiles>  (85) 
CN1CCN(C(=O)c2cnn3c(=O)cc(-c4ccccc4NC(=O)NCc4ccccc4Br)[nH]c23)CC1

>  <score_type>  (85) 
oracle

>  <origin>  (85) 
adg

>  <m_score__min__energy>  (85) 
-13.35

>  <m_primary>  (85) 
energy

$$$$
85:0
     RDKit          3D

 49 51  0  0  0  0  0  0  0  0999 V2000
   62.9267   32.0875   50.8997 H   0  0  0  0  0  0  0  0  0  0  0  0
   62.3370   31.1600   50.9450 C   0  0  0  0  0  0  0  0  0  0  0  0
   62.3894   30.5179   51.8366 H   0  0  0  0  0  0  0  0  0  0  0  0
   61.5540   30.8120   49.9130 C   0  0  0  0  0  0  0  0  0  0  0  0
   60.8610   29.6510   50.0540 N   0  0  0  0  0  0  0  0  0  0  0  0
   60.1760   29.0700   49.0440 C   0  0  0  0  0  0  0  0  0  0  0  0
   59.6111   28.1439   49.2263 H   0  0  0  0  0  0  0  0  0  0  0  0
   60.1830   29.6400   47.7730 C   0  0  0  0  0  0  0  0  0  0  0  0
   59.5090   28.9080   46.6330 C   0  0  0  0  0  0  0  0  0  0  0  0
   59.9812   29.2101   45.6865 H   0  0  0  0  0  0  0  0  0  0  0  0
   59.6241   27.8274   46.8032 H   0  0  0  0  0  0  0  0  0  0  0  0
   58.0080   29.2250   46.5640 C   0  0  0  0  0  0  0  0  0  0  0  0
   57.4403   28.3007   46.7467 H   0  0  0  0  0  0  0  0  0  0  0  0
   57.7839   29.9846   47.3274 H   0  0  0  0  0  0  0  0  0  0  0  0
   57.6130   29.7830   45.2170 C   0  0  0  0  0  0  0  0  0  0  0  0
   58.4500   30.7140   44.5750 C   0  0  0  0  0  0  0  0  0  0  0  0
   59.4117   30.9909   45.0315 H   0  0  0  0  0  0  0  0  0  0  0  0
   58.0660   31.2890   43.3600 C   0  0  0  0  0  0  0  0  0  0  0  0
   58.7253   32.0162   42.8635 H   0  0  0  0  0  0  0  0  0  0  0  0
   56.8460   30.9410   42.7760 C   0  0  0  0  0  0  0  0  0  0  0  0
   56.5454   31.3937   41.8196 H   0  0  0  0  0  0  0  0  0  0  0  0
   56.0070   30.0180   43.4060 C   0  0  0  0  0  0  0  0  0  0  0  0
   55.0483   29.7434   42.9418 H   0  0  0  0  0  0  0  0  0  0  0  0
   56.3810   29.4420   44.6240 C   0  0  0  0  0  0  0  0  0  0  0  0
   55.5230   28.5390   45.2420 O   0  0  0  0  0  0  0  0  0  0  0  0
   60.8520   30.8640   47.5760 C   0  0  0  0  0  0  0  0  0  0  0  0
   60.7960   31.3920   46.4320 O   0  0  0  0  0  0  0  0  0  0  0  0
   61.5170   31.5170   48.6610 C   0  0  0  0  0  0  0  0  0  0  0  0
   62.0280   32.7840   48.5250 C   0  0  0  0  0  0  0  0  0  0  0  0
   61.2740   33.9250   48.9620 N   0  0  0  0  0  0  0  0  0  0  0  0
   61.7140   34.8670   48.8550 H   0  0  0  0  0  0  0  0  0  0  0  0
   59.8130   33.8760   49.0250 C   0  0  0  0  0  0  0  0  0  0  0  0
   59.5049   32.9393   49.5126 H   0  0  0  0  0  0  0  0  0  0  0  0
   59.4570   34.7438   49.5996 H   0  0  0  0  0  0  0  0  0  0  0  0
   59.2130   33.9340   47.6460 C   0  0  0  0  0  0  0  0  0  0  0  0
   57.9970   33.2860   47.3730 C   0  0  0  0  0  0  0  0  0  0  0  0
   57.5087   32.6856   48.1547 H   0  0  0  0  0  0  0  0  0  0  0  0
   57.4050   33.4010   46.1120 C   0  0  0  0  0  0  0  0  0  0  0  0
   56.4518   32.8929   45.9041 H   0  0  0  0  0  0  0  0  0  0  0  0
   58.0230   34.1610   45.1150 C   0  0  0  0  0  0  0  0  0  0  0  0
   57.5564   34.2507   44.1229 H   0  0  0  0  0  0  0  0  0  0  0  0
   59.2340   34.8070   45.3790 C   0  0  0  0  0  0  0  0  0  0  0  0
   59.7208   35.4032   44.5931 H   0  0  0  0  0  0  0  0  0  0  0  0
   59.8280   34.6970   46.6400 C   0  0  0  0  0  0  0  0  0  0  0  0
   60.7796   35.2095   46.8447 H   0  0  0  0  0  0  0  0  0  0  0  0
   63.2820   33.0940   47.7500 C   0  0  0  0  0  0  0  0  0  0  0  0
   64.1052   33.2975   48.4507 H   0  0  0  0  0  0  0  0  0  0  0  0
   63.5438   32.2335   47.1167 H   0  0  0  0  0  0  0  0  0  0  0  0
   63.1127   33.9773   47.1167 H   0  0  0  0  0  0  0  0  0  0  0  0
  1  2  1  0
  2  3  1  0
  2  4  2  0
  4  5  1  0
  5  6  1  0
  6  7  1  0
  6  8  2  0
  8  9  1  0
  9 10  1  0
  9 11  1  0
  9 12  1  0
 12 13  1  0
 12 14  1  0
 12 15  1  0
 15 16  2  0
 16 17  1  0
 16 18  1  0
 18 19  1  0
 18 20  2  0
 20 21  1  0
 20 22  1  0
 22 23  1  0
 22 24  2  0
 24 25  1  0
  8 26  1  0
 26 27  2  0
 26 28  1  0
 28 29  2  0
 29 30  1  0
 30 31  1  0
 30 32  1  0
 32 33  1  0
 32 34  1  0
 32 35  1  0
 35 36  2  0
 36 37  1  0
 36 38  1  0
 38 39  1  0
 38 40  2  0
 40 41  1  0
 40 42  1  0
 42 43  1  0
 42 44  2  0
 44 45  1  0
 29 46  1  0
 46 47  1  0
 46 48  1  0
 46 49  1  0
 28  4  1  0
 44 35  1  0
 24 15  1  0
M  CHG  2   5  -1  25  -1
M  END
>  <UniqueID>  (86) 
83

>  <SMILES>  (86) 
C=c1[n-]cc(CCc2ccccc2[O-])c(=O)/c1=C(\C)NCc1ccccc1

>  <Energy>  (86) 
74.07895564851026

>  <Genealogy>  (86) 
C=c1[n-]cc(CCc2ccccc2[O-])c(=O)c1=C(C)NCc1ccccc1 (protonated)
C=c1[n-]cc(CCc2ccccc2[O-])c(=O)/c1=C(\C)NCc1ccccc1 (cis-trans isomerization)
C=c1[n-]cc(CCc2ccccc2[O-])c(=O)/c1=C(\C)NCc1ccccc1 (3D coordinates assigned)
C=c1[n-]cc(CCc2ccccc2[O-])c(=O)/c1=C(\C)NCc1ccccc1 (optimized conformer: 74.07895564851026 kcal/mol)

>  <smiles>  (86) 
C=c1[nH]cc(CCc2ccccc2O)c(=O)c1=C(C)NCc1ccccc1

>  <score_type>  (86) 
oracle

>  <origin>  (86) 
adg

>  <m_score__min__energy>  (86) 
-13.41

>  <m_primary>  (86) 
energy

$$$$
86:0
     RDKit          3D

 58 61  0  0  0  0  0  0  0  0999 V2000
   56.5130   29.0450   42.2460 C   0  0  0  0  0  0  0  0  0  0  0  0
   57.0790   30.0450   43.2180 C   0  0  0  0  0  0  0  0  0  0  0  0
   57.0710   31.4000   42.8650 C   0  0  0  0  0  0  0  0  0  0  0  0
   57.5880   32.3690   43.7230 C   0  0  0  0  0  0  0  0  0  0  0  0
   58.1410   32.0170   44.9730 C   0  0  0  0  0  0  0  0  0  0  0  0
   58.7000   33.0310   45.8660 N   0  0  0  0  0  0  0  0  0  0  0  0
   58.5230   32.8870   47.3260 C   0  0  0  0  0  0  0  0  0  0  0  0
   59.0890   34.0600   48.1310 C   0  0  0  0  0  0  0  0  0  0  0  0
   60.2960   34.5180   47.5730 O   0  0  0  0  0  0  0  0  0  0  0  0
   60.0080   35.1330   46.3400 C   0  0  0  0  0  0  0  0  0  0  0  0
   59.5540   34.1010   45.3040 C   0  0  0  0  0  0  0  0  0  0  0  0
   58.1240   30.6500   45.3320 C   0  0  0  0  0  0  0  0  0  0  0  0
   57.5890   29.6660   44.4830 C   0  0  0  0  0  0  0  0  0  0  0  0
   57.6160   27.9820   45.0440 S   0  0  0  0  0  0  0  0  0  0  0  0
   57.7690   27.0270   43.8940 O   0  0  0  0  0  0  0  0  0  0  0  0
   56.3060   27.6660   45.7090 O   0  0  0  0  0  0  0  0  0  0  0  0
   58.8800   27.7890   46.2230 N   0  0  0  0  0  0  0  0  0  0  0  0
   59.4740   28.8000   47.0460 C   0  0  0  0  0  0  0  0  0  0  0  0
   58.8560   29.1090   48.2640 C   0  0  0  0  0  0  0  0  0  0  0  0
   59.3980   30.0810   49.1100 C   0  0  0  0  0  0  0  0  0  0  0  0
   60.5740   30.7490   48.7530 C   0  0  0  0  0  0  0  0  0  0  0  0
   61.2510   31.9640   49.8360 S   0  0  0  0  0  0  0  0  0  0  0  0
   62.1800   31.2790   50.7980 O   0  0  0  0  0  0  0  0  0  0  0  0
   60.1490   32.6240   50.6200 O   0  0  0  0  0  0  0  0  0  0  0  0
   62.1310   33.1590   48.9080 N   0  0  0  0  0  0  0  0  0  0  0  0
   63.3020   32.5610   48.2550 C   0  0  0  0  0  0  0  0  0  0  0  0
   64.4940   32.7560   49.1800 C   0  0  0  0  0  0  0  0  0  0  0  0
   64.0840   33.8500   50.1520 C   0  0  0  0  0  0  0  0  0  0  0  0
   62.6570   34.2230   49.7730 C   0  0  0  0  0  0  0  0  0  0  0  0
   61.2160   30.4220   47.5520 C   0  0  0  0  0  0  0  0  0  0  0  0
   60.6760   29.4480   46.7060 C   0  0  0  0  0  0  0  0  0  0  0  0
   56.0452   28.2185   42.8010 H   0  0  0  0  0  0  0  0  0  0  0  0
   55.7584   29.5352   41.6133 H   0  0  0  0  0  0  0  0  0  0  0  0
   57.3217   28.6504   41.6133 H   0  0  0  0  0  0  0  0  0  0  0  0
   56.6501   31.7044   41.8954 H   0  0  0  0  0  0  0  0  0  0  0  0
   57.5647   33.4264   43.4208 H   0  0  0  0  0  0  0  0  0  0  0  0
   57.4470   32.8059   47.5395 H   0  0  0  0  0  0  0  0  0  0  0  0
   59.0791   31.9883   47.6312 H   0  0  0  0  0  0  0  0  0  0  0  0
   58.3581   34.8820   48.1314 H   0  0  0  0  0  0  0  0  0  0  0  0
   59.2850   33.7183   49.1580 H   0  0  0  0  0  0  0  0  0  0  0  0
   59.2070   35.8727   46.4856 H   0  0  0  0  0  0  0  0  0  0  0  0
   60.9217   35.6215   45.9705 H   0  0  0  0  0  0  0  0  0  0  0  0
   58.9861   34.6228   44.5196 H   0  0  0  0  0  0  0  0  0  0  0  0
   60.4611   33.6168   44.9132 H   0  0  0  0  0  0  0  0  0  0  0  0
   58.5415   30.3476   46.3037 H   0  0  0  0  0  0  0  0  0  0  0  0
   57.9360   28.5823   48.5576 H   0  0  0  0  0  0  0  0  0  0  0  0
   58.8979   30.3214   50.0598 H   0  0  0  0  0  0  0  0  0  0  0  0
   61.4830   33.5620   48.1900 H   0  0  0  0  0  0  0  0  0  0  0  0
   63.1300   31.4878   48.0860 H   0  0  0  0  0  0  0  0  0  0  0  0
   63.4867   33.0378   47.2810 H   0  0  0  0  0  0  0  0  0  0  0  0
   64.7158   31.8247   49.7217 H   0  0  0  0  0  0  0  0  0  0  0  0
   65.4018   33.0278   48.6214 H   0  0  0  0  0  0  0  0  0  0  0  0
   64.1215   33.4780   51.1865 H   0  0  0  0  0  0  0  0  0  0  0  0
   64.7590   34.7168   50.0966 H   0  0  0  0  0  0  0  0  0  0  0  0
   62.0392   34.3087   50.6790 H   0  0  0  0  0  0  0  0  0  0  0  0
   62.6383   35.1898   49.2486 H   0  0  0  0  0  0  0  0  0  0  0  0
   62.1490   30.9335   47.2729 H   0  0  0  0  0  0  0  0  0  0  0  0
   61.1931   29.1873   45.7708 H   0  0  0  0  0  0  0  0  0  0  0  0
  1  2  1  0
  2  3  2  0
  3  4  1  0
  4  5  2  0
  5  6  1  0
  6  7  1  0
  7  8  1  0
  8  9  1  0
  9 10  1  0
 10 11  1  0
  5 12  1  0
 12 13  2  0
 13 14  1  0
 14 15  2  0
 14 16  2  0
 14 17  1  0
 17 18  1  0
 18 19  2  0
 19 20  1  0
 20 21  2  0
 21 22  1  0
 22 23  2  0
 22 24  2  0
 22 25  1  0
 25 26  1  0
 26 27  1  0
 27 28  1  0
 28 29  1  0
 21 30  1  0
 30 31  2  0
 13  2  1  0
 31 18  1  0
 11  6  1  0
 29 25  1  0
  1 32  1  0
  1 33  1  0
  1 34  1  0
  3 35  1  0
  4 36  1  0
  7 37  1  0
  7 38  1  0
  8 39  1  0
  8 40  1  0
 10 41  1  0
 10 42  1  0
 11 43  1  0
 11 44  1  0
 12 45  1  0
 19 46  1  0
 20 47  1  0
 25 48  1  0
 26 49  1  0
 26 50  1  0
 27 51  1  0
 27 52  1  0
 28 53  1  0
 28 54  1  0
 29 55  1  0
 29 56  1  0
 30 57  1  0
 31 58  1  0
M  CHG  2  17  -1  25   1
M  END
>  <UniqueID>  (87) 
84

>  <SMILES>  (87) 
Cc1ccc(N2CCOCC2)cc1S(=O)(=O)[N-]c1ccc(S(=O)(=O)[NH+]2CCCC2)cc1

>  <Energy>  (87) 
78.90253132029763

>  <Genealogy>  (87) 
Cc1ccc(N2CCOCC2)cc1S(=O)(=O)[N-]c1ccc(S(=O)(=O)[NH+]2CCCC2)cc1 (protonated)
Cc1ccc(N2CCOCC2)cc1S(=O)(=O)[N-]c1ccc(S(=O)(=O)[NH+]2CCCC2)cc1 (3D coordinates assigned)
Cc1ccc(N2CCOCC2)cc1S(=O)(=O)[N-]c1ccc(S(=O)(=O)[NH+]2CCCC2)cc1 (nonaromatic ring conformer: 78.90253132029763 kcal/mol)

>  <smiles>  (87) 
Cc1ccc(N2CCOCC2)cc1S(=O)(=O)Nc1ccc(S(=O)(=O)N2CCCC2)cc1

>  <score_type>  (87) 
oracle

>  <origin>  (87) 
adg

>  <m_score__min__energy>  (87) 
-9.7899999999999991

>  <m_primary>  (87) 
energy

$$$$
87:0
     RDKit          3D

 32 33  0  0  0  0  0  0  0  0999 V2000
   56.8170   33.3190   45.3910 O   0  0  0  0  0  0  0  0  0  0  0  0
   57.8680   33.0690   44.7400 C   0  0  0  0  0  0  0  0  0  0  0  0
   57.7610   32.4400   43.3840 C   0  0  0  0  0  0  0  0  0  0  0  0
   57.9850   31.0010   43.4760 N   0  0  0  0  0  0  0  0  0  0  0  0
   57.1100   30.1340   44.2160 C   0  0  0  0  0  0  0  0  0  0  0  0
   56.0560   30.5960   44.7310 O   0  0  0  0  0  0  0  0  0  0  0  0
   57.4310   28.7060   44.3880 C   0  0  0  0  0  0  0  0  0  0  0  0
   57.8710   27.8480   43.3820 C   0  0  0  0  0  0  0  0  0  0  0  0
   58.0900   26.5380   43.8260 C   0  0  0  0  0  0  0  0  0  0  0  0
   57.8200   26.3680   45.1750 C   0  0  0  0  0  0  0  0  0  0  0  0
   57.9780   24.8700   46.0690 Cl  0  0  0  0  0  0  0  0  0  0  0  0
   57.3110   27.8310   45.8250 S   0  0  0  0  0  0  0  0  0  0  0  0
   59.1610   33.3600   45.2920 N   0  0  0  0  0  0  0  0  0  0  0  0
   59.3590   33.9820   46.5740 C   0  0  0  0  0  0  0  0  0  0  0  0
   58.4070   34.5980   47.1280 O   0  0  0  0  0  0  0  0  0  0  0  0
   60.6800   33.9340   47.2460 C   0  0  0  0  0  0  0  0  0  0  0  0
   61.8430   33.6750   46.4970 C   0  0  0  0  0  0  0  0  0  0  0  0
   63.0940   33.6340   47.1220 C   0  0  0  0  0  0  0  0  0  0  0  0
   63.1990   33.8610   48.4960 C   0  0  0  0  0  0  0  0  0  0  0  0
   62.0530   34.1330   49.2470 C   0  0  0  0  0  0  0  0  0  0  0  0
   60.8000   34.1720   48.6290 C   0  0  0  0  0  0  0  0  0  0  0  0
   56.7567   32.6259   42.9756 H   0  0  0  0  0  0  0  0  0  0  0  0
   58.5227   32.8800   42.7235 H   0  0  0  0  0  0  0  0  0  0  0  0
   58.8180   30.6020   42.9870 H   0  0  0  0  0  0  0  0  0  0  0  0
   58.0306   28.1681   42.3418 H   0  0  0  0  0  0  0  0  0  0  0  0
   58.4405   25.7267   43.1711 H   0  0  0  0  0  0  0  0  0  0  0  0
   59.9990   33.1160   44.7170 H   0  0  0  0  0  0  0  0  0  0  0  0
   61.7679   33.5037   45.4130 H   0  0  0  0  0  0  0  0  0  0  0  0
   63.9967   33.4225   46.5300 H   0  0  0  0  0  0  0  0  0  0  0  0
   64.1831   33.8256   48.9863 H   0  0  0  0  0  0  0  0  0  0  0  0
   62.1370   34.3171   50.3282 H   0  0  0  0  0  0  0  0  0  0  0  0
   59.9023   34.3899   49.2262 H   0  0  0  0  0  0  0  0  0  0  0  0
  1  2  2  0
  2  3  1  0
  3  4  1  0
  4  5  1  0
  5  6  2  0
  5  7  1  0
  7  8  2  0
  8  9  1  0
  9 10  2  0
 10 11  1  0
 10 12  1  0
  2 13  1  0
 13 14  1  0
 14 15  2  0
 14 16  1  0
 16 17  2  0
 17 18  1  0
 18 19  2  0
 19 20  1  0
 20 21  2  0
 12  7  1  0
 21 16  1  0
  3 22  1  0
  3 23  1  0
  4 24  1  0
  8 25  1  0
  9 26  1  0
 13 27  1  0
 17 28  1  0
 18 29  1  0
 19 30  1  0
 20 31  1  0
 21 32  1  0
M  END
>  <UniqueID>  (88) 
85

>  <SMILES>  (88) 
O=C(CNC(=O)c1ccc(Cl)s1)NC(=O)c1ccccc1

>  <Energy>  (88) 
57.665341633399514

>  <Genealogy>  (88) 
O=C(CNC(=O)c1ccc(Cl)s1)NC(=O)c1ccccc1 (3D coordinates assigned)
O=C(CNC(=O)c1ccc(Cl)s1)NC(=O)c1ccccc1 (optimized conformer: 57.665341633399514 kcal/mol)

>  <smiles>  (88) 
O=C(CNC(=O)c1ccc(Cl)s1)NC(=O)c1ccccc1

>  <score_type>  (88) 
oracle

>  <origin>  (88) 
adg

>  <m_score__min__energy>  (88) 
-8.0099999999999998

>  <m_primary>  (88) 
energy

$$$$
88:0
     RDKit          3D

 43 45  0  0  0  0  0  0  0  0999 V2000
   55.8960   28.5570   45.2610 O   0  0  0  0  0  0  0  0  0  0  0  0
   57.0380   28.1520   45.6140 C   0  0  0  0  0  0  0  0  0  0  0  0
   58.2020   28.9570   45.3790 N   0  0  0  0  0  0  0  0  0  0  0  0
   58.1660   30.3150   44.9120 C   0  0  0  0  0  0  0  0  0  0  0  0
   57.7240   30.5830   43.6080 C   0  0  0  0  0  0  0  0  0  0  0  0
   57.7070   31.8920   43.1220 C   0  0  0  0  0  0  0  0  0  0  0  0
   58.1370   32.9460   43.9300 C   0  0  0  0  0  0  0  0  0  0  0  0
   58.5870   32.7000   45.2350 C   0  0  0  0  0  0  0  0  0  0  0  0
   59.0820   33.8050   46.0810 C   0  0  0  0  0  0  0  0  0  0  0  0
   58.5640   34.9470   45.9510 O   0  0  0  0  0  0  0  0  0  0  0  0
   60.1420   33.6090   47.0340 N   0  0  0  0  0  0  0  0  0  0  0  0
   60.4270   34.5620   48.0950 C   0  0  0  0  0  0  0  0  0  0  0  0
   61.8180   34.2120   48.6060 C   0  0  0  0  0  0  0  0  0  0  0  0
   62.1300   32.8200   48.0640 C   0  0  0  0  0  0  0  0  0  0  0  0
   61.1870   32.6070   46.8880 C   0  0  0  0  0  0  0  0  0  0  0  0
   58.6230   31.3790   45.7140 C   0  0  0  0  0  0  0  0  0  0  0  0
   57.1870   26.9110   46.2440 O   0  0  0  0  0  0  0  0  0  0  0  0
   56.7360   25.6950   45.7110 C   0  0  0  0  0  0  0  0  0  0  0  0
   57.6860   24.7870   45.2360 C   0  0  0  0  0  0  0  0  0  0  0  0
   57.2880   23.5610   44.7050 C   0  0  0  0  0  0  0  0  0  0  0  0
   55.9340   23.2350   44.6330 C   0  0  0  0  0  0  0  0  0  0  0  0
   54.9530   24.1400   45.0790 C   0  0  0  0  0  0  0  0  0  0  0  0
   53.5200   23.7640   44.9710 C   0  0  0  0  0  0  0  0  0  0  0  0
   53.0140   23.4400   43.8640 O   0  0  0  0  0  0  0  0  0  0  0  0
   52.7080   23.7680   46.0990 O   0  0  0  0  0  0  0  0  0  0  0  0
   55.3630   25.3860   45.6080 C   0  0  0  0  0  0  0  0  0  0  0  0
   54.4200   26.3330   45.9960 O   0  0  0  0  0  0  0  0  0  0  0  0
   59.1320   28.4870   45.4630 H   0  0  0  0  0  0  0  0  0  0  0  0
   57.3886   29.7567   42.9641 H   0  0  0  0  0  0  0  0  0  0  0  0
   57.3539   32.0931   42.0998 H   0  0  0  0  0  0  0  0  0  0  0  0
   58.1227   33.9748   43.5409 H   0  0  0  0  0  0  0  0  0  0  0  0
   60.4109   35.5891   47.7016 H   0  0  0  0  0  0  0  0  0  0  0  0
   59.6765   34.5101   48.8975 H   0  0  0  0  0  0  0  0  0  0  0  0
   62.5550   34.9399   48.2359 H   0  0  0  0  0  0  0  0  0  0  0  0
   61.8598   34.2341   49.7050 H   0  0  0  0  0  0  0  0  0  0  0  0
   63.1765   32.7657   47.7295 H   0  0  0  0  0  0  0  0  0  0  0  0
   61.9937   32.0474   48.8350 H   0  0  0  0  0  0  0  0  0  0  0  0
   61.7222   32.7468   45.9372 H   0  0  0  0  0  0  0  0  0  0  0  0
   60.7734   31.5877   46.8790 H   0  0  0  0  0  0  0  0  0  0  0  0
   59.0110   31.1746   46.7228 H   0  0  0  0  0  0  0  0  0  0  0  0
   58.7552   25.0413   45.2814 H   0  0  0  0  0  0  0  0  0  0  0  0
   58.0438   22.8490   44.3419 H   0  0  0  0  0  0  0  0  0  0  0  0
   55.6297   22.2605   44.2234 H   0  0  0  0  0  0  0  0  0  0  0  0
  1  2  2  0
  2  3  1  0
  3  4  1  0
  4  5  2  0
  5  6  1  0
  6  7  2  0
  7  8  1  0
  8  9  1  0
  9 10  2  0
  9 11  1  0
 11 12  1  0
 12 13  1  0
 13 14  1  0
 14 15  1  0
  8 16  2  0
  2 17  1  0
 17 18  1  0
 18 19  2  0
 19 20  1  0
 20 21  2  0
 21 22  1  0
 22 23  1  0
 23 24  2  0
 23 25  1  0
 22 26  2  0
 26 27  1  0
 16  4  1  0
 26 18  1  0
 15 11  1  0
  3 28  1  0
  5 29  1  0
  6 30  1  0
  7 31  1  0
 12 32  1  0
 12 33  1  0
 13 34  1  0
 13 35  1  0
 14 36  1  0
 14 37  1  0
 15 38  1  0
 15 39  1  0
 16 40  1  0
 19 41  1  0
 20 42  1  0
 21 43  1  0
M  CHG  2  25  -1  27  -1
M  END
>  <UniqueID>  (89) 
86

>  <SMILES>  (89) 
O=C(Nc1cccc(C(=O)N2CCCC2)c1)Oc1cccc(C(=O)[O-])c1[O-]

>  <Energy>  (89) 
61.1986305264793

>  <Genealogy>  (89) 
O=C(Nc1cccc(C(=O)N2CCCC2)c1)Oc1cccc(C(=O)[O-])c1[O-] (protonated)
O=C(Nc1cccc(C(=O)N2CCCC2)c1)Oc1cccc(C(=O)[O-])c1[O-] (3D coordinates assigned)
O=C(Nc1cccc(C(=O)N2CCCC2)c1)Oc1cccc(C(=O)[O-])c1[O-] (nonaromatic ring conformer: 61.1986305264793 kcal/mol)

>  <smiles>  (89) 
O=C(Nc1cccc(C(=O)N2CCCC2)c1)Oc1cccc(C(=O)O)c1O

>  <score_type>  (89) 
oracle

>  <origin>  (89) 
adg

>  <m_score__min__energy>  (89) 
-15.32

>  <m_primary>  (89) 
energy

$$$$
89:0
     RDKit          3D

 34 36  0  0  0  0  0  0  0  0999 V2000
   54.9690   31.9740   52.3720 O   0  0  0  0  0  0  0  0  0  0  0  0
   55.2880   30.7810   52.1170 C   0  0  0  0  0  0  0  0  0  0  0  0
   56.4780   30.5030   51.3680 N   0  0  0  0  0  0  0  0  0  0  0  0
   57.6650   31.3490   51.3910 C   0  0  0  0  0  0  0  0  0  0  0  0
   58.4370   31.1990   50.1080 C   0  0  0  0  0  0  0  0  0  0  0  0
   58.8950   29.9330   49.7090 C   0  0  0  0  0  0  0  0  0  0  0  0
   59.5940   29.7840   48.5070 C   0  0  0  0  0  0  0  0  0  0  0  0
   59.8350   30.8960   47.6940 C   0  0  0  0  0  0  0  0  0  0  0  0
   59.3760   32.1580   48.0830 C   0  0  0  0  0  0  0  0  0  0  0  0
   58.6780   32.3100   49.2840 C   0  0  0  0  0  0  0  0  0  0  0  0
   54.4190   29.6700   52.5670 C   0  0  0  0  0  0  0  0  0  0  0  0
   53.0040   29.7760   52.5670 C   0  0  0  0  0  0  0  0  0  0  0  0
   52.2940   30.9280   51.9650 C   0  0  0  0  0  0  0  0  0  0  0  0
   52.1890   31.2230   50.6200 C   0  0  0  0  0  0  0  0  0  0  0  0
   51.3980   32.3500   50.5510 C   0  0  0  0  0  0  0  0  0  0  0  0
   51.0410   32.9890   49.3710 O   0  0  0  0  0  0  0  0  0  0  0  0
   50.9970   32.7700   51.7670 N   0  0  0  0  0  0  0  0  0  0  0  0
   51.5460   31.8890   52.6240 C   0  0  0  0  0  0  0  0  0  0  0  0
   51.3800   31.9670   54.0010 O   0  0  0  0  0  0  0  0  0  0  0  0
   52.2400   28.7230   53.0940 C   0  0  0  0  0  0  0  0  0  0  0  0
   52.8730   27.5820   53.5850 C   0  0  0  0  0  0  0  0  0  0  0  0
   52.1900   26.6300   54.0460 O   0  0  0  0  0  0  0  0  0  0  0  0
   54.2250   27.4900   53.5570 N   0  0  0  0  0  0  0  0  0  0  0  0
   55.0050   28.4900   53.0700 C   0  0  0  0  0  0  0  0  0  0  0  0
   56.3870   28.3380   53.0990 O   0  0  0  0  0  0  0  0  0  0  0  0
   57.3601   32.3991   51.5106 H   0  0  0  0  0  0  0  0  0  0  0  0
   58.3054   31.0449   52.2321 H   0  0  0  0  0  0  0  0  0  0  0  0
   58.7033   29.0555   50.3440 H   0  0  0  0  0  0  0  0  0  0  0  0
   59.9547   28.7910   48.2007 H   0  0  0  0  0  0  0  0  0  0  0  0
   60.3854   30.7778   46.7490 H   0  0  0  0  0  0  0  0  0  0  0  0
   59.5646   33.0324   47.4428 H   0  0  0  0  0  0  0  0  0  0  0  0
   58.3159   33.3041   49.5851 H   0  0  0  0  0  0  0  0  0  0  0  0
   52.6412   30.6744   49.7806 H   0  0  0  0  0  0  0  0  0  0  0  0
   51.1429   28.7980   53.1196 H   0  0  0  0  0  0  0  0  0  0  0  0
  1  2  2  0
  2  3  1  0
  3  4  1  0
  4  5  1  0
  5  6  2  0
  6  7  1  0
  7  8  2  0
  8  9  1  0
  9 10  2  0
  2 11  1  0
 11 12  1  0
 12 13  1  0
 13 14  1  0
 14 15  2  0
 15 16  1  0
 15 17  1  0
 17 18  1  0
 18 19  1  0
 12 20  2  0
 20 21  1  0
 21 22  2  0
 21 23  1  0
 23 24  1  0
 24 25  1  0
 10  5  1  0
 24 11  2  0
 18 13  2  0
  4 26  1  0
  4 27  1  0
  6 28  1  0
  7 29  1  0
  8 30  1  0
  9 31  1  0
 10 32  1  0
 14 33  1  0
 20 34  1  0
M  CHG  6   3  -1  16  -1  17  -1  19  -1  23  -1  25  -1
M  END
>  <UniqueID>  (90) 
87

>  <SMILES>  (90) 
O=C([N-]Cc1ccccc1)c1c(-c2cc([O-])[n-]c2[O-])cc(=O)[n-]c1[O-]

>  <Energy>  (90) 
73.05105770459201

>  <Genealogy>  (90) 
O=C([N-]Cc1ccccc1)c1c(-c2cc([O-])[n-]c2[O-])cc(=O)[n-]c1[O-] (protonated)
O=C([N-]Cc1ccccc1)c1c(-c2cc([O-])[n-]c2[O-])cc(=O)[n-]c1[O-] (3D coordinates assigned)
O=C([N-]Cc1ccccc1)c1c(-c2cc([O-])[n-]c2[O-])cc(=O)[n-]c1[O-] (optimized conformer: 73.05105770459201 kcal/mol)

>  <smiles>  (90) 
O=C(NCc1ccccc1)c1c(-c2cc(O)[nH]c2O)cc(=O)[nH]c1O

>  <score_type>  (90) 
oracle

>  <origin>  (90) 
adg

>  <m_score__min__energy>  (90) 
-18.100000000000001

>  <m_primary>  (90) 
energy

$$$$
