0:0
     RDKit          3D

 60 62  0  0  0  0  0  0  0  0999 V2000
   64.8800   32.8910   46.6580 H   0  0  0  0  0  0  0  0  0  0  0  0
   63.9960   33.4410   46.7470 N   0  0  0  0  0  0  0  0  0  0  0  0
   62.9690   33.0060   47.4070 C   0  0  0  0  0  0  0  0  0  0  0  0
   63.1650   32.2600   48.5210 N   0  0  0  0  0  0  0  0  0  0  0  0
   62.1370   31.7720   49.2670 C   0  0  0  0  0  0  0  0  0  0  0  0
   62.4750   30.9540   50.4810 C   0  0  0  0  0  0  0  0  0  0  0  0
   62.2375   31.5289   51.3882 H   0  0  0  0  0  0  0  0  0  0  0  0
   61.8874   30.0241   50.4718 H   0  0  0  0  0  0  0  0  0  0  0  0
   63.5476   30.7101   50.4718 H   0  0  0  0  0  0  0  0  0  0  0  0
   60.7980   32.0630   48.8990 C   0  0  0  0  0  0  0  0  0  0  0  0
   59.6360   31.5320   49.7130 C   0  0  0  0  0  0  0  0  0  0  0  0
   59.7118   31.9012   50.7464 H   0  0  0  0  0  0  0  0  0  0  0  0
   58.6888   31.8762   49.2723 H   0  0  0  0  0  0  0  0  0  0  0  0
   59.6750   30.0760   49.7120 N   0  0  0  0  0  0  0  0  0  0  0  0
   59.9290   29.2350   48.5780 C   0  0  0  0  0  0  0  0  0  0  0  0
   61.0970   28.7950   48.4110 O   0  0  0  0  0  0  0  0  0  0  0  0
   58.8970   28.8990   47.5740 C   0  0  0  0  0  0  0  0  0  0  0  0
   58.3560   29.7170   46.6010 C   0  0  0  0  0  0  0  0  0  0  0  0
   58.6487   30.7534   46.3768 H   0  0  0  0  0  0  0  0  0  0  0  0
   57.3740   28.9790   45.9630 C   0  0  0  0  0  0  0  0  0  0  0  0
   56.5490   29.5080   44.8580 C   0  0  0  0  0  0  0  0  0  0  0  0
   57.1040   30.1250   43.9110 O   0  0  0  0  0  0  0  0  0  0  0  0
   55.1440   29.2830   44.8080 N   0  0  0  0  0  0  0  0  0  0  0  0
   54.5580   29.3470   45.6700 H   0  0  0  0  0  0  0  0  0  0  0  0
   57.2900   27.7440   46.5250 N   0  0  0  0  0  0  0  0  0  0  0  0
   56.2850   26.6980   46.3070 C   0  0  0  0  0  0  0  0  0  0  0  0
   55.7944   26.4607   47.2625 H   0  0  0  0  0  0  0  0  0  0  0  0
   55.5409   27.0607   45.5826 H   0  0  0  0  0  0  0  0  0  0  0  0
   56.9370   25.4560   45.7610 C   0  0  0  0  0  0  0  0  0  0  0  0
   57.2790   24.4050   46.6280 C   0  0  0  0  0  0  0  0  0  0  0  0
   57.0931   24.5043   47.7076 H   0  0  0  0  0  0  0  0  0  0  0  0
   57.8540   23.2340   46.1270 C   0  0  0  0  0  0  0  0  0  0  0  0
   58.1331   22.4230   46.8157 H   0  0  0  0  0  0  0  0  0  0  0  0
   58.0770   23.0880   44.7490 C   0  0  0  0  0  0  0  0  0  0  0  0
   58.7270   21.8370   44.2130 C   0  0  0  0  0  0  0  0  0  0  0  0
   59.6585   22.1125   43.6969 H   0  0  0  0  0  0  0  0  0  0  0  0
   58.9293   21.1658   45.0607 H   0  0  0  0  0  0  0  0  0  0  0  0
   57.8120   21.0990   43.2270 C   0  0  0  0  0  0  0  0  0  0  0  0
   58.0955   21.3759   42.2009 H   0  0  0  0  0  0  0  0  0  0  0  0
   57.9320   20.0176   43.3889 H   0  0  0  0  0  0  0  0  0  0  0  0
   56.3720   21.4490   43.4450 C   0  0  0  0  0  0  0  0  0  0  0  0
   55.7830   22.2150   42.6340 O   0  0  0  0  0  0  0  0  0  0  0  0
   55.6620   20.8790   44.5480 N   0  0  0  0  0  0  0  0  0  0  0  0
   55.0460   21.6890   45.5870 C   0  0  0  0  0  0  0  0  0  0  0  0
   55.3392   21.3035   46.5746 H   0  0  0  0  0  0  0  0  0  0  0  0
   55.3813   22.7318   45.4861 H   0  0  0  0  0  0  0  0  0  0  0  0
   53.9515   21.6444   45.4861 H   0  0  0  0  0  0  0  0  0  0  0  0
   57.7380   24.1390   43.8820 C   0  0  0  0  0  0  0  0  0  0  0  0
   57.9198   24.0375   42.8019 H   0  0  0  0  0  0  0  0  0  0  0  0
   57.1710   25.3130   44.3840 C   0  0  0  0  0  0  0  0  0  0  0  0
   56.9064   26.1300   43.6966 H   0  0  0  0  0  0  0  0  0  0  0  0
   58.2060   27.7050   47.5140 C   0  0  0  0  0  0  0  0  0  0  0  0
   58.3781   26.8450   48.1779 H   0  0  0  0  0  0  0  0  0  0  0  0
   60.5730   32.8070   47.7120 C   0  0  0  0  0  0  0  0  0  0  0  0
   59.1810   33.1170   47.2220 C   0  0  0  0  0  0  0  0  0  0  0  0
   58.5136   33.2656   48.0837 H   0  0  0  0  0  0  0  0  0  0  0  0
   59.2022   34.0324   46.6124 H   0  0  0  0  0  0  0  0  0  0  0  0
   58.8118   32.2791   46.6124 H   0  0  0  0  0  0  0  0  0  0  0  0
   61.6680   33.2900   46.9820 C   0  0  0  0  0  0  0  0  0  0  0  0
   61.5036   33.8917   46.0759 H   0  0  0  0  0  0  0  0  0  0  0  0
  1  2  1  0
  2  3  2  0
  3  4  1  0
  4  5  1  0
  5  6  1  0
  6  7  1  0
  6  8  1  0
  6  9  1  0
  5 10  2  0
 10 11  1  0
 11 12  1  0
 11 13  1  0
 11 14  1  0
 14 15  1  0
 15 16  2  0
 15 17  1  0
 17 18  1  0
 18 19  1  0
 18 20  2  0
 20 21  1  0
 21 22  2  0
 21 23  1  0
 23 24  1  0
 20 25  1  0
 25 26  1  0
 26 27  1  0
 26 28  1  0
 26 29  1  0
 29 30  2  0
 30 31  1  0
 30 32  1  0
 32 33  1  0
 32 34  2  0
 34 35  1  0
 35 36  1  0
 35 37  1  0
 35 38  1  0
 38 39  1  0
 38 40  1  0
 38 41  1  0
 41 42  2  0
 41 43  1  0
 43 44  1  0
 44 45  1  0
 44 46  1  0
 44 47  1  0
 34 48  1  0
 48 49  1  0
 48 50  2  0
 50 51  1  0
 25 52  1  0
 52 53  1  0
 10 54  1  0
 54 55  1  0
 55 56  1  0
 55 57  1  0
 55 58  1  0
 54 59  2  0
 59 60  1  0
 59  3  1  0
 52 17  2  0
 50 29  1  0
M  CHG  4   4  -1  14  -1  23  -1  43  -1
M  END
>  <UniqueID>  (1) 
1

>  <SMILES>  (1) 
[H]/N=c1\cc(C)c(C[N-]C(=O)c2cc(C([NH-])=O)n(Cc3ccc(CCC(=O)[N-]C)cc3)c2)c(C)[n-]1

>  <Energy>  (1) 
85.97709073293244

>  <Genealogy>  (1) 
C[N-]C(=O)CCc1ccc(Cn2cc(C(=O)[N-]Cc3c(C)cc(=N)[n-]c3C)cc2C([NH-])=O)cc1 (protonated)
[H]/N=c1\cc(C)c(C[N-]C(=O)c2cc(C([NH-])=O)n(Cc3ccc(CCC(=O)[N-]C)cc3)c2)c(C)[n-]1 (cis-trans isomerization)
[H]/N=c1\cc(C)c(C[N-]C(=O)c2cc(C([NH-])=O)n(Cc3ccc(CCC(=O)[N-]C)cc3)c2)c(C)[n-]1 (3D coordinates assigned)
[H]/N=c1\cc(C)c(C[N-]C(=O)c2cc(C([NH-])=O)n(Cc3ccc(CCC(=O)[N-]C)cc3)c2)c(C)[n-]1 (optimized conformer: 85.97709073293244 kcal/mol)

>  <smiles>  (1) 
CNC(=O)CCc1ccc(Cn2cc(C(=O)NCc3c(C)cc(=N)[nH]c3C)cc2C(N)=O)cc1

>  <score_type>  (1) 
oracle

>  <origin>  (1) 
adg

>  <m_score__min__energy>  (1) 
-15.33

>  <m_primary>  (1) 
energy

$$$$
1:0
     RDKit          3D

 52 54  0  0  0  0  0  0  0  0999 V2000
   63.6230   32.8950   46.7900 C   0  0  0  0  0  0  0  0  0  0  0  0
   62.7700   32.9390   48.0240 C   0  0  0  0  0  0  0  0  0  0  0  0
   62.4390   34.1640   48.6260 C   0  0  0  0  0  0  0  0  0  0  0  0
   61.6480   34.1910   49.7790 C   0  0  0  0  0  0  0  0  0  0  0  0
   61.1860   33.0000   50.3430 C   0  0  0  0  0  0  0  0  0  0  0  0
   60.4150   33.0480   51.4580 F   0  0  0  0  0  0  0  0  0  0  0  0
   61.5190   31.7690   49.7560 C   0  0  0  0  0  0  0  0  0  0  0  0
   60.9560   30.2660   50.4870 S   0  0  0  0  0  0  0  0  0  0  0  0
   59.5130   30.3680   50.8980 O   0  0  0  0  0  0  0  0  0  0  0  0
   61.7870   29.9780   51.7040 O   0  0  0  0  0  0  0  0  0  0  0  0
   61.1360   28.9660   49.3520 N   0  0  0  0  0  0  0  0  0  0  0  0
   60.2350   28.6830   48.2720 C   0  0  0  0  0  0  0  0  0  0  0  0
   59.8730   29.6600   47.3250 C   0  0  0  0  0  0  0  0  0  0  0  0
   58.9960   29.3430   46.2850 C   0  0  0  0  0  0  0  0  0  0  0  0
   58.4800   28.0460   46.1620 C   0  0  0  0  0  0  0  0  0  0  0  0
   57.5250   27.7170   45.0470 C   0  0  0  0  0  0  0  0  0  0  0  0
   56.3430   28.5680   45.1280 N   0  0  0  0  0  0  0  0  0  0  0  0
   56.2340   29.8360   44.4700 C   0  0  0  0  0  0  0  0  0  0  0  0
   55.1590   30.4920   44.5360 O   0  0  0  0  0  0  0  0  0  0  0  0
   57.4040   30.3720   43.7490 C   0  0  0  0  0  0  0  0  0  0  0  0
   57.6800   31.6770   43.5930 C   0  0  0  0  0  0  0  0  0  0  0  0
   58.1630   32.5720   44.6670 C   0  0  0  0  0  0  0  0  0  0  0  0
   58.7240   33.8080   44.3400 C   0  0  0  0  0  0  0  0  0  0  0  0
   59.1750   34.6550   45.3500 C   0  0  0  0  0  0  0  0  0  0  0  0
   59.0310   34.2770   46.6880 C   0  0  0  0  0  0  0  0  0  0  0  0
   59.4700   35.0420   47.5920 O   0  0  0  0  0  0  0  0  0  0  0  0
   58.4180   33.0900   47.0080 N   0  0  0  0  0  0  0  0  0  0  0  0
   58.2660   32.6750   48.4090 C   0  0  0  0  0  0  0  0  0  0  0  0
   57.9980   32.2410   46.0220 C   0  0  0  0  0  0  0  0  0  0  0  0
   58.8300   27.0740   47.1120 C   0  0  0  0  0  0  0  0  0  0  0  0
   59.6990   27.3920   48.1610 C   0  0  0  0  0  0  0  0  0  0  0  0
   60.0270   26.4390   49.0690 F   0  0  0  0  0  0  0  0  0  0  0  0
   62.3090   31.7440   48.5950 C   0  0  0  0  0  0  0  0  0  0  0  0
   64.6830   32.8403   47.0788 H   0  0  0  0  0  0  0  0  0  0  0  0
   63.3593   32.0093   46.1934 H   0  0  0  0  0  0  0  0  0  0  0  0
   63.4519   33.8032   46.1934 H   0  0  0  0  0  0  0  0  0  0  0  0
   62.8032   35.1055   48.1891 H   0  0  0  0  0  0  0  0  0  0  0  0
   61.3888   35.1539   50.2433 H   0  0  0  0  0  0  0  0  0  0  0  0
   60.2827   30.6777   47.4045 H   0  0  0  0  0  0  0  0  0  0  0  0
   58.7085   30.1166   45.5578 H   0  0  0  0  0  0  0  0  0  0  0  0
   58.0246   27.8803   44.0807 H   0  0  0  0  0  0  0  0  0  0  0  0
   57.2165   26.6650   45.1375 H   0  0  0  0  0  0  0  0  0  0  0  0
   58.1034   29.6479   43.3056 H   0  0  0  0  0  0  0  0  0  0  0  0
   57.5363   32.1123   42.5931 H   0  0  0  0  0  0  0  0  0  0  0  0
   58.8098   34.1126   43.2865 H   0  0  0  0  0  0  0  0  0  0  0  0
   59.6426   35.6176   45.0955 H   0  0  0  0  0  0  0  0  0  0  0  0
   58.5682   33.5001   49.0707 H   0  0  0  0  0  0  0  0  0  0  0  0
   57.2146   32.4160   48.6027 H   0  0  0  0  0  0  0  0  0  0  0  0
   58.9013   31.7982   48.6027 H   0  0  0  0  0  0  0  0  0  0  0  0
   57.5245   31.2860   46.2935 H   0  0  0  0  0  0  0  0  0  0  0  0
   58.4189   26.0569   47.0312 H   0  0  0  0  0  0  0  0  0  0  0  0
   62.5677   30.7810   48.1307 H   0  0  0  0  0  0  0  0  0  0  0  0
  1  2  1  0
  2  3  2  0
  3  4  1  0
  4  5  2  0
  5  6  1  0
  5  7  1  0
  7  8  1  0
  8  9  2  0
  8 10  2  0
  8 11  1  0
 11 12  1  0
 12 13  2  0
 13 14  1  0
 14 15  2  0
 15 16  1  0
 16 17  1  0
 17 18  1  0
 18 19  2  0
 18 20  1  0
 20 21  2  3
 21 22  1  0
 22 23  1  0
 23 24  2  0
 24 25  1  0
 25 26  2  0
 25 27  1  0
 27 28  1  0
 27 29  1  0
 15 30  1  0
 30 31  2  0
 31 32  1  0
  7 33  2  0
 33  2  1  0
 31 12  1  0
 29 22  2  0
  1 34  1  0
  1 35  1  0
  1 36  1  0
  3 37  1  0
  4 38  1  0
 13 39  1  0
 14 40  1  0
 16 41  1  0
 16 42  1  0
 20 43  1  0
 21 44  1  0
 23 45  1  0
 24 46  1  0
 28 47  1  0
 28 48  1  0
 28 49  1  0
 29 50  1  0
 30 51  1  0
 33 52  1  0
M  CHG  2  11  -1  17  -1
M  END
>  <UniqueID>  (2) 
2

>  <SMILES>  (2) 
Cc1ccc(F)c(S(=O)(=O)[N-]c2ccc(C[N-]C(=O)C=Cc3ccc(=O)n(C)c3)cc2F)c1

>  <Energy>  (2) 
64.83263950660195

>  <Genealogy>  (2) 
Cc1ccc(F)c(S(=O)(=O)[N-]c2ccc(C[N-]C(=O)C=Cc3ccc(=O)n(C)c3)cc2F)c1 (protonated)
Cc1ccc(F)c(S(=O)(=O)[N-]c2ccc(C[N-]C(=O)C=Cc3ccc(=O)n(C)c3)cc2F)c1 (3D coordinates assigned)
Cc1ccc(F)c(S(=O)(=O)[N-]c2ccc(C[N-]C(=O)C=Cc3ccc(=O)n(C)c3)cc2F)c1 (optimized conformer: 64.83263950660195 kcal/mol)

>  <smiles>  (2) 
Cc1ccc(F)c(S(=O)(=O)Nc2ccc(CNC(=O)C=Cc3ccc(=O)n(C)c3)cc2F)c1

>  <score_type>  (2) 
oracle

>  <origin>  (2) 
adg

>  <m_score__min__energy>  (2) 
-12.220000000000001

>  <m_primary>  (2) 
energy

$$$$
2:0
     RDKit          3D

 45 47  0  0  0  0  0  0  0  0999 V2000
   61.4349   29.2586   47.3983 H   0  0  0  0  0  0  0  0  0  0  0  0
   60.3770   29.4190   47.1430 C   0  0  0  0  0  0  0  0  0  0  0  0
   59.6010   30.3320   48.0110 C   0  0  0  0  0  0  0  0  0  0  0  0
   58.9680   31.2710   47.4580 O   0  0  0  0  0  0  0  0  0  0  0  0
   59.4940   30.1590   49.4820 C   0  0  0  0  0  0  0  0  0  0  0  0
   60.6600   30.0900   50.2640 C   0  0  0  0  0  0  0  0  0  0  0  0
   61.6457   30.1824   49.7847 H   0  0  0  0  0  0  0  0  0  0  0  0
   60.5750   29.9050   51.6450 C   0  0  0  0  0  0  0  0  0  0  0  0
   61.4933   29.8275   52.2457 H   0  0  0  0  0  0  0  0  0  0  0  0
   59.3270   29.8180   52.2660 C   0  0  0  0  0  0  0  0  0  0  0  0
   59.2664   29.6598   53.3529 H   0  0  0  0  0  0  0  0  0  0  0  0
   58.1540   29.9310   51.5130 C   0  0  0  0  0  0  0  0  0  0  0  0
   56.8890   29.8450   52.1880 N   0  0  0  0  0  0  0  0  0  0  0  0
   55.7360   30.6810   52.0020 C   0  0  0  0  0  0  0  0  0  0  0  0
   55.8760   31.9290   52.0960 O   0  0  0  0  0  0  0  0  0  0  0  0
   54.3750   30.1350   51.6730 C   0  0  0  0  0  0  0  0  0  0  0  0
   54.4328   29.5544   50.7405 H   0  0  0  0  0  0  0  0  0  0  0  0
   54.0394   29.4903   52.4987 H   0  0  0  0  0  0  0  0  0  0  0  0
   53.4410   31.1990   51.5070 O   0  0  0  0  0  0  0  0  0  0  0  0
   52.3460   31.4330   52.3510 C   0  0  0  0  0  0  0  0  0  0  0  0
   52.2380   30.8370   53.6240 C   0  0  0  0  0  0  0  0  0  0  0  0
   53.0360   30.1732   53.9881 H   0  0  0  0  0  0  0  0  0  0  0  0
   51.1200   31.0870   54.4250 C   0  0  0  0  0  0  0  0  0  0  0  0
   51.0397   30.6185   55.4170 H   0  0  0  0  0  0  0  0  0  0  0  0
   50.1040   31.9310   53.9680 C   0  0  0  0  0  0  0  0  0  0  0  0
   49.2234   32.1233   54.5985 H   0  0  0  0  0  0  0  0  0  0  0  0
   50.2070   32.5300   52.7110 C   0  0  0  0  0  0  0  0  0  0  0  0
   49.4093   33.1984   52.3547 H   0  0  0  0  0  0  0  0  0  0  0  0
   51.3230   32.2820   51.9030 C   0  0  0  0  0  0  0  0  0  0  0  0
   51.4090   32.8750   50.6470 O   0  0  0  0  0  0  0  0  0  0  0  0
   58.2410   30.0760   50.1170 C   0  0  0  0  0  0  0  0  0  0  0  0
   57.3211   30.1250   49.5158 H   0  0  0  0  0  0  0  0  0  0  0  0
   59.8980   28.7700   46.0700 C   0  0  0  0  0  0  0  0  0  0  0  0
   60.5426   28.7184   45.1802 H   0  0  0  0  0  0  0  0  0  0  0  0
   58.5730   28.1190   45.9890 C   0  0  0  0  0  0  0  0  0  0  0  0
   58.3780   26.7920   46.4090 C   0  0  0  0  0  0  0  0  0  0  0  0
   59.2255   26.2127   46.8041 H   0  0  0  0  0  0  0  0  0  0  0  0
   57.1120   26.2050   46.3270 C   0  0  0  0  0  0  0  0  0  0  0  0
   56.9631   25.1706   46.6703 H   0  0  0  0  0  0  0  0  0  0  0  0
   56.0340   26.9310   45.8090 C   0  0  0  0  0  0  0  0  0  0  0  0
   54.7760   26.3440   45.7360 O   0  0  0  0  0  0  0  0  0  0  0  0
   56.2270   28.2440   45.3640 C   0  0  0  0  0  0  0  0  0  0  0  0
   55.1620   28.9690   44.8400 O   0  0  0  0  0  0  0  0  0  0  0  0
   57.4940   28.8320   45.4430 C   0  0  0  0  0  0  0  0  0  0  0  0
   57.6454   29.8577   45.0756 H   0  0  0  0  0  0  0  0  0  0  0  0
  1  2  1  0
  2  3  1  0
  3  4  2  0
  3  5  1  0
  5  6  2  0
  6  7  1  0
  6  8  1  0
  8  9  1  0
  8 10  2  0
 10 11  1  0
 10 12  1  0
 12 13  1  0
 13 14  1  0
 14 15  2  0
 14 16  1  0
 16 17  1  0
 16 18  1  0
 16 19  1  0
 19 20  1  0
 20 21  2  0
 21 22  1  0
 21 23  1  0
 23 24  1  0
 23 25  2  0
 25 26  1  0
 25 27  1  0
 27 28  1  0
 27 29  2  0
 29 30  1  0
 12 31  2  0
 31 32  1  0
  2 33  2  0
 33 34  1  0
 33 35  1  0
 35 36  2  0
 36 37  1  0
 36 38  1  0
 38 39  1  0
 38 40  2  0
 40 41  1  0
 40 42  1  0
 42 43  1  0
 42 44  2  0
 44 45  1  0
 31  5  1  0
 44 35  1  0
 29 20  1  0
M  CHG  4  13  -1  30  -1  41  -1  43  -1
M  END
>  <UniqueID>  (3) 
3

>  <SMILES>  (3) 
O=C(COc1ccccc1[O-])[N-]c1cccc(C(=O)/C=C\c2ccc([O-])c([O-])c2)c1

>  <Energy>  (3) 
60.476389210751805

>  <Genealogy>  (3) 
O=C(COc1ccccc1[O-])[N-]c1cccc(C(=O)C=Cc2ccc([O-])c([O-])c2)c1 (protonated)
O=C(COc1ccccc1[O-])[N-]c1cccc(C(=O)/C=C\c2ccc([O-])c([O-])c2)c1 (cis-trans isomerization)
O=C(COc1ccccc1[O-])[N-]c1cccc(C(=O)/C=C\c2ccc([O-])c([O-])c2)c1 (3D coordinates assigned)
O=C(COc1ccccc1[O-])[N-]c1cccc(C(=O)/C=C\c2ccc([O-])c([O-])c2)c1 (optimized conformer: 60.476389210751805 kcal/mol)

>  <smiles>  (3) 
O=C(COc1ccccc1O)Nc1cccc(C(=O)C=Cc2ccc(O)c(O)c2)c1

>  <score_type>  (3) 
oracle

>  <origin>  (3) 
adg

>  <m_score__min__energy>  (3) 
-21.050000000000001

>  <m_primary>  (3) 
energy

$$$$
3:0
     RDKit          3D

 46 49  0  0  0  0  0  0  0  0999 V2000
   60.2003   21.8922   44.7843 H   0  0  0  0  0  0  0  0  0  0  0  0
   59.1130   21.8780   44.6180 C   0  0  0  0  0  0  0  0  0  0  0  0
   58.2690   22.2560   45.6140 N   0  0  0  0  0  0  0  0  0  0  0  0
   56.9140   22.2480   45.4550 C   0  0  0  0  0  0  0  0  0  0  0  0
   56.1180   22.6230   46.4150 N   0  0  0  0  0  0  0  0  0  0  0  0
   55.4530   23.8930   46.5310 C   0  0  0  0  0  0  0  0  0  0  0  0
   54.2140   23.9050   46.7540 O   0  0  0  0  0  0  0  0  0  0  0  0
   56.1840   25.1840   46.4560 C   0  0  0  0  0  0  0  0  0  0  0  0
   55.5240   26.3430   46.0120 C   0  0  0  0  0  0  0  0  0  0  0  0
   54.1890   26.2970   45.6250 O   0  0  0  0  0  0  0  0  0  0  0  0
   56.1910   27.5250   45.9380 N   0  0  0  0  0  0  0  0  0  0  0  0
   57.4980   27.6400   46.2870 C   0  0  0  0  0  0  0  0  0  0  0  0
   58.1360   28.8820   46.1860 C   0  0  0  0  0  0  0  0  0  0  0  0
   57.5742   29.7562   45.8254 H   0  0  0  0  0  0  0  0  0  0  0  0
   59.4900   29.0210   46.5420 C   0  0  0  0  0  0  0  0  0  0  0  0
   60.1780   30.3300   46.4430 C   0  0  0  0  0  0  0  0  0  0  0  0
   59.7490   31.1920   45.6270 O   0  0  0  0  0  0  0  0  0  0  0  0
   61.3130   30.6400   47.2710 N   0  0  0  0  0  0  0  0  0  0  0  0
   61.5890   29.9910   48.0410 H   0  0  0  0  0  0  0  0  0  0  0  0
   62.0550   31.8910   47.1410 C   0  0  0  0  0  0  0  0  0  0  0  0
   62.7612   31.9830   47.9793 H   0  0  0  0  0  0  0  0  0  0  0  0
   62.6021   31.8854   46.1867 H   0  0  0  0  0  0  0  0  0  0  0  0
   61.1100   33.0620   47.1570 C   0  0  0  0  0  0  0  0  0  0  0  0
   60.4100   33.3820   48.3320 C   0  0  0  0  0  0  0  0  0  0  0  0
   60.5652   32.7846   49.2425 H   0  0  0  0  0  0  0  0  0  0  0  0
   59.5160   34.4580   48.3480 C   0  0  0  0  0  0  0  0  0  0  0  0
   58.9726   34.7074   49.2713 H   0  0  0  0  0  0  0  0  0  0  0  0
   59.3130   35.2160   47.1920 C   0  0  0  0  0  0  0  0  0  0  0  0
   58.6099   36.0618   47.2062 H   0  0  0  0  0  0  0  0  0  0  0  0
   60.0020   34.9010   46.0180 C   0  0  0  0  0  0  0  0  0  0  0  0
   59.8397   35.4982   45.1086 H   0  0  0  0  0  0  0  0  0  0  0  0
   60.8980   33.8270   45.9980 C   0  0  0  0  0  0  0  0  0  0  0  0
   61.4382   33.5807   45.0720 H   0  0  0  0  0  0  0  0  0  0  0  0
   60.1870   27.8980   47.0210 C   0  0  0  0  0  0  0  0  0  0  0  0
   61.2415   27.9977   47.3178 H   0  0  0  0  0  0  0  0  0  0  0  0
   59.5540   26.6560   47.1240 C   0  0  0  0  0  0  0  0  0  0  0  0
   60.1145   25.7857   47.4961 H   0  0  0  0  0  0  0  0  0  0  0  0
   58.2060   26.5130   46.7550 C   0  0  0  0  0  0  0  0  0  0  0  0
   57.5360   25.2790   46.8480 C   0  0  0  0  0  0  0  0  0  0  0  0
   58.1370   24.2620   47.2920 O   0  0  0  0  0  0  0  0  0  0  0  0
   56.3690   21.8560   44.2260 C   0  0  0  0  0  0  0  0  0  0  0  0
   55.2790   21.8569   44.0779 H   0  0  0  0  0  0  0  0  0  0  0  0
   57.2190   21.4640   43.1900 C   0  0  0  0  0  0  0  0  0  0  0  0
   56.8005   21.1496   42.2225 H   0  0  0  0  0  0  0  0  0  0  0  0
   58.6020   21.4720   43.3850 C   0  0  0  0  0  0  0  0  0  0  0  0
   59.2800   21.1619   42.5762 H   0  0  0  0  0  0  0  0  0  0  0  0
  1  2  1  0
  2  3  1  0
  3  4  1  0
  4  5  2  0
  5  6  1  0
  6  7  2  0
  6  8  1  0
  8  9  2  0
  9 10  1  0
  9 11  1  0
 11 12  1  0
 12 13  2  0
 13 14  1  0
 13 15  1  0
 15 16  1  0
 16 17  2  0
 16 18  1  0
 18 19  1  0
 18 20  1  0
 20 21  1  0
 20 22  1  0
 20 23  1  0
 23 24  2  0
 24 25  1  0
 24 26  1  0
 26 27  1  0
 26 28  2  0
 28 29  1  0
 28 30  1  0
 30 31  1  0
 30 32  2  0
 32 33  1  0
 15 34  2  0
 34 35  1  0
 34 36  1  0
 36 37  1  0
 36 38  2  0
 38 39  1  0
 39 40  2  0
  4 41  1  0
 41 42  1  0
 41 43  2  0
 43 44  1  0
 43 45  1  0
 45 46  1  0
 45  2  2  0
 39  8  1  0
 38 12  1  0
 32 23  1  0
M  CHG  3   3  -1  10  -1  11  -1
M  END
>  <UniqueID>  (4) 
4

>  <SMILES>  (4) 
O=C(NCc1ccccc1)c1ccc2c(=O)c(C(=O)/N=c3/cccc[n-]3)c([O-])[n-]c2c1

>  <Energy>  (4) 
67.08205485049257

>  <Genealogy>  (4) 
O=C(NCc1ccccc1)c1ccc2c(=O)c(C(=O)N=c3cccc[n-]3)c([O-])[n-]c2c1 (protonated)
O=C(NCc1ccccc1)c1ccc2c(=O)c(C(=O)/N=c3/cccc[n-]3)c([O-])[n-]c2c1 (cis-trans isomerization)
O=C(NCc1ccccc1)c1ccc2c(=O)c(C(=O)/N=c3/cccc[n-]3)c([O-])[n-]c2c1 (3D coordinates assigned)
O=C(NCc1ccccc1)c1ccc2c(=O)c(C(=O)/N=c3/cccc[n-]3)c([O-])[n-]c2c1 (optimized conformer: 67.08205485049257 kcal/mol)

>  <smiles>  (4) 
O=C(NCc1ccccc1)c1ccc2c(=O)c(C(=O)N=c3cccc[nH]3)c(O)[nH]c2c1

>  <score_type>  (4) 
oracle

>  <origin>  (4) 
adg

>  <m_score__min__energy>  (4) 
-15.199999999999999

>  <m_primary>  (4) 
energy

$$$$
4:0
     RDKit          3D

 59 62  0  0  0  0  0  0  0  0999 V2000
   59.1730   34.0800   51.6510 O   0  0  0  0  0  0  0  0  0  0  0  0
   58.9860   33.0680   50.9210 C   0  0  0  0  0  0  0  0  0  0  0  0
   59.3500   33.1020   49.5320 N   0  0  0  0  0  0  0  0  0  0  0  0
   59.6410   34.3480   48.8210 C   0  0  0  0  0  0  0  0  0  0  0  0
   58.9810   34.3860   47.4350 C   0  0  0  0  0  0  0  0  0  0  0  0
   59.9870   34.1130   46.3090 C   0  0  0  0  0  0  0  0  0  0  0  0
   60.5130   32.6740   46.3820 C   0  0  0  0  0  0  0  0  0  0  0  0
   61.7650   32.6020   47.2150 C   0  0  0  0  0  0  0  0  0  0  0  0
   61.8780   31.6400   48.2370 C   0  0  0  0  0  0  0  0  0  0  0  0
   63.0260   31.5960   49.0340 C   0  0  0  0  0  0  0  0  0  0  0  0
   64.0660   32.5010   48.8190 C   0  0  0  0  0  0  0  0  0  0  0  0
   63.9640   33.4570   47.8040 C   0  0  0  0  0  0  0  0  0  0  0  0
   62.8160   33.5110   47.0050 C   0  0  0  0  0  0  0  0  0  0  0  0
   58.3190   31.8760   51.4860 C   0  0  0  0  0  0  0  0  0  0  0  0
   56.9550   31.9750   51.8110 C   0  0  0  0  0  0  0  0  0  0  0  0
   56.2930   30.9200   52.4400 C   0  0  0  0  0  0  0  0  0  0  0  0
   56.9850   29.7550   52.7640 C   0  0  0  0  0  0  0  0  0  0  0  0
   58.3340   29.6300   52.4330 C   0  0  0  0  0  0  0  0  0  0  0  0
   59.0120   30.6670   51.7620 C   0  0  0  0  0  0  0  0  0  0  0  0
   60.4320   30.4140   51.2980 C   0  0  0  0  0  0  0  0  0  0  0  0
   60.6150   28.7240   50.6140 S   0  0  0  0  0  0  0  0  0  0  0  0
   59.8080   29.1010   49.0560 C   0  0  0  0  0  0  0  0  0  0  0  0
   59.7860   28.1640   48.0240 C   0  0  0  0  0  0  0  0  0  0  0  0
   59.1390   28.4830   46.8340 C   0  0  0  0  0  0  0  0  0  0  0  0
   58.5360   29.7400   46.6900 C   0  0  0  0  0  0  0  0  0  0  0  0
   57.8580   30.1240   45.4280 C   0  0  0  0  0  0  0  0  0  0  0  0
   58.4830   30.9710   44.4950 C   0  0  0  0  0  0  0  0  0  0  0  0
   57.8100   31.3240   43.3220 C   0  0  0  0  0  0  0  0  0  0  0  0
   56.5270   30.8290   43.0830 C   0  0  0  0  0  0  0  0  0  0  0  0
   55.9350   29.9850   44.0250 C   0  0  0  0  0  0  0  0  0  0  0  0
   56.6050   29.6560   45.1620 N   0  0  0  0  0  0  0  0  0  0  0  0
   58.5870   30.6130   47.7350 N   0  0  0  0  0  0  0  0  0  0  0  0
   59.1970   30.3010   48.8800 N   0  0  0  0  0  0  0  0  0  0  0  0
   59.2870   32.2210   48.9730 H   0  0  0  0  0  0  0  0  0  0  0  0
   59.2654   35.1930   49.4167 H   0  0  0  0  0  0  0  0  0  0  0  0
   60.7301   34.4134   48.6810 H   0  0  0  0  0  0  0  0  0  0  0  0
   58.1906   33.6219   47.3975 H   0  0  0  0  0  0  0  0  0  0  0  0
   58.5687   35.3945   47.2837 H   0  0  0  0  0  0  0  0  0  0  0  0
   59.4921   34.2668   45.3387 H   0  0  0  0  0  0  0  0  0  0  0  0
   60.8358   34.8036   46.4210 H   0  0  0  0  0  0  0  0  0  0  0  0
   59.7427   32.0313   46.8331 H   0  0  0  0  0  0  0  0  0  0  0  0
   60.7485   32.3334   45.3629 H   0  0  0  0  0  0  0  0  0  0  0  0
   61.0622   30.9223   48.4086 H   0  0  0  0  0  0  0  0  0  0  0  0
   63.1096   30.8451   49.8335 H   0  0  0  0  0  0  0  0  0  0  0  0
   64.9671   32.4622   49.4487 H   0  0  0  0  0  0  0  0  0  0  0  0
   64.7865   34.1672   47.6332 H   0  0  0  0  0  0  0  0  0  0  0  0
   62.7362   34.2673   46.2102 H   0  0  0  0  0  0  0  0  0  0  0  0
   56.4032   32.8947   51.5667 H   0  0  0  0  0  0  0  0  0  0  0  0
   55.2232   31.0082   52.6804 H   0  0  0  0  0  0  0  0  0  0  0  0
   56.4672   28.9336   53.2810 H   0  0  0  0  0  0  0  0  0  0  0  0
   58.8755   28.7102   52.6991 H   0  0  0  0  0  0  0  0  0  0  0  0
   60.6907   31.1462   50.5190 H   0  0  0  0  0  0  0  0  0  0  0  0
   61.1040   30.5141   52.1631 H   0  0  0  0  0  0  0  0  0  0  0  0
   60.2734   27.1858   48.1487 H   0  0  0  0  0  0  0  0  0  0  0  0
   59.1011   27.7534   46.0117 H   0  0  0  0  0  0  0  0  0  0  0  0
   59.4962   31.3536   44.6876 H   0  0  0  0  0  0  0  0  0  0  0  0
   58.2899   31.9898   42.5895 H   0  0  0  0  0  0  0  0  0  0  0  0
   55.9884   31.1006   42.1632 H   0  0  0  0  0  0  0  0  0  0  0  0
   54.9255   29.5858   43.8472 H   0  0  0  0  0  0  0  0  0  0  0  0
  1  2  2  0
  2  3  1  0
  3  4  1  0
  4  5  1  0
  5  6  1  0
  6  7  1  0
  7  8  1  0
  8  9  2  0
  9 10  1  0
 10 11  2  0
 11 12  1  0
 12 13  2  0
  2 14  1  0
 14 15  2  0
 15 16  1  0
 16 17  2  0
 17 18  1  0
 18 19  2  0
 19 20  1  0
 20 21  1  0
 21 22  1  0
 22 23  2  0
 23 24  1  0
 24 25  2  0
 25 26  1  0
 26 27  2  0
 27 28  1  0
 28 29  2  0
 29 30  1  0
 30 31  2  0
 25 32  1  0
 32 33  2  0
 13  8  1  0
 19 14  1  0
 33 22  1  0
 31 26  1  0
  3 34  1  0
  4 35  1  0
  4 36  1  0
  5 37  1  0
  5 38  1  0
  6 39  1  0
  6 40  1  0
  7 41  1  0
  7 42  1  0
  9 43  1  0
 10 44  1  0
 11 45  1  0
 12 46  1  0
 13 47  1  0
 15 48  1  0
 16 49  1  0
 17 50  1  0
 18 51  1  0
 20 52  1  0
 20 53  1  0
 23 54  1  0
 24 55  1  0
 27 56  1  0
 28 57  1  0
 29 58  1  0
 30 59  1  0
M  END
>  <UniqueID>  (5) 
5

>  <SMILES>  (5) 
O=C(NCCCCc1ccccc1)c1ccccc1CSc1ccc(-c2ccccn2)nn1

>  <Energy>  (5) 
55.272136209877175

>  <Genealogy>  (5) 
O=C(NCCCCc1ccccc1)c1ccccc1CSc1ccc(-c2ccccn2)nn1 (3D coordinates assigned)
O=C(NCCCCc1ccccc1)c1ccccc1CSc1ccc(-c2ccccn2)nn1 (optimized conformer: 55.272136209877175 kcal/mol)

>  <smiles>  (5) 
O=C(NCCCCc1ccccc1)c1ccccc1CSc1ccc(-c2ccccn2)nn1

>  <score_type>  (5) 
oracle

>  <origin>  (5) 
adg

>  <m_score__min__energy>  (5) 
-9.5700000000000003

>  <m_primary>  (5) 
energy

$$$$
5:0
     RDKit          3D

 56 59  0  0  0  0  0  0  0  0999 V2000
   61.1350   30.1820   47.6280 N   0  0  0  0  0  0  0  0  0  0  0  0
   60.5080   30.1120   48.9140 C   0  0  0  0  0  0  0  0  0  0  0  0
   59.1440   29.7950   49.0000 C   0  0  0  0  0  0  0  0  0  0  0  0
   58.5100   29.7220   50.2420 C   0  0  0  0  0  0  0  0  0  0  0  0
   59.2320   29.9700   51.4090 C   0  0  0  0  0  0  0  0  0  0  0  0
   60.5890   30.2940   51.3370 C   0  0  0  0  0  0  0  0  0  0  0  0
   61.2470   30.3500   50.0930 C   0  0  0  0  0  0  0  0  0  0  0  0
   62.6370   30.7100   49.9980 N   0  0  0  0  0  0  0  0  0  0  0  0
   63.1960   31.8540   49.3350 C   0  0  0  0  0  0  0  0  0  0  0  0
   64.4250   32.0900   49.4780 O   0  0  0  0  0  0  0  0  0  0  0  0
   62.3710   32.7790   48.5280 C   0  0  0  0  0  0  0  0  0  0  0  0
   61.2430   33.4060   49.0820 C   0  0  0  0  0  0  0  0  0  0  0  0
   60.4180   34.2060   48.2870 C   0  0  0  0  0  0  0  0  0  0  0  0
   60.7210   34.4110   46.9330 C   0  0  0  0  0  0  0  0  0  0  0  0
   59.7300   35.1030   46.0390 C   0  0  0  0  0  0  0  0  0  0  0  0
   58.4750   34.3670   46.0800 N   0  0  0  0  0  0  0  0  0  0  0  0
   58.1290   33.4110   45.0760 C   0  0  0  0  0  0  0  0  0  0  0  0
   58.8300   33.3110   44.0320 O   0  0  0  0  0  0  0  0  0  0  0  0
   56.9290   32.5340   45.2790 C   0  0  0  0  0  0  0  0  0  0  0  0
   56.9020   31.3550   44.2910 C   0  0  0  0  0  0  0  0  0  0  0  0
   57.3020   30.1110   44.9530 N   0  0  0  0  0  0  0  0  0  0  0  0
   56.5180   29.0360   45.1930 C   0  0  0  0  0  0  0  0  0  0  0  0
   55.1660   28.9660   44.8780 O   0  0  0  0  0  0  0  0  0  0  0  0
   57.2520   28.0260   45.7770 C   0  0  0  0  0  0  0  0  0  0  0  0
   58.5340   28.4970   45.9080 C   0  0  0  0  0  0  0  0  0  0  0  0
   58.5350   29.7850   45.4000 C   0  0  0  0  0  0  0  0  0  0  0  0
   59.6370   30.6340   45.3370 O   0  0  0  0  0  0  0  0  0  0  0  0
   59.6660   27.6960   46.4680 C   0  0  0  0  0  0  0  0  0  0  0  0
   59.2530   26.2660   46.7500 C   0  0  0  0  0  0  0  0  0  0  0  0
   57.9880   25.8040   46.6220 C   0  0  0  0  0  0  0  0  0  0  0  0
   56.8150   26.6570   46.1870 C   0  0  0  0  0  0  0  0  0  0  0  0
   61.8700   33.8170   46.3870 C   0  0  0  0  0  0  0  0  0  0  0  0
   62.6940   33.0160   47.1810 C   0  0  0  0  0  0  0  0  0  0  0  0
   62.1640   30.3380   47.5450 H   0  0  0  0  0  0  0  0  0  0  0  0
   60.5860   30.0820   46.7450 H   0  0  0  0  0  0  0  0  0  0  0  0
   58.5695   29.6025   48.0819 H   0  0  0  0  0  0  0  0  0  0  0  0
   57.4411   29.4689   50.2999 H   0  0  0  0  0  0  0  0  0  0  0  0
   58.7325   29.9104   52.3872 H   0  0  0  0  0  0  0  0  0  0  0  0
   61.1484   30.5072   52.2598 H   0  0  0  0  0  0  0  0  0  0  0  0
   61.0077   33.2666   50.1475 H   0  0  0  0  0  0  0  0  0  0  0  0
   59.5261   34.6775   48.7255 H   0  0  0  0  0  0  0  0  0  0  0  0
   59.5678   36.1321   46.3921 H   0  0  0  0  0  0  0  0  0  0  0  0
   60.1128   35.1362   45.0083 H   0  0  0  0  0  0  0  0  0  0  0  0
   56.9488   32.1372   46.3047 H   0  0  0  0  0  0  0  0  0  0  0  0
   56.0299   33.1434   45.1049 H   0  0  0  0  0  0  0  0  0  0  0  0
   55.8824   31.2405   43.8943 H   0  0  0  0  0  0  0  0  0  0  0  0
   57.6098   31.5630   43.4751 H   0  0  0  0  0  0  0  0  0  0  0  0
   59.5220   31.6330   45.2130 H   0  0  0  0  0  0  0  0  0  0  0  0
   60.4932   27.6920   45.7429 H   0  0  0  0  0  0  0  0  0  0  0  0
   59.9768   28.1573   47.4170 H   0  0  0  0  0  0  0  0  0  0  0  0
   60.0295   25.5598   47.0791 H   0  0  0  0  0  0  0  0  0  0  0  0
   57.8001   24.7439   46.8477 H   0  0  0  0  0  0  0  0  0  0  0  0
   56.3170   26.1712   45.3350 H   0  0  0  0  0  0  0  0  0  0  0  0
   56.1272   26.7565   47.0397 H   0  0  0  0  0  0  0  0  0  0  0  0
   62.1224   33.9831   45.3293 H   0  0  0  0  0  0  0  0  0  0  0  0
   63.6012   32.5680   46.7493 H   0  0  0  0  0  0  0  0  0  0  0  0
  1  2  1  0
  2  3  2  0
  3  4  1  0
  4  5  2  0
  5  6  1  0
  6  7  2  0
  7  8  1  0
  8  9  1  0
  9 10  2  0
  9 11  1  0
 11 12  2  0
 12 13  1  0
 13 14  2  0
 14 15  1  0
 15 16  1  0
 16 17  1  0
 17 18  2  0
 17 19  1  0
 19 20  1  0
 20 21  1  0
 21 22  1  0
 22 23  1  0
 22 24  2  0
 24 25  1  0
 25 26  2  0
 26 27  1  0
 25 28  1  0
 28 29  1  0
 29 30  2  0
 30 31  1  0
 14 32  1  0
 32 33  2  0
  7  2  1  0
 33 11  1  0
 26 21  1  0
 31 24  1  0
  1 34  1  0
  1 35  1  0
  3 36  1  0
  4 37  1  0
  5 38  1  0
  6 39  1  0
 12 40  1  0
 13 41  1  0
 15 42  1  0
 15 43  1  0
 19 44  1  0
 19 45  1  0
 20 46  1  0
 20 47  1  0
 27 48  1  0
 28 49  1  0
 28 50  1  0
 29 51  1  0
 30 52  1  0
 31 53  1  0
 31 54  1  0
 32 55  1  0
 33 56  1  0
M  CHG  3   8  -1  16  -1  23  -1
M  END
>  <UniqueID>  (6) 
6

>  <SMILES>  (6) 
Nc1ccccc1[N-]C(=O)c1ccc(C[N-]C(=O)CCn2c([O-])c3c(c2O)CC=CC3)cc1

>  <Energy>  (6) 
93.91945974176392

>  <Genealogy>  (6) 
Nc1ccccc1[N-]C(=O)c1ccc(C[N-]C(=O)CCn2c([O-])c3c(c2O)CC=CC3)cc1 (protonated)
Nc1ccccc1[N-]C(=O)c1ccc(C[N-]C(=O)CCn2c([O-])c3c(c2O)CC=CC3)cc1 (3D coordinates assigned)
Nc1ccccc1[N-]C(=O)c1ccc(C[N-]C(=O)CCn2c([O-])c3c(c2O)CC=CC3)cc1 (nonaromatic ring conformer: 93.91945974176392 kcal/mol)

>  <smiles>  (6) 
Nc1ccccc1NC(=O)c1ccc(CNC(=O)CCn2c(O)c3c(c2O)CC=CC3)cc1

>  <score_type>  (6) 
oracle

>  <origin>  (6) 
adg

>  <m_score__min__energy>  (6) 
-15.82

>  <m_primary>  (6) 
energy

$$$$
6:0
     RDKit          3D

 39 41  0  0  0  0  0  0  0  0999 V2000
   58.3660   32.8640   46.8050 C   0  0  0  0  0  0  0  0  0  0  0  0
   57.4090   32.6790   45.3140 S   0  0  0  0  0  0  0  0  0  0  0  0
   56.2750   33.6630   45.3620 O   0  0  0  0  0  0  0  0  0  0  0  0
   58.2540   32.9670   44.1050 O   0  0  0  0  0  0  0  0  0  0  0  0
   56.7470   31.0780   45.2180 N   0  0  0  0  0  0  0  0  0  0  0  0
   57.4970   29.8660   45.0530 C   0  0  0  0  0  0  0  0  0  0  0  0
   58.8900   29.9670   44.9530 C   0  0  0  0  0  0  0  0  0  0  0  0
   59.6750   28.8280   44.7780 C   0  0  0  0  0  0  0  0  0  0  0  0
   59.0760   27.5700   44.7120 C   0  0  0  0  0  0  0  0  0  0  0  0
   57.6850   27.4370   44.8370 C   0  0  0  0  0  0  0  0  0  0  0  0
   57.0810   26.0570   44.8280 C   0  0  0  0  0  0  0  0  0  0  0  0
   56.3470   25.8280   46.0700 N   0  0  0  0  0  0  0  0  0  0  0  0
   56.5670   24.6750   46.8930 C   0  0  0  0  0  0  0  0  0  0  0  0
   57.6320   24.0110   46.7830 O   0  0  0  0  0  0  0  0  0  0  0  0
   55.6150   24.2970   47.8930 N   0  0  0  0  0  0  0  0  0  0  0  0
   54.6800   23.2140   47.7790 C   0  0  0  0  0  0  0  0  0  0  0  0
   54.4670   22.2820   48.8220 C   0  0  0  0  0  0  0  0  0  0  0  0
   53.4990   21.2590   48.6820 C   0  0  0  0  0  0  0  0  0  0  0  0
   52.7230   21.1650   47.5120 C   0  0  0  0  0  0  0  0  0  0  0  0
   52.9430   22.1100   46.5140 C   0  0  0  0  0  0  0  0  0  0  0  0
   52.3140   22.2210   45.3310 N   0  0  0  0  0  0  0  0  0  0  0  0
   52.8370   23.2710   44.7050 N   0  0  0  0  0  0  0  0  0  0  0  0
   53.7960   23.8260   45.4840 C   0  0  0  0  0  0  0  0  0  0  0  0
   53.8750   23.0960   46.6460 C   0  0  0  0  0  0  0  0  0  0  0  0
   56.8930   28.5890   45.0320 C   0  0  0  0  0  0  0  0  0  0  0  0
   55.5250   28.4530   45.2350 O   0  0  0  0  0  0  0  0  0  0  0  0
   57.7107   32.7373   47.6794 H   0  0  0  0  0  0  0  0  0  0  0  0
   59.1596   32.1026   46.8282 H   0  0  0  0  0  0  0  0  0  0  0  0
   58.8187   33.8663   46.8282 H   0  0  0  0  0  0  0  0  0  0  0  0
   59.3699   30.9550   45.0131 H   0  0  0  0  0  0  0  0  0  0  0  0
   60.7676   28.9216   44.6919 H   0  0  0  0  0  0  0  0  0  0  0  0
   59.6987   26.6759   44.5609 H   0  0  0  0  0  0  0  0  0  0  0  0
   56.3923   25.9657   43.9751 H   0  0  0  0  0  0  0  0  0  0  0  0
   57.8840   25.3105   44.7387 H   0  0  0  0  0  0  0  0  0  0  0  0
   55.5980   26.5080   46.3340 H   0  0  0  0  0  0  0  0  0  0  0  0
   55.0574   22.3529   49.7474 H   0  0  0  0  0  0  0  0  0  0  0  0
   53.3522   20.5318   49.4941 H   0  0  0  0  0  0  0  0  0  0  0  0
   51.9694   20.3730   47.3904 H   0  0  0  0  0  0  0  0  0  0  0  0
   54.4049   24.7065   45.2311 H   0  0  0  0  0  0  0  0  0  0  0  0
  1  2  1  0
  2  3  2  0
  2  4  2  0
  2  5  1  0
  5  6  1  0
  6  7  2  0
  7  8  1  0
  8  9  2  0
  9 10  1  0
 10 11  1  0
 11 12  1  0
 12 13  1  0
 13 14  2  0
 13 15  1  0
 15 16  1  0
 16 17  2  0
 17 18  1  0
 18 19  2  0
 19 20  1  0
 20 21  1  0
 21 22  1  0
 22 23  2  0
 23 24  1  0
 10 25  2  0
 25 26  1  0
 25  6  1  0
 24 16  1  0
 24 20  2  0
  1 27  1  0
  1 28  1  0
  1 29  1  0
  7 30  1  0
  8 31  1  0
  9 32  1  0
 11 33  1  0
 11 34  1  0
 12 35  1  0
 17 36  1  0
 18 37  1  0
 19 38  1  0
 23 39  1  0
M  CHG  4   5  -1  15  -1  21  -1  26  -1
M  END
>  <UniqueID>  (7) 
7

>  <SMILES>  (7) 
CS(=O)(=O)[N-]c1cccc(CNC(=O)[N-]c2cccc3[n-]ncc23)c1[O-]

>  <Energy>  (7) 
84.05140709831983

>  <Genealogy>  (7) 
CS(=O)(=O)[N-]c1cccc(CNC(=O)[N-]c2cccc3[n-]ncc23)c1[O-] (protonated)
CS(=O)(=O)[N-]c1cccc(CNC(=O)[N-]c2cccc3[n-]ncc23)c1[O-] (3D coordinates assigned)
CS(=O)(=O)[N-]c1cccc(CNC(=O)[N-]c2cccc3[n-]ncc23)c1[O-] (optimized conformer: 84.05140709831983 kcal/mol)

>  <smiles>  (7) 
CS(=O)(=O)Nc1cccc(CNC(=O)Nc2cccc3[nH]ncc23)c1O

>  <score_type>  (7) 
oracle

>  <origin>  (7) 
adg

>  <m_score__min__energy>  (7) 
-15.92

>  <m_primary>  (7) 
energy

$$$$
7:0
     RDKit          3D

 44 46  0  0  0  0  0  0  0  0999 V2000
   58.2900   33.1732   46.8714 H   0  0  0  0  0  0  0  0  0  0  0  0
   58.2880   32.1120   46.5820 C   0  0  0  0  0  0  0  0  0  0  0  0
   57.5740   31.7250   45.5220 C   0  0  0  0  0  0  0  0  0  0  0  0
   56.9601   32.4649   44.9875 H   0  0  0  0  0  0  0  0  0  0  0  0
   57.5910   30.2960   45.0420 C   0  0  2  0  0  0  0  0  0  0  0  0
   58.4558   30.1626   44.3754 H   0  0  0  0  0  0  0  0  0  0  0  0
   56.3380   29.9870   44.2710 C   0  0  0  0  0  0  0  0  0  0  0  0
   56.2490   30.3060   43.0570 O   0  0  0  0  0  0  0  0  0  0  0  0
   55.2780   29.3340   44.8880 O   0  0  0  0  0  0  0  0  0  0  0  0
   57.7340   29.3330   46.2320 C   0  0  0  0  0  0  0  0  0  0  0  0
   57.8036   28.3016   45.8560 H   0  0  0  0  0  0  0  0  0  0  0  0
   56.8547   29.4420   46.8839 H   0  0  0  0  0  0  0  0  0  0  0  0
   59.0020   29.6620   47.0480 C   0  0  2  0  0  0  0  0  0  0  0  0
   59.8731   29.4100   46.4253 H   0  0  0  0  0  0  0  0  0  0  0  0
   59.0510   28.8590   48.2720 N   0  0  0  0  0  0  0  0  0  0  0  0
   59.7950   28.1290   48.1800 H   0  0  0  0  0  0  0  0  0  0  0  0
   59.3170   29.4800   49.0710 H   0  0  0  0  0  0  0  0  0  0  0  0
   59.0810   31.1380   47.3800 C   0  0  0  0  0  0  0  0  0  0  0  0
   59.8800   31.5180   48.3390 N   0  0  0  0  0  0  0  0  0  0  0  0
   59.6690   32.6030   49.2530 C   0  0  0  0  0  0  0  0  0  0  0  0
   60.2450   33.7020   49.0310 O   0  0  0  0  0  0  0  0  0  0  0  0
   58.7210   32.4810   50.3820 C   0  0  0  0  0  0  0  0  0  0  0  0
   58.7680   33.3860   51.3970 N   0  0  0  0  0  0  0  0  0  0  0  0
   57.9170   33.3300   52.4540 C   0  0  0  0  0  0  0  0  0  0  0  0
   57.9809   34.0852   53.2512 H   0  0  0  0  0  0  0  0  0  0  0  0
   56.9620   32.3160   52.5300 C   0  0  0  0  0  0  0  0  0  0  0  0
   56.2657   32.2771   53.3806 H   0  0  0  0  0  0  0  0  0  0  0  0
   56.8920   31.3480   51.5210 C   0  0  0  0  0  0  0  0  0  0  0  0
   55.9830   30.4160   51.6180 N   0  0  0  0  0  0  0  0  0  0  0  0
   54.6490   30.5440   52.1350 C   0  0  0  0  0  0  0  0  0  0  0  0
   54.2600   29.7510   53.2200 C   0  0  0  0  0  0  0  0  0  0  0  0
   54.9854   29.0697   53.6887 H   0  0  0  0  0  0  0  0  0  0  0  0
   52.9550   29.8210   53.7100 C   0  0  0  0  0  0  0  0  0  0  0  0
   52.6615   29.2102   54.5765 H   0  0  0  0  0  0  0  0  0  0  0  0
   52.0200   30.6640   53.1040 C   0  0  0  0  0  0  0  0  0  0  0  0
   50.9957   30.7196   53.5011 H   0  0  0  0  0  0  0  0  0  0  0  0
   52.3810   31.4420   51.9890 C   0  0  0  0  0  0  0  0  0  0  0  0
   51.3930   32.3230   51.3310 C   0  0  0  0  0  0  0  0  0  0  0  0
   51.5640   32.7010   50.1410 O   0  0  0  0  0  0  0  0  0  0  0  0
   50.2600   32.7470   52.0150 O   0  0  0  0  0  0  0  0  0  0  0  0
   53.6990   31.3640   51.5010 C   0  0  0  0  0  0  0  0  0  0  0  0
   53.9883   31.9497   50.6159 H   0  0  0  0  0  0  0  0  0  0  0  0
   57.7750   31.4440   50.4260 C   0  0  0  0  0  0  0  0  0  0  0  0
   57.7231   30.7092   49.6090 H   0  0  0  0  0  0  0  0  0  0  0  0
  1  2  1  0
  2  3  2  0
  3  4  1  0
  3  5  1  0
  5  6  1  6
  5  7  1  0
  7  8  2  0
  7  9  1  0
  5 10  1  0
 10 11  1  0
 10 12  1  0
 10 13  1  0
 13 14  1  6
 13 15  1  0
 15 16  1  0
 15 17  1  0
 13 18  1  0
 18 19  2  3
 19 20  1  0
 20 21  2  0
 20 22  1  0
 22 23  1  0
 23 24  1  0
 24 25  1  0
 24 26  2  0
 26 27  1  0
 26 28  1  0
 28 29  2  0
 29 30  1  0
 30 31  2  0
 31 32  1  0
 31 33  1  0
 33 34  1  0
 33 35  2  0
 35 36  1  0
 35 37  1  0
 37 38  1  0
 38 39  2  0
 38 40  1  0
 37 41  2  0
 41 42  1  0
 28 43  1  0
 43 44  1  0
 18  2  1  0
 43 22  2  0
 41 30  1  0
M  CHG  3   9  -1  23  -1  40  -1
M  END
>  <UniqueID>  (8) 
8

>  <SMILES>  (8) 
N[C@H]1C[C@@H](C(=O)[O-])C=CC1=NC(=O)c1c/c(=N\c2cccc(C(=O)[O-])c2)cc[n-]1

>  <Energy>  (8) 
63.434685716745754

>  <Genealogy>  (8) 
NC1CC(C(=O)[O-])C=CC1=NC(=O)c1cc(=Nc2cccc(C(=O)[O-])c2)cc[n-]1 (protonated)
N[C@H]1C[C@@H](C(=O)[O-])C=CC1=NC(=O)c1cc(=Nc2cccc(C(=O)[O-])c2)cc[n-]1 (chirality)
N[C@H]1C[C@@H](C(=O)[O-])C=CC1=NC(=O)c1c/c(=N\c2cccc(C(=O)[O-])c2)cc[n-]1 (cis-trans isomerization)
N[C@H]1C[C@@H](C(=O)[O-])C=CC1=NC(=O)c1c/c(=N\c2cccc(C(=O)[O-])c2)cc[n-]1 (3D coordinates assigned)
N[C@H]1C[C@@H](C(=O)[O-])C=CC1=NC(=O)c1c/c(=N\c2cccc(C(=O)[O-])c2)cc[n-]1 (nonaromatic ring conformer: 63.434685716745754 kcal/mol)

>  <smiles>  (8) 
NC1CC(C(=O)O)C=CC1=NC(=O)c1cc(=Nc2cccc(C(=O)O)c2)cc[nH]1

>  <score_type>  (8) 
oracle

>  <origin>  (8) 
adg

>  <m_score__min__energy>  (8) 
-15.06

>  <m_primary>  (8) 
energy

$$$$
8:0
     RDKit          3D

 50 53  0  0  0  0  0  0  0  0999 V2000
   61.3260   29.7650   52.6130 O   0  0  0  0  0  0  0  0  0  0  0  0
   61.3790   29.9430   51.3660 C   0  0  0  0  0  0  0  0  0  0  0  0
   60.4900   29.2180   50.5070 N   0  0  0  0  0  0  0  0  0  0  0  0
   59.3520   29.8240   49.8260 C   0  0  0  0  0  0  0  0  0  0  0  0
   58.5110   30.5900   50.8020 C   0  0  0  0  0  0  0  0  0  0  0  0
   59.0650   31.6280   51.5610 C   0  0  0  0  0  0  0  0  0  0  0  0
   58.2650   32.3010   52.4860 C   0  0  0  0  0  0  0  0  0  0  0  0
   56.9310   31.9290   52.6540 C   0  0  0  0  0  0  0  0  0  0  0  0
   56.4050   30.8760   51.8860 C   0  0  0  0  0  0  0  0  0  0  0  0
   54.9980   30.4470   52.0410 C   0  0  0  0  0  0  0  0  0  0  0  0
   54.7350   29.2350   52.2750 O   0  0  0  0  0  0  0  0  0  0  0  0
   53.9280   31.3990   51.9290 N   0  0  0  0  0  0  0  0  0  0  0  0
   52.5270   31.0250   52.1140 C   0  0  0  0  0  0  0  0  0  0  0  0
   51.7810   31.1690   50.8270 C   0  0  0  0  0  0  0  0  0  0  0  0
   51.7550   30.2180   49.8720 N   0  0  0  0  0  0  0  0  0  0  0  0
   51.0360   30.7040   48.8740 N   0  0  0  0  0  0  0  0  0  0  0  0
   50.6560   31.9350   49.2550 C   0  0  0  0  0  0  0  0  0  0  0  0
   49.9530   32.6920   48.5370 O   0  0  0  0  0  0  0  0  0  0  0  0
   51.1020   32.2800   50.4760 N   0  0  0  0  0  0  0  0  0  0  0  0
   57.2090   30.2400   50.9900 N   0  0  0  0  0  0  0  0  0  0  0  0
   62.3560   30.8970   50.7930 C   0  0  0  0  0  0  0  0  0  0  0  0
   63.7380   30.6950   50.9600 C   0  0  0  0  0  0  0  0  0  0  0  0
   64.6560   31.6030   50.4260 C   0  0  0  0  0  0  0  0  0  0  0  0
   64.2080   32.7160   49.7110 C   0  0  0  0  0  0  0  0  0  0  0  0
   62.8400   32.9250   49.5120 C   0  0  0  0  0  0  0  0  0  0  0  0
   62.4300   34.0580   48.7960 O   0  0  0  0  0  0  0  0  0  0  0  0
   61.3470   34.1090   47.9050 C   0  0  0  0  0  0  0  0  0  0  0  0
   60.0950   34.5070   48.3880 C   0  0  0  0  0  0  0  0  0  0  0  0
   58.9940   34.5820   47.5270 C   0  0  0  0  0  0  0  0  0  0  0  0
   59.1440   34.2710   46.1740 C   0  0  0  0  0  0  0  0  0  0  0  0
   60.3940   33.8920   45.6770 C   0  0  0  0  0  0  0  0  0  0  0  0
   61.4950   33.8180   46.5360 C   0  0  0  0  0  0  0  0  0  0  0  0
   61.9150   32.0240   50.0700 C   0  0  0  0  0  0  0  0  0  0  0  0
   59.7177   30.5084   49.0464 H   0  0  0  0  0  0  0  0  0  0  0  0
   58.7410   29.0295   49.3727 H   0  0  0  0  0  0  0  0  0  0  0  0
   60.1200   31.9103   51.4297 H   0  0  0  0  0  0  0  0  0  0  0  0
   58.6861   33.1241   53.0820 H   0  0  0  0  0  0  0  0  0  0  0  0
   56.2960   32.4556   53.3817 H   0  0  0  0  0  0  0  0  0  0  0  0
   54.1400   32.3940   51.6910 H   0  0  0  0  0  0  0  0  0  0  0  0
   52.4714   29.9795   52.4514 H   0  0  0  0  0  0  0  0  0  0  0  0
   52.0749   31.6869   52.8674 H   0  0  0  0  0  0  0  0  0  0  0  0
   64.0985   29.8162   51.5148 H   0  0  0  0  0  0  0  0  0  0  0  0
   65.7345   31.4408   50.5691 H   0  0  0  0  0  0  0  0  0  0  0  0
   64.9357   33.4323   49.3020 H   0  0  0  0  0  0  0  0  0  0  0  0
   59.9756   34.7625   49.4512 H   0  0  0  0  0  0  0  0  0  0  0  0
   58.0110   34.8858   47.9160 H   0  0  0  0  0  0  0  0  0  0  0  0
   58.2774   34.3244   45.4986 H   0  0  0  0  0  0  0  0  0  0  0  0
   60.5118   33.6519   44.6100 H   0  0  0  0  0  0  0  0  0  0  0  0
   62.4805   33.5313   46.1402 H   0  0  0  0  0  0  0  0  0  0  0  0
   60.8370   32.2006   49.9409 H   0  0  0  0  0  0  0  0  0  0  0  0
  1  2  2  0
  2  3  1  0
  3  4  1  0
  4  5  1  0
  5  6  2  0
  6  7  1  0
  7  8  2  0
  8  9  1  0
  9 10  1  0
 10 11  2  0
 10 12  1  0
 12 13  1  0
 13 14  1  0
 14 15  2  0
 15 16  1  0
 16 17  1  0
 17 18  2  0
 17 19  1  0
  9 20  2  0
  2 21  1  0
 21 22  2  0
 22 23  1  0
 23 24  2  0
 24 25  1  0
 25 26  1  0
 26 27  1  0
 27 28  2  0
 28 29  1  0
 29 30  2  0
 30 31  1  0
 31 32  2  0
 25 33  2  0
 20  5  1  0
 33 21  1  0
 19 14  1  0
 32 27  1  0
  4 34  1  0
  4 35  1  0
  6 36  1  0
  7 37  1  0
  8 38  1  0
 12 39  1  0
 13 40  1  0
 13 41  1  0
 22 42  1  0
 23 43  1  0
 24 44  1  0
 28 45  1  0
 29 46  1  0
 30 47  1  0
 31 48  1  0
 32 49  1  0
 33 50  1  0
M  CHG  3   3  -1  16  -1  19  -1
M  END
>  <UniqueID>  (9) 
9

>  <SMILES>  (9) 
O=C([N-]Cc1cccc(C(=O)NCc2n[n-]c(=O)[n-]2)n1)c1cccc(Oc2ccccc2)c1

>  <Energy>  (9) 
89.087801700824

>  <Genealogy>  (9) 
O=C([N-]Cc1cccc(C(=O)NCc2n[n-]c(=O)[n-]2)n1)c1cccc(Oc2ccccc2)c1 (protonated)
O=C([N-]Cc1cccc(C(=O)NCc2n[n-]c(=O)[n-]2)n1)c1cccc(Oc2ccccc2)c1 (3D coordinates assigned)
O=C([N-]Cc1cccc(C(=O)NCc2n[n-]c(=O)[n-]2)n1)c1cccc(Oc2ccccc2)c1 (optimized conformer: 89.087801700824 kcal/mol)

>  <smiles>  (9) 
O=C(NCc1cccc(C(=O)NCc2n[nH]c(=O)[nH]2)n1)c1cccc(Oc2ccccc2)c1

>  <score_type>  (9) 
oracle

>  <origin>  (9) 
adg

>  <m_score__min__energy>  (9) 
-16.07

>  <m_primary>  (9) 
energy

$$$$
9:0
     RDKit          3D

 45 47  0  0  0  0  0  0  0  0999 V2000
   62.1290   34.8180   49.3760 N   0  0  0  0  0  0  0  0  0  0  0  0
   63.1750   33.5750   48.7840 S   0  0  0  0  0  0  0  0  0  0  0  0
   64.3660   33.4460   49.6920 O   0  0  0  0  0  0  0  0  0  0  0  0
   63.6570   33.9390   47.4080 O   0  0  0  0  0  0  0  0  0  0  0  0
   62.3030   32.0460   48.7260 C   0  0  0  0  0  0  0  0  0  0  0  0
   61.7410   31.5130   49.8940 C   0  0  0  0  0  0  0  0  0  0  0  0
   61.0320   30.3100   49.8480 C   0  0  0  0  0  0  0  0  0  0  0  0
   60.8750   29.6260   48.6320 C   0  0  0  0  0  0  0  0  0  0  0  0
   60.0650   28.3590   48.5680 C   0  0  0  0  0  0  0  0  0  0  0  0
   60.3950   27.5750   47.2910 C   0  0  0  0  0  0  0  0  0  0  0  0
   59.7040   28.1460   46.1370 N   0  0  0  0  0  0  0  0  0  0  0  0
   58.4620   28.3960   45.8030 C   0  0  0  0  0  0  0  0  0  0  0  0
   57.5930   27.3690   45.9900 N   0  0  0  0  0  0  0  0  0  0  0  0
   56.2820   27.4870   45.7060 C   0  0  0  0  0  0  0  0  0  0  0  0
   55.5040   26.5170   45.8970 O   0  0  0  0  0  0  0  0  0  0  0  0
   55.8070   28.6460   45.2140 N   0  0  0  0  0  0  0  0  0  0  0  0
   56.6370   29.6940   44.9980 C   0  0  0  0  0  0  0  0  0  0  0  0
   56.1460   30.7470   44.5110 O   0  0  0  0  0  0  0  0  0  0  0  0
   57.9870   29.6010   45.2860 N   0  0  0  0  0  0  0  0  0  0  0  0
   58.8340   30.7680   44.9460 C   0  0  0  0  0  0  0  0  0  0  0  0
   58.9750   31.7510   46.0890 C   0  0  0  0  0  0  0  0  0  0  0  0
   58.5120   31.4640   47.3880 C   0  0  0  0  0  0  0  0  0  0  0  0
   58.6910   32.3880   48.4230 C   0  0  0  0  0  0  0  0  0  0  0  0
   59.3470   33.5970   48.1780 C   0  0  0  0  0  0  0  0  0  0  0  0
   59.5230   34.5130   49.2070 O   0  0  0  0  0  0  0  0  0  0  0  0
   59.8300   33.8820   46.8990 C   0  0  0  0  0  0  0  0  0  0  0  0
   59.6540   32.9620   45.8620 C   0  0  0  0  0  0  0  0  0  0  0  0
   61.4250   30.1710   47.4610 C   0  0  0  0  0  0  0  0  0  0  0  0
   62.1360   31.3740   47.5090 C   0  0  0  0  0  0  0  0  0  0  0  0
   61.5080   35.0950   48.5830 H   0  0  0  0  0  0  0  0  0  0  0  0
   61.5170   34.3820   50.1010 H   0  0  0  0  0  0  0  0  0  0  0  0
   61.8585   32.0437   50.8503 H   0  0  0  0  0  0  0  0  0  0  0  0
   60.5947   29.8968   50.7689 H   0  0  0  0  0  0  0  0  0  0  0  0
   60.2963   27.7366   49.4450 H   0  0  0  0  0  0  0  0  0  0  0  0
   58.9964   28.6196   48.5597 H   0  0  0  0  0  0  0  0  0  0  0  0
   61.4803   27.6119   47.1158 H   0  0  0  0  0  0  0  0  0  0  0  0
   60.0627   26.5345   47.4209 H   0  0  0  0  0  0  0  0  0  0  0  0
   59.8353   30.4056   44.6700 H   0  0  0  0  0  0  0  0  0  0  0  0
   58.3451   31.2979   44.1153 H   0  0  0  0  0  0  0  0  0  0  0  0
   58.0068   30.5079   47.5897 H   0  0  0  0  0  0  0  0  0  0  0  0
   58.3146   32.1623   49.4316 H   0  0  0  0  0  0  0  0  0  0  0  0
   60.3499   34.8323   46.7076 H   0  0  0  0  0  0  0  0  0  0  0  0
   60.0495   33.1865   44.8604 H   0  0  0  0  0  0  0  0  0  0  0  0
   61.2960   29.6492   46.5013 H   0  0  0  0  0  0  0  0  0  0  0  0
   62.5656   31.7939   46.5875 H   0  0  0  0  0  0  0  0  0  0  0  0
  1  2  1  0
  2  3  2  0
  2  4  2  0
  2  5  1  0
  5  6  2  0
  6  7  1  0
  7  8  2  0
  8  9  1  0
  9 10  1  0
 10 11  1  0
 11 12  2  3
 12 13  1  0
 13 14  1  0
 14 15  2  0
 14 16  1  0
 16 17  1  0
 17 18  2  0
 17 19  1  0
 19 20  1  0
 20 21  1  0
 21 22  2  0
 22 23  1  0
 23 24  2  0
 24 25  1  0
 24 26  1  0
 26 27  2  0
  8 28  1  0
 28 29  2  0
 29  5  1  0
 19 12  1  0
 27 21  1  0
  1 30  1  0
  1 31  1  0
  6 32  1  0
  7 33  1  0
  9 34  1  0
  9 35  1  0
 10 36  1  0
 10 37  1  0
 20 38  1  0
 20 39  1  0
 22 40  1  0
 23 41  1  0
 26 42  1  0
 27 43  1  0
 28 44  1  0
 29 45  1  0
M  CHG  3  13  -1  16  -1  25  -1
M  END
>  <UniqueID>  (10) 
10

>  <SMILES>  (10) 
NS(=O)(=O)c1ccc(CCN=c2[n-]c(=O)[n-]c(=O)n2Cc2ccc([O-])cc2)cc1

>  <Energy>  (10) 
65.45109551654518

>  <Genealogy>  (10) 
NS(=O)(=O)c1ccc(CCN=c2[n-]c(=O)[n-]c(=O)n2Cc2ccc([O-])cc2)cc1 (protonated)
NS(=O)(=O)c1ccc(CCN=c2[n-]c(=O)[n-]c(=O)n2Cc2ccc([O-])cc2)cc1 (3D coordinates assigned)
NS(=O)(=O)c1ccc(CCN=c2[n-]c(=O)[n-]c(=O)n2Cc2ccc([O-])cc2)cc1 (optimized conformer: 65.45109551654518 kcal/mol)

>  <smiles>  (10) 
NS(=O)(=O)c1ccc(CCN=c2[nH]c(=O)[nH]c(=O)n2Cc2ccc(O)cc2)cc1

>  <score_type>  (10) 
oracle

>  <origin>  (10) 
adg

>  <m_score__min__energy>  (10) 
-11.52

>  <m_primary>  (10) 
energy

$$$$
10:0
     RDKit          3D

 47 49  0  0  0  0  0  0  0  0999 V2000
   60.3710   27.2340   48.9600 C   0  0  0  0  0  0  0  0  0  0  0  0
   59.1980   27.9110   48.2640 C   0  0  0  0  0  0  0  0  0  0  0  0
   59.5610   28.3370   46.9520 O   0  0  0  0  0  0  0  0  0  0  0  0
   60.0070   27.4640   45.9520 C   0  0  0  0  0  0  0  0  0  0  0  0
   61.1560   26.9460   46.0180 O   0  0  0  0  0  0  0  0  0  0  0  0
   59.0560   27.0650   44.8640 C   0  0  0  0  0  0  0  0  0  0  0  0
   57.6550   26.8310   45.3610 C   0  0  0  0  0  0  0  0  0  0  0  0
   57.1990   25.5960   45.6390 N   0  0  0  0  0  0  0  0  0  0  0  0
   55.9210   25.7990   46.0090 C   0  0  0  0  0  0  0  0  0  0  0  0
   55.1550   24.8610   46.3480 O   0  0  0  0  0  0  0  0  0  0  0  0
   55.5300   27.0860   45.9830 N   0  0  0  0  0  0  0  0  0  0  0  0
   56.6300   27.7500   45.5810 C   0  0  0  0  0  0  0  0  0  0  0  0
   56.6280   29.2160   45.3910 C   0  0  0  0  0  0  0  0  0  0  0  0
   55.6040   29.7560   44.8910 O   0  0  0  0  0  0  0  0  0  0  0  0
   57.7200   30.0350   45.8300 N   0  0  0  0  0  0  0  0  0  0  0  0
   58.0540   31.3220   45.2690 C   0  0  0  0  0  0  0  0  0  0  0  0
   57.6480   31.6760   43.9660 C   0  0  0  0  0  0  0  0  0  0  0  0
   58.0210   32.9040   43.4160 C   0  0  0  0  0  0  0  0  0  0  0  0
   58.8130   33.7890   44.1470 C   0  0  0  0  0  0  0  0  0  0  0  0
   59.2440   33.4450   45.4290 C   0  0  0  0  0  0  0  0  0  0  0  0
   58.8730   32.2160   45.9950 C   0  0  0  0  0  0  0  0  0  0  0  0
   59.3610   31.8640   47.2960 N   0  0  0  0  0  0  0  0  0  0  0  0
   58.5320   32.1150   48.4750 C   0  0  0  0  0  0  0  0  0  0  0  0
   58.8820   31.1020   49.5710 C   0  0  0  0  0  0  0  0  0  0  0  0
   60.2790   31.0760   49.8080 O   0  0  0  0  0  0  0  0  0  0  0  0
   60.9540   30.6080   48.6540 C   0  0  0  0  0  0  0  0  0  0  0  0
   60.7830   31.5870   47.4900 C   0  0  0  0  0  0  0  0  0  0  0  0
   60.2429   27.3079   50.0500 H   0  0  0  0  0  0  0  0  0  0  0  0
   60.4098   26.1746   48.6664 H   0  0  0  0  0  0  0  0  0  0  0  0
   61.3077   27.7304   48.6664 H   0  0  0  0  0  0  0  0  0  0  0  0
   58.3620   27.1996   48.1932 H   0  0  0  0  0  0  0  0  0  0  0  0
   58.9032   28.7935   48.8508 H   0  0  0  0  0  0  0  0  0  0  0  0
   59.0308   27.8656   44.1100 H   0  0  0  0  0  0  0  0  0  0  0  0
   59.4180   26.1149   44.4441 H   0  0  0  0  0  0  0  0  0  0  0  0
   58.2310   29.7180   46.6800 H   0  0  0  0  0  0  0  0  0  0  0  0
   57.0325   30.9792   43.3781 H   0  0  0  0  0  0  0  0  0  0  0  0
   57.6890   33.1743   42.4027 H   0  0  0  0  0  0  0  0  0  0  0  0
   59.0981   34.7587   43.7129 H   0  0  0  0  0  0  0  0  0  0  0  0
   59.8777   34.1408   45.9985 H   0  0  0  0  0  0  0  0  0  0  0  0
   58.7189   33.1341   48.8444 H   0  0  0  0  0  0  0  0  0  0  0  0
   57.4705   32.0115   48.2056 H   0  0  0  0  0  0  0  0  0  0  0  0
   58.3643   31.3831   50.4999 H   0  0  0  0  0  0  0  0  0  0  0  0
   58.5628   30.1025   49.2407 H   0  0  0  0  0  0  0  0  0  0  0  0
   62.0250   30.5012   48.8811 H   0  0  0  0  0  0  0  0  0  0  0  0
   60.5255   29.6372   48.3642 H   0  0  0  0  0  0  0  0  0  0  0  0
   61.3121   32.5242   47.7175 H   0  0  0  0  0  0  0  0  0  0  0  0
   61.2006   31.1455   46.5731 H   0  0  0  0  0  0  0  0  0  0  0  0
  1  2  1  0
  2  3  1  0
  3  4  1  0
  4  5  2  0
  4  6  1  0
  6  7  1  0
  7  8  1  0
  8  9  1  0
  9 10  2  0
  9 11  1  0
 11 12  1  0
 12 13  1  0
 13 14  2  0
 13 15  1  0
 15 16  1  0
 16 17  2  0
 17 18  1  0
 18 19  2  0
 19 20  1  0
 20 21  2  0
 21 22  1  0
 22 23  1  0
 23 24  1  0
 24 25  1  0
 25 26  1  0
 26 27  1  0
 12  7  2  0
 21 16  1  0
 27 22  1  0
  1 28  1  0
  1 29  1  0
  1 30  1  0
  2 31  1  0
  2 32  1  0
  6 33  1  0
  6 34  1  0
 15 35  1  0
 17 36  1  0
 18 37  1  0
 19 38  1  0
 20 39  1  0
 23 40  1  0
 23 41  1  0
 24 42  1  0
 24 43  1  0
 26 44  1  0
 26 45  1  0
 27 46  1  0
 27 47  1  0
M  CHG  2   8  -1  11  -1
M  END
>  <UniqueID>  (11) 
11

>  <SMILES>  (11) 
CCOC(=O)Cc1[n-]c(=O)[n-]c1C(=O)Nc1ccccc1N1CCOCC1

>  <Energy>  (11) 
79.67309786131044

>  <Genealogy>  (11) 
CCOC(=O)Cc1[n-]c(=O)[n-]c1C(=O)Nc1ccccc1N1CCOCC1 (protonated)
CCOC(=O)Cc1[n-]c(=O)[n-]c1C(=O)Nc1ccccc1N1CCOCC1 (3D coordinates assigned)
CCOC(=O)Cc1[n-]c(=O)[n-]c1C(=O)Nc1ccccc1N1CCOCC1 (nonaromatic ring conformer: 79.67309786131044 kcal/mol)

>  <smiles>  (11) 
CCOC(=O)Cc1[nH]c(=O)[nH]c1C(=O)Nc1ccccc1N1CCOCC1

>  <score_type>  (11) 
oracle

>  <origin>  (11) 
adg

>  <m_score__min__energy>  (11) 
-11.220000000000001

>  <m_primary>  (11) 
energy

$$$$
11:0
     RDKit          3D

 46 48  0  0  0  0  0  0  0  0999 V2000
   60.2530   34.9670   46.3580 C   0  0  0  0  0  0  0  0  0  0  0  0
   60.5750   33.5290   46.6200 C   0  0  0  0  0  0  0  0  0  0  0  0
   61.7620   32.9840   47.1210 C   0  0  0  0  0  0  0  0  0  0  0  0
   63.0000   33.7160   47.4230 C   0  0  0  0  0  0  0  0  0  0  0  0
   63.6310   34.2580   46.4810 O   0  0  0  0  0  0  0  0  0  0  0  0
   63.4630   33.8980   48.7690 N   0  0  0  0  0  0  0  0  0  0  0  0
   62.6380   34.2710   49.9180 C   0  0  0  0  0  0  0  0  0  0  0  0
   61.4570   33.3470   50.0740 C   0  0  0  0  0  0  0  0  0  0  0  0
   61.6500   31.9840   50.3570 C   0  0  0  0  0  0  0  0  0  0  0  0
   60.5540   31.1220   50.4610 C   0  0  0  0  0  0  0  0  0  0  0  0
   59.2560   31.6160   50.2950 C   0  0  0  0  0  0  0  0  0  0  0  0
   58.1940   30.7780   50.3870 F   0  0  0  0  0  0  0  0  0  0  0  0
   59.0540   32.9740   50.0290 C   0  0  0  0  0  0  0  0  0  0  0  0
   60.1490   33.8380   49.9240 C   0  0  0  0  0  0  0  0  0  0  0  0
   61.6710   31.6360   47.2100 N   0  0  0  0  0  0  0  0  0  0  0  0
   60.4510   31.3290   46.7430 C   0  0  0  0  0  0  0  0  0  0  0  0
   59.9400   30.0820   46.5980 N   0  0  0  0  0  0  0  0  0  0  0  0
   58.6920   29.9330   46.0590 C   0  0  0  0  0  0  0  0  0  0  0  0
   57.9520   31.0600   45.6300 C   0  0  0  0  0  0  0  0  0  0  0  0
   56.6490   30.8730   45.0670 N   0  0  0  0  0  0  0  0  0  0  0  0
   56.2040   29.7160   44.3460 C   0  0  0  0  0  0  0  0  0  0  0  0
   55.2090   29.0770   44.7840 O   0  0  0  0  0  0  0  0  0  0  0  0
   57.0000   29.1480   43.1980 C   0  0  0  0  0  0  0  0  0  0  0  0
   57.9990   27.7500   43.6970 S   0  0  0  0  0  0  0  0  0  0  0  0
   57.4030   27.0440   45.2180 C   0  0  0  0  0  0  0  0  0  0  0  0
   57.9400   26.7020   42.6210 O   0  0  0  0  0  0  0  0  0  0  0  0
   59.4260   28.1840   43.8790 O   0  0  0  0  0  0  0  0  0  0  0  0
   58.4890   32.3500   45.8140 C   0  0  0  0  0  0  0  0  0  0  0  0
   59.7580   32.4460   46.3710 C   0  0  0  0  0  0  0  0  0  0  0  0
   60.1344   35.4964   47.3149 H   0  0  0  0  0  0  0  0  0  0  0  0
   61.0704   35.4270   45.7833 H   0  0  0  0  0  0  0  0  0  0  0  0
   59.3175   35.0344   45.7833 H   0  0  0  0  0  0  0  0  0  0  0  0
   63.2520   34.2231   50.8294 H   0  0  0  0  0  0  0  0  0  0  0  0
   62.2590   35.2905   49.7540 H   0  0  0  0  0  0  0  0  0  0  0  0
   62.6686   31.5933   50.4974 H   0  0  0  0  0  0  0  0  0  0  0  0
   60.7127   30.0545   50.6735 H   0  0  0  0  0  0  0  0  0  0  0  0
   58.0330   33.3631   49.9022 H   0  0  0  0  0  0  0  0  0  0  0  0
   59.9854   34.9070   49.7230 H   0  0  0  0  0  0  0  0  0  0  0  0
   62.4140   30.9700   47.5190 H   0  0  0  0  0  0  0  0  0  0  0  0
   58.2591   28.9268   45.9580 H   0  0  0  0  0  0  0  0  0  0  0  0
   56.3041   28.8234   42.4104 H   0  0  0  0  0  0  0  0  0  0  0  0
   57.6769   29.9348   42.8336 H   0  0  0  0  0  0  0  0  0  0  0  0
   57.8520   27.5758   46.0698 H   0  0  0  0  0  0  0  0  0  0  0  0
   56.3080   27.1393   45.2622 H   0  0  0  0  0  0  0  0  0  0  0  0
   57.6806   25.9805   45.2622 H   0  0  0  0  0  0  0  0  0  0  0  0
   57.9235   33.2487   45.5268 H   0  0  0  0  0  0  0  0  0  0  0  0
  1  2  1  0
  2  3  2  0
  3  4  1  0
  4  5  2  0
  4  6  1  0
  6  7  1  0
  7  8  1  0
  8  9  2  0
  9 10  1  0
 10 11  2  0
 11 12  1  0
 11 13  1  0
 13 14  2  0
  3 15  1  0
 15 16  1  0
 16 17  2  0
 17 18  1  0
 18 19  2  0
 19 20  1  0
 20 21  1  0
 21 22  2  0
 21 23  1  0
 23 24  1  0
 24 25  1  0
 24 26  2  0
 24 27  2  0
 19 28  1  0
 28 29  2  0
 29  2  1  0
 14  8  1  0
 29 16  1  0
  1 30  1  0
  1 31  1  0
  1 32  1  0
  7 33  1  0
  7 34  1  0
  9 35  1  0
 10 36  1  0
 13 37  1  0
 14 38  1  0
 15 39  1  0
 18 40  1  0
 23 41  1  0
 23 42  1  0
 25 43  1  0
 25 44  1  0
 25 45  1  0
 28 46  1  0
M  CHG  2   6  -1  20  -1
M  END
>  <UniqueID>  (12) 
12

>  <SMILES>  (12) 
Cc1c(C(=O)[N-]Cc2ccc(F)cc2)[nH]c2ncc([N-]C(=O)CS(C)(=O)=O)cc12

>  <Energy>  (12) 
81.09783323828265

>  <Genealogy>  (12) 
Cc1c(C(=O)[N-]Cc2ccc(F)cc2)[nH]c2ncc([N-]C(=O)CS(C)(=O)=O)cc12 (protonated)
Cc1c(C(=O)[N-]Cc2ccc(F)cc2)[nH]c2ncc([N-]C(=O)CS(C)(=O)=O)cc12 (3D coordinates assigned)
Cc1c(C(=O)[N-]Cc2ccc(F)cc2)[nH]c2ncc([N-]C(=O)CS(C)(=O)=O)cc12 (optimized conformer: 81.09783323828265 kcal/mol)

>  <smiles>  (12) 
Cc1c(C(=O)NCc2ccc(F)cc2)[nH]c2ncc(NC(=O)CS(C)(=O)=O)cc12

>  <score_type>  (12) 
oracle

>  <origin>  (12) 
adg

>  <m_score__min__energy>  (12) 
-12.83

>  <m_primary>  (12) 
energy

$$$$
12:0
     RDKit          3D

 63 67  0  0  0  0  0  0  0  0999 V2000
   58.7760   29.7460   51.2580 C   0  0  0  0  0  0  0  0  0  0  0  0
   59.0120   29.7490   49.7520 C   0  0  0  0  0  0  0  0  0  0  0  0
   60.7190   29.3730   49.3710 S   0  0  0  0  0  0  0  0  0  0  0  0
   61.2670   28.4790   50.4500 O   0  0  0  0  0  0  0  0  0  0  0  0
   60.7960   28.6560   48.0510 O   0  0  0  0  0  0  0  0  0  0  0  0
   61.6480   30.8520   49.3070 N   0  0  0  0  0  0  0  0  0  0  0  0
   61.2770   31.7710   50.4110 C   0  0  0  0  0  0  0  0  0  0  0  0
   60.3420   32.8970   49.9470 C   0  0  0  0  0  0  0  0  0  0  0  0
   60.9740   33.7080   48.8830 N   0  0  0  0  0  0  0  0  0  0  0  0
   60.0270   34.6040   48.1790 C   0  0  0  0  0  0  0  0  0  0  0  0
   59.4600   34.0180   46.9000 C   0  0  0  0  0  0  0  0  0  0  0  0
   59.4100   34.7850   45.7240 C   0  0  0  0  0  0  0  0  0  0  0  0
   58.9040   34.2370   44.5440 C   0  0  0  0  0  0  0  0  0  0  0  0
   58.4340   32.9220   44.5250 C   0  0  0  0  0  0  0  0  0  0  0  0
   58.4510   32.1440   45.6960 C   0  0  0  0  0  0  0  0  0  0  0  0
   57.9590   30.7430   45.6770 C   0  0  0  0  0  0  0  0  0  0  0  0
   58.4870   29.7900   46.5650 C   0  0  0  0  0  0  0  0  0  0  0  0
   58.0300   28.4690   46.5460 C   0  0  0  0  0  0  0  0  0  0  0  0
   57.0360   28.0730   45.6370 C   0  0  0  0  0  0  0  0  0  0  0  0
   56.5550   26.6730   45.6120 C   0  0  0  0  0  0  0  0  0  0  0  0
   57.3410   25.6290   45.2330 N   0  0  0  0  0  0  0  0  0  0  0  0
   56.5170   24.5760   45.3590 C   0  0  0  0  0  0  0  0  0  0  0  0
   56.7960   23.2290   45.1020 C   0  0  0  0  0  0  0  0  0  0  0  0
   58.1360   22.7920   44.5890 C   0  0  0  0  0  0  0  0  0  0  0  0
   55.7450   22.3050   45.2900 C   0  0  0  0  0  0  0  0  0  0  0  0
   54.4800   22.7390   45.7430 C   0  0  0  0  0  0  0  0  0  0  0  0
   54.2450   24.1020   46.0020 C   0  0  0  0  0  0  0  0  0  0  0  0
   55.2960   24.9910   45.7930 C   0  0  0  0  0  0  0  0  0  0  0  0
   55.2900   26.3200   45.9640 N   0  0  0  0  0  0  0  0  0  0  0  0
   56.5060   29.0240   44.7490 C   0  0  0  0  0  0  0  0  0  0  0  0
   56.9630   30.3450   44.7680 C   0  0  0  0  0  0  0  0  0  0  0  0
   58.9500   32.7090   46.8830 C   0  0  0  0  0  0  0  0  0  0  0  0
   61.8830   32.9500   47.9900 C   0  0  0  0  0  0  0  0  0  0  0  0
   61.5350   31.4560   47.9610 C   0  0  0  0  0  0  0  0  0  0  0  0
   59.7437   29.7583   51.7808 H   0  0  0  0  0  0  0  0  0  0  0  0
   58.1956   30.6368   51.5400 H   0  0  0  0  0  0  0  0  0  0  0  0
   58.2184   28.8407   51.5400 H   0  0  0  0  0  0  0  0  0  0  0  0
   58.3640   28.9929   49.2846 H   0  0  0  0  0  0  0  0  0  0  0  0
   58.7779   30.7506   49.3621 H   0  0  0  0  0  0  0  0  0  0  0  0
   60.7698   31.1922   51.1969 H   0  0  0  0  0  0  0  0  0  0  0  0
   62.2012   32.2357   50.7850 H   0  0  0  0  0  0  0  0  0  0  0  0
   59.4126   32.4553   49.5582 H   0  0  0  0  0  0  0  0  0  0  0  0
   60.1289   33.5509   50.8055 H   0  0  0  0  0  0  0  0  0  0  0  0
   59.1909   34.8263   48.8583 H   0  0  0  0  0  0  0  0  0  0  0  0
   60.5915   35.5042   47.8944 H   0  0  0  0  0  0  0  0  0  0  0  0
   59.7718   35.8238   45.7331 H   0  0  0  0  0  0  0  0  0  0  0  0
   58.8754   34.8428   43.6263 H   0  0  0  0  0  0  0  0  0  0  0  0
   58.0483   32.4925   43.5886 H   0  0  0  0  0  0  0  0  0  0  0  0
   59.2671   30.0864   47.2816 H   0  0  0  0  0  0  0  0  0  0  0  0
   58.4521   27.7348   47.2480 H   0  0  0  0  0  0  0  0  0  0  0  0
   58.8008   22.5752   45.4381 H   0  0  0  0  0  0  0  0  0  0  0  0
   58.0165   21.8863   43.9763 H   0  0  0  0  0  0  0  0  0  0  0  0
   58.5734   23.5940   43.9763 H   0  0  0  0  0  0  0  0  0  0  0  0
   55.9131   21.2380   45.0818 H   0  0  0  0  0  0  0  0  0  0  0  0
   53.6731   22.0069   45.8944 H   0  0  0  0  0  0  0  0  0  0  0  0
   53.2649   24.4530   46.3573 H   0  0  0  0  0  0  0  0  0  0  0  0
   55.7254   28.7268   44.0332 H   0  0  0  0  0  0  0  0  0  0  0  0
   56.5400   31.0789   44.0662 H   0  0  0  0  0  0  0  0  0  0  0  0
   58.9409   32.1181   47.8108 H   0  0  0  0  0  0  0  0  0  0  0  0
   61.8006   33.3550   46.9706 H   0  0  0  0  0  0  0  0  0  0  0  0
   62.9081   33.0557   48.3747 H   0  0  0  0  0  0  0  0  0  0  0  0
   60.5032   31.3353   47.5994 H   0  0  0  0  0  0  0  0  0  0  0  0
   62.2438   30.9471   47.2912 H   0  0  0  0  0  0  0  0  0  0  0  0
  1  2  1  0
  2  3  1  0
  3  4  2  0
  3  5  2  0
  3  6  1  0
  6  7  1  0
  7  8  1  0
  8  9  1  0
  9 10  1  0
 10 11  1  0
 11 12  2  0
 12 13  1  0
 13 14  2  0
 14 15  1  0
 15 16  1  0
 16 17  2  0
 17 18  1  0
 18 19  2  0
 19 20  1  0
 20 21  2  0
 21 22  1  0
 22 23  2  0
 23 24  1  0
 23 25  1  0
 25 26  2  0
 26 27  1  0
 27 28  2  0
 28 29  1  0
 19 30  1  0
 30 31  2  0
 15 32  2  0
  9 33  1  0
 33 34  1  0
 34  6  1  0
 32 11  1  0
 31 16  1  0
 29 20  1  0
 28 22  1  0
  1 35  1  0
  1 36  1  0
  1 37  1  0
  2 38  1  0
  2 39  1  0
  7 40  1  0
  7 41  1  0
  8 42  1  0
  8 43  1  0
 10 44  1  0
 10 45  1  0
 12 46  1  0
 13 47  1  0
 14 48  1  0
 17 49  1  0
 18 50  1  0
 24 51  1  0
 24 52  1  0
 24 53  1  0
 25 54  1  0
 26 55  1  0
 27 56  1  0
 30 57  1  0
 31 58  1  0
 32 59  1  0
 33 60  1  0
 33 61  1  0
 34 62  1  0
 34 63  1  0
M  CHG  1  29  -1
M  END
>  <UniqueID>  (13) 
13

>  <SMILES>  (13) 
CCS(=O)(=O)N1CCN(Cc2cccc(-c3ccc(-c4nc5c(C)cccc5[n-]4)cc3)c2)CC1

>  <Energy>  (13) 
113.57387636475539

>  <Genealogy>  (13) 
CCS(=O)(=O)N1CCN(Cc2cccc(-c3ccc(-c4nc5c(C)cccc5[n-]4)cc3)c2)CC1 (protonated)
CCS(=O)(=O)N1CCN(Cc2cccc(-c3ccc(-c4nc5c(C)cccc5[n-]4)cc3)c2)CC1 (3D coordinates assigned)
CCS(=O)(=O)N1CCN(Cc2cccc(-c3ccc(-c4nc5c(C)cccc5[n-]4)cc3)c2)CC1 (nonaromatic ring conformer: 113.57387636475539 kcal/mol)

>  <smiles>  (13) 
CCS(=O)(=O)N1CCN(Cc2cccc(-c3ccc(-c4nc5c(C)cccc5[nH]4)cc3)c2)CC1

>  <score_type>  (13) 
oracle

>  <origin>  (13) 
adg

>  <m_score__min__energy>  (13) 
-12.27

>  <m_primary>  (13) 
energy

$$$$
13:0
     RDKit          3D

 39 41  0  0  0  0  0  0  0  0999 V2000
   54.3960   25.0140   45.6410 O   0  0  0  0  0  0  0  0  0  0  0  0
   55.5050   25.2300   46.1930 C   0  0  0  0  0  0  0  0  0  0  0  0
   56.3500   24.1200   46.5280 N   0  0  0  0  0  0  0  0  0  0  0  0
   56.9270   23.2160   45.5760 C   0  0  0  0  0  0  0  0  0  0  0  0
   58.3210   23.1170   45.4820 C   0  0  0  0  0  0  0  0  0  0  0  0
   58.9040   22.2650   44.5400 C   0  0  0  0  0  0  0  0  0  0  0  0
   58.0990   21.4890   43.7010 C   0  0  0  0  0  0  0  0  0  0  0  0
   56.7060   21.5560   43.8130 C   0  0  0  0  0  0  0  0  0  0  0  0
   55.9040   20.7650   43.0020 O   0  0  0  0  0  0  0  0  0  0  0  0
   56.1200   22.4160   44.7480 C   0  0  0  0  0  0  0  0  0  0  0  0
   55.8990   26.5810   46.4740 N   0  0  0  0  0  0  0  0  0  0  0  0
   56.9710   27.2660   45.8110 C   0  0  0  0  0  0  0  0  0  0  0  0
   58.2930   26.8210   45.9310 C   0  0  0  0  0  0  0  0  0  0  0  0
   59.3130   27.4930   45.2670 C   0  0  0  0  0  0  0  0  0  0  0  0
   59.0070   28.6020   44.4810 C   0  0  0  0  0  0  0  0  0  0  0  0
   57.7140   29.0350   44.3500 N   0  0  0  0  0  0  0  0  0  0  0  0
   57.4300   30.1930   43.4810 C   0  0  0  0  0  0  0  0  0  0  0  0
   57.7830   31.4950   44.1690 C   0  0  0  0  0  0  0  0  0  0  0  0
   57.7980   31.5470   45.5750 C   0  0  0  0  0  0  0  0  0  0  0  0
   58.1210   32.7340   46.2390 C   0  0  0  0  0  0  0  0  0  0  0  0
   58.4340   33.8800   45.5110 C   0  0  0  0  0  0  0  0  0  0  0  0
   58.4230   33.8460   44.1160 C   0  0  0  0  0  0  0  0  0  0  0  0
   58.1000   32.6640   43.4380 C   0  0  0  0  0  0  0  0  0  0  0  0
   58.1320   32.6900   41.6800 Cl  0  0  0  0  0  0  0  0  0  0  0  0
   56.7010   28.4010   45.0310 C   0  0  0  0  0  0  0  0  0  0  0  0
   55.5150   28.8230   44.9520 O   0  0  0  0  0  0  0  0  0  0  0  0
   58.9591   23.7119   46.1520 H   0  0  0  0  0  0  0  0  0  0  0  0
   59.9993   22.2049   44.4585 H   0  0  0  0  0  0  0  0  0  0  0  0
   58.5602   20.8265   42.9537 H   0  0  0  0  0  0  0  0  0  0  0  0
   55.0247   22.4665   44.8356 H   0  0  0  0  0  0  0  0  0  0  0  0
   58.5242   25.9413   46.5495 H   0  0  0  0  0  0  0  0  0  0  0  0
   60.3544   27.1515   45.3615 H   0  0  0  0  0  0  0  0  0  0  0  0
   59.8141   29.1367   43.9589 H   0  0  0  0  0  0  0  0  0  0  0  0
   58.0223   30.1028   42.5585 H   0  0  0  0  0  0  0  0  0  0  0  0
   56.3540   30.2009   43.2526 H   0  0  0  0  0  0  0  0  0  0  0  0
   57.5535   30.6460   46.1567 H   0  0  0  0  0  0  0  0  0  0  0  0
   58.1281   32.7633   47.3386 H   0  0  0  0  0  0  0  0  0  0  0  0
   58.6899   34.8120   46.0362 H   0  0  0  0  0  0  0  0  0  0  0  0
   58.6696   34.7534   43.5453 H   0  0  0  0  0  0  0  0  0  0  0  0
  1  2  2  0
  2  3  1  0
  3  4  1  0
  4  5  2  0
  5  6  1  0
  6  7  2  0
  7  8  1  0
  8  9  1  0
  8 10  2  0
  2 11  1  0
 11 12  1  0
 12 13  2  0
 13 14  1  0
 14 15  2  0
 15 16  1  0
 16 17  1  0
 17 18  1  0
 18 19  2  0
 19 20  1  0
 20 21  2  0
 21 22  1  0
 22 23  2  0
 23 24  1  0
 16 25  1  0
 25 26  2  0
 10  4  1  0
 25 12  1  0
 23 18  1  0
  5 27  1  0
  6 28  1  0
  7 29  1  0
 10 30  1  0
 13 31  1  0
 14 32  1  0
 15 33  1  0
 17 34  1  0
 17 35  1  0
 19 36  1  0
 20 37  1  0
 21 38  1  0
 22 39  1  0
M  CHG  3   3  -1   9  -1  11  -1
M  END
>  <UniqueID>  (14) 
14

>  <SMILES>  (14) 
O=C([N-]c1cccc([O-])c1)[N-]c1cccn(Cc2ccccc2Cl)c1=O

>  <Energy>  (14) 
51.09925992455376

>  <Genealogy>  (14) 
O=C([N-]c1cccc([O-])c1)[N-]c1cccn(Cc2ccccc2Cl)c1=O (protonated)
O=C([N-]c1cccc([O-])c1)[N-]c1cccn(Cc2ccccc2Cl)c1=O (3D coordinates assigned)
O=C([N-]c1cccc([O-])c1)[N-]c1cccn(Cc2ccccc2Cl)c1=O (optimized conformer: 51.09925992455376 kcal/mol)

>  <smiles>  (14) 
O=C(Nc1cccc(O)c1)Nc1cccn(Cc2ccccc2Cl)c1=O

>  <score_type>  (14) 
oracle

>  <origin>  (14) 
adg

>  <m_score__min__energy>  (14) 
-14.66

>  <m_primary>  (14) 
energy

$$$$
14:0
     RDKit          3D

 50 52  0  0  0  0  0  0  0  0999 V2000
   53.8930   25.0020   45.6130 C   0  0  0  0  0  0  0  0  0  0  0  0
   54.7530   26.1220   45.9740 N   0  0  0  0  0  0  0  0  0  0  0  0
   56.0990   26.0070   46.4550 C   0  0  0  0  0  0  0  0  0  0  0  0
   56.3500   25.1530   47.3450 O   0  0  0  0  0  0  0  0  0  0  0  0
   57.2080   26.8130   45.9130 C   0  0  0  0  0  0  0  0  0  0  0  0
   56.9670   27.9410   45.1130 C   0  0  0  0  0  0  0  0  0  0  0  0
   58.0480   28.6940   44.6330 C   0  0  0  0  0  0  0  0  0  0  0  0
   57.8180   29.9200   43.7920 C   0  0  0  0  0  0  0  0  0  0  0  0
   58.4770   31.0760   44.3950 N   0  0  0  0  0  0  0  0  0  0  0  0
   58.4350   31.3360   45.8090 C   0  0  0  0  0  0  0  0  0  0  0  0
   57.7320   30.5990   46.5520 O   0  0  0  0  0  0  0  0  0  0  0  0
   59.2320   32.4520   46.3860 C   0  0  0  0  0  0  0  0  0  0  0  0
   60.2930   32.1300   47.1760 N   0  0  0  0  0  0  0  0  0  0  0  0
   61.0930   33.0550   47.7720 C   0  0  0  0  0  0  0  0  0  0  0  0
   62.2300   32.5960   48.6100 C   0  0  0  0  0  0  0  0  0  0  0  0
   62.0550   31.6340   49.6250 C   0  0  0  0  0  0  0  0  0  0  0  0
   63.1400   31.2110   50.3970 C   0  0  0  0  0  0  0  0  0  0  0  0
   64.4190   31.7310   50.1640 C   0  0  0  0  0  0  0  0  0  0  0  0
   65.7780   31.2100   51.1530 S   0  0  0  0  0  0  0  0  0  0  0  0
   65.6350   31.9250   52.7750 C   0  0  0  0  0  0  0  0  0  0  0  0
   67.0690   31.6520   50.5230 O   0  0  0  0  0  0  0  0  0  0  0  0
   65.7840   29.7110   51.2620 O   0  0  0  0  0  0  0  0  0  0  0  0
   64.6030   32.6820   49.1540 C   0  0  0  0  0  0  0  0  0  0  0  0
   63.5200   33.1070   48.3790 C   0  0  0  0  0  0  0  0  0  0  0  0
   60.8320   34.4160   47.5600 C   0  0  0  0  0  0  0  0  0  0  0  0
   59.7560   34.7970   46.7560 C   0  0  0  0  0  0  0  0  0  0  0  0
   59.5330   36.0240   46.5680 O   0  0  0  0  0  0  0  0  0  0  0  0
   58.9390   33.8210   46.1600 C   0  0  0  0  0  0  0  0  0  0  0  0
   57.8470   34.2440   45.3110 C   0  0  0  0  0  0  0  0  0  0  0  0
   56.9710   34.5800   44.6310 N   0  0  0  0  0  0  0  0  0  0  0  0
   59.3520   28.3200   44.9850 C   0  0  0  0  0  0  0  0  0  0  0  0
   59.5510   27.2080   45.8040 C   0  0  0  0  0  0  0  0  0  0  0  0
   58.4860   26.4900   46.2490 N   0  0  0  0  0  0  0  0  0  0  0  0
   53.5202   24.5165   46.5270 H   0  0  0  0  0  0  0  0  0  0  0  0
   53.0425   25.3691   45.0198 H   0  0  0  0  0  0  0  0  0  0  0  0
   54.4672   24.2751   45.0198 H   0  0  0  0  0  0  0  0  0  0  0  0
   55.9360   28.2325   44.8641 H   0  0  0  0  0  0  0  0  0  0  0  0
   58.2280   29.7522   42.7852 H   0  0  0  0  0  0  0  0  0  0  0  0
   56.7372   30.1150   43.7295 H   0  0  0  0  0  0  0  0  0  0  0  0
   58.9830   31.7330   43.7610 H   0  0  0  0  0  0  0  0  0  0  0  0
   61.0560   31.2127   49.8109 H   0  0  0  0  0  0  0  0  0  0  0  0
   62.9887   30.4657   51.1918 H   0  0  0  0  0  0  0  0  0  0  0  0
   65.7910   31.1449   53.5347 H   0  0  0  0  0  0  0  0  0  0  0  0
   66.3935   32.7123   52.8968 H   0  0  0  0  0  0  0  0  0  0  0  0
   64.6321   32.3601   52.8968 H   0  0  0  0  0  0  0  0  0  0  0  0
   65.6047   33.0971   48.9690 H   0  0  0  0  0  0  0  0  0  0  0  0
   63.6780   33.8477   47.5813 H   0  0  0  0  0  0  0  0  0  0  0  0
   61.4721   35.1803   48.0250 H   0  0  0  0  0  0  0  0  0  0  0  0
   60.2124   28.8989   44.6183 H   0  0  0  0  0  0  0  0  0  0  0  0
   60.5711   26.9120   46.0899 H   0  0  0  0  0  0  0  0  0  0  0  0
  1  2  1  0
  2  3  1  0
  3  4  2  0
  3  5  1  0
  5  6  2  0
  6  7  1  0
  7  8  1  0
  8  9  1  0
  9 10  1  0
 10 11  2  0
 10 12  1  0
 12 13  1  0
 13 14  1  0
 14 15  1  0
 15 16  2  0
 16 17  1  0
 17 18  2  0
 18 19  1  0
 19 20  1  0
 19 21  2  0
 19 22  2  0
 18 23  1  0
 23 24  2  0
 14 25  2  0
 25 26  1  0
 26 27  2  0
 26 28  1  0
 28 29  1  0
 29 30  3  0
  7 31  2  0
 31 32  1  0
 32 33  2  0
 33  5  1  0
 28 12  2  0
 24 15  1  0
  1 34  1  0
  1 35  1  0
  1 36  1  0
  6 37  1  0
  8 38  1  0
  8 39  1  0
  9 40  1  0
 16 41  1  0
 17 42  1  0
 20 43  1  0
 20 44  1  0
 20 45  1  0
 23 46  1  0
 24 47  1  0
 25 48  1  0
 31 49  1  0
 32 50  1  0
M  CHG  2   2  -1  13  -1
M  END
>  <UniqueID>  (15) 
15

>  <SMILES>  (15) 
C[N-]C(=O)c1cc(CNC(=O)c2[n-]c(-c3ccc(S(C)(=O)=O)cc3)cc(=O)c2C#N)ccn1

>  <Energy>  (15) 
59.379358468383366

>  <Genealogy>  (15) 
C[N-]C(=O)c1cc(CNC(=O)c2[n-]c(-c3ccc(S(C)(=O)=O)cc3)cc(=O)c2C#N)ccn1 (protonated)
C[N-]C(=O)c1cc(CNC(=O)c2[n-]c(-c3ccc(S(C)(=O)=O)cc3)cc(=O)c2C#N)ccn1 (3D coordinates assigned)
C[N-]C(=O)c1cc(CNC(=O)c2[n-]c(-c3ccc(S(C)(=O)=O)cc3)cc(=O)c2C#N)ccn1 (optimized conformer: 59.379358468383366 kcal/mol)

>  <smiles>  (15) 
CNC(=O)c1cc(CNC(=O)c2[nH]c(-c3ccc(S(C)(=O)=O)cc3)cc(=O)c2C#N)ccn1

>  <score_type>  (15) 
oracle

>  <origin>  (15) 
adg

>  <m_score__min__energy>  (15) 
-12.77

>  <m_primary>  (15) 
energy

$$$$
15:0
     RDKit          3D

 46 49  0  0  0  0  0  0  0  0999 V2000
   55.0150   20.3090   47.5450 H   0  0  0  0  0  0  0  0  0  0  0  0
   54.6670   21.1890   47.1850 O   0  0  0  0  0  0  0  0  0  0  0  0
   55.4940   22.3010   47.0220 C   0  0  0  0  0  0  0  0  0  0  0  0
   56.8640   22.2370   47.3250 C   0  0  0  0  0  0  0  0  0  0  0  0
   57.4290   21.0570   47.7950 O   0  0  0  0  0  0  0  0  0  0  0  0
   57.6720   23.3660   47.1540 C   0  0  0  0  0  0  0  0  0  0  0  0
   58.7449   23.3131   47.3911 H   0  0  0  0  0  0  0  0  0  0  0  0
   57.1210   24.5610   46.6830 C   0  0  0  0  0  0  0  0  0  0  0  0
   57.9060   25.6530   46.5170 N   0  0  0  0  0  0  0  0  0  0  0  0
   57.4120   26.8330   46.0630 C   0  0  0  0  0  0  0  0  0  0  0  0
   58.2500   27.8270   45.9380 N   0  0  0  0  0  0  0  0  0  0  0  0
   59.6670   27.8860   46.2850 C   0  0  0  0  0  0  0  0  0  0  0  0
   59.9163   27.0531   46.9589 H   0  0  0  0  0  0  0  0  0  0  0  0
   60.2759   27.8077   45.3723 H   0  0  0  0  0  0  0  0  0  0  0  0
   59.9500   29.1910   46.9720 C   0  0  0  0  0  0  0  0  0  0  0  0
   59.2980   29.5150   48.1720 C   0  0  0  0  0  0  0  0  0  0  0  0
   58.5984   28.7974   48.6255 H   0  0  0  0  0  0  0  0  0  0  0  0
   59.5330   30.7450   48.7940 C   0  0  0  0  0  0  0  0  0  0  0  0
   59.0248   30.9867   49.7391 H   0  0  0  0  0  0  0  0  0  0  0  0
   60.4170   31.6750   48.2160 C   0  0  0  0  0  0  0  0  0  0  0  0
   60.6870   32.9210   48.8010 O   0  0  0  0  0  0  0  0  0  0  0  0
   59.8530   34.0680   48.6770 C   0  0  0  0  0  0  0  0  0  0  0  0
   59.0850   34.0515   49.4644 H   0  0  0  0  0  0  0  0  0  0  0  0
   60.4599   34.9795   48.7809 H   0  0  0  0  0  0  0  0  0  0  0  0
   59.1920   34.0530   47.3310 C   0  0  0  0  0  0  0  0  0  0  0  0
   57.9310   33.4560   47.1660 C   0  0  0  0  0  0  0  0  0  0  0  0
   57.4386   32.9713   48.0219 H   0  0  0  0  0  0  0  0  0  0  0  0
   57.2990   33.4750   45.9190 C   0  0  0  0  0  0  0  0  0  0  0  0
   56.3155   32.9985   45.7940 H   0  0  0  0  0  0  0  0  0  0  0  0
   57.9160   34.0990   44.8310 C   0  0  0  0  0  0  0  0  0  0  0  0
   57.4200   34.1092   43.8492 H   0  0  0  0  0  0  0  0  0  0  0  0
   59.1630   34.7100   44.9900 C   0  0  0  0  0  0  0  0  0  0  0  0
   59.6461   35.2044   44.1343 H   0  0  0  0  0  0  0  0  0  0  0  0
   59.7970   34.6930   46.2370 C   0  0  0  0  0  0  0  0  0  0  0  0
   60.7739   35.1832   46.3612 H   0  0  0  0  0  0  0  0  0  0  0  0
   61.0540   31.3540   47.0120 C   0  0  0  0  0  0  0  0  0  0  0  0
   61.7454   32.0752   46.5517 H   0  0  0  0  0  0  0  0  0  0  0  0
   60.8190   30.1240   46.3890 C   0  0  0  0  0  0  0  0  0  0  0  0
   61.3181   29.8877   45.4376 H   0  0  0  0  0  0  0  0  0  0  0  0
   56.0720   26.9330   45.7550 N   0  0  0  0  0  0  0  0  0  0  0  0
   55.5200   28.1060   45.2900 O   0  0  0  0  0  0  0  0  0  0  0  0
   55.2450   25.8570   45.9070 C   0  0  0  0  0  0  0  0  0  0  0  0
   54.0200   25.9670   45.6200 O   0  0  0  0  0  0  0  0  0  0  0  0
   55.7510   24.6350   46.3770 C   0  0  0  0  0  0  0  0  0  0  0  0
   54.9400   23.4970   46.5500 C   0  0  0  0  0  0  0  0  0  0  0  0
   53.8670   23.5479   46.3134 H   0  0  0  0  0  0  0  0  0  0  0  0
  1  2  1  0
  2  3  1  0
  3  4  2  0
  4  5  1  0
  4  6  1  0
  6  7  1  0
  6  8  2  0
  8  9  1  0
  9 10  1  0
 10 11  2  0
 11 12  1  0
 12 13  1  0
 12 14  1  0
 12 15  1  0
 15 16  2  0
 16 17  1  0
 16 18  1  0
 18 19  1  0
 18 20  2  0
 20 21  1  0
 21 22  1  0
 22 23  1  0
 22 24  1  0
 22 25  1  0
 25 26  2  0
 26 27  1  0
 26 28  1  0
 28 29  1  0
 28 30  2  0
 30 31  1  0
 30 32  1  0
 32 33  1  0
 32 34  2  0
 34 35  1  0
 20 36  1  0
 36 37  1  0
 36 38  2  0
 38 39  1  0
 10 40  1  0
 40 41  1  0
 40 42  1  0
 42 43  2  0
 42 44  1  0
 44 45  2  0
 45 46  1  0
 45  3  1  0
 44  8  1  0
 38 15  1  0
 34 25  1  0
M  CHG  3   5  -1   9  -1  41  -1
M  END
>  <UniqueID>  (16) 
16

>  <SMILES>  (16) 
O=c1c2cc(O)c([O-])cc2[n-]/c(=N/Cc2ccc(OCc3ccccc3)cc2)n1[O-]

>  <Energy>  (16) 
60.046784909825675

>  <Genealogy>  (16) 
O=c1c2cc(O)c([O-])cc2[n-]c(=NCc2ccc(OCc3ccccc3)cc2)n1[O-] (protonated)
O=c1c2cc(O)c([O-])cc2[n-]/c(=N/Cc2ccc(OCc3ccccc3)cc2)n1[O-] (cis-trans isomerization)
O=c1c2cc(O)c([O-])cc2[n-]/c(=N/Cc2ccc(OCc3ccccc3)cc2)n1[O-] (3D coordinates assigned)
O=c1c2cc(O)c([O-])cc2[n-]/c(=N/Cc2ccc(OCc3ccccc3)cc2)n1[O-] (optimized conformer: 60.046784909825675 kcal/mol)

>  <smiles>  (16) 
O=c1c2cc(O)c(O)cc2[nH]c(=NCc2ccc(OCc3ccccc3)cc2)n1O

>  <score_type>  (16) 
oracle

>  <origin>  (16) 
adg

>  <m_score__min__energy>  (16) 
-14.949999999999999

>  <m_primary>  (16) 
energy

$$$$
16:0
     RDKit          3D

 33 34  0  0  0  0  0  0  0  0999 V2000
   55.1540   22.5510   47.1480 C   0  0  0  0  0  0  0  0  0  0  0  0
   55.4220   23.9680   46.7430 C   0  0  0  0  0  0  0  0  0  0  0  0
   54.4570   24.6850   46.1090 N   0  0  0  0  0  0  0  0  0  0  0  0
   54.6670   25.9480   45.7350 N   0  0  0  0  0  0  0  0  0  0  0  0
   55.8580   26.5620   45.9780 C   0  0  0  0  0  0  0  0  0  0  0  0
   56.0690   27.7910   45.6150 N   0  0  0  0  0  0  0  0  0  0  0  0
   57.3570   28.3230   45.1700 C   0  0  0  0  0  0  0  0  0  0  0  0
   57.1580   29.3520   44.0520 C   0  0  0  0  0  0  0  0  0  0  0  0
   57.5790   30.7220   44.5140 C   0  0  0  0  0  0  0  0  0  0  0  0
   58.1250   30.9020   45.7930 C   0  0  0  0  0  0  0  0  0  0  0  0
   58.5460   32.1680   46.2090 C   0  0  0  0  0  0  0  0  0  0  0  0
   58.4300   33.2790   45.3520 C   0  0  0  0  0  0  0  0  0  0  0  0
   58.8860   34.6160   45.8070 C   0  0  0  0  0  0  0  0  0  0  0  0
   58.9100   34.9670   47.1930 N   0  0  0  0  0  0  0  0  0  0  0  0
   59.2760   35.4630   44.9580 O   0  0  0  0  0  0  0  0  0  0  0  0
   57.9050   33.0870   44.0610 C   0  0  0  0  0  0  0  0  0  0  0  0
   57.4860   31.8200   43.6460 C   0  0  0  0  0  0  0  0  0  0  0  0
   56.8440   25.8720   46.6080 N   0  0  0  0  0  0  0  0  0  0  0  0
   56.6530   24.5870   46.9970 C   0  0  0  0  0  0  0  0  0  0  0  0
   57.5810   23.9660   47.5810 O   0  0  0  0  0  0  0  0  0  0  0  0
   55.1405   22.4797   48.2456 H   0  0  0  0  0  0  0  0  0  0  0  0
   54.1798   22.2333   46.7479 H   0  0  0  0  0  0  0  0  0  0  0  0
   55.9448   21.8995   46.7479 H   0  0  0  0  0  0  0  0  0  0  0  0
   57.8620   28.8055   46.0198 H   0  0  0  0  0  0  0  0  0  0  0  0
   57.9690   27.4942   44.7845 H   0  0  0  0  0  0  0  0  0  0  0  0
   57.7640   29.0618   43.1810 H   0  0  0  0  0  0  0  0  0  0  0  0
   56.0924   29.3803   43.7806 H   0  0  0  0  0  0  0  0  0  0  0  0
   58.2224   30.0423   46.4723 H   0  0  0  0  0  0  0  0  0  0  0  0
   58.9718   32.2976   47.2149 H   0  0  0  0  0  0  0  0  0  0  0  0
   59.1790   35.9340   47.4800 H   0  0  0  0  0  0  0  0  0  0  0  0
   58.7510   34.2590   47.9430 H   0  0  0  0  0  0  0  0  0  0  0  0
   57.8236   33.9411   43.3726 H   0  0  0  0  0  0  0  0  0  0  0  0
   57.0808   31.6829   42.6326 H   0  0  0  0  0  0  0  0  0  0  0  0
  1  2  1  0
  2  3  2  0
  3  4  1  0
  4  5  1  0
  5  6  2  3
  6  7  1  0
  7  8  1  0
  8  9  1  0
  9 10  2  0
 10 11  1  0
 11 12  2  0
 12 13  1  0
 13 14  1  0
 13 15  2  0
 12 16  1  0
 16 17  2  0
  5 18  1  0
 18 19  1  0
 19 20  2  0
 19  2  1  0
 17  9  1  0
  1 21  1  0
  1 22  1  0
  1 23  1  0
  7 24  1  0
  7 25  1  0
  8 26  1  0
  8 27  1  0
 10 28  1  0
 11 29  1  0
 14 30  1  0
 14 31  1  0
 16 32  1  0
 17 33  1  0
M  CHG  2   4  -1  18  -1
M  END
>  <UniqueID>  (17) 
17

>  <SMILES>  (17) 
Cc1n[n-]c(=NCCc2ccc(C(N)=O)cc2)[n-]c1=O

>  <Energy>  (17) 
33.41934224616439

>  <Genealogy>  (17) 
Cc1n[n-]c(=NCCc2ccc(C(N)=O)cc2)[n-]c1=O (protonated)
Cc1n[n-]c(=NCCc2ccc(C(N)=O)cc2)[n-]c1=O (3D coordinates assigned)
Cc1n[n-]c(=NCCc2ccc(C(N)=O)cc2)[n-]c1=O (optimized conformer: 33.41934224616439 kcal/mol)

>  <smiles>  (17) 
Cc1n[nH]c(=NCCc2ccc(C(N)=O)cc2)[nH]c1=O

>  <score_type>  (17) 
oracle

>  <origin>  (17) 
adg

>  <m_score__min__energy>  (17) 
-10.960000000000001

>  <m_primary>  (17) 
energy

$$$$
17:0
     RDKit          3D

 49 52  0  0  0  0  0  0  0  0999 V2000
   59.8020   30.3370   51.1850 C   0  0  0  0  0  0  0  0  0  0  0  0
   58.9440   31.5240   51.3390 N   0  0  0  0  0  0  0  0  0  0  0  0
   59.6800   32.6640   51.9470 C   0  0  0  0  0  0  0  0  0  0  0  0
   60.0310   33.7860   50.9510 C   0  0  0  0  0  0  0  0  0  0  0  0
   60.2690   33.2300   49.6180 N   0  0  0  0  0  0  0  0  0  0  0  0
   61.5710   33.3190   49.0140 C   0  0  0  0  0  0  0  0  0  0  0  0
   62.6360   32.9590   49.6480 N   0  0  0  0  0  0  0  0  0  0  0  0
   63.8000   33.0440   48.8420 C   0  0  0  0  0  0  0  0  0  0  0  0
   64.9480   32.8100   49.3020 O   0  0  0  0  0  0  0  0  0  0  0  0
   63.5220   33.5030   47.1380 S   0  0  0  0  0  0  0  0  0  0  0  0
   61.8080   33.7630   47.6310 C   0  0  0  0  0  0  0  0  0  0  0  0
   60.9050   34.4530   46.9160 C   0  0  0  0  0  0  0  0  0  0  0  0
   59.6380   33.8920   46.4110 C   0  0  0  0  0  0  0  0  0  0  0  0
   58.4180   34.5350   46.4610 C   0  0  0  0  0  0  0  0  0  0  0  0
   57.5090   33.6650   45.8960 C   0  0  0  0  0  0  0  0  0  0  0  0
   58.2340   32.5390   45.5360 C   0  0  0  0  0  0  0  0  0  0  0  0
   57.7180   31.3120   44.8860 C   0  0  0  0  0  0  0  0  0  0  0  0
   57.1630   31.3410   43.5940 C   0  0  0  0  0  0  0  0  0  0  0  0
   56.6890   30.1670   43.0030 C   0  0  0  0  0  0  0  0  0  0  0  0
   56.7580   28.9550   43.6910 C   0  0  0  0  0  0  0  0  0  0  0  0
   57.2990   28.9110   44.9810 C   0  0  0  0  0  0  0  0  0  0  0  0
   57.4020   27.3790   45.8440 S   0  0  0  0  0  0  0  0  0  0  0  0
   55.8260   26.6830   45.9750 N   0  0  0  0  0  0  0  0  0  0  0  0
   58.3030   26.4330   45.1000 O   0  0  0  0  0  0  0  0  0  0  0  0
   57.9680   27.6040   47.2170 O   0  0  0  0  0  0  0  0  0  0  0  0
   57.7830   30.0860   45.5730 C   0  0  0  0  0  0  0  0  0  0  0  0
   59.4960   32.7090   45.8590 O   0  0  0  0  0  0  0  0  0  0  0  0
   59.2410   32.3780   49.0100 C   0  0  0  0  0  0  0  0  0  0  0  0
   58.2560   31.8720   50.0770 C   0  0  0  0  0  0  0  0  0  0  0  0
   60.0791   29.9536   52.1781 H   0  0  0  0  0  0  0  0  0  0  0  0
   59.2560   29.5593   50.6310 H   0  0  0  0  0  0  0  0  0  0  0  0
   60.7118   30.6116   50.6310 H   0  0  0  0  0  0  0  0  0  0  0  0
   59.0558   33.0926   52.7449 H   0  0  0  0  0  0  0  0  0  0  0  0
   60.6327   32.2632   52.3236 H   0  0  0  0  0  0  0  0  0  0  0  0
   59.1964   34.5008   50.9017 H   0  0  0  0  0  0  0  0  0  0  0  0
   60.9445   34.2940   51.2937 H   0  0  0  0  0  0  0  0  0  0  0  0
   62.6390   32.6100   50.6340 H   0  0  0  0  0  0  0  0  0  0  0  0
   61.1249   35.5072   46.6919 H   0  0  0  0  0  0  0  0  0  0  0  0
   58.2126   35.5361   46.8680 H   0  0  0  0  0  0  0  0  0  0  0  0
   56.4302   33.8304   45.7590 H   0  0  0  0  0  0  0  0  0  0  0  0
   57.1018   32.2928   43.0460 H   0  0  0  0  0  0  0  0  0  0  0  0
   56.2595   30.1983   41.9908 H   0  0  0  0  0  0  0  0  0  0  0  0
   56.3869   28.0333   43.2190 H   0  0  0  0  0  0  0  0  0  0  0  0
   55.1450   27.4760   46.0010 H   0  0  0  0  0  0  0  0  0  0  0  0
   58.2172   30.0491   46.5830 H   0  0  0  0  0  0  0  0  0  0  0  0
   58.6898   32.9589   48.2558 H   0  0  0  0  0  0  0  0  0  0  0  0
   59.7306   31.5120   48.5406 H   0  0  0  0  0  0  0  0  0  0  0  0
   57.5159   32.6600   50.2806 H   0  0  0  0  0  0  0  0  0  0  0  0
   57.7705   30.9637   49.6907 H   0  0  0  0  0  0  0  0  0  0  0  0
  1  2  1  0
  2  3  1  0
  3  4  1  0
  4  5  1  0
  5  6  1  0
  6  7  2  0
  7  8  1  0
  8  9  2  0
  8 10  1  0
 10 11  1  0
 11 12  2  3
 12 13  1  0
 13 14  2  0
 14 15  1  0
 15 16  2  0
 16 17  1  0
 17 18  2  0
 18 19  1  0
 19 20  2  0
 20 21  1  0
 21 22  1  0
 22 23  1  0
 22 24  2  0
 22 25  2  0
 21 26  2  0
 16 27  1  0
  5 28  1  0
 28 29  1  0
 29  2  1  0
 11  6  1  0
 27 13  1  0
 26 17  1  0
  1 30  1  0
  1 31  1  0
  1 32  1  0
  3 33  1  0
  3 34  1  0
  4 35  1  0
  4 36  1  0
  7 37  1  0
 12 38  1  0
 14 39  1  0
 15 40  1  0
 18 41  1  0
 19 42  1  0
 20 43  1  0
 23 44  1  0
 26 45  1  0
 28 46  1  0
 28 47  1  0
 29 48  1  0
 29 49  1  0
M  CHG  2   7   1  23  -1
M  END
>  <UniqueID>  (18) 
18

>  <SMILES>  (18) 
CN1CCN(C2=[NH+]C(=O)SC2=Cc2ccc(-c3cccc(S([NH-])(=O)=O)c3)o2)CC1

>  <Energy>  (18) 
109.22195547926306

>  <Genealogy>  (18) 
CN1CCN(C2=[NH+]C(=O)SC2=Cc2ccc(-c3cccc(S([NH-])(=O)=O)c3)o2)CC1 (protonated)
CN1CCN(C2=[NH+]C(=O)SC2=Cc2ccc(-c3cccc(S([NH-])(=O)=O)c3)o2)CC1 (3D coordinates assigned)
CN1CCN(C2=[NH+]C(=O)SC2=Cc2ccc(-c3cccc(S([NH-])(=O)=O)c3)o2)CC1 (nonaromatic ring conformer: 109.22195547926306 kcal/mol)

>  <smiles>  (18) 
CN1CCN(C2=NC(=O)SC2=Cc2ccc(-c3cccc(S(N)(=O)=O)c3)o2)CC1

>  <score_type>  (18) 
oracle

>  <origin>  (18) 
adg

>  <m_score__min__energy>  (18) 
-10.68

>  <m_primary>  (18) 
energy

$$$$
18:0
     RDKit          3D

 30 31  0  0  0  0  0  0  0  0999 V2000
   60.1700   27.2780   47.6110 O   0  0  0  0  0  0  0  0  0  0  0  0
   59.0450   27.6100   47.1460 C   0  0  0  0  0  0  0  0  0  0  0  0
   58.8130   28.9710   46.7520 N   0  0  0  0  0  0  0  0  0  0  0  0
   59.8540   29.9910   46.8940 C   0  0  0  0  0  0  0  0  0  0  0  0
   59.3130   31.3900   46.5740 C   0  0  0  0  0  0  0  0  0  0  0  0
   57.8870   31.3440   46.2470 N   0  0  0  0  0  0  0  0  0  0  0  0
   57.3970   31.0130   45.0880 C   0  0  0  0  0  0  0  0  0  0  0  0
   57.8890   31.6300   43.9310 C   0  0  0  0  0  0  0  0  0  0  0  0
   57.3610   31.2750   42.6880 C   0  0  0  0  0  0  0  0  0  0  0  0
   56.3510   30.3140   42.6090 C   0  0  0  0  0  0  0  0  0  0  0  0
   55.8820   29.7210   43.7830 C   0  0  0  0  0  0  0  0  0  0  0  0
   56.4090   30.0790   44.9840 N   0  0  0  0  0  0  0  0  0  0  0  0
   57.9770   26.5940   47.0130 C   0  0  0  0  0  0  0  0  0  0  0  0
   58.1430   25.2970   47.5200 C   0  0  0  0  0  0  0  0  0  0  0  0
   57.1010   24.3790   47.3670 C   0  0  0  0  0  0  0  0  0  0  0  0
   57.2200   23.2080   47.8110 O   0  0  0  0  0  0  0  0  0  0  0  0
   55.9580   24.7510   46.7380 N   0  0  0  0  0  0  0  0  0  0  0  0
   55.8080   26.0100   46.2510 C   0  0  0  0  0  0  0  0  0  0  0  0
   54.7410   26.3370   45.6710 O   0  0  0  0  0  0  0  0  0  0  0  0
   56.8100   26.9170   46.3910 N   0  0  0  0  0  0  0  0  0  0  0  0
   57.8830   29.2370   46.3570 H   0  0  0  0  0  0  0  0  0  0  0  0
   60.2276   29.9796   47.9285 H   0  0  0  0  0  0  0  0  0  0  0  0
   60.6629   29.7617   46.1847 H   0  0  0  0  0  0  0  0  0  0  0  0
   59.4597   32.0402   47.4490 H   0  0  0  0  0  0  0  0  0  0  0  0
   59.8576   31.7832   45.7029 H   0  0  0  0  0  0  0  0  0  0  0  0
   58.6839   32.3871   44.0008 H   0  0  0  0  0  0  0  0  0  0  0  0
   57.7402   31.7518   41.7721 H   0  0  0  0  0  0  0  0  0  0  0  0
   55.9300   30.0276   41.6339 H   0  0  0  0  0  0  0  0  0  0  0  0
   55.0856   28.9637   43.7360 H   0  0  0  0  0  0  0  0  0  0  0  0
   59.0750   25.0083   48.0280 H   0  0  0  0  0  0  0  0  0  0  0  0
  1  2  2  0
  2  3  1  0
  3  4  1  0
  4  5  1  0
  5  6  1  0
  6  7  2  3
  7  8  1  0
  8  9  2  0
  9 10  1  0
 10 11  2  0
 11 12  1  0
  2 13  1  0
 13 14  2  0
 14 15  1  0
 15 16  2  0
 15 17  1  0
 17 18  1  0
 18 19  2  0
 18 20  1  0
 12  7  1  0
 20 13  1  0
  3 21  1  0
  4 22  1  0
  4 23  1  0
  5 24  1  0
  5 25  1  0
  8 26  1  0
  9 27  1  0
 10 28  1  0
 11 29  1  0
 14 30  1  0
M  CHG  3  12  -1  17  -1  20  -1
M  END
>  <UniqueID>  (19) 
19

>  <SMILES>  (19) 
O=C(NCCN=c1cccc[n-]1)c1cc(=O)[n-]c(=O)[n-]1

>  <Energy>  (19) 
28.739337240470064

>  <Genealogy>  (19) 
O=C(NCCN=c1cccc[n-]1)c1cc(=O)[n-]c(=O)[n-]1 (protonated)
O=C(NCCN=c1cccc[n-]1)c1cc(=O)[n-]c(=O)[n-]1 (3D coordinates assigned)
O=C(NCCN=c1cccc[n-]1)c1cc(=O)[n-]c(=O)[n-]1 (optimized conformer: 28.739337240470064 kcal/mol)

>  <smiles>  (19) 
O=C(NCCN=c1cccc[nH]1)c1cc(=O)[nH]c(=O)[nH]1

>  <score_type>  (19) 
oracle

>  <origin>  (19) 
adg

>  <m_score__min__energy>  (19) 
-11.890000000000001

>  <m_primary>  (19) 
energy

$$$$
19:0
     RDKit          3D

 34 35  0  0  0  0  0  0  0  0999 V2000
   56.7640   31.9690   52.3870 C   0  0  0  0  0  0  0  0  0  0  0  0
   57.7190   31.3600   51.4070 C   0  0  0  0  0  0  0  0  0  0  0  0
   58.0550   31.9690   50.1880 C   0  0  0  0  0  0  0  0  0  0  0  0
   58.9790   31.2490   49.4410 C   0  0  0  0  0  0  0  0  0  0  0  0
   59.3890   29.8610   50.2970 S   0  0  0  0  0  0  0  0  0  0  0  0
   58.4010   30.1630   51.6230 C   0  0  0  0  0  0  0  0  0  0  0  0
   58.2690   29.1160   53.0290 S   0  0  0  0  0  0  0  0  0  0  0  0
   58.3910   29.9480   54.2730 O   0  0  0  0  0  0  0  0  0  0  0  0
   59.3570   28.0810   53.0180 O   0  0  0  0  0  0  0  0  0  0  0  0
   56.7280   28.3210   53.0380 N   0  0  0  0  0  0  0  0  0  0  0  0
   55.4970   28.9410   53.4210 C   0  0  0  0  0  0  0  0  0  0  0  0
   55.5230   29.8350   54.3100 O   0  0  0  0  0  0  0  0  0  0  0  0
   54.2500   28.5710   52.8130 N   0  0  0  0  0  0  0  0  0  0  0  0
   52.9680   29.1000   53.2780 C   0  0  0  0  0  0  0  0  0  0  0  0
   52.3590   29.9820   52.2240 C   0  0  0  0  0  0  0  0  0  0  0  0
   52.4490   29.6410   50.8650 C   0  0  0  0  0  0  0  0  0  0  0  0
   51.9000   30.4810   49.8910 C   0  0  0  0  0  0  0  0  0  0  0  0
   51.2600   31.6710   50.2640 C   0  0  0  0  0  0  0  0  0  0  0  0
   50.7120   32.5120   49.2970 O   0  0  0  0  0  0  0  0  0  0  0  0
   51.1730   32.0170   51.6170 C   0  0  0  0  0  0  0  0  0  0  0  0
   50.5420   33.1960   51.9970 O   0  0  0  0  0  0  0  0  0  0  0  0
   51.7210   31.1780   52.5930 C   0  0  0  0  0  0  0  0  0  0  0  0
   57.1024   31.7532   53.4112 H   0  0  0  0  0  0  0  0  0  0  0  0
   56.7270   33.0578   52.2348 H   0  0  0  0  0  0  0  0  0  0  0  0
   55.7612   31.5432   52.2348 H   0  0  0  0  0  0  0  0  0  0  0  0
   57.6271   32.9262   49.8554 H   0  0  0  0  0  0  0  0  0  0  0  0
   59.3752   31.5380   48.4564 H   0  0  0  0  0  0  0  0  0  0  0  0
   54.2330   27.9110   52.0050 H   0  0  0  0  0  0  0  0  0  0  0  0
   52.2856   28.2641   53.4914 H   0  0  0  0  0  0  0  0  0  0  0  0
   53.1329   29.6916   54.1906 H   0  0  0  0  0  0  0  0  0  0  0  0
   52.9529   28.7102   50.5655 H   0  0  0  0  0  0  0  0  0  0  0  0
   51.9707   30.2068   48.8281 H   0  0  0  0  0  0  0  0  0  0  0  0
   50.6360   33.5110   49.4460 H   0  0  0  0  0  0  0  0  0  0  0  0
   51.6520   31.4562   53.6550 H   0  0  0  0  0  0  0  0  0  0  0  0
  1  2  1  0
  2  3  1  0
  3  4  2  0
  4  5  1  0
  5  6  1  0
  6  7  1  0
  7  8  2  0
  7  9  2  0
  7 10  1  0
 10 11  1  0
 11 12  2  0
 11 13  1  0
 13 14  1  0
 14 15  1  0
 15 16  2  0
 16 17  1  0
 17 18  2  0
 18 19  1  0
 18 20  1  0
 20 21  1  0
 20 22  2  0
  6  2  2  0
 22 15  1  0
  1 23  1  0
  1 24  1  0
  1 25  1  0
  3 26  1  0
  4 27  1  0
 13 28  1  0
 14 29  1  0
 14 30  1  0
 16 31  1  0
 17 32  1  0
 19 33  1  0
 22 34  1  0
M  CHG  2  10  -1  21  -1
M  END
>  <UniqueID>  (20) 
20

>  <SMILES>  (20) 
Cc1ccsc1S(=O)(=O)[N-]C(=O)NCc1ccc(O)c([O-])c1

>  <Energy>  (20) 
58.76445820320438

>  <Genealogy>  (20) 
Cc1ccsc1S(=O)(=O)[N-]C(=O)NCc1ccc(O)c([O-])c1 (protonated)
Cc1ccsc1S(=O)(=O)[N-]C(=O)NCc1ccc(O)c([O-])c1 (3D coordinates assigned)
Cc1ccsc1S(=O)(=O)[N-]C(=O)NCc1ccc(O)c([O-])c1 (optimized conformer: 58.76445820320438 kcal/mol)

>  <smiles>  (20) 
Cc1ccsc1S(=O)(=O)NC(=O)NCc1ccc(O)c(O)c1

>  <score_type>  (20) 
oracle

>  <origin>  (20) 
adg

>  <m_score__min__energy>  (20) 
-13.19

>  <m_primary>  (20) 
energy

$$$$
20:0
     RDKit          3D

 59 62  0  0  0  0  0  0  0  0999 V2000
   55.9140   30.6530   44.8400 O   0  0  0  0  0  0  0  0  0  0  0  0
   57.1690   30.7620   44.8710 C   0  0  0  0  0  0  0  0  0  0  0  0
   58.0020   29.6570   44.5060 N   0  0  0  0  0  0  0  0  0  0  0  0
   57.5080   28.2940   44.3420 C   0  0  0  0  0  0  0  0  0  0  0  0
   56.8330   27.8030   45.6310 C   0  0  0  0  0  0  0  0  0  0  0  0
   56.8050   26.2870   45.6990 C   0  0  0  0  0  0  0  0  0  0  0  0
   55.5660   25.6210   45.8060 C   0  0  0  0  0  0  0  0  0  0  0  0
   54.3870   26.3390   45.9950 O   0  0  0  0  0  0  0  0  0  0  0  0
   55.5010   24.2260   45.7090 C   0  0  0  0  0  0  0  0  0  0  0  0
   56.6570   23.4860   45.4700 C   0  0  0  0  0  0  0  0  0  0  0  0
   57.8880   24.1310   45.3580 C   0  0  0  0  0  0  0  0  0  0  0  0
   57.9820   25.5170   45.5210 C   0  0  0  0  0  0  0  0  0  0  0  0
   59.2730   26.1240   45.4380 N   0  0  0  0  0  0  0  0  0  0  0  0
   60.0030   26.9560   46.7740 S   0  0  0  0  0  0  0  0  0  0  0  0
   59.1480   26.7480   47.9920 O   0  0  0  0  0  0  0  0  0  0  0  0
   61.3650   26.3810   47.0430 O   0  0  0  0  0  0  0  0  0  0  0  0
   60.1810   28.7110   46.4550 C   0  0  0  0  0  0  0  0  0  0  0  0
   60.0880   29.5410   47.7090 C   0  0  0  0  0  0  0  0  0  0  0  0
   58.8960   29.5750   48.4560 C   0  0  0  0  0  0  0  0  0  0  0  0
   58.8190   30.3330   49.6290 C   0  0  0  0  0  0  0  0  0  0  0  0
   59.9340   31.0440   50.0770 C   0  0  0  0  0  0  0  0  0  0  0  0
   61.1310   30.9930   49.3590 C   0  0  0  0  0  0  0  0  0  0  0  0
   61.2120   30.2370   48.1870 C   0  0  0  0  0  0  0  0  0  0  0  0
   57.7860   32.0120   45.3290 C   0  0  0  0  0  0  0  0  0  0  0  0
   58.2220   32.2510   46.6190 C   0  0  0  0  0  0  0  0  0  0  0  0
   58.6440   33.5640   46.6420 C   0  0  0  0  0  0  0  0  0  0  0  0
   59.2450   34.2710   47.8260 C   0  0  0  0  0  0  0  0  0  0  0  0
   60.7380   34.0710   47.8700 C   0  0  0  0  0  0  0  0  0  0  0  0
   61.4410   34.2480   49.0750 C   0  0  0  0  0  0  0  0  0  0  0  0
   62.8250   34.0480   49.1170 C   0  0  0  0  0  0  0  0  0  0  0  0
   63.5130   33.6510   47.9680 C   0  0  0  0  0  0  0  0  0  0  0  0
   62.8180   33.4580   46.7700 C   0  0  0  0  0  0  0  0  0  0  0  0
   61.4350   33.6640   46.7190 C   0  0  0  0  0  0  0  0  0  0  0  0
   58.4680   34.0420   45.3510 C   0  0  0  0  0  0  0  0  0  0  0  0
   58.7850   35.3200   44.8940 O   0  0  0  0  0  0  0  0  0  0  0  0
   57.9320   33.1020   44.5480 N   0  0  0  0  0  0  0  0  0  0  0  0
   56.7771   28.2712   43.5203 H   0  0  0  0  0  0  0  0  0  0  0  0
   58.3584   27.6344   44.1145 H   0  0  0  0  0  0  0  0  0  0  0  0
   57.3907   28.1898   46.4967 H   0  0  0  0  0  0  0  0  0  0  0  0
   55.7957   28.1690   45.6395 H   0  0  0  0  0  0  0  0  0  0  0  0
   54.5346   23.7127   45.8218 H   0  0  0  0  0  0  0  0  0  0  0  0
   56.5985   22.3922   45.3696 H   0  0  0  0  0  0  0  0  0  0  0  0
   58.7929   23.5449   45.1396 H   0  0  0  0  0  0  0  0  0  0  0  0
   61.1616   28.8864   45.9885 H   0  0  0  0  0  0  0  0  0  0  0  0
   59.3563   29.0143   45.7932 H   0  0  0  0  0  0  0  0  0  0  0  0
   58.0204   29.0026   48.1158 H   0  0  0  0  0  0  0  0  0  0  0  0
   57.8790   30.3690   50.1992 H   0  0  0  0  0  0  0  0  0  0  0  0
   59.8697   31.6448   50.9962 H   0  0  0  0  0  0  0  0  0  0  0  0
   62.0105   31.5485   49.7166 H   0  0  0  0  0  0  0  0  0  0  0  0
   62.1618   30.1860   47.6344 H   0  0  0  0  0  0  0  0  0  0  0  0
   58.2306   31.5386   47.4571 H   0  0  0  0  0  0  0  0  0  0  0  0
   59.0277   35.3468   47.7517 H   0  0  0  0  0  0  0  0  0  0  0  0
   58.8070   33.8534   48.7446 H   0  0  0  0  0  0  0  0  0  0  0  0
   60.9015   34.5444   49.9866 H   0  0  0  0  0  0  0  0  0  0  0  0
   63.3732   34.2039   50.0579 H   0  0  0  0  0  0  0  0  0  0  0  0
   64.6006   33.4903   48.0055 H   0  0  0  0  0  0  0  0  0  0  0  0
   63.3597   33.1435   45.8658 H   0  0  0  0  0  0  0  0  0  0  0  0
   60.8916   33.5070   45.7756 H   0  0  0  0  0  0  0  0  0  0  0  0
   59.7380   35.6130   44.7210 H   0  0  0  0  0  0  0  0  0  0  0  0
  1  2  2  0
  2  3  1  0
  3  4  1  0
  4  5  1  0
  5  6  1  0
  6  7  2  0
  7  8  1  0
  7  9  1  0
  9 10  2  0
 10 11  1  0
 11 12  2  0
 12 13  1  0
 13 14  1  0
 14 15  2  0
 14 16  2  0
 14 17  1  0
 17 18  1  0
 18 19  2  0
 19 20  1  0
 20 21  2  0
 21 22  1  0
 22 23  2  0
  2 24  1  0
 24 25  2  0
 25 26  1  0
 26 27  1  0
 27 28  1  0
 28 29  2  0
 29 30  1  0
 30 31  2  0
 31 32  1  0
 32 33  2  0
 26 34  2  0
 34 35  1  0
 34 36  1  0
 12  6  1  0
 23 18  1  0
 36 24  1  0
 33 28  1  0
  4 37  1  0
  4 38  1  0
  5 39  1  0
  5 40  1  0
  9 41  1  0
 10 42  1  0
 11 43  1  0
 17 44  1  0
 17 45  1  0
 19 46  1  0
 20 47  1  0
 21 48  1  0
 22 49  1  0
 23 50  1  0
 25 51  1  0
 27 52  1  0
 27 53  1  0
 29 54  1  0
 30 55  1  0
 31 56  1  0
 32 57  1  0
 33 58  1  0
 35 59  1  0
M  CHG  4   3  -1   8  -1  13  -1  36  -1
M  END
>  <UniqueID>  (21) 
21

>  <SMILES>  (21) 
O=C([N-]CCc1c([O-])cccc1[N-]S(=O)(=O)Cc1ccccc1)c1cc(Cc2ccccc2)c(O)[n-]1

>  <Energy>  (21) 
85.02590826383604

>  <Genealogy>  (21) 
O=C([N-]CCc1c([O-])cccc1[N-]S(=O)(=O)Cc1ccccc1)c1cc(Cc2ccccc2)c(O)[n-]1 (protonated)
O=C([N-]CCc1c([O-])cccc1[N-]S(=O)(=O)Cc1ccccc1)c1cc(Cc2ccccc2)c(O)[n-]1 (3D coordinates assigned)
O=C([N-]CCc1c([O-])cccc1[N-]S(=O)(=O)Cc1ccccc1)c1cc(Cc2ccccc2)c(O)[n-]1 (optimized conformer: 85.02590826383604 kcal/mol)

>  <smiles>  (21) 
O=C(NCCc1c(O)cccc1NS(=O)(=O)Cc1ccccc1)c1cc(Cc2ccccc2)c(O)[nH]1

>  <score_type>  (21) 
oracle

>  <origin>  (21) 
adg

>  <m_score__min__energy>  (21) 
-16.82

>  <m_primary>  (21) 
energy

$$$$
21:0
     RDKit          3D

 42 43  0  0  0  0  0  0  0  0999 V2000
   60.5403   30.3282   45.3110 H   0  0  0  0  0  0  0  0  0  0  0  0
   60.7570   29.9780   46.3310 C   0  0  0  0  0  0  0  0  0  0  0  0
   61.4450   30.9000   47.2570 C   0  0  0  0  0  0  0  0  0  0  0  0
   62.6370   31.2210   47.0040 O   0  0  0  0  0  0  0  0  0  0  0  0
   60.7990   31.4280   48.4300 N   0  0  0  0  0  0  0  0  0  0  0  0
   59.9530   30.9570   48.8180 H   0  0  0  0  0  0  0  0  0  0  0  0
   61.2640   32.6390   49.1060 C   0  0  0  0  0  0  0  0  0  0  0  0
   61.3715   32.4320   50.1810 H   0  0  0  0  0  0  0  0  0  0  0  0
   62.2307   32.9334   48.6714 H   0  0  0  0  0  0  0  0  0  0  0  0
   60.2700   33.7930   48.9140 C   0  0  0  0  0  0  0  0  0  0  0  0
   59.2500   33.4046   49.0511 H   0  0  0  0  0  0  0  0  0  0  0  0
   60.5152   34.5677   49.6555 H   0  0  0  0  0  0  0  0  0  0  0  0
   60.3670   34.4400   47.5180 C   0  0  0  0  0  0  0  0  0  0  0  0
   60.6700   35.4911   47.6336 H   0  0  0  0  0  0  0  0  0  0  0  0
   61.1072   33.8757   46.9318 H   0  0  0  0  0  0  0  0  0  0  0  0
   59.0760   34.3910   46.7950 N   0  0  0  0  0  0  0  0  0  0  0  0
   59.2630   34.1110   45.3490 C   0  0  0  0  0  0  0  0  0  0  0  0
   59.4144   35.0625   44.8182 H   0  0  0  0  0  0  0  0  0  0  0  0
   60.1380   33.4539   45.2371 H   0  0  0  0  0  0  0  0  0  0  0  0
   58.0440   33.3930   44.7470 C   0  0  0  0  0  0  0  0  0  0  0  0
   57.1597   34.0335   44.8803 H   0  0  0  0  0  0  0  0  0  0  0  0
   58.2639   33.2090   43.6850 H   0  0  0  0  0  0  0  0  0  0  0  0
   57.7840   32.1320   45.3500 O   0  0  0  0  0  0  0  0  0  0  0  0
   58.1220   32.0790   46.7310 C   0  0  0  0  0  0  0  0  0  0  0  0
   57.3936   31.4308   47.2402 H   0  0  0  0  0  0  0  0  0  0  0  0
   59.1501   31.6924   46.7910 H   0  0  0  0  0  0  0  0  0  0  0  0
   58.1220   33.4500   47.4320 C   0  0  0  0  0  0  0  0  0  0  0  0
   57.1100   33.8777   47.3789 H   0  0  0  0  0  0  0  0  0  0  0  0
   58.4323   33.3014   48.4768 H   0  0  0  0  0  0  0  0  0  0  0  0
   60.3830   28.7360   46.6700 C   0  0  0  0  0  0  0  0  0  0  0  0
   61.1305   28.0827   47.1438 H   0  0  0  0  0  0  0  0  0  0  0  0
   59.0220   28.1890   46.4450 C   0  0  0  0  0  0  0  0  0  0  0  0
   58.6320   26.9110   46.8930 C   0  0  0  0  0  0  0  0  0  0  0  0
   59.3468   26.2847   47.4469 H   0  0  0  0  0  0  0  0  0  0  0  0
   57.3410   26.4330   46.6380 C   0  0  0  0  0  0  0  0  0  0  0  0
   56.8460   24.6930   47.2630 Br  0  0  0  0  0  0  0  0  0  0  0  0
   56.4300   27.2210   45.9230 C   0  0  0  0  0  0  0  0  0  0  0  0
   55.1470   26.7460   45.6690 O   0  0  0  0  0  0  0  0  0  0  0  0
   56.8140   28.4840   45.4580 C   0  0  0  0  0  0  0  0  0  0  0  0
   55.5910   29.5750   44.4690 Br  0  0  0  0  0  0  0  0  0  0  0  0
   58.1040   28.9620   45.7150 C   0  0  0  0  0  0  0  0  0  0  0  0
   58.4020   29.9529   45.3416 H   0  0  0  0  0  0  0  0  0  0  0  0
  1  2  1  0
  2  3  1  0
  3  4  2  0
  3  5  1  0
  5  6  1  0
  5  7  1  0
  7  8  1  0
  7  9  1  0
  7 10  1  0
 10 11  1  0
 10 12  1  0
 10 13  1  0
 13 14  1  0
 13 15  1  0
 13 16  1  0
 16 17  1  0
 17 18  1  0
 17 19  1  0
 17 20  1  0
 20 21  1  0
 20 22  1  0
 20 23  1  0
 23 24  1  0
 24 25  1  0
 24 26  1  0
 24 27  1  0
 27 28  1  0
 27 29  1  0
  2 30  2  0
 30 31  1  0
 30 32  1  0
 32 33  2  0
 33 34  1  0
 33 35  1  0
 35 36  1  0
 35 37  2  0
 37 38  1  0
 37 39  1  0
 39 40  1  0
 39 41  2  0
 41 42  1  0
 27 16  1  0
 41 32  1  0
M  CHG  1  38  -1
M  END
>  <UniqueID>  (22) 
22

>  <SMILES>  (22) 
O=C(/C=C/c1cc(Br)c([O-])c(Br)c1)NCCCN1CCOCC1

>  <Energy>  (22) 
52.75093499921745

>  <Genealogy>  (22) 
O=C(C=Cc1cc(Br)c([O-])c(Br)c1)NCCCN1CCOCC1 (protonated)
O=C(/C=C/c1cc(Br)c([O-])c(Br)c1)NCCCN1CCOCC1 (cis-trans isomerization)
O=C(/C=C/c1cc(Br)c([O-])c(Br)c1)NCCCN1CCOCC1 (3D coordinates assigned)
O=C(/C=C/c1cc(Br)c([O-])c(Br)c1)NCCCN1CCOCC1 (nonaromatic ring conformer: 52.75093499921745 kcal/mol)

>  <smiles>  (22) 
O=C(C=Cc1cc(Br)c(O)c(Br)c1)NCCCN1CCOCC1

>  <score_type>  (22) 
oracle

>  <origin>  (22) 
adg

>  <m_score__min__energy>  (22) 
-10.42

>  <m_primary>  (22) 
energy

$$$$
22:0
     RDKit          3D

 47 50  0  0  0  0  0  0  0  0999 V2000
   55.1070   26.6890   45.9990 O   0  0  0  0  0  0  0  0  0  0  0  0
   56.2560   26.3070   46.3450 C   0  0  0  0  0  0  0  0  0  0  0  0
   57.4130   27.2570   46.2490 C   0  0  0  0  0  0  0  0  0  0  0  0
   57.6720   27.7800   44.5150 S   0  0  0  0  0  0  0  0  0  0  0  0
   57.3430   29.5060   44.8600 C   0  0  0  0  0  0  0  0  0  0  0  0
   56.1800   30.1140   44.5760 N   0  0  0  0  0  0  0  0  0  0  0  0
   56.3460   31.3920   44.8720 N   0  0  0  0  0  0  0  0  0  0  0  0
   57.6070   31.5270   45.3250 C   0  0  0  0  0  0  0  0  0  0  0  0
   58.2140   32.8200   45.7060 C   0  0  0  0  0  0  0  0  0  0  0  0
   58.4680   33.1160   47.0580 C   0  0  0  0  0  0  0  0  0  0  0  0
   59.0910   34.3160   47.4150 C   0  0  0  0  0  0  0  0  0  0  0  0
   59.4680   35.2290   46.4270 C   0  0  0  0  0  0  0  0  0  0  0  0
   59.2150   34.9470   45.0830 C   0  0  0  0  0  0  0  0  0  0  0  0
   58.5870   33.7510   44.7210 C   0  0  0  0  0  0  0  0  0  0  0  0
   58.2740   30.3540   45.3320 N   0  0  0  0  0  0  0  0  0  0  0  0
   56.4470   24.9490   46.7580 N   0  0  0  0  0  0  0  0  0  0  0  0
   57.1520   23.9640   45.9890 C   0  0  0  0  0  0  0  0  0  0  0  0
   58.5560   23.9720   45.9490 C   0  0  0  0  0  0  0  0  0  0  0  0
   59.2470   22.9730   45.2580 C   0  0  0  0  0  0  0  0  0  0  0  0
   58.5430   21.9540   44.6110 C   0  0  0  0  0  0  0  0  0  0  0  0
   57.1460   21.9310   44.6560 C   0  0  0  0  0  0  0  0  0  0  0  0
   56.4430   22.9330   45.3460 C   0  0  0  0  0  0  0  0  0  0  0  0
   55.0080   22.9420   45.3330 N   0  0  0  0  0  0  0  0  0  0  0  0
   54.2620   21.8820   46.0110 C   0  0  0  0  0  0  0  0  0  0  0  0
   52.8600   22.3890   46.3670 C   0  0  0  0  0  0  0  0  0  0  0  0
   52.2200   22.9390   45.2310 O   0  0  0  0  0  0  0  0  0  0  0  0
   52.9160   24.0940   44.8000 C   0  0  0  0  0  0  0  0  0  0  0  0
   54.3180   23.7270   44.3080 C   0  0  0  0  0  0  0  0  0  0  0  0
   57.2059   28.1431   46.8671 H   0  0  0  0  0  0  0  0  0  0  0  0
   58.3207   26.7487   46.6062 H   0  0  0  0  0  0  0  0  0  0  0  0
   58.1747   32.3990   47.8389 H   0  0  0  0  0  0  0  0  0  0  0  0
   59.2843   34.5412   48.4742 H   0  0  0  0  0  0  0  0  0  0  0  0
   59.9640   36.1698   46.7078 H   0  0  0  0  0  0  0  0  0  0  0  0
   59.5106   35.6679   44.3065 H   0  0  0  0  0  0  0  0  0  0  0  0
   58.3841   33.5379   43.6611 H   0  0  0  0  0  0  0  0  0  0  0  0
   59.1140   24.7680   46.4638 H   0  0  0  0  0  0  0  0  0  0  0  0
   60.3463   22.9888   45.2234 H   0  0  0  0  0  0  0  0  0  0  0  0
   59.0884   21.1695   44.0660 H   0  0  0  0  0  0  0  0  0  0  0  0
   56.5948   21.1252   44.1492 H   0  0  0  0  0  0  0  0  0  0  0  0
   54.1783   21.0099   45.3459 H   0  0  0  0  0  0  0  0  0  0  0  0
   54.7912   21.5930   46.9310 H   0  0  0  0  0  0  0  0  0  0  0  0
   52.2593   21.5500   46.7482 H   0  0  0  0  0  0  0  0  0  0  0  0
   52.9530   23.1731   47.1329 H   0  0  0  0  0  0  0  0  0  0  0  0
   52.3573   24.5672   43.9790 H   0  0  0  0  0  0  0  0  0  0  0  0
   53.0087   24.7887   45.6478 H   0  0  0  0  0  0  0  0  0  0  0  0
   54.2385   23.1344   43.3847 H   0  0  0  0  0  0  0  0  0  0  0  0
   54.8872   24.6466   44.1073 H   0  0  0  0  0  0  0  0  0  0  0  0
  1  2  2  0
  2  3  1  0
  3  4  1  0
  4  5  1  0
  5  6  2  0
  6  7  1  0
  7  8  1  0
  8  9  1  0
  9 10  2  0
 10 11  1  0
 11 12  2  0
 12 13  1  0
 13 14  2  0
  8 15  2  0
  2 16  1  0
 16 17  1  0
 17 18  2  0
 18 19  1  0
 19 20  2  0
 20 21  1  0
 21 22  2  0
 22 23  1  0
 23 24  1  0
 24 25  1  0
 25 26  1  0
 26 27  1  0
 27 28  1  0
 15  5  1  0
 22 17  1  0
 28 23  1  0
 14  9  1  0
  3 29  1  0
  3 30  1  0
 10 31  1  0
 11 32  1  0
 12 33  1  0
 13 34  1  0
 14 35  1  0
 18 36  1  0
 19 37  1  0
 20 38  1  0
 21 39  1  0
 24 40  1  0
 24 41  1  0
 25 42  1  0
 25 43  1  0
 27 44  1  0
 27 45  1  0
 28 46  1  0
 28 47  1  0
M  CHG  2   7  -1  16  -1
M  END
>  <UniqueID>  (23) 
23

>  <SMILES>  (23) 
O=C(CSc1n[n-]c(-c2ccccc2)n1)[N-]c1ccccc1N1CCOCC1

>  <Energy>  (23) 
89.41866678947613

>  <Genealogy>  (23) 
O=C(CSc1n[n-]c(-c2ccccc2)n1)[N-]c1ccccc1N1CCOCC1 (protonated)
O=C(CSc1n[n-]c(-c2ccccc2)n1)[N-]c1ccccc1N1CCOCC1 (3D coordinates assigned)
O=C(CSc1n[n-]c(-c2ccccc2)n1)[N-]c1ccccc1N1CCOCC1 (nonaromatic ring conformer: 89.41866678947613 kcal/mol)

>  <smiles>  (23) 
O=C(CSc1n[nH]c(-c2ccccc2)n1)Nc1ccccc1N1CCOCC1

>  <score_type>  (23) 
oracle

>  <origin>  (23) 
adg

>  <m_score__min__energy>  (23) 
-12.48

>  <m_primary>  (23) 
energy

$$$$
23:0
     RDKit          3D

 39 41  0  0  0  0  0  0  0  0999 V2000
   55.5810   29.7100   45.9400 H   0  0  0  0  0  0  0  0  0  0  0  0
   55.6630   28.9630   45.2620 O   0  0  0  0  0  0  0  0  0  0  0  0
   56.2650   27.7380   45.5530 C   0  0  0  0  0  0  0  0  0  0  0  0
   55.4770   26.7030   45.9450 N   0  0  0  0  0  0  0  0  0  0  0  0
   56.0030   25.4890   46.2470 C   0  0  0  0  0  0  0  0  0  0  0  0
   55.2490   24.5510   46.6100 O   0  0  0  0  0  0  0  0  0  0  0  0
   57.3400   25.2860   46.1510 N   0  0  0  0  0  0  0  0  0  0  0  0
   58.1760   26.2820   45.7620 C   0  0  0  0  0  0  0  0  0  0  0  0
   59.4100   26.0450   45.6570 O   0  0  0  0  0  0  0  0  0  0  0  0
   57.6600   27.5570   45.4650 C   0  0  0  0  0  0  0  0  0  0  0  0
   58.5420   28.6540   45.0050 C   0  0  0  0  0  0  0  0  0  0  0  0
   59.1302   28.5030   44.0878 H   0  0  0  0  0  0  0  0  0  0  0  0
   58.6590   29.8290   45.6560 C   0  0  0  0  0  0  0  0  0  0  0  0
   58.2050   31.0570   45.2010 C   0  0  0  0  0  0  0  0  0  0  0  0
   57.6678   31.2521   44.2611 H   0  0  0  0  0  0  0  0  0  0  0  0
   58.5580   31.9860   46.1560 C   0  0  0  0  0  0  0  0  0  0  0  0
   58.2180   33.4440   46.0700 C   0  0  0  0  0  0  0  0  0  0  0  0
   58.1214   33.8584   47.0844 H   0  0  0  0  0  0  0  0  0  0  0  0
   59.0163   33.9755   45.5313 H   0  0  0  0  0  0  0  0  0  0  0  0
   57.2669   33.5676   45.5313 H   0  0  0  0  0  0  0  0  0  0  0  0
   59.1990   31.3920   47.1920 N   0  0  0  0  0  0  0  0  0  0  0  0
   59.6940   32.0890   48.3940 C   0  0  0  0  0  0  0  0  0  0  0  0
   59.0658   32.9721   48.5826 H   0  0  0  0  0  0  0  0  0  0  0  0
   59.6477   31.3955   49.2466 H   0  0  0  0  0  0  0  0  0  0  0  0
   61.1250   32.5310   48.2090 C   0  0  0  0  0  0  0  0  0  0  0  0
   62.0350   31.7060   47.5250 C   0  0  0  0  0  0  0  0  0  0  0  0
   61.7013   30.7351   47.1301 H   0  0  0  0  0  0  0  0  0  0  0  0
   63.3600   32.1100   47.3430 C   0  0  0  0  0  0  0  0  0  0  0  0
   64.0635   31.4598   46.8024 H   0  0  0  0  0  0  0  0  0  0  0  0
   63.7920   33.3390   47.8470 C   0  0  0  0  0  0  0  0  0  0  0  0
   64.8345   33.6578   47.7005 H   0  0  0  0  0  0  0  0  0  0  0  0
   62.9000   34.1630   48.5370 C   0  0  0  0  0  0  0  0  0  0  0  0
   63.2429   35.1289   48.9363 H   0  0  0  0  0  0  0  0  0  0  0  0
   61.5720   33.7640   48.7220 C   0  0  0  0  0  0  0  0  0  0  0  0
   60.7300   34.5790   49.4030 F   0  0  0  0  0  0  0  0  0  0  0  0
   59.2760   30.0650   46.8890 C   0  0  0  0  0  0  0  0  0  0  0  0
   59.8520   29.1320   47.6660 C   0  0  0  0  0  0  0  0  0  0  0  0
   60.3124   29.4205   48.6225 H   0  0  0  0  0  0  0  0  0  0  0  0
   59.8631   28.0798   47.3455 H   0  0  0  0  0  0  0  0  0  0  0  0
  1  2  1  0
  2  3  1  0
  3  4  1  0
  4  5  1  0
  5  6  2  0
  5  7  1  0
  7  8  1  0
  8  9  2  0
  8 10  1  0
 10 11  1  0
 11 12  1  0
 11 13  2  0
 13 14  1  0
 14 15  1  0
 14 16  2  0
 16 17  1  0
 17 18  1  0
 17 19  1  0
 17 20  1  0
 16 21  1  0
 21 22  1  0
 22 23  1  0
 22 24  1  0
 22 25  1  0
 25 26  2  0
 26 27  1  0
 26 28  1  0
 28 29  1  0
 28 30  2  0
 30 31  1  0
 30 32  1  0
 32 33  1  0
 32 34  2  0
 34 35  1  0
 21 36  1  0
 36 37  2  0
 37 38  1  0
 37 39  1  0
 10  3  2  0
 36 13  1  0
 34 25  1  0
M  CHG  2   4  -1   7  -1
M  END
>  <UniqueID>  (24) 
24

>  <SMILES>  (24) 
C=c1/c(=C/c2c(O)[n-]c(=O)[n-]c2=O)cc(C)n1Cc1ccccc1F

>  <Energy>  (24) 
81.60701287966208

>  <Genealogy>  (24) 
C=c1c(=Cc2c(O)[n-]c(=O)[n-]c2=O)cc(C)n1Cc1ccccc1F (protonated)
C=c1/c(=C/c2c(O)[n-]c(=O)[n-]c2=O)cc(C)n1Cc1ccccc1F (cis-trans isomerization)
C=c1/c(=C/c2c(O)[n-]c(=O)[n-]c2=O)cc(C)n1Cc1ccccc1F (3D coordinates assigned)
C=c1/c(=C/c2c(O)[n-]c(=O)[n-]c2=O)cc(C)n1Cc1ccccc1F (optimized conformer: 81.60701287966208 kcal/mol)

>  <smiles>  (24) 
C=c1c(=Cc2c(O)[nH]c(=O)[nH]c2=O)cc(C)n1Cc1ccccc1F

>  <score_type>  (24) 
oracle

>  <origin>  (24) 
adg

>  <m_score__min__energy>  (24) 
-12.99

>  <m_primary>  (24) 
energy

$$$$
24:0
     RDKit          3D

 43 45  0  0  0  0  0  0  0  0999 V2000
   55.7450   24.1070   46.6890 H   0  0  0  0  0  0  0  0  0  0  0  0
   56.7140   24.3890   46.5950 O   0  0  0  0  0  0  0  0  0  0  0  0
   57.0750   25.6680   46.1720 C   0  0  0  0  0  0  0  0  0  0  0  0
   58.4300   25.9880   46.0570 C   0  0  0  0  0  0  0  0  0  0  0  0
   59.1929   25.2343   46.3017 H   0  0  0  0  0  0  0  0  0  0  0  0
   58.8210   27.2600   45.6330 C   0  0  0  0  0  0  0  0  0  0  0  0
   59.8904   27.5072   45.5608 H   0  0  0  0  0  0  0  0  0  0  0  0
   57.8570   28.2260   45.2980 C   0  0  0  0  0  0  0  0  0  0  0  0
   58.2610   29.5900   44.8930 C   0  0  0  0  0  0  0  0  0  0  0  0
   57.7953   30.0092   43.9889 H   0  0  0  0  0  0  0  0  0  0  0  0
   59.1510   30.3560   45.5420 C   0  0  0  0  0  0  0  0  0  0  0  0
   59.6830   31.1211   44.9575 H   0  0  0  0  0  0  0  0  0  0  0  0
   59.4730   30.2520   46.9830 C   0  0  0  0  0  0  0  0  0  0  0  0
   60.5180   29.6560   47.3570 O   0  0  0  0  0  0  0  0  0  0  0  0
   58.6810   30.9310   47.9640 N   0  0  0  0  0  0  0  0  0  0  0  0
   59.1490   31.9180   48.8950 C   0  0  0  0  0  0  0  0  0  0  0  0
   59.6110   31.5480   50.1710 C   0  0  0  0  0  0  0  0  0  0  0  0
   59.5687   30.4942   50.4837 H   0  0  0  0  0  0  0  0  0  0  0  0
   60.1230   32.5110   51.0430 C   0  0  0  0  0  0  0  0  0  0  0  0
   60.4694   32.2161   52.0445 H   0  0  0  0  0  0  0  0  0  0  0  0
   60.1960   33.8470   50.6460 C   0  0  0  0  0  0  0  0  0  0  0  0
   60.5970   34.6043   51.3357 H   0  0  0  0  0  0  0  0  0  0  0  0
   59.7600   34.2230   49.3730 C   0  0  0  0  0  0  0  0  0  0  0  0
   59.8267   35.2756   49.0606 H   0  0  0  0  0  0  0  0  0  0  0  0
   59.2370   33.2640   48.4900 C   0  0  0  0  0  0  0  0  0  0  0  0
   58.7830   33.6610   47.1860 N   0  0  0  0  0  0  0  0  0  0  0  0
   57.3900   33.4230   46.8000 C   0  0  0  0  0  0  0  0  0  0  0  0
   57.0310   32.4976   47.2742 H   0  0  0  0  0  0  0  0  0  0  0  0
   56.7684   34.2686   47.1295 H   0  0  0  0  0  0  0  0  0  0  0  0
   57.2990   33.2850   45.2770 C   0  0  0  0  0  0  0  0  0  0  0  0
   57.8140   32.3639   44.9666 H   0  0  0  0  0  0  0  0  0  0  0  0
   56.2383   33.2452   44.9885 H   0  0  0  0  0  0  0  0  0  0  0  0
   57.9030   34.3930   44.6370 O   0  0  0  0  0  0  0  0  0  0  0  0
   59.2920   34.4100   44.9140 C   0  0  0  0  0  0  0  0  0  0  0  0
   59.7309   33.4464   44.6158 H   0  0  0  0  0  0  0  0  0  0  0  0
   59.7538   35.2329   44.3487 H   0  0  0  0  0  0  0  0  0  0  0  0
   59.5470   34.6370   46.4070 C   0  0  0  0  0  0  0  0  0  0  0  0
   60.6197   34.5161   46.6184 H   0  0  0  0  0  0  0  0  0  0  0  0
   59.2316   35.6541   46.6826 H   0  0  0  0  0  0  0  0  0  0  0  0
   56.4930   27.9110   45.4360 C   0  0  0  0  0  0  0  0  0  0  0  0
   55.5190   28.8610   45.1420 O   0  0  0  0  0  0  0  0  0  0  0  0
   56.1030   26.6340   45.8640 C   0  0  0  0  0  0  0  0  0  0  0  0
   54.7510   26.3300   45.9830 O   0  0  0  0  0  0  0  0  0  0  0  0
  1  2  1  0
  2  3  1  0
  3  4  2  0
  4  5  1  0
  4  6  1  0
  6  7  1  0
  6  8  2  0
  8  9  1  0
  9 10  1  0
  9 11  2  0
 11 12  1  0
 11 13  1  0
 13 14  2  0
 13 15  1  0
 15 16  1  0
 16 17  2  0
 17 18  1  0
 17 19  1  0
 19 20  1  0
 19 21  2  0
 21 22  1  0
 21 23  1  0
 23 24  1  0
 23 25  2  0
 25 26  1  0
 26 27  1  0
 27 28  1  0
 27 29  1  0
 27 30  1  0
 30 31  1  0
 30 32  1  0
 30 33  1  0
 33 34  1  0
 34 35  1  0
 34 36  1  0
 34 37  1  0
 37 38  1  0
 37 39  1  0
  8 40  1  0
 40 41  1  0
 40 42  2  0
 42 43  1  0
 42  3  1  0
 25 16  1  0
 37 26  1  0
M  CHG  3  15  -1  41  -1  43  -1
M  END
>  <UniqueID>  (25) 
25

>  <SMILES>  (25) 
O=C(/C=C\c1ccc(O)c([O-])c1[O-])[N-]c1ccccc1N1CCOCC1

>  <Energy>  (25) 
63.21282464595274

>  <Genealogy>  (25) 
O=C(C=Cc1ccc(O)c([O-])c1[O-])[N-]c1ccccc1N1CCOCC1 (protonated)
O=C(/C=C\c1ccc(O)c([O-])c1[O-])[N-]c1ccccc1N1CCOCC1 (cis-trans isomerization)
O=C(/C=C\c1ccc(O)c([O-])c1[O-])[N-]c1ccccc1N1CCOCC1 (3D coordinates assigned)
O=C(/C=C\c1ccc(O)c([O-])c1[O-])[N-]c1ccccc1N1CCOCC1 (nonaromatic ring conformer: 63.21282464595274 kcal/mol)

>  <smiles>  (25) 
O=C(C=Cc1ccc(O)c(O)c1O)Nc1ccccc1N1CCOCC1

>  <score_type>  (25) 
oracle

>  <origin>  (25) 
adg

>  <m_score__min__energy>  (25) 
-15.960000000000001

>  <m_primary>  (25) 
energy

$$$$
25:0
     RDKit          3D

 47 50  0  0  0  0  0  0  0  0999 V2000
   57.7990   32.4230   41.4600 C   0  0  0  0  0  0  0  0  0  0  0  0
   57.7050   31.8200   42.8260 C   0  0  0  0  0  0  0  0  0  0  0  0
   57.1130   30.2790   43.1310 S   0  0  0  0  0  0  0  0  0  0  0  0
   57.2600   30.3610   44.7990 C   0  0  0  0  0  0  0  0  0  0  0  0
   56.9160   29.2710   45.6610 N   0  0  0  0  0  0  0  0  0  0  0  0
   57.6250   28.0310   45.7500 C   0  0  0  0  0  0  0  0  0  0  0  0
   58.8820   28.0060   45.6730 O   0  0  0  0  0  0  0  0  0  0  0  0
   56.8720   26.7810   45.8950 C   0  0  0  0  0  0  0  0  0  0  0  0
   57.4040   25.5080   45.9410 C   0  0  0  0  0  0  0  0  0  0  0  0
   56.2980   24.6930   46.1050 C   0  0  0  0  0  0  0  0  0  0  0  0
   56.2790   23.2130   46.1760 C   0  0  0  0  0  0  0  0  0  0  0  0
   55.6710   22.4900   45.1350 C   0  0  0  0  0  0  0  0  0  0  0  0
   55.6440   21.0930   45.1590 C   0  0  0  0  0  0  0  0  0  0  0  0
   56.2130   20.4020   46.2290 C   0  0  0  0  0  0  0  0  0  0  0  0
   56.8070   21.1050   47.2780 C   0  0  0  0  0  0  0  0  0  0  0  0
   56.8360   22.5050   47.2640 C   0  0  0  0  0  0  0  0  0  0  0  0
   57.3960   23.1730   48.3470 O   0  0  0  0  0  0  0  0  0  0  0  0
   55.1840   25.4530   46.1410 N   0  0  0  0  0  0  0  0  0  0  0  0
   55.5330   26.7240   46.0190 N   0  0  0  0  0  0  0  0  0  0  0  0
   57.7340   31.6280   45.1660 C   0  0  0  0  0  0  0  0  0  0  0  0
   57.8910   32.0900   46.5650 C   0  0  0  0  0  0  0  0  0  0  0  0
   57.0850   32.9420   47.0220 O   0  0  0  0  0  0  0  0  0  0  0  0
   58.9640   31.6370   47.4040 N   0  0  0  0  0  0  0  0  0  0  0  0
   60.3260   32.0770   47.3530 C   0  0  0  0  0  0  0  0  0  0  0  0
   61.3380   31.1160   47.2030 C   0  0  0  0  0  0  0  0  0  0  0  0
   62.6800   31.5010   47.1800 C   0  0  0  0  0  0  0  0  0  0  0  0
   63.0230   32.8510   47.2750 C   0  0  0  0  0  0  0  0  0  0  0  0
   62.0210   33.8210   47.3740 C   0  0  0  0  0  0  0  0  0  0  0  0
   60.6740   33.4430   47.3950 C   0  0  0  0  0  0  0  0  0  0  0  0
   59.6950   34.4290   47.4250 O   0  0  0  0  0  0  0  0  0  0  0  0
   57.9780   32.4550   44.0430 C   0  0  0  0  0  0  0  0  0  0  0  0
   58.4810   33.8700   44.1270 C   0  0  0  0  0  0  0  0  0  0  0  0
   57.9679   33.5064   41.5483 H   0  0  0  0  0  0  0  0  0  0  0  0
   58.6365   31.9647   40.9137 H   0  0  0  0  0  0  0  0  0  0  0  0
   56.8617   32.2413   40.9137 H   0  0  0  0  0  0  0  0  0  0  0  0
   58.4604   25.2110   45.8650 H   0  0  0  0  0  0  0  0  0  0  0  0
   55.2120   23.0292   44.2932 H   0  0  0  0  0  0  0  0  0  0  0  0
   55.1739   20.5380   44.3338 H   0  0  0  0  0  0  0  0  0  0  0  0
   56.1934   19.3023   46.2458 H   0  0  0  0  0  0  0  0  0  0  0  0
   57.2546   20.5567   48.1200 H   0  0  0  0  0  0  0  0  0  0  0  0
   61.0723   30.0533   47.1030 H   0  0  0  0  0  0  0  0  0  0  0  0
   63.4682   30.7394   47.0869 H   0  0  0  0  0  0  0  0  0  0  0  0
   64.0812   33.1514   47.2720 H   0  0  0  0  0  0  0  0  0  0  0  0
   62.2926   34.8852   47.4356 H   0  0  0  0  0  0  0  0  0  0  0  0
   58.5842   34.1604   45.1829 H   0  0  0  0  0  0  0  0  0  0  0  0
   59.4596   33.9414   43.6297 H   0  0  0  0  0  0  0  0  0  0  0  0
   57.7671   34.5431   43.6297 H   0  0  0  0  0  0  0  0  0  0  0  0
  1  2  1  0
  2  3  1  0
  3  4  1  0
  4  5  1  0
  5  6  1  0
  6  7  2  0
  6  8  1  0
  8  9  1  0
  9 10  2  0
 10 11  1  0
 11 12  2  0
 12 13  1  0
 13 14  2  0
 14 15  1  0
 15 16  2  0
 16 17  1  0
 10 18  1  0
 18 19  1  0
  4 20  2  0
 20 21  1  0
 21 22  2  0
 21 23  1  0
 23 24  1  0
 24 25  2  0
 25 26  1  0
 26 27  2  0
 27 28  1  0
 28 29  2  0
 29 30  1  0
 20 31  1  0
 31 32  1  0
 31  2  2  0
 19  8  2  0
 29 24  1  0
 16 11  1  0
  1 33  1  0
  1 34  1  0
  1 35  1  0
  9 36  1  0
 12 37  1  0
 13 38  1  0
 14 39  1  0
 15 40  1  0
 25 41  1  0
 26 42  1  0
 27 43  1  0
 28 44  1  0
 32 45  1  0
 32 46  1  0
 32 47  1  0
M  CHG  5   5  -1  17  -1  18  -1  23  -1  30  -1
M  END
>  <UniqueID>  (26) 
26

>  <SMILES>  (26) 
Cc1sc([N-]C(=O)c2cc(-c3ccccc3[O-])[n-]n2)c(C(=O)[N-]c2ccccc2[O-])c1C

>  <Energy>  (26) 
122.39002393345957

>  <Genealogy>  (26) 
Cc1sc([N-]C(=O)c2cc(-c3ccccc3[O-])[n-]n2)c(C(=O)[N-]c2ccccc2[O-])c1C (protonated)
Cc1sc([N-]C(=O)c2cc(-c3ccccc3[O-])[n-]n2)c(C(=O)[N-]c2ccccc2[O-])c1C (3D coordinates assigned)
Cc1sc([N-]C(=O)c2cc(-c3ccccc3[O-])[n-]n2)c(C(=O)[N-]c2ccccc2[O-])c1C (optimized conformer: 122.39002393345957 kcal/mol)

>  <smiles>  (26) 
Cc1sc(NC(=O)c2cc(-c3ccccc3O)[nH]n2)c(C(=O)Nc2ccccc2O)c1C

>  <score_type>  (26) 
oracle

>  <origin>  (26) 
adg

>  <m_score__min__energy>  (26) 
-18.739999999999998

>  <m_primary>  (26) 
energy

$$$$
26:0
     RDKit          3D

 39 41  0  0  0  0  0  0  0  0999 V2000
   60.4410   28.9600   44.5150 C   0  0  0  0  0  0  0  0  0  0  0  0
   59.3680   27.9550   44.8110 C   0  0  0  0  0  0  0  0  0  0  0  0
   58.0440   28.0090   44.3920 C   0  0  0  0  0  0  0  0  0  0  0  0
   57.4170   29.0790   43.5460 C   0  0  0  0  0  0  0  0  0  0  0  0
   57.6770   30.4350   44.1460 C   0  0  0  0  0  0  0  0  0  0  0  0
   57.7720   31.5660   43.3180 C   0  0  0  0  0  0  0  0  0  0  0  0
   57.9760   32.8320   43.8750 C   0  0  0  0  0  0  0  0  0  0  0  0
   58.0850   32.9780   45.2600 C   0  0  0  0  0  0  0  0  0  0  0  0
   57.9880   31.8590   46.0910 C   0  0  0  0  0  0  0  0  0  0  0  0
   57.7830   30.5910   45.5390 C   0  0  0  0  0  0  0  0  0  0  0  0
   57.3260   27.0510   45.0080 N   0  0  0  0  0  0  0  0  0  0  0  0
   58.1650   26.3790   45.8190 C   0  0  0  0  0  0  0  0  0  0  0  0
   57.6930   25.3550   46.8080 C   0  0  0  0  0  0  0  0  0  0  0  0
   56.5460   24.5830   46.2320 C   0  0  0  0  0  0  0  0  0  0  0  0
   56.6220   23.2960   45.8500 N   0  0  0  0  0  0  0  0  0  0  0  0
   55.3940   23.0480   45.3470 C   0  0  0  0  0  0  0  0  0  0  0  0
   55.0660   21.9260   44.8810 O   0  0  0  0  0  0  0  0  0  0  0  0
   54.5450   24.0970   45.3790 N   0  0  0  0  0  0  0  0  0  0  0  0
   55.2920   25.0640   45.9390 C   0  0  0  0  0  0  0  0  0  0  0  0
   54.8410   26.3570   46.1750 O   0  0  0  0  0  0  0  0  0  0  0  0
   59.4450   26.9120   45.7260 C   0  0  0  0  0  0  0  0  0  0  0  0
   60.6150   26.5850   46.6070 C   0  0  0  0  0  0  0  0  0  0  0  0
   60.8528   29.3457   45.4593 H   0  0  0  0  0  0  0  0  0  0  0  0
   61.2426   28.4802   43.9343 H   0  0  0  0  0  0  0  0  0  0  0  0
   60.0147   29.7913   43.9343 H   0  0  0  0  0  0  0  0  0  0  0  0
   57.8470   29.0408   42.5342 H   0  0  0  0  0  0  0  0  0  0  0  0
   56.3312   28.9094   43.4992 H   0  0  0  0  0  0  0  0  0  0  0  0
   57.6855   31.4550   42.2270 H   0  0  0  0  0  0  0  0  0  0  0  0
   58.0508   33.7140   43.2220 H   0  0  0  0  0  0  0  0  0  0  0  0
   58.2473   33.9745   45.6966 H   0  0  0  0  0  0  0  0  0  0  0  0
   58.0731   31.9759   47.1815 H   0  0  0  0  0  0  0  0  0  0  0  0
   57.7044   29.7128   46.1967 H   0  0  0  0  0  0  0  0  0  0  0  0
   56.2940   26.9070   44.9330 H   0  0  0  0  0  0  0  0  0  0  0  0
   58.5174   24.6649   47.0404 H   0  0  0  0  0  0  0  0  0  0  0  0
   57.3638   25.8626   47.7267 H   0  0  0  0  0  0  0  0  0  0  0  0
   54.7510   26.7070   47.1220 H   0  0  0  0  0  0  0  0  0  0  0  0
   60.3145   26.6690   47.6618 H   0  0  0  0  0  0  0  0  0  0  0  0
   60.9523   25.5582   46.4025 H   0  0  0  0  0  0  0  0  0  0  0  0
   61.4358   27.2882   46.4025 H   0  0  0  0  0  0  0  0  0  0  0  0
  1  2  1  0
  2  3  2  0
  3  4  1  0
  4  5  1  0
  5  6  2  0
  6  7  1  0
  7  8  2  0
  8  9  1  0
  9 10  2  0
  3 11  1  0
 11 12  1  0
 12 13  1  0
 13 14  1  0
 14 15  1  0
 15 16  1  0
 16 17  2  0
 16 18  1  0
 18 19  1  0
 19 20  1  0
 12 21  2  0
 21 22  1  0
 21  2  1  0
 10  5  1  0
 19 14  2  0
  1 23  1  0
  1 24  1  0
  1 25  1  0
  4 26  1  0
  4 27  1  0
  6 28  1  0
  7 29  1  0
  8 30  1  0
  9 31  1  0
 10 32  1  0
 11 33  1  0
 13 34  1  0
 13 35  1  0
 20 36  1  0
 22 37  1  0
 22 38  1  0
 22 39  1  0
M  CHG  2  15  -1  18  -1
M  END
>  <UniqueID>  (27) 
27

>  <SMILES>  (27) 
Cc1c(Cc2ccccc2)[nH]c(Cc2[n-]c(=O)[n-]c2O)c1C

>  <Energy>  (27) 
88.75796981985627

>  <Genealogy>  (27) 
Cc1c(Cc2ccccc2)[nH]c(Cc2[n-]c(=O)[n-]c2O)c1C (protonated)
Cc1c(Cc2ccccc2)[nH]c(Cc2[n-]c(=O)[n-]c2O)c1C (3D coordinates assigned)
Cc1c(Cc2ccccc2)[nH]c(Cc2[n-]c(=O)[n-]c2O)c1C (optimized conformer: 88.75796981985627 kcal/mol)

>  <smiles>  (27) 
Cc1c(Cc2ccccc2)[nH]c(Cc2[nH]c(=O)[nH]c2O)c1C

>  <score_type>  (27) 
oracle

>  <origin>  (27) 
adg

>  <m_score__min__energy>  (27) 
-12.140000000000001

>  <m_primary>  (27) 
energy

$$$$
27:0
     RDKit          3D

 46 48  0  0  1  0  0  0  0  0999 V2000
   59.9800   29.9780   48.9630 C   0  0  0  0  0  0  0  0  0  0  0  0
   59.9920   31.2200   48.2810 O   0  0  0  0  0  0  0  0  0  0  0  0
   61.2040   31.8550   48.0430 C   0  0  0  0  0  0  0  0  0  0  0  0
   62.2450   31.1910   47.3900 C   0  0  0  0  0  0  0  0  0  0  0  0
   63.4520   31.8340   47.1560 C   0  0  0  0  0  0  0  0  0  0  0  0
   63.6100   33.1390   47.5790 C   0  0  0  0  0  0  0  0  0  0  0  0
   62.5900   33.8180   48.2280 C   0  0  0  0  0  0  0  0  0  0  0  0
   61.3710   33.1780   48.4680 C   0  0  0  0  0  0  0  0  0  0  0  0
   60.2480   33.8610   49.1630 C   0  0  0  0  0  0  0  0  0  0  0  0
   59.4310   34.6660   48.3120 N   0  0  0  0  0  0  0  0  0  0  0  0
   59.0910   34.3780   47.1130 C   0  0  0  0  0  0  0  0  0  0  0  0
   58.5380   33.1170   46.8570 C   0  0  0  0  0  0  0  0  0  0  0  0
   58.1740   32.8160   45.5620 C   0  0  0  0  0  0  0  0  0  0  0  0
   57.5910   31.4990   45.2750 C   0  0  0  0  0  0  0  0  0  0  0  0
   56.7510   31.4870   44.3170 O   0  0  0  0  0  0  0  0  0  0  0  0
   57.9200   30.3290   45.9870 N   0  0  0  0  0  0  0  0  0  0  0  0
   57.3760   29.0180   45.7450 C   0  0  0  0  0  0  0  0  0  0  0  0
   58.4460   28.0160   45.9450 C   0  0  0  0  0  0  0  0  0  0  0  0
   59.7820   28.2560   45.7570 C   0  0  0  0  0  0  0  0  0  0  0  0
   60.7490   27.2710   45.9560 C   0  0  0  0  0  0  0  0  0  0  0  0
   60.3740   26.0050   46.3560 C   0  0  0  0  0  0  0  0  0  0  0  0
   59.0240   25.7440   46.5500 C   0  0  0  0  0  0  0  0  0  0  0  0
   58.0750   26.7450   46.3450 C   0  0  0  0  0  0  0  0  0  0  0  0
   58.3690   33.7480   44.6140 N   0  0  0  0  0  0  0  0  0  0  0  0
   58.9070   34.9670   44.8890 C   0  0  0  0  0  0  0  0  0  0  0  0
   59.2760   35.2890   46.1640 N   0  0  0  0  0  0  0  0  0  0  0  0
   59.9817   30.1558   50.0485 H   0  0  0  0  0  0  0  0  0  0  0  0
   59.0764   29.4157   48.6849 H   0  0  0  0  0  0  0  0  0  0  0  0
   60.8726   29.3984   48.6849 H   0  0  0  0  0  0  0  0  0  0  0  0
   62.1069   30.1511   47.0590 H   0  0  0  0  0  0  0  0  0  0  0  0
   64.2715   31.3116   46.6408 H   0  0  0  0  0  0  0  0  0  0  0  0
   64.5663   33.6513   47.3970 H   0  0  0  0  0  0  0  0  0  0  0  0
   62.7399   34.8581   48.5532 H   0  0  0  0  0  0  0  0  0  0  0  0
   59.6110   33.0925   49.6253 H   0  0  0  0  0  0  0  0  0  0  0  0
   60.7011   34.5413   49.8991 H   0  0  0  0  0  0  0  0  0  0  0  0
   58.3979   32.3865   47.6674 H   0  0  0  0  0  0  0  0  0  0  0  0
   58.6300   30.3910   46.7780 H   0  0  0  0  0  0  0  0  0  0  0  0
   56.5515   28.8241   46.4468 H   0  0  0  0  0  0  0  0  0  0  0  0
   56.9918   28.9557   44.7161 H   0  0  0  0  0  0  0  0  0  0  0  0
   60.1024   29.2590   45.4385 H   0  0  0  0  0  0  0  0  0  0  0  0
   61.8118   27.5037   45.7939 H   0  0  0  0  0  0  0  0  0  0  0  0
   61.1275   25.2200   46.5176 H   0  0  0  0  0  0  0  0  0  0  0  0
   58.7012   24.7415   46.8673 H   0  0  0  0  0  0  0  0  0  0  0  0
   57.0103   26.5193   46.5046 H   0  0  0  0  0  0  0  0  0  0  0  0
   58.1090   33.5650   43.6230 H   0  0  0  0  0  0  0  0  0  0  0  0
   59.0457   35.6982   44.0790 H   0  0  0  0  0  0  0  0  0  0  0  0
  1  2  1  0
  2  3  1  0
  3  4  2  0
  4  5  1  0
  5  6  2  0
  6  7  1  0
  7  8  2  0
  8  9  1  0
  9 10  1  0
 10 11  2  0
 11 12  1  0
 12 13  2  0
 13 14  1  0
 14 15  2  0
 14 16  1  0
 16 17  1  0
 17 18  1  0
 18 19  2  0
 19 20  1  0
 20 21  2  0
 21 22  1  0
 22 23  2  0
 13 24  1  0
 24 25  1  0
 25 26  2  0
  8  3  1  0
 26 11  1  0
 23 18  1  0
  1 27  1  0
  1 28  1  0
  1 29  1  0
  4 30  1  0
  5 31  1  0
  6 32  1  0
  7 33  1  0
  9 34  1  0
  9 35  1  0
 12 36  1  0
 16 37  1  0
 17 38  1  0
 17 39  1  0
 19 40  1  0
 20 41  1  0
 21 42  1  0
 22 43  1  0
 23 44  1  0
 24 45  1  0
 25 46  1  0
M  END
>  <smiles>  (28) 
COc1ccccc1CN=c1cc(C(=O)NCc2ccccc2)[nH]cn1

>  <score_type>  (28) 
oracle

>  <origin>  (28) 
adg

>  <m_score__min__energy>  (28) 
-8.4399999999999995

>  <m_primary>  (28) 
energy

$$$$
28:0
     RDKit          3D

 68 71  0  0  0  0  0  0  0  0999 V2000
   60.2250   29.7680   47.1180 C   0  0  0  0  0  0  0  0  0  0  0  0
   59.2100   30.3410   46.4530 C   0  0  0  0  0  0  0  0  0  0  0  0
   58.4350   29.7790   45.4230 C   0  0  0  0  0  0  0  0  0  0  0  0
   58.3900   28.5250   44.9320 C   0  0  0  0  0  0  0  0  0  0  0  0
   57.6080   27.4100   45.4960 C   0  0  0  0  0  0  0  0  0  0  0  0
   56.2150   27.5150   45.6210 C   0  0  0  0  0  0  0  0  0  0  0  0
   55.5500   28.6550   45.1750 O   0  0  0  0  0  0  0  0  0  0  0  0
   55.5060   26.4940   46.1710 N   0  0  0  0  0  0  0  0  0  0  0  0
   56.1260   25.3700   46.6170 C   0  0  0  0  0  0  0  0  0  0  0  0
   55.4470   24.4350   47.1150 O   0  0  0  0  0  0  0  0  0  0  0  0
   57.4760   25.2560   46.5320 N   0  0  0  0  0  0  0  0  0  0  0  0
   58.2300   26.2500   45.9920 C   0  0  0  0  0  0  0  0  0  0  0  0
   59.4830   26.1200   45.9450 O   0  0  0  0  0  0  0  0  0  0  0  0
   57.6420   30.8030   44.9300 C   0  0  0  0  0  0  0  0  0  0  0  0
   57.9170   31.9230   45.6880 C   0  0  0  0  0  0  0  0  0  0  0  0
   57.2930   33.2680   45.4750 C   0  0  0  0  0  0  0  0  0  0  0  0
   58.8630   31.6450   46.6100 N   0  0  0  0  0  0  0  0  0  0  0  0
   59.4540   32.5950   47.5150 C   0  0  0  0  0  0  0  0  0  0  0  0
   60.2310   33.6510   47.0200 C   0  0  0  0  0  0  0  0  0  0  0  0
   60.7790   34.5890   47.8990 C   0  0  0  0  0  0  0  0  0  0  0  0
   60.5510   34.4800   49.2740 C   0  0  0  0  0  0  0  0  0  0  0  0
   59.7720   33.4270   49.7820 C   0  0  0  0  0  0  0  0  0  0  0  0
   59.4820   33.3440   51.1910 N   0  0  0  0  0  0  0  0  0  0  0  0
   58.1050   33.0770   51.6190 C   0  0  0  0  0  0  0  0  0  0  0  0
   60.5490   33.5450   52.1830 C   0  0  0  0  0  0  0  0  0  0  0  0
   61.5730   32.4010   52.1240 C   0  0  0  0  0  0  0  0  0  0  0  0
   61.1300   31.2550   52.9480 N   0  0  0  0  0  0  0  0  0  0  0  0
   60.6470   30.1160   52.1270 C   0  0  0  0  0  0  0  0  0  0  0  0
   59.1110   30.0600   52.0420 C   0  0  0  0  0  0  0  0  0  0  0  0
   58.4610   29.9940   53.3790 N   0  0  0  0  0  0  0  0  0  0  0  0
   57.9620   28.6390   53.6970 C   0  0  0  0  0  0  0  0  0  0  0  0
   56.4820   28.5050   53.3300 C   0  0  0  0  0  0  0  0  0  0  0  0
   56.1490   29.4380   52.3390 O   0  0  0  0  0  0  0  0  0  0  0  0
   59.3170   30.5040   54.4720 C   0  0  0  0  0  0  0  0  0  0  0  0
   60.1710   31.6800   53.9930 C   0  0  0  0  0  0  0  0  0  0  0  0
   59.2310   32.4840   48.8930 C   0  0  0  0  0  0  0  0  0  0  0  0
   60.7495   30.3257   47.9078 H   0  0  0  0  0  0  0  0  0  0  0  0
   60.5325   28.7406   46.8733 H   0  0  0  0  0  0  0  0  0  0  0  0
   58.9882   28.3153   44.0330 H   0  0  0  0  0  0  0  0  0  0  0  0
   54.7500   28.5840   44.5580 H   0  0  0  0  0  0  0  0  0  0  0  0
   56.9297   30.7359   44.0945 H   0  0  0  0  0  0  0  0  0  0  0  0
   57.0782   33.7310   46.4494 H   0  0  0  0  0  0  0  0  0  0  0  0
   57.9860   33.9083   44.9096 H   0  0  0  0  0  0  0  0  0  0  0  0
   56.3566   33.1524   44.9096 H   0  0  0  0  0  0  0  0  0  0  0  0
   60.4097   33.7416   45.9384 H   0  0  0  0  0  0  0  0  0  0  0  0
   61.3912   35.4151   47.5081 H   0  0  0  0  0  0  0  0  0  0  0  0
   60.9835   35.2221   49.9612 H   0  0  0  0  0  0  0  0  0  0  0  0
   58.0579   33.0679   52.7180 H   0  0  0  0  0  0  0  0  0  0  0  0
   57.4412   33.8632   51.2300 H   0  0  0  0  0  0  0  0  0  0  0  0
   57.7831   32.0997   51.2300 H   0  0  0  0  0  0  0  0  0  0  0  0
   61.0596   34.4969   51.9752 H   0  0  0  0  0  0  0  0  0  0  0  0
   60.0982   33.5627   53.1862 H   0  0  0  0  0  0  0  0  0  0  0  0
   61.6863   32.0721   51.0804 H   0  0  0  0  0  0  0  0  0  0  0  0
   62.5330   32.7671   52.5170 H   0  0  0  0  0  0  0  0  0  0  0  0
   61.0531   30.2172   51.1097 H   0  0  0  0  0  0  0  0  0  0  0  0
   60.9891   29.1881   52.6087 H   0  0  0  0  0  0  0  0  0  0  0  0
   58.7548   30.9616   51.5223 H   0  0  0  0  0  0  0  0  0  0  0  0
   58.8429   29.1423   51.4980 H   0  0  0  0  0  0  0  0  0  0  0  0
   58.5431   27.8980   53.1284 H   0  0  0  0  0  0  0  0  0  0  0  0
   58.0744   28.4663   54.7775 H   0  0  0  0  0  0  0  0  0  0  0  0
   56.2903   27.4893   52.9536 H   0  0  0  0  0  0  0  0  0  0  0  0
   55.8692   28.6927   54.2240 H   0  0  0  0  0  0  0  0  0  0  0  0
   56.7360   30.2250   52.4920 H   0  0  0  0  0  0  0  0  0  0  0  0
   58.6788   30.8374   55.3036 H   0  0  0  0  0  0  0  0  0  0  0  0
   59.9857   29.6951   54.8015 H   0  0  0  0  0  0  0  0  0  0  0  0
   59.5115   32.4575   53.5799 H   0  0  0  0  0  0  0  0  0  0  0  0
   60.7400   32.0691   54.8503 H   0  0  0  0  0  0  0  0  0  0  0  0
   58.6270   31.6512   49.2824 H   0  0  0  0  0  0  0  0  0  0  0  0
  1  2  2  0
  2  3  1  0
  3  4  2  3
  4  5  1  0
  5  6  2  0
  6  7  1  0
  6  8  1  0
  8  9  1  0
  9 10  2  0
  9 11  1  0
 11 12  1  0
 12 13  2  0
  3 14  1  0
 14 15  2  0
 15 16  1  0
 15 17  1  0
 17 18  1  0
 18 19  2  0
 19 20  1  0
 20 21  2  0
 21 22  1  0
 22 23  1  0
 23 24  1  0
 23 25  1  0
 25 26  1  0
 26 27  1  0
 27 28  1  0
 28 29  1  0
 29 30  1  0
 30 31  1  0
 31 32  1  0
 32 33  1  0
 30 34  1  0
 34 35  1  0
 22 36  2  0
 17  2  1  0
 36 18  1  0
 12  5  1  0
 35 27  1  0
  1 37  1  0
  1 38  1  0
  4 39  1  0
  7 40  1  0
 14 41  1  0
 16 42  1  0
 16 43  1  0
 16 44  1  0
 19 45  1  0
 20 46  1  0
 21 47  1  0
 24 48  1  0
 24 49  1  0
 24 50  1  0
 25 51  1  0
 25 52  1  0
 26 53  1  0
 26 54  1  0
 28 55  1  0
 28 56  1  0
 29 57  1  0
 29 58  1  0
 31 59  1  0
 31 60  1  0
 32 61  1  0
 32 62  1  0
 33 63  1  0
 34 64  1  0
 34 65  1  0
 35 66  1  0
 35 67  1  0
 36 68  1  0
M  CHG  2   8  -1  11  -1
M  END
>  <UniqueID>  (29) 
28

>  <SMILES>  (29) 
C=c1c(=Cc2c(O)[n-]c(=O)[n-]c2=O)cc(C)n1-c1cccc(N(C)CCN2CCN(CCO)CC2)c1

>  <Energy>  (29) 
128.25492112793214

>  <Genealogy>  (29) 
C=c1c(=Cc2c(O)[n-]c(=O)[n-]c2=O)cc(C)n1-c1cccc(N(C)CCN2CCN(CCO)CC2)c1 (protonated)
C=c1c(=Cc2c(O)[n-]c(=O)[n-]c2=O)cc(C)n1-c1cccc(N(C)CCN2CCN(CCO)CC2)c1 (3D coordinates assigned)
C=c1c(=Cc2c(O)[n-]c(=O)[n-]c2=O)cc(C)n1-c1cccc(N(C)CCN2CCN(CCO)CC2)c1 (nonaromatic ring conformer: 128.25492112793214 kcal/mol)

>  <smiles>  (29) 
C=c1c(=Cc2c(O)[nH]c(=O)[nH]c2=O)cc(C)n1-c1cccc(N(C)CCN2CCN(CCO)CC2)c1

>  <score_type>  (29) 
oracle

>  <origin>  (29) 
adg

>  <m_score__min__energy>  (29) 
-13.880000000000001

>  <m_primary>  (29) 
energy

$$$$
29:0
     RDKit          3D

 39 41  0  0  0  0  0  0  0  0999 V2000
   54.0990   26.3310   45.0240 H   0  0  0  0  0  0  0  0  0  0  0  0
   54.3000   25.9630   45.9800 N   0  0  0  0  0  0  0  0  0  0  0  0
   55.9370   25.4100   45.9740 S   0  0  0  0  0  0  0  0  0  0  0  0
   56.3670   25.0940   47.3780 O   0  0  0  0  0  0  0  0  0  0  0  0
   56.0380   24.1590   45.1460 O   0  0  0  0  0  0  0  0  0  0  0  0
   56.9780   26.6590   45.2990 C   0  0  0  0  0  0  0  0  0  0  0  0
   57.8470   26.3600   44.2420 C   0  0  0  0  0  0  0  0  0  0  0  0
   57.8962   25.3353   43.8451 H   0  0  0  0  0  0  0  0  0  0  0  0
   58.6510   27.3600   43.6910 C   0  0  0  0  0  0  0  0  0  0  0  0
   59.3283   27.1217   42.8576 H   0  0  0  0  0  0  0  0  0  0  0  0
   58.5980   28.6630   44.1950 C   0  0  0  0  0  0  0  0  0  0  0  0
   59.2227   29.4505   43.7481 H   0  0  0  0  0  0  0  0  0  0  0  0
   57.7460   28.9690   45.2740 C   0  0  0  0  0  0  0  0  0  0  0  0
   57.6300   30.3040   45.7960 N   0  0  0  0  0  0  0  0  0  0  0  0
   58.5180   30.9520   46.4950 C   0  0  0  0  0  0  0  0  0  0  0  0
   59.5480   30.3000   47.0970 N   0  0  0  0  0  0  0  0  0  0  0  0
   60.4670   30.9610   47.8430 C   0  0  0  0  0  0  0  0  0  0  0  0
   61.4080   30.3130   48.3760 O   0  0  0  0  0  0  0  0  0  0  0  0
   60.3590   32.3470   48.0200 C   0  0  0  0  0  0  0  0  0  0  0  0
   61.3650   33.0650   48.8270 C   0  0  0  0  0  0  0  0  0  0  0  0
   61.1640   33.5210   50.4320 S   0  0  0  0  0  0  0  0  0  0  0  0
   62.6490   34.2970   50.5890 C   0  0  0  0  0  0  0  0  0  0  0  0
   63.0274   34.7835   51.5001 H   0  0  0  0  0  0  0  0  0  0  0  0
   63.3160   34.2190   49.3730 C   0  0  0  0  0  0  0  0  0  0  0  0
   64.3128   34.6521   49.2029 H   0  0  0  0  0  0  0  0  0  0  0  0
   62.5970   33.5360   48.3850 C   0  0  0  0  0  0  0  0  0  0  0  0
   63.1900   33.3380   46.7440 Cl  0  0  0  0  0  0  0  0  0  0  0  0
   59.2780   33.0150   47.4040 C   0  0  0  0  0  0  0  0  0  0  0  0
   59.1260   34.5180   47.4710 C   0  0  0  0  0  0  0  0  0  0  0  0
   59.7124   34.9027   48.3184 H   0  0  0  0  0  0  0  0  0  0  0  0
   58.0610   34.7601   47.6023 H   0  0  0  0  0  0  0  0  0  0  0  0
   59.6210   35.1680   46.1840 C   0  0  0  0  0  0  0  0  0  0  0  0
   60.2705   36.0209   46.4303 H   0  0  0  0  0  0  0  0  0  0  0  0
   60.1894   34.4319   45.5965 H   0  0  0  0  0  0  0  0  0  0  0  0
   58.7603   35.5202   45.5965 H   0  0  0  0  0  0  0  0  0  0  0  0
   58.3900   32.2980   46.6550 N   0  0  0  0  0  0  0  0  0  0  0  0
   57.5970   32.7910   46.1830 H   0  0  0  0  0  0  0  0  0  0  0  0
   56.9190   27.9690   45.7990 C   0  0  0  0  0  0  0  0  0  0  0  0
   56.2170   28.2120   46.6103 H   0  0  0  0  0  0  0  0  0  0  0  0
  1  2  1  0
  2  3  1  0
  3  4  2  0
  3  5  2  0
  3  6  1  0
  6  7  2  0
  7  8  1  0
  7  9  1  0
  9 10  1  0
  9 11  2  0
 11 12  1  0
 11 13  1  0
 13 14  1  0
 14 15  2  0
 15 16  1  0
 16 17  1  0
 17 18  2  0
 17 19  1  0
 19 20  1  0
 20 21  1  0
 21 22  1  0
 22 23  1  0
 22 24  2  0
 24 25  1  0
 24 26  1  0
 26 27  1  0
 19 28  2  0
 28 29  1  0
 29 30  1  0
 29 31  1  0
 29 32  1  0
 32 33  1  0
 32 34  1  0
 32 35  1  0
 28 36  1  0
 36 37  1  0
 13 38  2  0
 38 39  1  0
 38  6  1  0
 36 15  1  0
 26 20  2  0
M  CHG  2   2  -1  16  -1
M  END
>  <UniqueID>  (30) 
29

>  <SMILES>  (30) 
CCc1[nH]/c(=N/c2cccc(S([NH-])(=O)=O)c2)[n-]c(=O)c1-c1sccc1Cl

>  <Energy>  (30) 
79.73378022958562

>  <Genealogy>  (30) 
CCc1[nH]c(=Nc2cccc(S([NH-])(=O)=O)c2)[n-]c(=O)c1-c1sccc1Cl (protonated)
CCc1[nH]/c(=N/c2cccc(S([NH-])(=O)=O)c2)[n-]c(=O)c1-c1sccc1Cl (cis-trans isomerization)
CCc1[nH]/c(=N/c2cccc(S([NH-])(=O)=O)c2)[n-]c(=O)c1-c1sccc1Cl (3D coordinates assigned)
CCc1[nH]/c(=N/c2cccc(S([NH-])(=O)=O)c2)[n-]c(=O)c1-c1sccc1Cl (optimized conformer: 79.73378022958562 kcal/mol)

>  <smiles>  (30) 
CCc1[nH]c(=Nc2cccc(S(N)(=O)=O)c2)[nH]c(=O)c1-c1sccc1Cl

>  <score_type>  (30) 
oracle

>  <origin>  (30) 
adg

>  <m_score__min__energy>  (30) 
-12.279999999999999

>  <m_primary>  (30) 
energy

$$$$
30:0
     RDKit          3D

 57 60  0  0  0  0  0  0  0  0999 V2000
   66.3510   32.7740   50.1240 C   0  0  0  0  0  0  0  0  0  0  0  0
   64.9320   33.1370   50.2340 N   0  0  0  0  0  0  0  0  0  0  0  0
   64.5270   34.1050   51.2570 C   0  0  0  0  0  0  0  0  0  0  0  0
   63.9450   32.5350   49.3560 C   0  0  0  0  0  0  0  0  0  0  0  0
   63.7250   33.0410   48.0580 C   0  0  0  0  0  0  0  0  0  0  0  0
   62.7660   32.4700   47.2190 C   0  0  0  0  0  0  0  0  0  0  0  0
   61.9830   31.3910   47.6590 C   0  0  0  0  0  0  0  0  0  0  0  0
   60.9400   30.7980   46.7410 C   0  0  0  0  0  0  0  0  0  0  0  0
   60.0100   29.9100   47.4610 N   0  0  0  0  0  0  0  0  0  0  0  0
   59.8480   28.5130   47.0140 C   0  0  0  0  0  0  0  0  0  0  0  0
   58.4250   28.2480   46.5530 C   0  0  0  0  0  0  0  0  0  0  0  0
   57.7990   27.0810   47.0240 C   0  0  0  0  0  0  0  0  0  0  0  0
   56.5560   26.6960   46.5280 C   0  0  0  0  0  0  0  0  0  0  0  0
   56.0180   25.6320   46.9300 O   0  0  0  0  0  0  0  0  0  0  0  0
   55.9250   27.4640   45.6070 N   0  0  0  0  0  0  0  0  0  0  0  0
   56.4580   28.6270   45.1520 C   0  0  0  0  0  0  0  0  0  0  0  0
   55.7430   29.3890   44.2210 C   0  0  0  0  0  0  0  0  0  0  0  0
   56.2510   30.6060   43.7710 C   0  0  0  0  0  0  0  0  0  0  0  0
   57.4720   31.0740   44.2570 C   0  0  0  0  0  0  0  0  0  0  0  0
   58.2010   30.3200   45.1800 C   0  0  0  0  0  0  0  0  0  0  0  0
   57.7220   29.0700   45.6270 C   0  0  0  0  0  0  0  0  0  0  0  0
   59.3130   30.4020   48.6270 C   0  0  0  0  0  0  0  0  0  0  0  0
   59.4000   29.7840   49.7220 O   0  0  0  0  0  0  0  0  0  0  0  0
   58.4900   31.5730   48.5300 N   0  0  0  0  0  0  0  0  0  0  0  0
   58.7820   32.7850   47.8170 C   0  0  0  0  0  0  0  0  0  0  0  0
   58.1280   33.1160   46.6140 C   0  0  0  0  0  0  0  0  0  0  0  0
   58.4290   34.3140   45.9560 C   0  0  0  0  0  0  0  0  0  0  0  0
   59.3630   35.1960   46.5010 C   0  0  0  0  0  0  0  0  0  0  0  0
   59.9980   34.8860   47.7060 C   0  0  0  0  0  0  0  0  0  0  0  0
   59.7060   33.6850   48.3690 C   0  0  0  0  0  0  0  0  0  0  0  0
   60.3370   33.3760   49.5720 O   0  0  0  0  0  0  0  0  0  0  0  0
   62.2170   30.8610   48.9380 C   0  0  0  0  0  0  0  0  0  0  0  0
   63.1790   31.4290   49.7780 C   0  0  0  0  0  0  0  0  0  0  0  0
   66.7805   32.6641   51.1307 H   0  0  0  0  0  0  0  0  0  0  0  0
   66.4450   31.8229   49.5795 H   0  0  0  0  0  0  0  0  0  0  0  0
   66.8902   33.5631   49.5795 H   0  0  0  0  0  0  0  0  0  0  0  0
   64.7051   33.6793   52.2555 H   0  0  0  0  0  0  0  0  0  0  0  0
   65.1145   35.0278   51.1417 H   0  0  0  0  0  0  0  0  0  0  0  0
   63.4574   34.3345   51.1417 H   0  0  0  0  0  0  0  0  0  0  0  0
   64.3169   33.8970   47.7018 H   0  0  0  0  0  0  0  0  0  0  0  0
   62.6227   32.8692   46.2041 H   0  0  0  0  0  0  0  0  0  0  0  0
   60.3657   31.6158   46.2812 H   0  0  0  0  0  0  0  0  0  0  0  0
   61.4599   30.1988   45.9790 H   0  0  0  0  0  0  0  0  0  0  0  0
   60.5379   28.3206   46.1791 H   0  0  0  0  0  0  0  0  0  0  0  0
   60.0707   27.8471   47.8607 H   0  0  0  0  0  0  0  0  0  0  0  0
   58.2948   26.4670   47.7903 H   0  0  0  0  0  0  0  0  0  0  0  0
   54.7760   29.0257   43.8429 H   0  0  0  0  0  0  0  0  0  0  0  0
   55.6895   31.1974   43.0328 H   0  0  0  0  0  0  0  0  0  0  0  0
   57.8631   32.0423   43.9115 H   0  0  0  0  0  0  0  0  0  0  0  0
   59.1581   30.7046   45.5622 H   0  0  0  0  0  0  0  0  0  0  0  0
   57.3787   32.4310   46.1906 H   0  0  0  0  0  0  0  0  0  0  0  0
   57.9287   34.5607   45.0079 H   0  0  0  0  0  0  0  0  0  0  0  0
   59.5994   36.1362   45.9813 H   0  0  0  0  0  0  0  0  0  0  0  0
   60.7293   35.5860   48.1363 H   0  0  0  0  0  0  0  0  0  0  0  0
   60.1870   32.4890   50.0360 H   0  0  0  0  0  0  0  0  0  0  0  0
   61.6382   29.9911   49.2819 H   0  0  0  0  0  0  0  0  0  0  0  0
   63.3406   31.0077   50.7812 H   0  0  0  0  0  0  0  0  0  0  0  0
  1  2  1  0
  2  3  1  0
  2  4  1  0
  4  5  2  0
  5  6  1  0
  6  7  2  0
  7  8  1  0
  8  9  1  0
  9 10  1  0
 10 11  1  0
 11 12  2  0
 12 13  1  0
 13 14  2  0
 13 15  1  0
 15 16  1  0
 16 17  2  0
 17 18  1  0
 18 19  2  0
 19 20  1  0
 20 21  2  0
  9 22  1  0
 22 23  2  0
 22 24  1  0
 24 25  1  0
 25 26  2  0
 26 27  1  0
 27 28  2  0
 28 29  1  0
 29 30  2  0
 30 31  1  0
  7 32  1  0
 32 33  2  0
 33  4  1  0
 21 11  1  0
 30 25  1  0
 21 16  1  0
  1 34  1  0
  1 35  1  0
  1 36  1  0
  3 37  1  0
  3 38  1  0
  3 39  1  0
  5 40  1  0
  6 41  1  0
  8 42  1  0
  8 43  1  0
 10 44  1  0
 10 45  1  0
 12 46  1  0
 17 47  1  0
 18 48  1  0
 19 49  1  0
 20 50  1  0
 26 51  1  0
 27 52  1  0
 28 53  1  0
 29 54  1  0
 31 55  1  0
 32 56  1  0
 33 57  1  0
M  CHG  2  15  -1  24  -1
M  END
>  <UniqueID>  (31) 
30

>  <SMILES>  (31) 
CN(C)c1ccc(CN(Cc2cc(=O)[n-]c3ccccc23)C(=O)[N-]c2ccccc2O)cc1

>  <Energy>  (31) 
71.46812130560865

>  <Genealogy>  (31) 
CN(C)c1ccc(CN(Cc2cc(=O)[n-]c3ccccc23)C(=O)[N-]c2ccccc2O)cc1 (protonated)
CN(C)c1ccc(CN(Cc2cc(=O)[n-]c3ccccc23)C(=O)[N-]c2ccccc2O)cc1 (3D coordinates assigned)
CN(C)c1ccc(CN(Cc2cc(=O)[n-]c3ccccc23)C(=O)[N-]c2ccccc2O)cc1 (optimized conformer: 71.46812130560865 kcal/mol)

>  <smiles>  (31) 
CN(C)c1ccc(CN(Cc2cc(=O)[nH]c3ccccc23)C(=O)Nc2ccccc2O)cc1

>  <score_type>  (31) 
oracle

>  <origin>  (31) 
adg

>  <m_score__min__energy>  (31) 
-12.25

>  <m_primary>  (31) 
energy

$$$$
31:0
     RDKit          3D

 42 43  0  0  0  0  0  0  0  0999 V2000
   64.1387   33.6316   46.5785 H   0  0  0  0  0  0  0  0  0  0  0  0
   63.1040   33.6970   46.9460 C   0  0  0  0  0  0  0  0  0  0  0  0
   62.0780   33.8430   46.0660 N   0  0  0  0  0  0  0  0  0  0  0  0
   60.7790   33.9330   46.4680 C   0  0  0  0  0  0  0  0  0  0  0  0
   59.8590   34.0740   45.5580 N   0  0  0  0  0  0  0  0  0  0  0  0
   58.1780   33.6620   45.7130 S   0  0  0  0  0  0  0  0  0  0  0  0
   57.3860   34.4550   44.7130 O   0  0  0  0  0  0  0  0  0  0  0  0
   57.7050   34.0180   47.0950 O   0  0  0  0  0  0  0  0  0  0  0  0
   57.9480   31.9470   45.3860 C   0  0  0  0  0  0  0  0  0  0  0  0
   57.0180   31.5200   44.4330 C   0  0  0  0  0  0  0  0  0  0  0  0
   56.4328   32.2621   43.8701 H   0  0  0  0  0  0  0  0  0  0  0  0
   56.8270   30.1580   44.1910 C   0  0  0  0  0  0  0  0  0  0  0  0
   55.9370   29.7960   43.2340 F   0  0  0  0  0  0  0  0  0  0  0  0
   57.5700   29.1920   44.9060 C   0  0  0  0  0  0  0  0  0  0  0  0
   57.3870   27.7790   44.6690 N   0  0  0  0  0  0  0  0  0  0  0  0
   56.4120   27.4090   44.6020 H   0  0  0  0  0  0  0  0  0  0  0  0
   58.4920   26.8780   44.3320 C   0  0  0  0  0  0  0  0  0  0  0  0
   59.3841   27.1730   44.9040 H   0  0  0  0  0  0  0  0  0  0  0  0
   58.6863   26.9499   43.2517 H   0  0  0  0  0  0  0  0  0  0  0  0
   58.1380   25.4270   44.6690 C   0  0  0  0  0  0  0  0  0  0  0  0
   58.3851   25.2260   45.7219 H   0  0  0  0  0  0  0  0  0  0  0  0
   58.7132   24.7525   44.0177 H   0  0  0  0  0  0  0  0  0  0  0  0
   56.7060   25.2020   44.4540 N   0  0  0  0  0  0  0  0  0  0  0  0
   56.3470   25.9550   43.8230 H   0  0  0  0  0  0  0  0  0  0  0  0
   55.8480   25.3540   45.9570 S   0  0  0  0  0  0  0  0  0  0  0  0
   54.7890   24.2920   46.0550 O   0  0  0  0  0  0  0  0  0  0  0  0
   55.1900   26.7040   46.0070 O   0  0  0  0  0  0  0  0  0  0  0  0
   56.9650   25.2060   47.3390 C   0  0  0  0  0  0  0  0  0  0  0  0
   56.3979   25.2811   48.2785 H   0  0  0  0  0  0  0  0  0  0  0  0
   57.4751   24.2324   47.2955 H   0  0  0  0  0  0  0  0  0  0  0  0
   57.7111   26.0131   47.2955 H   0  0  0  0  0  0  0  0  0  0  0  0
   58.5200   29.6330   45.8570 C   0  0  0  0  0  0  0  0  0  0  0  0
   59.2940   28.6950   46.6340 C   0  0  0  0  0  0  0  0  0  0  0  0
   59.9150   27.9400   47.2560 N   0  0  0  0  0  0  0  0  0  0  0  0
   58.6990   31.0030   46.0910 C   0  0  0  0  0  0  0  0  0  0  0  0
   59.4364   31.3378   46.8354 H   0  0  0  0  0  0  0  0  0  0  0  0
   60.4850   33.8720   47.8460 C   0  0  0  0  0  0  0  0  0  0  0  0
   59.4442   33.9427   48.1949 H   0  0  0  0  0  0  0  0  0  0  0  0
   61.5270   33.7210   48.7640 C   0  0  0  0  0  0  0  0  0  0  0  0
   61.3079   33.6739   49.8409 H   0  0  0  0  0  0  0  0  0  0  0  0
   62.8440   33.6300   48.3170 C   0  0  0  0  0  0  0  0  0  0  0  0
   63.8620   33.4840   49.2000 F   0  0  0  0  0  0  0  0  0  0  0  0
  1  2  1  0
  2  3  1  0
  3  4  1  0
  4  5  2  0
  5  6  1  0
  6  7  2  0
  6  8  2  0
  6  9  1  0
  9 10  2  0
 10 11  1  0
 10 12  1  0
 12 13  1  0
 12 14  2  0
 14 15  1  0
 15 16  1  0
 15 17  1  0
 17 18  1  0
 17 19  1  0
 17 20  1  0
 20 21  1  0
 20 22  1  0
 20 23  1  0
 23 24  1  0
 23 25  1  0
 25 26  2  0
 25 27  2  0
 25 28  1  0
 28 29  1  0
 28 30  1  0
 28 31  1  0
 14 32  1  0
 32 33  1  0
 33 34  3  0
 32 35  2  0
 35 36  1  0
  4 37  1  0
 37 38  1  0
 37 39  2  0
 39 40  1  0
 39 41  1  0
 41 42  1  0
 41  2  2  0
 35  9  1  0
M  CHG  1   3  -1
M  END
>  <UniqueID>  (32) 
31

>  <SMILES>  (32) 
CS(=O)(=O)NCCNc1c(F)cc(S(=O)(=O)/N=c2\ccc(F)c[n-]2)cc1C#N

>  <Energy>  (32) 
42.15848745968337

>  <Genealogy>  (32) 
CS(=O)(=O)NCCNc1c(F)cc(S(=O)(=O)N=c2ccc(F)c[n-]2)cc1C#N (protonated)
CS(=O)(=O)NCCNc1c(F)cc(S(=O)(=O)/N=c2\ccc(F)c[n-]2)cc1C#N (cis-trans isomerization)
CS(=O)(=O)NCCNc1c(F)cc(S(=O)(=O)/N=c2\ccc(F)c[n-]2)cc1C#N (3D coordinates assigned)
CS(=O)(=O)NCCNc1c(F)cc(S(=O)(=O)/N=c2\ccc(F)c[n-]2)cc1C#N (optimized conformer: 42.15848745968337 kcal/mol)

>  <smiles>  (32) 
CS(=O)(=O)NCCNc1c(F)cc(S(=O)(=O)N=c2ccc(F)c[nH]2)cc1C#N

>  <score_type>  (32) 
oracle

>  <origin>  (32) 
adg

>  <m_score__min__energy>  (32) 
-9.3499999999999996

>  <m_primary>  (32) 
energy

$$$$
32:0
     RDKit          3D

 59 62  0  0  0  0  0  0  0  0999 V2000
   60.5650   33.4760   50.3260 C   0  0  0  0  0  0  0  0  0  0  0  0
   61.5120   33.2110   49.1920 C   0  0  0  0  0  0  0  0  0  0  0  0
   62.6290   34.0430   48.9980 C   0  0  0  0  0  0  0  0  0  0  0  0
   63.5210   33.7930   47.9540 C   0  0  0  0  0  0  0  0  0  0  0  0
   63.3090   32.7140   47.0970 C   0  0  0  0  0  0  0  0  0  0  0  0
   62.2050   31.8780   47.2780 C   0  0  0  0  0  0  0  0  0  0  0  0
   61.2970   32.1170   48.3300 C   0  0  0  0  0  0  0  0  0  0  0  0
   60.1770   31.2950   48.5500 O   0  0  0  0  0  0  0  0  0  0  0  0
   58.8150   31.7130   48.4500 C   0  0  0  0  0  0  0  0  0  0  0  0
   58.5830   32.4870   47.1670 C   0  0  0  0  0  0  0  0  0  0  0  0
   58.7630   33.8820   47.1880 C   0  0  0  0  0  0  0  0  0  0  0  0
   58.5000   34.6520   46.0540 C   0  0  0  0  0  0  0  0  0  0  0  0
   58.0570   34.0420   44.8820 C   0  0  0  0  0  0  0  0  0  0  0  0
   57.8970   32.6560   44.8330 C   0  0  0  0  0  0  0  0  0  0  0  0
   58.1800   31.8630   45.9570 C   0  0  0  0  0  0  0  0  0  0  0  0
   58.0510   30.3980   45.8260 C   0  0  0  0  0  0  0  0  0  0  0  0
   57.0310   29.9210   45.2560 O   0  0  0  0  0  0  0  0  0  0  0  0
   59.0790   29.5320   46.3340 N   0  0  0  0  0  0  0  0  0  0  0  0
   59.0350   28.0980   46.2580 C   0  0  0  0  0  0  0  0  0  0  0  0
   60.1930   27.3180   46.4190 C   0  0  0  0  0  0  0  0  0  0  0  0
   60.1170   25.9240   46.3640 C   0  0  0  0  0  0  0  0  0  0  0  0
   58.8850   25.2950   46.1680 C   0  0  0  0  0  0  0  0  0  0  0  0
   57.7180   26.0600   46.0350 C   0  0  0  0  0  0  0  0  0  0  0  0
   56.1580   25.2820   45.7800 S   0  0  0  0  0  0  0  0  0  0  0  0
   56.0910   24.8170   44.3520 O   0  0  0  0  0  0  0  0  0  0  0  0
   55.0520   26.2750   46.0060 O   0  0  0  0  0  0  0  0  0  0  0  0
   55.9790   23.9020   46.8460 N   0  0  0  0  0  0  0  0  0  0  0  0
   54.5800   23.4460   46.9250 C   0  0  0  0  0  0  0  0  0  0  0  0
   54.1320   22.7040   45.6420 C   0  0  0  0  0  0  0  0  0  0  0  0
   55.2120   22.2480   44.8440 O   0  0  0  0  0  0  0  0  0  0  0  0
   56.2240   21.7010   45.6570 C   0  0  0  0  0  0  0  0  0  0  0  0
   56.9050   22.8060   46.4840 C   0  0  0  0  0  0  0  0  0  0  0  0
   57.7980   27.4590   46.0830 C   0  0  0  0  0  0  0  0  0  0  0  0
   61.0882   33.3296   51.2825 H   0  0  0  0  0  0  0  0  0  0  0  0
   60.1984   34.5112   50.2633 H   0  0  0  0  0  0  0  0  0  0  0  0
   59.7144   32.7814   50.2633 H   0  0  0  0  0  0  0  0  0  0  0  0
   62.8006   34.8950   49.6723 H   0  0  0  0  0  0  0  0  0  0  0  0
   64.3924   34.4481   47.8072 H   0  0  0  0  0  0  0  0  0  0  0  0
   64.0140   32.5204   46.2751 H   0  0  0  0  0  0  0  0  0  0  0  0
   62.0431   31.0295   46.5970 H   0  0  0  0  0  0  0  0  0  0  0  0
   58.1639   30.8264   48.4593 H   0  0  0  0  0  0  0  0  0  0  0  0
   58.5829   32.3669   49.3035 H   0  0  0  0  0  0  0  0  0  0  0  0
   59.1149   34.3713   48.1082 H   0  0  0  0  0  0  0  0  0  0  0  0
   58.6427   35.7423   46.0855 H   0  0  0  0  0  0  0  0  0  0  0  0
   57.8333   34.6529   43.9950 H   0  0  0  0  0  0  0  0  0  0  0  0
   57.5460   32.1806   43.9052 H   0  0  0  0  0  0  0  0  0  0  0  0
   59.8640   29.9620   46.8730 H   0  0  0  0  0  0  0  0  0  0  0  0
   61.1634   27.8072   46.5891 H   0  0  0  0  0  0  0  0  0  0  0  0
   61.0296   25.3201   46.4753 H   0  0  0  0  0  0  0  0  0  0  0  0
   58.8307   24.1975   46.1180 H   0  0  0  0  0  0  0  0  0  0  0  0
   54.4777   22.7643   47.7822 H   0  0  0  0  0  0  0  0  0  0  0  0
   53.9419   24.3344   47.0409 H   0  0  0  0  0  0  0  0  0  0  0  0
   53.5259   21.8346   45.9366 H   0  0  0  0  0  0  0  0  0  0  0  0
   53.5634   23.4237   45.0348 H   0  0  0  0  0  0  0  0  0  0  0  0
   55.7804   20.9599   46.3382 H   0  0  0  0  0  0  0  0  0  0  0  0
   56.9771   21.2214   45.0145 H   0  0  0  0  0  0  0  0  0  0  0  0
   57.3009   22.3602   47.4084 H   0  0  0  0  0  0  0  0  0  0  0  0
   57.7052   23.2382   45.8653 H   0  0  0  0  0  0  0  0  0  0  0  0
   56.8829   28.0611   45.9826 H   0  0  0  0  0  0  0  0  0  0  0  0
  1  2  1  0
  2  3  2  0
  3  4  1  0
  4  5  2  0
  5  6  1  0
  6  7  2  0
  7  8  1  0
  8  9  1  0
  9 10  1  0
 10 11  2  0
 11 12  1  0
 12 13  2  0
 13 14  1  0
 14 15  2  0
 15 16  1  0
 16 17  2  0
 16 18  1  0
 18 19  1  0
 19 20  2  0
 20 21  1  0
 21 22  2  0
 22 23  1  0
 23 24  1  0
 24 25  2  0
 24 26  2  0
 24 27  1  0
 27 28  1  0
 28 29  1  0
 29 30  1  0
 30 31  1  0
 31 32  1  0
 23 33  2  0
  7  2  1  0
 15 10  1  0
 33 19  1  0
 32 27  1  0
  1 34  1  0
  1 35  1  0
  1 36  1  0
  3 37  1  0
  4 38  1  0
  5 39  1  0
  6 40  1  0
  9 41  1  0
  9 42  1  0
 11 43  1  0
 12 44  1  0
 13 45  1  0
 14 46  1  0
 18 47  1  0
 20 48  1  0
 21 49  1  0
 22 50  1  0
 28 51  1  0
 28 52  1  0
 29 53  1  0
 29 54  1  0
 31 55  1  0
 31 56  1  0
 32 57  1  0
 32 58  1  0
 33 59  1  0
M  END
>  <UniqueID>  (33) 
32

>  <SMILES>  (33) 
Cc1ccccc1OCc1ccccc1C(=O)Nc1cccc(S(=O)(=O)N2CCOCC2)c1

>  <Energy>  (33) 
83.04177910268065

>  <Genealogy>  (33) 
Cc1ccccc1OCc1ccccc1C(=O)Nc1cccc(S(=O)(=O)N2CCOCC2)c1 (3D coordinates assigned)
Cc1ccccc1OCc1ccccc1C(=O)Nc1cccc(S(=O)(=O)N2CCOCC2)c1 (nonaromatic ring conformer: 83.04177910268065 kcal/mol)

>  <smiles>  (33) 
Cc1ccccc1OCc1ccccc1C(=O)Nc1cccc(S(=O)(=O)N2CCOCC2)c1

>  <score_type>  (33) 
oracle

>  <origin>  (33) 
adg

>  <m_score__min__energy>  (33) 
-10.140000000000001

>  <m_primary>  (33) 
energy

$$$$
33:0
     RDKit          3D

 34 35  0  0  0  0  0  0  0  0999 V2000
   56.7870   32.7520   48.8020 H   0  0  0  0  0  0  0  0  0  0  0  0
   57.4250   32.8810   48.0270 O   0  0  0  0  0  0  0  0  0  0  0  0
   58.7550   33.2350   48.2450 C   0  0  0  0  0  0  0  0  0  0  0  0
   59.4900   33.7190   47.2100 N   0  0  0  0  0  0  0  0  0  0  0  0
   60.7730   34.1200   47.3850 C   0  0  0  0  0  0  0  0  0  0  0  0
   61.4330   34.5620   46.4090 O   0  0  0  0  0  0  0  0  0  0  0  0
   61.3450   34.0500   48.6130 N   0  0  0  0  0  0  0  0  0  0  0  0
   60.6580   33.5710   49.6820 C   0  0  0  0  0  0  0  0  0  0  0  0
   61.2250   33.5220   50.8060 O   0  0  0  0  0  0  0  0  0  0  0  0
   59.3330   33.1260   49.5250 C   0  0  0  0  0  0  0  0  0  0  0  0
   58.5840   32.6110   50.6970 C   0  0  0  0  0  0  0  0  0  0  0  0
   58.7001   33.1244   51.6629 H   0  0  0  0  0  0  0  0  0  0  0  0
   57.7740   31.5500   50.6300 C   0  0  0  0  0  0  0  0  0  0  0  0
   57.6258   31.0572   49.6578 H   0  0  0  0  0  0  0  0  0  0  0  0
   57.0720   31.0160   51.8110 C   0  0  0  0  0  0  0  0  0  0  0  0
   57.4830   31.3470   52.9530 O   0  0  0  0  0  0  0  0  0  0  0  0
   55.9040   30.1890   51.7120 N   0  0  0  0  0  0  0  0  0  0  0  0
   55.1000   29.7230   52.8380 C   0  0  0  0  0  0  0  0  0  0  0  0
   55.5997   28.8648   53.3112 H   0  0  0  0  0  0  0  0  0  0  0  0
   54.9913   30.5410   53.5654 H   0  0  0  0  0  0  0  0  0  0  0  0
   53.7140   29.2970   52.3540 C   0  0  0  0  0  0  0  0  0  0  0  0
   53.7974   28.9043   51.3299 H   0  0  0  0  0  0  0  0  0  0  0  0
   53.3303   28.5252   53.0374 H   0  0  0  0  0  0  0  0  0  0  0  0
   52.7510   30.4560   52.3580 C   0  0  0  0  0  0  0  0  0  0  0  0
   52.2140   30.9240   53.5690 C   0  0  0  0  0  0  0  0  0  0  0  0
   52.5153   30.4579   54.5187 H   0  0  0  0  0  0  0  0  0  0  0  0
   51.2980   31.9800   53.5710 C   0  0  0  0  0  0  0  0  0  0  0  0
   50.8858   32.3464   54.5228 H   0  0  0  0  0  0  0  0  0  0  0  0
   50.9040   32.5720   52.3670 C   0  0  0  0  0  0  0  0  0  0  0  0
   49.9930   33.6220   52.3780 O   0  0  0  0  0  0  0  0  0  0  0  0
   51.4260   32.1040   51.1560 C   0  0  0  0  0  0  0  0  0  0  0  0
   51.0340   32.6840   49.9550 O   0  0  0  0  0  0  0  0  0  0  0  0
   52.3430   31.0480   51.1500 C   0  0  0  0  0  0  0  0  0  0  0  0
   52.7468   30.6790   50.1957 H   0  0  0  0  0  0  0  0  0  0  0  0
  1  2  1  0
  2  3  1  0
  3  4  1  0
  4  5  1  0
  5  6  2  0
  5  7  1  0
  7  8  1  0
  8  9  2  0
  8 10  1  0
 10 11  1  0
 11 12  1  0
 11 13  2  0
 13 14  1  0
 13 15  1  0
 15 16  2  0
 15 17  1  0
 17 18  1  0
 18 19  1  0
 18 20  1  0
 18 21  1  0
 21 22  1  0
 21 23  1  0
 21 24  1  0
 24 25  2  0
 25 26  1  0
 25 27  1  0
 27 28  1  0
 27 29  2  0
 29 30  1  0
 29 31  1  0
 31 32  1  0
 31 33  2  0
 33 34  1  0
 10  3  2  0
 33 24  1  0
M  CHG  5   4  -1   7  -1  17  -1  30  -1  32  -1
M  END
>  <UniqueID>  (34) 
33

>  <SMILES>  (34) 
O=C(/C=C/c1c(O)[n-]c(=O)[n-]c1=O)[N-]CCc1ccc([O-])c([O-])c1

>  <Energy>  (34) 
41.181605469508774

>  <Genealogy>  (34) 
O=C(C=Cc1c(O)[n-]c(=O)[n-]c1=O)[N-]CCc1ccc([O-])c([O-])c1 (protonated)
O=C(/C=C/c1c(O)[n-]c(=O)[n-]c1=O)[N-]CCc1ccc([O-])c([O-])c1 (cis-trans isomerization)
O=C(/C=C/c1c(O)[n-]c(=O)[n-]c1=O)[N-]CCc1ccc([O-])c([O-])c1 (3D coordinates assigned)
O=C(/C=C/c1c(O)[n-]c(=O)[n-]c1=O)[N-]CCc1ccc([O-])c([O-])c1 (optimized conformer: 41.181605469508774 kcal/mol)

>  <smiles>  (34) 
O=C(C=Cc1c(O)[nH]c(=O)[nH]c1=O)NCCc1ccc(O)c(O)c1

>  <score_type>  (34) 
oracle

>  <origin>  (34) 
adg

>  <m_score__min__energy>  (34) 
-17.649999999999999

>  <m_primary>  (34) 
energy

$$$$
34:0
     RDKit          3D

 43 45  0  0  0  0  0  0  0  0999 V2000
   52.3070   32.6750   49.7580 H   0  0  0  0  0  0  0  0  0  0  0  0
   51.3700   32.6410   50.1370 O   0  0  0  0  0  0  0  0  0  0  0  0
   51.1380   32.3480   51.4780 C   0  0  0  0  0  0  0  0  0  0  0  0
   50.3750   33.1100   52.2790 N   0  0  0  0  0  0  0  0  0  0  0  0
   50.4760   32.4870   53.4720 C   0  0  0  0  0  0  0  0  0  0  0  0
   49.8960   32.9050   54.5070 O   0  0  0  0  0  0  0  0  0  0  0  0
   51.2570   31.3850   53.4720 N   0  0  0  0  0  0  0  0  0  0  0  0
   51.6540   31.2860   52.1920 C   0  0  0  0  0  0  0  0  0  0  0  0
   52.6150   30.2790   51.7180 C   0  0  0  0  0  0  0  0  0  0  0  0
   52.2448   29.5259   51.0068 H   0  0  0  0  0  0  0  0  0  0  0  0
   53.9090   30.2000   52.0800 C   0  0  0  0  0  0  0  0  0  0  0  0
   54.7740   31.2810   52.0260 C   0  0  0  0  0  0  0  0  0  0  0  0
   54.5200   32.3104   51.7330 H   0  0  0  0  0  0  0  0  0  0  0  0
   56.0170   30.8170   52.4110 C   0  0  0  0  0  0  0  0  0  0  0  0
   57.2480   31.6160   52.5290 C   0  0  0  0  0  0  0  0  0  0  0  0
   57.3950   32.3520   53.5390 O   0  0  0  0  0  0  0  0  0  0  0  0
   58.3040   31.5590   51.5610 N   0  0  0  0  0  0  0  0  0  0  0  0
   58.5870   32.5450   50.5160 C   0  0  1  0  0  0  0  0  0  0  0  0
   57.7040   33.1859   50.3763 H   0  0  0  0  0  0  0  0  0  0  0  0
   59.7670   33.4150   50.9570 C   0  0  0  0  0  0  0  0  0  0  0  0
   59.8092   33.4461   52.0558 H   0  0  0  0  0  0  0  0  0  0  0  0
   60.7028   32.9891   50.5661 H   0  0  0  0  0  0  0  0  0  0  0  0
   59.6369   34.4349   50.5661 H   0  0  0  0  0  0  0  0  0  0  0  0
   58.8480   31.8700   49.1500 C   0  0  0  0  0  0  0  0  0  0  0  0
   59.8500   31.4166   49.1715 H   0  0  0  0  0  0  0  0  0  0  0  0
   58.0548   31.1224   49.0017 H   0  0  0  0  0  0  0  0  0  0  0  0
   58.7810   32.8260   47.9830 C   0  0  0  0  0  0  0  0  0  0  0  0
   59.4070   34.0820   48.0570 C   0  0  0  0  0  0  0  0  0  0  0  0
   59.9397   34.3749   48.9738 H   0  0  0  0  0  0  0  0  0  0  0  0
   59.3560   34.9610   46.9710 C   0  0  0  0  0  0  0  0  0  0  0  0
   59.8510   35.9413   47.0342 H   0  0  0  0  0  0  0  0  0  0  0  0
   58.6770   34.5960   45.8050 C   0  0  0  0  0  0  0  0  0  0  0  0
   58.6388   35.2885   44.9512 H   0  0  0  0  0  0  0  0  0  0  0  0
   58.0470   33.3520   45.7240 C   0  0  0  0  0  0  0  0  0  0  0  0
   57.5116   33.0662   44.8066 H   0  0  0  0  0  0  0  0  0  0  0  0
   58.0960   32.4690   46.8080 C   0  0  0  0  0  0  0  0  0  0  0  0
   57.5965   31.4912   46.7409 H   0  0  0  0  0  0  0  0  0  0  0  0
   55.9460   29.5160   52.7460 N   0  0  0  0  0  0  0  0  0  0  0  0
   56.7330   28.9320   53.1100 H   0  0  0  0  0  0  0  0  0  0  0  0
   54.6690   29.1220   52.5620 C   0  0  0  0  0  0  0  0  0  0  0  0
   54.2510   27.9020   52.9150 C   0  0  0  0  0  0  0  0  0  0  0  0
   53.2028   27.6111   52.7517 H   0  0  0  0  0  0  0  0  0  0  0  0
   54.9553   27.1892   53.3688 H   0  0  0  0  0  0  0  0  0  0  0  0
  1  2  1  0
  2  3  1  0
  3  4  1  0
  4  5  1  0
  5  6  2  0
  5  7  1  0
  7  8  1  0
  8  9  1  0
  9 10  1  0
  9 11  2  0
 11 12  1  0
 12 13  1  0
 12 14  2  0
 14 15  1  0
 15 16  2  0
 15 17  1  0
 17 18  1  0
 18 19  1  6
 18 20  1  0
 20 21  1  0
 20 22  1  0
 20 23  1  0
 18 24  1  0
 24 25  1  0
 24 26  1  0
 24 27  1  0
 27 28  2  0
 28 29  1  0
 28 30  1  0
 30 31  1  0
 30 32  2  0
 32 33  1  0
 32 34  1  0
 34 35  1  0
 34 36  2  0
 36 37  1  0
 14 38  1  0
 38 39  1  0
 38 40  1  0
 40 41  2  0
 41 42  1  0
 41 43  1  0
  8  3  2  0
 40 11  1  0
 36 27  1  0
M  CHG  3   4  -1   7  -1  17  -1
M  END
>  <UniqueID>  (35) 
34

>  <SMILES>  (35) 
C=c1[nH]c(C(=O)[N-][C@@H](C)Cc2ccccc2)c/c1=C/c1[n-]c(=O)[n-]c1O

>  <Energy>  (35) 
111.20571684790816

>  <Genealogy>  (35) 
C=c1[nH]c(C(=O)[N-]C(C)Cc2ccccc2)cc1=Cc1[n-]c(=O)[n-]c1O (protonated)
C=c1[nH]c(C(=O)[N-][C@@H](C)Cc2ccccc2)cc1=Cc1[n-]c(=O)[n-]c1O (chirality)
C=c1[nH]c(C(=O)[N-][C@@H](C)Cc2ccccc2)c/c1=C/c1[n-]c(=O)[n-]c1O (cis-trans isomerization)
C=c1[nH]c(C(=O)[N-][C@@H](C)Cc2ccccc2)c/c1=C/c1[n-]c(=O)[n-]c1O (3D coordinates assigned)
C=c1[nH]c(C(=O)[N-][C@@H](C)Cc2ccccc2)c/c1=C/c1[n-]c(=O)[n-]c1O (optimized conformer: 111.20571684790816 kcal/mol)

>  <smiles>  (35) 
C=c1[nH]c(C(=O)NC(C)Cc2ccccc2)cc1=Cc1[nH]c(=O)[nH]c1O

>  <score_type>  (35) 
oracle

>  <origin>  (35) 
adg

>  <m_score__min__energy>  (35) 
-14.220000000000001

>  <m_primary>  (35) 
energy

$$$$
35:0
     RDKit          3D

 43 45  0  0  0  0  0  0  0  0999 V2000
   56.0470   31.3490   52.6870 O   0  0  0  0  0  0  0  0  0  0  0  0
   55.8220   30.1100   52.6170 C   0  0  0  0  0  0  0  0  0  0  0  0
   54.5160   29.5470   53.1220 C   0  0  0  0  0  0  0  0  0  0  0  0
   53.3490   30.4490   52.8170 C   0  0  0  0  0  0  0  0  0  0  0  0
   53.2160   31.0350   51.5460 C   0  0  0  0  0  0  0  0  0  0  0  0
   52.1490   31.8970   51.2740 C   0  0  0  0  0  0  0  0  0  0  0  0
   51.2120   32.1860   52.2710 C   0  0  0  0  0  0  0  0  0  0  0  0
   50.1510   33.0420   51.9990 O   0  0  0  0  0  0  0  0  0  0  0  0
   51.3440   31.6190   53.5410 C   0  0  0  0  0  0  0  0  0  0  0  0
   52.4110   30.7570   53.8160 C   0  0  0  0  0  0  0  0  0  0  0  0
   56.8010   29.2700   51.9980 N   0  0  0  0  0  0  0  0  0  0  0  0
   58.2190   29.5940   51.9080 C   0  0  0  0  0  0  0  0  0  0  0  0
   58.4590   30.4420   50.6920 C   0  0  0  0  0  0  0  0  0  0  0  0
   59.0630   29.8890   49.5530 C   0  0  0  0  0  0  0  0  0  0  0  0
   59.2560   30.6680   48.4080 C   0  0  0  0  0  0  0  0  0  0  0  0
   58.8300   32.0040   48.3820 C   0  0  0  0  0  0  0  0  0  0  0  0
   59.0540   32.8340   47.1770 C   0  0  0  0  0  0  0  0  0  0  0  0
   59.7180   34.0640   47.3360 C   0  0  0  0  0  0  0  0  0  0  0  0
   59.8870   34.9270   46.2550 C   0  0  0  0  0  0  0  0  0  0  0  0
   59.3940   34.5790   44.9980 C   0  0  0  0  0  0  0  0  0  0  0  0
   58.7440   33.3570   44.8170 C   0  0  0  0  0  0  0  0  0  0  0  0
   58.5760   32.4620   45.8890 C   0  0  0  0  0  0  0  0  0  0  0  0
   57.9480   31.1450   45.6140 C   0  0  0  0  0  0  0  0  0  0  0  0
   58.5700   30.0720   45.8270 O   0  0  0  0  0  0  0  0  0  0  0  0
   56.6690   31.0830   45.0710 O   0  0  0  0  0  0  0  0  0  0  0  0
   58.2240   32.5580   49.5210 C   0  0  0  0  0  0  0  0  0  0  0  0
   58.0300   31.7780   50.6650 C   0  0  0  0  0  0  0  0  0  0  0  0
   54.3432   28.5712   52.6445 H   0  0  0  0  0  0  0  0  0  0  0  0
   54.5909   29.4515   54.2153 H   0  0  0  0  0  0  0  0  0  0  0  0
   53.9549   30.8143   50.7616 H   0  0  0  0  0  0  0  0  0  0  0  0
   52.0467   32.3477   50.2758 H   0  0  0  0  0  0  0  0  0  0  0  0
   50.6084   31.8505   54.3254 H   0  0  0  0  0  0  0  0  0  0  0  0
   52.5158   30.3184   54.8193 H   0  0  0  0  0  0  0  0  0  0  0  0
   58.5273   30.1465   52.8078 H   0  0  0  0  0  0  0  0  0  0  0  0
   58.8045   28.6660   51.8310 H   0  0  0  0  0  0  0  0  0  0  0  0
   59.3863   28.8376   49.5607 H   0  0  0  0  0  0  0  0  0  0  0  0
   59.7439   30.2313   47.5241 H   0  0  0  0  0  0  0  0  0  0  0  0
   60.1081   34.3477   48.3246 H   0  0  0  0  0  0  0  0  0  0  0  0
   60.4103   35.8846   46.3936 H   0  0  0  0  0  0  0  0  0  0  0  0
   59.5173   35.2674   44.1490 H   0  0  0  0  0  0  0  0  0  0  0  0
   58.3578   33.0903   43.8222 H   0  0  0  0  0  0  0  0  0  0  0  0
   57.9007   33.6094   49.5132 H   0  0  0  0  0  0  0  0  0  0  0  0
   57.5390   32.2134   51.5478 H   0  0  0  0  0  0  0  0  0  0  0  0
  1  2  2  0
  2  3  1  0
  3  4  1  0
  4  5  2  0
  5  6  1  0
  6  7  2  0
  7  8  1  0
  7  9  1  0
  9 10  2  0
  2 11  1  0
 11 12  1  0
 12 13  1  0
 13 14  2  0
 14 15  1  0
 15 16  2  0
 16 17  1  0
 17 18  2  0
 18 19  1  0
 19 20  2  0
 20 21  1  0
 21 22  2  0
 22 23  1  0
 23 24  2  0
 23 25  1  0
 16 26  1  0
 26 27  2  0
 10  4  1  0
 27 13  1  0
 22 17  1  0
  3 28  1  0
  3 29  1  0
  5 30  1  0
  6 31  1  0
  9 32  1  0
 10 33  1  0
 12 34  1  0
 12 35  1  0
 14 36  1  0
 15 37  1  0
 18 38  1  0
 19 39  1  0
 20 40  1  0
 21 41  1  0
 26 42  1  0
 27 43  1  0
M  CHG  3   8  -1  11  -1  25  -1
M  END
>  <UniqueID>  (36) 
35

>  <SMILES>  (36) 
O=C(Cc1ccc([O-])cc1)[N-]Cc1ccc(-c2ccccc2C(=O)[O-])cc1

>  <Energy>  (36) 
54.256825229138464

>  <Genealogy>  (36) 
O=C(Cc1ccc([O-])cc1)[N-]Cc1ccc(-c2ccccc2C(=O)[O-])cc1 (protonated)
O=C(Cc1ccc([O-])cc1)[N-]Cc1ccc(-c2ccccc2C(=O)[O-])cc1 (3D coordinates assigned)
O=C(Cc1ccc([O-])cc1)[N-]Cc1ccc(-c2ccccc2C(=O)[O-])cc1 (optimized conformer: 54.256825229138464 kcal/mol)

>  <smiles>  (36) 
O=C(Cc1ccc(O)cc1)NCc1ccc(-c2ccccc2C(=O)O)cc1

>  <score_type>  (36) 
oracle

>  <origin>  (36) 
adg

>  <m_score__min__energy>  (36) 
-15.66

>  <m_primary>  (36) 
energy

$$$$
36:0
     RDKit          3D

 27 28  0  0  0  0  0  0  0  0999 V2000
   55.8590   22.1200   42.2930 N   0  0  0  0  0  0  0  0  0  0  0  0
   56.2820   21.8860   43.6340 C   0  0  0  0  0  0  0  0  0  0  0  0
   56.2520   20.7110   44.0920 O   0  0  0  0  0  0  0  0  0  0  0  0
   56.7540   23.0070   44.4830 C   0  0  0  0  0  0  0  0  0  0  0  0
   55.8690   24.0250   44.8810 C   0  0  0  0  0  0  0  0  0  0  0  0
   56.3170   25.0800   45.6820 C   0  0  0  0  0  0  0  0  0  0  0  0
   57.6550   25.1480   46.0850 C   0  0  0  0  0  0  0  0  0  0  0  0
   58.0660   26.2360   46.9260 N   0  0  0  0  0  0  0  0  0  0  0  0
   58.1570   27.6150   46.5470 C   0  0  0  0  0  0  0  0  0  0  0  0
   58.3560   28.5120   47.4100 O   0  0  0  0  0  0  0  0  0  0  0  0
   58.0230   27.9920   45.1070 C   0  0  0  0  0  0  0  0  0  0  0  0
   57.5530   29.4080   44.9940 C   0  0  0  0  0  0  0  0  0  0  0  0
   58.5570   30.7580   44.8890 S   0  0  0  0  0  0  0  0  0  0  0  0
   57.2590   31.8080   44.6970 C   0  0  0  0  0  0  0  0  0  0  0  0
   57.3690   33.0540   44.5640 O   0  0  0  0  0  0  0  0  0  0  0  0
   56.0690   31.1710   44.6940 N   0  0  0  0  0  0  0  0  0  0  0  0
   56.2340   29.8320   44.8510 C   0  0  0  0  0  0  0  0  0  0  0  0
   55.1530   28.9590   44.8620 O   0  0  0  0  0  0  0  0  0  0  0  0
   58.5370   24.1200   45.7110 C   0  0  0  0  0  0  0  0  0  0  0  0
   58.0920   23.0650   44.9110 C   0  0  0  0  0  0  0  0  0  0  0  0
   56.5260   22.4800   41.5740 H   0  0  0  0  0  0  0  0  0  0  0  0
   54.8174   23.9911   44.5601 H   0  0  0  0  0  0  0  0  0  0  0  0
   55.6117   25.8628   45.9978 H   0  0  0  0  0  0  0  0  0  0  0  0
   58.9996   27.8910   44.6109 H   0  0  0  0  0  0  0  0  0  0  0  0
   57.2910   27.3274   44.6248 H   0  0  0  0  0  0  0  0  0  0  0  0
   59.5831   24.1462   46.0499 H   0  0  0  0  0  0  0  0  0  0  0  0
   58.7945   22.2726   44.6132 H   0  0  0  0  0  0  0  0  0  0  0  0
  1  2  1  0
  2  3  2  0
  2  4  1  0
  4  5  2  0
  5  6  1  0
  6  7  2  0
  7  8  1  0
  8  9  1  0
  9 10  2  0
  9 11  1  0
 11 12  1  0
 12 13  1  0
 13 14  1  0
 14 15  2  0
 14 16  1  0
 16 17  1  0
 17 18  1  0
  7 19  1  0
 19 20  2  0
 20  4  1  0
 17 12  2  0
  1 21  1  0
  5 22  1  0
  6 23  1  0
 11 24  1  0
 11 25  1  0
 19 26  1  0
 20 27  1  0
M  CHG  4   1  -1   8  -1  16  -1  18  -1
M  END
>  <UniqueID>  (37) 
36

>  <SMILES>  (37) 
[NH-]C(=O)c1ccc([N-]C(=O)Cc2sc(=O)[n-]c2[O-])cc1

>  <Energy>  (37) 
59.78649624499339

>  <Genealogy>  (37) 
[NH-]C(=O)c1ccc([N-]C(=O)Cc2sc(=O)[n-]c2[O-])cc1 (protonated)
[NH-]C(=O)c1ccc([N-]C(=O)Cc2sc(=O)[n-]c2[O-])cc1 (3D coordinates assigned)
[NH-]C(=O)c1ccc([N-]C(=O)Cc2sc(=O)[n-]c2[O-])cc1 (optimized conformer: 59.78649624499339 kcal/mol)

>  <smiles>  (37) 
NC(=O)c1ccc(NC(=O)Cc2sc(=O)[nH]c2O)cc1

>  <score_type>  (37) 
oracle

>  <origin>  (37) 
adg

>  <m_score__min__energy>  (37) 
-15.1

>  <m_primary>  (37) 
energy

$$$$
37:0
     RDKit          3D

 67 71  0  0  0  0  0  0  0  0999 V2000
   58.2710   32.5230   52.9530 C   0  0  0  0  0  0  0  0  0  0  0  0
   58.6530   31.6970   51.7990 N   0  0  0  0  0  0  0  0  0  0  0  0
   58.4180   30.2650   51.8460 C   0  0  0  0  0  0  0  0  0  0  0  0
   57.4390   29.7620   51.2320 O   0  0  0  0  0  0  0  0  0  0  0  0
   59.3440   29.3470   52.6110 C   0  0  0  0  0  0  0  0  0  0  0  0
   60.7140   29.4230   52.1100 N   0  0  0  0  0  0  0  0  0  0  0  0
   61.1020   29.9740   50.8440 C   0  0  0  0  0  0  0  0  0  0  0  0
   60.5700   29.5130   49.8000 O   0  0  0  0  0  0  0  0  0  0  0  0
   62.1000   31.0090   50.7560 N   0  0  0  0  0  0  0  0  0  0  0  0
   62.4170   31.7110   49.5410 C   0  0  0  0  0  0  0  0  0  0  0  0
   63.1190   32.9240   49.6110 C   0  0  0  0  0  0  0  0  0  0  0  0
   63.4300   33.6310   48.4450 C   0  0  0  0  0  0  0  0  0  0  0  0
   63.0310   33.1370   47.2000 C   0  0  0  0  0  0  0  0  0  0  0  0
   63.3360   33.8230   46.0700 F   0  0  0  0  0  0  0  0  0  0  0  0
   62.3100   31.9430   47.1210 C   0  0  0  0  0  0  0  0  0  0  0  0
   61.9960   31.2340   48.2850 C   0  0  0  0  0  0  0  0  0  0  0  0
   59.2680   32.3510   50.6200 C   0  0  2  0  0  0  0  0  0  0  0  0
   59.3040   33.8940   50.7790 C   0  0  0  0  0  0  0  0  0  0  0  0
   60.0840   34.5590   49.6270 C   0  0  0  0  0  0  0  0  0  0  0  0
   59.6220   34.0180   48.3090 C   0  0  0  0  0  0  0  0  0  0  0  0
   59.7180   34.6550   47.1200 N   0  0  0  0  0  0  0  0  0  0  0  0
   59.1220   33.8370   46.2300 C   0  0  0  0  0  0  0  0  0  0  0  0
   58.8670   34.0960   44.8850 C   0  0  0  0  0  0  0  0  0  0  0  0
   58.1110   33.1540   44.1630 C   0  0  0  0  0  0  0  0  0  0  0  0
   57.6280   31.9730   44.7890 C   0  0  0  0  0  0  0  0  0  0  0  0
   56.7370   31.0450   44.0590 C   0  0  0  0  0  0  0  0  0  0  0  0
   56.6370   31.1120   42.8030 O   0  0  0  0  0  0  0  0  0  0  0  0
   55.9380   30.1010   44.7760 N   0  0  0  0  0  0  0  0  0  0  0  0
   56.3300   28.7030   44.8960 C   0  0  0  0  0  0  0  0  0  0  0  0
   57.7540   28.6270   45.3750 C   0  0  0  0  0  0  0  0  0  0  0  0
   58.0390   28.5890   46.7500 C   0  0  0  0  0  0  0  0  0  0  0  0
   59.3640   28.6300   47.1960 C   0  0  0  0  0  0  0  0  0  0  0  0
   60.4120   28.7190   46.2750 C   0  0  0  0  0  0  0  0  0  0  0  0
   60.1370   28.7700   44.9060 C   0  0  0  0  0  0  0  0  0  0  0  0
   58.8140   28.7280   44.4560 C   0  0  0  0  0  0  0  0  0  0  0  0
   57.9340   31.7330   46.1480 C   0  0  0  0  0  0  0  0  0  0  0  0
   58.6750   32.6900   46.8350 C   0  0  0  0  0  0  0  0  0  0  0  0
   59.0090   32.7830   48.1670 C   0  0  0  0  0  0  0  0  0  0  0  0
   58.5780   31.9070   49.3040 C   0  0  0  0  0  0  0  0  0  0  0  0
   58.5175   31.9900   53.8831 H   0  0  0  0  0  0  0  0  0  0  0  0
   58.8200   33.4756   52.9198 H   0  0  0  0  0  0  0  0  0  0  0  0
   57.1896   32.7216   52.9198 H   0  0  0  0  0  0  0  0  0  0  0  0
   59.3359   29.6359   53.6723 H   0  0  0  0  0  0  0  0  0  0  0  0
   58.9879   28.3144   52.4812 H   0  0  0  0  0  0  0  0  0  0  0  0
   62.7110   31.1860   51.5830 H   0  0  0  0  0  0  0  0  0  0  0  0
   63.4267   33.3215   50.5894 H   0  0  0  0  0  0  0  0  0  0  0  0
   63.9889   34.5763   48.5079 H   0  0  0  0  0  0  0  0  0  0  0  0
   61.9886   31.5597   46.1413 H   0  0  0  0  0  0  0  0  0  0  0  0
   61.4181   30.3004   48.2189 H   0  0  0  0  0  0  0  0  0  0  0  0
   60.3143   32.0173   50.5581 H   0  0  0  0  0  0  0  0  0  0  0  0
   58.2732   34.2779   50.7820 H   0  0  0  0  0  0  0  0  0  0  0  0
   59.8117   34.1333   51.7250 H   0  0  0  0  0  0  0  0  0  0  0  0
   59.9145   35.6455   49.6532 H   0  0  0  0  0  0  0  0  0  0  0  0
   61.1558   34.3428   49.7477 H   0  0  0  0  0  0  0  0  0  0  0  0
   60.1140   35.6060   46.9430 H   0  0  0  0  0  0  0  0  0  0  0  0
   59.2452   35.0091   44.4021 H   0  0  0  0  0  0  0  0  0  0  0  0
   57.8910   33.3340   43.1004 H   0  0  0  0  0  0  0  0  0  0  0  0
   55.6718   28.1971   45.6177 H   0  0  0  0  0  0  0  0  0  0  0  0
   56.2431   28.2098   43.9166 H   0  0  0  0  0  0  0  0  0  0  0  0
   57.2172   28.5268   47.4785 H   0  0  0  0  0  0  0  0  0  0  0  0
   59.5819   28.5921   48.2735 H   0  0  0  0  0  0  0  0  0  0  0  0
   61.4533   28.7489   46.6282 H   0  0  0  0  0  0  0  0  0  0  0  0
   60.9619   28.8432   44.1820 H   0  0  0  0  0  0  0  0  0  0  0  0
   58.6010   28.7742   43.3778 H   0  0  0  0  0  0  0  0  0  0  0  0
   57.5954   30.8142   46.6492 H   0  0  0  0  0  0  0  0  0  0  0  0
   57.4870   31.9798   49.4243 H   0  0  0  0  0  0  0  0  0  0  0  0
   58.8654   30.8684   49.0832 H   0  0  0  0  0  0  0  0  0  0  0  0
  1  2  1  0
  2  3  1  0
  3  4  2  0
  3  5  1  0
  5  6  1  0
  6  7  1  0
  7  8  2  0
  7  9  1  0
  9 10  1  0
 10 11  2  0
 11 12  1  0
 12 13  2  0
 13 14  1  0
 13 15  1  0
 15 16  2  0
  2 17  1  0
 17 18  1  0
 18 19  1  0
 19 20  1  0
 20 21  1  0
 21 22  1  0
 22 23  2  0
 23 24  1  0
 24 25  2  0
 25 26  1  0
 26 27  2  0
 26 28  1  0
 28 29  1  0
 29 30  1  0
 30 31  2  0
 31 32  1  0
 32 33  2  0
 33 34  1  0
 34 35  2  0
 25 36  1  0
 36 37  2  0
 37 38  1  0
 38 39  1  0
 16 10  1  0
 39 17  1  0
 38 20  2  0
 37 22  1  0
 35 30  1  0
  1 40  1  0
  1 41  1  0
  1 42  1  0
  5 43  1  0
  5 44  1  0
  9 45  1  0
 11 46  1  0
 12 47  1  0
 15 48  1  0
 16 49  1  0
 17 50  1  6
 18 51  1  0
 18 52  1  0
 19 53  1  0
 19 54  1  0
 21 55  1  0
 23 56  1  0
 24 57  1  0
 29 58  1  0
 29 59  1  0
 31 60  1  0
 32 61  1  0
 33 62  1  0
 34 63  1  0
 35 64  1  0
 36 65  1  0
 39 66  1  0
 39 67  1  0
M  CHG  2   6  -1  28  -1
M  END
>  <UniqueID>  (38) 
37

>  <SMILES>  (38) 
CN(C(=O)C[N-]C(=O)Nc1ccc(F)cc1)[C@@H]1CCc2[nH]c3ccc(C(=O)[N-]Cc4ccccc4)cc3c2C1

>  <Energy>  (38) 
110.60715862029232

>  <Genealogy>  (38) 
CN(C(=O)C[N-]C(=O)Nc1ccc(F)cc1)C1CCc2[nH]c3ccc(C(=O)[N-]Cc4ccccc4)cc3c2C1 (protonated)
CN(C(=O)C[N-]C(=O)Nc1ccc(F)cc1)[C@@H]1CCc2[nH]c3ccc(C(=O)[N-]Cc4ccccc4)cc3c2C1 (chirality)
CN(C(=O)C[N-]C(=O)Nc1ccc(F)cc1)[C@@H]1CCc2[nH]c3ccc(C(=O)[N-]Cc4ccccc4)cc3c2C1 (3D coordinates assigned)
CN(C(=O)C[N-]C(=O)Nc1ccc(F)cc1)[C@@H]1CCc2[nH]c3ccc(C(=O)[N-]Cc4ccccc4)cc3c2C1 (nonaromatic ring conformer: 110.60715862029232 kcal/mol)

>  <smiles>  (38) 
CN(C(=O)CNC(=O)Nc1ccc(F)cc1)C1CCc2[nH]c3ccc(C(=O)NCc4ccccc4)cc3c2C1

>  <score_type>  (38) 
oracle

>  <origin>  (38) 
adg

>  <m_score__min__energy>  (38) 
-13.49

>  <m_primary>  (38) 
energy

$$$$
38:0
     RDKit          3D

 46 48  0  0  0  0  0  0  0  0999 V2000
   55.6800   30.8030   52.4490 C   0  0  0  0  0  0  0  0  0  0  0  0
   57.0780   30.9840   52.6510 O   0  0  0  0  0  0  0  0  0  0  0  0
   57.9060   31.7590   51.8240 C   0  0  0  0  0  0  0  0  0  0  0  0
   58.2870   33.0730   52.1610 C   0  0  0  0  0  0  0  0  0  0  0  0
   59.1100   33.8100   51.3080 C   0  0  0  0  0  0  0  0  0  0  0  0
   59.5630   33.2530   50.1020 C   0  0  0  0  0  0  0  0  0  0  0  0
   60.4370   34.0520   49.1720 C   0  0  0  0  0  0  0  0  0  0  0  0
   59.6360   34.8190   48.2140 N   0  0  0  0  0  0  0  0  0  0  0  0
   60.0550   34.4290   46.5700 S   0  0  0  0  0  0  0  0  0  0  0  0
   59.9320   35.6670   45.7280 O   0  0  0  0  0  0  0  0  0  0  0  0
   61.4820   33.9590   46.5140 O   0  0  0  0  0  0  0  0  0  0  0  0
   58.9800   33.1950   45.9140 C   0  0  0  0  0  0  0  0  0  0  0  0
   58.8670   31.9590   46.5630 C   0  0  0  0  0  0  0  0  0  0  0  0
   58.0300   30.9670   46.0460 C   0  0  0  0  0  0  0  0  0  0  0  0
   57.2880   31.2000   44.8750 C   0  0  0  0  0  0  0  0  0  0  0  0
   56.4110   30.1370   44.3260 C   0  0  0  0  0  0  0  0  0  0  0  0
   55.9630   30.2540   43.1550 O   0  0  0  0  0  0  0  0  0  0  0  0
   56.0030   29.0030   45.1080 N   0  0  0  0  0  0  0  0  0  0  0  0
   56.7590   28.0010   45.4560 C   0  0  0  0  0  0  0  0  0  0  0  0
   58.1180   28.0780   45.3570 N   0  0  0  0  0  0  0  0  0  0  0  0
   58.9260   27.0410   45.7020 C   0  0  0  0  0  0  0  0  0  0  0  0
   58.3700   25.8470   46.1660 C   0  0  0  0  0  0  0  0  0  0  0  0
   56.9830   25.7340   46.2660 C   0  0  0  0  0  0  0  0  0  0  0  0
   56.1680   26.8110   45.9080 C   0  0  0  0  0  0  0  0  0  0  0  0
   54.7850   26.6960   46.0060 O   0  0  0  0  0  0  0  0  0  0  0  0
   57.4210   32.4350   44.2180 C   0  0  0  0  0  0  0  0  0  0  0  0
   58.2570   33.4270   44.7380 C   0  0  0  0  0  0  0  0  0  0  0  0
   59.1900   31.9430   49.7680 C   0  0  0  0  0  0  0  0  0  0  0  0
   58.3630   31.2000   50.6220 C   0  0  0  0  0  0  0  0  0  0  0  0
   57.9920   29.9000   50.2820 O   0  0  0  0  0  0  0  0  0  0  0  0
   55.1742   30.7375   53.4236 H   0  0  0  0  0  0  0  0  0  0  0  0
   55.2777   31.6566   51.8837 H   0  0  0  0  0  0  0  0  0  0  0  0
   55.5083   29.8751   51.8837 H   0  0  0  0  0  0  0  0  0  0  0  0
   57.9338   33.5205   53.1017 H   0  0  0  0  0  0  0  0  0  0  0  0
   59.4053   34.8334   51.5826 H   0  0  0  0  0  0  0  0  0  0  0  0
   61.0490   34.7476   49.7650 H   0  0  0  0  0  0  0  0  0  0  0  0
   61.0746   33.3537   48.6100 H   0  0  0  0  0  0  0  0  0  0  0  0
   59.4392   31.7686   47.4830 H   0  0  0  0  0  0  0  0  0  0  0  0
   57.9511   29.9970   46.5588 H   0  0  0  0  0  0  0  0  0  0  0  0
   60.0179   27.1422   45.6157 H   0  0  0  0  0  0  0  0  0  0  0  0
   59.0184   25.0049   46.4495 H   0  0  0  0  0  0  0  0  0  0  0  0
   56.5315   24.7979   46.6263 H   0  0  0  0  0  0  0  0  0  0  0  0
   56.8635   32.6222   43.2884 H   0  0  0  0  0  0  0  0  0  0  0  0
   58.3472   34.3938   44.2211 H   0  0  0  0  0  0  0  0  0  0  0  0
   59.5488   31.4954   48.8294 H   0  0  0  0  0  0  0  0  0  0  0  0
   57.3870   29.3480   50.8790 H   0  0  0  0  0  0  0  0  0  0  0  0
  1  2  1  0
  2  3  1  0
  3  4  2  0
  4  5  1  0
  5  6  2  0
  6  7  1  0
  7  8  1  0
  8  9  1  0
  9 10  2  0
  9 11  2  0
  9 12  1  0
 12 13  2  0
 13 14  1  0
 14 15  2  0
 15 16  1  0
 16 17  2  0
 16 18  1  0
 18 19  2  3
 19 20  1  0
 20 21  1  0
 21 22  2  0
 22 23  1  0
 23 24  2  0
 24 25  1  0
 15 26  1  0
 26 27  2  0
  6 28  1  0
 28 29  2  0
 29 30  1  0
 29  3  1  0
 27 12  1  0
 24 19  1  0
  1 31  1  0
  1 32  1  0
  1 33  1  0
  4 34  1  0
  5 35  1  0
  7 36  1  0
  7 37  1  0
 13 38  1  0
 14 39  1  0
 21 40  1  0
 22 41  1  0
 23 42  1  0
 26 43  1  0
 27 44  1  0
 28 45  1  0
 30 46  1  0
M  CHG  3   8  -1  20  -1  25  -1
M  END
>  <UniqueID>  (39) 
38

>  <SMILES>  (39) 
COc1ccc(C[N-]S(=O)(=O)c2ccc(C(=O)N=c3[n-]cccc3[O-])cc2)cc1O

>  <Energy>  (39) 
55.283870257844136

>  <Genealogy>  (39) 
COc1ccc(C[N-]S(=O)(=O)c2ccc(C(=O)N=c3[n-]cccc3[O-])cc2)cc1O (protonated)
COc1ccc(C[N-]S(=O)(=O)c2ccc(C(=O)N=c3[n-]cccc3[O-])cc2)cc1O (3D coordinates assigned)
COc1ccc(C[N-]S(=O)(=O)c2ccc(C(=O)N=c3[n-]cccc3[O-])cc2)cc1O (optimized conformer: 55.283870257844136 kcal/mol)

>  <smiles>  (39) 
COc1ccc(CNS(=O)(=O)c2ccc(C(=O)N=c3[nH]cccc3O)cc2)cc1O

>  <score_type>  (39) 
oracle

>  <origin>  (39) 
adg

>  <m_score__min__energy>  (39) 
-14.75

>  <m_primary>  (39) 
energy

$$$$
39:0
     RDKit          3D

 58 62  0  0  1  0  0  0  0  0999 V2000
   58.8080   30.6300   47.4460 C   0  0  0  0  0  0  0  0  0  0  0  0
   58.7770   31.6260   46.2780 C   0  0  0  0  0  0  0  0  0  0  0  0
   58.0000   31.1490   45.2110 C   0  0  0  0  0  0  0  0  0  0  0  0
   57.5700   29.7920   44.9330 C   0  0  0  0  0  0  0  0  0  0  0  0
   56.3930   29.3720   44.8790 O   0  0  0  0  0  0  0  0  0  0  0  0
   58.5880   28.8330   44.7000 N   0  0  0  0  0  0  0  0  0  0  0  0
   58.1820   27.5030   44.4270 C   0  0  0  0  0  0  0  0  0  0  0  0
   58.1540   26.9590   43.1560 C   0  0  0  0  0  0  0  0  0  0  0  0
   57.7410   25.6430   42.9960 C   0  0  0  0  0  0  0  0  0  0  0  0
   57.3630   24.8880   44.0740 C   0  0  0  0  0  0  0  0  0  0  0  0
   57.3880   25.4210   45.3440 C   0  0  0  0  0  0  0  0  0  0  0  0
   56.8970   24.4140   46.6880 S   0  0  0  0  0  0  0  0  0  0  0  0
   57.7580   23.1870   46.7590 O   0  0  0  0  0  0  0  0  0  0  0  0
   57.0340   25.1970   47.9780 O   0  0  0  0  0  0  0  0  0  0  0  0
   55.2470   23.9830   46.4430 N   0  0  0  0  0  0  0  0  0  0  0  0
   55.0620   22.5870   46.2110 C   0  0  0  0  0  0  0  0  0  0  0  0
   53.5770   22.3300   46.0680 C   0  0  0  0  0  0  0  0  0  0  0  0
   52.9130   23.3650   45.4060 O   0  0  0  0  0  0  0  0  0  0  0  0
   53.7700   24.0470   44.5420 C   0  0  0  0  0  0  0  0  0  0  0  0
   54.7190   24.8260   45.3920 C   0  0  0  0  0  0  0  0  0  0  0  0
   57.7980   26.7380   45.5340 C   0  0  0  0  0  0  0  0  0  0  0  0
   57.7110   32.5700   44.1110 S   0  0  0  0  0  0  0  0  0  0  0  0
   58.6640   33.6620   45.1710 C   0  0  0  0  0  0  0  0  0  0  0  0
   58.8940   34.9680   44.9470 N   0  0  0  0  0  0  0  0  0  0  0  0
   59.6470   35.6790   45.8010 C   0  0  0  0  0  0  0  0  0  0  0  0
   60.1430   35.0200   46.8470 N   0  0  0  0  0  0  0  0  0  0  0  0
   59.9180   33.6960   47.0790 C   0  0  0  0  0  0  0  0  0  0  0  0
   60.6270   33.1420   47.8770 N   0  0  0  0  0  0  0  0  0  0  0  0
   61.7910   33.0160   48.4070 C   0  0  0  0  0  0  0  0  0  0  0  0
   62.8640   32.3820   47.7100 C   0  0  0  0  0  0  0  0  0  0  0  0
   64.1320   32.3720   48.2050 C   0  0  0  0  0  0  0  0  0  0  0  0
   64.4510   32.9620   49.3940 C   0  0  0  0  0  0  0  0  0  0  0  0
   63.4500   33.5830   50.0980 C   0  0  0  0  0  0  0  0  0  0  0  0
   63.8740   34.3430   51.6320 Cl  0  0  0  0  0  0  0  0  0  0  0  0
   62.1650   33.6170   49.6360 C   0  0  0  0  0  0  0  0  0  0  0  0
   59.1160   32.9160   46.2260 C   0  0  0  0  0  0  0  0  0  0  0  0
   58.7909   31.1807   48.3981 H   0  0  0  0  0  0  0  0  0  0  0  0
   57.9300   29.9699   47.3884 H   0  0  0  0  0  0  0  0  0  0  0  0
   59.7254   30.0258   47.3884 H   0  0  0  0  0  0  0  0  0  0  0  0
   59.5670   29.1650   44.7480 H   0  0  0  0  0  0  0  0  0  0  0  0
   58.4544   27.5597   42.2848 H   0  0  0  0  0  0  0  0  0  0  0  0
   57.7171   25.2008   41.9891 H   0  0  0  0  0  0  0  0  0  0  0  0
   57.0369   23.8481   43.9247 H   0  0  0  0  0  0  0  0  0  0  0  0
   55.5830   22.2894   45.2890 H   0  0  0  0  0  0  0  0  0  0  0  0
   55.4724   22.0026   47.0477 H   0  0  0  0  0  0  0  0  0  0  0  0
   53.4339   21.3994   45.4993 H   0  0  0  0  0  0  0  0  0  0  0  0
   53.1531   22.2568   47.0804 H   0  0  0  0  0  0  0  0  0  0  0  0
   54.3236   23.3313   43.9164 H   0  0  0  0  0  0  0  0  0  0  0  0
   53.2046   24.7131   43.8737 H   0  0  0  0  0  0  0  0  0  0  0  0
   55.5477   25.1944   44.7694 H   0  0  0  0  0  0  0  0  0  0  0  0
   54.1859   25.6756   45.8436 H   0  0  0  0  0  0  0  0  0  0  0  0
   57.8198   27.1728   46.5442 H   0  0  0  0  0  0  0  0  0  0  0  0
   58.5050   35.4520   44.1260 H   0  0  0  0  0  0  0  0  0  0  0  0
   59.8442   36.7499   45.6452 H   0  0  0  0  0  0  0  0  0  0  0  0
   62.6606   31.8888   46.7480 H   0  0  0  0  0  0  0  0  0  0  0  0
   64.9248   31.8727   47.6286 H   0  0  0  0  0  0  0  0  0  0  0  0
   65.4819   32.9402   49.7772 H   0  0  0  0  0  0  0  0  0  0  0  0
   61.3964   34.1263   50.2358 H   0  0  0  0  0  0  0  0  0  0  0  0
  1  2  1  0
  2  3  2  0
  3  4  1  0
  4  5  2  0
  4  6  1  0
  6  7  1  0
  7  8  2  0
  8  9  1  0
  9 10  2  0
 10 11  1  0
 11 12  1  0
 12 13  2  0
 12 14  2  0
 12 15  1  0
 15 16  1  0
 16 17  1  0
 17 18  1  0
 18 19  1  0
 19 20  1  0
 11 21  2  0
  3 22  1  0
 22 23  1  0
 23 24  1  0
 24 25  1  0
 25 26  2  0
 26 27  1  0
 27 28  2  0
 28 29  1  0
 29 30  2  0
 30 31  1  0
 31 32  2  0
 32 33  1  0
 33 34  1  0
 33 35  2  0
 27 36  1  0
 36  2  1  0
 21  7  1  0
 36 23  2  0
 20 15  1  0
 35 29  1  0
  1 37  1  0
  1 38  1  0
  1 39  1  0
  6 40  1  0
  8 41  1  0
  9 42  1  0
 10 43  1  0
 16 44  1  0
 16 45  1  0
 17 46  1  0
 17 47  1  0
 19 48  1  0
 19 49  1  0
 20 50  1  0
 20 51  1  0
 21 52  1  0
 24 53  1  0
 25 54  1  0
 30 55  1  0
 31 56  1  0
 32 57  1  0
 35 58  1  0
M  END
>  <smiles>  (40) 
Cc1c(C(=O)Nc2cccc(S(=O)(=O)N3CCOCC3)c2)sc2[nH]cnc(=Nc3cccc(Cl)c3)c12

>  <score_type>  (40) 
oracle

>  <origin>  (40) 
adg

>  <m_score__min__energy>  (40) 
-10.65

>  <m_primary>  (40) 
energy

$$$$
40:0
     RDKit          3D

 21 22  0  0  0  0  0  0  0  0999 V2000
   54.4880   30.5690   44.2380 H   0  0  0  0  0  0  0  0  0  0  0  0
   55.5200   30.6620   44.1010 N   0  0  0  0  0  0  0  0  0  0  0  0
   56.3620   30.0510   44.8670 C   0  0  0  0  0  0  0  0  0  0  0  0
   56.3390   28.6970   44.9680 N   0  0  0  0  0  0  0  0  0  0  0  0
   57.2170   28.0300   45.7650 C   0  0  0  0  0  0  0  0  0  0  0  0
   57.1410   26.5580   45.8280 C   0  0  0  0  0  0  0  0  0  0  0  0
   55.9130   25.9280   46.1050 C   0  0  0  0  0  0  0  0  0  0  0  0
   54.7680   26.6830   46.3450 O   0  0  0  0  0  0  0  0  0  0  0  0
   55.8340   24.5320   46.1500 C   0  0  0  0  0  0  0  0  0  0  0  0
   54.8735   24.0436   46.3710 H   0  0  0  0  0  0  0  0  0  0  0  0
   56.9720   23.7570   45.9150 C   0  0  0  0  0  0  0  0  0  0  0  0
   56.9078   22.6597   45.9575 H   0  0  0  0  0  0  0  0  0  0  0  0
   58.1920   24.3740   45.6260 C   0  0  0  0  0  0  0  0  0  0  0  0
   59.0859   23.7608   45.4388 H   0  0  0  0  0  0  0  0  0  0  0  0
   58.2800   25.7690   45.5740 C   0  0  0  0  0  0  0  0  0  0  0  0
   59.4960   26.3630   45.2570 O   0  0  0  0  0  0  0  0  0  0  0  0
   58.1610   28.7580   46.5150 C   0  0  0  0  0  0  0  0  0  0  0  0
   59.3770   27.8960   47.7310 Br  0  0  0  0  0  0  0  0  0  0  0  0
   58.1650   30.1530   46.3930 C   0  0  0  0  0  0  0  0  0  0  0  0
   58.9910   30.8480   47.0420 O   0  0  0  0  0  0  0  0  0  0  0  0
   57.2720   30.7670   45.5750 N   0  0  0  0  0  0  0  0  0  0  0  0
  1  2  1  0
  2  3  2  0
  3  4  1  0
  4  5  1  0
  5  6  1  0
  6  7  2  0
  7  8  1  0
  7  9  1  0
  9 10  1  0
  9 11  2  0
 11 12  1  0
 11 13  1  0
 13 14  1  0
 13 15  2  0
 15 16  1  0
  5 17  2  0
 17 18  1  0
 17 19  1  0
 19 20  2  0
 19 21  1  0
 21  3  1  0
 15  6  1  0
M  CHG  4   4  -1   8  -1  16  -1  21  -1
M  END
>  <UniqueID>  (41) 
39

>  <SMILES>  (41) 
[H]/N=c1\[n-]c(-c2c([O-])cccc2[O-])c(Br)c(=O)[n-]1

>  <Energy>  (41) 
32.39859629440622

>  <Genealogy>  (41) 
N=c1[n-]c(-c2c([O-])cccc2[O-])c(Br)c(=O)[n-]1 (protonated)
[H]/N=c1\[n-]c(-c2c([O-])cccc2[O-])c(Br)c(=O)[n-]1 (cis-trans isomerization)
[H]/N=c1\[n-]c(-c2c([O-])cccc2[O-])c(Br)c(=O)[n-]1 (3D coordinates assigned)
[H]/N=c1\[n-]c(-c2c([O-])cccc2[O-])c(Br)c(=O)[n-]1 (optimized conformer: 32.39859629440622 kcal/mol)

>  <smiles>  (41) 
N=c1[nH]c(-c2c(O)cccc2O)c(Br)c(=O)[nH]1

>  <score_type>  (41) 
oracle

>  <origin>  (41) 
adg

>  <m_score__min__energy>  (41) 
-13.81

>  <m_primary>  (41) 
energy

$$$$
41:0
     RDKit          3D

 70 73  0  0  0  0  0  0  0  0999 V2000
   59.2140   34.4800   44.8480 C   0  0  0  0  0  0  0  0  0  0  0  0
   58.8820   34.7450   46.3110 C   0  0  0  0  0  0  0  0  0  0  0  0
   59.1210   33.5820   47.1050 O   0  0  0  0  0  0  0  0  0  0  0  0
   59.1150   32.2510   46.6520 C   0  0  0  0  0  0  0  0  0  0  0  0
   57.9590   31.6660   46.0950 C   0  0  0  0  0  0  0  0  0  0  0  0
   57.9480   30.3190   45.7060 C   0  0  0  0  0  0  0  0  0  0  0  0
   56.7190   29.6720   45.1950 C   0  0  0  0  0  0  0  0  0  0  0  0
   55.8390   30.3870   44.6450 O   0  0  0  0  0  0  0  0  0  0  0  0
   56.5120   28.2540   45.2360 N   0  0  0  0  0  0  0  0  0  0  0  0
   57.4580   27.2250   44.8090 C   0  0  0  0  0  0  0  0  0  0  0  0
   57.6150   26.1650   45.9020 C   0  0  0  0  0  0  0  0  0  0  0  0
   56.7280   24.9750   45.6300 C   0  0  0  0  0  0  0  0  0  0  0  0
   57.3160   23.7360   45.3200 C   0  0  0  0  0  0  0  0  0  0  0  0
   56.5170   22.6340   45.0020 C   0  0  0  0  0  0  0  0  0  0  0  0
   55.1260   22.7600   44.9820 C   0  0  0  0  0  0  0  0  0  0  0  0
   54.5300   23.9880   45.2780 C   0  0  0  0  0  0  0  0  0  0  0  0
   55.3240   25.1010   45.5980 C   0  0  0  0  0  0  0  0  0  0  0  0
   54.7190   26.3280   45.8740 O   0  0  0  0  0  0  0  0  0  0  0  0
   59.1330   29.5790   45.7820 C   0  0  0  0  0  0  0  0  0  0  0  0
   60.2940   30.1550   46.2940 C   0  0  0  0  0  0  0  0  0  0  0  0
   60.2980   31.4800   46.7620 C   0  0  0  0  0  0  0  0  0  0  0  0
   61.4980   32.0250   47.3650 N   0  0  0  0  0  0  0  0  0  0  0  0
   62.1760   33.1790   46.7490 C   0  0  0  0  0  0  0  0  0  0  0  0
   63.1840   33.8840   47.6940 C   0  0  0  0  0  0  0  0  0  0  0  0
   62.6440   34.2590   49.0940 C   0  0  0  0  0  0  0  0  0  0  0  0
   61.6950   33.2810   49.6680 N   0  0  0  0  0  0  0  0  0  0  0  0
   60.3140   33.6640   49.8660 C   0  0  0  0  0  0  0  0  0  0  0  0
   59.9130   34.8020   49.4920 O   0  0  0  0  0  0  0  0  0  0  0  0
   59.3450   32.7650   50.5220 C   0  0  0  0  0  0  0  0  0  0  0  0
   59.2650   31.4270   50.1000 C   0  0  0  0  0  0  0  0  0  0  0  0
   58.3260   30.5620   50.6660 C   0  0  0  0  0  0  0  0  0  0  0  0
   57.4560   31.0250   51.6560 C   0  0  0  0  0  0  0  0  0  0  0  0
   57.5310   32.3500   52.0900 C   0  0  0  0  0  0  0  0  0  0  0  0
   58.4740   33.2310   51.5350 C   0  0  0  0  0  0  0  0  0  0  0  0
   58.5640   34.5680   52.0470 N   0  0  0  0  0  0  0  0  0  0  0  0
   62.0550   31.8600   49.7850 C   0  0  0  0  0  0  0  0  0  0  0  0
   62.2080   31.2430   48.3960 C   0  0  0  0  0  0  0  0  0  0  0  0
   60.0723   33.7949   44.7851 H   0  0  0  0  0  0  0  0  0  0  0  0
   58.3444   34.0249   44.3513 H   0  0  0  0  0  0  0  0  0  0  0  0
   59.4650   35.4288   44.3513 H   0  0  0  0  0  0  0  0  0  0  0  0
   59.5108   35.5687   46.6798 H   0  0  0  0  0  0  0  0  0  0  0  0
   57.8175   35.0113   46.3879 H   0  0  0  0  0  0  0  0  0  0  0  0
   57.0527   32.2754   45.9638 H   0  0  0  0  0  0  0  0  0  0  0  0
   57.0855   26.7476   43.8907 H   0  0  0  0  0  0  0  0  0  0  0  0
   58.4355   27.6925   44.6193 H   0  0  0  0  0  0  0  0  0  0  0  0
   58.6632   25.8330   45.9337 H   0  0  0  0  0  0  0  0  0  0  0  0
   57.3228   26.6080   46.8655 H   0  0  0  0  0  0  0  0  0  0  0  0
   58.4112   23.6333   45.3278 H   0  0  0  0  0  0  0  0  0  0  0  0
   56.9843   21.6663   44.7672 H   0  0  0  0  0  0  0  0  0  0  0  0
   54.4992   21.8911   44.7328 H   0  0  0  0  0  0  0  0  0  0  0  0
   53.4343   24.0836   45.2604 H   0  0  0  0  0  0  0  0  0  0  0  0
   54.7540   27.0960   45.2140 H   0  0  0  0  0  0  0  0  0  0  0  0
   59.1483   28.5352   45.4352 H   0  0  0  0  0  0  0  0  0  0  0  0
   61.2209   29.5639   46.3324 H   0  0  0  0  0  0  0  0  0  0  0  0
   62.7199   32.8286   45.8594 H   0  0  0  0  0  0  0  0  0  0  0  0
   61.3976   33.9154   46.5003 H   0  0  0  0  0  0  0  0  0  0  0  0
   64.0437   33.2119   47.8326 H   0  0  0  0  0  0  0  0  0  0  0  0
   63.4357   34.8369   47.2055 H   0  0  0  0  0  0  0  0  0  0  0  0
   63.4998   34.3500   49.7791 H   0  0  0  0  0  0  0  0  0  0  0  0
   62.0877   35.2002   48.9727 H   0  0  0  0  0  0  0  0  0  0  0  0
   59.9463   31.0586   49.3189 H   0  0  0  0  0  0  0  0  0  0  0  0
   58.2714   29.5154   50.3320 H   0  0  0  0  0  0  0  0  0  0  0  0
   56.7108   30.3448   52.0943 H   0  0  0  0  0  0  0  0  0  0  0  0
   56.8459   32.7070   52.8731 H   0  0  0  0  0  0  0  0  0  0  0  0
   58.5250   34.7440   53.0730 H   0  0  0  0  0  0  0  0  0  0  0  0
   58.8360   35.3760   51.4410 H   0  0  0  0  0  0  0  0  0  0  0  0
   63.0058   31.7690   50.3306 H   0  0  0  0  0  0  0  0  0  0  0  0
   61.2597   31.3300   50.3296 H   0  0  0  0  0  0  0  0  0  0  0  0
   63.2770   31.2046   48.1397 H   0  0  0  0  0  0  0  0  0  0  0  0
   61.7696   30.2344   48.4209 H   0  0  0  0  0  0  0  0  0  0  0  0
  1  2  1  0
  2  3  1  0
  3  4  1  0
  4  5  2  0
  5  6  1  0
  6  7  1  0
  7  8  2  0
  7  9  1  0
  9 10  1  0
 10 11  1  0
 11 12  1  0
 12 13  2  0
 13 14  1  0
 14 15  2  0
 15 16  1  0
 16 17  2  0
 17 18  1  0
  6 19  2  0
 19 20  1  0
 20 21  2  0
 21 22  1  0
 22 23  1  0
 23 24  1  0
 24 25  1  0
 25 26  1  0
 26 27  1  0
 27 28  2  0
 27 29  1  0
 29 30  2  0
 30 31  1  0
 31 32  2  0
 32 33  1  0
 33 34  2  0
 34 35  1  0
 26 36  1  0
 36 37  1  0
 21  4  1  0
 37 22  1  0
 17 12  1  0
 34 29  1  0
  1 38  1  0
  1 39  1  0
  1 40  1  0
  2 41  1  0
  2 42  1  0
  5 43  1  0
 10 44  1  0
 10 45  1  0
 11 46  1  0
 11 47  1  0
 13 48  1  0
 14 49  1  0
 15 50  1  0
 16 51  1  0
 18 52  1  0
 19 53  1  0
 20 54  1  0
 23 55  1  0
 23 56  1  0
 24 57  1  0
 24 58  1  0
 25 59  1  0
 25 60  1  0
 30 61  1  0
 31 62  1  0
 32 63  1  0
 33 64  1  0
 35 65  1  0
 35 66  1  0
 36 67  1  0
 36 68  1  0
 37 69  1  0
 37 70  1  0
M  CHG  1   9  -1
M  END
>  <UniqueID>  (42) 
40

>  <SMILES>  (42) 
CCOc1cc(C(=O)[N-]CCc2ccccc2O)ccc1N1CCCN(C(=O)c2ccccc2N)CC1

>  <Energy>  (42) 
87.49718390521699

>  <Genealogy>  (42) 
CCOc1cc(C(=O)[N-]CCc2ccccc2O)ccc1N1CCCN(C(=O)c2ccccc2N)CC1 (protonated)
CCOc1cc(C(=O)[N-]CCc2ccccc2O)ccc1N1CCCN(C(=O)c2ccccc2N)CC1 (3D coordinates assigned)
CCOc1cc(C(=O)[N-]CCc2ccccc2O)ccc1N1CCCN(C(=O)c2ccccc2N)CC1 (nonaromatic ring conformer: 87.49718390521699 kcal/mol)

>  <smiles>  (42) 
CCOc1cc(C(=O)NCCc2ccccc2O)ccc1N1CCCN(C(=O)c2ccccc2N)CC1

>  <score_type>  (42) 
oracle

>  <origin>  (42) 
adg

>  <m_score__min__energy>  (42) 
-10.199999999999999

>  <m_primary>  (42) 
energy

$$$$
42:0
     RDKit          3D

 56 58  0  0  0  0  0  0  0  0999 V2000
   58.9680   33.6250   51.9200 C   0  0  0  0  0  0  0  0  0  0  0  0
   57.7530   32.7430   51.6460 C   0  0  0  0  0  0  0  0  0  0  0  0
   58.0790   31.6620   50.7070 N   0  0  0  0  0  0  0  0  0  0  0  0
   58.6010   31.8350   49.4720 C   0  0  0  0  0  0  0  0  0  0  0  0
   58.9920   30.6110   48.9650 C   0  0  0  0  0  0  0  0  0  0  0  0
   59.6660   30.3670   47.7260 N   0  0  0  0  0  0  0  0  0  0  0  0
   60.3080   31.3720   46.9310 C   0  0  0  0  0  0  0  0  0  0  0  0
   61.5640   31.3670   46.8180 O   0  0  0  0  0  0  0  0  0  0  0  0
   59.5050   32.4640   46.3220 C   0  0  0  0  0  0  0  0  0  0  0  0
   59.8610   33.7970   46.6070 C   0  0  0  0  0  0  0  0  0  0  0  0
   59.1990   34.8590   45.9920 C   0  0  0  0  0  0  0  0  0  0  0  0
   58.1780   34.6130   45.0780 C   0  0  0  0  0  0  0  0  0  0  0  0
   57.7940   33.3030   44.7950 C   0  0  0  0  0  0  0  0  0  0  0  0
   58.4310   32.2190   45.4220 C   0  0  0  0  0  0  0  0  0  0  0  0
   57.9090   30.8640   45.1490 C   0  0  0  0  0  0  0  0  0  0  0  0
   56.6900   30.7160   44.8580 O   0  0  0  0  0  0  0  0  0  0  0  0
   58.7650   29.7170   45.2590 N   0  0  0  0  0  0  0  0  0  0  0  0
   58.3100   28.3820   44.8980 C   0  0  0  0  0  0  0  0  0  0  0  0
   58.7450   29.6580   49.9260 C   0  0  0  0  0  0  0  0  0  0  0  0
   58.1680   30.3370   50.9840 C   0  0  0  0  0  0  0  0  0  0  0  0
   57.7950   29.7070   52.2620 C   0  0  0  0  0  0  0  0  0  0  0  0
   58.5500   29.8520   53.2600 O   0  0  0  0  0  0  0  0  0  0  0  0
   56.6230   28.8960   52.3870 N   0  0  0  0  0  0  0  0  0  0  0  0
   55.6140   29.0890   53.4210 C   0  0  0  0  0  0  0  0  0  0  0  0
   54.4280   29.8190   52.8450 C   0  0  0  0  0  0  0  0  0  0  0  0
   54.6400   30.8660   51.9350 C   0  0  0  0  0  0  0  0  0  0  0  0
   53.5610   31.5680   51.3930 C   0  0  0  0  0  0  0  0  0  0  0  0
   52.2430   31.2290   51.7390 C   0  0  0  0  0  0  0  0  0  0  0  0
   51.1000   31.9900   51.1810 C   0  0  0  0  0  0  0  0  0  0  0  0
   50.2070   32.6960   52.0400 N   0  0  0  0  0  0  0  0  0  0  0  0
   50.8950   32.0040   49.9370 O   0  0  0  0  0  0  0  0  0  0  0  0
   52.0250   30.1660   52.6320 C   0  0  0  0  0  0  0  0  0  0  0  0
   53.1030   29.4580   53.1800 C   0  0  0  0  0  0  0  0  0  0  0  0
   52.8280   28.3670   54.0850 C   0  0  0  0  0  0  0  0  0  0  0  0
   52.6060   27.4910   54.8090 N   0  0  0  0  0  0  0  0  0  0  0  0
   59.1092   33.7275   53.0061 H   0  0  0  0  0  0  0  0  0  0  0  0
   59.8629   33.1648   51.4757 H   0  0  0  0  0  0  0  0  0  0  0  0
   58.8076   34.6184   51.4757 H   0  0  0  0  0  0  0  0  0  0  0  0
   57.4088   32.3029   52.5935 H   0  0  0  0  0  0  0  0  0  0  0  0
   56.9655   33.3665   51.1976 H   0  0  0  0  0  0  0  0  0  0  0  0
   58.6990   32.7995   48.9522 H   0  0  0  0  0  0  0  0  0  0  0  0
   60.6705   34.0024   47.3229 H   0  0  0  0  0  0  0  0  0  0  0  0
   59.4843   35.8944   46.2297 H   0  0  0  0  0  0  0  0  0  0  0  0
   57.6737   35.4533   44.5785 H   0  0  0  0  0  0  0  0  0  0  0  0
   56.9846   33.1163   44.0739 H   0  0  0  0  0  0  0  0  0  0  0  0
   59.7430   29.8370   45.6080 H   0  0  0  0  0  0  0  0  0  0  0  0
   58.1125   27.8024   45.8118 H   0  0  0  0  0  0  0  0  0  0  0  0
   57.3868   28.4572   44.3047 H   0  0  0  0  0  0  0  0  0  0  0  0
   59.0870   27.8777   44.3047 H   0  0  0  0  0  0  0  0  0  0  0  0
   58.9612   28.5811   49.8656 H   0  0  0  0  0  0  0  0  0  0  0  0
   55.2901   28.1096   53.8029 H   0  0  0  0  0  0  0  0  0  0  0  0
   56.0430   29.6826   54.2417 H   0  0  0  0  0  0  0  0  0  0  0  0
   55.6662   31.1365   51.6457 H   0  0  0  0  0  0  0  0  0  0  0  0
   53.7452   32.3932   50.6893 H   0  0  0  0  0  0  0  0  0  0  0  0
   50.1290   33.7350   51.9960 H   0  0  0  0  0  0  0  0  0  0  0  0
   50.9964   29.8865   52.9039 H   0  0  0  0  0  0  0  0  0  0  0  0
  1  2  1  0
  2  3  1  0
  3  4  1  0
  4  5  2  0
  5  6  1  0
  6  7  1  0
  7  8  2  0
  7  9  1  0
  9 10  2  0
 10 11  1  0
 11 12  2  0
 12 13  1  0
 13 14  2  0
 14 15  1  0
 15 16  2  0
 15 17  1  0
 17 18  1  0
  5 19  1  0
 19 20  2  0
 20 21  1  0
 21 22  2  0
 21 23  1  0
 23 24  1  0
 24 25  1  0
 25 26  2  0
 26 27  1  0
 27 28  2  0
 28 29  1  0
 29 30  1  0
 29 31  2  0
 28 32  1  0
 32 33  2  0
 33 34  1  0
 34 35  3  0
 20  3  1  0
 33 25  1  0
 14  9  1  0
  1 36  1  0
  1 37  1  0
  1 38  1  0
  2 39  1  0
  2 40  1  0
  4 41  1  0
 10 42  1  0
 11 43  1  0
 12 44  1  0
 13 45  1  0
 17 46  1  0
 18 47  1  0
 18 48  1  0
 18 49  1  0
 19 50  1  0
 24 51  1  0
 24 52  1  0
 26 53  1  0
 27 54  1  0
 30 55  1  0
 32 56  1  0
M  CHG  3   6  -1  23  -1  30  -1
M  END
>  <UniqueID>  (43) 
41

>  <SMILES>  (43) 
CCn1cc([N-]C(=O)c2ccccc2C(=O)NC)cc1C(=O)[N-]Cc1ccc(C([NH-])=O)cc1C#N

>  <Energy>  (43) 
95.11373215898418

>  <Genealogy>  (43) 
CCn1cc([N-]C(=O)c2ccccc2C(=O)NC)cc1C(=O)[N-]Cc1ccc(C([NH-])=O)cc1C#N (protonated)
CCn1cc([N-]C(=O)c2ccccc2C(=O)NC)cc1C(=O)[N-]Cc1ccc(C([NH-])=O)cc1C#N (3D coordinates assigned)
CCn1cc([N-]C(=O)c2ccccc2C(=O)NC)cc1C(=O)[N-]Cc1ccc(C([NH-])=O)cc1C#N (optimized conformer: 95.11373215898418 kcal/mol)

>  <smiles>  (43) 
CCn1cc(NC(=O)c2ccccc2C(=O)NC)cc1C(=O)NCc1ccc(C(N)=O)cc1C#N

>  <score_type>  (43) 
oracle

>  <origin>  (43) 
adg

>  <m_score__min__energy>  (43) 
-14.92

>  <m_primary>  (43) 
energy

$$$$
43:0
     RDKit          3D

 44 46  0  0  0  0  0  0  0  0999 V2000
   58.8395   29.1076   48.1395 H   0  0  0  0  0  0  0  0  0  0  0  0
   58.6140   28.3810   47.3450 C   0  0  0  0  0  0  0  0  0  0  0  0
   58.7871   27.3082   47.5155 H   0  0  0  0  0  0  0  0  0  0  0  0
   58.1270   28.8040   46.1660 C   0  0  0  0  0  0  0  0  0  0  0  0
   57.7970   27.9920   45.0710 C   0  0  0  0  0  0  0  0  0  0  0  0
   57.9060   26.6470   44.9990 C   0  0  0  0  0  0  0  0  0  0  0  0
   58.5358   26.2393   44.1945 H   0  0  0  0  0  0  0  0  0  0  0  0
   57.2560   25.6720   45.9030 C   0  0  0  0  0  0  0  0  0  0  0  0
   57.8380   24.5950   46.4610 N   0  0  0  0  0  0  0  0  0  0  0  0
   56.8550   24.0540   47.2120 C   0  0  0  0  0  0  0  0  0  0  0  0
   57.0200   23.0080   47.8930 O   0  0  0  0  0  0  0  0  0  0  0  0
   55.6820   24.7200   47.1710 N   0  0  0  0  0  0  0  0  0  0  0  0
   55.9540   25.7400   46.3420 C   0  0  0  0  0  0  0  0  0  0  0  0
   55.0290   26.7160   45.9940 O   0  0  0  0  0  0  0  0  0  0  0  0
   57.3560   28.8530   44.0750 C   0  0  0  0  0  0  0  0  0  0  0  0
   57.0071   28.5696   43.0710 H   0  0  0  0  0  0  0  0  0  0  0  0
   57.4390   30.1310   44.5850 C   0  0  0  0  0  0  0  0  0  0  0  0
   57.0480   31.3680   43.8310 C   0  0  0  0  0  0  0  0  0  0  0  0
   56.7954   32.1672   44.5434 H   0  0  0  0  0  0  0  0  0  0  0  0
   57.8874   31.6925   43.1984 H   0  0  0  0  0  0  0  0  0  0  0  0
   56.1746   31.1511   43.1984 H   0  0  0  0  0  0  0  0  0  0  0  0
   57.8960   30.1090   45.8590 N   0  0  0  0  0  0  0  0  0  0  0  0
   58.1720   31.2960   46.6860 C   0  0  0  0  0  0  0  0  0  0  0  0
   57.2680   31.9210   46.7326 H   0  0  0  0  0  0  0  0  0  0  0  0
   58.4606   30.9635   47.6940 H   0  0  0  0  0  0  0  0  0  0  0  0
   59.3190   32.1170   46.0940 C   0  0  0  0  0  0  0  0  0  0  0  0
   60.1417   32.1706   46.8222 H   0  0  0  0  0  0  0  0  0  0  0  0
   59.6681   31.6335   45.1697 H   0  0  0  0  0  0  0  0  0  0  0  0
   58.8580   33.4760   45.7810 N   0  0  0  0  0  0  0  0  0  0  0  0
   59.0330   33.6650   44.7670 H   0  0  0  0  0  0  0  0  0  0  0  0
   59.7360   34.6690   46.6920 S   0  0  0  0  0  0  0  0  0  0  0  0
   60.0040   35.8820   45.8440 O   0  0  0  0  0  0  0  0  0  0  0  0
   58.9090   35.0930   47.8730 O   0  0  0  0  0  0  0  0  0  0  0  0
   61.2500   33.9670   47.2730 C   0  0  0  0  0  0  0  0  0  0  0  0
   62.3310   33.8450   46.3880 C   0  0  0  0  0  0  0  0  0  0  0  0
   62.2233   34.1733   45.3437 H   0  0  0  0  0  0  0  0  0  0  0  0
   63.5450   33.3080   46.8270 C   0  0  0  0  0  0  0  0  0  0  0  0
   64.3847   33.2023   46.1244 H   0  0  0  0  0  0  0  0  0  0  0  0
   63.6930   32.9060   48.1550 C   0  0  0  0  0  0  0  0  0  0  0  0
   64.6515   32.4916   48.5007 H   0  0  0  0  0  0  0  0  0  0  0  0
   62.6230   33.0300   49.0460 C   0  0  0  0  0  0  0  0  0  0  0  0
   62.7413   32.7141   50.0930 H   0  0  0  0  0  0  0  0  0  0  0  0
   61.4020   33.5550   48.6090 C   0  0  0  0  0  0  0  0  0  0  0  0
   60.3800   33.6630   49.4950 F   0  0  0  0  0  0  0  0  0  0  0  0
  1  2  1  0
  2  3  1  0
  2  4  2  0
  4  5  1  0
  5  6  2  0
  6  7  1  0
  6  8  1  0
  8  9  1  0
  9 10  1  0
 10 11  2  0
 10 12  1  0
 12 13  1  0
 13 14  1  0
  5 15  1  0
 15 16  1  0
 15 17  2  0
 17 18  1  0
 18 19  1  0
 18 20  1  0
 18 21  1  0
 17 22  1  0
 22 23  1  0
 23 24  1  0
 23 25  1  0
 23 26  1  0
 26 27  1  0
 26 28  1  0
 26 29  1  0
 29 30  1  0
 29 31  1  0
 31 32  2  0
 31 33  2  0
 31 34  1  0
 34 35  2  0
 35 36  1  0
 35 37  1  0
 37 38  1  0
 37 39  2  0
 39 40  1  0
 39 41  1  0
 41 42  1  0
 41 43  2  0
 43 44  1  0
 22  4  1  0
 43 34  1  0
 13  8  2  0
M  CHG  3   9  -1  12  -1  14  -1
M  END
>  <UniqueID>  (44) 
42

>  <SMILES>  (44) 
C=c1/c(=C/c2[n-]c(=O)[n-]c2[O-])cc(C)n1CCNS(=O)(=O)c1ccccc1F

>  <Energy>  (44) 
99.72159444893926

>  <Genealogy>  (44) 
C=c1c(=Cc2[n-]c(=O)[n-]c2[O-])cc(C)n1CCNS(=O)(=O)c1ccccc1F (protonated)
C=c1/c(=C/c2[n-]c(=O)[n-]c2[O-])cc(C)n1CCNS(=O)(=O)c1ccccc1F (cis-trans isomerization)
C=c1/c(=C/c2[n-]c(=O)[n-]c2[O-])cc(C)n1CCNS(=O)(=O)c1ccccc1F (3D coordinates assigned)
C=c1/c(=C/c2[n-]c(=O)[n-]c2[O-])cc(C)n1CCNS(=O)(=O)c1ccccc1F (optimized conformer: 99.72159444893926 kcal/mol)

>  <smiles>  (44) 
C=c1c(=Cc2[nH]c(=O)[nH]c2O)cc(C)n1CCNS(=O)(=O)c1ccccc1F

>  <score_type>  (44) 
oracle

>  <origin>  (44) 
adg

>  <m_score__min__energy>  (44) 
-16.289999999999999

>  <m_primary>  (44) 
energy

$$$$
44:0
     RDKit          3D

 46 48  0  0  0  0  0  0  0  0999 V2000
   55.1400   29.3190   44.8150 N   0  0  0  0  0  0  0  0  0  0  0  0
   56.6820   30.0310   44.4960 S   0  0  0  0  0  0  0  0  0  0  0  0
   56.9950   29.9150   43.0300 O   0  0  0  0  0  0  0  0  0  0  0  0
   56.6470   31.4860   44.8680 O   0  0  0  0  0  0  0  0  0  0  0  0
   57.9180   29.2030   45.4380 C   0  0  0  0  0  0  0  0  0  0  0  0
   57.9870   27.8040   45.4320 C   0  0  0  0  0  0  0  0  0  0  0  0
   58.9580   27.1480   46.1900 C   0  0  0  0  0  0  0  0  0  0  0  0
   59.8660   27.8810   46.9580 C   0  0  0  0  0  0  0  0  0  0  0  0
   59.8140   29.2870   46.9730 C   0  0  0  0  0  0  0  0  0  0  0  0
   60.7650   30.0820   47.7860 C   0  0  0  0  0  0  0  0  0  0  0  0
   60.6390   30.0980   49.0400 O   0  0  0  0  0  0  0  0  0  0  0  0
   61.8090   30.8530   47.1660 N   0  0  0  0  0  0  0  0  0  0  0  0
   62.7740   31.6310   47.9420 C   0  0  0  0  0  0  0  0  0  0  0  0
   62.8020   33.0580   47.4700 C   0  0  0  0  0  0  0  0  0  0  0  0
   63.3500   33.3260   46.3680 O   0  0  0  0  0  0  0  0  0  0  0  0
   62.2760   34.1340   48.2580 N   0  0  0  0  0  0  0  0  0  0  0  0
   60.9210   34.2140   48.8020 C   0  0  2  0  0  0  0  0  0  0  0  0
   60.7520   33.1370   49.8880 C   0  0  0  0  0  0  0  0  0  0  0  0
   59.2820   32.9760   50.2700 C   0  0  0  0  0  0  0  0  0  0  0  0
   58.4800   32.4730   49.0680 C   0  0  0  0  0  0  0  0  0  0  0  0
   58.7300   33.3010   47.8300 C   0  0  0  0  0  0  0  0  0  0  0  0
   57.7990   33.2410   46.7790 C   0  0  0  0  0  0  0  0  0  0  0  0
   58.0050   33.9730   45.6090 C   0  0  0  0  0  0  0  0  0  0  0  0
   59.1410   34.7710   45.4740 C   0  0  0  0  0  0  0  0  0  0  0  0
   60.0830   34.8280   46.5020 C   0  0  0  0  0  0  0  0  0  0  0  0
   59.9100   34.0720   47.6780 C   0  0  0  0  0  0  0  0  0  0  0  0
   58.8230   29.9400   46.2160 C   0  0  0  0  0  0  0  0  0  0  0  0
   55.2530   28.7130   45.6590 H   0  0  0  0  0  0  0  0  0  0  0  0
   57.2749   27.2216   44.8290 H   0  0  0  0  0  0  0  0  0  0  0  0
   59.0086   26.0492   46.1827 H   0  0  0  0  0  0  0  0  0  0  0  0
   60.6263   27.3557   47.5547 H   0  0  0  0  0  0  0  0  0  0  0  0
   61.8790   30.8920   46.1260 H   0  0  0  0  0  0  0  0  0  0  0  0
   62.4881   31.6066   49.0039 H   0  0  0  0  0  0  0  0  0  0  0  0
   63.7739   31.1926   47.8080 H   0  0  0  0  0  0  0  0  0  0  0  0
   60.7467   35.1934   49.2714 H   0  0  0  0  0  0  0  0  0  0  0  0
   61.1324   32.1779   49.5067 H   0  0  0  0  0  0  0  0  0  0  0  0
   61.3159   33.4457   50.7806 H   0  0  0  0  0  0  0  0  0  0  0  0
   59.1970   32.2515   51.0933 H   0  0  0  0  0  0  0  0  0  0  0  0
   58.8830   33.9507   50.5874 H   0  0  0  0  0  0  0  0  0  0  0  0
   58.7666   31.4313   48.8615 H   0  0  0  0  0  0  0  0  0  0  0  0
   57.4116   32.5517   49.3175 H   0  0  0  0  0  0  0  0  0  0  0  0
   56.9017   32.6127   46.8793 H   0  0  0  0  0  0  0  0  0  0  0  0
   57.2704   33.9206   44.7919 H   0  0  0  0  0  0  0  0  0  0  0  0
   59.2946   35.3565   44.5555 H   0  0  0  0  0  0  0  0  0  0  0  0
   60.9697   35.4698   46.3929 H   0  0  0  0  0  0  0  0  0  0  0  0
   58.7577   31.0379   46.2347 H   0  0  0  0  0  0  0  0  0  0  0  0
  1  2  1  0
  2  3  2  0
  2  4  2  0
  2  5  1  0
  5  6  2  0
  6  7  1  0
  7  8  2  0
  8  9  1  0
  9 10  1  0
 10 11  2  0
 10 12  1  0
 12 13  1  0
 13 14  1  0
 14 15  2  0
 14 16  1  0
 16 17  1  0
 17 18  1  0
 18 19  1  0
 19 20  1  0
 20 21  1  0
 21 22  2  0
 22 23  1  0
 23 24  2  0
 24 25  1  0
 25 26  2  0
  9 27  2  0
 27  5  1  0
 26 17  1  0
 26 21  1  0
  1 28  1  0
  6 29  1  0
  7 30  1  0
  8 31  1  0
 12 32  1  0
 13 33  1  0
 13 34  1  0
 17 35  1  1
 18 36  1  0
 18 37  1  0
 19 38  1  0
 19 39  1  0
 20 40  1  0
 20 41  1  0
 22 42  1  0
 23 43  1  0
 24 44  1  0
 25 45  1  0
 27 46  1  0
M  CHG  2   1  -1  16  -1
M  END
>  <UniqueID>  (45) 
43

>  <SMILES>  (45) 
[NH-]S(=O)(=O)c1cccc(C(=O)NCC(=O)[N-][C@@H]2CCCc3ccccc32)c1

>  <Energy>  (45) 
46.51277894271727

>  <Genealogy>  (45) 
[NH-]S(=O)(=O)c1cccc(C(=O)NCC(=O)[N-]C2CCCc3ccccc32)c1 (protonated)
[NH-]S(=O)(=O)c1cccc(C(=O)NCC(=O)[N-][C@@H]2CCCc3ccccc32)c1 (chirality)
[NH-]S(=O)(=O)c1cccc(C(=O)NCC(=O)[N-][C@@H]2CCCc3ccccc32)c1 (3D coordinates assigned)
[NH-]S(=O)(=O)c1cccc(C(=O)NCC(=O)[N-][C@@H]2CCCc3ccccc32)c1 (nonaromatic ring conformer: 46.51277894271727 kcal/mol)

>  <smiles>  (45) 
NS(=O)(=O)c1cccc(C(=O)NCC(=O)NC2CCCc3ccccc32)c1

>  <score_type>  (45) 
oracle

>  <origin>  (45) 
adg

>  <m_score__min__energy>  (45) 
-13.42

>  <m_primary>  (45) 
energy

$$$$
45:0
     RDKit          3D

 55 58  0  0  0  0  0  0  0  0999 V2000
   62.4550   30.5390   53.0090 C   0  0  0  0  0  0  0  0  0  0  0  0
   63.1060   29.9660   51.8170 N   0  0  0  0  0  0  0  0  0  0  0  0
   62.2500   30.0670   50.6180 C   0  0  0  0  0  0  0  0  0  0  0  0
   62.1140   31.5180   50.1060 C   0  0  0  0  0  0  0  0  0  0  0  0
   63.1970   32.3910   50.5990 N   0  0  0  0  0  0  0  0  0  0  0  0
   63.2940   33.8350   49.6230 S   0  0  0  0  0  0  0  0  0  0  0  0
   64.5370   33.8060   48.7760 O   0  0  0  0  0  0  0  0  0  0  0  0
   63.3490   35.0450   50.5120 O   0  0  0  0  0  0  0  0  0  0  0  0
   61.8690   33.9510   48.5930 C   0  0  0  0  0  0  0  0  0  0  0  0
   61.9770   33.7810   47.2060 C   0  0  0  0  0  0  0  0  0  0  0  0
   60.8370   33.8410   46.3990 C   0  0  0  0  0  0  0  0  0  0  0  0
   59.5760   34.0710   46.9710 C   0  0  0  0  0  0  0  0  0  0  0  0
   58.3390   34.1030   46.1150 C   0  0  0  0  0  0  0  0  0  0  0  0
   57.7230   32.7790   46.0680 N   0  0  0  0  0  0  0  0  0  0  0  0
   57.4890   32.0820   44.8350 C   0  0  0  0  0  0  0  0  0  0  0  0
   57.7330   32.6450   43.7340 O   0  0  0  0  0  0  0  0  0  0  0  0
   56.9690   30.7060   44.8470 C   0  0  0  0  0  0  0  0  0  0  0  0
   55.7480   30.2940   44.3670 C   0  0  0  0  0  0  0  0  0  0  0  0
   55.6350   28.9670   44.5460 N   0  0  0  0  0  0  0  0  0  0  0  0
   56.7990   28.6080   45.1350 C   0  0  0  0  0  0  0  0  0  0  0  0
   57.1140   27.2090   45.5210 C   0  0  0  0  0  0  0  0  0  0  0  0
   58.4490   26.7590   45.4650 C   0  0  0  0  0  0  0  0  0  0  0  0
   58.7730   25.4470   45.8220 C   0  0  0  0  0  0  0  0  0  0  0  0
   57.7730   24.5670   46.2380 C   0  0  0  0  0  0  0  0  0  0  0  0
   56.4470   24.9960   46.2990 C   0  0  0  0  0  0  0  0  0  0  0  0
   56.1100   26.3080   45.9440 C   0  0  0  0  0  0  0  0  0  0  0  0
   54.7760   26.6960   46.0170 O   0  0  0  0  0  0  0  0  0  0  0  0
   57.6390   29.6480   45.3340 N   0  0  0  0  0  0  0  0  0  0  0  0
   59.4700   34.2340   48.3610 C   0  0  0  0  0  0  0  0  0  0  0  0
   60.6110   34.1710   49.1680 C   0  0  0  0  0  0  0  0  0  0  0  0
   64.4840   31.6870   50.5810 C   0  0  0  0  0  0  0  0  0  0  0  0
   64.4620   30.5230   51.5910 C   0  0  0  0  0  0  0  0  0  0  0  0
   62.9226   30.1274   53.9156 H   0  0  0  0  0  0  0  0  0  0  0  0
   62.5717   31.6328   53.0004 H   0  0  0  0  0  0  0  0  0  0  0  0
   61.3849   30.2844   53.0004 H   0  0  0  0  0  0  0  0  0  0  0  0
   62.6886   29.4511   49.8191 H   0  0  0  0  0  0  0  0  0  0  0  0
   61.2451   29.7159   50.8954 H   0  0  0  0  0  0  0  0  0  0  0  0
   62.1403   31.5088   49.0064 H   0  0  0  0  0  0  0  0  0  0  0  0
   61.1614   31.9192   50.4824 H   0  0  0  0  0  0  0  0  0  0  0  0
   62.9619   33.5998   46.7509 H   0  0  0  0  0  0  0  0  0  0  0  0
   60.9286   33.7074   45.3110 H   0  0  0  0  0  0  0  0  0  0  0  0
   57.6226   34.8222   46.5387 H   0  0  0  0  0  0  0  0  0  0  0  0
   58.6166   34.4059   45.0946 H   0  0  0  0  0  0  0  0  0  0  0  0
   57.4520   32.3300   46.9710 H   0  0  0  0  0  0  0  0  0  0  0  0
   54.9875   30.9448   43.9108 H   0  0  0  0  0  0  0  0  0  0  0  0
   59.2427   27.4466   45.1374 H   0  0  0  0  0  0  0  0  0  0  0  0
   59.8182   25.1075   45.7749 H   0  0  0  0  0  0  0  0  0  0  0  0
   58.0304   23.5348   46.5179 H   0  0  0  0  0  0  0  0  0  0  0  0
   55.6616   24.2996   46.6279 H   0  0  0  0  0  0  0  0  0  0  0  0
   58.4854   34.4121   48.8179 H   0  0  0  0  0  0  0  0  0  0  0  0
   60.5199   34.2946   50.2572 H   0  0  0  0  0  0  0  0  0  0  0  0
   64.6681   31.2902   49.5717 H   0  0  0  0  0  0  0  0  0  0  0  0
   65.2840   32.3897   50.8571 H   0  0  0  0  0  0  0  0  0  0  0  0
   65.1104   29.7195   51.2115 H   0  0  0  0  0  0  0  0  0  0  0  0
   64.8146   30.9213   52.5539 H   0  0  0  0  0  0  0  0  0  0  0  0
  1  2  1  0
  2  3  1  0
  3  4  1  0
  4  5  1  0
  5  6  1  0
  6  7  2  0
  6  8  2  0
  6  9  1  0
  9 10  2  0
 10 11  1  0
 11 12  2  0
 12 13  1  0
 13 14  1  0
 14 15  1  0
 15 16  2  0
 15 17  1  0
 17 18  2  0
 18 19  1  0
 19 20  1  0
 20 21  1  0
 21 22  2  0
 22 23  1  0
 23 24  2  0
 24 25  1  0
 25 26  2  0
 26 27  1  0
 20 28  2  0
 12 29  1  0
 29 30  2  0
  5 31  1  0
 31 32  1  0
 32  2  1  0
 30  9  1  0
 28 17  1  0
 26 21  1  0
  1 33  1  0
  1 34  1  0
  1 35  1  0
  3 36  1  0
  3 37  1  0
  4 38  1  0
  4 39  1  0
 10 40  1  0
 11 41  1  0
 13 42  1  0
 13 43  1  0
 14 44  1  0
 18 45  1  0
 22 46  1  0
 23 47  1  0
 24 48  1  0
 25 49  1  0
 29 50  1  0
 30 51  1  0
 31 52  1  0
 31 53  1  0
 32 54  1  0
 32 55  1  0
M  CHG  2  19  -1  27  -1
M  END
>  <UniqueID>  (46) 
44

>  <SMILES>  (46) 
CN1CCN(S(=O)(=O)c2ccc(CNC(=O)c3c[n-]c(-c4ccccc4[O-])n3)cc2)CC1

>  <Energy>  (46) 
92.95666634486044

>  <Genealogy>  (46) 
CN1CCN(S(=O)(=O)c2ccc(CNC(=O)c3c[n-]c(-c4ccccc4[O-])n3)cc2)CC1 (protonated)
CN1CCN(S(=O)(=O)c2ccc(CNC(=O)c3c[n-]c(-c4ccccc4[O-])n3)cc2)CC1 (3D coordinates assigned)
CN1CCN(S(=O)(=O)c2ccc(CNC(=O)c3c[n-]c(-c4ccccc4[O-])n3)cc2)CC1 (nonaromatic ring conformer: 92.95666634486044 kcal/mol)

>  <smiles>  (46) 
CN1CCN(S(=O)(=O)c2ccc(CNC(=O)c3c[nH]c(-c4ccccc4O)n3)cc2)CC1

>  <score_type>  (46) 
oracle

>  <origin>  (46) 
adg

>  <m_score__min__energy>  (46) 
-14.859999999999999

>  <m_primary>  (46) 
energy

$$$$
46:0
     RDKit          3D

 50 52  0  0  0  0  0  0  0  0999 V2000
   58.2360   27.4080   46.5700 C   0  0  0  0  0  0  0  0  0  0  0  0
   57.6690   28.6000   45.8560 C   0  0  0  0  0  0  0  0  0  0  0  0
   56.4570   28.4810   45.2520 N   0  0  0  0  0  0  0  0  0  0  0  0
   55.8940   29.5200   44.5850 C   0  0  0  0  0  0  0  0  0  0  0  0
   54.7720   29.3780   44.0340 O   0  0  0  0  0  0  0  0  0  0  0  0
   56.5410   30.7090   44.5110 N   0  0  0  0  0  0  0  0  0  0  0  0
   57.7500   30.8930   45.1000 C   0  0  0  0  0  0  0  0  0  0  0  0
   58.5560   32.4900   44.9160 S   0  0  0  0  0  0  0  0  0  0  0  0
   57.4910   33.3230   46.1390 C   0  0  0  0  0  0  0  0  0  0  0  0
   58.3050   33.6800   47.3360 C   0  0  0  0  0  0  0  0  0  0  0  0
   58.9040   34.7890   47.3800 O   0  0  0  0  0  0  0  0  0  0  0  0
   58.3600   32.7830   48.4490 N   0  0  0  0  0  0  0  0  0  0  0  0
   59.2060   33.0190   49.6100 C   0  0  0  0  0  0  0  0  0  0  0  0
   58.6120   32.3380   50.8070 C   0  0  0  0  0  0  0  0  0  0  0  0
   58.3910   33.0570   51.9940 C   0  0  0  0  0  0  0  0  0  0  0  0
   57.8050   32.4300   53.0980 C   0  0  0  0  0  0  0  0  0  0  0  0
   57.4240   31.0870   53.0210 C   0  0  0  0  0  0  0  0  0  0  0  0
   57.6260   30.3700   51.8380 C   0  0  0  0  0  0  0  0  0  0  0  0
   58.2120   30.9930   50.7320 C   0  0  0  0  0  0  0  0  0  0  0  0
   58.3630   29.8270   45.7890 C   0  0  0  0  0  0  0  0  0  0  0  0
   59.7140   29.9670   46.3690 C   0  0  0  0  0  0  0  0  0  0  0  0
   60.7140   29.5940   45.6990 O   0  0  0  0  0  0  0  0  0  0  0  0
   59.8870   30.5010   47.6890 N   0  0  0  0  0  0  0  0  0  0  0  0
   61.1990   30.6310   48.3150 C   0  0  0  0  0  0  0  0  0  0  0  0
   61.9440   31.7930   47.7170 C   0  0  0  0  0  0  0  0  0  0  0  0
   61.2670   32.7190   46.9060 C   0  0  0  0  0  0  0  0  0  0  0  0
   61.9470   33.8180   46.3720 C   0  0  0  0  0  0  0  0  0  0  0  0
   63.3040   34.0030   46.6470 C   0  0  0  0  0  0  0  0  0  0  0  0
   63.9830   33.0910   47.4600 C   0  0  0  0  0  0  0  0  0  0  0  0
   63.3070   31.9910   47.9980 C   0  0  0  0  0  0  0  0  0  0  0  0
   58.1626   27.5623   47.6566 H   0  0  0  0  0  0  0  0  0  0  0  0
   57.6694   26.5082   46.2884 H   0  0  0  0  0  0  0  0  0  0  0  0
   59.2916   27.2798   46.2884 H   0  0  0  0  0  0  0  0  0  0  0  0
   57.0675   34.2366   45.6963 H   0  0  0  0  0  0  0  0  0  0  0  0
   56.6731   32.6500   46.4358 H   0  0  0  0  0  0  0  0  0  0  0  0
   60.2113   32.6152   49.4195 H   0  0  0  0  0  0  0  0  0  0  0  0
   59.2756   34.1003   49.7998 H   0  0  0  0  0  0  0  0  0  0  0  0
   58.6800   34.1166   52.0549 H   0  0  0  0  0  0  0  0  0  0  0  0
   57.6436   32.9942   54.0284 H   0  0  0  0  0  0  0  0  0  0  0  0
   56.9653   30.5946   53.8912 H   0  0  0  0  0  0  0  0  0  0  0  0
   57.3235   29.3142   51.7772 H   0  0  0  0  0  0  0  0  0  0  0  0
   58.3605   30.4283   49.7998 H   0  0  0  0  0  0  0  0  0  0  0  0
   59.0450   30.7420   48.2560 H   0  0  0  0  0  0  0  0  0  0  0  0
   61.0720   30.7971   49.3949 H   0  0  0  0  0  0  0  0  0  0  0  0
   61.7729   29.7085   48.1433 H   0  0  0  0  0  0  0  0  0  0  0  0
   60.1975   32.5790   46.6901 H   0  0  0  0  0  0  0  0  0  0  0  0
   61.4126   34.5378   45.7345 H   0  0  0  0  0  0  0  0  0  0  0  0
   63.8382   34.8664   46.2237 H   0  0  0  0  0  0  0  0  0  0  0  0
   65.0512   33.2387   47.6772 H   0  0  0  0  0  0  0  0  0  0  0  0
   63.8433   31.2791   48.6426 H   0  0  0  0  0  0  0  0  0  0  0  0
  1  2  1  0
  2  3  2  0
  3  4  1  0
  4  5  2  0
  4  6  1  0
  6  7  1  0
  7  8  1  0
  8  9  1  0
  9 10  1  0
 10 11  2  0
 10 12  1  0
 12 13  1  0
 13 14  1  0
 14 15  2  0
 15 16  1  0
 16 17  2  0
 17 18  1  0
 18 19  2  0
  7 20  2  0
 20 21  1  0
 21 22  2  0
 21 23  1  0
 23 24  1  0
 24 25  1  0
 25 26  2  0
 26 27  1  0
 27 28  2  0
 28 29  1  0
 29 30  2  0
 20  2  1  0
 30 25  1  0
 19 14  1  0
  1 31  1  0
  1 32  1  0
  1 33  1  0
  9 34  1  0
  9 35  1  0
 13 36  1  0
 13 37  1  0
 15 38  1  0
 16 39  1  0
 17 40  1  0
 18 41  1  0
 19 42  1  0
 23 43  1  0
 24 44  1  0
 24 45  1  0
 26 46  1  0
 27 47  1  0
 28 48  1  0
 29 49  1  0
 30 50  1  0
M  CHG  2   6  -1  12  -1
M  END
>  <UniqueID>  (47) 
45

>  <SMILES>  (47) 
Cc1nc(=O)[n-]c(SCC(=O)[N-]Cc2ccccc2)c1C(=O)NCc1ccccc1

>  <Energy>  (47) 
49.39263065786509

>  <Genealogy>  (47) 
Cc1nc(=O)[n-]c(SCC(=O)[N-]Cc2ccccc2)c1C(=O)NCc1ccccc1 (protonated)
Cc1nc(=O)[n-]c(SCC(=O)[N-]Cc2ccccc2)c1C(=O)NCc1ccccc1 (3D coordinates assigned)
Cc1nc(=O)[n-]c(SCC(=O)[N-]Cc2ccccc2)c1C(=O)NCc1ccccc1 (optimized conformer: 49.39263065786509 kcal/mol)

>  <smiles>  (47) 
Cc1nc(=O)[nH]c(SCC(=O)NCc2ccccc2)c1C(=O)NCc1ccccc1

>  <score_type>  (47) 
oracle

>  <origin>  (47) 
adg

>  <m_score__min__energy>  (47) 
-13

>  <m_primary>  (47) 
energy

$$$$
47:0
     RDKit          3D

 38 40  0  0  0  0  0  0  0  0999 V2000
   54.9820   26.3290   46.7490 H   0  0  0  0  0  0  0  0  0  0  0  0
   55.5740   26.7020   46.0170 O   0  0  0  0  0  0  0  0  0  0  0  0
   56.9510   26.8040   46.1930 C   0  0  0  0  0  0  0  0  0  0  0  0
   57.6760   26.2590   47.2280 C   0  0  0  0  0  0  0  0  0  0  0  0
   57.2630   25.6615   48.0541 H   0  0  0  0  0  0  0  0  0  0  0  0
   58.9770   26.5780   47.0630 N   0  0  0  0  0  0  0  0  0  0  0  0
   59.0010   27.3100   45.9270 C   0  0  0  0  0  0  0  0  0  0  0  0
   60.3860   27.9360   45.3170 S   0  0  0  0  0  0  0  0  0  0  0  0
   57.7800   27.4620   45.3660 N   0  0  0  0  0  0  0  0  0  0  0  0
   57.4080   28.2330   44.1770 C   0  0  0  0  0  0  0  0  0  0  0  0
   56.3712   27.9933   43.8984 H   0  0  0  0  0  0  0  0  0  0  0  0
   58.0886   27.9722   43.3531 H   0  0  0  0  0  0  0  0  0  0  0  0
   57.5190   29.7070   44.4570 C   0  0  0  0  0  0  0  0  0  0  0  0
   57.3250   30.6450   43.4330 C   0  0  0  0  0  0  0  0  0  0  0  0
   57.0647   30.3021   42.4207 H   0  0  0  0  0  0  0  0  0  0  0  0
   57.4600   32.0130   43.6890 C   0  0  0  0  0  0  0  0  0  0  0  0
   57.3014   32.7385   42.8776 H   0  0  0  0  0  0  0  0  0  0  0  0
   57.7970   32.4680   44.9760 C   0  0  0  0  0  0  0  0  0  0  0  0
   57.9460   33.9180   45.2500 C   0  0  0  0  0  0  0  0  0  0  0  0
   56.9480   34.6800   45.1280 O   0  0  0  0  0  0  0  0  0  0  0  0
   59.2420   34.4570   45.5640 N   0  0  0  0  0  0  0  0  0  0  0  0
   60.0450   34.1540   46.5460 C   0  0  0  0  0  0  0  0  0  0  0  0
   59.5370   34.1470   47.8090 N   0  0  0  0  0  0  0  0  0  0  0  0
   60.2920   33.8570   48.9030 C   0  0  0  0  0  0  0  0  0  0  0  0
   59.6630   33.8440   50.2600 C   0  0  0  0  0  0  0  0  0  0  0  0
   60.4495   33.8603   51.0289 H   0  0  0  0  0  0  0  0  0  0  0  0
   59.0199   34.7291   50.3745 H   0  0  0  0  0  0  0  0  0  0  0  0
   59.0570   32.9331   50.3745 H   0  0  0  0  0  0  0  0  0  0  0  0
   61.6460   33.5450   48.7480 C   0  0  0  0  0  0  0  0  0  0  0  0
   62.2621   33.2906   49.6231 H   0  0  0  0  0  0  0  0  0  0  0  0
   62.2060   33.5600   47.4720 C   0  0  0  0  0  0  0  0  0  0  0  0
   63.2729   33.3281   47.3379 H   0  0  0  0  0  0  0  0  0  0  0  0
   61.4150   33.8690   46.3630 C   0  0  0  0  0  0  0  0  0  0  0  0
   61.8562   33.8900   45.3556 H   0  0  0  0  0  0  0  0  0  0  0  0
   57.9980   31.5240   46.0000 C   0  0  0  0  0  0  0  0  0  0  0  0
   58.2643   31.8645   47.0115 H   0  0  0  0  0  0  0  0  0  0  0  0
   57.8620   30.1570   45.7420 C   0  0  0  0  0  0  0  0  0  0  0  0
   58.0247   29.4293   46.5507 H   0  0  0  0  0  0  0  0  0  0  0  0
  1  2  1  0
  2  3  1  0
  3  4  2  0
  4  5  1  0
  4  6  1  0
  6  7  1  0
  7  8  2  0
  7  9  1  0
  9 10  1  0
 10 11  1  0
 10 12  1  0
 10 13  1  0
 13 14  2  0
 14 15  1  0
 14 16  1  0
 16 17  1  0
 16 18  2  0
 18 19  1  0
 19 20  2  0
 19 21  1  0
 21 22  2  0
 22 23  1  0
 23 24  1  0
 24 25  1  0
 25 26  1  0
 25 27  1  0
 25 28  1  0
 24 29  2  0
 29 30  1  0
 29 31  1  0
 31 32  1  0
 31 33  2  0
 33 34  1  0
 18 35  1  0
 35 36  1  0
 35 37  2  0
 37 38  1  0
  9  3  1  0
 37 13  1  0
 33 22  1  0
M  CHG  2   6  -1  23  -1
M  END
>  <UniqueID>  (48) 
46

>  <SMILES>  (48) 
Cc1ccc/c(=N\C(=O)c2ccc(Cn3c(O)c[n-]c3=S)cc2)[n-]1

>  <Energy>  (48) 
78.12474323539072

>  <Genealogy>  (48) 
Cc1cccc(=NC(=O)c2ccc(Cn3c(O)c[n-]c3=S)cc2)[n-]1 (protonated)
Cc1ccc/c(=N\C(=O)c2ccc(Cn3c(O)c[n-]c3=S)cc2)[n-]1 (cis-trans isomerization)
Cc1ccc/c(=N\C(=O)c2ccc(Cn3c(O)c[n-]c3=S)cc2)[n-]1 (3D coordinates assigned)
Cc1ccc/c(=N\C(=O)c2ccc(Cn3c(O)c[n-]c3=S)cc2)[n-]1 (optimized conformer: 78.12474323539072 kcal/mol)

>  <smiles>  (48) 
Cc1cccc(=NC(=O)c2ccc(Cn3c(O)c[nH]c3=S)cc2)[nH]1

>  <score_type>  (48) 
oracle

>  <origin>  (48) 
adg

>  <m_score__min__energy>  (48) 
-11.550000000000001

>  <m_primary>  (48) 
energy

$$$$
48:0
     RDKit          3D

 56 59  0  0  0  0  0  0  0  0999 V2000
   59.6400   35.4040   45.8360 O   0  0  0  0  0  0  0  0  0  0  0  0
   59.1380   34.2490   45.9120 C   0  0  0  0  0  0  0  0  0  0  0  0
   58.1930   33.8200   44.9240 N   0  0  0  0  0  0  0  0  0  0  0  0
   56.9610   33.1060   45.2370 C   0  0  0  0  0  0  0  0  0  0  0  0
   57.0220   31.7090   44.6950 C   0  0  0  0  0  0  0  0  0  0  0  0
   58.2450   31.1290   44.3250 C   0  0  0  0  0  0  0  0  0  0  0  0
   58.2590   29.8350   43.8000 C   0  0  0  0  0  0  0  0  0  0  0  0
   57.0610   29.1350   43.6450 C   0  0  0  0  0  0  0  0  0  0  0  0
   55.8620   29.7440   44.0180 C   0  0  0  0  0  0  0  0  0  0  0  0
   55.8670   31.0060   44.5270 N   0  0  0  0  0  0  0  0  0  0  0  0
   59.5270   33.3420   47.0160 C   0  0  0  0  0  0  0  0  0  0  0  0
   59.3170   33.7100   48.3510 C   0  0  0  0  0  0  0  0  0  0  0  0
   59.6960   32.8520   49.3800 C   0  0  0  0  0  0  0  0  0  0  0  0
   60.2830   31.6230   49.0770 C   0  0  0  0  0  0  0  0  0  0  0  0
   60.6260   30.8610   50.0220 O   0  0  0  0  0  0  0  0  0  0  0  0
   60.4800   31.2530   47.7690 N   0  0  0  0  0  0  0  0  0  0  0  0
   61.1270   29.9730   47.4340 C   0  0  0  0  0  0  0  0  0  0  0  0
   60.0920   28.9480   47.0560 C   0  0  0  0  0  0  0  0  0  0  0  0
   60.4820   27.6820   46.5920 C   0  0  0  0  0  0  0  0  0  0  0  0
   59.5190   26.7450   46.2060 C   0  0  0  0  0  0  0  0  0  0  0  0
   58.1550   27.0640   46.2740 C   0  0  0  0  0  0  0  0  0  0  0  0
   56.9420   25.8770   45.7910 S   0  0  0  0  0  0  0  0  0  0  0  0
   55.5710   26.4190   46.0910 O   0  0  0  0  0  0  0  0  0  0  0  0
   57.0380   25.6510   44.3070 O   0  0  0  0  0  0  0  0  0  0  0  0
   57.1560   24.3530   46.6180 N   0  0  0  0  0  0  0  0  0  0  0  0
   56.0010   24.0690   47.4820 C   0  0  0  0  0  0  0  0  0  0  0  0
   56.2140   22.7310   48.2200 C   0  0  0  0  0  0  0  0  0  0  0  0
   57.3650   22.0410   47.7610 O   0  0  0  0  0  0  0  0  0  0  0  0
   57.3060   21.8920   46.3560 C   0  0  0  0  0  0  0  0  0  0  0  0
   57.3450   23.2630   45.6480 C   0  0  0  0  0  0  0  0  0  0  0  0
   57.7650   28.3310   46.7250 C   0  0  0  0  0  0  0  0  0  0  0  0
   58.7270   29.2690   47.1120 C   0  0  0  0  0  0  0  0  0  0  0  0
   60.1190   32.0950   46.7510 C   0  0  0  0  0  0  0  0  0  0  0  0
   56.8304   33.0672   46.3285 H   0  0  0  0  0  0  0  0  0  0  0  0
   56.1127   33.6336   44.7767 H   0  0  0  0  0  0  0  0  0  0  0  0
   59.1841   31.6885   44.4474 H   0  0  0  0  0  0  0  0  0  0  0  0
   59.2117   29.3683   43.5093 H   0  0  0  0  0  0  0  0  0  0  0  0
   57.0622   28.1149   43.2335 H   0  0  0  0  0  0  0  0  0  0  0  0
   54.9115   29.2031   43.9004 H   0  0  0  0  0  0  0  0  0  0  0  0
   58.8519   34.6785   48.5869 H   0  0  0  0  0  0  0  0  0  0  0  0
   59.5332   33.1421   50.4285 H   0  0  0  0  0  0  0  0  0  0  0  0
   61.8140   30.1240   46.5883 H   0  0  0  0  0  0  0  0  0  0  0  0
   61.6835   29.6128   48.3118 H   0  0  0  0  0  0  0  0  0  0  0  0
   61.5501   27.4260   46.5318 H   0  0  0  0  0  0  0  0  0  0  0  0
   59.8324   25.7534   45.8475 H   0  0  0  0  0  0  0  0  0  0  0  0
   55.8889   24.8781   48.2187 H   0  0  0  0  0  0  0  0  0  0  0  0
   55.0939   24.0011   46.8635 H   0  0  0  0  0  0  0  0  0  0  0  0
   56.3285   22.9342   49.2950 H   0  0  0  0  0  0  0  0  0  0  0  0
   55.3388   22.0945   48.0227 H   0  0  0  0  0  0  0  0  0  0  0  0
   58.1649   21.2912   46.0224 H   0  0  0  0  0  0  0  0  0  0  0  0
   56.3603   21.3930   46.0977 H   0  0  0  0  0  0  0  0  0  0  0  0
   58.3189   23.3858   45.1516 H   0  0  0  0  0  0  0  0  0  0  0  0
   56.5325   23.3027   44.9076 H   0  0  0  0  0  0  0  0  0  0  0  0
   56.6970   28.5895   46.7751 H   0  0  0  0  0  0  0  0  0  0  0  0
   58.4124   30.2632   47.4620 H   0  0  0  0  0  0  0  0  0  0  0  0
   60.2952   31.7904   45.7088 H   0  0  0  0  0  0  0  0  0  0  0  0
  1  2  2  0
  2  3  1  0
  3  4  1  0
  4  5  1  0
  5  6  2  0
  6  7  1  0
  7  8  2  0
  8  9  1  0
  9 10  2  0
  2 11  1  0
 11 12  1  0
 12 13  2  0
 13 14  1  0
 14 15  2  0
 14 16  1  0
 16 17  1  0
 17 18  1  0
 18 19  2  0
 19 20  1  0
 20 21  2  0
 21 22  1  0
 22 23  2  0
 22 24  2  0
 22 25  1  0
 25 26  1  0
 26 27  1  0
 27 28  1  0
 28 29  1  0
 29 30  1  0
 21 31  1  0
 31 32  2  0
 16 33  1  0
 10  5  1  0
 33 11  2  0
 32 18  1  0
 30 25  1  0
  4 34  1  0
  4 35  1  0
  6 36  1  0
  7 37  1  0
  8 38  1  0
  9 39  1  0
 12 40  1  0
 13 41  1  0
 17 42  1  0
 17 43  1  0
 19 44  1  0
 20 45  1  0
 26 46  1  0
 26 47  1  0
 27 48  1  0
 27 49  1  0
 29 50  1  0
 29 51  1  0
 30 52  1  0
 30 53  1  0
 31 54  1  0
 32 55  1  0
 33 56  1  0
M  CHG  1   3  -1
M  END
>  <UniqueID>  (49) 
47

>  <SMILES>  (49) 
O=C([N-]Cc1ccccn1)c1ccc(=O)n(Cc2ccc(S(=O)(=O)N3CCOCC3)cc2)c1

>  <Energy>  (49) 
66.8429106080025

>  <Genealogy>  (49) 
O=C([N-]Cc1ccccn1)c1ccc(=O)n(Cc2ccc(S(=O)(=O)N3CCOCC3)cc2)c1 (protonated)
O=C([N-]Cc1ccccn1)c1ccc(=O)n(Cc2ccc(S(=O)(=O)N3CCOCC3)cc2)c1 (3D coordinates assigned)
O=C([N-]Cc1ccccn1)c1ccc(=O)n(Cc2ccc(S(=O)(=O)N3CCOCC3)cc2)c1 (nonaromatic ring conformer: 66.8429106080025 kcal/mol)

>  <smiles>  (49) 
O=C(NCc1ccccn1)c1ccc(=O)n(Cc2ccc(S(=O)(=O)N3CCOCC3)cc2)c1

>  <score_type>  (49) 
oracle

>  <origin>  (49) 
adg

>  <m_score__min__energy>  (49) 
-11.869999999999999

>  <m_primary>  (49) 
energy

$$$$
49:0
     RDKit          3D

 37 40  0  0  0  0  0  0  0  0999 V2000
   57.7100   34.2490   44.7290 O   0  0  0  0  0  0  0  0  0  0  0  0
   57.7440   33.4070   45.6680 C   0  0  0  0  0  0  0  0  0  0  0  0
   57.9020   33.8300   46.9920 O   0  0  0  0  0  0  0  0  0  0  0  0
   58.9840   34.6500   47.4160 C   0  0  0  0  0  0  0  0  0  0  0  0
   60.2420   33.8260   47.4650 C   0  0  0  0  0  0  0  0  0  0  0  0
   61.3490   34.2010   46.6830 C   0  0  0  0  0  0  0  0  0  0  0  0
   62.5320   33.4600   46.7310 C   0  0  0  0  0  0  0  0  0  0  0  0
   62.6260   32.3430   47.5620 C   0  0  0  0  0  0  0  0  0  0  0  0
   61.5370   31.9660   48.3510 C   0  0  0  0  0  0  0  0  0  0  0  0
   60.3470   32.7010   48.3130 C   0  0  0  0  0  0  0  0  0  0  0  0
   58.8980   32.1400   49.4390 Br  0  0  0  0  0  0  0  0  0  0  0  0
   57.6200   31.9720   45.3650 C   0  0  0  0  0  0  0  0  0  0  0  0
   58.4930   31.0330   45.9590 C   0  0  0  0  0  0  0  0  0  0  0  0
   58.3120   29.6960   45.6190 C   0  0  0  0  0  0  0  0  0  0  0  0
   57.3300   29.2970   44.7430 C   0  0  0  0  0  0  0  0  0  0  0  0
   56.4800   30.2310   44.1650 C   0  0  0  0  0  0  0  0  0  0  0  0
   56.6480   31.5470   44.4930 N   0  0  0  0  0  0  0  0  0  0  0  0
   57.3370   27.9580   44.5570 N   0  0  0  0  0  0  0  0  0  0  0  0
   58.3480   27.5130   45.3360 C   0  0  0  0  0  0  0  0  0  0  0  0
   58.7680   26.1930   45.4970 C   0  0  0  0  0  0  0  0  0  0  0  0
   59.8500   25.9460   46.3630 C   0  0  0  0  0  0  0  0  0  0  0  0
   60.4830   27.0120   47.0430 C   0  0  0  0  0  0  0  0  0  0  0  0
   60.0420   28.3360   46.8660 C   0  0  0  0  0  0  0  0  0  0  0  0
   58.9690   28.5500   46.0020 C   0  0  0  0  0  0  0  0  0  0  0  0
   59.1159   35.4803   46.7067 H   0  0  0  0  0  0  0  0  0  0  0  0
   58.7696   35.0556   48.4158 H   0  0  0  0  0  0  0  0  0  0  0  0
   61.2828   35.0833   46.0295 H   0  0  0  0  0  0  0  0  0  0  0  0
   63.3915   33.7576   46.1123 H   0  0  0  0  0  0  0  0  0  0  0  0
   63.5578   31.7594   47.5957 H   0  0  0  0  0  0  0  0  0  0  0  0
   61.6153   31.0859   49.0063 H   0  0  0  0  0  0  0  0  0  0  0  0
   59.2813   31.3454   46.6597 H   0  0  0  0  0  0  0  0  0  0  0  0
   55.6929   29.9199   43.4623 H   0  0  0  0  0  0  0  0  0  0  0  0
   56.7030   27.3950   43.9470 H   0  0  0  0  0  0  0  0  0  0  0  0
   58.2692   25.3702   44.9638 H   0  0  0  0  0  0  0  0  0  0  0  0
   60.2058   24.9158   46.5118 H   0  0  0  0  0  0  0  0  0  0  0  0
   61.3277   26.8041   47.7163 H   0  0  0  0  0  0  0  0  0  0  0  0
   60.5265   29.1727   47.3906 H   0  0  0  0  0  0  0  0  0  0  0  0
  1  2  2  0
  2  3  1  0
  3  4  1  0
  4  5  1  0
  5  6  2  0
  6  7  1  0
  7  8  2  0
  8  9  1  0
  9 10  2  0
 10 11  1  0
  2 12  1  0
 12 13  2  0
 13 14  1  0
 14 15  2  0
 15 16  1  0
 16 17  2  0
 15 18  1  0
 18 19  1  0
 19 20  2  0
 20 21  1  0
 21 22  2  0
 22 23  1  0
 23 24  2  0
 10  5  1  0
 17 12  1  0
 24 19  1  0
 24 14  1  0
  4 25  1  0
  4 26  1  0
  6 27  1  0
  7 28  1  0
  8 29  1  0
  9 30  1  0
 13 31  1  0
 16 32  1  0
 18 33  1  0
 20 34  1  0
 21 35  1  0
 22 36  1  0
 23 37  1  0
M  END
>  <UniqueID>  (50) 
48

>  <SMILES>  (50) 
O=C(OCc1ccccc1Br)c1cc2c(cn1)[nH]c1ccccc12

>  <Energy>  (50) 
81.76270225967586

>  <Genealogy>  (50) 
O=C(OCc1ccccc1Br)c1cc2c(cn1)[nH]c1ccccc12 (3D coordinates assigned)
O=C(OCc1ccccc1Br)c1cc2c(cn1)[nH]c1ccccc12 (optimized conformer: 81.76270225967586 kcal/mol)

>  <smiles>  (50) 
O=C(OCc1ccccc1Br)c1cc2c(cn1)[nH]c1ccccc12

>  <score_type>  (50) 
oracle

>  <origin>  (50) 
adg

>  <m_score__min__energy>  (50) 
-8.5600000000000005

>  <m_primary>  (50) 
energy

$$$$
50:0
     RDKit          3D

 47 49  0  0  0  0  0  0  0  0999 V2000
   57.4240   31.8160   45.4890 H   0  0  0  0  0  0  0  0  0  0  0  0
   57.1960   31.0300   44.8890 O   0  0  0  0  0  0  0  0  0  0  0  0
   57.3110   29.7120   45.3330 C   0  0  0  0  0  0  0  0  0  0  0  0
   56.2060   28.8510   45.2450 C   0  0  0  0  0  0  0  0  0  0  0  0
   55.2646   29.2132   44.8063 H   0  0  0  0  0  0  0  0  0  0  0  0
   56.2940   27.5400   45.7100 C   0  0  0  0  0  0  0  0  0  0  0  0
   55.2020   26.6880   45.6030 O   0  0  0  0  0  0  0  0  0  0  0  0
   57.4820   27.0820   46.2840 C   0  0  0  0  0  0  0  0  0  0  0  0
   57.5471   26.0504   46.6601 H   0  0  0  0  0  0  0  0  0  0  0  0
   58.5880   27.9300   46.3820 C   0  0  0  0  0  0  0  0  0  0  0  0
   59.5146   27.5678   46.8513 H   0  0  0  0  0  0  0  0  0  0  0  0
   58.5240   29.2420   45.8850 C   0  0  0  0  0  0  0  0  0  0  0  0
   58.8400   30.5160   49.0400 C   0  0  0  0  0  0  0  0  0  0  0  0
   59.3377   29.5369   48.9786 H   0  0  0  0  0  0  0  0  0  0  0  0
   59.8070   31.1800   46.7180 C   0  0  0  0  0  0  0  0  0  0  0  0
   60.5664   31.9425   46.4902 H   0  0  0  0  0  0  0  0  0  0  0  0
   58.8810   31.4010   47.8530 C   0  0  0  0  0  0  0  0  0  0  0  0
   58.0680   32.3610   47.8030 O   0  0  0  0  0  0  0  0  0  0  0  0
   59.7440   30.0780   45.9630 C   0  0  0  0  0  0  0  0  0  0  0  0
   60.6287   29.7823   45.3799 H   0  0  0  0  0  0  0  0  0  0  0  0
   58.2280   30.8470   50.1840 C   0  0  0  0  0  0  0  0  0  0  0  0
   57.5076   31.6780   50.1616 H   0  0  0  0  0  0  0  0  0  0  0  0
   58.4610   30.1620   51.4820 C   0  0  0  0  0  0  0  0  0  0  0  0
   59.7220   29.6480   51.8630 C   0  0  0  0  0  0  0  0  0  0  0  0
   60.8290   29.7620   51.0280 O   0  0  0  0  0  0  0  0  0  0  0  0
   59.8680   28.9800   53.0840 C   0  0  0  0  0  0  0  0  0  0  0  0
   60.8577   28.6096   53.3896 H   0  0  0  0  0  0  0  0  0  0  0  0
   58.7660   28.7810   53.9160 C   0  0  0  0  0  0  0  0  0  0  0  0
   58.8891   28.2543   54.8738 H   0  0  0  0  0  0  0  0  0  0  0  0
   57.5080   29.2490   53.5350 C   0  0  0  0  0  0  0  0  0  0  0  0
   56.6385   29.0746   54.1858 H   0  0  0  0  0  0  0  0  0  0  0  0
   57.3470   29.9430   52.3220 C   0  0  0  0  0  0  0  0  0  0  0  0
   56.1000   30.4440   51.9250 O   0  0  0  0  0  0  0  0  0  0  0  0
   54.9280   30.4610   52.7290 C   0  0  0  0  0  0  0  0  0  0  0  0
   54.8352   29.5097   53.2734 H   0  0  0  0  0  0  0  0  0  0  0  0
   54.9797   31.2796   53.4619 H   0  0  0  0  0  0  0  0  0  0  0  0
   53.7440   30.6470   51.8220 C   0  0  0  0  0  0  0  0  0  0  0  0
   53.5250   29.7840   50.7360 C   0  0  0  0  0  0  0  0  0  0  0  0
   54.2615   29.0017   50.5003 H   0  0  0  0  0  0  0  0  0  0  0  0
   52.3720   29.9160   49.9520 C   0  0  0  0  0  0  0  0  0  0  0  0
   52.2110   29.2446   49.0957 H   0  0  0  0  0  0  0  0  0  0  0  0
   51.4250   30.8990   50.2550 C   0  0  0  0  0  0  0  0  0  0  0  0
   50.5182   30.9976   49.6402 H   0  0  0  0  0  0  0  0  0  0  0  0
   51.6310   31.7560   51.3390 C   0  0  0  0  0  0  0  0  0  0  0  0
   50.6850   32.7250   51.6450 O   0  0  0  0  0  0  0  0  0  0  0  0
   52.7860   31.6310   52.1200 C   0  0  0  0  0  0  0  0  0  0  0  0
   52.9448   32.3076   52.9727 H   0  0  0  0  0  0  0  0  0  0  0  0
  1  2  1  0
  2  3  1  0
  3  4  2  0
  4  5  1  0
  4  6  1  0
  6  7  1  0
  6  8  2  0
  8  9  1  0
  8 10  1  0
 10 11  1  0
 10 12  2  0
 12 13  1  0
 13 14  1  0
 13 15  2  0
 15 16  1  0
 15 17  1  0
 17 18  2  0
 17 19  1  0
 19 20  1  0
 19 21  2  0
 21 22  1  0
 21 23  1  0
 23 24  2  0
 24 25  1  0
 24 26  1  0
 26 27  1  0
 26 28  2  0
 28 29  1  0
 28 30  1  0
 30 31  1  0
 30 32  2  0
 32 33  1  0
 33 34  1  0
 34 35  1  0
 34 36  1  0
 34 37  1  0
 37 38  2  0
 38 39  1  0
 38 40  1  0
 40 41  1  0
 40 42  2  0
 42 43  1  0
 42 44  1  0
 44 45  1  0
 44 46  2  0
 46 47  1  0
 12  3  1  0
 32 23  1  0
 46 37  1  0
M  CHG  3   7  -1  25  -1  45  -1
M  END
>  <UniqueID>  (51) 
49

>  <SMILES>  (51) 
O=C(/C=C/c1ccc([O-])cc1O)/C=C/c1c([O-])cccc1OCc1cccc([O-])c1

>  <Energy>  (51) 
60.439126868875995

>  <Genealogy>  (51) 
O=C(C=Cc1ccc([O-])cc1O)C=Cc1c([O-])cccc1OCc1cccc([O-])c1 (protonated)
O=C(/C=C/c1ccc([O-])cc1O)/C=C/c1c([O-])cccc1OCc1cccc([O-])c1 (cis-trans isomerization)
O=C(/C=C/c1ccc([O-])cc1O)/C=C/c1c([O-])cccc1OCc1cccc([O-])c1 (3D coordinates assigned)
O=C(/C=C/c1ccc([O-])cc1O)/C=C/c1c([O-])cccc1OCc1cccc([O-])c1 (optimized conformer: 60.439126868875995 kcal/mol)

>  <smiles>  (51) 
O=C(C=Cc1ccc(O)cc1O)C=Cc1c(O)cccc1OCc1cccc(O)c1

>  <score_type>  (51) 
oracle

>  <origin>  (51) 
adg

>  <m_score__min__energy>  (51) 
-15.85

>  <m_primary>  (51) 
energy

$$$$
51:0
     RDKit          3D

 37 39  0  0  0  0  0  0  0  0999 V2000
   55.9730   22.5180   42.8850 N   0  0  0  0  0  0  0  0  0  0  0  0
   56.3240   23.4250   43.7430 C   0  0  0  0  0  0  0  0  0  0  0  0
   57.6300   23.6120   43.9830 N   0  0  0  0  0  0  0  0  0  0  0  0
   58.0620   24.5230   44.8490 C   0  0  0  0  0  0  0  0  0  0  0  0
   57.1410   25.3180   45.5390 C   0  0  0  0  0  0  0  0  0  0  0  0
   57.7150   26.3070   46.4790 C   0  0  0  0  0  0  0  0  0  0  0  0
   57.5720   27.6910   45.9680 C   0  0  0  0  0  0  0  0  0  0  0  0
   58.6190   28.5640   46.2510 C   0  0  0  0  0  0  0  0  0  0  0  0
   58.5750   29.8900   45.8170 C   0  0  0  0  0  0  0  0  0  0  0  0
   59.6310   30.7410   46.1100 O   0  0  0  0  0  0  0  0  0  0  0  0
   59.3750   32.0830   46.3460 C   0  0  0  0  0  0  0  0  0  0  0  0
   59.5950   32.6450   47.5870 C   0  0  0  0  0  0  0  0  0  0  0  0
   59.3320   33.9900   47.7980 C   0  0  0  0  0  0  0  0  0  0  0  0
   58.8440   34.7770   46.7610 C   0  0  0  0  0  0  0  0  0  0  0  0
   58.6150   34.2310   45.5050 C   0  0  0  0  0  0  0  0  0  0  0  0
   58.8910   32.8910   45.3390 C   0  0  0  0  0  0  0  0  0  0  0  0
   57.4860   30.2690   45.1240 N   0  0  0  0  0  0  0  0  0  0  0  0
   56.4690   29.4260   44.8490 C   0  0  0  0  0  0  0  0  0  0  0  0
   55.4540   29.7880   44.2010 O   0  0  0  0  0  0  0  0  0  0  0  0
   56.5190   28.1370   45.2740 N   0  0  0  0  0  0  0  0  0  0  0  0
   55.8120   25.1350   45.3020 C   0  0  0  0  0  0  0  0  0  0  0  0
   54.9460   25.8550   45.9300 N   0  0  0  0  0  0  0  0  0  0  0  0
   55.4350   24.1840   44.4010 N   0  0  0  0  0  0  0  0  0  0  0  0
   56.2460   22.6420   41.8880 H   0  0  0  0  0  0  0  0  0  0  0  0
   58.3200   23.0320   43.4800 H   0  0  0  0  0  0  0  0  0  0  0  0
   59.1406   24.6514   45.0226 H   0  0  0  0  0  0  0  0  0  0  0  0
   57.1934   26.2270   47.4441 H   0  0  0  0  0  0  0  0  0  0  0  0
   58.7875   26.0912   46.5935 H   0  0  0  0  0  0  0  0  0  0  0  0
   59.4885   28.2057   46.8216 H   0  0  0  0  0  0  0  0  0  0  0  0
   59.9796   32.0250   48.4102 H   0  0  0  0  0  0  0  0  0  0  0  0
   59.5099   34.4353   48.7880 H   0  0  0  0  0  0  0  0  0  0  0  0
   58.6372   35.8429   46.9373 H   0  0  0  0  0  0  0  0  0  0  0  0
   58.2291   34.8430   44.6764 H   0  0  0  0  0  0  0  0  0  0  0  0
   58.7158   32.4420   44.3502 H   0  0  0  0  0  0  0  0  0  0  0  0
   55.7360   27.5100   45.0590 H   0  0  0  0  0  0  0  0  0  0  0  0
   55.1320   26.3340   46.8270 H   0  0  0  0  0  0  0  0  0  0  0  0
   54.4110   24.0230   44.1990 H   0  0  0  0  0  0  0  0  0  0  0  0
  1  2  2  3
  2  3  1  0
  3  4  1  0
  4  5  2  0
  5  6  1  0
  6  7  1  0
  7  8  2  0
  8  9  1  0
  9 10  1  0
 10 11  1  0
 11 12  2  0
 12 13  1  0
 13 14  2  0
 14 15  1  0
 15 16  2  0
  9 17  2  0
 17 18  1  0
 18 19  2  0
 18 20  1  0
  5 21  1  0
 21 22  2  3
 21 23  1  0
 23  2  1  0
 20  7  1  0
 16 11  1  0
  1 24  1  0
  3 25  1  0
  4 26  1  0
  6 27  1  0
  6 28  1  0
  8 29  1  0
 12 30  1  0
 13 31  1  0
 14 32  1  0
 15 33  1  0
 16 34  1  0
 20 35  1  0
 22 36  1  0
 23 37  1  0
M  END
>  <smiles>  (52) 
N=c1[nH]cc(Cc2cc(Oc3ccccc3)nc(=O)[nH]2)c(=N)[nH]1

>  <score_type>  (52) 
oracle

>  <origin>  (52) 
adg

>  <m_score__min__energy>  (52) 
-8.1699999999999999

>  <m_primary>  (52) 
energy

$$$$
52:0
     RDKit          3D

 40 42  0  0  0  0  0  0  0  0999 V2000
   60.0882   33.2318   51.3306 H   0  0  0  0  0  0  0  0  0  0  0  0
   59.6820   33.1950   50.3090 C   0  0  0  0  0  0  0  0  0  0  0  0
   59.8240   34.2640   49.4830 N   0  0  0  0  0  0  0  0  0  0  0  0
   59.3440   34.2560   48.2110 C   0  0  0  0  0  0  0  0  0  0  0  0
   59.4763   35.1402   47.5702 H   0  0  0  0  0  0  0  0  0  0  0  0
   58.6790   33.1220   47.7110 C   0  0  0  0  0  0  0  0  0  0  0  0
   58.1330   33.0960   46.3320 C   0  0  0  0  0  0  0  0  0  0  0  0
   57.8240   34.1800   45.7650 O   0  0  0  0  0  0  0  0  0  0  0  0
   57.9400   31.8530   45.6360 N   0  0  0  0  0  0  0  0  0  0  0  0
   57.7700   30.9890   46.1990 H   0  0  0  0  0  0  0  0  0  0  0  0
   57.6540   31.8010   44.2300 C   0  0  0  0  0  0  0  0  0  0  0  0
   58.2460   32.7570   43.3910 C   0  0  0  0  0  0  0  0  0  0  0  0
   58.8653   33.5553   43.8260 H   0  0  0  0  0  0  0  0  0  0  0  0
   58.0560   32.7040   42.0090 C   0  0  0  0  0  0  0  0  0  0  0  0
   58.5299   33.4546   41.3594 H   0  0  0  0  0  0  0  0  0  0  0  0
   57.2650   31.6990   41.4520 C   0  0  0  0  0  0  0  0  0  0  0  0
   57.1303   31.6479   40.3615 H   0  0  0  0  0  0  0  0  0  0  0  0
   56.6440   30.7580   42.2750 C   0  0  0  0  0  0  0  0  0  0  0  0
   56.0185   29.9717   41.8273 H   0  0  0  0  0  0  0  0  0  0  0  0
   56.8100   30.8050   43.6720 C   0  0  0  0  0  0  0  0  0  0  0  0
   56.0560   29.8490   44.5150 C   0  0  0  0  0  0  0  0  0  0  0  0
   54.9220   29.4430   44.1410 O   0  0  0  0  0  0  0  0  0  0  0  0
   56.6410   29.3640   45.7370 N   0  0  0  0  0  0  0  0  0  0  0  0
   57.8370   28.8730   45.8890 C   0  0  0  0  0  0  0  0  0  0  0  0
   58.5870   29.1610   46.9920 N   0  0  0  0  0  0  0  0  0  0  0  0
   59.8420   28.6650   47.1650 C   0  0  0  0  0  0  0  0  0  0  0  0
   60.6150   29.0080   48.3990 C   0  0  0  0  0  0  0  0  0  0  0  0
   60.0225   28.7451   49.2877 H   0  0  0  0  0  0  0  0  0  0  0  0
   61.5597   28.4446   48.4083 H   0  0  0  0  0  0  0  0  0  0  0  0
   60.8312   30.0865   48.4083 H   0  0  0  0  0  0  0  0  0  0  0  0
   60.3970   27.8250   46.1910 C   0  0  0  0  0  0  0  0  0  0  0  0
   61.4090   27.4142   46.3219 H   0  0  0  0  0  0  0  0  0  0  0  0
   59.6510   27.5150   45.0520 C   0  0  0  0  0  0  0  0  0  0  0  0
   60.0744   26.8572   44.2786 H   0  0  0  0  0  0  0  0  0  0  0  0
   58.3670   28.0410   44.8960 C   0  0  0  0  0  0  0  0  0  0  0  0
   57.7762   27.8032   43.9991 H   0  0  0  0  0  0  0  0  0  0  0  0
   58.5150   32.0170   48.5620 C   0  0  0  0  0  0  0  0  0  0  0  0
   57.9857   31.1222   48.2025 H   0  0  0  0  0  0  0  0  0  0  0  0
   59.0210   32.0500   49.8620 C   0  0  0  0  0  0  0  0  0  0  0  0
   58.9002   31.1826   50.5276 H   0  0  0  0  0  0  0  0  0  0  0  0
  1  2  1  0
  2  3  2  0
  3  4  1  0
  4  5  1  0
  4  6  2  0
  6  7  1  0
  7  8  2  0
  7  9  1  0
  9 10  1  0
  9 11  1  0
 11 12  2  0
 12 13  1  0
 12 14  1  0
 14 15  1  0
 14 16  2  0
 16 17  1  0
 16 18  1  0
 18 19  1  0
 18 20  2  0
 20 21  1  0
 21 22  2  0
 21 23  1  0
 23 24  2  0
 24 25  1  0
 25 26  1  0
 26 27  1  0
 27 28  1  0
 27 29  1  0
 27 30  1  0
 26 31  2  0
 31 32  1  0
 31 33  1  0
 33 34  1  0
 33 35  2  0
 35 36  1  0
  6 37  1  0
 37 38  1  0
 37 39  2  0
 39 40  1  0
 39  2  1  0
 20 11  1  0
 35 24  1  0
M  CHG  1  25  -1
M  END
>  <UniqueID>  (53) 
50

>  <SMILES>  (53) 
Cc1ccc/c(=N/C(=O)c2ccccc2NC(=O)c2cccnc2)[n-]1

>  <Energy>  (53) 
56.22909567831624

>  <Genealogy>  (53) 
Cc1cccc(=NC(=O)c2ccccc2NC(=O)c2cccnc2)[n-]1 (protonated)
Cc1ccc/c(=N/C(=O)c2ccccc2NC(=O)c2cccnc2)[n-]1 (cis-trans isomerization)
Cc1ccc/c(=N/C(=O)c2ccccc2NC(=O)c2cccnc2)[n-]1 (3D coordinates assigned)
Cc1ccc/c(=N/C(=O)c2ccccc2NC(=O)c2cccnc2)[n-]1 (optimized conformer: 56.22909567831624 kcal/mol)

>  <smiles>  (53) 
Cc1cccc(=NC(=O)c2ccccc2NC(=O)c2cccnc2)[nH]1

>  <score_type>  (53) 
oracle

>  <origin>  (53) 
adg

>  <m_score__min__energy>  (53) 
-10.51

>  <m_primary>  (53) 
energy

$$$$
53:0
     RDKit          3D

 61 64  0  0  0  0  0  0  0  0999 V2000
   59.2670   36.8410   47.0780 H   0  0  0  0  0  0  0  0  0  0  0  0
   59.6690   36.0840   46.4800 N   0  0  0  0  0  0  0  0  0  0  0  0
   59.3570   34.8410   46.6610 C   0  0  0  0  0  0  0  0  0  0  0  0
   59.9000   34.1460   47.6920 N   0  0  0  0  0  0  0  0  0  0  0  0
   59.6220   32.8350   47.9250 C   0  0  0  0  0  0  0  0  0  0  0  0
   60.2790   32.2040   49.1310 C   0  0  0  0  0  0  0  0  0  0  0  0
   60.9592   31.4094   48.7905 H   0  0  0  0  0  0  0  0  0  0  0  0
   60.8270   32.9899   49.6713 H   0  0  0  0  0  0  0  0  0  0  0  0
   59.2650   31.6070   50.0750 C   0  0  0  0  0  0  0  0  0  0  0  0
   58.2390   32.4030   50.6090 C   0  0  0  0  0  0  0  0  0  0  0  0
   58.1901   33.4729   50.3581 H   0  0  0  0  0  0  0  0  0  0  0  0
   57.2800   31.8440   51.4570 C   0  0  0  0  0  0  0  0  0  0  0  0
   56.4795   32.4755   51.8699 H   0  0  0  0  0  0  0  0  0  0  0  0
   57.3330   30.4830   51.7840 C   0  0  0  0  0  0  0  0  0  0  0  0
   56.3050   29.8840   52.6580 C   0  0  0  0  0  0  0  0  0  0  0  0
   56.6120   28.9030   53.3850 O   0  0  0  0  0  0  0  0  0  0  0  0
   54.9620   30.3840   52.6990 N   0  0  0  0  0  0  0  0  0  0  0  0
   54.2380   30.8940   51.5400 C   0  0  0  0  0  0  0  0  0  0  0  0
   54.1946   31.9920   51.5896 H   0  0  0  0  0  0  0  0  0  0  0  0
   54.7579   30.5872   50.6205 H   0  0  0  0  0  0  0  0  0  0  0  0
   52.8190   30.3290   51.5330 C   0  0  0  0  0  0  0  0  0  0  0  0
   52.4310   30.3406   50.5038 H   0  0  0  0  0  0  0  0  0  0  0  0
   52.8469   29.2995   51.9193 H   0  0  0  0  0  0  0  0  0  0  0  0
   51.9110   31.1530   52.4140 C   0  0  0  0  0  0  0  0  0  0  0  0
   51.7600   30.8020   53.7670 C   0  0  0  0  0  0  0  0  0  0  0  0
   52.2888   29.9239   54.1662 H   0  0  0  0  0  0  0  0  0  0  0  0
   50.9420   31.5620   54.6080 C   0  0  0  0  0  0  0  0  0  0  0  0
   50.8326   31.2830   55.6664 H   0  0  0  0  0  0  0  0  0  0  0  0
   50.2640   32.6740   54.1070 C   0  0  0  0  0  0  0  0  0  0  0  0
   49.6160   33.2672   54.7690 H   0  0  0  0  0  0  0  0  0  0  0  0
   50.4080   33.0340   52.7650 C   0  0  0  0  0  0  0  0  0  0  0  0
   49.8664   33.9069   52.3716 H   0  0  0  0  0  0  0  0  0  0  0  0
   51.2400   32.2880   51.9160 C   0  0  0  0  0  0  0  0  0  0  0  0
   51.4040   32.6780   50.5860 O   0  0  0  0  0  0  0  0  0  0  0  0
   52.1900   32.3550   50.0320 H   0  0  0  0  0  0  0  0  0  0  0  0
   58.3940   29.7000   51.3090 C   0  0  0  0  0  0  0  0  0  0  0  0
   58.4710   28.6434   51.6049 H   0  0  0  0  0  0  0  0  0  0  0  0
   59.3550   30.2580   50.4600 C   0  0  0  0  0  0  0  0  0  0  0  0
   60.1856   29.6381   50.0915 H   0  0  0  0  0  0  0  0  0  0  0  0
   58.7470   32.1350   47.0460 C   0  0  0  0  0  0  0  0  0  0  0  0
   58.4500   30.6510   47.2290 C   0  0  0  0  0  0  0  0  0  0  0  0
   58.8816   30.3142   48.1831 H   0  0  0  0  0  0  0  0  0  0  0  0
   57.3588   30.5123   47.2248 H   0  0  0  0  0  0  0  0  0  0  0  0
   59.0200   29.8570   46.1420 N   0  0  0  0  0  0  0  0  0  0  0  0
   58.2430   29.1120   45.1990 C   0  0  0  0  0  0  0  0  0  0  0  0
   58.2560   29.4200   43.9780 O   0  0  0  0  0  0  0  0  0  0  0  0
   57.4040   28.0030   45.6660 C   0  0  0  0  0  0  0  0  0  0  0  0
   56.0740   27.9410   45.4520 N   0  0  0  0  0  0  0  0  0  0  0  0
   55.6970   26.7660   45.9890 C   0  0  0  0  0  0  0  0  0  0  0  0
   54.3840   26.3130   45.9870 O   0  0  0  0  0  0  0  0  0  0  0  0
   56.7590   26.0790   46.5350 C   0  0  0  0  0  0  0  0  0  0  0  0
   56.7320   25.0975   47.0309 H   0  0  0  0  0  0  0  0  0  0  0  0
   57.8610   26.8780   46.3300 C   0  0  0  0  0  0  0  0  0  0  0  0
   58.8968   26.6651   46.6331 H   0  0  0  0  0  0  0  0  0  0  0  0
   58.1160   32.8710   46.0050 C   0  0  0  0  0  0  0  0  0  0  0  0
   57.1190   32.2470   45.0590 C   0  0  0  0  0  0  0  0  0  0  0  0
   56.3258   31.7506   45.6373 H   0  0  0  0  0  0  0  0  0  0  0  0
   56.6758   33.0292   44.4251 H   0  0  0  0  0  0  0  0  0  0  0  0
   57.6288   31.5065   44.4251 H   0  0  0  0  0  0  0  0  0  0  0  0
   58.4550   34.2180   45.8060 C   0  0  0  0  0  0  0  0  0  0  0  0
   58.0072   34.7809   44.9737 H   0  0  0  0  0  0  0  0  0  0  0  0
  1  2  1  0
  2  3  2  0
  3  4  1  0
  4  5  1  0
  5  6  1  0
  6  7  1  0
  6  8  1  0
  6  9  1  0
  9 10  2  0
 10 11  1  0
 10 12  1  0
 12 13  1  0
 12 14  2  0
 14 15  1  0
 15 16  2  0
 15 17  1  0
 17 18  1  0
 18 19  1  0
 18 20  1  0
 18 21  1  0
 21 22  1  0
 21 23  1  0
 21 24  1  0
 24 25  2  0
 25 26  1  0
 25 27  1  0
 27 28  1  0
 27 29  2  0
 29 30  1  0
 29 31  1  0
 31 32  1  0
 31 33  2  0
 33 34  1  0
 34 35  1  0
 14 36  1  0
 36 37  1  0
 36 38  2  0
 38 39  1  0
  5 40  2  0
 40 41  1  0
 41 42  1  0
 41 43  1  0
 41 44  1  0
 44 45  1  0
 45 46  2  0
 45 47  1  0
 47 48  1  0
 48 49  1  0
 49 50  1  0
 49 51  2  0
 51 52  1  0
 51 53  1  0
 53 54  1  0
 40 55  1  0
 55 56  1  0
 56 57  1  0
 56 58  1  0
 56 59  1  0
 55 60  2  0
 60 61  1  0
 60  3  1  0
 38  9  1  0
 53 47  2  0
 33 24  1  0
M  CHG  5   4  -1  17  -1  44  -1  48  -1  50  -1
M  END
>  <UniqueID>  (54) 
51

>  <SMILES>  (54) 
[H]/N=c1/cc(C)c(C[N-]C(=O)c2ccc([O-])[n-]2)c(Cc2ccc(C(=O)[N-]CCc3ccccc3O)cc2)[n-]1

>  <Energy>  (54) 
86.89777499825567

>  <Genealogy>  (54) 
Cc1cc(=N)[n-]c(Cc2ccc(C(=O)[N-]CCc3ccccc3O)cc2)c1C[N-]C(=O)c1ccc([O-])[n-]1 (protonated)
[H]/N=c1/cc(C)c(C[N-]C(=O)c2ccc([O-])[n-]2)c(Cc2ccc(C(=O)[N-]CCc3ccccc3O)cc2)[n-]1 (cis-trans isomerization)
[H]/N=c1/cc(C)c(C[N-]C(=O)c2ccc([O-])[n-]2)c(Cc2ccc(C(=O)[N-]CCc3ccccc3O)cc2)[n-]1 (3D coordinates assigned)
[H]/N=c1/cc(C)c(C[N-]C(=O)c2ccc([O-])[n-]2)c(Cc2ccc(C(=O)[N-]CCc3ccccc3O)cc2)[n-]1 (optimized conformer: 86.89777499825567 kcal/mol)

>  <smiles>  (54) 
Cc1cc(=N)[nH]c(Cc2ccc(C(=O)NCCc3ccccc3O)cc2)c1CNC(=O)c1ccc(O)[nH]1

>  <score_type>  (54) 
oracle

>  <origin>  (54) 
adg

>  <m_score__min__energy>  (54) 
-19.109999999999999

>  <m_primary>  (54) 
energy

$$$$
54:0
     RDKit          3D

 46 48  0  0  0  0  0  0  0  0999 V2000
   58.3337   28.3255   49.2582 H   0  0  0  0  0  0  0  0  0  0  0  0
   58.3300   29.4150   49.4100 C   0  0  0  0  0  0  0  0  0  0  0  0
   57.8060   29.9320   50.5500 N   0  0  0  0  0  0  0  0  0  0  0  0
   57.7750   31.2690   50.7890 C   0  0  0  0  0  0  0  0  0  0  0  0
   57.1800   31.7640   52.0450 C   0  0  0  0  0  0  0  0  0  0  0  0
   57.9160   32.2280   52.9590 O   0  0  0  0  0  0  0  0  0  0  0  0
   55.7600   31.7190   52.2220 N   0  0  0  0  0  0  0  0  0  0  0  0
   54.9620   30.5150   52.0240 C   0  0  0  0  0  0  0  0  0  0  0  0
   55.4541   29.8703   51.2809 H   0  0  0  0  0  0  0  0  0  0  0  0
   54.8721   29.9809   52.9814 H   0  0  0  0  0  0  0  0  0  0  0  0
   53.5960   30.8790   51.5360 C   0  0  0  0  0  0  0  0  0  0  0  0
   52.8720   31.8970   52.0450 N   0  0  0  0  0  0  0  0  0  0  0  0
   51.6990   31.8400   51.3910 C   0  0  0  0  0  0  0  0  0  0  0  0
   50.6570   32.7270   51.6190 O   0  0  0  0  0  0  0  0  0  0  0  0
   51.6590   30.8030   50.4840 C   0  0  0  0  0  0  0  0  0  0  0  0
   50.8247   30.5315   49.8205 H   0  0  0  0  0  0  0  0  0  0  0  0
   52.8800   30.1790   50.5820 C   0  0  0  0  0  0  0  0  0  0  0  0
   53.2194   29.2994   50.0153 H   0  0  0  0  0  0  0  0  0  0  0  0
   58.3230   32.1490   49.8460 C   0  0  0  0  0  0  0  0  0  0  0  0
   58.2781   33.2340   50.0213 H   0  0  0  0  0  0  0  0  0  0  0  0
   58.9280   31.6570   48.6810 C   0  0  0  0  0  0  0  0  0  0  0  0
   59.5370   32.5290   47.9200 N   0  0  0  0  0  0  0  0  0  0  0  0
   58.9950   33.4340   46.9470 C   0  0  0  0  0  0  0  0  0  0  0  0
   59.6490   34.4470   46.5800 O   0  0  0  0  0  0  0  0  0  0  0  0
   57.5800   33.2640   46.4910 C   0  0  0  0  0  0  0  0  0  0  0  0
   56.9011   33.6054   47.2863 H   0  0  0  0  0  0  0  0  0  0  0  0
   57.4058   32.2006   46.2698 H   0  0  0  0  0  0  0  0  0  0  0  0
   57.3180   34.0760   45.2270 C   0  0  0  0  0  0  0  0  0  0  0  0
   56.9911   35.0893   45.5033 H   0  0  0  0  0  0  0  0  0  0  0  0
   58.2417   34.1380   44.6330 H   0  0  0  0  0  0  0  0  0  0  0  0
   56.5322   33.5864   44.6330 H   0  0  0  0  0  0  0  0  0  0  0  0
   58.8670   30.2550   48.4230 C   0  0  0  0  0  0  0  0  0  0  0  0
   59.1660   29.6460   47.1150 C   0  0  0  0  0  0  0  0  0  0  0  0
   60.3650   29.4930   46.7620 O   0  0  0  0  0  0  0  0  0  0  0  0
   58.0840   29.2300   46.2670 N   0  0  0  0  0  0  0  0  0  0  0  0
   57.6290   29.8300   45.0430 C   0  0  0  0  0  0  0  0  0  0  0  0
   58.4160   30.7370   44.3040 C   0  0  0  0  0  0  0  0  0  0  0  0
   59.4229   31.0035   44.6577 H   0  0  0  0  0  0  0  0  0  0  0  0
   57.9210   31.2990   43.1230 C   0  0  0  0  0  0  0  0  0  0  0  0
   58.5318   32.0218   42.5621 H   0  0  0  0  0  0  0  0  0  0  0  0
   56.6540   30.9460   42.6530 C   0  0  0  0  0  0  0  0  0  0  0  0
   56.2664   31.3929   41.7256 H   0  0  0  0  0  0  0  0  0  0  0  0
   55.8800   30.0250   43.3620 C   0  0  0  0  0  0  0  0  0  0  0  0
   54.8861   29.7399   42.9868 H   0  0  0  0  0  0  0  0  0  0  0  0
   56.3650   29.4640   44.5480 C   0  0  0  0  0  0  0  0  0  0  0  0
   55.5850   28.5440   45.2370 O   0  0  0  0  0  0  0  0  0  0  0  0
  1  2  1  0
  2  3  1  0
  3  4  1  0
  4  5  1  0
  5  6  2  0
  5  7  1  0
  7  8  1  0
  8  9  1  0
  8 10  1  0
  8 11  1  0
 11 12  1  0
 12 13  1  0
 13 14  1  0
 13 15  2  0
 15 16  1  0
 15 17  1  0
 17 18  1  0
  4 19  2  0
 19 20  1  0
 19 21  1  0
 21 22  2  0
 22 23  1  0
 23 24  2  0
 23 25  1  0
 25 26  1  0
 25 27  1  0
 25 28  1  0
 28 29  1  0
 28 30  1  0
 28 31  1  0
 21 32  1  0
 32 33  1  0
 33 34  2  0
 33 35  1  0
 35 36  1  0
 36 37  2  0
 37 38  1  0
 37 39  1  0
 39 40  1  0
 39 41  2  0
 41 42  1  0
 41 43  1  0
 43 44  1  0
 43 45  2  0
 45 46  1  0
 32  2  2  0
 45 36  1  0
 17 11  2  0
M  CHG  6   3  -1   7  -1  12  -1  14  -1  35  -1  46  -1
M  END
>  <UniqueID>  (55) 
52

>  <SMILES>  (55) 
CCC(=O)/N=c1/cc(C(=O)[N-]Cc2ccc([O-])[n-]2)[n-]cc1C(=O)[N-]c1ccccc1[O-]

>  <Energy>  (55) 
90.24139863485101

>  <Genealogy>  (55) 
CCC(=O)N=c1cc(C(=O)[N-]Cc2ccc([O-])[n-]2)[n-]cc1C(=O)[N-]c1ccccc1[O-] (protonated)
CCC(=O)/N=c1/cc(C(=O)[N-]Cc2ccc([O-])[n-]2)[n-]cc1C(=O)[N-]c1ccccc1[O-] (cis-trans isomerization)
CCC(=O)/N=c1/cc(C(=O)[N-]Cc2ccc([O-])[n-]2)[n-]cc1C(=O)[N-]c1ccccc1[O-] (3D coordinates assigned)
CCC(=O)/N=c1/cc(C(=O)[N-]Cc2ccc([O-])[n-]2)[n-]cc1C(=O)[N-]c1ccccc1[O-] (optimized conformer: 90.24139863485101 kcal/mol)

>  <smiles>  (55) 
CCC(=O)N=c1cc(C(=O)NCc2ccc(O)[nH]2)[nH]cc1C(=O)Nc1ccccc1O

>  <score_type>  (55) 
oracle

>  <origin>  (55) 
adg

>  <m_score__min__energy>  (55) 
-20.350000000000001

>  <m_primary>  (55) 
energy

$$$$
55:0
     RDKit          3D

 34 36  0  0  0  0  0  0  0  0999 V2000
   57.9210   32.3400   42.8030 C   0  0  0  0  0  0  0  0  0  0  0  0
   57.6410   32.3540   44.5600 S   0  0  0  0  0  0  0  0  0  0  0  0
   58.9360   32.5490   45.2960 O   0  0  0  0  0  0  0  0  0  0  0  0
   56.7200   33.4950   44.8920 O   0  0  0  0  0  0  0  0  0  0  0  0
   56.8900   30.8720   45.0580 N   0  0  0  0  0  0  0  0  0  0  0  0
   57.5690   29.7030   45.5400 C   0  0  0  0  0  0  0  0  0  0  0  0
   58.9280   29.7280   45.9030 C   0  0  0  0  0  0  0  0  0  0  0  0
   59.5570   28.5660   46.3500 C   0  0  0  0  0  0  0  0  0  0  0  0
   58.8420   27.3730   46.4520 C   0  0  0  0  0  0  0  0  0  0  0  0
   57.4790   27.3290   46.1170 C   0  0  0  0  0  0  0  0  0  0  0  0
   56.7480   26.0460   46.2450 C   0  0  0  0  0  0  0  0  0  0  0  0
   57.3410   24.9240   46.8440 C   0  0  0  0  0  0  0  0  0  0  0  0
   56.6310   23.7230   46.9340 C   0  0  0  0  0  0  0  0  0  0  0  0
   57.1840   22.7300   47.4780 O   0  0  0  0  0  0  0  0  0  0  0  0
   55.3210   23.6390   46.4130 C   0  0  0  0  0  0  0  0  0  0  0  0
   54.5440   22.4580   46.4690 C   0  0  0  0  0  0  0  0  0  0  0  0
   55.0370   21.2970   47.0600 O   0  0  0  0  0  0  0  0  0  0  0  0
   53.2520   22.4420   45.9250 C   0  0  0  0  0  0  0  0  0  0  0  0
   52.4880   21.2810   45.9800 O   0  0  0  0  0  0  0  0  0  0  0  0
   52.7250   23.5870   45.3240 C   0  0  0  0  0  0  0  0  0  0  0  0
   53.4800   24.7580   45.2620 C   0  0  0  0  0  0  0  0  0  0  0  0
   54.7700   24.7930   45.8010 C   0  0  0  0  0  0  0  0  0  0  0  0
   55.4920   25.9420   45.7340 N   0  0  0  0  0  0  0  0  0  0  0  0
   56.8510   28.5000   45.6400 C   0  0  0  0  0  0  0  0  0  0  0  0
   55.5180   28.4710   45.2360 O   0  0  0  0  0  0  0  0  0  0  0  0
   59.0016   32.2860   42.6043 H   0  0  0  0  0  0  0  0  0  0  0  0
   57.4224   31.4657   42.3592 H   0  0  0  0  0  0  0  0  0  0  0  0
   57.5121   33.2597   42.3592 H   0  0  0  0  0  0  0  0  0  0  0  0
   59.4965   30.6672   45.8341 H   0  0  0  0  0  0  0  0  0  0  0  0
   60.6222   28.5908   46.6234 H   0  0  0  0  0  0  0  0  0  0  0  0
   59.3493   26.4601   46.7973 H   0  0  0  0  0  0  0  0  0  0  0  0
   58.3641   24.9894   47.2426 H   0  0  0  0  0  0  0  0  0  0  0  0
   51.7110   23.5653   44.8981 H   0  0  0  0  0  0  0  0  0  0  0  0
   53.0595   25.6570   44.7876 H   0  0  0  0  0  0  0  0  0  0  0  0
  1  2  1  0
  2  3  2  0
  2  4  2  0
  2  5  1  0
  5  6  1  0
  6  7  2  0
  7  8  1  0
  8  9  2  0
  9 10  1  0
 10 11  1  0
 11 12  2  0
 12 13  1  0
 13 14  2  0
 13 15  1  0
 15 16  2  0
 16 17  1  0
 16 18  1  0
 18 19  1  0
 18 20  2  0
 20 21  1  0
 21 22  2  0
 22 23  1  0
 10 24  2  0
 24 25  1  0
 24  6  1  0
 23 11  1  0
 22 15  1  0
  1 26  1  0
  1 27  1  0
  1 28  1  0
  7 29  1  0
  8 30  1  0
  9 31  1  0
 12 32  1  0
 20 33  1  0
 21 34  1  0
M  CHG  5   5  -1  17  -1  19  -1  23  -1  25  -1
M  END
>  <UniqueID>  (56) 
53

>  <SMILES>  (56) 
CS(=O)(=O)[N-]c1cccc(-c2cc(=O)c3c([O-])c([O-])ccc3[n-]2)c1[O-]

>  <Energy>  (56) 
48.877585100557276

>  <Genealogy>  (56) 
CS(=O)(=O)[N-]c1cccc(-c2cc(=O)c3c([O-])c([O-])ccc3[n-]2)c1[O-] (protonated)
CS(=O)(=O)[N-]c1cccc(-c2cc(=O)c3c([O-])c([O-])ccc3[n-]2)c1[O-] (3D coordinates assigned)
CS(=O)(=O)[N-]c1cccc(-c2cc(=O)c3c([O-])c([O-])ccc3[n-]2)c1[O-] (optimized conformer: 48.877585100557276 kcal/mol)

>  <smiles>  (56) 
CS(=O)(=O)Nc1cccc(-c2cc(=O)c3c(O)c(O)ccc3[nH]2)c1O

>  <score_type>  (56) 
oracle

>  <origin>  (56) 
adg

>  <m_score__min__energy>  (56) 
-17.16

>  <m_primary>  (56) 
energy

$$$$
56:0
     RDKit          3D

 51 54  0  0  0  0  0  0  0  0999 V2000
   58.6160   29.5210   47.7550 C   0  0  0  0  0  0  0  0  0  0  0  0
   58.0130   29.3450   46.5690 C   0  0  0  0  0  0  0  0  0  0  0  0
   57.6130   28.1310   45.9830 C   0  0  0  0  0  0  0  0  0  0  0  0
   57.6200   26.8680   46.4580 C   0  0  0  0  0  0  0  0  0  0  0  0
   57.0000   25.7000   45.8070 C   0  0  0  0  0  0  0  0  0  0  0  0
   55.6100   25.6400   45.6370 C   0  0  0  0  0  0  0  0  0  0  0  0
   54.8020   26.7010   46.0310 O   0  0  0  0  0  0  0  0  0  0  0  0
   55.0420   24.5410   45.0750 N   0  0  0  0  0  0  0  0  0  0  0  0
   55.7990   23.4830   44.6850 C   0  0  0  0  0  0  0  0  0  0  0  0
   55.2510   22.4780   44.1630 O   0  0  0  0  0  0  0  0  0  0  0  0
   57.1440   23.5070   44.8640 N   0  0  0  0  0  0  0  0  0  0  0  0
   57.7600   24.5810   45.4210 C   0  0  0  0  0  0  0  0  0  0  0  0
   59.0080   24.5620   45.5900 O   0  0  0  0  0  0  0  0  0  0  0  0
   57.1410   28.4460   44.7190 C   0  0  0  0  0  0  0  0  0  0  0  0
   57.2330   29.8160   44.5870 C   0  0  0  0  0  0  0  0  0  0  0  0
   56.8190   30.5860   43.3690 C   0  0  0  0  0  0  0  0  0  0  0  0
   57.7500   30.3630   45.7090 N   0  0  0  0  0  0  0  0  0  0  0  0
   58.0410   31.7590   45.8930 C   0  0  0  0  0  0  0  0  0  0  0  0
   57.3780   32.7260   45.1260 C   0  0  0  0  0  0  0  0  0  0  0  0
   57.6720   34.0810   45.2970 C   0  0  0  0  0  0  0  0  0  0  0  0
   58.6260   34.4790   46.2380 C   0  0  0  0  0  0  0  0  0  0  0  0
   59.2920   33.5220   47.0230 C   0  0  0  0  0  0  0  0  0  0  0  0
   60.3010   33.9430   48.0220 C   0  0  0  0  0  0  0  0  0  0  0  0
   60.0140   34.8500   48.8500 O   0  0  0  0  0  0  0  0  0  0  0  0
   61.6130   33.3530   48.0500 N   0  0  0  0  0  0  0  0  0  0  0  0
   62.7760   34.2070   48.3180 C   0  0  0  0  0  0  0  0  0  0  0  0
   64.0780   33.4230   48.1350 C   0  0  0  0  0  0  0  0  0  0  0  0
   63.9530   32.5490   46.9640 N   0  0  0  0  0  0  0  0  0  0  0  0
   62.9800   31.4640   47.1910 C   0  0  0  0  0  0  0  0  0  0  0  0
   61.7770   31.8930   48.0590 C   0  0  0  0  0  0  0  0  0  0  0  0
   59.0070   32.1600   46.8280 C   0  0  0  0  0  0  0  0  0  0  0  0
   58.8760   30.5344   48.0948 H   0  0  0  0  0  0  0  0  0  0  0  0
   58.8503   28.6519   48.3873 H   0  0  0  0  0  0  0  0  0  0  0  0
   58.1336   26.6949   47.4152 H   0  0  0  0  0  0  0  0  0  0  0  0
   56.7649   27.7389   43.9650 H   0  0  0  0  0  0  0  0  0  0  0  0
   56.3188   31.5164   43.6759 H   0  0  0  0  0  0  0  0  0  0  0  0
   57.7083   30.8286   42.7688 H   0  0  0  0  0  0  0  0  0  0  0  0
   56.1262   29.9780   42.7688 H   0  0  0  0  0  0  0  0  0  0  0  0
   56.6238   32.4174   44.3871 H   0  0  0  0  0  0  0  0  0  0  0  0
   57.1516   34.8364   44.6898 H   0  0  0  0  0  0  0  0  0  0  0  0
   58.8568   35.5470   46.3648 H   0  0  0  0  0  0  0  0  0  0  0  0
   62.7666   35.0585   47.6217 H   0  0  0  0  0  0  0  0  0  0  0  0
   62.7210   34.5626   49.3575 H   0  0  0  0  0  0  0  0  0  0  0  0
   64.9118   34.1243   47.9835 H   0  0  0  0  0  0  0  0  0  0  0  0
   64.2731   32.8154   49.0310 H   0  0  0  0  0  0  0  0  0  0  0  0
   64.8880   32.1180   46.7750 H   0  0  0  0  0  0  0  0  0  0  0  0
   62.6027   31.1238   46.2153 H   0  0  0  0  0  0  0  0  0  0  0  0
   63.5049   30.6646   47.7345 H   0  0  0  0  0  0  0  0  0  0  0  0
   60.8632   31.4263   47.6626 H   0  0  0  0  0  0  0  0  0  0  0  0
   61.9590   31.5680   49.0940 H   0  0  0  0  0  0  0  0  0  0  0  0
   59.5463   31.4011   47.4139 H   0  0  0  0  0  0  0  0  0  0  0  0
  1  2  2  0
  2  3  1  0
  3  4  2  3
  4  5  1  0
  5  6  2  0
  6  7  1  0
  6  8  1  0
  8  9  1  0
  9 10  2  0
  9 11  1  0
 11 12  1  0
 12 13  2  0
  3 14  1  0
 14 15  2  0
 15 16  1  0
 15 17  1  0
 17 18  1  0
 18 19  2  0
 19 20  1  0
 20 21  2  0
 21 22  1  0
 22 23  1  0
 23 24  2  0
 23 25  1  0
 25 26  1  0
 26 27  1  0
 27 28  1  0
 28 29  1  0
 29 30  1  0
 22 31  2  0
 17  2  1  0
 31 18  1  0
 12  5  1  0
 30 25  1  0
  1 32  1  0
  1 33  1  0
  4 34  1  0
 14 35  1  0
 16 36  1  0
 16 37  1  0
 16 38  1  0
 19 39  1  0
 20 40  1  0
 21 41  1  0
 26 42  1  0
 26 43  1  0
 27 44  1  0
 27 45  1  0
 28 46  1  0
 29 47  1  0
 29 48  1  0
 30 49  1  0
 30 50  1  0
 31 51  1  0
M  CHG  3   7  -1   8  -1  11  -1
M  END
>  <UniqueID>  (57) 
54

>  <SMILES>  (57) 
C=c1c(=Cc2c([O-])[n-]c(=O)[n-]c2=O)cc(C)n1-c1cccc(C(=O)N2CCNCC2)c1

>  <Energy>  (57) 
110.54106369536677

>  <Genealogy>  (57) 
C=c1c(=Cc2c([O-])[n-]c(=O)[n-]c2=O)cc(C)n1-c1cccc(C(=O)N2CCNCC2)c1 (protonated)
C=c1c(=Cc2c([O-])[n-]c(=O)[n-]c2=O)cc(C)n1-c1cccc(C(=O)N2CCNCC2)c1 (3D coordinates assigned)
C=c1c(=Cc2c([O-])[n-]c(=O)[n-]c2=O)cc(C)n1-c1cccc(C(=O)N2CCNCC2)c1 (nonaromatic ring conformer: 110.54106369536677 kcal/mol)

>  <smiles>  (57) 
C=c1c(=Cc2c(O)[nH]c(=O)[nH]c2=O)cc(C)n1-c1cccc(C(=O)N2CCNCC2)c1

>  <score_type>  (57) 
oracle

>  <origin>  (57) 
adg

>  <m_score__min__energy>  (57) 
-17.640000000000001

>  <m_primary>  (57) 
energy

$$$$
57:0
     RDKit          3D

 60 63  0  0  0  0  0  0  0  0999 V2000
   58.2870   28.1380   48.3200 C   0  0  0  0  0  0  0  0  0  0  0  0
   59.1020   28.7810   47.4730 C   0  0  0  0  0  0  0  0  0  0  0  0
   59.2300   28.5710   46.0890 C   0  0  0  0  0  0  0  0  0  0  0  0
   58.4910   27.8430   45.2310 C   0  0  0  0  0  0  0  0  0  0  0  0
   57.3360   27.0050   45.5920 C   0  0  0  0  0  0  0  0  0  0  0  0
   57.4180   25.7720   46.1240 N   0  0  0  0  0  0  0  0  0  0  0  0
   56.1330   25.4680   46.4060 C   0  0  0  0  0  0  0  0  0  0  0  0
   55.7920   24.3670   46.9100 O   0  0  0  0  0  0  0  0  0  0  0  0
   55.2420   26.4400   46.1110 N   0  0  0  0  0  0  0  0  0  0  0  0
   56.0240   27.4100   45.6090 C   0  0  0  0  0  0  0  0  0  0  0  0
   55.5470   28.6420   45.1780 O   0  0  0  0  0  0  0  0  0  0  0  0
   60.3280   29.3160   45.6860 C   0  0  0  0  0  0  0  0  0  0  0  0
   60.7770   30.0000   46.7950 C   0  0  0  0  0  0  0  0  0  0  0  0
   61.9470   30.9380   46.8030 C   0  0  0  0  0  0  0  0  0  0  0  0
   60.0500   29.6610   47.8820 N   0  0  0  0  0  0  0  0  0  0  0  0
   60.2710   30.1360   49.2220 C   0  0  0  0  0  0  0  0  0  0  0  0
   61.1100   29.3970   50.0690 C   0  0  0  0  0  0  0  0  0  0  0  0
   61.3030   29.7890   51.3950 C   0  0  0  0  0  0  0  0  0  0  0  0
   60.6480   30.9160   51.8910 C   0  0  0  0  0  0  0  0  0  0  0  0
   59.8160   31.6660   51.0590 C   0  0  0  0  0  0  0  0  0  0  0  0
   59.6380   31.3090   49.7090 C   0  0  0  0  0  0  0  0  0  0  0  0
   58.7630   32.1740   48.8250 C   0  0  0  0  0  0  0  0  0  0  0  0
   59.5410   32.9040   47.7140 C   0  0  0  0  0  0  0  0  0  0  0  0
   60.1890   34.2190   48.1770 C   0  0  0  0  0  0  0  0  0  0  0  0
   59.6270   35.3700   47.4650 N   0  0  0  0  0  0  0  0  0  0  0  0
   59.3450   34.9610   45.7970 S   0  0  0  0  0  0  0  0  0  0  0  0
   60.2710   33.8540   45.3770 O   0  0  0  0  0  0  0  0  0  0  0  0
   59.6210   36.1710   44.9490 O   0  0  0  0  0  0  0  0  0  0  0  0
   57.6550   34.4350   45.5320 C   0  0  0  0  0  0  0  0  0  0  0  0
   57.6120   33.1180   44.8080 C   0  0  0  0  0  0  0  0  0  0  0  0
   57.3900   31.9260   45.5200 C   0  0  0  0  0  0  0  0  0  0  0  0
   57.3870   30.6980   44.8530 C   0  0  0  0  0  0  0  0  0  0  0  0
   57.6090   30.6490   43.4740 C   0  0  0  0  0  0  0  0  0  0  0  0
   57.8350   31.8280   42.7600 C   0  0  0  0  0  0  0  0  0  0  0  0
   57.8380   33.0590   43.4230 C   0  0  0  0  0  0  0  0  0  0  0  0
   58.2850   28.4014   49.3880 H   0  0  0  0  0  0  0  0  0  0  0  0
   57.6199   27.3467   47.9474 H   0  0  0  0  0  0  0  0  0  0  0  0
   58.7747   27.8773   44.1688 H   0  0  0  0  0  0  0  0  0  0  0  0
   60.7584   29.3538   44.6744 H   0  0  0  0  0  0  0  0  0  0  0  0
   62.2288   31.1639   47.8420 H   0  0  0  0  0  0  0  0  0  0  0  0
   62.7970   30.4683   46.2864 H   0  0  0  0  0  0  0  0  0  0  0  0
   61.6734   31.8698   46.2864 H   0  0  0  0  0  0  0  0  0  0  0  0
   61.6201   28.5012   49.6853 H   0  0  0  0  0  0  0  0  0  0  0  0
   61.9715   29.2091   52.0484 H   0  0  0  0  0  0  0  0  0  0  0  0
   60.7876   31.2143   52.9405 H   0  0  0  0  0  0  0  0  0  0  0  0
   59.2935   32.5459   51.4624 H   0  0  0  0  0  0  0  0  0  0  0  0
   58.0029   31.5333   48.3541 H   0  0  0  0  0  0  0  0  0  0  0  0
   58.3175   32.9468   49.4686 H   0  0  0  0  0  0  0  0  0  0  0  0
   60.3344   32.2354   47.3484 H   0  0  0  0  0  0  0  0  0  0  0  0
   58.8153   33.1616   46.9285 H   0  0  0  0  0  0  0  0  0  0  0  0
   60.0134   34.3445   49.2556 H   0  0  0  0  0  0  0  0  0  0  0  0
   61.2664   34.1697   47.9608 H   0  0  0  0  0  0  0  0  0  0  0  0
   58.7000   35.6150   47.8820 H   0  0  0  0  0  0  0  0  0  0  0  0
   57.1540   34.3277   46.5054 H   0  0  0  0  0  0  0  0  0  0  0  0
   57.1430   35.1910   44.9186 H   0  0  0  0  0  0  0  0  0  0  0  0
   57.2181   31.9602   46.6059 H   0  0  0  0  0  0  0  0  0  0  0  0
   57.2097   29.7686   45.4141 H   0  0  0  0  0  0  0  0  0  0  0  0
   57.6057   29.6815   42.9507 H   0  0  0  0  0  0  0  0  0  0  0  0
   58.0108   31.7880   41.6749 H   0  0  0  0  0  0  0  0  0  0  0  0
   58.0181   33.9852   42.8575 H   0  0  0  0  0  0  0  0  0  0  0  0
  1  2  2  0
  2  3  1  0
  3  4  2  3
  4  5  1  0
  5  6  1  0
  6  7  1  0
  7  8  2  0
  7  9  1  0
  9 10  1  0
 10 11  1  0
  3 12  1  0
 12 13  2  0
 13 14  1  0
 13 15  1  0
 15 16  1  0
 16 17  2  0
 17 18  1  0
 18 19  2  0
 19 20  1  0
 20 21  2  0
 21 22  1  0
 22 23  1  0
 23 24  1  0
 24 25  1  0
 25 26  1  0
 26 27  2  0
 26 28  2  0
 26 29  1  0
 29 30  1  0
 30 31  2  0
 31 32  1  0
 32 33  2  0
 33 34  1  0
 34 35  2  0
 15  2  1  0
 21 16  1  0
 35 30  1  0
 10  5  2  0
  1 36  1  0
  1 37  1  0
  4 38  1  0
 12 39  1  0
 14 40  1  0
 14 41  1  0
 14 42  1  0
 17 43  1  0
 18 44  1  0
 19 45  1  0
 20 46  1  0
 22 47  1  0
 22 48  1  0
 23 49  1  0
 23 50  1  0
 24 51  1  0
 24 52  1  0
 25 53  1  0
 29 54  1  0
 29 55  1  0
 31 56  1  0
 32 57  1  0
 33 58  1  0
 34 59  1  0
 35 60  1  0
M  CHG  3   6  -1   9  -1  11  -1
M  END
>  <UniqueID>  (58) 
55

>  <SMILES>  (58) 
C=c1c(=Cc2[n-]c(=O)[n-]c2[O-])cc(C)n1-c1ccccc1CCCNS(=O)(=O)Cc1ccccc1

>  <Energy>  (58) 
126.17677355631544

>  <Genealogy>  (58) 
C=c1c(=Cc2[n-]c(=O)[n-]c2[O-])cc(C)n1-c1ccccc1CCCNS(=O)(=O)Cc1ccccc1 (protonated)
C=c1c(=Cc2[n-]c(=O)[n-]c2[O-])cc(C)n1-c1ccccc1CCCNS(=O)(=O)Cc1ccccc1 (3D coordinates assigned)
C=c1c(=Cc2[n-]c(=O)[n-]c2[O-])cc(C)n1-c1ccccc1CCCNS(=O)(=O)Cc1ccccc1 (optimized conformer: 126.17677355631544 kcal/mol)

>  <smiles>  (58) 
C=c1c(=Cc2[nH]c(=O)[nH]c2O)cc(C)n1-c1ccccc1CCCNS(=O)(=O)Cc1ccccc1

>  <score_type>  (58) 
oracle

>  <origin>  (58) 
adg

>  <m_score__min__energy>  (58) 
-17.84

>  <m_primary>  (58) 
energy

$$$$
58:0
     RDKit          3D

 38 40  0  0  0  0  0  0  0  0999 V2000
   54.6190   25.9720   45.8900 N   0  0  0  0  0  0  0  0  0  0  0  0
   55.7180   26.6440   46.0010 C   0  0  0  0  0  0  0  0  0  0  0  0
   56.7790   26.1860   46.7020 N   0  0  0  0  0  0  0  0  0  0  0  0
   57.6790   27.1730   46.5570 C   0  0  0  0  0  0  0  0  0  0  0  0
   58.9540   27.1560   47.1110 O   0  0  0  0  0  0  0  0  0  0  0  0
   57.1500   28.1770   45.7890 C   0  0  0  0  0  0  0  0  0  0  0  0
   57.8180   29.3880   45.4170 N   0  0  0  0  0  0  0  0  0  0  0  0
   57.1050   30.5230   44.8350 C   0  0  0  0  0  0  0  0  0  0  0  0
   57.8230   31.8130   45.1450 C   0  0  0  0  0  0  0  0  0  0  0  0
   57.7340   32.8910   44.2470 C   0  0  0  0  0  0  0  0  0  0  0  0
   58.4030   34.0870   44.5100 C   0  0  0  0  0  0  0  0  0  0  0  0
   59.1680   34.2210   45.6690 C   0  0  0  0  0  0  0  0  0  0  0  0
   59.2680   33.1580   46.5700 C   0  0  0  0  0  0  0  0  0  0  0  0
   58.6020   31.9440   46.3160 C   0  0  0  0  0  0  0  0  0  0  0  0
   58.6970   30.8340   47.2220 N   0  0  0  0  0  0  0  0  0  0  0  0
   60.1680   30.0760   47.7370 S   0  0  0  0  0  0  0  0  0  0  0  0
   59.9200   29.3130   49.0080 O   0  0  0  0  0  0  0  0  0  0  0  0
   60.6730   29.1450   46.6700 O   0  0  0  0  0  0  0  0  0  0  0  0
   61.3710   31.3180   48.0380 C   0  0  0  0  0  0  0  0  0  0  0  0
   62.4370   31.4990   47.1470 C   0  0  0  0  0  0  0  0  0  0  0  0
   63.3800   32.4950   47.4050 C   0  0  0  0  0  0  0  0  0  0  0  0
   63.2520   33.2940   48.5430 C   0  0  0  0  0  0  0  0  0  0  0  0
   62.1770   33.0830   49.4090 C   0  0  0  0  0  0  0  0  0  0  0  0
   61.2670   32.1080   49.1400 N   0  0  0  0  0  0  0  0  0  0  0  0
   55.8960   27.8550   45.4250 N   0  0  0  0  0  0  0  0  0  0  0  0
   53.7020   26.3830   46.1770 H   0  0  0  0  0  0  0  0  0  0  0  0
   59.4190   28.0210   47.3610 H   0  0  0  0  0  0  0  0  0  0  0  0
   58.8480   29.4670   45.5690 H   0  0  0  0  0  0  0  0  0  0  0  0
   57.0477   30.3937   43.7441 H   0  0  0  0  0  0  0  0  0  0  0  0
   56.0936   30.5664   45.2653 H   0  0  0  0  0  0  0  0  0  0  0  0
   57.1331   32.7910   43.3311 H   0  0  0  0  0  0  0  0  0  0  0  0
   58.3271   34.9257   43.8023 H   0  0  0  0  0  0  0  0  0  0  0  0
   59.6934   35.1654   45.8738 H   0  0  0  0  0  0  0  0  0  0  0  0
   59.8707   33.2703   47.4833 H   0  0  0  0  0  0  0  0  0  0  0  0
   62.5297   30.8632   46.2541 H   0  0  0  0  0  0  0  0  0  0  0  0
   64.2216   32.6501   46.7139 H   0  0  0  0  0  0  0  0  0  0  0  0
   63.9902   34.0814   48.7551 H   0  0  0  0  0  0  0  0  0  0  0  0
   62.0659   33.7054   50.3091 H   0  0  0  0  0  0  0  0  0  0  0  0
  1  2  2  3
  2  3  1  0
  3  4  1  0
  4  5  1  0
  4  6  2  0
  6  7  1  0
  7  8  1  0
  8  9  1  0
  9 10  2  0
 10 11  1  0
 11 12  2  0
 12 13  1  0
 13 14  2  0
 14 15  1  0
 15 16  1  0
 16 17  2  0
 16 18  2  0
 16 19  1  0
 19 20  2  0
 20 21  1  0
 21 22  2  0
 22 23  1  0
 23 24  2  0
  6 25  1  0
 25  2  1  0
 14  9  1  0
 24 19  1  0
  1 26  1  0
  5 27  1  0
  7 28  1  0
  8 29  1  0
  8 30  1  0
 10 31  1  0
 11 32  1  0
 12 33  1  0
 13 34  1  0
 20 35  1  0
 21 36  1  0
 22 37  1  0
 23 38  1  0
M  CHG  3   3  -1  15  -1  25  -1
M  END
>  <UniqueID>  (59) 
56

>  <SMILES>  (59) 
N=c1[n-]c(O)c(NCc2ccccc2[N-]S(=O)(=O)c2ccccn2)[n-]1

>  <Energy>  (59) 
71.06781485403373

>  <Genealogy>  (59) 
N=c1[n-]c(O)c(NCc2ccccc2[N-]S(=O)(=O)c2ccccn2)[n-]1 (protonated)
N=c1[n-]c(O)c(NCc2ccccc2[N-]S(=O)(=O)c2ccccn2)[n-]1 (3D coordinates assigned)
N=c1[n-]c(O)c(NCc2ccccc2[N-]S(=O)(=O)c2ccccn2)[n-]1 (optimized conformer: 71.06781485403373 kcal/mol)

>  <smiles>  (59) 
N=c1[nH]c(O)c(NCc2ccccc2NS(=O)(=O)c2ccccn2)[nH]1

>  <score_type>  (59) 
oracle

>  <origin>  (59) 
adg

>  <m_score__min__energy>  (59) 
-13.81

>  <m_primary>  (59) 
energy

$$$$
59:0
     RDKit          3D

 45 47  0  0  0  0  0  0  0  0999 V2000
   60.2170   29.6270   52.0880 C   0  0  0  0  0  0  0  0  0  0  0  0
   59.6390   30.2800   53.3440 C   0  0  0  0  0  0  0  0  0  0  0  0
   58.2640   30.9620   53.1610 C   0  0  1  0  0  0  0  0  0  0  0  0
   58.3610   32.7780   52.9550 S   0  0  0  0  0  0  0  0  0  0  0  0
   58.7740   32.8100   51.2060 C   0  0  0  0  0  0  0  0  0  0  0  0
   59.6400   33.8060   50.7380 C   0  0  0  0  0  0  0  0  0  0  0  0
   59.8950   33.9310   49.3710 C   0  0  0  0  0  0  0  0  0  0  0  0
   59.2930   33.0550   48.4590 C   0  0  0  0  0  0  0  0  0  0  0  0
   59.5940   33.2460   46.7340 S   0  0  0  0  0  0  0  0  0  0  0  0
   60.4060   34.4890   46.5030 O   0  0  0  0  0  0  0  0  0  0  0  0
   60.3580   32.0650   46.2030 O   0  0  0  0  0  0  0  0  0  0  0  0
   58.0260   33.3910   45.8930 C   0  0  0  0  0  0  0  0  0  0  0  0
   58.0720   32.6950   44.5300 C   0  0  0  0  0  0  0  0  0  0  0  0
   57.4520   31.3280   44.6160 C   0  0  0  0  0  0  0  0  0  0  0  0
   56.2200   31.2270   44.8560 O   0  0  0  0  0  0  0  0  0  0  0  0
   58.2470   30.1370   44.5570 N   0  0  0  0  0  0  0  0  0  0  0  0
   57.9610   28.9120   45.2420 C   0  0  0  0  0  0  0  0  0  0  0  0
   58.9810   28.2700   45.9540 C   0  0  0  0  0  0  0  0  0  0  0  0
   58.7170   27.0870   46.6480 C   0  0  0  0  0  0  0  0  0  0  0  0
   57.4260   26.5540   46.6600 C   0  0  0  0  0  0  0  0  0  0  0  0
   56.3940   27.2060   45.9760 C   0  0  0  0  0  0  0  0  0  0  0  0
   55.1070   26.6850   45.9970 O   0  0  0  0  0  0  0  0  0  0  0  0
   56.6590   28.3870   45.2740 C   0  0  0  0  0  0  0  0  0  0  0  0
   58.4350   32.0500   48.9260 C   0  0  0  0  0  0  0  0  0  0  0  0
   58.1870   31.9130   50.2970 C   0  0  0  0  0  0  0  0  0  0  0  0
   57.4120   30.8010   50.7510 N   0  0  0  0  0  0  0  0  0  0  0  0
   57.4120   30.3230   52.0980 C   0  0  0  0  0  0  0  0  0  0  0  0
   56.7120   29.3190   52.3880 O   0  0  0  0  0  0  0  0  0  0  0  0
   60.9202   28.8325   52.3783 H   0  0  0  0  0  0  0  0  0  0  0  0
   59.4008   29.1941   51.4911 H   0  0  0  0  0  0  0  0  0  0  0  0
   60.7458   30.3846   51.4911 H   0  0  0  0  0  0  0  0  0  0  0  0
   59.5323   29.5012   54.1135 H   0  0  0  0  0  0  0  0  0  0  0  0
   60.3409   31.0803   53.6212 H   0  0  0  0  0  0  0  0  0  0  0  0
   57.7499   30.7894   54.1180 H   0  0  0  0  0  0  0  0  0  0  0  0
   60.1212   34.4925   51.4501 H   0  0  0  0  0  0  0  0  0  0  0  0
   60.5708   34.7199   49.0092 H   0  0  0  0  0  0  0  0  0  0  0  0
   57.2423   32.9257   46.5089 H   0  0  0  0  0  0  0  0  0  0  0  0
   57.8080   34.4577   45.7363 H   0  0  0  0  0  0  0  0  0  0  0  0
   57.5175   33.2986   43.7964 H   0  0  0  0  0  0  0  0  0  0  0  0
   59.1219   32.5907   44.2189 H   0  0  0  0  0  0  0  0  0  0  0  0
   59.9939   28.6987   45.9670 H   0  0  0  0  0  0  0  0  0  0  0  0
   59.5276   26.5740   47.1863 H   0  0  0  0  0  0  0  0  0  0  0  0
   57.2206   25.6220   47.2070 H   0  0  0  0  0  0  0  0  0  0  0  0
   55.8453   28.9055   44.7458 H   0  0  0  0  0  0  0  0  0  0  0  0
   57.9541   31.3655   48.2118 H   0  0  0  0  0  0  0  0  0  0  0  0
  1  2  1  0
  2  3  1  0
  3  4  1  0
  4  5  1  0
  5  6  2  0
  6  7  1  0
  7  8  2  0
  8  9  1  0
  9 10  2  0
  9 11  2  0
  9 12  1  0
 12 13  1  0
 13 14  1  0
 14 15  2  0
 14 16  1  0
 16 17  1  0
 17 18  2  0
 18 19  1  0
 19 20  2  0
 20 21  1  0
 21 22  1  0
 21 23  2  0
  8 24  1  0
 24 25  2  0
 25 26  1  0
 26 27  1  0
 27 28  2  0
 27  3  1  0
 25  5  1  0
 23 17  1  0
  1 29  1  0
  1 30  1  0
  1 31  1  0
  2 32  1  0
  2 33  1  0
  3 34  1  1
  6 35  1  0
  7 36  1  0
 12 37  1  0
 12 38  1  0
 13 39  1  0
 13 40  1  0
 18 41  1  0
 19 42  1  0
 20 43  1  0
 23 44  1  0
 24 45  1  0
M  CHG  3  16  -1  22  -1  26  -1
M  END
>  <UniqueID>  (60) 
57

>  <SMILES>  (60) 
CC[C@H]1Sc2ccc(S(=O)(=O)CCC(=O)[N-]c3cccc([O-])c3)cc2[N-]C1=O

>  <Energy>  (60) 
46.383584736165396

>  <Genealogy>  (60) 
CCC1Sc2ccc(S(=O)(=O)CCC(=O)[N-]c3cccc([O-])c3)cc2[N-]C1=O (protonated)
CC[C@H]1Sc2ccc(S(=O)(=O)CCC(=O)[N-]c3cccc([O-])c3)cc2[N-]C1=O (chirality)
CC[C@H]1Sc2ccc(S(=O)(=O)CCC(=O)[N-]c3cccc([O-])c3)cc2[N-]C1=O (3D coordinates assigned)
CC[C@H]1Sc2ccc(S(=O)(=O)CCC(=O)[N-]c3cccc([O-])c3)cc2[N-]C1=O (nonaromatic ring conformer: 46.383584736165396 kcal/mol)

>  <smiles>  (60) 
CCC1Sc2ccc(S(=O)(=O)CCC(=O)Nc3cccc(O)c3)cc2NC1=O

>  <score_type>  (60) 
oracle

>  <origin>  (60) 
adg

>  <m_score__min__energy>  (60) 
-15.59

>  <m_primary>  (60) 
energy

$$$$
60:0
     RDKit          3D

 37 39  0  0  1  0  0  0  0  0999 V2000
   59.7420   34.5820   48.9710 C   0  0  0  0  0  0  0  0  0  0  0  0
   59.2730   34.0030   47.6850 C   0  0  0  0  0  0  0  0  0  0  0  0
   58.8220   32.7040   47.6400 C   0  0  0  0  0  0  0  0  0  0  0  0
   58.3800   32.1540   46.4320 C   0  0  0  0  0  0  0  0  0  0  0  0
   58.3870   32.8940   45.2690 C   0  0  0  0  0  0  0  0  0  0  0  0
   57.9160   32.2650   44.0460 C   0  0  0  0  0  0  0  0  0  0  0  0
   58.2510   32.7110   42.8220 N   0  0  0  0  0  0  0  0  0  0  0  0
   57.6680   31.9340   41.9050 N   0  0  0  0  0  0  0  0  0  0  0  0
   56.9460   30.9710   42.5020 C   0  0  0  0  0  0  0  0  0  0  0  0
   56.2710   30.0700   41.9140 O   0  0  0  0  0  0  0  0  0  0  0  0
   57.0980   31.1750   43.8580 C   0  0  0  0  0  0  0  0  0  0  0  0
   56.5070   30.3880   44.8850 N   0  0  0  0  0  0  0  0  0  0  0  0
   56.5650   29.1200   44.9000 N   0  0  0  0  0  0  0  0  0  0  0  0
   57.6870   28.3620   45.3180 C   0  0  0  0  0  0  0  0  0  0  0  0
   58.9340   28.9710   45.1910 C   0  0  0  0  0  0  0  0  0  0  0  0
   60.0940   28.3140   45.5710 C   0  0  0  0  0  0  0  0  0  0  0  0
   60.0080   27.0210   46.0900 C   0  0  0  0  0  0  0  0  0  0  0  0
   61.1810   26.3590   46.4720 O   0  0  0  0  0  0  0  0  0  0  0  0
   58.7610   26.4210   46.2130 C   0  0  0  0  0  0  0  0  0  0  0  0
   57.5950   27.0830   45.8300 C   0  0  0  0  0  0  0  0  0  0  0  0
   56.3060   26.4730   45.9540 C   0  0  0  0  0  0  0  0  0  0  0  0
   55.2420   25.9850   46.0540 N   0  0  0  0  0  0  0  0  0  0  0  0
   58.8450   34.1880   45.3480 C   0  0  0  0  0  0  0  0  0  0  0  0
   59.2910   34.7600   46.5360 C   0  0  0  0  0  0  0  0  0  0  0  0
   59.2929   34.0276   49.8082 H   0  0  0  0  0  0  0  0  0  0  0  0
   60.8380   34.5082   49.0283 H   0  0  0  0  0  0  0  0  0  0  0  0
   59.4422   35.6388   49.0283 H   0  0  0  0  0  0  0  0  0  0  0  0
   58.8089   32.0960   48.5566 H   0  0  0  0  0  0  0  0  0  0  0  0
   58.0211   31.1144   46.4099 H   0  0  0  0  0  0  0  0  0  0  0  0
   58.8520   33.5140   42.5340 H   0  0  0  0  0  0  0  0  0  0  0  0
   57.7370   32.0240   40.8660 H   0  0  0  0  0  0  0  0  0  0  0  0
   58.9989   29.9902   44.7823 H   0  0  0  0  0  0  0  0  0  0  0  0
   61.0719   28.8063   45.4647 H   0  0  0  0  0  0  0  0  0  0  0  0
   61.9770   26.3280   45.8440 H   0  0  0  0  0  0  0  0  0  0  0  0
   58.6920   25.4019   46.6213 H   0  0  0  0  0  0  0  0  0  0  0  0
   58.8596   34.7977   44.4326 H   0  0  0  0  0  0  0  0  0  0  0  0
   59.6516   35.7990   46.5560 H   0  0  0  0  0  0  0  0  0  0  0  0
  1  2  1  0
  2  3  2  0
  3  4  1  0
  4  5  2  0
  5  6  1  0
  6  7  1  0
  7  8  1  0
  8  9  1  0
  9 10  2  0
  9 11  1  0
 11 12  1  0
 12 13  2  0
 13 14  1  0
 14 15  2  0
 15 16  1  0
 16 17  2  0
 17 18  1  0
 17 19  1  0
 19 20  2  0
 20 21  1  0
 21 22  3  0
  5 23  1  0
 23 24  2  0
 24  2  1  0
 11  6  2  0
 20 14  1  0
  1 25  1  0
  1 26  1  0
  1 27  1  0
  3 28  1  0
  4 29  1  0
  7 30  1  0
  8 31  1  0
 15 32  1  0
 16 33  1  0
 18 34  1  0
 19 35  1  0
 23 36  1  0
 24 37  1  0
M  END
>  <smiles>  (61) 
Cc1ccc(-c2[nH][nH]c(=O)c2N=Nc2ccc(O)cc2C#N)cc1

>  <score_type>  (61) 
oracle

>  <origin>  (61) 
adg

>  <m_score__min__energy>  (61) 
-8.1300000000000008

>  <m_primary>  (61) 
energy

$$$$
61:0
     RDKit          3D

 66 69  0  0  0  0  0  0  0  0999 V2000
   63.8500   32.5570   49.6090 C   0  0  0  0  0  0  0  0  0  0  0  0
   62.9030   33.8730   48.8640 S   0  0  0  0  0  0  0  0  0  0  0  0
   62.5230   34.8620   49.9320 O   0  0  0  0  0  0  0  0  0  0  0  0
   63.7600   34.5730   47.8440 O   0  0  0  0  0  0  0  0  0  0  0  0
   61.4490   33.2790   48.0950 N   0  0  0  0  0  0  0  0  0  0  0  0
   60.2920   33.4060   49.0030 C   0  0  0  0  0  0  0  0  0  0  0  0
   58.9800   33.2780   48.2220 C   0  0  0  0  0  0  0  0  0  0  0  0
   58.8210   34.3720   47.2300 N   0  0  0  0  0  0  0  0  0  0  0  0
   57.9610   33.9560   46.1010 C   0  0  0  0  0  0  0  0  0  0  0  0
   58.2150   32.5160   45.7380 C   0  0  0  0  0  0  0  0  0  0  0  0
   59.4840   31.9510   45.8820 C   0  0  0  0  0  0  0  0  0  0  0  0
   59.6870   30.6440   45.5720 N   0  0  0  0  0  0  0  0  0  0  0  0
   58.7030   29.8290   45.1060 C   0  0  0  0  0  0  0  0  0  0  0  0
   59.0140   28.5720   44.9250 N   0  0  0  0  0  0  0  0  0  0  0  0
   58.3520   27.3880   45.3920 C   0  0  0  0  0  0  0  0  0  0  0  0
   58.8310   26.1340   44.9970 C   0  0  0  0  0  0  0  0  0  0  0  0
   58.2130   24.9660   45.4540 C   0  0  0  0  0  0  0  0  0  0  0  0
   57.1250   25.0440   46.3350 C   0  0  0  0  0  0  0  0  0  0  0  0
   56.3210   23.5780   46.8920 S   0  0  0  0  0  0  0  0  0  0  0  0
   55.0820   23.9420   47.6600 O   0  0  0  0  0  0  0  0  0  0  0  0
   57.2480   22.8310   47.8080 O   0  0  0  0  0  0  0  0  0  0  0  0
   55.8910   22.5410   45.4900 C   0  0  0  0  0  0  0  0  0  0  0  0
   55.1840   23.3590   44.3830 C   0  0  0  0  0  0  0  0  0  0  0  0
   56.1620   23.7650   43.2690 C   0  0  0  0  0  0  0  0  0  0  0  0
   56.7970   22.6000   42.6190 N   0  0  0  0  0  0  0  0  0  0  0  0
   56.9570   21.4180   43.4900 C   0  0  0  0  0  0  0  0  0  0  0  0
   57.1410   21.8060   44.9600 C   0  0  0  0  0  0  0  0  0  0  0  0
   56.6880   26.2980   46.7840 C   0  0  0  0  0  0  0  0  0  0  0  0
   57.3050   27.4650   46.3250 C   0  0  0  0  0  0  0  0  0  0  0  0
   57.4100   30.3860   44.8680 C   0  0  0  0  0  0  0  0  0  0  0  0
   56.3370   29.7100   44.1130 C   0  0  0  0  0  0  0  0  0  0  0  0
   55.1420   29.2970   44.7710 N   0  0  0  0  0  0  0  0  0  0  0  0
   56.4990   29.4480   42.8910 O   0  0  0  0  0  0  0  0  0  0  0  0
   57.1820   31.7220   45.2320 C   0  0  0  0  0  0  0  0  0  0  0  0
   60.1100   34.9360   46.7600 C   0  0  0  0  0  0  0  0  0  0  0  0
   61.2410   33.8920   46.7620 C   0  0  0  0  0  0  0  0  0  0  0  0
   63.7917   32.6380   50.7045 H   0  0  0  0  0  0  0  0  0  0  0  0
   63.4421   31.5862   49.2909 H   0  0  0  0  0  0  0  0  0  0  0  0
   64.9001   32.6354   49.2909 H   0  0  0  0  0  0  0  0  0  0  0  0
   60.3396   32.6123   49.7631 H   0  0  0  0  0  0  0  0  0  0  0  0
   60.3244   34.3946   49.4842 H   0  0  0  0  0  0  0  0  0  0  0  0
   58.9729   32.3136   47.6930 H   0  0  0  0  0  0  0  0  0  0  0  0
   58.1475   33.3415   48.9382 H   0  0  0  0  0  0  0  0  0  0  0  0
   56.9059   34.0749   46.3884 H   0  0  0  0  0  0  0  0  0  0  0  0
   58.1935   34.5858   45.2296 H   0  0  0  0  0  0  0  0  0  0  0  0
   60.3204   32.5652   46.2470 H   0  0  0  0  0  0  0  0  0  0  0  0
   59.6981   26.0668   44.3235 H   0  0  0  0  0  0  0  0  0  0  0  0
   58.5810   23.9841   45.1217 H   0  0  0  0  0  0  0  0  0  0  0  0
   55.1738   21.7780   45.8268 H   0  0  0  0  0  0  0  0  0  0  0  0
   54.3792   22.7489   43.9469 H   0  0  0  0  0  0  0  0  0  0  0  0
   54.7794   24.2755   44.8371 H   0  0  0  0  0  0  0  0  0  0  0  0
   55.6112   24.3366   42.5075 H   0  0  0  0  0  0  0  0  0  0  0  0
   56.9601   24.3664   43.7287 H   0  0  0  0  0  0  0  0  0  0  0  0
   56.2130   22.3190   41.7960 H   0  0  0  0  0  0  0  0  0  0  0  0
   56.0607   20.7867   43.3993 H   0  0  0  0  0  0  0  0  0  0  0  0
   57.8595   20.8787   43.1666 H   0  0  0  0  0  0  0  0  0  0  0  0
   57.3049   20.8961   45.5560 H   0  0  0  0  0  0  0  0  0  0  0  0
   58.0083   22.4775   45.0431 H   0  0  0  0  0  0  0  0  0  0  0  0
   55.8560   26.3638   47.5006 H   0  0  0  0  0  0  0  0  0  0  0  0
   56.9701   28.4453   46.6950 H   0  0  0  0  0  0  0  0  0  0  0  0
   55.1800   28.7430   45.6550 H   0  0  0  0  0  0  0  0  0  0  0  0
   56.1755   32.1507   45.1174 H   0  0  0  0  0  0  0  0  0  0  0  0
   59.9783   35.3126   45.7349 H   0  0  0  0  0  0  0  0  0  0  0  0
   60.3959   35.7425   47.4512 H   0  0  0  0  0  0  0  0  0  0  0  0
   60.9882   33.0974   46.0445 H   0  0  0  0  0  0  0  0  0  0  0  0
   62.1715   34.4087   46.4843 H   0  0  0  0  0  0  0  0  0  0  0  0
  1  2  1  0
  2  3  2  0
  2  4  2  0
  2  5  1  0
  5  6  1  0
  6  7  1  0
  7  8  1  0
  8  9  1  0
  9 10  1  0
 10 11  2  0
 11 12  1  0
 12 13  1  0
 13 14  2  3
 14 15  1  0
 15 16  2  0
 16 17  1  0
 17 18  2  0
 18 19  1  0
 19 20  2  0
 19 21  2  0
 19 22  1  0
 22 23  1  0
 23 24  1  0
 24 25  1  0
 25 26  1  0
 26 27  1  0
 18 28  1  0
 28 29  2  0
 13 30  1  0
 30 31  1  0
 31 32  1  0
 31 33  2  0
 30 34  2  0
  8 35  1  0
 35 36  1  0
 36  5  1  0
 34 10  1  0
 29 15  1  0
 27 22  1  0
  1 37  1  0
  1 38  1  0
  1 39  1  0
  6 40  1  0
  6 41  1  0
  7 42  1  0
  7 43  1  0
  9 44  1  0
  9 45  1  0
 11 46  1  0
 16 47  1  0
 17 48  1  0
 22 49  1  0
 23 50  1  0
 23 51  1  0
 24 52  1  0
 24 53  1  0
 25 54  1  0
 26 55  1  0
 26 56  1  0
 27 57  1  0
 27 58  1  0
 28 59  1  0
 29 60  1  0
 32 61  1  0
 34 62  1  0
 35 63  1  0
 35 64  1  0
 36 65  1  0
 36 66  1  0
M  CHG  2  12  -1  32  -1
M  END
>  <UniqueID>  (62) 
58

>  <SMILES>  (62) 
CS(=O)(=O)N1CCN(Cc2c[n-]c(=Nc3ccc(S(=O)(=O)C4CCNCC4)cc3)c(C([NH-])=O)c2)CC1

>  <Energy>  (62) 
98.68873467610756

>  <Genealogy>  (62) 
CS(=O)(=O)N1CCN(Cc2c[n-]c(=Nc3ccc(S(=O)(=O)C4CCNCC4)cc3)c(C([NH-])=O)c2)CC1 (protonated)
CS(=O)(=O)N1CCN(Cc2c[n-]c(=Nc3ccc(S(=O)(=O)C4CCNCC4)cc3)c(C([NH-])=O)c2)CC1 (3D coordinates assigned)
CS(=O)(=O)N1CCN(Cc2c[n-]c(=Nc3ccc(S(=O)(=O)C4CCNCC4)cc3)c(C([NH-])=O)c2)CC1 (nonaromatic ring conformer: 98.68873467610756 kcal/mol)

>  <smiles>  (62) 
CS(=O)(=O)N1CCN(Cc2c[nH]c(=Nc3ccc(S(=O)(=O)C4CCNCC4)cc3)c(C(N)=O)c2)CC1

>  <score_type>  (62) 
oracle

>  <origin>  (62) 
adg

>  <m_score__min__energy>  (62) 
-14.27

>  <m_primary>  (62) 
energy

$$$$
62:0
     RDKit          3D

 65 68  0  0  0  0  0  0  0  0999 V2000
   58.7340   35.5989   45.1589 H   0  0  0  0  0  0  0  0  0  0  0  0
   58.6690   34.5890   45.5900 C   0  0  0  0  0  0  0  0  0  0  0  0
   59.3120   34.3040   46.7550 N   0  0  0  0  0  0  0  0  0  0  0  0
   59.2450   33.0620   47.3030 C   0  0  0  0  0  0  0  0  0  0  0  0
   59.8730   32.8090   48.4130 N   0  0  0  0  0  0  0  0  0  0  0  0
   59.1960   32.7130   49.6700 C   0  0  0  0  0  0  0  0  0  0  0  0
   59.4330   33.6640   50.6630 C   0  0  0  0  0  0  0  0  0  0  0  0
   60.0696   34.5348   50.4474 H   0  0  0  0  0  0  0  0  0  0  0  0
   58.8650   33.5140   51.9290 C   0  0  0  0  0  0  0  0  0  0  0  0
   59.0618   34.2639   52.7093 H   0  0  0  0  0  0  0  0  0  0  0  0
   58.0400   32.4060   52.2130 C   0  0  0  0  0  0  0  0  0  0  0  0
   57.4640   32.2110   53.4770 O   0  0  0  0  0  0  0  0  0  0  0  0
   58.0220   31.3900   54.4960 C   0  0  0  0  0  0  0  0  0  0  0  0
   57.7482   31.7928   55.4823 H   0  0  0  0  0  0  0  0  0  0  0  0
   57.6318   30.3663   54.3968 H   0  0  0  0  0  0  0  0  0  0  0  0
   59.1174   31.3761   54.3968 H   0  0  0  0  0  0  0  0  0  0  0  0
   57.7800   31.4580   51.2090 C   0  0  0  0  0  0  0  0  0  0  0  0
   56.9410   30.3760   51.5160 O   0  0  0  0  0  0  0  0  0  0  0  0
   55.6160   30.5020   52.0190 C   0  0  0  0  0  0  0  0  0  0  0  0
   55.6395   30.4998   53.1187 H   0  0  0  0  0  0  0  0  0  0  0  0
   55.1771   31.4459   51.6636 H   0  0  0  0  0  0  0  0  0  0  0  0
   55.0070   29.6577   51.6636 H   0  0  0  0  0  0  0  0  0  0  0  0
   58.3670   31.6130   49.9380 C   0  0  0  0  0  0  0  0  0  0  0  0
   58.1746   30.8682   49.1517 H   0  0  0  0  0  0  0  0  0  0  0  0
   58.5290   32.0870   46.6750 N   0  0  0  0  0  0  0  0  0  0  0  0
   57.8640   32.3280   45.5140 C   0  0  0  0  0  0  0  0  0  0  0  0
   57.1590   31.3080   44.8650 O   0  0  0  0  0  0  0  0  0  0  0  0
   57.5140   29.9500   44.8960 C   0  0  0  0  0  0  0  0  0  0  0  0
   58.6800   29.4670   44.2710 C   0  0  0  0  0  0  0  0  0  0  0  0
   59.3413   30.1620   43.7328 H   0  0  0  0  0  0  0  0  0  0  0  0
   59.0000   28.1080   44.3320 C   0  0  0  0  0  0  0  0  0  0  0  0
   59.9091   27.7352   43.8375 H   0  0  0  0  0  0  0  0  0  0  0  0
   58.1660   27.2210   45.0210 C   0  0  0  0  0  0  0  0  0  0  0  0
   58.4263   26.1536   45.0752 H   0  0  0  0  0  0  0  0  0  0  0  0
   56.9950   27.6900   45.6450 C   0  0  0  0  0  0  0  0  0  0  0  0
   56.1280   26.8240   46.3920 N   0  0  0  0  0  0  0  0  0  0  0  0
   56.1020   25.3920   46.3560 C   0  0  0  0  0  0  0  0  0  0  0  0
   56.8380   24.7260   47.1280 O   0  0  0  0  0  0  0  0  0  0  0  0
   55.3580   24.7010   45.3430 N   0  0  0  0  0  0  0  0  0  0  0  0
   54.5130   23.7160   45.4870 C   0  0  0  0  0  0  0  0  0  0  0  0
   54.9030   22.4190   45.8740 C   0  0  0  0  0  0  0  0  0  0  0  0
   55.9610   22.1957   46.0761 H   0  0  0  0  0  0  0  0  0  0  0  0
   53.9380   21.4200   45.9990 C   0  0  0  0  0  0  0  0  0  0  0  0
   54.2344   20.4079   46.3118 H   0  0  0  0  0  0  0  0  0  0  0  0
   52.6340   21.6920   45.7360 N   0  0  0  0  0  0  0  0  0  0  0  0
   52.2100   22.9260   45.3400 C   0  0  0  0  0  0  0  0  0  0  0  0
   50.7360   23.1610   45.0050 C   0  0  0  0  0  0  0  0  0  0  0  0
   50.5830   24.5190   44.2910 C   0  0  0  0  0  0  0  0  0  0  0  0
   50.4928   25.3192   45.0404 H   0  0  0  0  0  0  0  0  0  0  0  0
   51.4660   24.7039   43.6616 H   0  0  0  0  0  0  0  0  0  0  0  0
   49.6810   24.5028   43.6616 H   0  0  0  0  0  0  0  0  0  0  0  0
   49.8950   23.1530   46.2980 C   0  0  0  0  0  0  0  0  0  0  0  0
   50.5644   23.1594   47.1708 H   0  0  0  0  0  0  0  0  0  0  0  0
   49.2519   24.0451   46.3226 H   0  0  0  0  0  0  0  0  0  0  0  0
   49.2690   22.2489   46.3226 H   0  0  0  0  0  0  0  0  0  0  0  0
   50.2000   22.0530   44.0710 C   0  0  0  0  0  0  0  0  0  0  0  0
   49.7998   21.2257   44.6755 H   0  0  0  0  0  0  0  0  0  0  0  0
   49.4008   22.4634   43.4363 H   0  0  0  0  0  0  0  0  0  0  0  0
   51.0178   21.6811   43.4363 H   0  0  0  0  0  0  0  0  0  0  0  0
   53.1620   23.9550   45.2000 C   0  0  0  0  0  0  0  0  0  0  0  0
   52.8430   24.9524   44.8633 H   0  0  0  0  0  0  0  0  0  0  0  0
   56.6940   29.0580   45.5980 C   0  0  0  0  0  0  0  0  0  0  0  0
   55.8021   29.4359   46.1193 H   0  0  0  0  0  0  0  0  0  0  0  0
   57.9270   33.6000   44.9420 C   0  0  0  0  0  0  0  0  0  0  0  0
   57.4027   33.8184   44.0000 H   0  0  0  0  0  0  0  0  0  0  0  0
  1  2  1  0
  2  3  2  0
  3  4  1  0
  4  5  2  0
  5  6  1  0
  6  7  2  0
  7  8  1  0
  7  9  1  0
  9 10  1  0
  9 11  2  0
 11 12  1  0
 12 13  1  0
 13 14  1  0
 13 15  1  0
 13 16  1  0
 11 17  1  0
 17 18  1  0
 18 19  1  0
 19 20  1  0
 19 21  1  0
 19 22  1  0
 17 23  2  0
 23 24  1  0
  4 25  1  0
 25 26  1  0
 26 27  1  0
 27 28  1  0
 28 29  2  0
 29 30  1  0
 29 31  1  0
 31 32  1  0
 31 33  2  0
 33 34  1  0
 33 35  1  0
 35 36  1  0
 36 37  1  0
 37 38  2  0
 37 39  1  0
 39 40  2  0
 40 41  1  0
 41 42  1  0
 41 43  2  0
 43 44  1  0
 43 45  1  0
 45 46  1  0
 46 47  1  0
 47 48  1  0
 48 49  1  0
 48 50  1  0
 48 51  1  0
 47 52  1  0
 52 53  1  0
 52 54  1  0
 52 55  1  0
 47 56  1  0
 56 57  1  0
 56 58  1  0
 56 59  1  0
 46 60  2  0
 60 61  1  0
 35 62  2  0
 62 63  1  0
 26 64  2  0
 64 65  1  0
 64  2  1  0
 23  6  1  0
 62 28  1  0
 60 40  1  0
M  CHG  3  25  -1  36  -1  45  -1
M  END
>  <UniqueID>  (63) 
59

>  <SMILES>  (63) 
COc1ccc(/N=c2/nccc(Oc3cccc([N-]C(=O)/N=c4\cc[n-]c(C(C)(C)C)c4)c3)[n-]2)cc1OC

>  <Energy>  (63) 
90.38644871066175

>  <Genealogy>  (63) 
COc1ccc(N=c2nccc(Oc3cccc([N-]C(=O)N=c4cc[n-]c(C(C)(C)C)c4)c3)[n-]2)cc1OC (protonated)
COc1ccc(/N=c2/nccc(Oc3cccc([N-]C(=O)/N=c4\cc[n-]c(C(C)(C)C)c4)c3)[n-]2)cc1OC (cis-trans isomerization)
COc1ccc(/N=c2/nccc(Oc3cccc([N-]C(=O)/N=c4\cc[n-]c(C(C)(C)C)c4)c3)[n-]2)cc1OC (3D coordinates assigned)
COc1ccc(/N=c2/nccc(Oc3cccc([N-]C(=O)/N=c4\cc[n-]c(C(C)(C)C)c4)c3)[n-]2)cc1OC (optimized conformer: 90.38644871066175 kcal/mol)

>  <smiles>  (63) 
COc1ccc(N=c2nccc(Oc3cccc(NC(=O)N=c4cc[nH]c(C(C)(C)C)c4)c3)[nH]2)cc1OC

>  <score_type>  (63) 
oracle

>  <origin>  (63) 
adg

>  <m_score__min__energy>  (63) 
-13.050000000000001

>  <m_primary>  (63) 
energy

$$$$
63:0
     RDKit          3D

 41 43  0  0  0  0  0  0  0  0999 V2000
   63.7530   32.7030   46.9060 C   0  0  0  0  0  0  0  0  0  0  0  0
   62.7520   33.8510   46.8700 C   0  0  0  0  0  0  0  0  0  0  0  0
   61.8910   33.8420   48.1010 C   0  0  0  0  0  0  0  0  0  0  0  0
   62.3130   33.3240   49.2740 N   0  0  0  0  0  0  0  0  0  0  0  0
   61.2920   33.5490   50.1240 C   0  0  0  0  0  0  0  0  0  0  0  0
   60.2770   34.2040   49.4660 C   0  0  0  0  0  0  0  0  0  0  0  0
   60.6610   34.3970   48.1920 N   0  0  0  0  0  0  0  0  0  0  0  0
   59.8600   35.0230   47.1370 C   0  0  0  0  0  0  0  0  0  0  0  0
   59.0130   33.9920   46.4380 C   0  0  0  0  0  0  0  0  0  0  0  0
   58.6770   32.7890   47.0810 C   0  0  0  0  0  0  0  0  0  0  0  0
   57.8680   31.8480   46.4370 C   0  0  0  0  0  0  0  0  0  0  0  0
   57.3750   32.1030   45.1460 C   0  0  0  0  0  0  0  0  0  0  0  0
   56.5410   31.1580   44.4620 N   0  0  0  0  0  0  0  0  0  0  0  0
   56.3550   29.7830   44.8260 C   0  0  0  0  0  0  0  0  0  0  0  0
   55.1820   29.3250   44.8740 O   0  0  0  0  0  0  0  0  0  0  0  0
   57.4940   28.9180   45.2100 C   0  0  0  0  0  0  0  0  0  0  0  0
   58.7640   29.1060   44.6410 C   0  0  0  0  0  0  0  0  0  0  0  0
   59.8170   28.2690   45.0210 C   0  0  0  0  0  0  0  0  0  0  0  0
   59.5970   27.2510   45.9540 C   0  0  0  0  0  0  0  0  0  0  0  0
   60.6300   26.4050   46.3500 O   0  0  0  0  0  0  0  0  0  0  0  0
   58.3180   27.0880   46.4920 C   0  0  0  0  0  0  0  0  0  0  0  0
   57.3080   27.9120   46.1090 N   0  0  0  0  0  0  0  0  0  0  0  0
   57.7470   33.2810   44.4890 C   0  0  0  0  0  0  0  0  0  0  0  0
   58.5560   34.2230   45.1320 C   0  0  0  0  0  0  0  0  0  0  0  0
   63.9778   32.4452   47.9515 H   0  0  0  0  0  0  0  0  0  0  0  0
   63.3250   31.8272   46.3963 H   0  0  0  0  0  0  0  0  0  0  0  0
   64.6789   33.0077   46.3963 H   0  0  0  0  0  0  0  0  0  0  0  0
   63.2977   34.8047   46.8177 H   0  0  0  0  0  0  0  0  0  0  0  0
   62.1078   33.7316   45.9864 H   0  0  0  0  0  0  0  0  0  0  0  0
   61.2730   33.2537   51.1834 H   0  0  0  0  0  0  0  0  0  0  0  0
   59.3180   34.5157   49.9056 H   0  0  0  0  0  0  0  0  0  0  0  0
   59.2062   35.7867   47.5834 H   0  0  0  0  0  0  0  0  0  0  0  0
   60.5362   35.4858   46.4032 H   0  0  0  0  0  0  0  0  0  0  0  0
   59.0519   32.5866   48.0952 H   0  0  0  0  0  0  0  0  0  0  0  0
   57.6164   30.9042   46.9429 H   0  0  0  0  0  0  0  0  0  0  0  0
   58.9287   29.9048   43.9029 H   0  0  0  0  0  0  0  0  0  0  0  0
   60.8176   28.4110   44.5866 H   0  0  0  0  0  0  0  0  0  0  0  0
   61.5420   26.4420   45.9090 H   0  0  0  0  0  0  0  0  0  0  0  0
   58.1285   26.2915   47.2266 H   0  0  0  0  0  0  0  0  0  0  0  0
   57.4013   33.4670   43.4614 H   0  0  0  0  0  0  0  0  0  0  0  0
   58.8356   35.1504   44.6108 H   0  0  0  0  0  0  0  0  0  0  0  0
  1  2  1  0
  2  3  1  0
  3  4  2  0
  4  5  1  0
  5  6  2  0
  6  7  1  0
  7  8  1  0
  8  9  1  0
  9 10  2  0
 10 11  1  0
 11 12  2  0
 12 13  1  0
 13 14  1  0
 14 15  2  0
 14 16  1  0
 16 17  2  0
 17 18  1  0
 18 19  2  0
 19 20  1  0
 19 21  1  0
 21 22  2  0
 12 23  1  0
 23 24  2  0
  7  3  1  0
 24  9  1  0
 22 16  1  0
  1 25  1  0
  1 26  1  0
  1 27  1  0
  2 28  1  0
  2 29  1  0
  5 30  1  0
  6 31  1  0
  8 32  1  0
  8 33  1  0
 10 34  1  0
 11 35  1  0
 17 36  1  0
 18 37  1  0
 20 38  1  0
 21 39  1  0
 23 40  1  0
 24 41  1  0
M  CHG  1  13  -1
M  END
>  <UniqueID>  (64) 
60

>  <SMILES>  (64) 
CCc1nccn1Cc1ccc([N-]C(=O)c2ccc(O)cn2)cc1

>  <Energy>  (64) 
73.01535166137216

>  <Genealogy>  (64) 
CCc1nccn1Cc1ccc([N-]C(=O)c2ccc(O)cn2)cc1 (protonated)
CCc1nccn1Cc1ccc([N-]C(=O)c2ccc(O)cn2)cc1 (3D coordinates assigned)
CCc1nccn1Cc1ccc([N-]C(=O)c2ccc(O)cn2)cc1 (optimized conformer: 73.01535166137216 kcal/mol)

>  <smiles>  (64) 
CCc1nccn1Cc1ccc(NC(=O)c2ccc(O)cn2)cc1

>  <score_type>  (64) 
oracle

>  <origin>  (64) 
adg

>  <m_score__min__energy>  (64) 
-9.1999999999999993

>  <m_primary>  (64) 
energy

$$$$
64:0
     RDKit          3D

 63 66  0  0  0  0  0  0  0  0999 V2000
   59.4370   31.5820   48.6440 C   0  0  0  0  0  0  0  0  0  0  0  0
   58.8550   32.1770   47.3870 C   0  0  0  0  0  0  0  0  0  0  0  0
   58.3370   31.3150   46.4050 C   0  0  0  0  0  0  0  0  0  0  0  0
   57.7950   31.8230   45.2180 C   0  0  0  0  0  0  0  0  0  0  0  0
   57.0600   30.7330   44.0440 S   0  0  0  0  0  0  0  0  0  0  0  0
   55.7010   30.2950   44.5110 O   0  0  0  0  0  0  0  0  0  0  0  0
   56.9000   31.4460   42.7290 O   0  0  0  0  0  0  0  0  0  0  0  0
   58.1000   29.3600   43.8190 N   0  0  0  0  0  0  0  0  0  0  0  0
   57.9790   28.1790   44.6250 C   0  0  0  0  0  0  0  0  0  0  0  0
   59.0970   27.3700   44.8430 C   0  0  0  0  0  0  0  0  0  0  0  0
   58.9820   26.2310   45.6420 C   0  0  0  0  0  0  0  0  0  0  0  0
   57.7820   25.8890   46.2080 N   0  0  0  0  0  0  0  0  0  0  0  0
   57.7070   24.6570   47.0110 C   0  0  0  0  0  0  0  0  0  0  0  0
   57.0970   23.5210   46.1800 C   0  0  0  0  0  0  0  0  0  0  0  0
   57.7590   23.4260   44.8570 N   0  0  0  0  0  0  0  0  0  0  0  0
   56.9690   24.0420   43.7680 C   0  0  0  0  0  0  0  0  0  0  0  0
   55.8150   23.1330   43.2990 C   0  0  0  0  0  0  0  0  0  0  0  0
   56.2890   21.8530   42.9350 O   0  0  0  0  0  0  0  0  0  0  0  0
   56.8920   21.2350   44.0540 C   0  0  0  0  0  0  0  0  0  0  0  0
   58.1200   22.0360   44.5090 C   0  0  0  0  0  0  0  0  0  0  0  0
   56.6660   26.6540   45.9740 C   0  0  0  0  0  0  0  0  0  0  0  0
   55.5460   26.3280   46.4580 O   0  0  0  0  0  0  0  0  0  0  0  0
   56.7520   27.8080   45.1880 C   0  0  0  0  0  0  0  0  0  0  0  0
   57.7680   33.2040   45.0060 C   0  0  0  0  0  0  0  0  0  0  0  0
   58.2730   34.0740   45.9740 C   0  0  0  0  0  0  0  0  0  0  0  0
   58.8280   33.5800   47.1650 C   0  0  0  0  0  0  0  0  0  0  0  0
   59.2890   34.5760   48.2000 C   0  0  0  0  0  0  0  0  0  0  0  0
   60.6300   34.9580   47.9150 O   0  0  0  0  0  0  0  0  0  0  0  0
   61.6970   34.0770   48.0790 C   0  0  0  0  0  0  0  0  0  0  0  0
   62.3300   33.5290   46.9560 C   0  0  0  0  0  0  0  0  0  0  0  0
   63.4160   32.6660   47.1150 C   0  0  0  0  0  0  0  0  0  0  0  0
   63.8570   32.3270   48.3980 C   0  0  0  0  0  0  0  0  0  0  0  0
   63.2160   32.8580   49.5230 C   0  0  0  0  0  0  0  0  0  0  0  0
   62.1350   33.7280   49.3650 C   0  0  0  0  0  0  0  0  0  0  0  0
   58.9739   32.0554   49.5223 H   0  0  0  0  0  0  0  0  0  0  0  0
   59.2388   30.5002   48.6634 H   0  0  0  0  0  0  0  0  0  0  0  0
   60.5229   31.7562   48.6634 H   0  0  0  0  0  0  0  0  0  0  0  0
   58.3577   30.2278   46.5710 H   0  0  0  0  0  0  0  0  0  0  0  0
   59.0000   29.5320   43.3180 H   0  0  0  0  0  0  0  0  0  0  0  0
   60.0638   27.6294   44.3870 H   0  0  0  0  0  0  0  0  0  0  0  0
   59.8656   25.6004   45.8193 H   0  0  0  0  0  0  0  0  0  0  0  0
   58.7193   24.3698   47.3317 H   0  0  0  0  0  0  0  0  0  0  0  0
   57.0726   24.8394   47.8909 H   0  0  0  0  0  0  0  0  0  0  0  0
   57.2267   22.5703   46.7178 H   0  0  0  0  0  0  0  0  0  0  0  0
   56.0280   23.7297   46.0264 H   0  0  0  0  0  0  0  0  0  0  0  0
   56.5474   24.9915   44.1297 H   0  0  0  0  0  0  0  0  0  0  0  0
   57.6414   24.2025   42.9124 H   0  0  0  0  0  0  0  0  0  0  0  0
   55.0868   23.0269   44.1166 H   0  0  0  0  0  0  0  0  0  0  0  0
   55.3444   23.5938   42.4180 H   0  0  0  0  0  0  0  0  0  0  0  0
   56.1645   21.1873   44.8777 H   0  0  0  0  0  0  0  0  0  0  0  0
   57.2111   20.2205   43.7731 H   0  0  0  0  0  0  0  0  0  0  0  0
   58.5581   21.5483   45.3923 H   0  0  0  0  0  0  0  0  0  0  0  0
   58.8420   22.0634   43.6795 H   0  0  0  0  0  0  0  0  0  0  0  0
   55.8570   28.4230   45.0126 H   0  0  0  0  0  0  0  0  0  0  0  0
   57.3473   33.6070   44.0730 H   0  0  0  0  0  0  0  0  0  0  0  0
   58.2356   35.1597   45.8014 H   0  0  0  0  0  0  0  0  0  0  0  0
   58.6395   35.4634   48.1720 H   0  0  0  0  0  0  0  0  0  0  0  0
   59.2383   34.1209   49.2002 H   0  0  0  0  0  0  0  0  0  0  0  0
   61.9708   33.7791   45.9468 H   0  0  0  0  0  0  0  0  0  0  0  0
   63.9245   32.2529   46.2314 H   0  0  0  0  0  0  0  0  0  0  0  0
   64.7087   31.6422   48.5231 H   0  0  0  0  0  0  0  0  0  0  0  0
   63.5636   32.5901   50.5317 H   0  0  0  0  0  0  0  0  0  0  0  0
   61.6268   34.1397   50.2494 H   0  0  0  0  0  0  0  0  0  0  0  0
  1  2  1  0
  2  3  2  0
  3  4  1  0
  4  5  1  0
  5  6  2  0
  5  7  2  0
  5  8  1  0
  8  9  1  0
  9 10  1  0
 10 11  2  0
 11 12  1  0
 12 13  1  0
 13 14  1  0
 14 15  1  0
 15 16  1  0
 16 17  1  0
 17 18  1  0
 18 19  1  0
 19 20  1  0
 12 21  1  0
 21 22  2  0
 21 23  1  0
  4 24  2  0
 24 25  1  0
 25 26  2  0
 26 27  1  0
 27 28  1  0
 28 29  1  0
 29 30  2  0
 30 31  1  0
 31 32  2  0
 32 33  1  0
 33 34  2  0
 26  2  1  0
 34 29  1  0
 23  9  2  0
 20 15  1  0
  1 35  1  0
  1 36  1  0
  1 37  1  0
  3 38  1  0
  8 39  1  0
 10 40  1  0
 11 41  1  0
 13 42  1  0
 13 43  1  0
 14 44  1  0
 14 45  1  0
 16 46  1  0
 16 47  1  0
 17 48  1  0
 17 49  1  0
 19 50  1  0
 19 51  1  0
 20 52  1  0
 20 53  1  0
 23 54  1  0
 24 55  1  0
 25 56  1  0
 27 57  1  0
 27 58  1  0
 30 59  1  0
 31 60  1  0
 32 61  1  0
 33 62  1  0
 34 63  1  0
M  END
>  <UniqueID>  (65) 
61

>  <SMILES>  (65) 
Cc1cc(S(=O)(=O)Nc2ccn(CCN3CCOCC3)c(=O)c2)ccc1COc1ccccc1

>  <Energy>  (65) 
86.31502203894318

>  <Genealogy>  (65) 
Cc1cc(S(=O)(=O)Nc2ccn(CCN3CCOCC3)c(=O)c2)ccc1COc1ccccc1 (3D coordinates assigned)
Cc1cc(S(=O)(=O)Nc2ccn(CCN3CCOCC3)c(=O)c2)ccc1COc1ccccc1 (nonaromatic ring conformer: 86.31502203894318 kcal/mol)

>  <smiles>  (65) 
Cc1cc(S(=O)(=O)Nc2ccn(CCN3CCOCC3)c(=O)c2)ccc1COc1ccccc1

>  <score_type>  (65) 
oracle

>  <origin>  (65) 
adg

>  <m_score__min__energy>  (65) 
-11.17

>  <m_primary>  (65) 
energy

$$$$
65:0
     RDKit          3D

 43 45  0  0  0  0  0  0  0  0999 V2000
   59.5046   35.3937   45.6110 H   0  0  0  0  0  0  0  0  0  0  0  0
   58.8110   34.5580   45.4360 C   0  0  0  0  0  0  0  0  0  0  0  0
   58.8550   33.4990   44.1300 S   0  0  0  0  0  0  0  0  0  0  0  0
   57.5130   32.5930   44.5840 C   0  0  0  0  0  0  0  0  0  0  0  0
   57.0390   31.3450   43.9050 C   0  0  0  0  0  0  0  0  0  0  0  0
   57.6934   31.1212   43.0496 H   0  0  0  0  0  0  0  0  0  0  0  0
   56.0083   31.4889   43.5486 H   0  0  0  0  0  0  0  0  0  0  0  0
   57.0790   30.1930   44.8870 C   0  0  0  0  0  0  0  0  0  0  0  0
   57.8310   30.2070   45.9540 N   0  0  0  0  0  0  0  0  0  0  0  0
   59.2480   30.4300   46.0390 C   0  0  0  0  0  0  0  0  0  0  0  0
   60.0400   29.7630   45.3200 O   0  0  0  0  0  0  0  0  0  0  0  0
   59.7800   31.3990   47.0230 C   0  0  0  0  0  0  0  0  0  0  0  0
   61.0340   32.0080   46.8230 C   0  0  0  0  0  0  0  0  0  0  0  0
   61.6297   31.7525   45.9343 H   0  0  0  0  0  0  0  0  0  0  0  0
   61.5270   32.9350   47.7460 C   0  0  0  0  0  0  0  0  0  0  0  0
   62.5091   33.4030   47.5833 H   0  0  0  0  0  0  0  0  0  0  0  0
   60.7740   33.2680   48.8750 C   0  0  0  0  0  0  0  0  0  0  0  0
   61.1622   33.9999   49.5986 H   0  0  0  0  0  0  0  0  0  0  0  0
   59.5290   32.6720   49.0850 C   0  0  0  0  0  0  0  0  0  0  0  0
   58.9372   32.9352   49.9741 H   0  0  0  0  0  0  0  0  0  0  0  0
   59.0330   31.7410   48.1670 C   0  0  0  0  0  0  0  0  0  0  0  0
   58.0528   31.2726   48.3395 H   0  0  0  0  0  0  0  0  0  0  0  0
   56.0170   29.1730   44.8160 C   0  0  0  0  0  0  0  0  0  0  0  0
   54.9880   29.3710   44.1140 O   0  0  0  0  0  0  0  0  0  0  0  0
   56.1190   27.9890   45.6140 N   0  0  0  0  0  0  0  0  0  0  0  0
   57.0560   26.9150   45.3090 C   0  0  0  0  0  0  0  0  0  0  0  0
   56.5943   25.9460   45.5496 H   0  0  0  0  0  0  0  0  0  0  0  0
   57.3114   26.9434   44.2394 H   0  0  0  0  0  0  0  0  0  0  0  0
   58.3060   27.0930   46.1290 C   0  0  0  0  0  0  0  0  0  0  0  0
   58.2160   27.5830   47.4430 C   0  0  0  0  0  0  0  0  0  0  0  0
   57.2420   27.9012   47.8430 H   0  0  0  0  0  0  0  0  0  0  0  0
   59.3580   27.6680   48.2440 C   0  0  0  0  0  0  0  0  0  0  0  0
   59.2816   28.0552   49.2707 H   0  0  0  0  0  0  0  0  0  0  0  0
   60.5980   27.2610   47.7410 C   0  0  0  0  0  0  0  0  0  0  0  0
   61.4967   27.3290   48.3717 H   0  0  0  0  0  0  0  0  0  0  0  0
   60.6950   26.7680   46.4370 C   0  0  0  0  0  0  0  0  0  0  0  0
   61.6705   26.4478   46.0422 H   0  0  0  0  0  0  0  0  0  0  0  0
   59.5540   26.6810   45.6330 C   0  0  0  0  0  0  0  0  0  0  0  0
   59.6341   26.2885   44.6085 H   0  0  0  0  0  0  0  0  0  0  0  0
   57.0270   33.0940   45.7860 C   0  0  0  0  0  0  0  0  0  0  0  0
   56.1621   32.6667   46.3146 H   0  0  0  0  0  0  0  0  0  0  0  0
   57.7490   34.1970   46.2560 C   0  0  0  0  0  0  0  0  0  0  0  0
   57.4993   34.7279   47.1865 H   0  0  0  0  0  0  0  0  0  0  0  0
  1  2  1  0
  2  3  1  0
  3  4  1  0
  4  5  1  0
  5  6  1  0
  5  7  1  0
  5  8  1  0
  8  9  2  0
  9 10  1  0
 10 11  2  0
 10 12  1  0
 12 13  2  0
 13 14  1  0
 13 15  1  0
 15 16  1  0
 15 17  2  0
 17 18  1  0
 17 19  1  0
 19 20  1  0
 19 21  2  0
 21 22  1  0
  8 23  1  0
 23 24  2  0
 23 25  1  0
 25 26  1  0
 26 27  1  0
 26 28  1  0
 26 29  1  0
 29 30  2  0
 30 31  1  0
 30 32  1  0
 32 33  1  0
 32 34  2  0
 34 35  1  0
 34 36  1  0
 36 37  1  0
 36 38  2  0
 38 39  1  0
  4 40  2  0
 40 41  1  0
 40 42  1  0
 42 43  1  0
 42  2  2  0
 21 12  1  0
 38 29  1  0
M  CHG  1  25  -1
M  END
>  <UniqueID>  (66) 
62

>  <SMILES>  (66) 
O=C([N-]Cc1ccccc1)/C(Cc1cccs1)=N/C(=O)c1ccccc1

>  <Energy>  (66) 
72.67254117187892

>  <Genealogy>  (66) 
O=C([N-]Cc1ccccc1)C(Cc1cccs1)=NC(=O)c1ccccc1 (protonated)
O=C([N-]Cc1ccccc1)/C(Cc1cccs1)=N/C(=O)c1ccccc1 (cis-trans isomerization)
O=C([N-]Cc1ccccc1)/C(Cc1cccs1)=N/C(=O)c1ccccc1 (3D coordinates assigned)
O=C([N-]Cc1ccccc1)/C(Cc1cccs1)=N/C(=O)c1ccccc1 (optimized conformer: 72.67254117187892 kcal/mol)

>  <smiles>  (66) 
O=C(NCc1ccccc1)C(Cc1cccs1)=NC(=O)c1ccccc1

>  <score_type>  (66) 
oracle

>  <origin>  (66) 
adg

>  <m_score__min__energy>  (66) 
-10.49

>  <m_primary>  (66) 
energy

$$$$
66:0
     RDKit          3D

 45 47  0  0  1  0  0  0  0  0999 V2000
   56.3680   20.7770   45.0150 C   0  0  0  0  0  0  0  0  0  0  0  0
   55.8800   22.3950   44.4630 S   0  0  0  0  0  0  0  0  0  0  0  0
   54.4890   22.6440   44.9180 O   0  0  0  0  0  0  0  0  0  0  0  0
   55.9100   22.3300   42.9450 O   0  0  0  0  0  0  0  0  0  0  0  0
   57.0020   23.6270   45.0290 C   0  0  0  0  0  0  0  0  0  0  0  0
   56.5920   24.9210   45.3000 C   0  0  0  0  0  0  0  0  0  0  0  0
   57.4550   25.9030   45.7450 C   0  0  0  0  0  0  0  0  0  0  0  0
   58.7740   25.5510   45.9160 C   0  0  0  0  0  0  0  0  0  0  0  0
   59.8270   26.4810   46.3930 C   0  0  0  0  0  0  0  0  0  0  0  0
   59.3490   27.8300   46.2050 N   0  0  0  0  0  0  0  0  0  0  0  0
   59.0900   28.4280   44.9520 C   0  0  0  0  0  0  0  0  0  0  0  0
   59.2470   27.8560   43.8450 O   0  0  0  0  0  0  0  0  0  0  0  0
   58.6010   29.8220   44.9490 C   0  0  0  0  0  0  0  0  0  0  0  0
   58.6210   30.5790   46.0490 N   0  0  0  0  0  0  0  0  0  0  0  0
   58.1860   31.8500   46.0880 C   0  0  0  0  0  0  0  0  0  0  0  0
   58.2340   32.5090   47.1720 N   0  0  0  0  0  0  0  0  0  0  0  0
   59.3960   32.7530   47.9320 C   0  0  0  0  0  0  0  0  0  0  0  0
   60.1210   33.9230   47.7390 C   0  0  0  0  0  0  0  0  0  0  0  0
   59.6500   35.1040   46.5410 Cl  0  0  0  0  0  0  0  0  0  0  0  0
   61.2590   34.2070   48.4940 C   0  0  0  0  0  0  0  0  0  0  0  0
   61.6810   33.3080   49.4580 C   0  0  0  0  0  0  0  0  0  0  0  0
   60.9750   32.1320   49.6700 C   0  0  0  0  0  0  0  0  0  0  0  0
   59.8360   31.8530   48.9130 C   0  0  0  0  0  0  0  0  0  0  0  0
   58.9060   30.4000   49.1280 Cl  0  0  0  0  0  0  0  0  0  0  0  0
   57.6900   32.4240   44.9460 C   0  0  0  0  0  0  0  0  0  0  0  0
   57.1000   34.0650   44.8800 Cl  0  0  0  0  0  0  0  0  0  0  0  0
   57.6650   31.6520   43.8070 C   0  0  0  0  0  0  0  0  0  0  0  0
   58.1110   30.3790   43.8080 N   0  0  0  0  0  0  0  0  0  0  0  0
   59.1960   24.2450   45.6440 C   0  0  0  0  0  0  0  0  0  0  0  0
   58.3240   23.2730   45.2010 C   0  0  0  0  0  0  0  0  0  0  0  0
   56.3757   20.7516   46.1147 H   0  0  0  0  0  0  0  0  0  0  0  0
   55.6553   20.0298   44.6359 H   0  0  0  0  0  0  0  0  0  0  0  0
   57.3750   20.5485   44.6359 H   0  0  0  0  0  0  0  0  0  0  0  0
   55.5325   25.1784   45.1545 H   0  0  0  0  0  0  0  0  0  0  0  0
   57.1026   26.9239   45.9540 H   0  0  0  0  0  0  0  0  0  0  0  0
   60.0284   26.3015   47.4594 H   0  0  0  0  0  0  0  0  0  0  0  0
   60.7591   26.3239   45.8304 H   0  0  0  0  0  0  0  0  0  0  0  0
   59.1900   28.3900   47.0870 H   0  0  0  0  0  0  0  0  0  0  0  0
   61.8174   35.1394   48.3243 H   0  0  0  0  0  0  0  0  0  0  0  0
   62.5774   33.5259   50.0571 H   0  0  0  0  0  0  0  0  0  0  0  0
   61.3136   31.4187   50.4358 H   0  0  0  0  0  0  0  0  0  0  0  0
   57.2723   32.0830   42.8743 H   0  0  0  0  0  0  0  0  0  0  0  0
   58.0920   29.7950   42.9490 H   0  0  0  0  0  0  0  0  0  0  0  0
   60.2553   23.9858   45.7879 H   0  0  0  0  0  0  0  0  0  0  0  0
   58.6708   22.2503   44.9919 H   0  0  0  0  0  0  0  0  0  0  0  0
  1  2  1  0
  2  3  2  0
  2  4  2  0
  2  5  1  0
  5  6  2  0
  6  7  1  0
  7  8  2  0
  8  9  1  0
  9 10  1  0
 10 11  1  0
 11 12  2  0
 11 13  1  0
 13 14  2  0
 14 15  1  0
 15 16  2  0
 16 17  1  0
 17 18  2  0
 18 19  1  0
 18 20  1  0
 20 21  2  0
 21 22  1  0
 22 23  2  0
 23 24  1  0
 15 25  1  0
 25 26  1  0
 25 27  2  0
 27 28  1  0
  8 29  1  0
 29 30  2  0
 30  5  1  0
 28 13  1  0
 23 17  1  0
  1 31  1  0
  1 32  1  0
  1 33  1  0
  6 34  1  0
  7 35  1  0
  9 36  1  0
  9 37  1  0
 10 38  1  0
 20 39  1  0
 21 40  1  0
 22 41  1  0
 27 42  1  0
 28 43  1  0
 29 44  1  0
 30 45  1  0
M  END
>  <smiles>  (67) 
CS(=O)(=O)c1ccc(CNC(=O)c2nc(=Nc3c(Cl)cccc3Cl)c(Cl)c[nH]2)cc1

>  <score_type>  (67) 
oracle

>  <origin>  (67) 
adg

>  <m_score__min__energy>  (67) 
-8.6999999999999993

>  <m_primary>  (67) 
energy

$$$$
67:0
     RDKit          3D

 36 37  0  0  0  0  0  0  0  0999 V2000
   55.0960   29.7830   44.0310 O   0  0  0  0  0  0  0  0  0  0  0  0
   56.2240   30.1090   44.4870 C   0  0  0  0  0  0  0  0  0  0  0  0
   57.0140   31.1940   43.8020 C   0  0  0  0  0  0  0  0  0  0  0  0
   58.2050   31.5400   44.5850 N   0  0  0  0  0  0  0  0  0  0  0  0
   58.1040   33.1970   45.1000 S   0  0  0  0  0  0  0  0  0  0  0  0
   56.6770   33.6650   45.0230 O   0  0  0  0  0  0  0  0  0  0  0  0
   58.9330   34.0520   44.1830 O   0  0  0  0  0  0  0  0  0  0  0  0
   58.7040   33.3680   46.7490 C   0  0  0  0  0  0  0  0  0  0  0  0
   58.4090   32.3960   47.7160 C   0  0  0  0  0  0  0  0  0  0  0  0
   58.9130   32.5210   49.0140 C   0  0  0  0  0  0  0  0  0  0  0  0
   59.7150   33.6150   49.3520 C   0  0  0  0  0  0  0  0  0  0  0  0
   60.0180   34.5830   48.3890 C   0  0  0  0  0  0  0  0  0  0  0  0
   59.5160   34.4590   47.0890 C   0  0  0  0  0  0  0  0  0  0  0  0
   56.7420   29.3810   45.6090 N   0  0  0  0  0  0  0  0  0  0  0  0
   57.6410   28.2290   45.5580 C   0  0  0  0  0  0  0  0  0  0  0  0
   57.4320   27.2890   46.7510 C   0  0  0  0  0  0  0  0  0  0  0  0
   56.3450   26.2830   46.4780 C   0  0  0  0  0  0  0  0  0  0  0  0
   55.1480   26.7120   45.9970 N   0  0  0  0  0  0  0  0  0  0  0  0
   54.1660   25.8540   45.7170 N   0  0  0  0  0  0  0  0  0  0  0  0
   54.3360   24.5200   45.9000 C   0  0  0  0  0  0  0  0  0  0  0  0
   53.4010   23.7210   45.6330 O   0  0  0  0  0  0  0  0  0  0  0  0
   55.5180   24.0510   46.3700 N   0  0  0  0  0  0  0  0  0  0  0  0
   56.5320   24.9040   46.6630 C   0  0  0  0  0  0  0  0  0  0  0  0
   57.6230   24.4460   47.0960 O   0  0  0  0  0  0  0  0  0  0  0  0
   57.3253   30.8413   42.8077 H   0  0  0  0  0  0  0  0  0  0  0  0
   56.3800   32.0880   43.7081 H   0  0  0  0  0  0  0  0  0  0  0  0
   58.2050   30.9590   45.4550 H   0  0  0  0  0  0  0  0  0  0  0  0
   57.7796   31.5332   47.4525 H   0  0  0  0  0  0  0  0  0  0  0  0
   58.6782   31.7575   49.7703 H   0  0  0  0  0  0  0  0  0  0  0  0
   60.1075   33.7145   50.3748 H   0  0  0  0  0  0  0  0  0  0  0  0
   60.6514   35.4424   48.6539 H   0  0  0  0  0  0  0  0  0  0  0  0
   59.7590   35.2192   46.3320 H   0  0  0  0  0  0  0  0  0  0  0  0
   57.4528   27.6716   44.6285 H   0  0  0  0  0  0  0  0  0  0  0  0
   58.6754   28.6013   45.5938 H   0  0  0  0  0  0  0  0  0  0  0  0
   58.3716   26.7539   46.9531 H   0  0  0  0  0  0  0  0  0  0  0  0
   57.1314   27.8946   47.6187 H   0  0  0  0  0  0  0  0  0  0  0  0
  1  2  2  0
  2  3  1  0
  3  4  1  0
  4  5  1  0
  5  6  2  0
  5  7  2  0
  5  8  1  0
  8  9  2  0
  9 10  1  0
 10 11  2  0
 11 12  1  0
 12 13  2  0
  2 14  1  0
 14 15  1  0
 15 16  1  0
 16 17  1  0
 17 18  2  0
 18 19  1  0
 19 20  1  0
 20 21  2  0
 20 22  1  0
 22 23  1  0
 23 24  2  0
 13  8  1  0
 23 17  1  0
  3 25  1  0
  3 26  1  0
  4 27  1  0
  9 28  1  0
 10 29  1  0
 11 30  1  0
 12 31  1  0
 13 32  1  0
 15 33  1  0
 15 34  1  0
 16 35  1  0
 16 36  1  0
M  CHG  3  14  -1  19  -1  22  -1
M  END
>  <UniqueID>  (68) 
63

>  <SMILES>  (68) 
O=C(CNS(=O)(=O)c1ccccc1)[N-]CCc1n[n-]c(=O)[n-]c1=O

>  <Energy>  (68) 
32.88265357746326

>  <Genealogy>  (68) 
O=C(CNS(=O)(=O)c1ccccc1)[N-]CCc1n[n-]c(=O)[n-]c1=O (protonated)
O=C(CNS(=O)(=O)c1ccccc1)[N-]CCc1n[n-]c(=O)[n-]c1=O (3D coordinates assigned)
O=C(CNS(=O)(=O)c1ccccc1)[N-]CCc1n[n-]c(=O)[n-]c1=O (optimized conformer: 32.88265357746326 kcal/mol)

>  <smiles>  (68) 
O=C(CNS(=O)(=O)c1ccccc1)NCCc1n[nH]c(=O)[nH]c1=O

>  <score_type>  (68) 
oracle

>  <origin>  (68) 
adg

>  <m_score__min__energy>  (68) 
-13.710000000000001

>  <m_primary>  (68) 
energy

$$$$
68:0
     RDKit          3D

 57 59  0  0  0  0  0  0  0  0999 V2000
   58.1570   32.3660   41.4970 C   0  0  0  0  0  0  0  0  0  0  0  0
   58.1070   32.3290   42.9960 C   0  0  0  0  0  0  0  0  0  0  0  0
   57.8140   31.1320   43.6610 C   0  0  0  0  0  0  0  0  0  0  0  0
   57.7950   31.0790   45.0640 C   0  0  0  0  0  0  0  0  0  0  0  0
   57.4390   29.7930   45.7570 C   0  0  0  0  0  0  0  0  0  0  0  0
   58.0720   32.2430   45.8090 C   0  0  0  0  0  0  0  0  0  0  0  0
   58.0310   32.1980   47.2430 N   0  0  0  0  0  0  0  0  0  0  0  0
   59.1250   31.6870   48.0180 C   0  0  0  0  0  0  0  0  0  0  0  0
   60.1610   31.2580   47.4390 O   0  0  0  0  0  0  0  0  0  0  0  0
   59.0370   31.6000   49.4890 C   0  0  0  0  0  0  0  0  0  0  0  0
   58.8560   32.7400   50.2660 C   0  0  0  0  0  0  0  0  0  0  0  0
   58.8530   32.2900   51.8820 S   0  0  0  0  0  0  0  0  0  0  0  0
   59.0650   30.6430   51.6270 C   0  0  0  0  0  0  0  0  0  0  0  0
   59.1190   29.6260   52.7350 C   0  0  0  0  0  0  0  0  0  0  0  0
   57.7740   29.5130   53.4600 C   0  0  0  0  0  0  0  0  0  0  0  0
   56.8830   28.5760   52.7720 N   0  0  0  0  0  0  0  0  0  0  0  0
   55.3690   28.4160   53.6130 S   0  0  0  0  0  0  0  0  0  0  0  0
   54.8650   27.0080   53.4580 O   0  0  0  0  0  0  0  0  0  0  0  0
   55.5580   28.6970   55.0790 O   0  0  0  0  0  0  0  0  0  0  0  0
   54.1870   29.5260   52.9260 C   0  0  0  0  0  0  0  0  0  0  0  0
   52.9100   29.6510   53.4880 C   0  0  0  0  0  0  0  0  0  0  0  0
   51.9840   30.5450   52.9430 C   0  0  0  0  0  0  0  0  0  0  0  0
   52.3230   31.3320   51.8280 C   0  0  0  0  0  0  0  0  0  0  0  0
   51.3690   32.2530   51.2690 N   0  0  0  0  0  0  0  0  0  0  0  0
   50.7880   33.0870   51.9940 O   0  0  0  0  0  0  0  0  0  0  0  0
   51.0800   32.2290   49.9230 O   0  0  0  0  0  0  0  0  0  0  0  0
   53.6090   31.2040   51.2720 C   0  0  0  0  0  0  0  0  0  0  0  0
   54.5330   30.3090   51.8190 C   0  0  0  0  0  0  0  0  0  0  0  0
   59.1210   30.4070   50.2480 C   0  0  0  0  0  0  0  0  0  0  0  0
   59.2480   29.0330   49.6510 C   0  0  0  0  0  0  0  0  0  0  0  0
   58.4220   33.4390   45.1420 C   0  0  0  0  0  0  0  0  0  0  0  0
   58.7630   34.6900   45.9070 C   0  0  0  0  0  0  0  0  0  0  0  0
   58.4230   33.4730   43.7390 C   0  0  0  0  0  0  0  0  0  0  0  0
   59.0022   32.9914   41.1737 H   0  0  0  0  0  0  0  0  0  0  0  0
   58.2870   31.3449   41.1091 H   0  0  0  0  0  0  0  0  0  0  0  0
   57.2185   32.7888   41.1091 H   0  0  0  0  0  0  0  0  0  0  0  0
   57.5966   30.2245   43.0786 H   0  0  0  0  0  0  0  0  0  0  0  0
   57.4797   29.9401   46.8464 H   0  0  0  0  0  0  0  0  0  0  0  0
   56.4228   29.4887   45.4658 H   0  0  0  0  0  0  0  0  0  0  0  0
   58.1540   29.0094   45.4658 H   0  0  0  0  0  0  0  0  0  0  0  0
   57.1620   32.5270   47.7180 H   0  0  0  0  0  0  0  0  0  0  0  0
   58.7351   33.7646   49.8845 H   0  0  0  0  0  0  0  0  0  0  0  0
   59.3784   28.6459   52.3082 H   0  0  0  0  0  0  0  0  0  0  0  0
   59.8774   29.9492   53.4633 H   0  0  0  0  0  0  0  0  0  0  0  0
   57.9475   29.1566   54.4861 H   0  0  0  0  0  0  0  0  0  0  0  0
   57.2980   30.5046   53.4713 H   0  0  0  0  0  0  0  0  0  0  0  0
   52.6347   29.0428   54.3622 H   0  0  0  0  0  0  0  0  0  0  0  0
   50.9827   30.6336   53.3896 H   0  0  0  0  0  0  0  0  0  0  0  0
   53.8896   31.8130   50.4000 H   0  0  0  0  0  0  0  0  0  0  0  0
   55.5365   30.2198   51.3773 H   0  0  0  0  0  0  0  0  0  0  0  0
   59.3169   28.2878   50.4572 H   0  0  0  0  0  0  0  0  0  0  0  0
   58.3657   28.8203   49.0295 H   0  0  0  0  0  0  0  0  0  0  0  0
   60.1544   28.9856   49.0295 H   0  0  0  0  0  0  0  0  0  0  0  0
   58.7075   34.4862   46.9865 H   0  0  0  0  0  0  0  0  0  0  0  0
   59.7819   35.0127   45.6467 H   0  0  0  0  0  0  0  0  0  0  0  0
   58.0488   35.4851   45.6467 H   0  0  0  0  0  0  0  0  0  0  0  0
   58.6747   34.4082   43.2175 H   0  0  0  0  0  0  0  0  0  0  0  0
  1  2  1  0
  2  3  2  0
  3  4  1  0
  4  5  1  0
  4  6  2  0
  6  7  1  0
  7  8  1  0
  8  9  2  0
  8 10  1  0
 10 11  2  0
 11 12  1  0
 12 13  1  0
 13 14  1  0
 14 15  1  0
 15 16  1  0
 16 17  1  0
 17 18  2  0
 17 19  2  0
 17 20  1  0
 20 21  2  0
 21 22  1  0
 22 23  2  0
 23 24  1  0
 24 25  2  0
 24 26  1  0
 23 27  1  0
 27 28  2  0
 13 29  2  0
 29 30  1  0
  6 31  1  0
 31 32  1  0
 31 33  2  0
 33  2  1  0
 29 10  1  0
 28 20  1  0
  1 34  1  0
  1 35  1  0
  1 36  1  0
  3 37  1  0
  5 38  1  0
  5 39  1  0
  5 40  1  0
  7 41  1  0
 11 42  1  0
 14 43  1  0
 14 44  1  0
 15 45  1  0
 15 46  1  0
 21 47  1  0
 22 48  1  0
 27 49  1  0
 28 50  1  0
 30 51  1  0
 30 52  1  0
 30 53  1  0
 32 54  1  0
 32 55  1  0
 32 56  1  0
 33 57  1  0
M  CHG  3  16  -1  24   1  26  -1
M  END
>  <UniqueID>  (69) 
64

>  <SMILES>  (69) 
Cc1cc(C)c(NC(=O)c2csc(CC[N-]S(=O)(=O)c3ccc([N+](=O)[O-])cc3)c2C)c(C)c1

>  <Energy>  (69) 
91.38701504742123

>  <Genealogy>  (69) 
Cc1cc(C)c(NC(=O)c2csc(CC[N-]S(=O)(=O)c3ccc([N+](=O)[O-])cc3)c2C)c(C)c1 (protonated)
Cc1cc(C)c(NC(=O)c2csc(CC[N-]S(=O)(=O)c3ccc([N+](=O)[O-])cc3)c2C)c(C)c1 (3D coordinates assigned)
Cc1cc(C)c(NC(=O)c2csc(CC[N-]S(=O)(=O)c3ccc([N+](=O)[O-])cc3)c2C)c(C)c1 (optimized conformer: 91.38701504742123 kcal/mol)

>  <smiles>  (69) 
Cc1cc(C)c(NC(=O)c2csc(CCNS(=O)(=O)c3ccc([N+](=O)[O-])cc3)c2C)c(C)c1

>  <score_type>  (69) 
oracle

>  <origin>  (69) 
adg

>  <m_score__min__energy>  (69) 
-10.42

>  <m_primary>  (69) 
energy

$$$$
69:0
     RDKit          3D

 74 77  0  0  1  0  0  0  0  0999 V2000
   56.1900   23.9900   47.3420 C   0  0  0  0  0  0  0  0  0  0  0  0
   56.1540   25.3520   47.0640 O   0  0  0  0  0  0  0  0  0  0  0  0
   57.1520   26.0700   46.4560 C   0  0  0  0  0  0  0  0  0  0  0  0
   58.4800   25.8150   46.7020 C   0  0  0  0  0  0  0  0  0  0  0  0
   59.4390   26.5700   46.0590 C   0  0  0  0  0  0  0  0  0  0  0  0
   59.0670   27.5640   45.1860 C   0  0  0  0  0  0  0  0  0  0  0  0
   57.7240   27.8540   44.9100 C   0  0  0  0  0  0  0  0  0  0  0  0
   57.4510   28.8830   44.0030 N   0  0  0  0  0  0  0  0  0  0  0  0
   56.3520   29.7620   44.0200 C   0  0  0  0  0  0  0  0  0  0  0  0
   55.4780   29.7000   44.8890 O   0  0  0  0  0  0  0  0  0  0  0  0
   56.2320   30.7330   43.0370 O   0  0  0  0  0  0  0  0  0  0  0  0
   57.4090   31.4580   42.6470 C   0  0  0  0  0  0  0  0  0  0  0  0
   58.0110   32.0090   43.8950 C   0  0  0  0  0  0  0  0  0  0  0  0
   57.8590   33.3480   44.1380 C   0  0  0  0  0  0  0  0  0  0  0  0
   58.3970   33.9010   45.2800 C   0  0  0  0  0  0  0  0  0  0  0  0
   59.0910   33.1210   46.1910 C   0  0  0  0  0  0  0  0  0  0  0  0
   59.7300   33.9300   47.6280 S   0  0  0  0  0  0  0  0  0  0  0  0
   61.0800   34.4790   47.1700 O   0  0  0  0  0  0  0  0  0  0  0  0
   58.8940   35.0510   48.0780 O   0  0  0  0  0  0  0  0  0  0  0  0
   60.0460   32.7600   48.8970 N   0  0  0  0  0  0  0  0  0  0  0  0
   59.1800   31.6280   49.1100 C   0  0  0  0  0  0  0  0  0  0  0  0
   59.6660   30.3790   49.6250 C   0  0  0  0  0  0  0  0  0  0  0  0
   59.7030   30.0540   50.9480 C   0  0  0  0  0  0  0  0  0  0  0  0
   60.1690   28.8230   51.4190 C   0  0  0  0  0  0  0  0  0  0  0  0
   60.6170   27.8800   50.5040 C   0  0  0  0  0  0  0  0  0  0  0  0
   61.1100   26.5880   50.9420 C   0  0  0  0  0  0  0  0  0  0  0  0
   61.5170   25.5630   51.2950 N   0  0  0  0  0  0  0  0  0  0  0  0
   60.5870   28.1910   49.1610 C   0  0  0  0  0  0  0  0  0  0  0  0
   60.1250   29.4060   48.7260 C   0  0  0  0  0  0  0  0  0  0  0  0
   61.0430   32.9920   49.8920 C   0  0  0  0  0  0  0  0  0  0  0  0
   60.4380   33.4000   51.1190 C   0  0  0  0  0  0  0  0  0  0  0  0
   58.9880   33.5980   51.2900 C   0  0  0  0  0  0  0  0  0  0  0  0
   61.1960   33.6500   52.2430 C   0  0  0  0  0  0  0  0  0  0  0  0
   62.5330   33.4960   52.1510 C   0  0  0  0  0  0  0  0  0  0  0  0
   63.3840   33.7540   53.3280 C   0  0  0  0  0  0  0  0  0  0  0  0
   63.0990   33.1110   50.9920 C   0  0  0  0  0  0  0  0  0  0  0  0
   62.3820   32.8400   49.8010 C   0  0  0  0  0  0  0  0  0  0  0  0
   63.2240   32.4520   48.7130 C   0  0  0  0  0  0  0  0  0  0  0  0
   64.5320   33.0480   48.5940 O   0  0  0  0  0  0  0  0  0  0  0  0
   63.0440   31.6330   47.7680 N   0  0  0  0  0  0  0  0  0  0  0  0
   63.8390   31.4380   46.7460 O   0  0  0  0  0  0  0  0  0  0  0  0
   59.2510   31.7870   45.9630 C   0  0  0  0  0  0  0  0  0  0  0  0
   58.7020   31.2300   44.8020 C   0  0  0  0  0  0  0  0  0  0  0  0
   56.8070   27.0790   45.5700 C   0  0  0  0  0  0  0  0  0  0  0  0
   56.1940   23.8381   48.4315 H   0  0  0  0  0  0  0  0  0  0  0  0
   55.3044   23.5035   46.9072 H   0  0  0  0  0  0  0  0  0  0  0  0
   57.1001   23.5510   46.9072 H   0  0  0  0  0  0  0  0  0  0  0  0
   58.7743   25.0194   47.4023 H   0  0  0  0  0  0  0  0  0  0  0  0
   60.5055   26.3756   46.2458 H   0  0  0  0  0  0  0  0  0  0  0  0
   59.8507   28.1525   44.6865 H   0  0  0  0  0  0  0  0  0  0  0  0
   58.1400   29.0330   43.2020 H   0  0  0  0  0  0  0  0  0  0  0  0
   58.1212   30.7836   42.1491 H   0  0  0  0  0  0  0  0  0  0  0  0
   57.1595   32.2637   41.9409 H   0  0  0  0  0  0  0  0  0  0  0  0
   57.3096   33.9798   43.4245 H   0  0  0  0  0  0  0  0  0  0  0  0
   58.2737   34.9772   45.4710 H   0  0  0  0  0  0  0  0  0  0  0  0
   58.4001   31.9654   49.8085 H   0  0  0  0  0  0  0  0  0  0  0  0
   58.8998   31.3577   48.0812 H   0  0  0  0  0  0  0  0  0  0  0  0
   59.3495   30.7953   51.6798 H   0  0  0  0  0  0  0  0  0  0  0  0
   60.1805   28.6051   52.4971 H   0  0  0  0  0  0  0  0  0  0  0  0
   60.9396   27.4519   48.4266 H   0  0  0  0  0  0  0  0  0  0  0  0
   60.1141   29.6224   47.6476 H   0  0  0  0  0  0  0  0  0  0  0  0
   58.7464   33.6310   52.3626 H   0  0  0  0  0  0  0  0  0  0  0  0
   58.6890   34.5453   50.8175 H   0  0  0  0  0  0  0  0  0  0  0  0
   58.4460   32.7655   50.8175 H   0  0  0  0  0  0  0  0  0  0  0  0
   60.7251   33.9653   53.1858 H   0  0  0  0  0  0  0  0  0  0  0  0
   62.8036   33.5781   54.2457 H   0  0  0  0  0  0  0  0  0  0  0  0
   64.2520   33.0787   53.3080 H   0  0  0  0  0  0  0  0  0  0  0  0
   63.7309   34.7977   53.3080 H   0  0  0  0  0  0  0  0  0  0  0  0
   64.1930   32.9992   50.9682 H   0  0  0  0  0  0  0  0  0  0  0  0
   64.9820   33.0190   47.6810 H   0  0  0  0  0  0  0  0  0  0  0  0
   64.7620   31.8180   46.6880 H   0  0  0  0  0  0  0  0  0  0  0  0
   59.8018   31.1590   46.6787 H   0  0  0  0  0  0  0  0  0  0  0  0
   58.8230   30.1539   44.6090 H   0  0  0  0  0  0  0  0  0  0  0  0
   55.7389   27.2676   45.3870 H   0  0  0  0  0  0  0  0  0  0  0  0
  1  2  1  0
  2  3  1  0
  3  4  2  0
  4  5  1  0
  5  6  2  0
  6  7  1  0
  7  8  1  0
  8  9  1  0
  9 10  2  0
  9 11  1  0
 11 12  1  0
 12 13  1  0
 13 14  2  0
 14 15  1  0
 15 16  2  0
 16 17  1  0
 17 18  2  0
 17 19  2  0
 17 20  1  0
 20 21  1  0
 21 22  1  0
 22 23  2  0
 23 24  1  0
 24 25  2  0
 25 26  1  0
 26 27  3  0
 25 28  1  0
 28 29  2  0
 20 30  1  0
 30 31  2  0
 31 32  1  0
 31 33  1  0
 33 34  2  0
 34 35  1  0
 34 36  1  0
 36 37  2  0
 37 38  1  0
 38 39  1  0
 38 40  2  0
 40 41  1  0
 16 42  1  0
 42 43  2  0
  7 44  2  0
 44  3  1  0
 43 13  1  0
 29 22  1  0
 37 30  1  0
  1 45  1  0
  1 46  1  0
  1 47  1  0
  4 48  1  0
  5 49  1  0
  6 50  1  0
  8 51  1  0
 12 52  1  0
 12 53  1  0
 14 54  1  0
 15 55  1  0
 21 56  1  0
 21 57  1  0
 23 58  1  0
 24 59  1  0
 28 60  1  0
 29 61  1  0
 32 62  1  0
 32 63  1  0
 32 64  1  0
 33 65  1  0
 35 66  1  0
 35 67  1  0
 35 68  1  0
 36 69  1  0
 39 70  1  0
 41 71  1  0
 42 72  1  0
 43 73  1  0
 44 74  1  0
M  END
>  <smiles>  (70) 
COc1cccc(NC(=O)OCc2ccc(S(=O)(=O)N(Cc3ccc(C#N)cc3)c3c(C)cc(C)cc3C(O)=NO)cc2)c1

>  <score_type>  (70) 
oracle

>  <origin>  (70) 
adg

>  <m_score__min__energy>  (70) 
-10.140000000000001

>  <m_primary>  (70) 
energy

$$$$
70:0
     RDKit          3D

 66 70  0  0  0  0  0  0  0  0999 V2000
   50.9000   33.3070   52.0160 N   0  0  0  0  0  0  0  0  0  0  0  0
   51.3630   32.2720   51.1500 C   0  0  0  0  0  0  0  0  0  0  0  0
   51.1190   32.3510   49.9160 O   0  0  0  0  0  0  0  0  0  0  0  0
   52.1100   31.1130   51.6930 C   0  0  0  0  0  0  0  0  0  0  0  0
   51.4710   29.8710   51.8690 C   0  0  0  0  0  0  0  0  0  0  0  0
   52.1690   28.7850   52.4000 C   0  0  0  0  0  0  0  0  0  0  0  0
   53.5120   28.9210   52.7580 C   0  0  0  0  0  0  0  0  0  0  0  0
   54.1660   30.1470   52.5840 C   0  0  0  0  0  0  0  0  0  0  0  0
   55.8530   30.3000   53.0610 S   0  0  0  0  0  0  0  0  0  0  0  0
   56.7060   29.3460   52.2740 O   0  0  0  0  0  0  0  0  0  0  0  0
   55.9900   29.9680   54.5200 O   0  0  0  0  0  0  0  0  0  0  0  0
   56.3810   31.9170   52.7230 N   0  0  0  0  0  0  0  0  0  0  0  0
   57.4340   32.2570   51.8150 C   0  0  0  0  0  0  0  0  0  0  0  0
   58.1910   33.4240   51.9710 C   0  0  0  0  0  0  0  0  0  0  0  0
   59.2350   33.7060   51.0920 C   0  0  0  0  0  0  0  0  0  0  0  0
   59.5350   32.8350   50.0300 C   0  0  0  0  0  0  0  0  0  0  0  0
   60.6280   33.0810   49.1810 O   0  0  0  0  0  0  0  0  0  0  0  0
   61.9810   32.8530   49.4740 C   0  0  0  0  0  0  0  0  0  0  0  0
   63.0200   33.3550   48.6710 C   0  0  0  0  0  0  0  0  0  0  0  0
   64.3540   33.0890   48.9950 C   0  0  0  0  0  0  0  0  0  0  0  0
   64.6670   32.2920   50.1080 C   0  0  0  0  0  0  0  0  0  0  0  0
   66.1020   32.0260   50.4760 C   0  0  0  0  0  0  0  0  0  0  0  0
   66.7920   33.3070   50.8570 C   0  0  0  0  0  0  0  0  0  0  0  0
   68.1310   33.5260   50.4950 C   0  0  0  0  0  0  0  0  0  0  0  0
   68.7830   34.6980   50.8920 C   0  0  0  0  0  0  0  0  0  0  0  0
   68.1080   35.6490   51.6630 C   0  0  0  0  0  0  0  0  0  0  0  0
   66.7810   35.4310   52.0380 C   0  0  0  0  0  0  0  0  0  0  0  0
   66.1230   34.2650   51.6400 C   0  0  0  0  0  0  0  0  0  0  0  0
   63.6270   31.7790   50.8990 C   0  0  0  0  0  0  0  0  0  0  0  0
   62.2950   32.0540   50.5780 C   0  0  0  0  0  0  0  0  0  0  0  0
   58.7830   31.6470   49.8730 C   0  0  0  0  0  0  0  0  0  0  0  0
   59.0610   30.6910   48.7710 C   0  0  0  0  0  0  0  0  0  0  0  0
   59.5920   29.5780   49.0330 O   0  0  0  0  0  0  0  0  0  0  0  0
   58.7270   31.0380   47.4200 N   0  0  0  0  0  0  0  0  0  0  0  0
   58.9100   32.2870   46.7350 C   0  0  0  0  0  0  0  0  0  0  0  0
   57.7660   32.9840   46.3140 C   0  0  0  0  0  0  0  0  0  0  0  0
   57.8860   34.1950   45.6250 C   0  0  0  0  0  0  0  0  0  0  0  0
   59.1500   34.7160   45.3410 C   0  0  0  0  0  0  0  0  0  0  0  0
   59.2650   35.9200   44.6560 O   0  0  0  0  0  0  0  0  0  0  0  0
   60.2980   34.0230   45.7390 C   0  0  0  0  0  0  0  0  0  0  0  0
   60.1820   32.8050   46.4170 C   0  0  0  0  0  0  0  0  0  0  0  0
   57.7490   31.3650   50.7860 C   0  0  0  0  0  0  0  0  0  0  0  0
   53.4640   31.2410   52.0550 C   0  0  0  0  0  0  0  0  0  0  0  0
   49.9020   33.6140   52.0010 H   0  0  0  0  0  0  0  0  0  0  0  0
   50.4143   29.7555   51.5861 H   0  0  0  0  0  0  0  0  0  0  0  0
   51.6599   27.8196   52.5368 H   0  0  0  0  0  0  0  0  0  0  0  0
   54.0575   28.0629   53.1777 H   0  0  0  0  0  0  0  0  0  0  0  0
   57.9610   34.1210   52.7903 H   0  0  0  0  0  0  0  0  0  0  0  0
   59.8309   34.6202   51.2306 H   0  0  0  0  0  0  0  0  0  0  0  0
   62.7824   33.9600   47.7835 H   0  0  0  0  0  0  0  0  0  0  0  0
   65.1617   33.5058   48.3754 H   0  0  0  0  0  0  0  0  0  0  0  0
   66.1348   31.3297   51.3270 H   0  0  0  0  0  0  0  0  0  0  0  0
   66.6173   31.5876   49.6086 H   0  0  0  0  0  0  0  0  0  0  0  0
   68.6682   32.7743   49.8980 H   0  0  0  0  0  0  0  0  0  0  0  0
   69.8284   34.8717   50.5971 H   0  0  0  0  0  0  0  0  0  0  0  0
   68.6229   36.5698   51.9744 H   0  0  0  0  0  0  0  0  0  0  0  0
   66.2528   36.1787   52.6479 H   0  0  0  0  0  0  0  0  0  0  0  0
   65.0783   34.0954   51.9398 H   0  0  0  0  0  0  0  0  0  0  0  0
   63.8616   31.1575   51.7758 H   0  0  0  0  0  0  0  0  0  0  0  0
   61.4872   31.6388   51.1985 H   0  0  0  0  0  0  0  0  0  0  0  0
   56.7678   32.5743   46.5278 H   0  0  0  0  0  0  0  0  0  0  0  0
   56.9838   34.7377   45.3065 H   0  0  0  0  0  0  0  0  0  0  0  0
   61.2933   34.4364   45.5185 H   0  0  0  0  0  0  0  0  0  0  0  0
   61.0870   32.2491   46.7032 H   0  0  0  0  0  0  0  0  0  0  0  0
   57.1804   30.4285   50.6880 H   0  0  0  0  0  0  0  0  0  0  0  0
   53.9758   32.2056   51.9223 H   0  0  0  0  0  0  0  0  0  0  0  0
  1  2  1  0
  2  3  2  0
  2  4  1  0
  4  5  2  0
  5  6  1  0
  6  7  2  0
  7  8  1  0
  8  9  1  0
  9 10  2  0
  9 11  2  0
  9 12  1  0
 12 13  1  0
 13 14  2  0
 14 15  1  0
 15 16  2  0
 16 17  1  0
 17 18  1  0
 18 19  2  0
 19 20  1  0
 20 21  2  0
 21 22  1  0
 22 23  1  0
 23 24  2  0
 24 25  1  0
 25 26  2  0
 26 27  1  0
 27 28  2  0
 21 29  1  0
 29 30  2  0
 16 31  1  0
 31 32  1  0
 32 33  2  0
 32 34  1  0
 34 35  1  0
 35 36  2  0
 36 37  1  0
 37 38  2  0
 38 39  1  0
 38 40  1  0
 40 41  2  0
 31 42  2  0
  8 43  2  0
 43  4  1  0
 42 13  1  0
 30 18  1  0
 41 35  1  0
 28 23  1  0
  1 44  1  0
  5 45  1  0
  6 46  1  0
  7 47  1  0
 14 48  1  0
 15 49  1  0
 19 50  1  0
 20 51  1  0
 22 52  1  0
 22 53  1  0
 24 54  1  0
 25 55  1  0
 26 56  1  0
 27 57  1  0
 28 58  1  0
 29 59  1  0
 30 60  1  0
 36 61  1  0
 37 62  1  0
 40 63  1  0
 41 64  1  0
 42 65  1  0
 43 66  1  0
M  CHG  4   1  -1  12  -1  34  -1  39  -1
M  END
>  <UniqueID>  (71) 
65

>  <SMILES>  (71) 
[NH-]C(=O)c1cccc(S(=O)(=O)[N-]c2ccc(Oc3ccc(Cc4ccccc4)cc3)c(C(=O)[N-]c3ccc([O-])cc3)c2)c1

>  <Energy>  (71) 
92.9312520582482

>  <Genealogy>  (71) 
[NH-]C(=O)c1cccc(S(=O)(=O)[N-]c2ccc(Oc3ccc(Cc4ccccc4)cc3)c(C(=O)[N-]c3ccc([O-])cc3)c2)c1 (protonated)
[NH-]C(=O)c1cccc(S(=O)(=O)[N-]c2ccc(Oc3ccc(Cc4ccccc4)cc3)c(C(=O)[N-]c3ccc([O-])cc3)c2)c1 (3D coordinates assigned)
[NH-]C(=O)c1cccc(S(=O)(=O)[N-]c2ccc(Oc3ccc(Cc4ccccc4)cc3)c(C(=O)[N-]c3ccc([O-])cc3)c2)c1 (optimized conformer: 92.9312520582482 kcal/mol)

>  <smiles>  (71) 
NC(=O)c1cccc(S(=O)(=O)Nc2ccc(Oc3ccc(Cc4ccccc4)cc3)c(C(=O)Nc3ccc(O)cc3)c2)c1

>  <score_type>  (71) 
oracle

>  <origin>  (71) 
adg

>  <m_score__min__energy>  (71) 
-18.280000000000001

>  <m_primary>  (71) 
energy

$$$$
71:0
     RDKit          3D

 47 49  0  0  0  0  0  0  0  0999 V2000
   60.3650   28.5270   45.1390 O   0  0  0  0  0  0  0  0  0  0  0  0
   59.8720   27.9900   46.1650 C   0  0  0  0  0  0  0  0  0  0  0  0
   60.3880   28.4020   47.5220 C   0  0  0  0  0  0  0  0  0  0  0  0
   59.7610   29.6570   47.9690 N   0  0  0  0  0  0  0  0  0  0  0  0
   58.5260   29.3550   48.4550 O   0  0  0  0  0  0  0  0  0  0  0  0
   60.5410   30.2570   49.0640 C   0  0  0  0  0  0  0  0  0  0  0  0
   61.2910   31.4620   48.5630 C   0  0  0  0  0  0  0  0  0  0  0  0
   61.0400   32.7260   49.1230 C   0  0  0  0  0  0  0  0  0  0  0  0
   61.7510   33.8460   48.6790 C   0  0  0  0  0  0  0  0  0  0  0  0
   62.7200   33.7100   47.6800 C   0  0  0  0  0  0  0  0  0  0  0  0
   62.9850   32.4530   47.1280 C   0  0  0  0  0  0  0  0  0  0  0  0
   62.2780   31.3300   47.5690 C   0  0  0  0  0  0  0  0  0  0  0  0
   58.8610   26.9070   46.0160 C   0  0  0  0  0  0  0  0  0  0  0  0
   59.2840   25.5620   45.9580 C   0  0  0  0  0  0  0  0  0  0  0  0
   58.3640   24.5320   45.7820 C   0  0  0  0  0  0  0  0  0  0  0  0
   57.0090   24.8230   45.6630 C   0  0  0  0  0  0  0  0  0  0  0  0
   56.5680   26.1440   45.7170 C   0  0  0  0  0  0  0  0  0  0  0  0
   57.4780   27.1990   45.8870 C   0  0  0  0  0  0  0  0  0  0  0  0
   57.0230   28.5590   45.9920 N   0  0  0  0  0  0  0  0  0  0  0  0
   56.7740   29.6630   44.6770 S   0  0  0  0  0  0  0  0  0  0  0  0
   57.3140   29.0990   43.3970 O   0  0  0  0  0  0  0  0  0  0  0  0
   55.2970   29.8740   44.5030 O   0  0  0  0  0  0  0  0  0  0  0  0
   57.5280   31.2090   45.0500 C   0  0  0  0  0  0  0  0  0  0  0  0
   58.0890   31.4280   46.3180 C   0  0  0  0  0  0  0  0  0  0  0  0
   58.7140   32.6460   46.6070 C   0  0  0  0  0  0  0  0  0  0  0  0
   58.7930   33.6510   45.6300 C   0  0  0  0  0  0  0  0  0  0  0  0
   59.6440   35.3110   46.0250 Br  0  0  0  0  0  0  0  0  0  0  0  0
   58.2340   33.4380   44.3660 C   0  0  0  0  0  0  0  0  0  0  0  0
   57.6010   32.2230   44.0770 C   0  0  0  0  0  0  0  0  0  0  0  0
   60.1609   27.6082   48.2489 H   0  0  0  0  0  0  0  0  0  0  0  0
   61.4741   28.5606   47.4493 H   0  0  0  0  0  0  0  0  0  0  0  0
   58.0020   29.0820   47.6620 H   0  0  0  0  0  0  0  0  0  0  0  0
   59.8595   30.5622   49.8717 H   0  0  0  0  0  0  0  0  0  0  0  0
   61.2605   29.5160   49.4423 H   0  0  0  0  0  0  0  0  0  0  0  0
   60.2822   32.8352   49.9128 H   0  0  0  0  0  0  0  0  0  0  0  0
   61.5476   34.8347   49.1162 H   0  0  0  0  0  0  0  0  0  0  0  0
   63.2742   34.5926   47.3281 H   0  0  0  0  0  0  0  0  0  0  0  0
   63.7509   32.3473   46.3455 H   0  0  0  0  0  0  0  0  0  0  0  0
   62.4940   30.3413   47.1379 H   0  0  0  0  0  0  0  0  0  0  0  0
   60.3538   25.3244   46.0530 H   0  0  0  0  0  0  0  0  0  0  0  0
   58.7086   23.4883   45.7371 H   0  0  0  0  0  0  0  0  0  0  0  0
   56.2832   24.0079   45.5258 H   0  0  0  0  0  0  0  0  0  0  0  0
   55.4938   26.3624   45.6253 H   0  0  0  0  0  0  0  0  0  0  0  0
   58.0372   30.6413   47.0851 H   0  0  0  0  0  0  0  0  0  0  0  0
   59.1454   32.8169   47.6043 H   0  0  0  0  0  0  0  0  0  0  0  0
   58.2916   34.2246   43.5992 H   0  0  0  0  0  0  0  0  0  0  0  0
   57.1581   32.0601   43.0834 H   0  0  0  0  0  0  0  0  0  0  0  0
  1  2  2  0
  2  3  1  0
  3  4  1  0
  4  5  1  0
  4  6  1  0
  6  7  1  0
  7  8  2  0
  8  9  1  0
  9 10  2  0
 10 11  1  0
 11 12  2  0
  2 13  1  0
 13 14  2  0
 14 15  1  0
 15 16  2  0
 16 17  1  0
 17 18  2  0
 18 19  1  0
 19 20  1  0
 20 21  2  0
 20 22  2  0
 20 23  1  0
 23 24  2  0
 24 25  1  0
 25 26  2  0
 26 27  1  0
 26 28  1  0
 28 29  2  0
 12  7  1  0
 18 13  1  0
 29 23  1  0
  3 30  1  0
  3 31  1  0
  5 32  1  0
  6 33  1  0
  6 34  1  0
  8 35  1  0
  9 36  1  0
 10 37  1  0
 11 38  1  0
 12 39  1  0
 14 40  1  0
 15 41  1  0
 16 42  1  0
 17 43  1  0
 24 44  1  0
 25 45  1  0
 28 46  1  0
 29 47  1  0
M  CHG  1  19  -1
M  END
>  <UniqueID>  (72) 
66

>  <SMILES>  (72) 
O=C(CN(O)Cc1ccccc1)c1ccccc1[N-]S(=O)(=O)c1ccc(Br)cc1

>  <Energy>  (72) 
57.354534762326566

>  <Genealogy>  (72) 
O=C(CN(O)Cc1ccccc1)c1ccccc1[N-]S(=O)(=O)c1ccc(Br)cc1 (protonated)
O=C(CN(O)Cc1ccccc1)c1ccccc1[N-]S(=O)(=O)c1ccc(Br)cc1 (3D coordinates assigned)
O=C(CN(O)Cc1ccccc1)c1ccccc1[N-]S(=O)(=O)c1ccc(Br)cc1 (optimized conformer: 57.354534762326566 kcal/mol)

>  <smiles>  (72) 
O=C(CN(O)Cc1ccccc1)c1ccccc1NS(=O)(=O)c1ccc(Br)cc1

>  <score_type>  (72) 
oracle

>  <origin>  (72) 
adg

>  <m_score__min__energy>  (72) 
-12.4

>  <m_primary>  (72) 
energy

$$$$
72:0
     RDKit          3D

 24 25  0  0  0  0  0  0  0  0999 V2000
   56.2300   31.0180   44.7950 O   0  0  0  0  0  0  0  0  0  0  0  0
   56.2400   29.7860   44.5370 C   0  0  0  0  0  0  0  0  0  0  0  0
   55.1430   29.0040   44.8730 O   0  0  0  0  0  0  0  0  0  0  0  0
   57.4110   29.1720   43.8430 C   0  0  0  0  0  0  0  0  0  0  0  0
   58.6570   28.6240   45.0580 S   0  0  0  0  0  0  0  0  0  0  0  0
   57.7430   27.1670   45.5570 C   0  0  0  0  0  0  0  0  0  0  0  0
   56.8230   27.1650   46.5370 N   0  0  0  0  0  0  0  0  0  0  0  0
   56.3690   25.9270   46.6190 N   0  0  0  0  0  0  0  0  0  0  0  0
   57.0250   25.2090   45.6870 C   0  0  0  0  0  0  0  0  0  0  0  0
   56.8080   23.7650   45.4560 C   0  0  0  0  0  0  0  0  0  0  0  0
   56.9410   22.8460   46.5120 C   0  0  0  0  0  0  0  0  0  0  0  0
   56.7340   21.4810   46.2930 C   0  0  0  0  0  0  0  0  0  0  0  0
   56.3920   21.0150   45.0180 C   0  0  0  0  0  0  0  0  0  0  0  0
   56.1850   19.6550   44.7940 O   0  0  0  0  0  0  0  0  0  0  0  0
   56.2570   21.9230   43.9610 C   0  0  0  0  0  0  0  0  0  0  0  0
   55.9180   21.4700   42.6910 O   0  0  0  0  0  0  0  0  0  0  0  0
   56.4630   23.2890   44.1780 C   0  0  0  0  0  0  0  0  0  0  0  0
   57.9030   25.9570   44.9890 N   0  0  0  0  0  0  0  0  0  0  0  0
   57.0711   28.3055   43.2568 H   0  0  0  0  0  0  0  0  0  0  0  0
   57.8660   29.9227   43.1801 H   0  0  0  0  0  0  0  0  0  0  0  0
   57.2097   23.2036   47.5170 H   0  0  0  0  0  0  0  0  0  0  0  0
   56.8403   20.7702   47.1258 H   0  0  0  0  0  0  0  0  0  0  0  0
   56.7370   19.1390   44.1180 H   0  0  0  0  0  0  0  0  0  0  0  0
   56.3544   23.9967   43.3430 H   0  0  0  0  0  0  0  0  0  0  0  0
  1  2  2  0
  2  3  1  0
  2  4  1  0
  4  5  1  0
  5  6  1  0
  6  7  2  0
  7  8  1  0
  8  9  1  0
  9 10  1  0
 10 11  2  0
 11 12  1  0
 12 13  2  0
 13 14  1  0
 13 15  1  0
 15 16  1  0
 15 17  2  0
  9 18  2  0
 18  6  1  0
 17 10  1  0
  4 19  1  0
  4 20  1  0
 11 21  1  0
 12 22  1  0
 14 23  1  0
 17 24  1  0
M  CHG  3   3  -1   8  -1  16  -1
M  END
>  <UniqueID>  (73) 
67

>  <SMILES>  (73) 
O=C([O-])CSc1n[n-]c(-c2ccc(O)c([O-])c2)n1

>  <Energy>  (73) 
52.293749862067564

>  <Genealogy>  (73) 
O=C([O-])CSc1n[n-]c(-c2ccc(O)c([O-])c2)n1 (protonated)
O=C([O-])CSc1n[n-]c(-c2ccc(O)c([O-])c2)n1 (3D coordinates assigned)
O=C([O-])CSc1n[n-]c(-c2ccc(O)c([O-])c2)n1 (optimized conformer: 52.293749862067564 kcal/mol)

>  <smiles>  (73) 
O=C(O)CSc1n[nH]c(-c2ccc(O)c(O)c2)n1

>  <score_type>  (73) 
oracle

>  <origin>  (73) 
adg

>  <m_score__min__energy>  (73) 
-11.82

>  <m_primary>  (73) 
energy

$$$$
73:0
     RDKit          3D

 40 42  0  0  0  0  0  0  0  0999 V2000
   64.5350   32.2030   50.5690 C   0  0  0  0  0  0  0  0  0  0  0  0
   63.8570   32.5740   49.2930 C   0  0  0  0  0  0  0  0  0  0  0  0
   62.5350   32.4390   49.0760 N   0  0  0  0  0  0  0  0  0  0  0  0
   62.4280   32.8720   47.8020 C   0  0  0  0  0  0  0  0  0  0  0  0
   61.1530   32.9330   47.0560 C   0  0  0  0  0  0  0  0  0  0  0  0
   60.2950   31.8230   47.0240 C   0  0  0  0  0  0  0  0  0  0  0  0
   59.0920   31.8780   46.3200 C   0  0  0  0  0  0  0  0  0  0  0  0
   58.7160   33.0410   45.6300 C   0  0  0  0  0  0  0  0  0  0  0  0
   57.3930   33.0620   44.9000 C   0  0  0  0  0  0  0  0  0  0  0  0
   56.6570   31.8250   45.1370 N   0  0  0  0  0  0  0  0  0  0  0  0
   56.9380   30.5910   44.4650 C   0  0  0  0  0  0  0  0  0  0  0  0
   57.6120   30.5890   43.4010 O   0  0  0  0  0  0  0  0  0  0  0  0
   56.4630   29.3250   45.0470 C   0  0  0  0  0  0  0  0  0  0  0  0
   55.2720   28.9690   44.8490 O   0  0  0  0  0  0  0  0  0  0  0  0
   57.2920   28.5160   45.8900 N   0  0  0  0  0  0  0  0  0  0  0  0
   57.4080   27.0890   45.8210 C   0  0  0  0  0  0  0  0  0  0  0  0
   58.5380   26.3490   45.5390 C   0  0  0  0  0  0  0  0  0  0  0  0
   58.1060   25.0340   45.4880 C   0  0  0  0  0  0  0  0  0  0  0  0
   56.8090   24.9760   45.7070 O   0  0  0  0  0  0  0  0  0  0  0  0
   56.3680   26.1970   45.8980 C   0  0  0  0  0  0  0  0  0  0  0  0
   55.0380   26.5220   46.1380 O   0  0  0  0  0  0  0  0  0  0  0  0
   59.5700   34.1710   45.6610 C   0  0  0  0  0  0  0  0  0  0  0  0
   59.2180   35.4440   44.9360 C   0  0  0  0  0  0  0  0  0  0  0  0
   60.7820   34.1010   46.3710 C   0  0  0  0  0  0  0  0  0  0  0  0
   63.6200   33.2390   47.2840 N   0  0  0  0  0  0  0  0  0  0  0  0
   64.4770   33.0380   48.2380 O   0  0  0  0  0  0  0  0  0  0  0  0
   63.9235   32.5376   51.4199 H   0  0  0  0  0  0  0  0  0  0  0  0
   64.6596   31.1110   50.6140 H   0  0  0  0  0  0  0  0  0  0  0  0
   65.5219   32.6868   50.6140 H   0  0  0  0  0  0  0  0  0  0  0  0
   60.5732   30.9025   47.5581 H   0  0  0  0  0  0  0  0  0  0  0  0
   58.4302   30.9995   46.3054 H   0  0  0  0  0  0  0  0  0  0  0  0
   56.7954   33.9129   45.2590 H   0  0  0  0  0  0  0  0  0  0  0  0
   57.5843   33.1601   43.8212 H   0  0  0  0  0  0  0  0  0  0  0  0
   59.5613   26.7229   45.3874 H   0  0  0  0  0  0  0  0  0  0  0  0
   58.7520   24.1653   45.2931 H   0  0  0  0  0  0  0  0  0  0  0  0
   54.7760   27.4740   46.3630 H   0  0  0  0  0  0  0  0  0  0  0  0
   58.9993   36.2348   45.6687 H   0  0  0  0  0  0  0  0  0  0  0  0
   60.0645   35.7527   44.3050 H   0  0  0  0  0  0  0  0  0  0  0  0
   58.3332   35.2739   44.3050 H   0  0  0  0  0  0  0  0  0  0  0  0
   61.4497   34.9750   46.3899 H   0  0  0  0  0  0  0  0  0  0  0  0
  1  2  1  0
  2  3  2  0
  3  4  1  0
  4  5  1  0
  5  6  2  0
  6  7  1  0
  7  8  2  0
  8  9  1  0
  9 10  1  0
 10 11  1  0
 11 12  2  0
 11 13  1  0
 13 14  2  0
 13 15  1  0
 15 16  1  0
 16 17  1  0
 17 18  2  0
 18 19  1  0
 19 20  1  0
 20 21  1  0
  8 22  1  0
 22 23  1  0
 22 24  2  0
  4 25  2  0
 25 26  1  0
 26  2  1  0
 24  5  1  0
 20 16  2  0
  1 27  1  0
  1 28  1  0
  1 29  1  0
  6 30  1  0
  7 31  1  0
  9 32  1  0
  9 33  1  0
 17 34  1  0
 18 35  1  0
 21 36  1  0
 23 37  1  0
 23 38  1  0
 23 39  1  0
 24 40  1  0
M  CHG  2  10  -1  15  -1
M  END
>  <UniqueID>  (74) 
68

>  <SMILES>  (74) 
Cc1nc(-c2ccc(C[N-]C(=O)C(=O)[N-]c3ccoc3O)c(C)c2)no1

>  <Energy>  (74) 
104.01925121022558

>  <Genealogy>  (74) 
Cc1nc(-c2ccc(C[N-]C(=O)C(=O)[N-]c3ccoc3O)c(C)c2)no1 (protonated)
Cc1nc(-c2ccc(C[N-]C(=O)C(=O)[N-]c3ccoc3O)c(C)c2)no1 (3D coordinates assigned)
Cc1nc(-c2ccc(C[N-]C(=O)C(=O)[N-]c3ccoc3O)c(C)c2)no1 (optimized conformer: 104.01925121022558 kcal/mol)

>  <smiles>  (74) 
Cc1nc(-c2ccc(CNC(=O)C(=O)Nc3ccoc3O)c(C)c2)no1

>  <score_type>  (74) 
oracle

>  <origin>  (74) 
adg

>  <m_score__min__energy>  (74) 
-11.970000000000001

>  <m_primary>  (74) 
energy

$$$$
74:0
     RDKit          3D

 28 29  0  0  0  0  0  0  0  0999 V2000
   54.2840   28.9670   52.2600 O   0  0  0  0  0  0  0  0  0  0  0  0
   54.3200   30.2140   52.0850 C   0  0  0  0  0  0  0  0  0  0  0  0
   53.0750   31.0200   52.3300 C   0  0  0  0  0  0  0  0  0  0  0  0
   52.2450   31.0940   51.0860 C   0  0  0  0  0  0  0  0  0  0  0  0
   52.2760   29.9760   49.8250 S   0  0  0  0  0  0  0  0  0  0  0  0
   51.0880   30.7940   48.9610 C   0  0  0  0  0  0  0  0  0  0  0  0
   50.6430   30.4260   47.8430 O   0  0  0  0  0  0  0  0  0  0  0  0
   50.6520   31.9020   49.5970 N   0  0  0  0  0  0  0  0  0  0  0  0
   51.2960   32.0670   50.7820 C   0  0  0  0  0  0  0  0  0  0  0  0
   51.0160   33.1390   51.6200 O   0  0  0  0  0  0  0  0  0  0  0  0
   55.5370   30.8090   51.6180 N   0  0  0  0  0  0  0  0  0  0  0  0
   56.1310   32.0250   52.1610 C   0  0  0  0  0  0  0  0  0  0  0  0
   57.3280   31.6720   53.0440 C   0  0  0  0  0  0  0  0  0  0  0  0
   58.4230   31.1080   52.2430 N   0  0  0  0  0  0  0  0  0  0  0  0
   58.4000   29.8820   51.6340 C   0  0  0  0  0  0  0  0  0  0  0  0
   57.3280   28.9940   51.7240 O   0  0  0  0  0  0  0  0  0  0  0  0
   59.5390   29.5670   50.8990 C   0  0  0  0  0  0  0  0  0  0  0  0
   60.6040   30.8680   50.9970 S   0  0  0  0  0  0  0  0  0  0  0  0
   59.5750   31.7690   51.9710 C   0  0  0  0  0  0  0  0  0  0  0  0
   59.8410   32.9240   52.3950 O   0  0  0  0  0  0  0  0  0  0  0  0
   52.4875   30.5447   53.1294 H   0  0  0  0  0  0  0  0  0  0  0  0
   53.3636   32.0393   52.6263 H   0  0  0  0  0  0  0  0  0  0  0  0
   56.4656   32.6680   51.3336 H   0  0  0  0  0  0  0  0  0  0  0  0
   55.3802   32.5554   52.7651 H   0  0  0  0  0  0  0  0  0  0  0  0
   57.6834   32.5821   53.5494 H   0  0  0  0  0  0  0  0  0  0  0  0
   57.0103   30.9212   53.7825 H   0  0  0  0  0  0  0  0  0  0  0  0
   56.3660   29.2870   51.6240 H   0  0  0  0  0  0  0  0  0  0  0  0
   59.7135   28.6304   50.3492 H   0  0  0  0  0  0  0  0  0  0  0  0
  1  2  2  0
  2  3  1  0
  3  4  1  0
  4  5  1  0
  5  6  1  0
  6  7  2  0
  6  8  1  0
  8  9  1  0
  9 10  1  0
  2 11  1  0
 11 12  1  0
 12 13  1  0
 13 14  1  0
 14 15  1  0
 15 16  1  0
 15 17  2  0
 17 18  1  0
 18 19  1  0
 19 20  2  0
  9  4  2  0
 19 14  1  0
  3 21  1  0
  3 22  1  0
 12 23  1  0
 12 24  1  0
 13 25  1  0
 13 26  1  0
 16 27  1  0
 17 28  1  0
M  CHG  3   8  -1  10  -1  11  -1
M  END
>  <UniqueID>  (75) 
69

>  <SMILES>  (75) 
O=C(Cc1sc(=O)[n-]c1[O-])[N-]CCn1c(O)csc1=O

>  <Energy>  (75) 
84.39230539677145

>  <Genealogy>  (75) 
O=C(Cc1sc(=O)[n-]c1[O-])[N-]CCn1c(O)csc1=O (protonated)
O=C(Cc1sc(=O)[n-]c1[O-])[N-]CCn1c(O)csc1=O (3D coordinates assigned)
O=C(Cc1sc(=O)[n-]c1[O-])[N-]CCn1c(O)csc1=O (optimized conformer: 84.39230539677145 kcal/mol)

>  <smiles>  (75) 
O=C(Cc1sc(=O)[nH]c1O)NCCn1c(O)csc1=O

>  <score_type>  (75) 
oracle

>  <origin>  (75) 
adg

>  <m_score__min__energy>  (75) 
-13.949999999999999

>  <m_primary>  (75) 
energy

$$$$
75:0
     RDKit          3D

 37 39  0  0  0  0  0  0  0  0999 V2000
   59.7741   27.1926   46.9545 H   0  0  0  0  0  0  0  0  0  0  0  0
   59.5230   28.2630   46.9200 C   0  0  0  0  0  0  0  0  0  0  0  0
   60.0101   28.9648   47.6130 H   0  0  0  0  0  0  0  0  0  0  0  0
   58.6180   28.7150   46.0280 C   0  0  0  0  0  0  0  0  0  0  0  0
   58.3200   30.1050   46.0140 C   0  0  0  0  0  0  0  0  0  0  0  0
   58.7080   30.9610   47.0560 O   0  0  0  0  0  0  0  0  0  0  0  0
   59.1210   32.2890   46.8740 C   0  0  0  0  0  0  0  0  0  0  0  0
   58.2010   33.3340   46.6610 C   0  0  0  0  0  0  0  0  0  0  0  0
   57.1229   33.1180   46.6298 H   0  0  0  0  0  0  0  0  0  0  0  0
   58.6550   34.6460   46.4890 C   0  0  0  0  0  0  0  0  0  0  0  0
   57.9333   35.4606   46.3292 H   0  0  0  0  0  0  0  0  0  0  0  0
   60.0250   34.9230   46.5200 C   0  0  0  0  0  0  0  0  0  0  0  0
   60.3807   35.9555   46.3878 H   0  0  0  0  0  0  0  0  0  0  0  0
   60.9420   33.8880   46.7190 C   0  0  0  0  0  0  0  0  0  0  0  0
   62.0200   34.1058   46.7405 H   0  0  0  0  0  0  0  0  0  0  0  0
   60.4910   32.5750   46.8910 C   0  0  0  0  0  0  0  0  0  0  0  0
   61.2173   31.7625   47.0405 H   0  0  0  0  0  0  0  0  0  0  0  0
   57.6700   30.6750   44.9200 C   0  0  0  0  0  0  0  0  0  0  0  0
   57.4745   31.7574   44.9076 H   0  0  0  0  0  0  0  0  0  0  0  0
   57.2650   29.8900   43.8420 C   0  0  0  0  0  0  0  0  0  0  0  0
   56.6290   30.5250   42.6390 C   0  0  0  0  0  0  0  0  0  0  0  0
   55.8858   31.2671   42.9660 H   0  0  0  0  0  0  0  0  0  0  0  0
   57.4023   31.0221   42.0349 H   0  0  0  0  0  0  0  0  0  0  0  0
   56.1331   29.7510   42.0349 H   0  0  0  0  0  0  0  0  0  0  0  0
   57.4830   28.5090   43.8740 C   0  0  0  0  0  0  0  0  0  0  0  0
   57.1850   27.8972   43.0098 H   0  0  0  0  0  0  0  0  0  0  0  0
   58.0770   27.8830   44.9910 C   0  0  0  0  0  0  0  0  0  0  0  0
   58.0820   26.5240   44.9920 C   0  0  0  0  0  0  0  0  0  0  0  0
   58.6794   26.0306   44.2112 H   0  0  0  0  0  0  0  0  0  0  0  0
   57.3660   25.6440   45.9360 C   0  0  0  0  0  0  0  0  0  0  0  0
   56.0460   25.7250   46.3360 C   0  0  0  0  0  0  0  0  0  0  0  0
   55.1400   26.7080   45.9610 O   0  0  0  0  0  0  0  0  0  0  0  0
   55.7280   24.6820   47.1260 N   0  0  0  0  0  0  0  0  0  0  0  0
   56.8770   23.9740   47.1640 C   0  0  0  0  0  0  0  0  0  0  0  0
   56.9960   22.8980   47.8070 O   0  0  0  0  0  0  0  0  0  0  0  0
   57.8820   24.5150   46.4460 N   0  0  0  0  0  0  0  0  0  0  0  0
   58.8460   24.1370   46.3130 H   0  0  0  0  0  0  0  0  0  0  0  0
  1  2  1  0
  2  3  1  0
  2  4  2  0
  4  5  1  0
  5  6  1  0
  6  7  1  0
  7  8  2  0
  8  9  1  0
  8 10  1  0
 10 11  1  0
 10 12  2  0
 12 13  1  0
 12 14  1  0
 14 15  1  0
 14 16  2  0
 16 17  1  0
  5 18  2  0
 18 19  1  0
 18 20  1  0
 20 21  1  0
 21 22  1  0
 21 23  1  0
 21 24  1  0
 20 25  2  0
 25 26  1  0
 25 27  1  0
 27 28  2  0
 28 29  1  0
 28 30  1  0
 30 31  2  0
 31 32  1  0
 31 33  1  0
 33 34  1  0
 34 35  2  0
 34 36  1  0
 36 37  1  0
 27  4  1  0
 36 30  1  0
 16  7  1  0
M  CHG  2  32  -1  33  -1
M  END
>  <UniqueID>  (76) 
70

>  <SMILES>  (76) 
C=c1c(Oc2ccccc2)cc(C)c/c1=C/c1[nH]c(=O)[n-]c1[O-]

>  <Energy>  (76) 
100.21520736817342

>  <Genealogy>  (76) 
C=c1c(Oc2ccccc2)cc(C)cc1=Cc1[nH]c(=O)[n-]c1[O-] (protonated)
C=c1c(Oc2ccccc2)cc(C)c/c1=C/c1[nH]c(=O)[n-]c1[O-] (cis-trans isomerization)
C=c1c(Oc2ccccc2)cc(C)c/c1=C/c1[nH]c(=O)[n-]c1[O-] (3D coordinates assigned)
C=c1c(Oc2ccccc2)cc(C)c/c1=C/c1[nH]c(=O)[n-]c1[O-] (optimized conformer: 100.21520736817342 kcal/mol)

>  <smiles>  (76) 
C=c1c(Oc2ccccc2)cc(C)cc1=Cc1[nH]c(=O)[nH]c1O

>  <score_type>  (76) 
oracle

>  <origin>  (76) 
adg

>  <m_score__min__energy>  (76) 
-13.880000000000001

>  <m_primary>  (76) 
energy

$$$$
76:0
     RDKit          3D

 60 63  0  0  0  0  0  0  0  0999 V2000
   58.6950   25.8980   47.5000 C   0  0  0  0  0  0  0  0  0  0  0  0
   57.9210   26.9140   46.6940 C   0  0  0  0  0  0  0  0  0  0  0  0
   58.4950   28.1520   46.3150 C   0  0  0  0  0  0  0  0  0  0  0  0
   59.8920   28.5620   46.7140 C   0  0  0  0  0  0  0  0  0  0  0  0
   59.8790   29.3370   48.0070 C   0  0  0  0  0  0  0  0  0  0  0  0
   60.8400   29.0750   48.9990 C   0  0  0  0  0  0  0  0  0  0  0  0
   60.8270   29.7900   50.2020 C   0  0  0  0  0  0  0  0  0  0  0  0
   59.8500   30.7660   50.4250 C   0  0  0  0  0  0  0  0  0  0  0  0
   58.8870   31.0280   49.4470 C   0  0  0  0  0  0  0  0  0  0  0  0
   58.8980   30.3160   48.2430 C   0  0  0  0  0  0  0  0  0  0  0  0
   57.7490   29.0480   45.6170 N   0  0  0  0  0  0  0  0  0  0  0  0
   56.4650   28.7860   45.2660 C   0  0  0  0  0  0  0  0  0  0  0  0
   55.5190   30.0110   44.3710 S   0  0  0  0  0  0  0  0  0  0  0  0
   56.9110   30.4450   43.2760 C   0  0  0  0  0  0  0  0  0  0  0  0
   57.6600   31.6000   43.8570 C   0  0  0  0  0  0  0  0  0  0  0  0
   58.0930   32.5040   43.0910 O   0  0  0  0  0  0  0  0  0  0  0  0
   57.8060   31.7180   45.2800 N   0  0  0  0  0  0  0  0  0  0  0  0
   58.6530   32.6890   45.9200 C   0  0  0  0  0  0  0  0  0  0  0  0
   58.1040   33.9060   46.3470 C   0  0  0  0  0  0  0  0  0  0  0  0
   58.9030   34.8530   46.9910 C   0  0  0  0  0  0  0  0  0  0  0  0
   60.2530   34.5850   47.2320 C   0  0  0  0  0  0  0  0  0  0  0  0
   60.8090   33.3620   46.8370 C   0  0  0  0  0  0  0  0  0  0  0  0
   62.5030   33.0030   47.1860 S   0  0  0  0  0  0  0  0  0  0  0  0
   62.7220   31.5180   47.1060 O   0  0  0  0  0  0  0  0  0  0  0  0
   63.3690   33.6580   46.1460 O   0  0  0  0  0  0  0  0  0  0  0  0
   62.9730   33.5710   48.7690 N   0  0  0  0  0  0  0  0  0  0  0  0
   61.9550   33.2110   49.7690 C   0  0  0  0  0  0  0  0  0  0  0  0
   62.3730   33.7380   51.1590 C   0  0  0  0  0  0  0  0  0  0  0  0
   63.6920   34.2590   51.1640 O   0  0  0  0  0  0  0  0  0  0  0  0
   64.5870   33.3000   50.6370 C   0  0  0  0  0  0  0  0  0  0  0  0
   64.2820   33.0130   49.1520 C   0  0  0  0  0  0  0  0  0  0  0  0
   60.0070   32.4170   46.1800 C   0  0  0  0  0  0  0  0  0  0  0  0
   55.8950   27.6070   45.6140 N   0  0  0  0  0  0  0  0  0  0  0  0
   56.5840   26.6700   46.3140 C   0  0  0  0  0  0  0  0  0  0  0  0
   56.0090   25.5920   46.6220 O   0  0  0  0  0  0  0  0  0  0  0  0
   58.5475   26.0916   48.5727 H   0  0  0  0  0  0  0  0  0  0  0  0
   58.3362   24.8869   47.2572 H   0  0  0  0  0  0  0  0  0  0  0  0
   59.7651   25.9755   47.2572 H   0  0  0  0  0  0  0  0  0  0  0  0
   60.5090   27.6603   46.8413 H   0  0  0  0  0  0  0  0  0  0  0  0
   60.3076   29.2050   45.9242 H   0  0  0  0  0  0  0  0  0  0  0  0
   61.6060   28.3041   48.8288 H   0  0  0  0  0  0  0  0  0  0  0  0
   61.5850   29.5845   50.9722 H   0  0  0  0  0  0  0  0  0  0  0  0
   59.8398   31.3276   51.3708 H   0  0  0  0  0  0  0  0  0  0  0  0
   58.1190   31.7954   49.6242 H   0  0  0  0  0  0  0  0  0  0  0  0
   58.1357   30.5230   47.4775 H   0  0  0  0  0  0  0  0  0  0  0  0
   57.5855   29.5813   43.1804 H   0  0  0  0  0  0  0  0  0  0  0  0
   56.5249   30.7202   42.2834 H   0  0  0  0  0  0  0  0  0  0  0  0
   57.1950   31.1220   45.8840 H   0  0  0  0  0  0  0  0  0  0  0  0
   57.0382   34.1161   46.1739 H   0  0  0  0  0  0  0  0  0  0  0  0
   58.4686   35.8122   47.3093 H   0  0  0  0  0  0  0  0  0  0  0  0
   60.8806   35.3366   47.7333 H   0  0  0  0  0  0  0  0  0  0  0  0
   60.9907   33.6575   49.4847 H   0  0  0  0  0  0  0  0  0  0  0  0
   61.8603   32.1159   49.8108 H   0  0  0  0  0  0  0  0  0  0  0  0
   61.6769   34.5352   51.4588 H   0  0  0  0  0  0  0  0  0  0  0  0
   62.3431   32.8924   51.8619 H   0  0  0  0  0  0  0  0  0  0  0  0
   65.6151   33.6811   50.7255 H   0  0  0  0  0  0  0  0  0  0  0  0
   64.4713   32.3649   51.2046 H   0  0  0  0  0  0  0  0  0  0  0  0
   65.0649   33.4693   48.5284 H   0  0  0  0  0  0  0  0  0  0  0  0
   64.2585   31.9236   49.0012 H   0  0  0  0  0  0  0  0  0  0  0  0
   60.4410   31.4562   45.8661 H   0  0  0  0  0  0  0  0  0  0  0  0
  1  2  1  0
  2  3  2  0
  3  4  1  0
  4  5  1  0
  5  6  2  0
  6  7  1  0
  7  8  2  0
  8  9  1  0
  9 10  2  0
  3 11  1  0
 11 12  1  0
 12 13  1  0
 13 14  1  0
 14 15  1  0
 15 16  2  0
 15 17  1  0
 17 18  1  0
 18 19  2  0
 19 20  1  0
 20 21  2  0
 21 22  1  0
 22 23  1  0
 23 24  2  0
 23 25  2  0
 23 26  1  0
 26 27  1  0
 27 28  1  0
 28 29  1  0
 29 30  1  0
 30 31  1  0
 22 32  2  0
 12 33  2  0
 33 34  1  0
 34 35  2  0
 34  2  1  0
 10  5  1  0
 32 18  1  0
 31 26  1  0
  1 36  1  0
  1 37  1  0
  1 38  1  0
  4 39  1  0
  4 40  1  0
  6 41  1  0
  7 42  1  0
  8 43  1  0
  9 44  1  0
 10 45  1  0
 14 46  1  0
 14 47  1  0
 17 48  1  0
 19 49  1  0
 20 50  1  0
 21 51  1  0
 27 52  1  0
 27 53  1  0
 28 54  1  0
 28 55  1  0
 30 56  1  0
 30 57  1  0
 31 58  1  0
 31 59  1  0
 32 60  1  0
M  CHG  1  11  -1
M  END
>  <UniqueID>  (77) 
71

>  <SMILES>  (77) 
Cc1c(Cc2ccccc2)[n-]c(SCC(=O)Nc2cccc(S(=O)(=O)N3CCOCC3)c2)nc1=O

>  <Energy>  (77) 
69.66870507397188

>  <Genealogy>  (77) 
Cc1c(Cc2ccccc2)[n-]c(SCC(=O)Nc2cccc(S(=O)(=O)N3CCOCC3)c2)nc1=O (protonated)
Cc1c(Cc2ccccc2)[n-]c(SCC(=O)Nc2cccc(S(=O)(=O)N3CCOCC3)c2)nc1=O (3D coordinates assigned)
Cc1c(Cc2ccccc2)[n-]c(SCC(=O)Nc2cccc(S(=O)(=O)N3CCOCC3)c2)nc1=O (nonaromatic ring conformer: 69.66870507397188 kcal/mol)

>  <smiles>  (77) 
Cc1c(Cc2ccccc2)[nH]c(SCC(=O)Nc2cccc(S(=O)(=O)N3CCOCC3)c2)nc1=O

>  <score_type>  (77) 
oracle

>  <origin>  (77) 
adg

>  <m_score__min__energy>  (77) 
-12.49

>  <m_primary>  (77) 
energy

$$$$
77:0
     RDKit          3D

 29 30  0  0  0  0  0  0  0  0999 V2000
   56.5500   34.5276   45.6608 H   0  0  0  0  0  0  0  0  0  0  0  0
   56.9900   33.8290   44.9340 C   0  0  0  0  0  0  0  0  0  0  0  0
   57.7140   34.3647   44.3025 H   0  0  0  0  0  0  0  0  0  0  0  0
   56.1941   33.4074   44.3025 H   0  0  0  0  0  0  0  0  0  0  0  0
   57.6860   32.7240   45.6630 C   0  0  0  0  0  0  0  0  0  0  0  0
   57.4820   31.4200   45.3360 N   0  0  0  0  0  0  0  0  0  0  0  0
   58.2080   30.5900   46.1200 C   0  0  0  0  0  0  0  0  0  0  0  0
   58.1950   29.2940   46.0240 N   0  0  0  0  0  0  0  0  0  0  0  0
   57.2170   28.5060   45.3280 C   0  0  0  0  0  0  0  0  0  0  0  0
   56.0340   28.9180   45.1760 O   0  0  0  0  0  0  0  0  0  0  0  0
   57.5970   27.1530   44.8180 C   0  0  0  0  0  0  0  0  0  0  0  0
   57.1149   26.9818   43.8442 H   0  0  0  0  0  0  0  0  0  0  0  0
   58.6901   27.1024   44.7063 H   0  0  0  0  0  0  0  0  0  0  0  0
   57.1520   26.1010   45.7830 C   0  0  0  0  0  0  0  0  0  0  0  0
   57.9490   25.1280   46.2610 N   0  0  0  0  0  0  0  0  0  0  0  0
   57.1160   24.3920   47.0270 C   0  0  0  0  0  0  0  0  0  0  0  0
   57.4990   23.3750   47.6620 O   0  0  0  0  0  0  0  0  0  0  0  0
   55.8380   24.8270   47.0560 N   0  0  0  0  0  0  0  0  0  0  0  0
   55.8770   25.9060   46.2580 C   0  0  0  0  0  0  0  0  0  0  0  0
   54.7700   26.6920   45.9640 O   0  0  0  0  0  0  0  0  0  0  0  0
   59.1300   31.4250   47.2470 S   0  0  0  0  0  0  0  0  0  0  0  0
   58.5950   32.9290   46.7080 C   0  0  0  0  0  0  0  0  0  0  0  0
   58.9790   34.2390   47.3280 C   0  0  0  0  0  0  0  0  0  0  0  0
   59.6349   34.0516   48.1909 H   0  0  0  0  0  0  0  0  0  0  0  0
   58.0648   34.7596   47.6494 H   0  0  0  0  0  0  0  0  0  0  0  0
   59.7150   35.1170   46.3210 C   0  0  0  0  0  0  0  0  0  0  0  0
   60.3318   35.8528   46.8579 H   0  0  0  0  0  0  0  0  0  0  0  0
   60.3603   34.4887   45.6894 H   0  0  0  0  0  0  0  0  0  0  0  0
   58.9837   35.6427   45.6894 H   0  0  0  0  0  0  0  0  0  0  0  0
  1  2  1  0
  2  3  1  0
  2  4  1  0
  2  5  1  0
  5  6  1  0
  6  7  1  0
  7  8  2  0
  8  9  1  0
  9 10  2  0
  9 11  1  0
 11 12  1  0
 11 13  1  0
 11 14  1  0
 14 15  1  0
 15 16  1  0
 16 17  2  0
 16 18  1  0
 18 19  1  0
 19 20  1  0
  7 21  1  0
 21 22  1  0
 22 23  1  0
 23 24  1  0
 23 25  1  0
 23 26  1  0
 26 27  1  0
 26 28  1  0
 26 29  1  0
 22  5  2  0
 19 14  2  0
M  CHG  4   6  -1  15  -1  18  -1  20  -1
M  END
>  <UniqueID>  (78) 
72

>  <SMILES>  (78) 
CCc1s/c(=N/C(=O)Cc2[n-]c(=O)[n-]c2[O-])[n-]c1C

>  <Energy>  (78) 
82.67269236081285

>  <Genealogy>  (78) 
CCc1sc(=NC(=O)Cc2[n-]c(=O)[n-]c2[O-])[n-]c1C (protonated)
CCc1s/c(=N/C(=O)Cc2[n-]c(=O)[n-]c2[O-])[n-]c1C (cis-trans isomerization)
CCc1s/c(=N/C(=O)Cc2[n-]c(=O)[n-]c2[O-])[n-]c1C (3D coordinates assigned)
CCc1s/c(=N/C(=O)Cc2[n-]c(=O)[n-]c2[O-])[n-]c1C (optimized conformer: 82.67269236081285 kcal/mol)

>  <smiles>  (78) 
CCc1sc(=NC(=O)Cc2[nH]c(=O)[nH]c2O)[nH]c1C

>  <score_type>  (78) 
oracle

>  <origin>  (78) 
adg

>  <m_score__min__energy>  (78) 
-16.289999999999999

>  <m_primary>  (78) 
energy

$$$$
78:0
     RDKit          3D

 47 49  0  0  0  0  0  0  0  0999 V2000
   57.0120   31.5550   43.1780 O   0  0  0  0  0  0  0  0  0  0  0  0
   56.7680   31.4070   44.4050 C   0  0  0  0  0  0  0  0  0  0  0  0
   57.0100   32.4840   45.3140 N   0  0  0  0  0  0  0  0  0  0  0  0
   57.6760   33.7210   44.9270 C   0  0  0  0  0  0  0  0  0  0  0  0
   59.0410   33.8520   45.6120 C   0  0  0  0  0  0  0  0  0  0  0  0
   59.0320   33.6400   47.1370 C   0  0  0  0  0  0  0  0  0  0  0  0
   59.9690   34.5850   47.9170 C   0  0  0  0  0  0  0  0  0  0  0  0
   61.3980   34.0990   47.9340 C   0  0  0  0  0  0  0  0  0  0  0  0
   62.0780   33.8600   46.7260 C   0  0  0  0  0  0  0  0  0  0  0  0
   63.4080   33.4320   46.7390 C   0  0  0  0  0  0  0  0  0  0  0  0
   64.0700   33.2340   47.9530 C   0  0  0  0  0  0  0  0  0  0  0  0
   63.3960   33.4450   49.1580 C   0  0  0  0  0  0  0  0  0  0  0  0
   62.0620   33.8660   49.1520 C   0  0  0  0  0  0  0  0  0  0  0  0
   56.2960   30.1360   44.8700 N   0  0  0  0  0  0  0  0  0  0  0  0
   56.9280   28.8570   44.7170 C   0  0  0  0  0  0  0  0  0  0  0  0
   57.5650   28.4670   43.5250 C   0  0  0  0  0  0  0  0  0  0  0  0
   58.1450   27.2010   43.4200 C   0  0  0  0  0  0  0  0  0  0  0  0
   58.1250   26.3260   44.5070 C   0  0  0  0  0  0  0  0  0  0  0  0
   57.5330   26.7210   45.7120 C   0  0  0  0  0  0  0  0  0  0  0  0
   57.5550   25.6160   47.1240 S   0  0  0  0  0  0  0  0  0  0  0  0
   56.2350   24.5900   46.4750 C   0  0  0  0  0  0  0  0  0  0  0  0
   55.0280   25.0110   45.9760 C   0  0  0  0  0  0  0  0  0  0  0  0
   54.5860   26.3250   45.8840 O   0  0  0  0  0  0  0  0  0  0  0  0
   54.3260   23.8900   45.5920 C   0  0  0  0  0  0  0  0  0  0  0  0
   55.0560   22.7780   45.8290 N   0  0  0  0  0  0  0  0  0  0  0  0
   56.2150   23.2130   46.3650 C   0  0  0  0  0  0  0  0  0  0  0  0
   57.2410   22.3550   46.7490 O   0  0  0  0  0  0  0  0  0  0  0  0
   56.9410   27.9850   45.8150 C   0  0  0  0  0  0  0  0  0  0  0  0
   57.8197   33.7254   43.8364 H   0  0  0  0  0  0  0  0  0  0  0  0
   57.0469   34.5680   45.2381 H   0  0  0  0  0  0  0  0  0  0  0  0
   59.7172   33.1062   45.1687 H   0  0  0  0  0  0  0  0  0  0  0  0
   59.3655   34.8905   45.4500 H   0  0  0  0  0  0  0  0  0  0  0  0
   58.0055   33.7965   47.5001 H   0  0  0  0  0  0  0  0  0  0  0  0
   59.3983   32.6180   47.3141 H   0  0  0  0  0  0  0  0  0  0  0  0
   59.9400   35.5784   47.4455 H   0  0  0  0  0  0  0  0  0  0  0  0
   59.6160   34.6205   48.9582 H   0  0  0  0  0  0  0  0  0  0  0  0
   61.5605   34.0107   45.7671 H   0  0  0  0  0  0  0  0  0  0  0  0
   63.9351   33.2505   45.7908 H   0  0  0  0  0  0  0  0  0  0  0  0
   65.1218   32.9120   47.9600 H   0  0  0  0  0  0  0  0  0  0  0  0
   63.9152   33.2798   50.1136 H   0  0  0  0  0  0  0  0  0  0  0  0
   61.5303   34.0154   50.1033 H   0  0  0  0  0  0  0  0  0  0  0  0
   57.6064   29.1614   42.6729 H   0  0  0  0  0  0  0  0  0  0  0  0
   58.6195   26.8923   42.4768 H   0  0  0  0  0  0  0  0  0  0  0  0
   58.5744   25.3261   44.4167 H   0  0  0  0  0  0  0  0  0  0  0  0
   53.3164   23.8987   45.1553 H   0  0  0  0  0  0  0  0  0  0  0  0
   57.8150   22.5530   47.5600 H   0  0  0  0  0  0  0  0  0  0  0  0
   56.4823   28.2969   46.7649 H   0  0  0  0  0  0  0  0  0  0  0  0
  1  2  2  0
  2  3  1  0
  3  4  1  0
  4  5  1  0
  5  6  1  0
  6  7  1  0
  7  8  1  0
  8  9  2  0
  9 10  1  0
 10 11  2  0
 11 12  1  0
 12 13  2  0
  2 14  1  0
 14 15  1  0
 15 16  2  0
 16 17  1  0
 17 18  2  0
 18 19  1  0
 19 20  1  0
 20 21  1  0
 21 22  1  0
 22 23  1  0
 22 24  2  0
 24 25  1  0
 25 26  1  0
 26 27  1  0
 19 28  2  0
 13  8  1  0
 28 15  1  0
 26 21  2  0
  4 29  1  0
  4 30  1  0
  5 31  1  0
  5 32  1  0
  6 33  1  0
  6 34  1  0
  7 35  1  0
  7 36  1  0
  9 37  1  0
 10 38  1  0
 11 39  1  0
 12 40  1  0
 13 41  1  0
 16 42  1  0
 17 43  1  0
 18 44  1  0
 24 45  1  0
 27 46  1  0
 28 47  1  0
M  CHG  4   3  -1  14  -1  23  -1  25  -1
M  END
>  <UniqueID>  (79) 
73

>  <SMILES>  (79) 
O=C([N-]CCCCc1ccccc1)[N-]c1cccc(Sc2c([O-])c[n-]c2O)c1

>  <Energy>  (79) 
63.80056702916044

>  <Genealogy>  (79) 
O=C([N-]CCCCc1ccccc1)[N-]c1cccc(Sc2c([O-])c[n-]c2O)c1 (protonated)
O=C([N-]CCCCc1ccccc1)[N-]c1cccc(Sc2c([O-])c[n-]c2O)c1 (3D coordinates assigned)
O=C([N-]CCCCc1ccccc1)[N-]c1cccc(Sc2c([O-])c[n-]c2O)c1 (optimized conformer: 63.80056702916044 kcal/mol)

>  <smiles>  (79) 
O=C(NCCCCc1ccccc1)Nc1cccc(Sc2c(O)c[nH]c2O)c1

>  <score_type>  (79) 
oracle

>  <origin>  (79) 
adg

>  <m_score__min__energy>  (79) 
-16.34

>  <m_primary>  (79) 
energy

$$$$
79:0
     RDKit          3D

 58 62  0  0  0  0  0  0  0  0999 V2000
   60.5220   29.6680   46.4760 C   0  0  0  0  0  0  0  0  0  0  0  0
   59.4160   30.2280   45.9540 C   0  0  0  0  0  0  0  0  0  0  0  0
   58.4850   29.6100   45.1000 C   0  0  0  0  0  0  0  0  0  0  0  0
   58.3490   28.3260   44.7120 C   0  0  0  0  0  0  0  0  0  0  0  0
   57.5400   27.2990   45.3970 C   0  0  0  0  0  0  0  0  0  0  0  0
   56.1650   27.4830   45.6200 C   0  0  0  0  0  0  0  0  0  0  0  0
   55.5330   28.6600   45.2340 O   0  0  0  0  0  0  0  0  0  0  0  0
   55.4380   26.5020   46.2160 N   0  0  0  0  0  0  0  0  0  0  0  0
   56.0150   25.3290   46.5860 C   0  0  0  0  0  0  0  0  0  0  0  0
   55.3230   24.4360   47.1400 O   0  0  0  0  0  0  0  0  0  0  0  0
   57.3360   25.1180   46.3540 N   0  0  0  0  0  0  0  0  0  0  0  0
   58.1060   26.0680   45.7630 C   0  0  0  0  0  0  0  0  0  0  0  0
   59.3270   25.8350   45.5560 O   0  0  0  0  0  0  0  0  0  0  0  0
   57.6260   30.6070   44.6760 C   0  0  0  0  0  0  0  0  0  0  0  0
   58.0110   31.7660   45.3140 C   0  0  0  0  0  0  0  0  0  0  0  0
   57.3450   33.0970   45.1210 C   0  0  0  0  0  0  0  0  0  0  0  0
   59.0930   31.5440   46.0970 N   0  0  0  0  0  0  0  0  0  0  0  0
   59.7880   32.5760   46.8840 C   0  0  0  0  0  0  0  0  0  0  0  0
   59.5700   32.3650   48.3610 C   0  0  0  0  0  0  0  0  0  0  0  0
   59.6170   31.0740   48.9110 C   0  0  0  0  0  0  0  0  0  0  0  0
   59.4080   30.8790   50.2790 C   0  0  0  0  0  0  0  0  0  0  0  0
   59.1490   31.9760   51.1190 C   0  0  0  0  0  0  0  0  0  0  0  0
   58.8890   31.8100   52.5200 N   0  0  0  0  0  0  0  0  0  0  0  0
   59.8730   31.7900   53.5610 C   0  0  0  0  0  0  0  0  0  0  0  0
   59.6740   31.1380   54.6210 O   0  0  0  0  0  0  0  0  0  0  0  0
   61.1470   32.5490   53.3850 C   0  0  0  0  0  0  0  0  0  0  0  0
   61.9460   31.9490   52.2690 C   0  0  0  0  0  0  0  0  0  0  0  0
   62.4610   30.6570   52.2190 C   0  0  0  0  0  0  0  0  0  0  0  0
   63.1980   30.4860   51.0970 N   0  0  0  0  0  0  0  0  0  0  0  0
   63.1620   31.6620   50.4460 C   0  0  0  0  0  0  0  0  0  0  0  0
   63.7970   31.9830   49.2470 C   0  0  0  0  0  0  0  0  0  0  0  0
   63.6450   33.2920   48.7530 C   0  0  0  0  0  0  0  0  0  0  0  0
   62.8740   34.2400   49.4620 C   0  0  0  0  0  0  0  0  0  0  0  0
   62.2450   33.8870   50.6690 C   0  0  0  0  0  0  0  0  0  0  0  0
   62.4110   32.5820   51.1320 C   0  0  0  0  0  0  0  0  0  0  0  0
   59.0700   33.2590   50.5660 C   0  0  0  0  0  0  0  0  0  0  0  0
   59.2840   33.4550   49.1990 C   0  0  0  0  0  0  0  0  0  0  0  0
   61.1774   30.2559   47.1354 H   0  0  0  0  0  0  0  0  0  0  0  0
   60.7711   28.6221   46.2435 H   0  0  0  0  0  0  0  0  0  0  0  0
   58.8886   28.0165   43.8048 H   0  0  0  0  0  0  0  0  0  0  0  0
   56.7940   30.4961   43.9650 H   0  0  0  0  0  0  0  0  0  0  0  0
   57.1226   33.5415   46.1023 H   0  0  0  0  0  0  0  0  0  0  0  0
   58.0153   33.7645   44.5596 H   0  0  0  0  0  0  0  0  0  0  0  0
   56.4089   32.9606   44.5596 H   0  0  0  0  0  0  0  0  0  0  0  0
   60.8657   32.5281   46.6687 H   0  0  0  0  0  0  0  0  0  0  0  0
   59.3838   33.5607   46.6065 H   0  0  0  0  0  0  0  0  0  0  0  0
   59.8197   30.2102   48.2608 H   0  0  0  0  0  0  0  0  0  0  0  0
   59.4463   29.8635   50.7000 H   0  0  0  0  0  0  0  0  0  0  0  0
   60.9170   33.5979   53.1464 H   0  0  0  0  0  0  0  0  0  0  0  0
   61.7304   32.4996   54.3162 H   0  0  0  0  0  0  0  0  0  0  0  0
   62.2927   29.8841   52.9834 H   0  0  0  0  0  0  0  0  0  0  0  0
   63.7040   29.6190   50.8080 H   0  0  0  0  0  0  0  0  0  0  0  0
   64.3972   31.2375   48.7048 H   0  0  0  0  0  0  0  0  0  0  0  0
   64.1299   33.5790   47.8083 H   0  0  0  0  0  0  0  0  0  0  0  0
   62.7650   35.2609   49.0672 H   0  0  0  0  0  0  0  0  0  0  0  0
   61.6418   34.6162   51.2297 H   0  0  0  0  0  0  0  0  0  0  0  0
   58.8379   34.1189   51.2115 H   0  0  0  0  0  0  0  0  0  0  0  0
   59.2281   34.4692   48.7768 H   0  0  0  0  0  0  0  0  0  0  0  0
  1  2  2  0
  2  3  1  0
  3  4  2  3
  4  5  1  0
  5  6  2  0
  6  7  1  0
  6  8  1  0
  8  9  1  0
  9 10  2  0
  9 11  1  0
 11 12  1  0
 12 13  2  0
  3 14  1  0
 14 15  2  0
 15 16  1  0
 15 17  1  0
 17 18  1  0
 18 19  1  0
 19 20  2  0
 20 21  1  0
 21 22  2  0
 22 23  1  0
 23 24  1  0
 24 25  2  0
 24 26  1  0
 26 27  1  0
 27 28  2  0
 28 29  1  0
 29 30  1  0
 30 31  2  0
 31 32  1  0
 32 33  2  0
 33 34  1  0
 34 35  2  0
 22 36  1  0
 36 37  2  0
 17  2  1  0
 37 19  1  0
 12  5  1  0
 35 27  1  0
 35 30  1  0
  1 38  1  0
  1 39  1  0
  4 40  1  0
 14 41  1  0
 16 42  1  0
 16 43  1  0
 16 44  1  0
 18 45  1  0
 18 46  1  0
 20 47  1  0
 21 48  1  0
 26 49  1  0
 26 50  1  0
 28 51  1  0
 29 52  1  0
 31 53  1  0
 32 54  1  0
 33 55  1  0
 34 56  1  0
 36 57  1  0
 37 58  1  0
M  CHG  4   7  -1   8  -1  11  -1  23  -1
M  END
>  <UniqueID>  (80) 
74

>  <SMILES>  (80) 
C=c1c(=Cc2c([O-])[n-]c(=O)[n-]c2=O)cc(C)n1Cc1ccc([N-]C(=O)Cc2c[nH]c3ccccc23)cc1

>  <Energy>  (80) 
140.9518191693198

>  <Genealogy>  (80) 
C=c1c(=Cc2c([O-])[n-]c(=O)[n-]c2=O)cc(C)n1Cc1ccc([N-]C(=O)Cc2c[nH]c3ccccc23)cc1 (protonated)
C=c1c(=Cc2c([O-])[n-]c(=O)[n-]c2=O)cc(C)n1Cc1ccc([N-]C(=O)Cc2c[nH]c3ccccc23)cc1 (3D coordinates assigned)
C=c1c(=Cc2c([O-])[n-]c(=O)[n-]c2=O)cc(C)n1Cc1ccc([N-]C(=O)Cc2c[nH]c3ccccc23)cc1 (optimized conformer: 140.9518191693198 kcal/mol)

>  <smiles>  (80) 
C=c1c(=Cc2c(O)[nH]c(=O)[nH]c2=O)cc(C)n1Cc1ccc(NC(=O)Cc2c[nH]c3ccccc23)cc1

>  <score_type>  (80) 
oracle

>  <origin>  (80) 
adg

>  <m_score__min__energy>  (80) 
-17.41

>  <m_primary>  (80) 
energy

$$$$
80:0
     RDKit          3D

 41 43  0  0  0  0  0  0  0  0999 V2000
   55.3730   25.1460   45.6570 C   0  0  0  0  0  0  0  0  0  0  0  0
   55.5170   26.5190   46.0270 O   0  0  0  0  0  0  0  0  0  0  0  0
   56.6470   27.2990   45.7490 C   0  0  0  0  0  0  0  0  0  0  0  0
   57.9560   26.8630   46.0330 C   0  0  0  0  0  0  0  0  0  0  0  0
   59.0520   27.6570   45.6850 C   0  0  0  0  0  0  0  0  0  0  0  0
   58.8580   28.8890   45.0700 C   0  0  0  0  0  0  0  0  0  0  0  0
   57.5590   29.3520   44.7990 C   0  0  0  0  0  0  0  0  0  0  0  0
   57.3570   30.6770   44.1030 C   0  0  0  0  0  0  0  0  0  0  0  0
   56.9220   31.6990   45.0490 N   0  0  0  0  0  0  0  0  0  0  0  0
   57.4410   33.0340   45.1580 C   0  0  0  0  0  0  0  0  0  0  0  0
   57.5620   33.7170   44.1070 O   0  0  0  0  0  0  0  0  0  0  0  0
   57.8520   33.6400   46.4750 C   0  0  2  0  0  0  0  0  0  0  0  0
   59.3380   34.0480   46.4940 C   0  0  0  0  0  0  0  0  0  0  0  0
   59.8870   33.1700   47.5770 C   0  0  0  0  0  0  0  0  0  0  0  0
   61.3000   33.1370   48.0180 C   0  0  0  0  0  0  0  0  0  0  0  0
   61.6620   33.6010   49.2960 C   0  0  0  0  0  0  0  0  0  0  0  0
   62.9970   33.5810   49.7110 C   0  0  0  0  0  0  0  0  0  0  0  0
   63.9930   33.1040   48.8490 C   0  0  0  0  0  0  0  0  0  0  0  0
   65.3290   33.0860   49.2500 O   0  0  0  0  0  0  0  0  0  0  0  0
   63.6430   32.6380   47.5780 C   0  0  0  0  0  0  0  0  0  0  0  0
   62.3060   32.6460   47.1650 C   0  0  0  0  0  0  0  0  0  0  0  0
   58.9770   32.4240   48.1010 N   0  0  0  0  0  0  0  0  0  0  0  0
   57.7690   32.6620   47.4980 O   0  0  0  0  0  0  0  0  0  0  0  0
   56.4550   28.5480   45.1450 C   0  0  0  0  0  0  0  0  0  0  0  0
   55.1610   28.9820   44.8690 O   0  0  0  0  0  0  0  0  0  0  0  0
   55.3081   24.5268   46.5638 H   0  0  0  0  0  0  0  0  0  0  0  0
   54.4568   25.0210   45.0612 H   0  0  0  0  0  0  0  0  0  0  0  0
   56.2433   24.8336   45.0612 H   0  0  0  0  0  0  0  0  0  0  0  0
   58.1159   25.8948   46.5301 H   0  0  0  0  0  0  0  0  0  0  0  0
   60.0724   27.3060   45.8984 H   0  0  0  0  0  0  0  0  0  0  0  0
   59.7266   29.5049   44.7939 H   0  0  0  0  0  0  0  0  0  0  0  0
   58.3059   30.9913   43.6438 H   0  0  0  0  0  0  0  0  0  0  0  0
   56.5804   30.5559   43.3335 H   0  0  0  0  0  0  0  0  0  0  0  0
   57.1895   34.5058   46.6216 H   0  0  0  0  0  0  0  0  0  0  0  0
   59.8218   33.8414   45.5280 H   0  0  0  0  0  0  0  0  0  0  0  0
   59.5014   35.1219   46.6675 H   0  0  0  0  0  0  0  0  0  0  0  0
   60.8865   33.9836   49.9759 H   0  0  0  0  0  0  0  0  0  0  0  0
   63.2655   33.9402   50.7154 H   0  0  0  0  0  0  0  0  0  0  0  0
   66.0870   32.9940   48.5750 H   0  0  0  0  0  0  0  0  0  0  0  0
   64.4230   32.2630   46.8990 H   0  0  0  0  0  0  0  0  0  0  0  0
   62.0397   32.2662   46.1676 H   0  0  0  0  0  0  0  0  0  0  0  0
  1  2  1  0
  2  3  1  0
  3  4  2  0
  4  5  1  0
  5  6  2  0
  6  7  1  0
  7  8  1  0
  8  9  1  0
  9 10  1  0
 10 11  2  0
 10 12  1  0
 12 13  1  0
 13 14  1  0
 14 15  1  0
 15 16  2  0
 16 17  1  0
 17 18  2  0
 18 19  1  0
 18 20  1  0
 20 21  2  0
 14 22  2  0
 22 23  1  0
  7 24  2  0
 24 25  1  0
 24  3  1  0
 23 12  1  0
 21 15  1  0
  1 26  1  0
  1 27  1  0
  1 28  1  0
  4 29  1  0
  5 30  1  0
  6 31  1  0
  8 32  1  0
  8 33  1  0
 12 34  1  1
 13 35  1  0
 13 36  1  0
 16 37  1  0
 17 38  1  0
 19 39  1  0
 20 40  1  0
 21 41  1  0
M  CHG  2   9  -1  25  -1
M  END
>  <UniqueID>  (81) 
75

>  <SMILES>  (81) 
COc1cccc(C[N-]C(=O)[C@@H]2CC(c3ccc(O)cc3)=NO2)c1[O-]

>  <Energy>  (81) 
55.19506022084509

>  <Genealogy>  (81) 
COc1cccc(C[N-]C(=O)C2CC(c3ccc(O)cc3)=NO2)c1[O-] (protonated)
COc1cccc(C[N-]C(=O)[C@@H]2CC(c3ccc(O)cc3)=NO2)c1[O-] (chirality)
COc1cccc(C[N-]C(=O)[C@@H]2CC(c3ccc(O)cc3)=NO2)c1[O-] (3D coordinates assigned)
COc1cccc(C[N-]C(=O)[C@@H]2CC(c3ccc(O)cc3)=NO2)c1[O-] (nonaromatic ring conformer: 55.19506022084509 kcal/mol)

>  <smiles>  (81) 
COc1cccc(CNC(=O)C2CC(c3ccc(O)cc3)=NO2)c1O

>  <score_type>  (81) 
oracle

>  <origin>  (81) 
adg

>  <m_score__min__energy>  (81) 
-13.57

>  <m_primary>  (81) 
energy

$$$$
81:0
     RDKit          3D

 59 62  0  0  0  0  0  0  0  0999 V2000
   55.2180   29.3790   44.9760 O   0  0  0  0  0  0  0  0  0  0  0  0
   56.3880   29.8120   44.7960 C   0  0  0  0  0  0  0  0  0  0  0  0
   57.5470   28.8610   44.9640 C   0  0  0  0  0  0  0  0  0  0  0  0
   57.4360   28.0560   46.2680 C   0  0  0  0  0  0  0  0  0  0  0  0
   57.1970   26.6350   45.9920 N   0  0  0  0  0  0  0  0  0  0  0  0
   55.9970   26.0170   45.9030 C   0  0  0  0  0  0  0  0  0  0  0  0
   54.7710   26.6650   46.0020 O   0  0  0  0  0  0  0  0  0  0  0  0
   56.1680   24.6600   45.7160 C   0  0  0  0  0  0  0  0  0  0  0  0
   57.5240   24.4360   45.6970 C   0  0  0  0  0  0  0  0  0  0  0  0
   58.1300   25.6630   45.8770 C   0  0  0  0  0  0  0  0  0  0  0  0
   59.5020   25.8820   45.9550 O   0  0  0  0  0  0  0  0  0  0  0  0
   58.1460   23.0820   45.5630 C   0  0  0  0  0  0  0  0  0  0  0  0
   57.1030   22.0110   45.3040 C   0  0  0  0  0  0  0  0  0  0  0  0
   55.7680   22.2350   45.3160 C   0  0  0  0  0  0  0  0  0  0  0  0
   55.1370   23.5880   45.5900 C   0  0  0  0  0  0  0  0  0  0  0  0
   56.5620   31.2000   44.4750 N   0  0  0  0  0  0  0  0  0  0  0  0
   57.7980   31.9700   44.6070 C   0  0  0  0  0  0  0  0  0  0  0  0
   57.6540   33.0560   45.6310 C   0  0  0  0  0  0  0  0  0  0  0  0
   56.9000   34.0380   45.3870 O   0  0  0  0  0  0  0  0  0  0  0  0
   58.4320   33.0130   46.8330 N   0  0  0  0  0  0  0  0  0  0  0  0
   58.8510   31.8320   47.5280 C   0  0  0  0  0  0  0  0  0  0  0  0
   59.6540   30.8460   46.9160 C   0  0  0  0  0  0  0  0  0  0  0  0
   60.0660   29.7150   47.6380 C   0  0  0  0  0  0  0  0  0  0  0  0
   59.7060   29.5740   48.9800 C   0  0  0  0  0  0  0  0  0  0  0  0
   58.9350   30.5630   49.6090 C   0  0  0  0  0  0  0  0  0  0  0  0
   58.5320   30.3860   51.3160 S   0  0  0  0  0  0  0  0  0  0  0  0
   57.0590   30.1110   51.4310 O   0  0  0  0  0  0  0  0  0  0  0  0
   59.2910   29.2320   51.9130 O   0  0  0  0  0  0  0  0  0  0  0  0
   58.9250   31.8580   52.1670 N   0  0  0  0  0  0  0  0  0  0  0  0
   59.1030   31.5840   53.6060 C   0  0  0  0  0  0  0  0  0  0  0  0
   59.0560   32.8850   54.4290 C   0  0  0  0  0  0  0  0  0  0  0  0
   59.3040   34.0070   53.6050 O   0  0  0  0  0  0  0  0  0  0  0  0
   58.2430   34.1700   52.6770 C   0  0  0  0  0  0  0  0  0  0  0  0
   57.8640   32.8540   51.9620 C   0  0  0  0  0  0  0  0  0  0  0  0
   58.5120   31.6910   48.8810 C   0  0  0  0  0  0  0  0  0  0  0  0
   57.5616   28.1629   44.1140 H   0  0  0  0  0  0  0  0  0  0  0  0
   58.4735   29.4526   45.0036 H   0  0  0  0  0  0  0  0  0  0  0  0
   58.3729   28.1593   46.8350 H   0  0  0  0  0  0  0  0  0  0  0  0
   56.5877   28.4468   46.8491 H   0  0  0  0  0  0  0  0  0  0  0  0
   58.8575   23.0975   44.7243 H   0  0  0  0  0  0  0  0  0  0  0  0
   58.6569   22.8433   46.5074 H   0  0  0  0  0  0  0  0  0  0  0  0
   57.4531   20.9897   45.0935 H   0  0  0  0  0  0  0  0  0  0  0  0
   55.0998   21.3847   45.1149 H   0  0  0  0  0  0  0  0  0  0  0  0
   54.4593   23.8402   44.7611 H   0  0  0  0  0  0  0  0  0  0  0  0
   54.5881   23.5252   46.5412 H   0  0  0  0  0  0  0  0  0  0  0  0
   58.6106   31.2944   44.9124 H   0  0  0  0  0  0  0  0  0  0  0  0
   58.0240   32.4348   43.6360 H   0  0  0  0  0  0  0  0  0  0  0  0
   59.9592   30.9646   45.8659 H   0  0  0  0  0  0  0  0  0  0  0  0
   60.6724   28.9397   47.1468 H   0  0  0  0  0  0  0  0  0  0  0  0
   60.0274   28.6863   49.5446 H   0  0  0  0  0  0  0  0  0  0  0  0
   58.2991   30.9146   53.9462 H   0  0  0  0  0  0  0  0  0  0  0  0
   60.0865   31.1136   53.7527 H   0  0  0  0  0  0  0  0  0  0  0  0
   58.0612   32.9865   54.8874 H   0  0  0  0  0  0  0  0  0  0  0  0
   59.8321   32.8394   55.2072 H   0  0  0  0  0  0  0  0  0  0  0  0
   57.3598   34.5441   53.2155 H   0  0  0  0  0  0  0  0  0  0  0  0
   58.5828   34.8785   51.9073 H   0  0  0  0  0  0  0  0  0  0  0  0
   56.9187   32.4721   52.3750 H   0  0  0  0  0  0  0  0  0  0  0  0
   57.7451   33.0446   50.8852 H   0  0  0  0  0  0  0  0  0  0  0  0
   57.9112   32.4674   49.3772 H   0  0  0  0  0  0  0  0  0  0  0  0
  1  2  2  0
  2  3  1  0
  3  4  1  0
  4  5  1  0
  5  6  1  0
  6  7  1  0
  6  8  2  0
  8  9  1  0
  9 10  2  0
 10 11  1  0
  9 12  1  0
 12 13  1  0
 13 14  2  0
 14 15  1  0
  2 16  1  0
 16 17  1  0
 17 18  1  0
 18 19  2  0
 18 20  1  0
 20 21  1  0
 21 22  2  0
 22 23  1  0
 23 24  2  0
 24 25  1  0
 25 26  1  0
 26 27  2  0
 26 28  2  0
 26 29  1  0
 29 30  1  0
 30 31  1  0
 31 32  1  0
 32 33  1  0
 33 34  1  0
 25 35  2  0
 10  5  1  0
 35 21  1  0
 15  8  1  0
 34 29  1  0
  3 36  1  0
  3 37  1  0
  4 38  1  0
  4 39  1  0
 12 40  1  0
 12 41  1  0
 13 42  1  0
 14 43  1  0
 15 44  1  0
 15 45  1  0
 17 46  1  0
 17 47  1  0
 22 48  1  0
 23 49  1  0
 24 50  1  0
 30 51  1  0
 30 52  1  0
 31 53  1  0
 31 54  1  0
 33 55  1  0
 33 56  1  0
 34 57  1  0
 34 58  1  0
 35 59  1  0
M  CHG  4   7  -1  11  -1  16  -1  20  -1
M  END
>  <UniqueID>  (82) 
76

>  <SMILES>  (82) 
O=C(CCn1c([O-])c2c(c1[O-])CC=CC2)[N-]CC(=O)[N-]c1cccc(S(=O)(=O)N2CCOCC2)c1

>  <Energy>  (82) 
97.72227302881215

>  <Genealogy>  (82) 
O=C(CCn1c([O-])c2c(c1[O-])CC=CC2)[N-]CC(=O)[N-]c1cccc(S(=O)(=O)N2CCOCC2)c1 (protonated)
O=C(CCn1c([O-])c2c(c1[O-])CC=CC2)[N-]CC(=O)[N-]c1cccc(S(=O)(=O)N2CCOCC2)c1 (3D coordinates assigned)
O=C(CCn1c([O-])c2c(c1[O-])CC=CC2)[N-]CC(=O)[N-]c1cccc(S(=O)(=O)N2CCOCC2)c1 (nonaromatic ring conformer: 97.72227302881215 kcal/mol)

>  <smiles>  (82) 
O=C(CCn1c(O)c2c(c1O)CC=CC2)NCC(=O)Nc1cccc(S(=O)(=O)N2CCOCC2)c1

>  <score_type>  (82) 
oracle

>  <origin>  (82) 
adg

>  <m_score__min__energy>  (82) 
-17.5

>  <m_primary>  (82) 
energy

$$$$
82:0
     RDKit          3D

 54 57  0  0  0  0  0  0  0  0999 V2000
   59.6220   25.8170   46.0920 C   0  0  0  0  0  0  0  0  0  0  0  0
   58.9440   27.1160   45.7440 C   0  0  0  0  0  0  0  0  0  0  0  0
   59.7220   28.2810   45.6380 C   0  0  0  0  0  0  0  0  0  0  0  0
   59.1400   29.4940   45.2760 C   0  0  0  0  0  0  0  0  0  0  0  0
   57.7650   29.5720   45.0340 C   0  0  0  0  0  0  0  0  0  0  0  0
   57.0300   31.0810   44.5030 S   0  0  0  0  0  0  0  0  0  0  0  0
   57.7660   31.6230   43.3100 O   0  0  0  0  0  0  0  0  0  0  0  0
   55.6010   30.8400   44.1050 O   0  0  0  0  0  0  0  0  0  0  0  0
   57.0520   32.2070   45.8210 N   0  0  0  0  0  0  0  0  0  0  0  0
   58.0270   33.2440   45.9790 C   0  0  0  0  0  0  0  0  0  0  0  0
   58.3640   34.0940   44.9130 C   0  0  0  0  0  0  0  0  0  0  0  0
   59.3020   35.1120   45.0930 C   0  0  0  0  0  0  0  0  0  0  0  0
   59.9080   35.2940   46.3370 C   0  0  0  0  0  0  0  0  0  0  0  0
   59.5760   34.4580   47.4050 C   0  0  0  0  0  0  0  0  0  0  0  0
   58.6330   33.4250   47.2350 C   0  0  0  0  0  0  0  0  0  0  0  0
   58.2860   32.5480   48.2760 O   0  0  0  0  0  0  0  0  0  0  0  0
   59.1530   32.1480   49.3380 C   0  0  0  0  0  0  0  0  0  0  0  0
   58.3550   31.6810   50.5170 C   0  0  0  0  0  0  0  0  0  0  0  0
   57.7610   30.5140   50.6060 O   0  0  0  0  0  0  0  0  0  0  0  0
   57.1580   30.5070   51.7730 C   0  0  0  0  0  0  0  0  0  0  0  0
   56.4790   29.5380   52.2010 O   0  0  0  0  0  0  0  0  0  0  0  0
   57.3370   31.6230   52.4430 O   0  0  0  0  0  0  0  0  0  0  0  0
   58.0860   32.3820   51.6780 C   0  0  0  0  0  0  0  0  0  0  0  0
   58.5420   33.7590   52.0290 C   0  0  0  0  0  0  0  0  0  0  0  0
   56.9740   28.4260   45.1660 C   0  0  0  0  0  0  0  0  0  0  0  0
   57.5490   27.1870   45.5060 C   0  0  0  0  0  0  0  0  0  0  0  0
   56.6820   25.9900   45.6330 C   0  0  0  0  0  0  0  0  0  0  0  0
   55.8230   25.8070   46.6130 O   0  0  0  0  0  0  0  0  0  0  0  0
   55.1850   24.6800   46.4860 N   0  0  0  0  0  0  0  0  0  0  0  0
   55.6390   24.0950   45.3620 C   0  0  0  0  0  0  0  0  0  0  0  0
   55.1900   22.7540   44.8800 C   0  0  0  0  0  0  0  0  0  0  0  0
   56.6160   24.8880   44.7940 C   0  0  0  0  0  0  0  0  0  0  0  0
   57.3860   24.6140   43.5400 C   0  0  0  0  0  0  0  0  0  0  0  0
   59.6762   25.7132   47.1857 H   0  0  0  0  0  0  0  0  0  0  0  0
   59.0463   24.9789   45.6722 H   0  0  0  0  0  0  0  0  0  0  0  0
   60.6387   25.8101   45.6722 H   0  0  0  0  0  0  0  0  0  0  0  0
   60.8018   28.2350   45.8429 H   0  0  0  0  0  0  0  0  0  0  0  0
   59.7649   30.3942   45.1802 H   0  0  0  0  0  0  0  0  0  0  0  0
   57.8865   33.9569   43.9316 H   0  0  0  0  0  0  0  0  0  0  0  0
   59.5640   35.7719   44.2529 H   0  0  0  0  0  0  0  0  0  0  0  0
   60.6475   36.0964   46.4762 H   0  0  0  0  0  0  0  0  0  0  0  0
   60.0534   34.6067   48.3848 H   0  0  0  0  0  0  0  0  0  0  0  0
   59.7983   31.3281   48.9896 H   0  0  0  0  0  0  0  0  0  0  0  0
   59.7662   33.0094   49.6412 H   0  0  0  0  0  0  0  0  0  0  0  0
   58.5774   33.8658   53.1232 H   0  0  0  0  0  0  0  0  0  0  0  0
   59.5450   33.9307   51.6112 H   0  0  0  0  0  0  0  0  0  0  0  0
   57.8398   34.4954   51.6112 H   0  0  0  0  0  0  0  0  0  0  0  0
   55.8884   28.4939   45.0020 H   0  0  0  0  0  0  0  0  0  0  0  0
   54.9736   22.1076   45.7434 H   0  0  0  0  0  0  0  0  0  0  0  0
   54.2812   22.8687   44.2709 H   0  0  0  0  0  0  0  0  0  0  0  0
   55.9846   22.2984   44.2709 H   0  0  0  0  0  0  0  0  0  0  0  0
   58.3932   24.2556   43.7991 H   0  0  0  0  0  0  0  0  0  0  0  0
   56.8642   23.8464   42.9497 H   0  0  0  0  0  0  0  0  0  0  0  0
   57.4664   25.5387   42.9497 H   0  0  0  0  0  0  0  0  0  0  0  0
  1  2  1  0
  2  3  2  0
  3  4  1  0
  4  5  2  0
  5  6  1  0
  6  7  2  0
  6  8  2  0
  6  9  1  0
  9 10  1  0
 10 11  2  0
 11 12  1  0
 12 13  2  0
 13 14  1  0
 14 15  2  0
 15 16  1  0
 16 17  1  0
 17 18  1  0
 18 19  1  0
 19 20  1  0
 20 21  2  0
 20 22  1  0
 22 23  1  0
 23 24  1  0
  5 25  1  0
 25 26  2  0
 26 27  1  0
 27 28  1  0
 28 29  1  0
 29 30  2  0
 30 31  1  0
 30 32  1  0
 32 33  1  0
 26  2  1  0
 32 27  2  0
 15 10  1  0
 23 18  2  0
  1 34  1  0
  1 35  1  0
  1 36  1  0
  3 37  1  0
  4 38  1  0
 11 39  1  0
 12 40  1  0
 13 41  1  0
 14 42  1  0
 17 43  1  0
 17 44  1  0
 24 45  1  0
 24 46  1  0
 24 47  1  0
 25 48  1  0
 31 49  1  0
 31 50  1  0
 31 51  1  0
 33 52  1  0
 33 53  1  0
 33 54  1  0
M  CHG  1   9  -1
M  END
>  <UniqueID>  (83) 
77

>  <SMILES>  (83) 
Cc1ccc(S(=O)(=O)[N-]c2ccccc2OCc2oc(=O)oc2C)cc1-c1onc(C)c1C

>  <Energy>  (83) 
122.33660742586646

>  <Genealogy>  (83) 
Cc1ccc(S(=O)(=O)[N-]c2ccccc2OCc2oc(=O)oc2C)cc1-c1onc(C)c1C (protonated)
Cc1ccc(S(=O)(=O)[N-]c2ccccc2OCc2oc(=O)oc2C)cc1-c1onc(C)c1C (3D coordinates assigned)
Cc1ccc(S(=O)(=O)[N-]c2ccccc2OCc2oc(=O)oc2C)cc1-c1onc(C)c1C (optimized conformer: 122.33660742586646 kcal/mol)

>  <smiles>  (83) 
Cc1ccc(S(=O)(=O)Nc2ccccc2OCc2oc(=O)oc2C)cc1-c1onc(C)c1C

>  <score_type>  (83) 
oracle

>  <origin>  (83) 
adg

>  <m_score__min__energy>  (83) 
-12.140000000000001

>  <m_primary>  (83) 
energy

$$$$
83:0
     RDKit          3D

 49 51  0  0  0  0  0  0  0  0999 V2000
   61.0490   34.0980   48.8600 O   0  0  0  0  0  0  0  0  0  0  0  0
   60.7250   32.9590   49.2990 C   0  0  0  0  0  0  0  0  0  0  0  0
   61.3850   31.7510   48.6850 C   0  0  0  0  0  0  0  0  0  0  0  0
   60.4520   30.9540   47.7610 C   0  0  0  0  0  0  0  0  0  0  0  0
   60.3110   29.1830   48.2240 S   0  0  0  0  0  0  0  0  0  0  0  0
   59.3390   28.6670   46.8010 C   0  0  0  0  0  0  0  0  0  0  0  0
   59.6960   27.5060   46.1020 C   0  0  0  0  0  0  0  0  0  0  0  0
   58.9560   27.1020   44.9890 C   0  0  0  0  0  0  0  0  0  0  0  0
   57.8410   27.8400   44.5820 C   0  0  0  0  0  0  0  0  0  0  0  0
   57.4840   29.0160   45.2620 C   0  0  0  0  0  0  0  0  0  0  0  0
   56.2710   29.7580   44.8680 C   0  0  0  0  0  0  0  0  0  0  0  0
   55.1630   29.1590   44.8560 O   0  0  0  0  0  0  0  0  0  0  0  0
   56.3110   31.1420   44.4940 N   0  0  0  0  0  0  0  0  0  0  0  0
   57.4890   31.8320   43.9750 C   0  0  0  0  0  0  0  0  0  0  0  0
   57.9800   32.8420   44.9790 C   0  0  0  0  0  0  0  0  0  0  0  0
   58.8730   33.8520   44.5790 C   0  0  0  0  0  0  0  0  0  0  0  0
   59.3720   34.7630   45.5160 C   0  0  0  0  0  0  0  0  0  0  0  0
   58.9930   34.6640   46.8590 C   0  0  0  0  0  0  0  0  0  0  0  0
   58.1110   33.6570   47.2640 C   0  0  0  0  0  0  0  0  0  0  0  0
   57.6050   32.7470   46.3290 C   0  0  0  0  0  0  0  0  0  0  0  0
   58.2500   29.4330   46.3640 C   0  0  0  0  0  0  0  0  0  0  0  0
   59.7240   32.8610   50.3990 C   0  0  0  0  0  0  0  0  0  0  0  0
   59.5240   33.9140   51.3120 C   0  0  0  0  0  0  0  0  0  0  0  0
   58.5300   33.8260   52.2870 C   0  0  0  0  0  0  0  0  0  0  0  0
   57.7280   32.6870   52.3750 C   0  0  0  0  0  0  0  0  0  0  0  0
   57.9240   31.6110   51.4920 C   0  0  0  0  0  0  0  0  0  0  0  0
   57.0900   30.4410   51.5660 N   0  0  0  0  0  0  0  0  0  0  0  0
   57.5970   29.3020   51.6150 O   0  0  0  0  0  0  0  0  0  0  0  0
   55.7190   30.5600   51.6090 O   0  0  0  0  0  0  0  0  0  0  0  0
   58.9350   31.7020   50.5200 C   0  0  0  0  0  0  0  0  0  0  0  0
   62.2531   32.0872   48.0991 H   0  0  0  0  0  0  0  0  0  0  0  0
   61.6755   31.0835   49.5097 H   0  0  0  0  0  0  0  0  0  0  0  0
   59.4502   31.4064   47.8019 H   0  0  0  0  0  0  0  0  0  0  0  0
   60.8834   30.9931   46.7499 H   0  0  0  0  0  0  0  0  0  0  0  0
   60.5612   26.9116   46.4309 H   0  0  0  0  0  0  0  0  0  0  0  0
   59.2512   26.2010   44.4313 H   0  0  0  0  0  0  0  0  0  0  0  0
   57.2407   27.4985   43.7258 H   0  0  0  0  0  0  0  0  0  0  0  0
   58.2841   31.0976   43.7787 H   0  0  0  0  0  0  0  0  0  0  0  0
   57.2213   32.3510   43.0428 H   0  0  0  0  0  0  0  0  0  0  0  0
   59.1803   33.9260   43.5254 H   0  0  0  0  0  0  0  0  0  0  0  0
   60.0626   35.5574   45.1967 H   0  0  0  0  0  0  0  0  0  0  0  0
   59.3886   35.3780   47.5963 H   0  0  0  0  0  0  0  0  0  0  0  0
   57.8142   33.5801   48.3204 H   0  0  0  0  0  0  0  0  0  0  0  0
   56.9123   31.9559   46.6521 H   0  0  0  0  0  0  0  0  0  0  0  0
   57.9932   30.3662   46.8866 H   0  0  0  0  0  0  0  0  0  0  0  0
   60.1560   34.8126   51.2562 H   0  0  0  0  0  0  0  0  0  0  0  0
   58.3776   34.6583   52.9898 H   0  0  0  0  0  0  0  0  0  0  0  0
   56.9387   32.6311   53.1391 H   0  0  0  0  0  0  0  0  0  0  0  0
   59.1125   30.8535   49.8428 H   0  0  0  0  0  0  0  0  0  0  0  0
  1  2  2  0
  2  3  1  0
  3  4  1  0
  4  5  1  0
  5  6  1  0
  6  7  2  0
  7  8  1  0
  8  9  2  0
  9 10  1  0
 10 11  1  0
 11 12  2  0
 11 13  1  0
 13 14  1  0
 14 15  1  0
 15 16  2  0
 16 17  1  0
 17 18  2  0
 18 19  1  0
 19 20  2  0
 10 21  2  0
  2 22  1  0
 22 23  2  0
 23 24  1  0
 24 25  2  0
 25 26  1  0
 26 27  1  0
 27 28  2  0
 27 29  1  0
 26 30  2  0
 21  6  1  0
 30 22  1  0
 20 15  1  0
  3 31  1  0
  3 32  1  0
  4 33  1  0
  4 34  1  0
  7 35  1  0
  8 36  1  0
  9 37  1  0
 14 38  1  0
 14 39  1  0
 16 40  1  0
 17 41  1  0
 18 42  1  0
 19 43  1  0
 20 44  1  0
 21 45  1  0
 23 46  1  0
 24 47  1  0
 25 48  1  0
 30 49  1  0
M  CHG  3  13  -1  27   1  29  -1
M  END
>  <UniqueID>  (84) 
78

>  <SMILES>  (84) 
O=C(CCSc1cccc(C(=O)[N-]Cc2ccccc2)c1)c1cccc([N+](=O)[O-])c1

>  <Energy>  (84) 
49.49583705668168

>  <Genealogy>  (84) 
O=C(CCSc1cccc(C(=O)[N-]Cc2ccccc2)c1)c1cccc([N+](=O)[O-])c1 (protonated)
O=C(CCSc1cccc(C(=O)[N-]Cc2ccccc2)c1)c1cccc([N+](=O)[O-])c1 (3D coordinates assigned)
O=C(CCSc1cccc(C(=O)[N-]Cc2ccccc2)c1)c1cccc([N+](=O)[O-])c1 (optimized conformer: 49.49583705668168 kcal/mol)

>  <smiles>  (84) 
O=C(CCSc1cccc(C(=O)NCc2ccccc2)c1)c1cccc([N+](=O)[O-])c1

>  <score_type>  (84) 
oracle

>  <origin>  (84) 
adg

>  <m_score__min__energy>  (84) 
-11.550000000000001

>  <m_primary>  (84) 
energy

$$$$
84:0
     RDKit          3D

 48 51  0  0  0  0  0  0  0  0999 V2000
   60.6280   29.6800   46.8380 O   0  0  0  0  0  0  0  0  0  0  0  0
   59.4770   29.3100   46.4840 C   0  0  0  0  0  0  0  0  0  0  0  0
   58.8690   28.2170   47.1870 N   0  0  0  0  0  0  0  0  0  0  0  0
   59.2180   26.8060   47.0620 C   0  0  0  0  0  0  0  0  0  0  0  0
   58.0720   26.0180   46.4890 C   0  0  0  0  0  0  0  0  0  0  0  0
   58.2760   24.7030   46.0350 C   0  0  0  0  0  0  0  0  0  0  0  0
   57.2010   23.9440   45.5650 C   0  0  0  0  0  0  0  0  0  0  0  0
   55.9150   24.4890   45.5440 C   0  0  0  0  0  0  0  0  0  0  0  0
   55.7010   25.7960   45.9920 C   0  0  0  0  0  0  0  0  0  0  0  0
   54.4230   26.3400   45.9640 O   0  0  0  0  0  0  0  0  0  0  0  0
   56.7750   26.5570   46.4690 C   0  0  0  0  0  0  0  0  0  0  0  0
   58.7510   30.0900   45.4030 C   0  0  1  0  0  0  0  0  0  0  0  0
   57.9500   29.0900   44.5350 C   0  0  0  0  0  0  0  0  0  0  0  0
   56.7730   29.7330   43.7930 C   0  0  0  0  0  0  0  0  0  0  0  0
   57.0010   31.2250   43.5930 C   0  0  0  0  0  0  0  0  0  0  0  0
   57.0600   31.9280   44.8930 N   0  0  0  0  0  0  0  0  0  0  0  0
   57.3350   33.3720   44.6990 C   0  0  0  0  0  0  0  0  0  0  0  0
   58.8180   33.6970   44.8640 C   0  0  0  0  0  0  0  0  0  0  0  0
   59.2060   33.3430   46.2610 C   0  0  0  0  0  0  0  0  0  0  0  0
   60.0270   34.1900   47.0200 C   0  0  0  0  0  0  0  0  0  0  0  0
   60.3050   33.8920   48.3560 C   0  0  0  0  0  0  0  0  0  0  0  0
   61.1360   34.7420   49.0840 O   0  0  0  0  0  0  0  0  0  0  0  0
   59.7410   32.7490   48.9450 C   0  0  0  0  0  0  0  0  0  0  0  0
   59.9940   32.4430   50.2760 O   0  0  0  0  0  0  0  0  0  0  0  0
   58.9180   31.9070   48.1890 C   0  0  0  0  0  0  0  0  0  0  0  0
   58.6640   32.1830   46.8340 C   0  0  0  0  0  0  0  0  0  0  0  0
   57.8390   31.2240   45.9740 C   0  0  2  0  0  0  0  0  0  0  0  0
   60.0898   26.7081   46.3983 H   0  0  0  0  0  0  0  0  0  0  0  0
   59.4502   26.4116   48.0623 H   0  0  0  0  0  0  0  0  0  0  0  0
   59.2869   24.2695   46.0499 H   0  0  0  0  0  0  0  0  0  0  0  0
   57.3677   22.9159   45.2111 H   0  0  0  0  0  0  0  0  0  0  0  0
   55.0700   23.8894   45.1747 H   0  0  0  0  0  0  0  0  0  0  0  0
   56.6024   27.5817   46.8298 H   0  0  0  0  0  0  0  0  0  0  0  0
   59.4968   30.6106   44.7843 H   0  0  0  0  0  0  0  0  0  0  0  0
   58.6314   28.6496   43.7922 H   0  0  0  0  0  0  0  0  0  0  0  0
   57.5305   28.3340   45.2150 H   0  0  0  0  0  0  0  0  0  0  0  0
   56.6616   29.2516   42.8102 H   0  0  0  0  0  0  0  0  0  0  0  0
   55.8630   29.5961   44.3957 H   0  0  0  0  0  0  0  0  0  0  0  0
   57.9504   31.3759   43.0584 H   0  0  0  0  0  0  0  0  0  0  0  0
   56.1628   31.6339   43.0096 H   0  0  0  0  0  0  0  0  0  0  0  0
   57.0182   33.6613   43.6861 H   0  0  0  0  0  0  0  0  0  0  0  0
   56.7765   33.9310   45.4643 H   0  0  0  0  0  0  0  0  0  0  0  0
   59.4124   33.1088   44.1494 H   0  0  0  0  0  0  0  0  0  0  0  0
   59.0030   34.7640   44.6708 H   0  0  0  0  0  0  0  0  0  0  0  0
   60.4541   35.0936   46.5607 H   0  0  0  0  0  0  0  0  0  0  0  0
   61.3960   34.5490   50.0440 H   0  0  0  0  0  0  0  0  0  0  0  0
   58.4657   31.0213   48.6590 H   0  0  0  0  0  0  0  0  0  0  0  0
   57.0814   30.7630   46.6248 H   0  0  0  0  0  0  0  0  0  0  0  0
  1  2  2  0
  2  3  1  0
  3  4  1  0
  4  5  1  0
  5  6  2  0
  6  7  1  0
  7  8  2  0
  8  9  1  0
  9 10  1  0
  9 11  2  0
  2 12  1  0
 12 13  1  0
 13 14  1  0
 14 15  1  0
 15 16  1  0
 16 17  1  0
 17 18  1  0
 18 19  1  0
 19 20  2  0
 20 21  1  0
 21 22  1  0
 21 23  2  0
 23 24  1  0
 23 25  1  0
 25 26  2  0
 26 27  1  0
 11  5  1  0
 27 12  1  0
 27 16  1  0
 26 19  1  0
  4 28  1  0
  4 29  1  0
  6 30  1  0
  7 31  1  0
  8 32  1  0
 11 33  1  0
 12 34  1  6
 13 35  1  0
 13 36  1  0
 14 37  1  0
 14 38  1  0
 15 39  1  0
 15 40  1  0
 17 41  1  0
 17 42  1  0
 18 43  1  0
 18 44  1  0
 20 45  1  0
 22 46  1  0
 25 47  1  0
 27 48  1  1
M  CHG  3   3  -1  10  -1  24  -1
M  END
>  <UniqueID>  (85) 
79

>  <SMILES>  (85) 
O=C([N-]Cc1cccc([O-])c1)[C@H]1CCCN2CCc3cc(O)c([O-])cc3[C@H]12

>  <Energy>  (85) 
62.20316520716163

>  <Genealogy>  (85) 
O=C([N-]Cc1cccc([O-])c1)C1CCCN2CCc3cc(O)c([O-])cc3C12 (protonated)
O=C([N-]Cc1cccc([O-])c1)[C@H]1CCCN2CCc3cc(O)c([O-])cc3[C@H]12 (chirality)
O=C([N-]Cc1cccc([O-])c1)[C@H]1CCCN2CCc3cc(O)c([O-])cc3[C@H]12 (3D coordinates assigned)
O=C([N-]Cc1cccc([O-])c1)[C@H]1CCCN2CCc3cc(O)c([O-])cc3[C@H]12 (nonaromatic ring conformer: 62.20316520716163 kcal/mol)

>  <smiles>  (85) 
O=C(NCc1cccc(O)c1)C1CCCN2CCc3cc(O)c(O)cc3C12

>  <score_type>  (85) 
oracle

>  <origin>  (85) 
adg

>  <m_score__min__energy>  (85) 
-14.109999999999999

>  <m_primary>  (85) 
energy

$$$$
85:0
     RDKit          3D

 50 53  0  0  0  0  0  0  0  0999 V2000
   58.4310   30.2270   44.4870 C   0  0  0  0  0  0  0  0  0  0  0  0
   58.5150   29.7450   45.7370 C   0  0  0  0  0  0  0  0  0  0  0  0
   58.1370   28.4660   46.1840 C   0  0  0  0  0  0  0  0  0  0  0  0
   57.4600   27.4770   45.5680 C   0  0  0  0  0  0  0  0  0  0  0  0
   57.2590   26.1140   46.0970 C   0  0  0  0  0  0  0  0  0  0  0  0
   55.9640   25.6000   46.2520 C   0  0  0  0  0  0  0  0  0  0  0  0
   54.8530   26.3870   45.9580 O   0  0  0  0  0  0  0  0  0  0  0  0
   55.7890   24.3280   46.7020 N   0  0  0  0  0  0  0  0  0  0  0  0
   56.8520   23.5350   46.9900 C   0  0  0  0  0  0  0  0  0  0  0  0
   56.6640   22.3630   47.4080 O   0  0  0  0  0  0  0  0  0  0  0  0
   58.1150   24.0010   46.8230 N   0  0  0  0  0  0  0  0  0  0  0  0
   58.3440   25.2620   46.3760 C   0  0  0  0  0  0  0  0  0  0  0  0
   59.5300   25.6550   46.2110 O   0  0  0  0  0  0  0  0  0  0  0  0
   58.5970   28.3590   47.4850 C   0  0  0  0  0  0  0  0  0  0  0  0
   59.1740   29.5690   47.8090 C   0  0  0  0  0  0  0  0  0  0  0  0
   59.8040   29.8780   49.1330 C   0  0  0  0  0  0  0  0  0  0  0  0
   59.1280   30.4100   46.7510 N   0  0  0  0  0  0  0  0  0  0  0  0
   59.6530   31.7500   46.7190 C   0  0  0  0  0  0  0  0  0  0  0  0
   58.8370   32.8150   46.3120 C   0  0  0  0  0  0  0  0  0  0  0  0
   59.3480   34.1140   46.2670 C   0  0  0  0  0  0  0  0  0  0  0  0
   60.6730   34.3600   46.6390 C   0  0  0  0  0  0  0  0  0  0  0  0
   61.4940   33.3080   47.0730 C   0  0  0  0  0  0  0  0  0  0  0  0
   62.8960   33.5760   47.4530 C   0  0  0  0  0  0  0  0  0  0  0  0
   63.6240   34.2390   46.6650 O   0  0  0  0  0  0  0  0  0  0  0  0
   63.4400   33.1210   48.7050 N   0  0  0  0  0  0  0  0  0  0  0  0
   62.6380   32.8220   49.8820 C   0  0  0  0  0  0  0  0  0  0  0  0
   63.6080   32.8400   51.0540 C   0  0  0  0  0  0  0  0  0  0  0  0
   64.9970   32.6950   50.4410 C   0  0  0  0  0  0  0  0  0  0  0  0
   64.8620   33.1730   49.0030 C   0  0  0  0  0  0  0  0  0  0  0  0
   60.9820   32.0000   47.0950 C   0  0  0  0  0  0  0  0  0  0  0  0
   58.7637   31.2527   44.2695 H   0  0  0  0  0  0  0  0  0  0  0  0
   58.0295   29.5963   43.6801 H   0  0  0  0  0  0  0  0  0  0  0  0
   57.0192   27.7053   44.5864 H   0  0  0  0  0  0  0  0  0  0  0  0
   54.0190   26.3430   46.5290 H   0  0  0  0  0  0  0  0  0  0  0  0
   58.5175   27.4765   48.1368 H   0  0  0  0  0  0  0  0  0  0  0  0
   59.1354   29.5501   49.9426 H   0  0  0  0  0  0  0  0  0  0  0  0
   60.7650   29.3490   49.2142 H   0  0  0  0  0  0  0  0  0  0  0  0
   59.9740   30.9617   49.2142 H   0  0  0  0  0  0  0  0  0  0  0  0
   57.7913   32.6269   46.0273 H   0  0  0  0  0  0  0  0  0  0  0  0
   58.7068   34.9451   45.9382 H   0  0  0  0  0  0  0  0  0  0  0  0
   61.0739   35.3832   46.5912 H   0  0  0  0  0  0  0  0  0  0  0  0
   61.8571   33.5846   50.0183 H   0  0  0  0  0  0  0  0  0  0  0  0
   62.1279   31.8517   49.7910 H   0  0  0  0  0  0  0  0  0  0  0  0
   63.5283   33.7896   51.6035 H   0  0  0  0  0  0  0  0  0  0  0  0
   63.3940   32.0338   51.7711 H   0  0  0  0  0  0  0  0  0  0  0  0
   65.7236   33.3160   50.9854 H   0  0  0  0  0  0  0  0  0  0  0  0
   65.3581   31.6573   50.4926 H   0  0  0  0  0  0  0  0  0  0  0  0
   65.2376   34.2021   48.9037 H   0  0  0  0  0  0  0  0  0  0  0  0
   65.4459   32.5490   48.3104 H   0  0  0  0  0  0  0  0  0  0  0  0
   61.6270   31.1661   47.4090 H   0  0  0  0  0  0  0  0  0  0  0  0
  1  2  2  0
  2  3  1  0
  3  4  2  3
  4  5  1  0
  5  6  2  0
  6  7  1  0
  6  8  1  0
  8  9  1  0
  9 10  2  0
  9 11  1  0
 11 12  1  0
 12 13  2  0
  3 14  1  0
 14 15  2  0
 15 16  1  0
 15 17  1  0
 17 18  1  0
 18 19  2  0
 19 20  1  0
 20 21  2  0
 21 22  1  0
 22 23  1  0
 23 24  2  0
 23 25  1  0
 25 26  1  0
 26 27  1  0
 27 28  1  0
 28 29  1  0
 22 30  2  0
 17  2  1  0
 30 18  1  0
 12  5  1  0
 29 25  1  0
  1 31  1  0
  1 32  1  0
  4 33  1  0
  7 34  1  0
 14 35  1  0
 16 36  1  0
 16 37  1  0
 16 38  1  0
 19 39  1  0
 20 40  1  0
 21 41  1  0
 26 42  1  0
 26 43  1  0
 27 44  1  0
 27 45  1  0
 28 46  1  0
 28 47  1  0
 29 48  1  0
 29 49  1  0
 30 50  1  0
M  CHG  2   8  -1  11  -1
M  END
>  <UniqueID>  (86) 
80

>  <SMILES>  (86) 
C=c1c(=Cc2c(O)[n-]c(=O)[n-]c2=O)cc(C)n1-c1cccc(C(=O)N2CCCC2)c1

>  <Energy>  (86) 
104.66583412109914

>  <Genealogy>  (86) 
C=c1c(=Cc2c(O)[n-]c(=O)[n-]c2=O)cc(C)n1-c1cccc(C(=O)N2CCCC2)c1 (protonated)
C=c1c(=Cc2c(O)[n-]c(=O)[n-]c2=O)cc(C)n1-c1cccc(C(=O)N2CCCC2)c1 (3D coordinates assigned)
C=c1c(=Cc2c(O)[n-]c(=O)[n-]c2=O)cc(C)n1-c1cccc(C(=O)N2CCCC2)c1 (nonaromatic ring conformer: 104.66583412109914 kcal/mol)

>  <smiles>  (86) 
C=c1c(=Cc2c(O)[nH]c(=O)[nH]c2=O)cc(C)n1-c1cccc(C(=O)N2CCCC2)c1

>  <score_type>  (86) 
oracle

>  <origin>  (86) 
adg

>  <m_score__min__energy>  (86) 
-14.41

>  <m_primary>  (86) 
energy

$$$$
86:0
     RDKit          3D

 53 55  0  0  0  0  0  0  0  0999 V2000
   56.6040   29.5200   42.6490 C   0  0  0  0  0  0  0  0  0  0  0  0
   56.5820   29.5950   44.4270 S   0  0  0  0  0  0  0  0  0  0  0  0
   56.9730   30.9790   44.8670 O   0  0  0  0  0  0  0  0  0  0  0  0
   55.1700   29.3310   44.8670 O   0  0  0  0  0  0  0  0  0  0  0  0
   57.6960   28.4050   45.0920 N   0  0  0  0  0  0  0  0  0  0  0  0
   58.8490   29.1520   45.6510 C   0  0  0  0  0  0  0  0  0  0  0  0
   58.8500   29.2620   47.1800 C   0  0  0  0  0  0  0  0  0  0  0  0
   59.9610   30.0230   47.6360 O   0  0  0  0  0  0  0  0  0  0  0  0
   59.8960   30.7460   48.8280 C   0  0  0  0  0  0  0  0  0  0  0  0
   60.7500   30.4030   49.8830 C   0  0  0  0  0  0  0  0  0  0  0  0
   60.6750   31.0820   51.1010 C   0  0  0  0  0  0  0  0  0  0  0  0
   59.7400   32.1050   51.2720 C   0  0  0  0  0  0  0  0  0  0  0  0
   58.8860   32.4570   50.2240 C   0  0  0  0  0  0  0  0  0  0  0  0
   58.9700   31.8010   48.9900 C   0  0  0  0  0  0  0  0  0  0  0  0
   58.0950   32.1880   47.9650 O   0  0  0  0  0  0  0  0  0  0  0  0
   58.4090   33.0820   46.9320 C   0  0  0  0  0  0  0  0  0  0  0  0
   57.4030   33.4480   46.0290 C   0  0  0  0  0  0  0  0  0  0  0  0
   57.6750   34.3460   44.9920 C   0  0  0  0  0  0  0  0  0  0  0  0
   58.9530   34.8940   44.8590 C   0  0  0  0  0  0  0  0  0  0  0  0
   59.9610   34.5440   45.7610 C   0  0  0  0  0  0  0  0  0  0  0  0
   59.6920   33.6470   46.7990 C   0  0  0  0  0  0  0  0  0  0  0  0
   57.0320   27.5970   46.1410 C   0  0  0  0  0  0  0  0  0  0  0  0
   56.4450   26.3040   45.6250 C   0  0  0  0  0  0  0  0  0  0  0  0
   57.1870   25.5330   44.9610 O   0  0  0  0  0  0  0  0  0  0  0  0
   55.0960   25.8930   45.8890 N   0  0  0  0  0  0  0  0  0  0  0  0
   54.5970   24.5540   45.9320 C   0  0  0  0  0  0  0  0  0  0  0  0
   55.1830   23.5800   46.7510 C   0  0  0  0  0  0  0  0  0  0  0  0
   54.6150   22.3060   46.8290 C   0  0  0  0  0  0  0  0  0  0  0  0
   53.4700   22.0200   46.0820 C   0  0  0  0  0  0  0  0  0  0  0  0
   52.9080   22.9800   45.3020 N   0  0  0  0  0  0  0  0  0  0  0  0
   53.4350   24.2310   45.2220 C   0  0  0  0  0  0  0  0  0  0  0  0
   56.9002   28.5103   42.3282 H   0  0  0  0  0  0  0  0  0  0  0  0
   55.6009   29.7488   42.2599 H   0  0  0  0  0  0  0  0  0  0  0  0
   57.3246   30.2545   42.2599 H   0  0  0  0  0  0  0  0  0  0  0  0
   59.7727   28.6408   45.3421 H   0  0  0  0  0  0  0  0  0  0  0  0
   58.7768   30.1784   45.2621 H   0  0  0  0  0  0  0  0  0  0  0  0
   57.9206   29.7518   47.5059 H   0  0  0  0  0  0  0  0  0  0  0  0
   58.9215   28.2495   47.6039 H   0  0  0  0  0  0  0  0  0  0  0  0
   61.4840   29.5943   49.7518 H   0  0  0  0  0  0  0  0  0  0  0  0
   61.3517   30.8113   51.9248 H   0  0  0  0  0  0  0  0  0  0  0  0
   59.6758   32.6348   52.2339 H   0  0  0  0  0  0  0  0  0  0  0  0
   58.1427   33.2548   50.3693 H   0  0  0  0  0  0  0  0  0  0  0  0
   56.3926   33.0265   46.1361 H   0  0  0  0  0  0  0  0  0  0  0  0
   56.8822   34.6209   44.2807 H   0  0  0  0  0  0  0  0  0  0  0  0
   59.1659   35.6013   44.0439 H   0  0  0  0  0  0  0  0  0  0  0  0
   60.9675   34.9748   45.6543 H   0  0  0  0  0  0  0  0  0  0  0  0
   60.4848   33.3818   47.5139 H   0  0  0  0  0  0  0  0  0  0  0  0
   57.7735   27.3573   46.9173 H   0  0  0  0  0  0  0  0  0  0  0  0
   56.1976   28.1976   46.5321 H   0  0  0  0  0  0  0  0  0  0  0  0
   56.0872   23.8176   47.3306 H   0  0  0  0  0  0  0  0  0  0  0  0
   55.0651   21.5357   47.4724 H   0  0  0  0  0  0  0  0  0  0  0  0
   53.0226   21.0160   46.1253 H   0  0  0  0  0  0  0  0  0  0  0  0
   52.9459   24.9923   44.5966 H   0  0  0  0  0  0  0  0  0  0  0  0
  1  2  1  0
  2  3  2  0
  2  4  2  0
  2  5  1  0
  5  6  1  0
  6  7  1  0
  7  8  1  0
  8  9  1  0
  9 10  2  0
 10 11  1  0
 11 12  2  0
 12 13  1  0
 13 14  2  0
 14 15  1  0
 15 16  1  0
 16 17  2  0
 17 18  1  0
 18 19  2  0
 19 20  1  0
 20 21  2  0
  5 22  1  0
 22 23  1  0
 23 24  2  0
 23 25  1  0
 25 26  1  0
 26 27  2  0
 27 28  1  0
 28 29  2  0
 29 30  1  0
 30 31  2  0
 14  9  1  0
 21 16  1  0
 31 26  1  0
  1 32  1  0
  1 33  1  0
  1 34  1  0
  6 35  1  0
  6 36  1  0
  7 37  1  0
  7 38  1  0
 10 39  1  0
 11 40  1  0
 12 41  1  0
 13 42  1  0
 17 43  1  0
 18 44  1  0
 19 45  1  0
 20 46  1  0
 21 47  1  0
 22 48  1  0
 22 49  1  0
 27 50  1  0
 28 51  1  0
 29 52  1  0
 31 53  1  0
M  CHG  1  25  -1
M  END
>  <UniqueID>  (87) 
81

>  <SMILES>  (87) 
CS(=O)(=O)N(CCOc1ccccc1Oc1ccccc1)CC(=O)[N-]c1cccnc1

>  <Energy>  (87) 
64.01036175457732

>  <Genealogy>  (87) 
CS(=O)(=O)N(CCOc1ccccc1Oc1ccccc1)CC(=O)[N-]c1cccnc1 (protonated)
CS(=O)(=O)N(CCOc1ccccc1Oc1ccccc1)CC(=O)[N-]c1cccnc1 (3D coordinates assigned)
CS(=O)(=O)N(CCOc1ccccc1Oc1ccccc1)CC(=O)[N-]c1cccnc1 (optimized conformer: 64.01036175457732 kcal/mol)

>  <smiles>  (87) 
CS(=O)(=O)N(CCOc1ccccc1Oc1ccccc1)CC(=O)Nc1cccnc1

>  <score_type>  (87) 
oracle

>  <origin>  (87) 
adg

>  <m_score__min__energy>  (87) 
-10.43

>  <m_primary>  (87) 
energy

$$$$
87:0
     RDKit          3D

 59 63  0  0  0  0  0  0  0  0999 V2000
   59.6332   30.6227   51.7797 H   0  0  0  0  0  0  0  0  0  0  0  0
   58.9840   30.6700   50.8930 C   0  0  0  0  0  0  0  0  0  0  0  0
   58.2581   31.4895   50.7859 H   0  0  0  0  0  0  0  0  0  0  0  0
   59.0770   29.7340   49.9480 C   0  0  0  0  0  0  0  0  0  0  0  0
   58.3040   29.7450   48.8400 N   0  0  0  0  0  0  0  0  0  0  0  0
   58.7130   28.7030   48.0850 C   0  0  0  0  0  0  0  0  0  0  0  0
   58.1620   28.4320   46.8920 C   0  0  0  0  0  0  0  0  0  0  0  0
   58.1539   27.3841   46.5576 H   0  0  0  0  0  0  0  0  0  0  0  0
   57.5670   29.4420   45.9990 C   0  0  0  0  0  0  0  0  0  0  0  0
   56.3850   29.3490   45.2720 C   0  0  0  0  0  0  0  0  0  0  0  0
   55.5820   28.2170   45.2030 O   0  0  0  0  0  0  0  0  0  0  0  0
   56.0690   30.5130   44.6560 N   0  0  0  0  0  0  0  0  0  0  0  0
   57.0570   31.3530   45.0210 C   0  0  0  0  0  0  0  0  0  0  0  0
   57.1810   32.6930   44.6620 C   0  0  0  0  0  0  0  0  0  0  0  0
   56.4438   33.1722   44.0010 H   0  0  0  0  0  0  0  0  0  0  0  0
   58.2760   33.4160   45.1690 C   0  0  0  0  0  0  0  0  0  0  0  0
   58.3998   34.4761   44.9027 H   0  0  0  0  0  0  0  0  0  0  0  0
   59.2200   32.7910   46.0190 C   0  0  0  0  0  0  0  0  0  0  0  0
   60.5760   33.7070   46.6720 S   0  0  0  0  0  0  0  0  0  0  0  0
   60.1180   35.0900   47.0480 O   0  0  0  0  0  0  0  0  0  0  0  0
   61.6230   33.8330   45.6010 O   0  0  0  0  0  0  0  0  0  0  0  0
   61.2640   32.8850   48.0590 N   0  0  0  0  0  0  0  0  0  0  0  0
   62.2340   33.7330   48.7750 C   0  0  0  0  0  0  0  0  0  0  0  0
   61.7968   34.7331   48.9115 H   0  0  0  0  0  0  0  0  0  0  0  0
   62.4508   33.2548   49.7416 H   0  0  0  0  0  0  0  0  0  0  0  0
   63.5700   33.8740   48.0050 C   0  0  0  0  0  0  0  0  0  0  0  0
   63.5818   34.8544   47.5063 H   0  0  0  0  0  0  0  0  0  0  0  0
   64.3793   33.7692   48.7426 H   0  0  0  0  0  0  0  0  0  0  0  0
   63.7700   32.8700   47.0240 O   0  0  0  0  0  0  0  0  0  0  0  0
   63.3670   31.6140   47.5220 C   0  0  0  0  0  0  0  0  0  0  0  0
   63.6779   30.8278   46.8182 H   0  0  0  0  0  0  0  0  0  0  0  0
   63.8381   31.4499   48.5024 H   0  0  0  0  0  0  0  0  0  0  0  0
   61.8370   31.5710   47.6880 C   0  0  0  0  0  0  0  0  0  0  0  0
   61.3890   31.2479   46.7367 H   0  0  0  0  0  0  0  0  0  0  0  0
   61.6115   30.8686   48.5039 H   0  0  0  0  0  0  0  0  0  0  0  0
   59.0630   31.4360   46.3710 C   0  0  0  0  0  0  0  0  0  0  0  0
   59.7806   30.9366   47.0385 H   0  0  0  0  0  0  0  0  0  0  0  0
   57.9700   30.7480   45.8470 C   0  0  0  0  0  0  0  0  0  0  0  0
   59.7650   28.0480   48.7110 C   0  0  0  0  0  0  0  0  0  0  0  0
   60.5010   26.9770   48.2180 O   0  0  0  0  0  0  0  0  0  0  0  0
   59.9870   28.6820   49.9120 C   0  0  0  0  0  0  0  0  0  0  0  0
   61.0200   28.3220   50.9050 C   0  0  0  0  0  0  0  0  0  0  0  0
   60.9480   27.2000   51.4760 O   0  0  0  0  0  0  0  0  0  0  0  0
   62.0930   29.2230   51.2410 N   0  0  0  0  0  0  0  0  0  0  0  0
   61.8300   30.6600   51.4200 C   0  0  0  0  0  0  0  0  0  0  0  0
   60.8877   30.9159   50.9135 H   0  0  0  0  0  0  0  0  0  0  0  0
   61.7656   30.8655   52.4987 H   0  0  0  0  0  0  0  0  0  0  0  0
   62.9630   31.5230   50.8330 C   0  0  0  0  0  0  0  0  0  0  0  0
   62.7200   31.7483   49.7841 H   0  0  0  0  0  0  0  0  0  0  0  0
   63.0303   32.4295   51.4525 H   0  0  0  0  0  0  0  0  0  0  0  0
   64.3460   30.8440   50.8770 C   0  0  0  0  0  0  0  0  0  0  0  0
   64.5499   30.3910   49.8956 H   0  0  0  0  0  0  0  0  0  0  0  0
   65.0927   31.6127   51.1251 H   0  0  0  0  0  0  0  0  0  0  0  0
   64.4190   29.7540   51.9480 C   0  0  0  0  0  0  0  0  0  0  0  0
   65.4270   29.3137   51.9514 H   0  0  0  0  0  0  0  0  0  0  0  0
   64.2025   30.1985   52.9306 H   0  0  0  0  0  0  0  0  0  0  0  0
   63.3870   28.6580   51.6530 C   0  0  0  0  0  0  0  0  0  0  0  0
   63.7693   28.0172   50.8448 H   0  0  0  0  0  0  0  0  0  0  0  0
   63.2295   28.0795   52.5752 H   0  0  0  0  0  0  0  0  0  0  0  0
  1  2  1  0
  2  3  1  0
  2  4  2  0
  4  5  1  0
  5  6  1  0
  6  7  2  0
  7  8  1  0
  7  9  1  0
  9 10  2  0
 10 11  1  0
 10 12  1  0
 12 13  1  0
 13 14  2  0
 14 15  1  0
 14 16  1  0
 16 17  1  0
 16 18  2  0
 18 19  1  0
 19 20  2  0
 19 21  2  0
 19 22  1  0
 22 23  1  0
 23 24  1  0
 23 25  1  0
 23 26  1  0
 26 27  1  0
 26 28  1  0
 26 29  1  0
 29 30  1  0
 30 31  1  0
 30 32  1  0
 30 33  1  0
 33 34  1  0
 33 35  1  0
 18 36  1  0
 36 37  1  0
 36 38  2  0
  6 39  1  0
 39 40  1  0
 39 41  2  0
 41 42  1  0
 42 43  2  0
 42 44  1  0
 44 45  1  0
 45 46  1  0
 45 47  1  0
 45 48  1  0
 48 49  1  0
 48 50  1  0
 48 51  1  0
 51 52  1  0
 51 53  1  0
 51 54  1  0
 54 55  1  0
 54 56  1  0
 54 57  1  0
 57 58  1  0
 57 59  1  0
 41  4  1  0
 57 44  1  0
 38  9  1  0
 38 13  1  0
 33 22  1  0
M  CHG  4   5  -1  11  -1  12  -1  40  -1
M  END
>  <UniqueID>  (88) 
82

>  <SMILES>  (88) 
C=c1[n-]/c(=C/c2c([O-])[n-]c3ccc(S(=O)(=O)N4CCOCC4)cc23)c([O-])c1C(=O)N1CCCCC1

>  <Energy>  (88) 
147.4055295263498

>  <Genealogy>  (88) 
C=c1[n-]c(=Cc2c([O-])[n-]c3ccc(S(=O)(=O)N4CCOCC4)cc23)c([O-])c1C(=O)N1CCCCC1 (protonated)
C=c1[n-]/c(=C/c2c([O-])[n-]c3ccc(S(=O)(=O)N4CCOCC4)cc23)c([O-])c1C(=O)N1CCCCC1 (cis-trans isomerization)
C=c1[n-]/c(=C/c2c([O-])[n-]c3ccc(S(=O)(=O)N4CCOCC4)cc23)c([O-])c1C(=O)N1CCCCC1 (3D coordinates assigned)
C=c1[n-]/c(=C/c2c([O-])[n-]c3ccc(S(=O)(=O)N4CCOCC4)cc23)c([O-])c1C(=O)N1CCCCC1 (nonaromatic ring conformer: 147.4055295263498 kcal/mol)

>  <smiles>  (88) 
C=c1[nH]c(=Cc2c(O)[nH]c3ccc(S(=O)(=O)N4CCOCC4)cc23)c(O)c1C(=O)N1CCCCC1

>  <score_type>  (88) 
oracle

>  <origin>  (88) 
adg

>  <m_score__min__energy>  (88) 
-17.989999999999998

>  <m_primary>  (88) 
energy

$$$$
88:0
     RDKit          3D

 41 43  0  0  0  0  0  0  0  0999 V2000
   57.0431   27.2822   46.5083 H   0  0  0  0  0  0  0  0  0  0  0  0
   57.0500   28.1490   45.8310 C   0  0  0  0  0  0  0  0  0  0  0  0
   55.8950   28.5550   45.2370 N   0  0  0  0  0  0  0  0  0  0  0  0
   55.8630   29.6170   44.3890 C   0  0  0  0  0  0  0  0  0  0  0  0
   54.7740   29.9620   43.8590 O   0  0  0  0  0  0  0  0  0  0  0  0
   57.0350   30.3240   44.1070 C   0  0  0  0  0  0  0  0  0  0  0  0
   57.0143   31.1843   43.4218 H   0  0  0  0  0  0  0  0  0  0  0  0
   58.2330   29.9260   44.7050 C   0  0  0  0  0  0  0  0  0  0  0  0
   59.1635   30.4708   44.4874 H   0  0  0  0  0  0  0  0  0  0  0  0
   58.2500   28.8330   45.5820 C   0  0  0  0  0  0  0  0  0  0  0  0
   59.5320   28.3700   46.2160 C   0  0  0  0  0  0  0  0  0  0  0  0
   60.1099   27.7873   45.4836 H   0  0  0  0  0  0  0  0  0  0  0  0
   59.2953   27.7453   47.0899 H   0  0  0  0  0  0  0  0  0  0  0  0
   60.3210   29.5160   46.6500 N   0  0  0  0  0  0  0  0  0  0  0  0
   60.4400   29.9250   48.0170 C   0  0  0  0  0  0  0  0  0  0  0  0
   60.6480   29.0700   48.9200 O   0  0  0  0  0  0  0  0  0  0  0  0
   60.3560   31.3760   48.3890 C   0  0  0  0  0  0  0  0  0  0  0  0
   59.4731   31.8186   47.9048 H   0  0  0  0  0  0  0  0  0  0  0  0
   60.2792   31.4477   49.4840 H   0  0  0  0  0  0  0  0  0  0  0  0
   61.5530   32.1110   47.9620 N   0  0  0  0  0  0  0  0  0  0  0  0
   62.6200   31.4340   47.4170 C   0  0  0  0  0  0  0  0  0  0  0  0
   62.5778   30.3513   47.2274 H   0  0  0  0  0  0  0  0  0  0  0  0
   63.7270   32.1630   47.1240 N   0  0  0  0  0  0  0  0  0  0  0  0
   64.6170   31.8040   46.7140 H   0  0  0  0  0  0  0  0  0  0  0  0
   63.3910   33.7220   47.5700 S   0  0  0  0  0  0  0  0  0  0  0  0
   61.8460   33.4420   48.1170 C   0  0  0  0  0  0  0  0  0  0  0  0
   61.1030   34.3920   48.6200 N   0  0  0  0  0  0  0  0  0  0  0  0
   59.6540   34.5860   48.6400 C   0  0  0  0  0  0  0  0  0  0  0  0
   59.2117   33.8890   49.3670 H   0  0  0  0  0  0  0  0  0  0  0  0
   59.4533   35.6306   48.9201 H   0  0  0  0  0  0  0  0  0  0  0  0
   59.0350   34.3370   47.2860 C   0  0  0  0  0  0  0  0  0  0  0  0
   59.6160   34.9040   46.1390 C   0  0  0  0  0  0  0  0  0  0  0  0
   60.4962   35.5563   46.2376 H   0  0  0  0  0  0  0  0  0  0  0  0
   59.0820   34.6440   44.8730 C   0  0  0  0  0  0  0  0  0  0  0  0
   59.5333   35.1045   43.9818 H   0  0  0  0  0  0  0  0  0  0  0  0
   57.9770   33.8010   44.7380 C   0  0  0  0  0  0  0  0  0  0  0  0
   57.5531   33.6045   43.7422 H   0  0  0  0  0  0  0  0  0  0  0  0
   57.4100   33.2070   45.8690 C   0  0  0  0  0  0  0  0  0  0  0  0
   56.5447   32.5364   45.7618 H   0  0  0  0  0  0  0  0  0  0  0  0
   57.9410   33.4640   47.1360 C   0  0  0  0  0  0  0  0  0  0  0  0
   57.5014   32.9812   48.0213 H   0  0  0  0  0  0  0  0  0  0  0  0
  1  2  1  0
  2  3  1  0
  3  4  1  0
  4  5  2  0
  4  6  1  0
  6  7  1  0
  6  8  2  0
  8  9  1  0
  8 10  1  0
 10 11  1  0
 11 12  1  0
 11 13  1  0
 11 14  1  0
 14 15  1  0
 15 16  2  0
 15 17  1  0
 17 18  1  0
 17 19  1  0
 17 20  1  0
 20 21  1  0
 21 22  1  0
 21 23  2  0
 23 24  1  0
 23 25  1  0
 25 26  1  0
 26 27  2  0
 27 28  1  0
 28 29  1  0
 28 30  1  0
 28 31  1  0
 31 32  2  0
 32 33  1  0
 32 34  1  0
 34 35  1  0
 34 36  2  0
 36 37  1  0
 36 38  1  0
 38 39  1  0
 38 40  2  0
 40 41  1  0
 10  2  2  0
 26 20  1  0
 40 31  1  0
M  CHG  3   3  -1  14  -1  23   1
M  END
>  <UniqueID>  (89) 
83

>  <SMILES>  (89) 
O=C(Cn1c[nH+]s/c1=N/Cc1ccccc1)[N-]Cc1ccc(=O)[n-]c1

>  <Energy>  (89) 
88.23338501539703

>  <Genealogy>  (89) 
O=C(Cn1c[nH+]sc1=NCc1ccccc1)[N-]Cc1ccc(=O)[n-]c1 (protonated)
O=C(Cn1c[nH+]s/c1=N/Cc1ccccc1)[N-]Cc1ccc(=O)[n-]c1 (cis-trans isomerization)
O=C(Cn1c[nH+]s/c1=N/Cc1ccccc1)[N-]Cc1ccc(=O)[n-]c1 (3D coordinates assigned)
O=C(Cn1c[nH+]s/c1=N/Cc1ccccc1)[N-]Cc1ccc(=O)[n-]c1 (optimized conformer: 88.23338501539703 kcal/mol)

>  <smiles>  (89) 
O=C(Cn1cnsc1=NCc1ccccc1)NCc1ccc(=O)[nH]c1

>  <score_type>  (89) 
oracle

>  <origin>  (89) 
adg

>  <m_score__min__energy>  (89) 
-10.470000000000001

>  <m_primary>  (89) 
energy

$$$$
89:0
     RDKit          3D

 52 54  0  0  0  0  0  0  0  0999 V2000
   55.9530   25.4920   45.9710 C   0  0  0  0  0  0  0  0  0  0  0  0
   56.8060   26.5330   46.6930 C   0  0  0  0  0  0  0  0  0  0  0  0
   57.0250   27.7460   45.8190 C   0  0  0  0  0  0  0  0  0  0  0  0
   55.8950   28.2510   45.2510 N   0  0  0  0  0  0  0  0  0  0  0  0
   55.8770   29.3570   44.4740 C   0  0  0  0  0  0  0  0  0  0  0  0
   54.7890   29.7370   43.9660 O   0  0  0  0  0  0  0  0  0  0  0  0
   57.0620   30.0560   44.2400 C   0  0  0  0  0  0  0  0  0  0  0  0
   57.0980   31.2610   43.3830 C   0  0  0  0  0  0  0  0  0  0  0  0
   57.5330   32.4690   43.7730 C   0  0  0  0  0  0  0  0  0  0  0  0
   58.0880   32.7940   45.1050 C   0  0  0  0  0  0  0  0  0  0  0  0
   57.5280   32.3800   46.1560 O   0  0  0  0  0  0  0  0  0  0  0  0
   59.2840   33.5860   45.1900 N   0  0  0  0  0  0  0  0  0  0  0  0
   60.0380   33.7800   46.3970 C   0  0  0  0  0  0  0  0  0  0  0  0
   59.4750   34.3960   47.5290 C   0  0  0  0  0  0  0  0  0  0  0  0
   60.2050   34.5430   48.6660 N   0  0  0  0  0  0  0  0  0  0  0  0
   61.4880   34.1030   48.7580 C   0  0  0  0  0  0  0  0  0  0  0  0
   62.2080   34.2780   49.9450 C   0  0  0  0  0  0  0  0  0  0  0  0
   63.5250   33.8150   50.0380 C   0  0  0  0  0  0  0  0  0  0  0  0
   64.1240   33.1760   48.9480 C   0  0  0  0  0  0  0  0  0  0  0  0
   63.4120   32.9970   47.7580 C   0  0  0  0  0  0  0  0  0  0  0  0
   62.0910   33.4590   47.6560 C   0  0  0  0  0  0  0  0  0  0  0  0
   61.3510   33.2940   46.4790 C   0  0  0  0  0  0  0  0  0  0  0  0
   58.2530   29.5550   44.7680 C   0  0  0  0  0  0  0  0  0  0  0  0
   58.2900   28.3870   45.5770 C   0  0  0  0  0  0  0  0  0  0  0  0
   59.6520   27.8640   46.1380 C   0  0  0  0  0  0  0  0  0  0  0  0
   59.8010   26.3210   46.0190 C   0  0  0  0  0  0  0  0  0  0  0  0
   60.8210   28.4610   45.3190 C   0  0  0  0  0  0  0  0  0  0  0  0
   59.7950   28.2130   47.6520 C   0  0  0  0  0  0  0  0  0  0  0  0
   55.4375   24.8629   46.7116 H   0  0  0  0  0  0  0  0  0  0  0  0
   55.2089   26.0009   45.3407 H   0  0  0  0  0  0  0  0  0  0  0  0
   56.5983   24.8624   45.3407 H   0  0  0  0  0  0  0  0  0  0  0  0
   56.2939   26.8414   47.6164 H   0  0  0  0  0  0  0  0  0  0  0  0
   57.7834   26.0866   46.9284 H   0  0  0  0  0  0  0  0  0  0  0  0
   56.7411   31.1592   42.3475 H   0  0  0  0  0  0  0  0  0  0  0  0
   57.4717   33.2869   43.0400 H   0  0  0  0  0  0  0  0  0  0  0  0
   59.5670   34.1310   44.3430 H   0  0  0  0  0  0  0  0  0  0  0  0
   58.4379   34.7609   47.4940 H   0  0  0  0  0  0  0  0  0  0  0  0
   61.7389   34.7793   50.8044 H   0  0  0  0  0  0  0  0  0  0  0  0
   64.0907   33.9540   50.9711 H   0  0  0  0  0  0  0  0  0  0  0  0
   65.1593   32.8128   49.0270 H   0  0  0  0  0  0  0  0  0  0  0  0
   63.8870   32.4945   46.9025 H   0  0  0  0  0  0  0  0  0  0  0  0
   61.8009   32.7816   45.6158 H   0  0  0  0  0  0  0  0  0  0  0  0
   59.1941   30.0815   44.5508 H   0  0  0  0  0  0  0  0  0  0  0  0
   59.8438   25.8781   47.0250 H   0  0  0  0  0  0  0  0  0  0  0  0
   58.9383   25.9103   45.4739 H   0  0  0  0  0  0  0  0  0  0  0  0
   60.7263   26.0829   45.4739 H   0  0  0  0  0  0  0  0  0  0  0  0
   61.5870   28.8522   46.0048 H   0  0  0  0  0  0  0  0  0  0  0  0
   61.2621   27.6778   44.6850 H   0  0  0  0  0  0  0  0  0  0  0  0
   60.4451   29.2775   44.6850 H   0  0  0  0  0  0  0  0  0  0  0  0
   59.4471   27.3638   48.2585 H   0  0  0  0  0  0  0  0  0  0  0  0
   60.8505   28.4201   47.8824 H   0  0  0  0  0  0  0  0  0  0  0  0
   59.1883   29.1011   47.8824 H   0  0  0  0  0  0  0  0  0  0  0  0
  1  2  1  0
  2  3  1  0
  3  4  1  0
  4  5  1  0
  5  6  2  0
  5  7  1  0
  7  8  1  0
  8  9  2  3
  9 10  1  0
 10 11  2  0
 10 12  1  0
 12 13  1  0
 13 14  2  0
 14 15  1  0
 15 16  2  0
 16 17  1  0
 17 18  2  0
 18 19  1  0
 19 20  2  0
 20 21  1  0
 21 22  2  0
  7 23  2  0
 23 24  1  0
 24 25  1  0
 25 26  1  0
 25 27  1  0
 25 28  1  0
 24  3  2  0
 22 13  1  0
 21 16  1  0
  1 29  1  0
  1 30  1  0
  1 31  1  0
  2 32  1  0
  2 33  1  0
  8 34  1  0
  9 35  1  0
 12 36  1  0
 14 37  1  0
 17 38  1  0
 18 39  1  0
 19 40  1  0
 20 41  1  0
 22 42  1  0
 23 43  1  0
 26 44  1  0
 26 45  1  0
 26 46  1  0
 27 47  1  0
 27 48  1  0
 27 49  1  0
 28 50  1  0
 28 51  1  0
 28 52  1  0
M  CHG  1   4  -1
M  END
>  <UniqueID>  (90) 
84

>  <SMILES>  (90) 
CCc1[n-]c(=O)c(C=CC(=O)Nc2cnc3ccccc3c2)cc1C(C)(C)C

>  <Energy>  (90) 
82.00091494204038

>  <Genealogy>  (90) 
CCc1[n-]c(=O)c(C=CC(=O)Nc2cnc3ccccc3c2)cc1C(C)(C)C (protonated)
CCc1[n-]c(=O)c(C=CC(=O)Nc2cnc3ccccc3c2)cc1C(C)(C)C (3D coordinates assigned)
CCc1[n-]c(=O)c(C=CC(=O)Nc2cnc3ccccc3c2)cc1C(C)(C)C (optimized conformer: 82.00091494204038 kcal/mol)

>  <smiles>  (90) 
CCc1[nH]c(=O)c(C=CC(=O)Nc2cnc3ccccc3c2)cc1C(C)(C)C

>  <score_type>  (90) 
oracle

>  <origin>  (90) 
adg

>  <m_score__min__energy>  (90) 
-11.6

>  <m_primary>  (90) 
energy

$$$$
90:0
     RDKit          3D

 31 33  0  0  0  0  0  0  0  0999 V2000
   55.1360   29.3570   44.9450 O   0  0  0  0  0  0  0  0  0  0  0  0
   56.3910   29.4450   44.8930 C   0  0  0  0  0  0  0  0  0  0  0  0
   56.9750   30.6290   44.3320 N   0  0  0  0  0  0  0  0  0  0  0  0
   57.5950   31.6990   45.0610 C   0  0  0  0  0  0  0  0  0  0  0  0
   56.8740   32.8780   45.2710 C   0  0  0  0  0  0  0  0  0  0  0  0
   57.4460   33.9370   45.9780 C   0  0  0  0  0  0  0  0  0  0  0  0
   58.7400   33.8250   46.4880 C   0  0  0  0  0  0  0  0  0  0  0  0
   59.4810   32.6390   46.3070 C   0  0  0  0  0  0  0  0  0  0  0  0
   60.8590   32.4900   46.8460 C   0  0  0  0  0  0  0  0  0  0  0  0
   61.3740   31.3070   47.3930 C   0  0  0  0  0  0  0  0  0  0  0  0
   62.9560   31.5930   47.8920 S   0  0  0  0  0  0  0  0  0  0  0  0
   62.9190   33.1920   47.3960 C   0  0  0  0  0  0  0  0  0  0  0  0
   63.8800   33.9960   47.5110 O   0  0  0  0  0  0  0  0  0  0  0  0
   61.7330   33.5360   46.8570 N   0  0  0  0  0  0  0  0  0  0  0  0
   58.8860   31.5730   45.6050 C   0  0  0  0  0  0  0  0  0  0  0  0
   57.2140   28.3150   45.3820 C   0  0  0  0  0  0  0  0  0  0  0  0
   58.6170   28.4160   45.3450 C   0  0  0  0  0  0  0  0  0  0  0  0
   59.4160   27.3530   45.7720 C   0  0  0  0  0  0  0  0  0  0  0  0
   58.8250   26.1820   46.2500 C   0  0  0  0  0  0  0  0  0  0  0  0
   57.4340   26.0760   46.3130 C   0  0  0  0  0  0  0  0  0  0  0  0
   56.6250   27.1380   45.8910 C   0  0  0  0  0  0  0  0  0  0  0  0
   55.2440   27.0220   46.0040 O   0  0  0  0  0  0  0  0  0  0  0  0
   55.8512   32.9717   44.8773 H   0  0  0  0  0  0  0  0  0  0  0  0
   56.8742   34.8637   46.1338 H   0  0  0  0  0  0  0  0  0  0  0  0
   59.1856   34.6686   47.0356 H   0  0  0  0  0  0  0  0  0  0  0  0
   60.8351   30.3521   47.4814 H   0  0  0  0  0  0  0  0  0  0  0  0
   59.4379   30.6297   45.4805 H   0  0  0  0  0  0  0  0  0  0  0  0
   59.0882   29.3393   44.9769 H   0  0  0  0  0  0  0  0  0  0  0  0
   60.5119   27.4385   45.7316 H   0  0  0  0  0  0  0  0  0  0  0  0
   59.4555   25.3422   46.5773 H   0  0  0  0  0  0  0  0  0  0  0  0
   56.9718   25.1541   46.6958 H   0  0  0  0  0  0  0  0  0  0  0  0
  1  2  2  0
  2  3  1  0
  3  4  1  0
  4  5  2  0
  5  6  1  0
  6  7  2  0
  7  8  1  0
  8  9  1  0
  9 10  2  0
 10 11  1  0
 11 12  1  0
 12 13  2  0
 12 14  1  0
  8 15  2  0
  2 16  1  0
 16 17  2  0
 17 18  1  0
 18 19  2  0
 19 20  1  0
 20 21  2  0
 21 22  1  0
 15  4  1  0
 21 16  1  0
 14  9  1  0
  5 23  1  0
  6 24  1  0
  7 25  1  0
 10 26  1  0
 15 27  1  0
 17 28  1  0
 18 29  1  0
 19 30  1  0
 20 31  1  0
M  CHG  3   3  -1  14  -1  22  -1
M  END
>  <UniqueID>  (91) 
85

>  <SMILES>  (91) 
O=C([N-]c1cccc(-c2csc(=O)[n-]2)c1)c1ccccc1[O-]

>  <Energy>  (91) 
74.9191015905927

>  <Genealogy>  (91) 
O=C([N-]c1cccc(-c2csc(=O)[n-]2)c1)c1ccccc1[O-] (protonated)
O=C([N-]c1cccc(-c2csc(=O)[n-]2)c1)c1ccccc1[O-] (3D coordinates assigned)
O=C([N-]c1cccc(-c2csc(=O)[n-]2)c1)c1ccccc1[O-] (optimized conformer: 74.9191015905927 kcal/mol)

>  <smiles>  (91) 
O=C(Nc1cccc(-c2csc(=O)[nH]2)c1)c1ccccc1O

>  <score_type>  (91) 
oracle

>  <origin>  (91) 
adg

>  <m_score__min__energy>  (91) 
-14.43

>  <m_primary>  (91) 
energy

$$$$
91:0
     RDKit          3D

 64 66  0  0  1  0  0  0  0  0999 V2000
   61.0510   31.2400   51.8790 C   0  0  0  0  0  0  0  0  0  0  0  0
   61.8930   31.9480   50.9020 C   0  0  0  0  0  0  0  0  0  0  0  0
   63.1860   31.4500   50.7130 C   0  0  0  0  0  0  0  0  0  0  0  0
   64.0380   32.0580   49.8140 C   0  0  0  0  0  0  0  0  0  0  0  0
   63.5920   33.1450   49.1220 C   0  0  0  0  0  0  0  0  0  0  0  0
   62.3220   33.6250   49.3130 C   0  0  0  0  0  0  0  0  0  0  0  0
   61.4240   33.0440   50.2120 C   0  0  0  0  0  0  0  0  0  0  0  0
   59.8170   33.6550   50.4500 S   0  0  0  0  0  0  0  0  0  0  0  0
   59.6580   34.3430   51.7720 O   0  0  0  0  0  0  0  0  0  0  0  0
   58.8840   32.4580   50.5080 O   0  0  0  0  0  0  0  0  0  0  0  0
   59.2720   34.6520   49.1510 N   0  0  0  0  0  0  0  0  0  0  0  0
   59.1490   34.1700   47.8230 C   0  0  0  0  0  0  0  0  0  0  0  0
   60.1010   34.3630   46.8460 C   0  0  0  0  0  0  0  0  0  0  0  0
   59.9430   33.8720   45.5530 C   0  0  0  0  0  0  0  0  0  0  0  0
   58.7900   33.1740   45.2610 C   0  0  0  0  0  0  0  0  0  0  0  0
   58.5170   32.6240   43.9740 N   0  0  0  0  0  0  0  0  0  0  0  0
   57.9910   31.4570   43.8190 C   0  0  0  0  0  0  0  0  0  0  0  0
   57.0350   31.1750   42.8620 C   0  0  0  0  0  0  0  0  0  0  0  0
   56.5580   29.8760   42.8090 C   0  0  0  0  0  0  0  0  0  0  0  0
   56.9840   28.9040   43.6360 N   0  0  0  0  0  0  0  0  0  0  0  0
   57.9160   29.2460   44.5440 C   0  0  0  0  0  0  0  0  0  0  0  0
   58.3400   28.3480   45.3430 N   0  0  0  0  0  0  0  0  0  0  0  0
   57.7660   27.0370   45.5330 C   0  0  0  0  0  0  0  0  0  0  0  0
   58.7710   25.9660   45.8600 C   0  0  0  0  0  0  0  0  0  0  0  0
   60.1860   26.4960   46.0040 C   0  0  0  0  0  0  0  0  0  0  0  0
   60.2250   27.1210   47.3760 C   0  0  0  0  0  0  0  0  0  0  0  0
   60.6690   26.3930   48.2920 O   0  0  0  0  0  0  0  0  0  0  0  0
   59.7790   28.4480   47.5750 N   0  0  0  0  0  0  0  0  0  0  0  0
   59.7660   29.1560   48.8140 C   0  0  0  0  0  0  0  0  0  0  0  0
   59.7360   30.6400   48.7410 C   0  0  0  0  0  0  0  0  0  0  0  0
   59.8470   31.1270   47.4260 O   0  0  0  0  0  0  0  0  0  0  0  0
   61.0090   31.0090   46.7210 N   0  0  0  0  0  0  0  0  0  0  0  0
   61.1030   30.0430   45.9090 O   0  0  0  0  0  0  0  0  0  0  0  0
   62.0760   31.8640   46.8360 O   0  0  0  0  0  0  0  0  0  0  0  0
   58.4210   30.4880   44.6490 N   0  0  0  0  0  0  0  0  0  0  0  0
   57.8130   32.9690   46.2380 C   0  0  0  0  0  0  0  0  0  0  0  0
   57.9970   33.4690   47.5180 C   0  0  0  0  0  0  0  0  0  0  0  0
   61.3683   31.5068   52.8979 H   0  0  0  0  0  0  0  0  0  0  0  0
   59.9996   31.5294   51.7348 H   0  0  0  0  0  0  0  0  0  0  0  0
   61.1556   30.1545   51.7348 H   0  0  0  0  0  0  0  0  0  0  0  0
   63.5245   30.5717   51.2822 H   0  0  0  0  0  0  0  0  0  0  0  0
   65.0568   31.6735   49.6586 H   0  0  0  0  0  0  0  0  0  0  0  0
   64.2588   33.6425   48.4023 H   0  0  0  0  0  0  0  0  0  0  0  0
   61.9970   34.5028   48.7352 H   0  0  0  0  0  0  0  0  0  0  0  0
   59.0180   35.6560   49.3240 H   0  0  0  0  0  0  0  0  0  0  0  0
   61.0146   34.9226   47.0955 H   0  0  0  0  0  0  0  0  0  0  0  0
   60.7150   34.0359   44.7868 H   0  0  0  0  0  0  0  0  0  0  0  0
   56.6685   31.9492   42.1718 H   0  0  0  0  0  0  0  0  0  0  0  0
   55.7956   29.6274   42.0560 H   0  0  0  0  0  0  0  0  0  0  0  0
   56.6240   27.9320   43.5940 H   0  0  0  0  0  0  0  0  0  0  0  0
   57.0413   27.0939   46.3586 H   0  0  0  0  0  0  0  0  0  0  0  0
   57.3011   26.7535   44.5772 H   0  0  0  0  0  0  0  0  0  0  0  0
   58.4782   25.4897   46.8073 H   0  0  0  0  0  0  0  0  0  0  0  0
   58.7731   25.2536   45.0219 H   0  0  0  0  0  0  0  0  0  0  0  0
   60.9162   25.6766   45.9305 H   0  0  0  0  0  0  0  0  0  0  0  0
   60.4427   27.2153   45.2124 H   0  0  0  0  0  0  0  0  0  0  0  0
   59.4240   28.9400   46.6970 H   0  0  0  0  0  0  0  0  0  0  0  0
   58.8748   28.8328   49.3719 H   0  0  0  0  0  0  0  0  0  0  0  0
   60.7256   28.9122   49.2932 H   0  0  0  0  0  0  0  0  0  0  0  0
   58.7851   30.9929   49.1666 H   0  0  0  0  0  0  0  0  0  0  0  0
   60.6023   31.0152   49.3056 H   0  0  0  0  0  0  0  0  0  0  0  0
   59.1490   30.6780   45.3850 H   0  0  0  0  0  0  0  0  0  0  0  0
   56.8976   32.4109   45.9919 H   0  0  0  0  0  0  0  0  0  0  0  0
   57.2287   33.3084   48.2886 H   0  0  0  0  0  0  0  0  0  0  0  0
  1  2  1  0
  2  3  2  0
  3  4  1  0
  4  5  2  0
  5  6  1  0
  6  7  2  0
  7  8  1  0
  8  9  2  0
  8 10  2  0
  8 11  1  0
 11 12  1  0
 12 13  2  0
 13 14  1  0
 14 15  2  0
 15 16  1  0
 16 17  2  0
 17 18  1  0
 18 19  2  0
 19 20  1  0
 20 21  1  0
 21 22  2  0
 22 23  1  0
 23 24  1  0
 24 25  1  0
 25 26  1  0
 26 27  2  0
 26 28  1  0
 28 29  1  0
 29 30  1  0
 30 31  1  0
 31 32  1  0
 32 33  2  0
 32 34  1  0
 21 35  1  0
 15 36  1  0
 36 37  2  0
  7  2  1  0
 37 12  1  0
 35 17  1  0
  1 38  1  0
  1 39  1  0
  1 40  1  0
  3 41  1  0
  4 42  1  0
  5 43  1  0
  6 44  1  0
 11 45  1  0
 13 46  1  0
 14 47  1  0
 18 48  1  0
 19 49  1  0
 20 50  1  0
 23 51  1  0
 23 52  1  0
 24 53  1  0
 24 54  1  0
 25 55  1  0
 25 56  1  0
 28 57  1  0
 29 58  1  0
 29 59  1  0
 30 60  1  0
 30 61  1  0
 35 62  1  0
 36 63  1  0
 37 64  1  0
M  CHG  2  32   1  34  -1
M  END
>  <smiles>  (92) 
Cc1ccccc1S(=O)(=O)Nc1ccc(N=c2cc[nH]c(=NCCCC(=O)NCCO[N+](=O)[O-])[nH]2)cc1

>  <score_type>  (92) 
oracle

>  <origin>  (92) 
adg

>  <m_score__min__energy>  (92) 
-9.4399999999999995

>  <m_primary>  (92) 
energy

$$$$
92:0
     RDKit          3D

 47 49  0  0  0  0  0  0  0  0999 V2000
   61.2190   30.8310   46.8219 H   0  0  0  0  0  0  0  0  0  0  0  0
   60.3330   31.4760   46.7270 C   0  0  0  0  0  0  0  0  0  0  0  0
   59.3260   31.1220   45.8860 N   0  0  0  0  0  0  0  0  0  0  0  0
   58.2130   31.8900   45.7230 C   0  0  0  0  0  0  0  0  0  0  0  0
   57.2510   31.5270   44.9240 N   0  0  0  0  0  0  0  0  0  0  0  0
   56.8770   30.1810   44.5900 C   0  0  0  0  0  0  0  0  0  0  0  0
   55.6810   29.8250   44.7680 O   0  0  0  0  0  0  0  0  0  0  0  0
   57.8090   29.2800   43.9700 N   0  0  0  0  0  0  0  0  0  0  0  0
   58.5610   29.6920   43.3730 H   0  0  0  0  0  0  0  0  0  0  0  0
   57.6750   27.8480   43.9980 C   0  0  0  0  0  0  0  0  0  0  0  0
   57.8660   27.1150   42.8160 C   0  0  0  0  0  0  0  0  0  0  0  0
   58.0982   27.6411   41.8783 H   0  0  0  0  0  0  0  0  0  0  0  0
   57.7630   25.7210   42.8230 C   0  0  0  0  0  0  0  0  0  0  0  0
   57.9042   25.1550   41.8904 H   0  0  0  0  0  0  0  0  0  0  0  0
   57.4810   25.0460   44.0130 C   0  0  0  0  0  0  0  0  0  0  0  0
   57.3943   23.9494   44.0154 H   0  0  0  0  0  0  0  0  0  0  0  0
   57.3090   25.7620   45.2000 C   0  0  0  0  0  0  0  0  0  0  0  0
   56.9480   24.8360   46.8310 Br  0  0  0  0  0  0  0  0  0  0  0  0
   57.4120   27.1580   45.1960 C   0  0  0  0  0  0  0  0  0  0  0  0
   57.2867   27.7186   46.1341 H   0  0  0  0  0  0  0  0  0  0  0  0
   58.0830   33.0730   46.4550 C   0  0  0  0  0  0  0  0  0  0  0  0
   57.1835   33.6964   46.3438 H   0  0  0  0  0  0  0  0  0  0  0  0
   59.1010   33.4590   47.3280 C   0  0  0  0  0  0  0  0  0  0  0  0
   59.0047   34.3918   47.9029 H   0  0  0  0  0  0  0  0  0  0  0  0
   60.2480   32.6620   47.4760 C   0  0  0  0  0  0  0  0  0  0  0  0
   61.3400   33.0600   48.4010 C   0  0  0  0  0  0  0  0  0  0  0  0
   62.6630   33.1740   47.9380 C   0  0  0  0  0  0  0  0  0  0  0  0
   62.8906   32.9678   46.8818 H   0  0  0  0  0  0  0  0  0  0  0  0
   63.6910   33.5470   48.8080 C   0  0  0  0  0  0  0  0  0  0  0  0
   64.7220   33.6301   48.4336 H   0  0  0  0  0  0  0  0  0  0  0  0
   63.4140   33.8160   50.1570 C   0  0  0  0  0  0  0  0  0  0  0  0
   64.5200   34.1990   51.1060 C   0  0  0  0  0  0  0  0  0  0  0  0
   64.0805   34.5291   52.0588 H   0  0  0  0  0  0  0  0  0  0  0  0
   65.1076   35.0125   50.6555 H   0  0  0  0  0  0  0  0  0  0  0  0
   65.4130   33.0490   51.3560 N   0  0  0  0  0  0  0  0  0  0  0  0
   64.6650   31.7810   51.2920 C   0  0  0  0  0  0  0  0  0  0  0  0
   64.4560   31.4267   52.3122 H   0  0  0  0  0  0  0  0  0  0  0  0
   63.7167   31.9412   50.7580 H   0  0  0  0  0  0  0  0  0  0  0  0
   65.2639   31.0285   50.7580 H   0  0  0  0  0  0  0  0  0  0  0  0
   66.4980   33.0300   50.3620 C   0  0  0  0  0  0  0  0  0  0  0  0
   67.4687   33.0130   50.8791 H   0  0  0  0  0  0  0  0  0  0  0  0
   66.4024   32.1334   49.7320 H   0  0  0  0  0  0  0  0  0  0  0  0
   66.4339   33.9294   49.7320 H   0  0  0  0  0  0  0  0  0  0  0  0
   62.0970   33.7000   50.6250 C   0  0  0  0  0  0  0  0  0  0  0  0
   61.8721   33.9037   51.6823 H   0  0  0  0  0  0  0  0  0  0  0  0
   61.0690   33.3270   49.7550 C   0  0  0  0  0  0  0  0  0  0  0  0
   60.0393   33.2415   50.1323 H   0  0  0  0  0  0  0  0  0  0  0  0
  1  2  1  0
  2  3  1  0
  3  4  1  0
  4  5  2  0
  5  6  1  0
  6  7  2  0
  6  8  1  0
  8  9  1  0
  8 10  1  0
 10 11  2  0
 11 12  1  0
 11 13  1  0
 13 14  1  0
 13 15  2  0
 15 16  1  0
 15 17  1  0
 17 18  1  0
 17 19  2  0
 19 20  1  0
  4 21  1  0
 21 22  1  0
 21 23  2  0
 23 24  1  0
 23 25  1  0
 25 26  1  0
 26 27  2  0
 27 28  1  0
 27 29  1  0
 29 30  1  0
 29 31  2  0
 31 32  1  0
 32 33  1  0
 32 34  1  0
 32 35  1  0
 35 36  1  0
 36 37  1  0
 36 38  1  0
 36 39  1  0
 35 40  1  0
 40 41  1  0
 40 42  1  0
 40 43  1  0
 31 44  1  0
 44 45  1  0
 44 46  2  0
 46 47  1  0
 25  2  2  0
 46 26  1  0
 19 10  1  0
M  CHG  1   3  -1
M  END
>  <UniqueID>  (93) 
86

>  <SMILES>  (93) 
CN(C)Cc1ccc(-c2cc/c(=N/C(=O)Nc3cccc(Br)c3)[n-]c2)cc1

>  <Energy>  (93) 
62.11337392767872

>  <Genealogy>  (93) 
CN(C)Cc1ccc(-c2ccc(=NC(=O)Nc3cccc(Br)c3)[n-]c2)cc1 (protonated)
CN(C)Cc1ccc(-c2cc/c(=N/C(=O)Nc3cccc(Br)c3)[n-]c2)cc1 (cis-trans isomerization)
CN(C)Cc1ccc(-c2cc/c(=N/C(=O)Nc3cccc(Br)c3)[n-]c2)cc1 (3D coordinates assigned)
CN(C)Cc1ccc(-c2cc/c(=N/C(=O)Nc3cccc(Br)c3)[n-]c2)cc1 (optimized conformer: 62.11337392767872 kcal/mol)

>  <smiles>  (93) 
CN(C)Cc1ccc(-c2ccc(=NC(=O)Nc3cccc(Br)c3)[nH]c2)cc1

>  <score_type>  (93) 
oracle

>  <origin>  (93) 
adg

>  <m_score__min__energy>  (93) 
-9.5399999999999991

>  <m_primary>  (93) 
energy

$$$$
