0:0
     RDKit          3D

 62 65  0  0  0  0  0  0  0  0999 V2000
   54.8540   30.8890   52.0130 C   0  0  0  0  0  0  0  0  0  0  0  0
   56.1800   30.1970   52.1100 C   0  0  0  0  0  0  0  0  0  0  0  0
   56.1970   28.9700   52.4050 O   0  0  0  0  0  0  0  0  0  0  0  0
   57.4230   30.8900   51.8590 N   0  0  0  0  0  0  0  0  0  0  0  0
   57.4350   32.2390   51.2710 C   0  0  0  0  0  0  0  0  0  0  0  0
   58.6690   32.4310   50.3850 C   0  0  0  0  0  0  0  0  0  0  0  0
   59.9070   32.0510   51.0860 N   0  0  0  0  0  0  0  0  0  0  0  0
   61.1590   32.6530   50.7040 C   0  0  0  0  0  0  0  0  0  0  0  0
   62.0190   32.9170   51.5890 O   0  0  0  0  0  0  0  0  0  0  0  0
   61.4540   32.9940   49.2960 C   0  0  0  0  0  0  0  0  0  0  0  0
   62.5420   32.4080   48.6290 C   0  0  0  0  0  0  0  0  0  0  0  0
   62.7950   32.7140   47.2890 C   0  0  0  0  0  0  0  0  0  0  0  0
   61.9670   33.6060   46.6040 C   0  0  0  0  0  0  0  0  0  0  0  0
   60.8910   34.2080   47.2640 C   0  0  0  0  0  0  0  0  0  0  0  0
   59.8090   35.3250   46.3730 S   0  0  0  0  0  0  0  0  0  0  0  0
   58.8110   33.9800   45.7330 C   0  0  0  0  0  0  0  0  0  0  0  0
   58.5950   33.8540   44.3580 C   0  0  0  0  0  0  0  0  0  0  0  0
   57.7980   32.8150   43.8700 C   0  0  0  0  0  0  0  0  0  0  0  0
   57.2110   31.9160   44.7680 C   0  0  0  0  0  0  0  0  0  0  0  0
   56.4710   30.9500   44.3060 N   0  0  0  0  0  0  0  0  0  0  0  0
   56.4130   29.5950   44.7810 C   0  0  0  0  0  0  0  0  0  0  0  0
   55.2860   29.0370   44.8630 O   0  0  0  0  0  0  0  0  0  0  0  0
   57.6510   28.8400   45.2000 C   0  0  0  0  0  0  0  0  0  0  0  0
   57.3900   27.9060   46.3880 C   0  0  0  0  0  0  0  0  0  0  0  0
   57.1980   26.4880   45.9120 C   0  0  0  0  0  0  0  0  0  0  0  0
   58.3210   25.6790   45.6620 C   0  0  0  0  0  0  0  0  0  0  0  0
   58.1600   24.3520   45.2540 C   0  0  0  0  0  0  0  0  0  0  0  0
   56.8790   23.8160   45.1060 C   0  0  0  0  0  0  0  0  0  0  0  0
   55.7550   24.6050   45.3670 C   0  0  0  0  0  0  0  0  0  0  0  0
   55.9080   25.9360   45.7750 C   0  0  0  0  0  0  0  0  0  0  0  0
   54.7760   26.7000   46.0450 O   0  0  0  0  0  0  0  0  0  0  0  0
   57.4500   32.0530   46.1030 N   0  0  0  0  0  0  0  0  0  0  0  0
   58.2290   33.0510   46.6000 C   0  0  0  0  0  0  0  0  0  0  0  0
   60.6450   33.9180   48.6120 C   0  0  0  0  0  0  0  0  0  0  0  0
   59.8390   31.2640   52.3230 C   0  0  0  0  0  0  0  0  0  0  0  0
   58.6860   30.2550   52.2670 C   0  0  0  0  0  0  0  0  0  0  0  0
   54.4701   31.0893   53.0242 H   0  0  0  0  0  0  0  0  0  0  0  0
   54.9749   31.8390   51.4718 H   0  0  0  0  0  0  0  0  0  0  0  0
   54.1438   30.2465   51.4718 H   0  0  0  0  0  0  0  0  0  0  0  0
   56.5287   32.3761   50.6629 H   0  0  0  0  0  0  0  0  0  0  0  0
   57.4641   32.9794   52.0840 H   0  0  0  0  0  0  0  0  0  0  0  0
   58.5627   31.8068   49.4855 H   0  0  0  0  0  0  0  0  0  0  0  0
   58.7383   33.4962   50.1196 H   0  0  0  0  0  0  0  0  0  0  0  0
   63.1979   31.7051   49.1635 H   0  0  0  0  0  0  0  0  0  0  0  0
   63.6487   32.2510   46.7724 H   0  0  0  0  0  0  0  0  0  0  0  0
   62.1611   33.8350   45.5457 H   0  0  0  0  0  0  0  0  0  0  0  0
   59.0518   34.5718   43.6608 H   0  0  0  0  0  0  0  0  0  0  0  0
   57.6332   32.7045   42.7881 H   0  0  0  0  0  0  0  0  0  0  0  0
   58.0038   28.2392   44.3488 H   0  0  0  0  0  0  0  0  0  0  0  0
   58.4052   29.5776   45.5117 H   0  0  0  0  0  0  0  0  0  0  0  0
   58.2488   27.9444   47.0743 H   0  0  0  0  0  0  0  0  0  0  0  0
   56.4765   28.2347   46.9053 H   0  0  0  0  0  0  0  0  0  0  0  0
   59.3322   26.0932   45.7884 H   0  0  0  0  0  0  0  0  0  0  0  0
   59.0432   23.7291   45.0493 H   0  0  0  0  0  0  0  0  0  0  0  0
   56.7543   22.7717   44.7837 H   0  0  0  0  0  0  0  0  0  0  0  0
   54.7473   24.1792   45.2516 H   0  0  0  0  0  0  0  0  0  0  0  0
   58.4009   33.1270   47.6838 H   0  0  0  0  0  0  0  0  0  0  0  0
   59.8160   34.4149   49.1372 H   0  0  0  0  0  0  0  0  0  0  0  0
   60.7863   30.7212   52.4570 H   0  0  0  0  0  0  0  0  0  0  0  0
   59.6659   31.9489   53.1662 H   0  0  0  0  0  0  0  0  0  0  0  0
   58.9381   29.4663   51.5429 H   0  0  0  0  0  0  0  0  0  0  0  0
   58.5483   29.8371   53.2752 H   0  0  0  0  0  0  0  0  0  0  0  0
  1  2  1  0
  2  3  2  0
  2  4  1  0
  4  5  1  0
  5  6  1  0
  6  7  1  0
  7  8  1  0
  8  9  2  0
  8 10  1  0
 10 11  2  0
 11 12  1  0
 12 13  2  0
 13 14  1  0
 14 15  1  0
 15 16  1  0
 16 17  1  0
 17 18  2  0
 18 19  1  0
 19 20  2  3
 20 21  1  0
 21 22  2  0
 21 23  1  0
 23 24  1  0
 24 25  1  0
 25 26  2  0
 26 27  1  0
 27 28  2  0
 28 29  1  0
 29 30  2  0
 30 31  1  0
 19 32  1  0
 32 33  1  0
 14 34  2  0
  7 35  1  0
 35 36  1  0
 36  4  1  0
 34 10  1  0
 33 16  2  0
 30 25  1  0
  1 37  1  0
  1 38  1  0
  1 39  1  0
  5 40  1  0
  5 41  1  0
  6 42  1  0
  6 43  1  0
 11 44  1  0
 12 45  1  0
 13 46  1  0
 17 47  1  0
 18 48  1  0
 23 49  1  0
 23 50  1  0
 24 51  1  0
 24 52  1  0
 26 53  1  0
 27 54  1  0
 28 55  1  0
 29 56  1  0
 33 57  1  0
 34 58  1  0
 35 59  1  0
 35 60  1  0
 36 61  1  0
 36 62  1  0
M  CHG  2  31  -1  32  -1
M  END
>  <UniqueID>  (1) 
1

>  <SMILES>  (1) 
CC(=O)N1CCN(C(=O)c2cccc(Sc3ccc(=NC(=O)CCc4ccccc4[O-])[n-]c3)c2)CC1

>  <Energy>  (1) 
68.53169560242523

>  <Genealogy>  (1) 
CC(=O)N1CCN(C(=O)c2cccc(Sc3ccc(=NC(=O)CCc4ccccc4[O-])[n-]c3)c2)CC1 (protonated)
CC(=O)N1CCN(C(=O)c2cccc(Sc3ccc(=NC(=O)CCc4ccccc4[O-])[n-]c3)c2)CC1 (3D coordinates assigned)
CC(=O)N1CCN(C(=O)c2cccc(Sc3ccc(=NC(=O)CCc4ccccc4[O-])[n-]c3)c2)CC1 (nonaromatic ring conformer: 68.53169560242523 kcal/mol)

>  <smiles>  (1) 
CC(=O)N1CCN(C(=O)c2cccc(Sc3ccc(=NC(=O)CCc4ccccc4O)[nH]c3)c2)CC1

>  <score_type>  (1) 
oracle

>  <origin>  (1) 
adg

>  <m_score__min__energy>  (1) 
-16.949999999999999

>  <m_primary>  (1) 
energy

$$$$
1:0
     RDKit          3D

 53 55  0  0  0  0  0  0  0  0999 V2000
   54.7340   26.0200   45.9930 O   0  0  0  0  0  0  0  0  0  0  0  0
   55.8950   26.5080   45.9900 C   0  0  0  0  0  0  0  0  0  0  0  0
   57.0650   25.7060   46.4780 C   0  0  0  0  0  0  0  0  0  0  0  0
   58.0750   25.3540   45.3710 C   0  0  0  0  0  0  0  0  0  0  0  0
   57.7040   24.0910   44.6310 C   0  0  0  0  0  0  0  0  0  0  0  0
   56.6390   24.0950   43.7100 C   0  0  0  0  0  0  0  0  0  0  0  0
   56.2860   22.9230   43.0300 C   0  0  0  0  0  0  0  0  0  0  0  0
   56.9890   21.7380   43.2630 C   0  0  0  0  0  0  0  0  0  0  0  0
   58.0440   21.7210   44.1830 C   0  0  0  0  0  0  0  0  0  0  0  0
   58.4000   22.8920   44.8660 C   0  0  0  0  0  0  0  0  0  0  0  0
   56.0980   27.8730   45.6200 N   0  0  0  0  0  0  0  0  0  0  0  0
   57.4140   28.4920   45.5190 C   0  0  0  0  0  0  0  0  0  0  0  0
   57.3020   29.8500   44.8870 C   0  0  0  0  0  0  0  0  0  0  0  0
   56.7900   29.9380   43.7360 O   0  0  0  0  0  0  0  0  0  0  0  0
   57.7630   31.0400   45.5590 N   0  0  0  0  0  0  0  0  0  0  0  0
   57.3250   32.3490   45.0710 C   0  0  0  0  0  0  0  0  0  0  0  0
   57.2860   33.3880   46.2080 C   0  0  0  0  0  0  0  0  0  0  0  0
   58.4760   33.3530   47.0800 N   0  0  0  0  0  0  0  0  0  0  0  0
   59.8260   34.3150   46.5060 S   0  0  0  0  0  0  0  0  0  0  0  0
   59.5600   35.7750   46.7580 O   0  0  0  0  0  0  0  0  0  0  0  0
   59.9410   34.1240   45.0200 O   0  0  0  0  0  0  0  0  0  0  0  0
   61.3740   33.8860   47.2340 C   0  0  0  0  0  0  0  0  0  0  0  0
   62.4880   33.6330   46.4170 C   0  0  0  0  0  0  0  0  0  0  0  0
   63.7230   33.3120   46.9890 C   0  0  0  0  0  0  0  0  0  0  0  0
   63.8570   33.2550   48.3780 C   0  0  0  0  0  0  0  0  0  0  0  0
   62.7550   33.5190   49.1980 C   0  0  0  0  0  0  0  0  0  0  0  0
   61.5180   33.8380   48.6290 C   0  0  0  0  0  0  0  0  0  0  0  0
   58.8390   32.0030   47.5430 C   0  0  0  0  0  0  0  0  0  0  0  0
   58.9690   31.0060   46.3950 C   0  0  0  0  0  0  0  0  0  0  0  0
   57.5865   26.2875   47.2526 H   0  0  0  0  0  0  0  0  0  0  0  0
   56.6666   24.7566   46.8651 H   0  0  0  0  0  0  0  0  0  0  0  0
   58.1146   26.1856   44.6520 H   0  0  0  0  0  0  0  0  0  0  0  0
   59.0512   25.1868   45.8496 H   0  0  0  0  0  0  0  0  0  0  0  0
   56.0809   25.0244   43.5236 H   0  0  0  0  0  0  0  0  0  0  0  0
   55.4536   22.9351   42.3109 H   0  0  0  0  0  0  0  0  0  0  0  0
   56.7137   20.8195   42.7240 H   0  0  0  0  0  0  0  0  0  0  0  0
   58.5944   20.7872   44.3702 H   0  0  0  0  0  0  0  0  0  0  0  0
   59.2282   22.8730   45.5897 H   0  0  0  0  0  0  0  0  0  0  0  0
   57.8455   28.5943   46.5256 H   0  0  0  0  0  0  0  0  0  0  0  0
   58.0615   27.8583   44.8951 H   0  0  0  0  0  0  0  0  0  0  0  0
   58.0239   32.6939   44.2947 H   0  0  0  0  0  0  0  0  0  0  0  0
   56.3091   32.2442   44.6625 H   0  0  0  0  0  0  0  0  0  0  0  0
   57.2115   34.3903   45.7610 H   0  0  0  0  0  0  0  0  0  0  0  0
   56.4171   33.1456   46.8374 H   0  0  0  0  0  0  0  0  0  0  0  0
   62.3886   33.6876   45.3229 H   0  0  0  0  0  0  0  0  0  0  0  0
   64.5897   33.1042   46.3444 H   0  0  0  0  0  0  0  0  0  0  0  0
   64.8289   33.0026   48.8270 H   0  0  0  0  0  0  0  0  0  0  0  0
   62.8615   33.4756   50.2920 H   0  0  0  0  0  0  0  0  0  0  0  0
   60.6552   34.0519   49.2770 H   0  0  0  0  0  0  0  0  0  0  0  0
   59.8016   32.0587   48.0724 H   0  0  0  0  0  0  0  0  0  0  0  0
   58.0338   31.6487   48.2034 H   0  0  0  0  0  0  0  0  0  0  0  0
   59.8440   31.2686   45.7823 H   0  0  0  0  0  0  0  0  0  0  0  0
   59.0921   29.9942   46.8088 H   0  0  0  0  0  0  0  0  0  0  0  0
  1  2  2  0
  2  3  1  0
  3  4  1  0
  4  5  1  0
  5  6  2  0
  6  7  1  0
  7  8  2  0
  8  9  1  0
  9 10  2  0
  2 11  1  0
 11 12  1  0
 12 13  1  0
 13 14  2  0
 13 15  1  0
 15 16  1  0
 16 17  1  0
 17 18  1  0
 18 19  1  0
 19 20  2  0
 19 21  2  0
 19 22  1  0
 22 23  2  0
 23 24  1  0
 24 25  2  0
 25 26  1  0
 26 27  2  0
 18 28  1  0
 28 29  1  0
 10  5  1  0
 29 15  1  0
 27 22  1  0
  3 30  1  0
  3 31  1  0
  4 32  1  0
  4 33  1  0
  6 34  1  0
  7 35  1  0
  8 36  1  0
  9 37  1  0
 10 38  1  0
 12 39  1  0
 12 40  1  0
 16 41  1  0
 16 42  1  0
 17 43  1  0
 17 44  1  0
 23 45  1  0
 24 46  1  0
 25 47  1  0
 26 48  1  0
 27 49  1  0
 28 50  1  0
 28 51  1  0
 29 52  1  0
 29 53  1  0
M  CHG  1  11  -1
M  END
>  <UniqueID>  (2) 
2

>  <SMILES>  (2) 
O=C(CCc1ccccc1)[N-]CC(=O)N1CCN(S(=O)(=O)c2ccccc2)CC1

>  <Energy>  (2) 
56.33822977355546

>  <Genealogy>  (2) 
O=C(CCc1ccccc1)[N-]CC(=O)N1CCN(S(=O)(=O)c2ccccc2)CC1 (protonated)
O=C(CCc1ccccc1)[N-]CC(=O)N1CCN(S(=O)(=O)c2ccccc2)CC1 (3D coordinates assigned)
O=C(CCc1ccccc1)[N-]CC(=O)N1CCN(S(=O)(=O)c2ccccc2)CC1 (nonaromatic ring conformer: 56.33822977355546 kcal/mol)

>  <smiles>  (2) 
O=C(CCc1ccccc1)NCC(=O)N1CCN(S(=O)(=O)c2ccccc2)CC1

>  <score_type>  (2) 
oracle

>  <origin>  (2) 
adg

>  <m_score__min__energy>  (2) 
-12.220000000000001

>  <m_primary>  (2) 
energy

$$$$
2:0
     RDKit          3D

 31 33  0  0  0  0  0  0  0  0999 V2000
   57.0130   31.1970   42.4910 C   0  0  0  0  0  0  0  0  0  0  0  0
   57.5240   31.5470   43.6810 C   0  0  0  0  0  0  0  0  0  0  0  0
   57.5440   32.8730   43.9640 N   0  0  0  0  0  0  0  0  0  0  0  0
   57.8350   33.3510   45.1940 C   0  0  0  0  0  0  0  0  0  0  0  0
   57.8630   34.6000   45.3700 O   0  0  0  0  0  0  0  0  0  0  0  0
   58.0670   32.4910   46.2300 N   0  0  0  0  0  0  0  0  0  0  0  0
   58.3450   33.0180   47.5770 C   0  0  0  0  0  0  0  0  0  0  0  0
   58.1340   31.1410   45.9930 C   0  0  0  0  0  0  0  0  0  0  0  0
   58.4220   30.3600   46.9460 O   0  0  0  0  0  0  0  0  0  0  0  0
   57.9300   30.6180   44.6880 C   0  0  0  0  0  0  0  0  0  0  0  0
   58.1590   29.2930   44.4720 C   0  0  0  0  0  0  0  0  0  0  0  0
   57.3640   28.1700   45.0100 C   0  0  0  0  0  0  0  0  0  0  0  0
   55.9970   28.1700   45.2440 C   0  0  0  0  0  0  0  0  0  0  0  0
   55.1400   29.2150   44.9200 O   0  0  0  0  0  0  0  0  0  0  0  0
   55.5740   27.0270   45.8310 N   0  0  0  0  0  0  0  0  0  0  0  0
   56.7000   26.3050   45.9890 C   0  0  0  0  0  0  0  0  0  0  0  0
   56.8010   25.0490   46.5860 C   0  0  0  0  0  0  0  0  0  0  0  0
   58.0800   24.4740   46.7050 C   0  0  0  0  0  0  0  0  0  0  0  0
   59.2200   25.1660   46.2430 C   0  0  0  0  0  0  0  0  0  0  0  0
   59.0920   26.4330   45.6480 C   0  0  0  0  0  0  0  0  0  0  0  0
   57.8080   26.9680   45.5210 C   0  0  0  0  0  0  0  0  0  0  0  0
   56.9686   30.1366   42.2019 H   0  0  0  0  0  0  0  0  0  0  0  0
   56.6385   31.9704   41.8043 H   0  0  0  0  0  0  0  0  0  0  0  0
   57.9717   32.3103   48.3319 H   0  0  0  0  0  0  0  0  0  0  0  0
   59.4299   33.1496   47.7026 H   0  0  0  0  0  0  0  0  0  0  0  0
   57.8411   33.9877   47.7026 H   0  0  0  0  0  0  0  0  0  0  0  0
   59.0183   29.0341   43.8360 H   0  0  0  0  0  0  0  0  0  0  0  0
   55.9074   24.5231   46.9531 H   0  0  0  0  0  0  0  0  0  0  0  0
   58.1919   23.4792   47.1609 H   0  0  0  0  0  0  0  0  0  0  0  0
   60.2157   24.7106   46.3493 H   0  0  0  0  0  0  0  0  0  0  0  0
   59.9747   26.9855   45.2937 H   0  0  0  0  0  0  0  0  0  0  0  0
  1  2  2  0
  2  3  1  0
  3  4  1  0
  4  5  2  0
  4  6  1  0
  6  7  1  0
  6  8  1  0
  8  9  2  0
  8 10  1  0
 10 11  2  3
 11 12  1  0
 12 13  2  0
 13 14  1  0
 13 15  1  0
 15 16  1  0
 16 17  2  0
 17 18  1  0
 18 19  2  0
 19 20  1  0
 20 21  2  0
 10  2  1  0
 21 12  1  0
 21 16  1  0
  1 22  1  0
  1 23  1  0
  7 24  1  0
  7 25  1  0
  7 26  1  0
 11 27  1  0
 17 28  1  0
 18 29  1  0
 19 30  1  0
 20 31  1  0
M  CHG  3   3  -1  14  -1  15  -1
M  END
>  <UniqueID>  (3) 
3

>  <SMILES>  (3) 
C=c1[n-]c(=O)n(C)c(=O)c1=Cc1c([O-])[n-]c2ccccc12

>  <Energy>  (3) 
92.84673532375899

>  <Genealogy>  (3) 
C=c1[n-]c(=O)n(C)c(=O)c1=Cc1c([O-])[n-]c2ccccc12 (protonated)
C=c1[n-]c(=O)n(C)c(=O)c1=Cc1c([O-])[n-]c2ccccc12 (3D coordinates assigned)
C=c1[n-]c(=O)n(C)c(=O)c1=Cc1c([O-])[n-]c2ccccc12 (optimized conformer: 92.84673532375899 kcal/mol)

>  <smiles>  (3) 
C=c1[nH]c(=O)n(C)c(=O)c1=Cc1c(O)[nH]c2ccccc12

>  <score_type>  (3) 
oracle

>  <origin>  (3) 
adg

>  <m_score__min__energy>  (3) 
-14.35

>  <m_primary>  (3) 
energy

$$$$
3:0
     RDKit          3D

 20 21  0  0  0  0  0  0  0  0999 V2000
   60.0800   28.6700   45.4190 C   0  0  0  0  0  0  0  0  0  0  0  0
   58.7940   29.0710   45.3610 C   0  0  0  0  0  0  0  0  0  0  0  0
   58.4910   30.4410   45.5510 C   0  0  0  0  0  0  0  0  0  0  0  0
   59.3630   31.2510   45.9700 O   0  0  0  0  0  0  0  0  0  0  0  0
   57.2570   30.9160   45.2490 N   0  0  0  0  0  0  0  0  0  0  0  0
   56.2890   30.1020   44.7710 C   0  0  0  0  0  0  0  0  0  0  0  0
   55.1640   30.5750   44.4630 O   0  0  0  0  0  0  0  0  0  0  0  0
   56.5230   28.7750   44.6430 N   0  0  0  0  0  0  0  0  0  0  0  0
   57.7160   28.2090   44.9750 C   0  0  0  0  0  0  0  0  0  0  0  0
   57.7610   26.8580   44.9280 C   0  0  0  0  0  0  0  0  0  0  0  0
   57.2000   25.9230   45.9210 C   0  0  0  0  0  0  0  0  0  0  0  0
   57.8840   24.8830   46.4290 N   0  0  0  0  0  0  0  0  0  0  0  0
   56.9700   24.2490   47.1950 C   0  0  0  0  0  0  0  0  0  0  0  0
   57.2420   23.2160   47.8580 O   0  0  0  0  0  0  0  0  0  0  0  0
   55.7390   24.8040   47.1850 N   0  0  0  0  0  0  0  0  0  0  0  0
   55.8960   25.8540   46.3640 C   0  0  0  0  0  0  0  0  0  0  0  0
   54.8630   26.7090   46.0020 O   0  0  0  0  0  0  0  0  0  0  0  0
   60.3325   27.6093   45.2736 H   0  0  0  0  0  0  0  0  0  0  0  0
   60.8767   29.4036   45.6117 H   0  0  0  0  0  0  0  0  0  0  0  0
   58.2680   26.4109   44.0602 H   0  0  0  0  0  0  0  0  0  0  0  0
  1  2  2  0
  2  3  1  0
  3  4  2  0
  3  5  1  0
  5  6  1  0
  6  7  2  0
  6  8  1  0
  8  9  1  0
  9 10  2  3
 10 11  1  0
 11 12  1  0
 12 13  1  0
 13 14  2  0
 13 15  1  0
 15 16  1  0
 16 17  1  0
  9  2  1  0
 16 11  2  0
  1 18  1  0
  1 19  1  0
 10 20  1  0
M  CHG  5   5  -1   8  -1  12  -1  15  -1  17  -1
M  END
>  <UniqueID>  (4) 
4

>  <SMILES>  (4) 
C=c1c(=O)[n-]c(=O)[n-]c1=Cc1[n-]c(=O)[n-]c1[O-]

>  <Energy>  (4) 
73.25138790949627

>  <Genealogy>  (4) 
C=c1c(=O)[n-]c(=O)[n-]c1=Cc1[n-]c(=O)[n-]c1[O-] (protonated)
C=c1c(=O)[n-]c(=O)[n-]c1=Cc1[n-]c(=O)[n-]c1[O-] (3D coordinates assigned)
C=c1c(=O)[n-]c(=O)[n-]c1=Cc1[n-]c(=O)[n-]c1[O-] (optimized conformer: 73.25138790949627 kcal/mol)

>  <smiles>  (4) 
C=c1c(=O)[nH]c(=O)[nH]c1=Cc1[nH]c(=O)[nH]c1O

>  <score_type>  (4) 
oracle

>  <origin>  (4) 
adg

>  <m_score__min__energy>  (4) 
-17.260000000000002

>  <m_primary>  (4) 
energy

$$$$
4:0
     RDKit          3D

 41 43  0  0  0  0  0  0  0  0999 V2000
   60.7778   26.7178   46.3252 H   0  0  0  0  0  0  0  0  0  0  0  0
   59.7760   26.3140   46.1170 C   0  0  0  0  0  0  0  0  0  0  0  0
   59.5910   24.9360   45.9960 C   0  0  0  0  0  0  0  0  0  0  0  0
   60.4458   24.2545   46.1180 H   0  0  0  0  0  0  0  0  0  0  0  0
   58.3210   24.4200   45.7200 C   0  0  0  0  0  0  0  0  0  0  0  0
   58.1800   23.3327   45.6316 H   0  0  0  0  0  0  0  0  0  0  0  0
   57.2240   25.2820   45.5550 C   0  0  0  0  0  0  0  0  0  0  0  0
   55.8690   24.7010   45.2470 C   0  0  0  0  0  0  0  0  0  0  0  0
   55.3442   24.4760   46.1872 H   0  0  0  0  0  0  0  0  0  0  0  0
   55.2826   25.4268   44.6644 H   0  0  0  0  0  0  0  0  0  0  0  0
   55.9905   23.7759   44.6644 H   0  0  0  0  0  0  0  0  0  0  0  0
   57.4080   26.6750   45.7170 C   0  0  0  0  0  0  0  0  0  0  0  0
   56.3150   27.5920   45.5850 N   0  0  0  0  0  0  0  0  0  0  0  0
   56.4010   28.7420   44.9870 C   0  0  0  0  0  0  0  0  0  0  0  0
   55.5320   29.7460   45.2220 N   0  0  0  0  0  0  0  0  0  0  0  0
   55.7900   30.8370   44.5040 N   0  0  0  0  0  0  0  0  0  0  0  0
   56.8620   30.6990   43.6940 C   0  0  0  0  0  0  0  0  0  0  0  0
   57.4580   31.9940   42.6100 S   0  0  0  0  0  0  0  0  0  0  0  0
   58.5050   32.7830   43.8800 C   0  0  0  0  0  0  0  0  0  0  0  0
   59.1882   33.4948   43.3937 H   0  0  0  0  0  0  0  0  0  0  0  0
   59.0769   32.0021   44.4026 H   0  0  0  0  0  0  0  0  0  0  0  0
   57.6640   33.5130   44.8780 C   0  0  0  0  0  0  0  0  0  0  0  0
   56.9300   34.4610   44.4920 O   0  0  0  0  0  0  0  0  0  0  0  0
   57.8070   33.2010   46.2740 N   0  0  0  0  0  0  0  0  0  0  0  0
   58.4690   32.2280   46.8410 C   0  0  0  0  0  0  0  0  0  0  0  0
   59.6730   32.4330   47.5510 C   0  0  0  0  0  0  0  0  0  0  0  0
   60.1001   33.4433   47.6343 H   0  0  0  0  0  0  0  0  0  0  0  0
   60.3210   31.3430   48.1490 C   0  0  0  0  0  0  0  0  0  0  0  0
   61.6210   31.5370   48.8740 C   0  0  0  0  0  0  0  0  0  0  0  0
   61.4431   31.5105   49.9592 H   0  0  0  0  0  0  0  0  0  0  0  0
   62.3188   30.7330   48.5970 H   0  0  0  0  0  0  0  0  0  0  0  0
   62.0537   32.5097   48.5970 H   0  0  0  0  0  0  0  0  0  0  0  0
   59.7770   30.0620   48.0160 C   0  0  0  0  0  0  0  0  0  0  0  0
   60.2917   29.1930   48.4519 H   0  0  0  0  0  0  0  0  0  0  0  0
   58.5780   29.8950   47.3270 C   0  0  0  0  0  0  0  0  0  0  0  0
   58.1351   28.8924   47.2343 H   0  0  0  0  0  0  0  0  0  0  0  0
   57.9520   30.9660   46.7680 N   0  0  0  0  0  0  0  0  0  0  0  0
   57.0540   30.8040   46.2580 H   0  0  0  0  0  0  0  0  0  0  0  0
   57.5570   29.1710   43.8280 S   0  0  0  0  0  0  0  0  0  0  0  0
   58.6900   27.1810   45.9740 C   0  0  0  0  0  0  0  0  0  0  0  0
   58.8416   28.2668   46.0635 H   0  0  0  0  0  0  0  0  0  0  0  0
  1  2  1  0
  2  3  2  0
  3  4  1  0
  3  5  1  0
  5  6  1  0
  5  7  2  0
  7  8  1  0
  8  9  1  0
  8 10  1  0
  8 11  1  0
  7 12  1  0
 12 13  1  0
 13 14  2  0
 14 15  1  0
 15 16  1  0
 16 17  2  0
 17 18  1  0
 18 19  1  0
 19 20  1  0
 19 21  1  0
 19 22  1  0
 22 23  2  0
 22 24  1  0
 24 25  2  0
 25 26  1  0
 26 27  1  0
 26 28  2  0
 28 29  1  0
 29 30  1  0
 29 31  1  0
 29 32  1  0
 28 33  1  0
 33 34  1  0
 33 35  2  0
 35 36  1  0
 35 37  1  0
 37 38  1  0
 17 39  1  0
 12 40  2  0
 40 41  1  0
 40  2  1  0
 39 14  1  0
 37 25  1  0
M  CHG  1  15  -1
M  END
>  <UniqueID>  (5) 
5

>  <SMILES>  (5) 
Cc1cc[nH]/c(=N/C(=O)CSc2n[n-]/c(=N/c3ccccc3C)s2)c1

>  <Energy>  (5) 
88.74960017716553

>  <Genealogy>  (5) 
Cc1cc[nH]c(=NC(=O)CSc2n[n-]c(=Nc3ccccc3C)s2)c1 (protonated)
Cc1cc[nH]/c(=N/C(=O)CSc2n[n-]/c(=N/c3ccccc3C)s2)c1 (cis-trans isomerization)
Cc1cc[nH]/c(=N/C(=O)CSc2n[n-]/c(=N/c3ccccc3C)s2)c1 (3D coordinates assigned)
Cc1cc[nH]/c(=N/C(=O)CSc2n[n-]/c(=N/c3ccccc3C)s2)c1 (optimized conformer: 88.74960017716553 kcal/mol)

>  <smiles>  (5) 
Cc1cc[nH]c(=NC(=O)CSc2n[nH]c(=Nc3ccccc3C)s2)c1

>  <score_type>  (5) 
oracle

>  <origin>  (5) 
adg

>  <m_score__min__energy>  (5) 
-9.6799999999999997

>  <m_primary>  (5) 
energy

$$$$
5:0
     RDKit          3D

 33 34  0  0  0  0  0  0  0  0999 V2000
   57.0950   29.0040   43.1030 N   0  0  0  0  0  0  0  0  0  0  0  0
   56.7400   29.6920   44.6500 S   0  0  0  0  0  0  0  0  0  0  0  0
   56.3950   31.1450   44.4830 O   0  0  0  0  0  0  0  0  0  0  0  0
   55.5610   28.9750   45.2450 O   0  0  0  0  0  0  0  0  0  0  0  0
   58.1380   29.5190   45.7550 C   0  0  0  0  0  0  0  0  0  0  0  0
   58.0180   28.2870   46.6510 C   0  0  0  0  0  0  0  0  0  0  0  0
   58.5280   27.1070   45.9620 N   0  0  0  0  0  0  0  0  0  0  0  0
   57.9190   26.5040   44.8140 C   0  0  0  0  0  0  0  0  0  0  0  0
   58.3640   26.7910   43.6710 O   0  0  0  0  0  0  0  0  0  0  0  0
   56.8110   25.5370   44.9290 C   0  0  0  0  0  0  0  0  0  0  0  0
   56.6990   24.4810   44.0200 C   0  0  0  0  0  0  0  0  0  0  0  0
   55.6420   23.5730   44.1150 C   0  0  0  0  0  0  0  0  0  0  0  0
   54.6700   23.7370   45.1280 C   0  0  0  0  0  0  0  0  0  0  0  0
   53.6400   22.9480   45.3130 N   0  0  0  0  0  0  0  0  0  0  0  0
   53.0200   22.1920   46.4190 C   0  0  0  0  0  0  0  0  0  0  0  0
   53.5980   22.3800   47.8080 C   0  0  0  0  0  0  0  0  0  0  0  0
   53.8280   21.0700   47.0400 C   0  0  0  0  0  0  0  0  0  0  0  0
   54.7970   24.7940   45.9770 N   0  0  0  0  0  0  0  0  0  0  0  0
   55.8200   25.6840   45.9040 C   0  0  0  0  0  0  0  0  0  0  0  0
   58.1310   28.8920   43.0410 H   0  0  0  0  0  0  0  0  0  0  0  0
   56.6800   28.0450   43.0890 H   0  0  0  0  0  0  0  0  0  0  0  0
   59.0554   29.4319   45.1543 H   0  0  0  0  0  0  0  0  0  0  0  0
   58.1666   30.4066   46.4042 H   0  0  0  0  0  0  0  0  0  0  0  0
   58.5992   28.4494   47.5707 H   0  0  0  0  0  0  0  0  0  0  0  0
   56.9581   28.1265   46.8977 H   0  0  0  0  0  0  0  0  0  0  0  0
   57.4490   24.3642   43.2238 H   0  0  0  0  0  0  0  0  0  0  0  0
   55.5664   22.7355   43.4059 H   0  0  0  0  0  0  0  0  0  0  0  0
   52.0128   22.2706   45.9838 H   0  0  0  0  0  0  0  0  0  0  0  0
   54.4322   23.0789   47.9680 H   0  0  0  0  0  0  0  0  0  0  0  0
   53.1891   22.6451   48.7942 H   0  0  0  0  0  0  0  0  0  0  0  0
   54.8274   20.8286   46.6488 H   0  0  0  0  0  0  0  0  0  0  0  0
   53.6528   20.0037   47.2459 H   0  0  0  0  0  0  0  0  0  0  0  0
   55.8690   26.5228   46.6139 H   0  0  0  0  0  0  0  0  0  0  0  0
  1  2  1  0
  2  3  2  0
  2  4  2  0
  2  5  1  0
  5  6  1  0
  6  7  1  0
  7  8  1  0
  8  9  2  0
  8 10  1  0
 10 11  1  0
 11 12  2  0
 12 13  1  0
 13 14  2  3
 14 15  1  0
 15 16  1  0
 16 17  1  0
 13 18  1  0
 18 19  1  0
 19 10  2  0
 17 15  1  0
  1 20  1  0
  1 21  1  0
  5 22  1  0
  5 23  1  0
  6 24  1  0
  6 25  1  0
 11 26  1  0
 12 27  1  0
 15 28  1  0
 16 29  1  0
 16 30  1  0
 17 31  1  0
 17 32  1  0
 19 33  1  0
M  CHG  2   7  -1  18  -1
M  END
>  <UniqueID>  (6) 
6

>  <SMILES>  (6) 
NS(=O)(=O)CC[N-]C(=O)c1ccc(=NC2CC2)[n-]c1

>  <Energy>  (6) 
311.69511811583556

>  <Genealogy>  (6) 
NS(=O)(=O)CC[N-]C(=O)c1ccc(=NC2CC2)[n-]c1 (protonated)
NS(=O)(=O)CC[N-]C(=O)c1ccc(=NC2CC2)[n-]c1 (3D coordinates assigned)
NS(=O)(=O)CC[N-]C(=O)c1ccc(=NC2CC2)[n-]c1 (nonaromatic ring conformer: 311.69511811583556 kcal/mol)

>  <smiles>  (6) 
NS(=O)(=O)CCNC(=O)c1ccc(=NC2CC2)[nH]c1

>  <score_type>  (6) 
oracle

>  <origin>  (6) 
adg

>  <m_score__min__energy>  (6) 
-9.9299999999999997

>  <m_primary>  (6) 
energy

$$$$
6:0
     RDKit          3D

 49 51  0  0  0  0  0  0  0  0999 V2000
   58.1460   27.1120   42.6700 C   0  0  0  0  0  0  0  0  0  0  0  0
   58.1380   26.5660   43.9850 O   0  0  0  0  0  0  0  0  0  0  0  0
   57.3890   25.4470   44.3820 C   0  0  0  0  0  0  0  0  0  0  0  0
   57.3560   24.2640   43.6150 C   0  0  0  0  0  0  0  0  0  0  0  0
   56.6430   23.1360   44.0610 C   0  0  0  0  0  0  0  0  0  0  0  0
   56.6070   21.8860   43.2630 C   0  0  0  0  0  0  0  0  0  0  0  0
   57.3720   20.7370   43.6400 N   0  0  0  0  0  0  0  0  0  0  0  0
   55.9020   21.8300   42.2200 O   0  0  0  0  0  0  0  0  0  0  0  0
   55.9860   23.1940   45.3010 C   0  0  0  0  0  0  0  0  0  0  0  0
   56.0080   24.3630   46.0610 C   0  0  0  0  0  0  0  0  0  0  0  0
   56.6740   25.5010   45.5960 C   0  0  0  0  0  0  0  0  0  0  0  0
   56.6760   26.6790   46.4180 N   0  0  0  0  0  0  0  0  0  0  0  0
   57.0030   27.8760   46.0230 C   0  0  0  0  0  0  0  0  0  0  0  0
   58.2210   28.4260   46.4350 C   0  0  0  0  0  0  0  0  0  0  0  0
   58.5650   29.7160   46.0280 C   0  0  0  0  0  0  0  0  0  0  0  0
   57.6860   30.4630   45.2290 C   0  0  0  0  0  0  0  0  0  0  0  0
   58.0280   31.8360   44.7880 C   0  0  0  0  0  0  0  0  0  0  0  0
   57.3340   32.3870   43.8930 O   0  0  0  0  0  0  0  0  0  0  0  0
   59.1600   32.5440   45.3110 N   0  0  0  0  0  0  0  0  0  0  0  0
   59.3440   32.9600   46.6720 C   0  0  0  0  0  0  0  0  0  0  0  0
   59.9840   34.1780   46.9260 C   0  0  0  0  0  0  0  0  0  0  0  0
   60.1620   34.6210   48.2390 C   0  0  0  0  0  0  0  0  0  0  0  0
   59.6980   33.8510   49.3090 C   0  0  0  0  0  0  0  0  0  0  0  0
   59.0520   32.6250   49.0700 C   0  0  0  0  0  0  0  0  0  0  0  0
   58.5300   31.8180   50.1360 N   0  0  0  0  0  0  0  0  0  0  0  0
   57.8600   32.2900   51.3120 C   0  0  0  0  0  0  0  0  0  0  0  0
   56.7940   31.4530   51.9330 C   0  0  0  0  0  0  0  0  0  0  0  0
   58.2290   33.3520   51.8830 O   0  0  0  0  0  0  0  0  0  0  0  0
   58.8520   32.2020   47.7500 C   0  0  0  0  0  0  0  0  0  0  0  0
   56.4770   29.8720   44.8340 C   0  0  0  0  0  0  0  0  0  0  0  0
   56.1640   28.6130   45.2420 N   0  0  0  0  0  0  0  0  0  0  0  0
   58.1621   28.2103   42.7291 H   0  0  0  0  0  0  0  0  0  0  0  0
   59.0391   26.7606   42.1325 H   0  0  0  0  0  0  0  0  0  0  0  0
   57.2430   26.7869   42.1325 H   0  0  0  0  0  0  0  0  0  0  0  0
   57.8942   24.2226   42.6565 H   0  0  0  0  0  0  0  0  0  0  0  0
   57.2830   19.8510   43.0950 H   0  0  0  0  0  0  0  0  0  0  0  0
   58.0900   20.7790   44.3960 H   0  0  0  0  0  0  0  0  0  0  0  0
   55.4496   22.3098   45.6758 H   0  0  0  0  0  0  0  0  0  0  0  0
   55.4970   24.3900   47.0347 H   0  0  0  0  0  0  0  0  0  0  0  0
   58.9027   27.8464   47.0749 H   0  0  0  0  0  0  0  0  0  0  0  0
   59.5287   30.1487   46.3347 H   0  0  0  0  0  0  0  0  0  0  0  0
   60.3488   34.7898   46.0878 H   0  0  0  0  0  0  0  0  0  0  0  0
   60.6686   35.5783   48.4311 H   0  0  0  0  0  0  0  0  0  0  0  0
   59.8385   34.2049   50.3410 H   0  0  0  0  0  0  0  0  0  0  0  0
   56.8716   31.5139   53.0286 H   0  0  0  0  0  0  0  0  0  0  0  0
   55.8073   31.8202   51.6143 H   0  0  0  0  0  0  0  0  0  0  0  0
   56.9166   30.4073   51.6143 H   0  0  0  0  0  0  0  0  0  0  0  0
   58.3049   31.2680   47.5543 H   0  0  0  0  0  0  0  0  0  0  0  0
   55.7791   30.4290   44.1916 H   0  0  0  0  0  0  0  0  0  0  0  0
  1  2  1  0
  2  3  1  0
  3  4  2  0
  4  5  1  0
  5  6  1  0
  6  7  1  0
  6  8  2  0
  5  9  2  0
  9 10  1  0
 10 11  2  0
 11 12  1  0
 12 13  2  3
 13 14  1  0
 14 15  2  0
 15 16  1  0
 16 17  1  0
 17 18  2  0
 17 19  1  0
 19 20  1  0
 20 21  2  0
 21 22  1  0
 22 23  2  0
 23 24  1  0
 24 25  1  0
 25 26  1  0
 26 27  1  0
 26 28  2  0
 24 29  2  0
 16 30  2  0
 30 31  1  0
 11  3  1  0
 31 13  1  0
 29 20  1  0
  1 32  1  0
  1 33  1  0
  1 34  1  0
  4 35  1  0
  7 36  1  0
  7 37  1  0
  9 38  1  0
 10 39  1  0
 14 40  1  0
 15 41  1  0
 21 42  1  0
 22 43  1  0
 23 44  1  0
 27 45  1  0
 27 46  1  0
 27 47  1  0
 29 48  1  0
 30 49  1  0
M  CHG  3  19  -1  25  -1  31  -1
M  END
>  <UniqueID>  (7) 
7

>  <SMILES>  (7) 
COc1cc(C(N)=O)ccc1N=c1ccc(C(=O)[N-]c2cccc([N-]C(C)=O)c2)c[n-]1

>  <Energy>  (7) 
68.95460560171834

>  <Genealogy>  (7) 
COc1cc(C(N)=O)ccc1N=c1ccc(C(=O)[N-]c2cccc([N-]C(C)=O)c2)c[n-]1 (protonated)
COc1cc(C(N)=O)ccc1N=c1ccc(C(=O)[N-]c2cccc([N-]C(C)=O)c2)c[n-]1 (3D coordinates assigned)
COc1cc(C(N)=O)ccc1N=c1ccc(C(=O)[N-]c2cccc([N-]C(C)=O)c2)c[n-]1 (optimized conformer: 68.95460560171834 kcal/mol)

>  <smiles>  (7) 
COc1cc(C(N)=O)ccc1N=c1ccc(C(=O)Nc2cccc(NC(C)=O)c2)c[nH]1

>  <score_type>  (7) 
oracle

>  <origin>  (7) 
adg

>  <m_score__min__energy>  (7) 
-12.52

>  <m_primary>  (7) 
energy

$$$$
7:0
     RDKit          3D

 31 32  0  0  1  0  0  0  0  0999 V2000
   60.4570   27.5360   46.0320 C   0  0  0  0  0  0  0  0  0  0  0  0
   60.3910   28.4780   44.8850 C   0  0  0  0  0  0  0  0  0  0  0  0
   59.0390   29.1300   44.7620 C   0  0  0  0  0  0  0  0  0  0  0  0
   58.8400   30.4290   45.1690 C   0  0  0  0  0  0  0  0  0  0  0  0
   57.6210   31.0400   45.0700 N   0  0  0  0  0  0  0  0  0  0  0  0
   57.5330   32.3790   45.5200 C   0  0  1  0  0  0  0  0  0  0  0  0
   58.1320   32.7530   46.7800 C   0  0  0  0  0  0  0  0  0  0  0  0
   58.6060   34.0190   46.6730 C   0  0  0  0  0  0  0  0  0  0  0  0
   58.3300   34.5370   45.3090 C   0  0  1  0  0  0  0  0  0  0  0  0
   59.2740   35.4410   44.8730 O   0  0  0  0  0  0  0  0  0  0  0  0
   58.3000   33.2500   44.5080 C   0  0  0  0  0  0  0  0  0  0  0  0
   58.0010   28.3980   44.2350 C   0  0  0  0  0  0  0  0  0  0  0  0
   55.5000   30.7740   44.4290 O   0  0  0  0  0  0  0  0  0  0  0  0
   56.8080   29.0130   44.1450 N   0  0  0  0  0  0  0  0  0  0  0  0
   56.6390   30.2930   44.5520 C   0  0  0  0  0  0  0  0  0  0  0  0
   58.1100   27.1780   43.8320 N   0  0  0  0  0  0  0  0  0  0  0  0
   60.4173   28.1022   46.9742 H   0  0  0  0  0  0  0  0  0  0  0  0
   59.6053   26.8414   45.9855 H   0  0  0  0  0  0  0  0  0  0  0  0
   61.3972   26.9669   45.9855 H   0  0  0  0  0  0  0  0  0  0  0  0
   61.1506   29.2611   45.0255 H   0  0  0  0  0  0  0  0  0  0  0  0
   60.5741   27.9035   43.9650 H   0  0  0  0  0  0  0  0  0  0  0  0
   59.6871   30.9930   45.5866 H   0  0  0  0  0  0  0  0  0  0  0  0
   56.4474   32.5143   45.6345 H   0  0  0  0  0  0  0  0  0  0  0  0
   58.1934   32.1176   47.6758 H   0  0  0  0  0  0  0  0  0  0  0  0
   59.1160   34.5760   47.4728 H   0  0  0  0  0  0  0  0  0  0  0  0
   57.4044   35.1259   45.2287 H   0  0  0  0  0  0  0  0  0  0  0  0
   59.8680   35.7170   45.6400 H   0  0  0  0  0  0  0  0  0  0  0  0
   57.7546   33.3632   43.5595 H   0  0  0  0  0  0  0  0  0  0  0  0
   59.2772   32.8627   44.1838 H   0  0  0  0  0  0  0  0  0  0  0  0
   56.0090   28.4670   43.7450 H   0  0  0  0  0  0  0  0  0  0  0  0
   57.3450   26.6610   43.3540 H   0  0  0  0  0  0  0  0  0  0  0  0
  1  2  1  0
  2  3  1  0
  3  4  2  0
  4  5  1  0
  5  6  1  0
  6  7  1  0
  7  8  2  0
  8  9  1  0
  9 10  1  0
  9 11  1  0
  5 12  1  0
 12 13  2  0
 12 14  1  0
 14 15  1  0
 15 16  2  3
 15  3  1  0
 11  6  1  0
  1 17  1  0
  1 18  1  0
  1 19  1  0
  2 20  1  0
  2 21  1  0
  4 22  1  0
  6 23  1  1
  7 24  1  0
  8 25  1  0
  9 26  1  1
 10 27  1  0
 11 28  1  0
 11 29  1  0
 14 30  1  0
 16 31  1  0
M  END
>  <smiles>  (8) 
CCc1cn(C2C=CC(O)C2)c(=O)[nH]c1=N

>  <score_type>  (8) 
oracle

>  <origin>  (8) 
adg

>  <m_score__min__energy>  (8) 
-6.5499999999999998

>  <m_primary>  (8) 
energy

$$$$
8:0
     RDKit          3D

 38 40  0  0  0  0  0  0  0  0999 V2000
   51.3941   29.6223   54.3176 H   0  0  0  0  0  0  0  0  0  0  0  0
   52.1550   28.8300   54.3750 C   0  0  0  0  0  0  0  0  0  0  0  0
   51.9593   27.9209   54.9626 H   0  0  0  0  0  0  0  0  0  0  0  0
   53.3260   28.9730   53.7260 C   0  0  0  0  0  0  0  0  0  0  0  0
   53.7050   30.1770   53.0570 C   0  0  0  0  0  0  0  0  0  0  0  0
   52.8390   31.1620   52.6860 C   0  0  0  0  0  0  0  0  0  0  0  0
   52.6093   31.9321   53.4371 H   0  0  0  0  0  0  0  0  0  0  0  0
   52.1800   31.2930   51.3710 C   0  0  0  0  0  0  0  0  0  0  0  0
   52.1880   30.3230   50.4410 N   0  0  0  0  0  0  0  0  0  0  0  0
   51.3960   30.8180   49.4660 C   0  0  0  0  0  0  0  0  0  0  0  0
   51.1640   30.1920   48.3980 O   0  0  0  0  0  0  0  0  0  0  0  0
   50.8610   32.0290   49.7280 N   0  0  0  0  0  0  0  0  0  0  0  0
   51.3550   32.3110   50.9440 C   0  0  0  0  0  0  0  0  0  0  0  0
   51.0330   33.4590   51.6590 O   0  0  0  0  0  0  0  0  0  0  0  0
   55.0810   30.3310   52.7470 C   0  0  0  0  0  0  0  0  0  0  0  0
   55.5000   31.4270   52.2750 O   0  0  0  0  0  0  0  0  0  0  0  0
   55.9620   29.2940   52.9210 N   0  0  0  0  0  0  0  0  0  0  0  0
   57.3900   29.4680   52.5800 C   0  0  0  0  0  0  0  0  0  0  0  0
   57.8776   28.4826   52.5450 H   0  0  0  0  0  0  0  0  0  0  0  0
   57.4667   29.9609   51.5996 H   0  0  0  0  0  0  0  0  0  0  0  0
   58.0840   30.3380   53.6310 C   0  0  0  0  0  0  0  0  0  0  0  0
   57.4120   30.4692   54.4919 H   0  0  0  0  0  0  0  0  0  0  0  0
   59.0134   29.8400   53.9445 H   0  0  0  0  0  0  0  0  0  0  0  0
   58.4270   31.6880   53.0620 C   0  0  0  0  0  0  0  0  0  0  0  0
   58.5250   32.8080   53.9040 C   0  0  0  0  0  0  0  0  0  0  0  0
   58.3761   32.6933   54.9878 H   0  0  0  0  0  0  0  0  0  0  0  0
   58.8110   34.0680   53.3700 C   0  0  0  0  0  0  0  0  0  0  0  0
   58.8945   34.9405   54.0347 H   0  0  0  0  0  0  0  0  0  0  0  0
   58.9910   34.2200   51.9920 C   0  0  0  0  0  0  0  0  0  0  0  0
   59.2184   35.2114   51.5732 H   0  0  0  0  0  0  0  0  0  0  0  0
   58.8820   33.1120   51.1460 C   0  0  0  0  0  0  0  0  0  0  0  0
   59.0215   33.2328   50.0616 H   0  0  0  0  0  0  0  0  0  0  0  0
   58.5960   31.8510   51.6770 C   0  0  0  0  0  0  0  0  0  0  0  0
   58.5029   30.9830   51.0078 H   0  0  0  0  0  0  0  0  0  0  0  0
   55.5250   28.1080   53.4440 C   0  0  0  0  0  0  0  0  0  0  0  0
   56.3230   27.1430   53.6010 O   0  0  0  0  0  0  0  0  0  0  0  0
   54.2330   27.9610   53.8310 N   0  0  0  0  0  0  0  0  0  0  0  0
   53.9600   27.0540   54.2760 H   0  0  0  0  0  0  0  0  0  0  0  0
  1  2  1  0
  2  3  1  0
  2  4  2  0
  4  5  1  0
  5  6  2  0
  6  7  1  0
  6  8  1  0
  8  9  1  0
  9 10  1  0
 10 11  2  0
 10 12  1  0
 12 13  1  0
 13 14  1  0
  5 15  1  0
 15 16  2  0
 15 17  1  0
 17 18  1  0
 18 19  1  0
 18 20  1  0
 18 21  1  0
 21 22  1  0
 21 23  1  0
 21 24  1  0
 24 25  2  0
 25 26  1  0
 25 27  1  0
 27 28  1  0
 27 29  2  0
 29 30  1  0
 29 31  1  0
 31 32  1  0
 31 33  2  0
 33 34  1  0
 17 35  1  0
 35 36  2  0
 35 37  1  0
 37 38  1  0
 37  4  1  0
 13  8  2  0
 33 24  1  0
M  CHG  3   9  -1  12  -1  14  -1
M  END
>  <UniqueID>  (9) 
8

>  <SMILES>  (9) 
C=c1[nH]c(=O)n(CCc2ccccc2)c(=O)/c1=C/c1[n-]c(=O)[n-]c1[O-]

>  <Energy>  (9) 
95.15767127338674

>  <Genealogy>  (9) 
C=c1[nH]c(=O)n(CCc2ccccc2)c(=O)c1=Cc1[n-]c(=O)[n-]c1[O-] (protonated)
C=c1[nH]c(=O)n(CCc2ccccc2)c(=O)/c1=C/c1[n-]c(=O)[n-]c1[O-] (cis-trans isomerization)
C=c1[nH]c(=O)n(CCc2ccccc2)c(=O)/c1=C/c1[n-]c(=O)[n-]c1[O-] (3D coordinates assigned)
C=c1[nH]c(=O)n(CCc2ccccc2)c(=O)/c1=C/c1[n-]c(=O)[n-]c1[O-] (optimized conformer: 95.15767127338674 kcal/mol)

>  <smiles>  (9) 
C=c1[nH]c(=O)n(CCc2ccccc2)c(=O)c1=Cc1[nH]c(=O)[nH]c1O

>  <score_type>  (9) 
oracle

>  <origin>  (9) 
adg

>  <m_score__min__energy>  (9) 
-16.100000000000001

>  <m_primary>  (9) 
energy

$$$$
9:0
     RDKit          3D

 65 68  0  0  0  0  0  0  0  0999 V2000
   60.1080   30.6310   49.8520 C   0  0  0  0  0  0  0  0  0  0  0  0
   59.5410   30.0270   48.6330 N   0  0  0  0  0  0  0  0  0  0  0  0
   59.2620   28.5950   48.8530 C   0  0  0  0  0  0  0  0  0  0  0  0
   58.4880   28.0280   47.6600 C   0  0  0  0  0  0  0  0  0  0  0  0
   59.0760   28.4660   46.3850 N   0  0  0  0  0  0  0  0  0  0  0  0
   58.4990   28.0440   45.1280 C   0  0  0  0  0  0  0  0  0  0  0  0
   59.2050   28.0770   44.0810 O   0  0  0  0  0  0  0  0  0  0  0  0
   57.0570   27.5840   45.0310 C   0  0  1  0  0  0  0  0  0  0  0  0
   56.7430   26.4090   45.9830 C   0  0  0  0  0  0  0  0  0  0  0  0
   56.8090   25.0820   45.2690 C   0  0  0  0  0  0  0  0  0  0  0  0
   58.0410   24.4330   45.0820 C   0  0  0  0  0  0  0  0  0  0  0  0
   58.0960   23.1910   44.4400 C   0  0  0  0  0  0  0  0  0  0  0  0
   56.9240   22.5890   43.9770 C   0  0  0  0  0  0  0  0  0  0  0  0
   56.9920   21.0330   43.1680 Cl  0  0  0  0  0  0  0  0  0  0  0  0
   55.6920   23.2260   44.1660 C   0  0  0  0  0  0  0  0  0  0  0  0
   55.6340   24.4640   44.8130 C   0  0  0  0  0  0  0  0  0  0  0  0
   56.1180   28.6920   45.2430 N   0  0  0  0  0  0  0  0  0  0  0  0
   55.9510   29.8640   44.4320 C   0  0  0  0  0  0  0  0  0  0  0  0
   54.9670   29.9270   43.6510 O   0  0  0  0  0  0  0  0  0  0  0  0
   56.8830   30.9960   44.4840 C   0  0  0  0  0  0  0  0  0  0  0  0
   57.6890   31.4280   43.4480 C   0  0  0  0  0  0  0  0  0  0  0  0
   58.3590   32.5300   43.9330 C   0  0  0  0  0  0  0  0  0  0  0  0
   57.9130   32.7000   45.2290 C   0  0  0  0  0  0  0  0  0  0  0  0
   58.3320   33.7940   46.1650 C   0  0  0  0  0  0  0  0  0  0  0  0
   59.1270   33.2760   47.3350 C   0  0  0  0  0  0  0  0  0  0  0  0
   58.5440   32.6960   48.2910 O   0  0  0  0  0  0  0  0  0  0  0  0
   60.5550   33.4510   47.3860 N   0  0  0  0  0  0  0  0  0  0  0  0
   61.3570   33.0380   48.5250 C   0  0  0  0  0  0  0  0  0  0  0  0
   62.7690   33.5270   48.2340 C   0  0  0  0  0  0  0  0  0  0  0  0
   62.8020   33.8460   46.7400 C   0  0  0  0  0  0  0  0  0  0  0  0
   61.3490   34.0350   46.3180 C   0  0  0  0  0  0  0  0  0  0  0  0
   57.0250   31.7790   45.5270 O   0  0  0  0  0  0  0  0  0  0  0  0
   60.3820   29.1390   46.4000 C   0  0  0  0  0  0  0  0  0  0  0  0
   60.4410   30.2530   47.4680 C   0  0  0  0  0  0  0  0  0  0  0  0
   59.6620   30.1559   50.7382 H   0  0  0  0  0  0  0  0  0  0  0  0
   61.1974   30.4792   49.8638 H   0  0  0  0  0  0  0  0  0  0  0  0
   59.8878   31.7087   49.8638 H   0  0  0  0  0  0  0  0  0  0  0  0
   58.6280   30.5110   48.4430 H   0  0  0  0  0  0  0  0  0  0  0  0
   60.2115   28.0509   48.9642 H   0  0  0  0  0  0  0  0  0  0  0  0
   58.6589   28.4786   49.7656 H   0  0  0  0  0  0  0  0  0  0  0  0
   58.5117   26.9293   47.7069 H   0  0  0  0  0  0  0  0  0  0  0  0
   57.4530   28.3972   47.7102 H   0  0  0  0  0  0  0  0  0  0  0  0
   56.9229   27.2136   44.0039 H   0  0  0  0  0  0  0  0  0  0  0  0
   57.4753   26.4093   46.8039 H   0  0  0  0  0  0  0  0  0  0  0  0
   55.7210   26.5419   46.3676 H   0  0  0  0  0  0  0  0  0  0  0  0
   58.9675   24.9039   45.4423 H   0  0  0  0  0  0  0  0  0  0  0  0
   59.0641   22.6879   44.2997 H   0  0  0  0  0  0  0  0  0  0  0  0
   54.7676   22.7516   43.8048 H   0  0  0  0  0  0  0  0  0  0  0  0
   54.6623   24.9565   44.9656 H   0  0  0  0  0  0  0  0  0  0  0  0
   57.7773   30.9846   42.4452 H   0  0  0  0  0  0  0  0  0  0  0  0
   59.0965   33.1468   43.3985 H   0  0  0  0  0  0  0  0  0  0  0  0
   58.9493   34.5161   45.6105 H   0  0  0  0  0  0  0  0  0  0  0  0
   57.4198   34.2639   46.5612 H   0  0  0  0  0  0  0  0  0  0  0  0
   60.9753   33.4964   49.4492 H   0  0  0  0  0  0  0  0  0  0  0  0
   61.3266   31.9479   48.6689 H   0  0  0  0  0  0  0  0  0  0  0  0
   62.9904   34.4293   48.8229 H   0  0  0  0  0  0  0  0  0  0  0  0
   63.5216   32.7710   48.5023 H   0  0  0  0  0  0  0  0  0  0  0  0
   63.3755   34.7669   46.5585 H   0  0  0  0  0  0  0  0  0  0  0  0
   63.2864   33.0416   46.1670 H   0  0  0  0  0  0  0  0  0  0  0  0
   61.1169   35.1045   46.2073 H   0  0  0  0  0  0  0  0  0  0  0  0
   61.1408   33.5596   45.3481 H   0  0  0  0  0  0  0  0  0  0  0  0
   61.1631   28.3956   46.6174 H   0  0  0  0  0  0  0  0  0  0  0  0
   60.5396   29.6015   45.4145 H   0  0  0  0  0  0  0  0  0  0  0  0
   61.4745   30.3222   47.8382 H   0  0  0  0  0  0  0  0  0  0  0  0
   60.1016   31.1785   46.9799 H   0  0  0  0  0  0  0  0  0  0  0  0
  1  2  1  0
  2  3  1  0
  3  4  1  0
  4  5  1  0
  5  6  1  0
  6  7  2  0
  6  8  1  0
  8  9  1  0
  9 10  1  0
 10 11  2  0
 11 12  1  0
 12 13  2  0
 13 14  1  0
 13 15  1  0
 15 16  2  0
  8 17  1  0
 17 18  1  0
 18 19  2  0
 18 20  1  0
 20 21  2  0
 21 22  1  0
 22 23  2  0
 23 24  1  0
 24 25  1  0
 25 26  2  0
 25 27  1  0
 27 28  1  0
 28 29  1  0
 29 30  1  0
 30 31  1  0
 23 32  1  0
  5 33  1  0
 33 34  1  0
 34  2  1  0
 16 10  1  0
 32 20  1  0
 31 27  1  0
  1 35  1  0
  1 36  1  0
  1 37  1  0
  2 38  1  0
  3 39  1  0
  3 40  1  0
  4 41  1  0
  4 42  1  0
  8 43  1  6
  9 44  1  0
  9 45  1  0
 11 46  1  0
 12 47  1  0
 15 48  1  0
 16 49  1  0
 21 50  1  0
 22 51  1  0
 24 52  1  0
 24 53  1  0
 28 54  1  0
 28 55  1  0
 29 56  1  0
 29 57  1  0
 30 58  1  0
 30 59  1  0
 31 60  1  0
 31 61  1  0
 33 62  1  0
 33 63  1  0
 34 64  1  0
 34 65  1  0
M  CHG  2   2   1  17  -1
M  END
>  <UniqueID>  (10) 
9

>  <SMILES>  (10) 
C[NH+]1CCN(C(=O)[C@@H](Cc2ccc(Cl)cc2)[N-]C(=O)c2ccc(CC(=O)N3CCCC3)o2)CC1

>  <Energy>  (10) 
101.40988837451398

>  <Genealogy>  (10) 
C[NH+]1CCN(C(=O)C(Cc2ccc(Cl)cc2)[N-]C(=O)c2ccc(CC(=O)N3CCCC3)o2)CC1 (protonated)
C[NH+]1CCN(C(=O)[C@@H](Cc2ccc(Cl)cc2)[N-]C(=O)c2ccc(CC(=O)N3CCCC3)o2)CC1 (chirality)
C[NH+]1CCN(C(=O)[C@@H](Cc2ccc(Cl)cc2)[N-]C(=O)c2ccc(CC(=O)N3CCCC3)o2)CC1 (3D coordinates assigned)
C[NH+]1CCN(C(=O)[C@@H](Cc2ccc(Cl)cc2)[N-]C(=O)c2ccc(CC(=O)N3CCCC3)o2)CC1 (nonaromatic ring conformer: 101.40988837451398 kcal/mol)

>  <smiles>  (10) 
CN1CCN(C(=O)C(Cc2ccc(Cl)cc2)NC(=O)c2ccc(CC(=O)N3CCCC3)o2)CC1

>  <score_type>  (10) 
oracle

>  <origin>  (10) 
adg

>  <m_score__min__energy>  (10) 
-10.26

>  <m_primary>  (10) 
energy

$$$$
10:0
     RDKit          3D

 62 65  0  0  0  0  0  0  0  0999 V2000
   53.6090   24.6790   45.6070 C   0  0  0  0  0  0  0  0  0  0  0  0
   54.7950   25.3720   45.9820 O   0  0  0  0  0  0  0  0  0  0  0  0
   56.0790   24.8050   45.9810 C   0  0  0  0  0  0  0  0  0  0  0  0
   56.2770   23.4110   45.9060 C   0  0  0  0  0  0  0  0  0  0  0  0
   57.5670   22.8790   45.9000 C   0  0  0  0  0  0  0  0  0  0  0  0
   58.6740   23.7250   45.9630 C   0  0  0  0  0  0  0  0  0  0  0  0
   58.4930   25.1080   46.0390 C   0  0  0  0  0  0  0  0  0  0  0  0
   57.1990   25.6560   46.0650 C   0  0  0  0  0  0  0  0  0  0  0  0
   57.0140   27.0820   46.1120 N   0  0  0  0  0  0  0  0  0  0  0  0
   57.3180   27.9730   45.0270 C   0  0  0  0  0  0  0  0  0  0  0  0
   58.4920   27.5870   43.9360 S   0  0  0  0  0  0  0  0  0  0  0  0
   56.6410   29.2400   44.9610 N   0  0  0  0  0  0  0  0  0  0  0  0
   57.0510   30.3170   44.1040 C   0  0  0  0  0  0  0  0  0  0  0  0
   56.5940   30.3360   42.7800 C   0  0  0  0  0  0  0  0  0  0  0  0
   57.0100   31.3380   41.9010 C   0  0  0  0  0  0  0  0  0  0  0  0
   57.8800   32.3350   42.3420 C   0  0  0  0  0  0  0  0  0  0  0  0
   58.3250   32.3450   43.6660 C   0  0  0  0  0  0  0  0  0  0  0  0
   57.9070   31.3480   44.5660 C   0  0  0  0  0  0  0  0  0  0  0  0
   58.3300   31.4260   45.9830 C   0  0  0  0  0  0  0  0  0  0  0  0
   57.8750   32.3450   46.7140 O   0  0  0  0  0  0  0  0  0  0  0  0
   59.2140   30.4340   46.5340 N   0  0  0  0  0  0  0  0  0  0  0  0
   59.7270   30.4820   47.8760 C   0  0  0  0  0  0  0  0  0  0  0  0
   59.8230   29.2960   48.6170 C   0  0  0  0  0  0  0  0  0  0  0  0
   60.3250   29.3150   49.9190 C   0  0  0  0  0  0  0  0  0  0  0  0
   60.7460   30.5170   50.4910 C   0  0  0  0  0  0  0  0  0  0  0  0
   60.6710   31.7110   49.7600 C   0  0  0  0  0  0  0  0  0  0  0  0
   61.2280   33.2240   50.4780 S   0  0  0  0  0  0  0  0  0  0  0  0
   60.0920   34.2090   50.4610 O   0  0  0  0  0  0  0  0  0  0  0  0
   61.5980   32.9810   51.9160 O   0  0  0  0  0  0  0  0  0  0  0  0
   62.5940   33.9230   49.6310 N   0  0  0  0  0  0  0  0  0  0  0  0
   63.8890   33.4140   50.1190 C   0  0  0  0  0  0  0  0  0  0  0  0
   64.2560   32.0360   49.5220 C   0  0  0  0  0  0  0  0  0  0  0  0
   63.4180   31.6450   48.4520 O   0  0  0  0  0  0  0  0  0  0  0  0
   63.2800   32.7090   47.5390 C   0  0  0  0  0  0  0  0  0  0  0  0
   62.4550   33.8500   48.1620 C   0  0  0  0  0  0  0  0  0  0  0  0
   60.1750   31.6880   48.4470 C   0  0  0  0  0  0  0  0  0  0  0  0
   53.0678   24.3628   46.5109 H   0  0  0  0  0  0  0  0  0  0  0  0
   52.9684   25.3449   45.0102 H   0  0  0  0  0  0  0  0  0  0  0  0
   53.8746   23.7940   45.0102 H   0  0  0  0  0  0  0  0  0  0  0  0
   55.4085   22.7381   45.8518 H   0  0  0  0  0  0  0  0  0  0  0  0
   57.7111   21.7898   45.8455 H   0  0  0  0  0  0  0  0  0  0  0  0
   59.6898   23.3031   45.9528 H   0  0  0  0  0  0  0  0  0  0  0  0
   59.3688   25.7724   46.0788 H   0  0  0  0  0  0  0  0  0  0  0  0
   56.6490   27.5040   46.9940 H   0  0  0  0  0  0  0  0  0  0  0  0
   55.7360   29.3390   45.4710 H   0  0  0  0  0  0  0  0  0  0  0  0
   55.9022   29.5556   42.4301 H   0  0  0  0  0  0  0  0  0  0  0  0
   56.6517   31.3411   40.8610 H   0  0  0  0  0  0  0  0  0  0  0  0
   58.2169   33.1162   41.6447 H   0  0  0  0  0  0  0  0  0  0  0  0
   59.0069   33.1379   44.0072 H   0  0  0  0  0  0  0  0  0  0  0  0
   59.3530   29.5520   45.9920 H   0  0  0  0  0  0  0  0  0  0  0  0
   59.5006   28.3443   48.1694 H   0  0  0  0  0  0  0  0  0  0  0  0
   60.3891   28.3807   50.4960 H   0  0  0  0  0  0  0  0  0  0  0  0
   61.1379   30.5273   51.5188 H   0  0  0  0  0  0  0  0  0  0  0  0
   64.6744   34.1347   49.8477 H   0  0  0  0  0  0  0  0  0  0  0  0
   63.8062   33.2907   51.2089 H   0  0  0  0  0  0  0  0  0  0  0  0
   65.2921   32.0800   49.1551 H   0  0  0  0  0  0  0  0  0  0  0  0
   64.1288   31.2918   50.3220 H   0  0  0  0  0  0  0  0  0  0  0  0
   64.2773   33.0878   47.2711 H   0  0  0  0  0  0  0  0  0  0  0  0
   62.7600   32.3427   46.6415 H   0  0  0  0  0  0  0  0  0  0  0  0
   62.7920   34.8036   47.7296 H   0  0  0  0  0  0  0  0  0  0  0  0
   61.3961   33.6517   47.9397 H   0  0  0  0  0  0  0  0  0  0  0  0
   60.1362   32.6180   47.8609 H   0  0  0  0  0  0  0  0  0  0  0  0
  1  2  1  0
  2  3  1  0
  3  4  2  0
  4  5  1  0
  5  6  2  0
  6  7  1  0
  7  8  2  0
  8  9  1  0
  9 10  1  0
 10 11  2  0
 10 12  1  0
 12 13  1  0
 13 14  2  0
 14 15  1  0
 15 16  2  0
 16 17  1  0
 17 18  2  0
 18 19  1  0
 19 20  2  0
 19 21  1  0
 21 22  1  0
 22 23  2  0
 23 24  1  0
 24 25  2  0
 25 26  1  0
 26 27  1  0
 27 28  2  0
 27 29  2  0
 27 30  1  0
 30 31  1  0
 31 32  1  0
 32 33  1  0
 33 34  1  0
 34 35  1  0
 26 36  2  0
  8  3  1  0
 18 13  1  0
 36 22  1  0
 35 30  1  0
  1 37  1  0
  1 38  1  0
  1 39  1  0
  4 40  1  0
  5 41  1  0
  6 42  1  0
  7 43  1  0
  9 44  1  0
 12 45  1  0
 14 46  1  0
 15 47  1  0
 16 48  1  0
 17 49  1  0
 21 50  1  0
 23 51  1  0
 24 52  1  0
 25 53  1  0
 31 54  1  0
 31 55  1  0
 32 56  1  0
 32 57  1  0
 34 58  1  0
 34 59  1  0
 35 60  1  0
 35 61  1  0
 36 62  1  0
M  END
>  <UniqueID>  (11) 
10

>  <SMILES>  (11) 
COc1ccccc1NC(=S)Nc1ccccc1C(=O)Nc1cccc(S(=O)(=O)N2CCOCC2)c1

>  <Energy>  (11) 
92.51449039233654

>  <Genealogy>  (11) 
COc1ccccc1NC(=S)Nc1ccccc1C(=O)Nc1cccc(S(=O)(=O)N2CCOCC2)c1 (3D coordinates assigned)
COc1ccccc1NC(=S)Nc1ccccc1C(=O)Nc1cccc(S(=O)(=O)N2CCOCC2)c1 (nonaromatic ring conformer: 92.51449039233654 kcal/mol)

>  <smiles>  (11) 
COc1ccccc1NC(=S)Nc1ccccc1C(=O)Nc1cccc(S(=O)(=O)N2CCOCC2)c1

>  <score_type>  (11) 
oracle

>  <origin>  (11) 
adg

>  <m_score__min__energy>  (11) 
-10.279999999999999

>  <m_primary>  (11) 
energy

$$$$
11:0
     RDKit          3D

 59 61  0  0  0  0  0  0  0  0999 V2000
   57.4090   32.1570   44.4300 C   0  0  0  0  0  0  0  0  0  0  0  0
   58.3270   31.2060   45.1920 C   0  0  0  0  0  0  0  0  0  0  0  0
   59.1710   31.9920   46.2040 C   0  0  0  0  0  0  0  0  0  0  0  0
   57.5010   30.2110   45.8780 N   0  0  0  0  0  0  0  0  0  0  0  0
   56.7860   29.0680   44.7770 S   0  0  0  0  0  0  0  0  0  0  0  0
   57.3920   29.2630   43.4160 O   0  0  0  0  0  0  0  0  0  0  0  0
   55.3080   29.3160   44.6710 O   0  0  0  0  0  0  0  0  0  0  0  0
   57.0850   27.4080   45.2830 C   0  0  0  0  0  0  0  0  0  0  0  0
   56.6410   26.9720   46.5380 C   0  0  0  0  0  0  0  0  0  0  0  0
   56.8850   25.6590   46.9580 C   0  0  0  0  0  0  0  0  0  0  0  0
   57.5830   24.7620   46.1280 C   0  0  0  0  0  0  0  0  0  0  0  0
   57.8820   23.3880   46.5880 C   0  0  0  0  0  0  0  0  0  0  0  0
   58.6020   22.6290   45.8840 O   0  0  0  0  0  0  0  0  0  0  0  0
   57.3600   22.9150   47.8350 N   0  0  0  0  0  0  0  0  0  0  0  0
   56.6550   21.6460   47.9910 C   0  0  0  0  0  0  0  0  0  0  0  0
   55.2190   21.7890   47.5510 C   0  0  0  0  0  0  0  0  0  0  0  0
   54.3580   22.1920   48.3750 O   0  0  0  0  0  0  0  0  0  0  0  0
   54.8070   21.5120   46.2050 N   0  0  0  0  0  0  0  0  0  0  0  0
   55.4330   21.9920   45.0010 C   0  0  0  0  0  0  0  0  0  0  0  0
   56.3660   21.1920   44.3150 C   0  0  0  0  0  0  0  0  0  0  0  0
   56.9540   21.6400   43.1280 C   0  0  0  0  0  0  0  0  0  0  0  0
   56.6180   22.8950   42.6220 C   0  0  0  0  0  0  0  0  0  0  0  0
   55.6740   23.6930   43.2800 C   0  0  0  0  0  0  0  0  0  0  0  0
   55.0610   23.2490   44.4630 C   0  0  0  0  0  0  0  0  0  0  0  0
   54.0060   24.0920   45.0850 C   0  0  0  0  0  0  0  0  0  0  0  0
   54.3240   25.0140   45.8830 O   0  0  0  0  0  0  0  0  0  0  0  0
   52.6170   23.8270   44.8420 N   0  0  0  0  0  0  0  0  0  0  0  0
   52.1230   23.8700   43.4540 C   0  0  0  0  0  0  0  0  0  0  0  0
   50.5950   23.7460   43.3870 C   0  0  0  0  0  0  0  0  0  0  0  0
   50.1230   22.8000   44.3210 O   0  0  0  0  0  0  0  0  0  0  0  0
   50.3020   23.3190   45.6210 C   0  0  0  0  0  0  0  0  0  0  0  0
   51.7900   23.3940   45.9770 C   0  0  0  0  0  0  0  0  0  0  0  0
   58.0060   25.1990   44.8590 C   0  0  0  0  0  0  0  0  0  0  0  0
   57.7550   26.5100   44.4380 C   0  0  0  0  0  0  0  0  0  0  0  0
   56.8286   32.7582   45.1454 H   0  0  0  0  0  0  0  0  0  0  0  0
   58.0144   32.8230   43.7976 H   0  0  0  0  0  0  0  0  0  0  0  0
   56.7220   31.5754   43.7976 H   0  0  0  0  0  0  0  0  0  0  0  0
   59.0105   30.7001   44.4942 H   0  0  0  0  0  0  0  0  0  0  0  0
   58.8721   31.7137   47.2254 H   0  0  0  0  0  0  0  0  0  0  0  0
   60.2351   31.7556   46.0561 H   0  0  0  0  0  0  0  0  0  0  0  0
   59.0109   33.0702   46.0561 H   0  0  0  0  0  0  0  0  0  0  0  0
   56.0977   27.6651   47.1971 H   0  0  0  0  0  0  0  0  0  0  0  0
   56.5286   25.3260   47.9439 H   0  0  0  0  0  0  0  0  0  0  0  0
   57.1484   20.8785   47.3765 H   0  0  0  0  0  0  0  0  0  0  0  0
   56.6776   21.3513   49.0505 H   0  0  0  0  0  0  0  0  0  0  0  0
   56.6354   20.2041   44.7168 H   0  0  0  0  0  0  0  0  0  0  0  0
   57.6781   21.0054   42.5961 H   0  0  0  0  0  0  0  0  0  0  0  0
   57.0968   23.2601   41.7014 H   0  0  0  0  0  0  0  0  0  0  0  0
   55.4100   24.6774   42.8662 H   0  0  0  0  0  0  0  0  0  0  0  0
   52.4226   24.8257   42.9992 H   0  0  0  0  0  0  0  0  0  0  0  0
   52.5585   23.0187   42.9103 H   0  0  0  0  0  0  0  0  0  0  0  0
   50.1447   24.7250   43.6077 H   0  0  0  0  0  0  0  0  0  0  0  0
   50.3145   23.4116   42.3773 H   0  0  0  0  0  0  0  0  0  0  0  0
   49.8684   24.3288   45.6690 H   0  0  0  0  0  0  0  0  0  0  0  0
   49.8011   22.6526   46.3386 H   0  0  0  0  0  0  0  0  0  0  0  0
   51.9201   24.1098   46.8021 H   0  0  0  0  0  0  0  0  0  0  0  0
   52.1173   22.3838   46.2640 H   0  0  0  0  0  0  0  0  0  0  0  0
   58.5383   24.5045   44.1924 H   0  0  0  0  0  0  0  0  0  0  0  0
   58.0842   26.8377   43.4409 H   0  0  0  0  0  0  0  0  0  0  0  0
  1  2  1  0
  2  3  1  0
  2  4  1  0
  4  5  1  0
  5  6  2  0
  5  7  2  0
  5  8  1  0
  8  9  2  0
  9 10  1  0
 10 11  2  0
 11 12  1  0
 12 13  2  0
 12 14  1  0
 14 15  1  0
 15 16  1  0
 16 17  2  0
 16 18  1  0
 18 19  1  0
 19 20  2  0
 20 21  1  0
 21 22  2  0
 22 23  1  0
 23 24  2  0
 24 25  1  0
 25 26  2  0
 25 27  1  0
 27 28  1  0
 28 29  1  0
 29 30  1  0
 30 31  1  0
 31 32  1  0
 11 33  1  0
 33 34  2  0
 34  8  1  0
 24 19  1  0
 32 27  1  0
  1 35  1  0
  1 36  1  0
  1 37  1  0
  2 38  1  0
  3 39  1  0
  3 40  1  0
  3 41  1  0
  9 42  1  0
 10 43  1  0
 15 44  1  0
 15 45  1  0
 20 46  1  0
 21 47  1  0
 22 48  1  0
 23 49  1  0
 28 50  1  0
 28 51  1  0
 29 52  1  0
 29 53  1  0
 31 54  1  0
 31 55  1  0
 32 56  1  0
 32 57  1  0
 33 58  1  0
 34 59  1  0
M  CHG  3   4  -1  14  -1  18  -1
M  END
>  <UniqueID>  (12) 
11

>  <SMILES>  (12) 
CC(C)[N-]S(=O)(=O)c1ccc(C(=O)[N-]CC(=O)[N-]c2ccccc2C(=O)N2CCOCC2)cc1

>  <Energy>  (12) 
70.77055470890734

>  <Genealogy>  (12) 
CC(C)[N-]S(=O)(=O)c1ccc(C(=O)[N-]CC(=O)[N-]c2ccccc2C(=O)N2CCOCC2)cc1 (protonated)
CC(C)[N-]S(=O)(=O)c1ccc(C(=O)[N-]CC(=O)[N-]c2ccccc2C(=O)N2CCOCC2)cc1 (3D coordinates assigned)
CC(C)[N-]S(=O)(=O)c1ccc(C(=O)[N-]CC(=O)[N-]c2ccccc2C(=O)N2CCOCC2)cc1 (nonaromatic ring conformer: 70.77055470890734 kcal/mol)

>  <smiles>  (12) 
CC(C)NS(=O)(=O)c1ccc(C(=O)NCC(=O)Nc2ccccc2C(=O)N2CCOCC2)cc1

>  <score_type>  (12) 
oracle

>  <origin>  (12) 
adg

>  <m_score__min__energy>  (12) 
-14.890000000000001

>  <m_primary>  (12) 
energy

$$$$
12:0
     RDKit          3D

 57 60  0  0  0  0  0  0  0  0999 V2000
   54.9030   26.3300   45.9630 N   0  0  0  0  0  0  0  0  0  0  0  0
   56.3770   25.5350   46.3930 S   0  0  0  0  0  0  0  0  0  0  0  0
   56.1540   24.6870   47.6130 O   0  0  0  0  0  0  0  0  0  0  0  0
   56.8050   24.6570   45.2500 O   0  0  0  0  0  0  0  0  0  0  0  0
   57.6170   26.7370   46.7350 C   0  0  0  0  0  0  0  0  0  0  0  0
   58.5410   26.5100   47.7630 C   0  0  0  0  0  0  0  0  0  0  0  0
   59.5360   27.4530   48.0370 C   0  0  0  0  0  0  0  0  0  0  0  0
   59.6160   28.6340   47.2840 C   0  0  0  0  0  0  0  0  0  0  0  0
   60.6400   29.6050   47.5650 N   0  0  0  0  0  0  0  0  0  0  0  0
   61.1190   30.4860   46.4930 C   0  0  0  0  0  0  0  0  0  0  0  0
   60.5530   31.8670   46.6750 C   0  0  0  0  0  0  0  0  0  0  0  0
   61.3520   32.8900   47.2130 C   0  0  0  0  0  0  0  0  0  0  0  0
   60.8120   34.1620   47.4310 C   0  0  0  0  0  0  0  0  0  0  0  0
   59.4720   34.4160   47.1280 C   0  0  0  0  0  0  0  0  0  0  0  0
   58.9490   35.6480   47.3440 F   0  0  0  0  0  0  0  0  0  0  0  0
   58.6680   33.3980   46.6070 C   0  0  0  0  0  0  0  0  0  0  0  0
   59.2030   32.1250   46.3870 C   0  0  0  0  0  0  0  0  0  0  0  0
   61.1960   29.7040   48.9210 C   0  0  0  0  0  0  0  0  0  0  0  0
   60.1980   30.3600   49.8330 C   0  0  0  0  0  0  0  0  0  0  0  0
   59.9530   29.8360   51.1100 C   0  0  0  0  0  0  0  0  0  0  0  0
   59.0660   30.4780   51.9780 C   0  0  0  0  0  0  0  0  0  0  0  0
   58.4160   31.6640   51.5880 C   0  0  0  0  0  0  0  0  0  0  0  0
   57.4730   32.3440   52.5080 C   0  0  0  0  0  0  0  0  0  0  0  0
   57.3730   33.6010   52.4820 O   0  0  0  0  0  0  0  0  0  0  0  0
   56.6200   31.5610   53.3630 N   0  0  0  0  0  0  0  0  0  0  0  0
   55.6880   30.7050   53.0400 C   0  0  0  0  0  0  0  0  0  0  0  0
   54.7530   31.0850   52.0680 C   0  0  0  0  0  0  0  0  0  0  0  0
   53.7430   30.1990   51.6880 C   0  0  0  0  0  0  0  0  0  0  0  0
   53.6690   28.9630   52.2490 N   0  0  0  0  0  0  0  0  0  0  0  0
   54.5720   28.5550   53.1800 C   0  0  0  0  0  0  0  0  0  0  0  0
   55.6000   29.4100   53.5900 C   0  0  0  0  0  0  0  0  0  0  0  0
   58.6770   32.1930   50.3100 C   0  0  0  0  0  0  0  0  0  0  0  0
   59.5650   31.5490   49.4440 C   0  0  0  0  0  0  0  0  0  0  0  0
   58.6920   28.8580   46.2520 C   0  0  0  0  0  0  0  0  0  0  0  0
   57.7000   27.9130   45.9770 C   0  0  0  0  0  0  0  0  0  0  0  0
   55.1460   27.0620   45.2590 H   0  0  0  0  0  0  0  0  0  0  0  0
   58.4835   25.5860   48.3571 H   0  0  0  0  0  0  0  0  0  0  0  0
   60.2585   27.2684   48.8456 H   0  0  0  0  0  0  0  0  0  0  0  0
   62.2175   30.5349   46.5244 H   0  0  0  0  0  0  0  0  0  0  0  0
   60.7925   30.0856   45.5219 H   0  0  0  0  0  0  0  0  0  0  0  0
   62.4044   32.6903   47.4633 H   0  0  0  0  0  0  0  0  0  0  0  0
   61.4435   34.9636   47.8417 H   0  0  0  0  0  0  0  0  0  0  0  0
   57.6128   33.5987   46.3697 H   0  0  0  0  0  0  0  0  0  0  0  0
   58.5646   31.3234   45.9872 H   0  0  0  0  0  0  0  0  0  0  0  0
   61.4260   28.6958   49.2960 H   0  0  0  0  0  0  0  0  0  0  0  0
   62.1152   30.3076   48.8938 H   0  0  0  0  0  0  0  0  0  0  0  0
   60.4616   28.9147   51.4303 H   0  0  0  0  0  0  0  0  0  0  0  0
   58.8741   30.0531   52.9743 H   0  0  0  0  0  0  0  0  0  0  0  0
   54.8147   32.0807   51.6046 H   0  0  0  0  0  0  0  0  0  0  0  0
   53.0042   30.5024   50.9316 H   0  0  0  0  0  0  0  0  0  0  0  0
   52.9080   28.3110   51.9540 H   0  0  0  0  0  0  0  0  0  0  0  0
   54.4936   27.5469   53.6131 H   0  0  0  0  0  0  0  0  0  0  0  0
   56.3348   29.0743   54.3365 H   0  0  0  0  0  0  0  0  0  0  0  0
   58.1784   33.1200   49.9905 H   0  0  0  0  0  0  0  0  0  0  0  0
   59.7685   31.9774   48.4515 H   0  0  0  0  0  0  0  0  0  0  0  0
   58.7488   29.7814   45.6569 H   0  0  0  0  0  0  0  0  0  0  0  0
   56.9821   28.0926   45.1632 H   0  0  0  0  0  0  0  0  0  0  0  0
  1  2  1  0
  2  3  2  0
  2  4  2  0
  2  5  1  0
  5  6  2  0
  6  7  1  0
  7  8  2  0
  8  9  1  0
  9 10  1  0
 10 11  1  0
 11 12  2  0
 12 13  1  0
 13 14  2  0
 14 15  1  0
 14 16  1  0
 16 17  2  0
  9 18  1  0
 18 19  1  0
 19 20  2  0
 20 21  1  0
 21 22  2  0
 22 23  1  0
 23 24  2  0
 23 25  1  0
 25 26  2  3
 26 27  1  0
 27 28  2  0
 28 29  1  0
 29 30  1  0
 30 31  2  0
 22 32  1  0
 32 33  2  0
  8 34  1  0
 34 35  2  0
 35  5  1  0
 17 11  1  0
 33 19  1  0
 31 26  1  0
  1 36  1  0
  6 37  1  0
  7 38  1  0
 10 39  1  0
 10 40  1  0
 12 41  1  0
 13 42  1  0
 16 43  1  0
 17 44  1  0
 18 45  1  0
 18 46  1  0
 20 47  1  0
 21 48  1  0
 27 49  1  0
 28 50  1  0
 29 51  1  0
 30 52  1  0
 31 53  1  0
 32 54  1  0
 33 55  1  0
 34 56  1  0
 35 57  1  0
M  CHG  1   1  -1
M  END
>  <UniqueID>  (13) 
12

>  <SMILES>  (13) 
[NH-]S(=O)(=O)c1ccc(N(Cc2ccc(F)cc2)Cc2ccc(C(=O)N=c3cc[nH]cc3)cc2)cc1

>  <Energy>  (13) 
70.14430680911603

>  <Genealogy>  (13) 
[NH-]S(=O)(=O)c1ccc(N(Cc2ccc(F)cc2)Cc2ccc(C(=O)N=c3cc[nH]cc3)cc2)cc1 (protonated)
[NH-]S(=O)(=O)c1ccc(N(Cc2ccc(F)cc2)Cc2ccc(C(=O)N=c3cc[nH]cc3)cc2)cc1 (3D coordinates assigned)
[NH-]S(=O)(=O)c1ccc(N(Cc2ccc(F)cc2)Cc2ccc(C(=O)N=c3cc[nH]cc3)cc2)cc1 (optimized conformer: 70.14430680911603 kcal/mol)

>  <smiles>  (13) 
NS(=O)(=O)c1ccc(N(Cc2ccc(F)cc2)Cc2ccc(C(=O)N=c3cc[nH]cc3)cc2)cc1

>  <score_type>  (13) 
oracle

>  <origin>  (13) 
adg

>  <m_score__min__energy>  (13) 
-12.359999999999999

>  <m_primary>  (13) 
energy

$$$$
13:0
     RDKit          3D

 58 62  0  0  0  0  0  0  0  0999 V2000
   59.4160   28.8140   48.5660 C   0  0  0  0  0  0  0  0  0  0  0  0
   58.8580   29.5750   47.6110 C   0  0  0  0  0  0  0  0  0  0  0  0
   58.5350   29.1810   46.3040 C   0  0  0  0  0  0  0  0  0  0  0  0
   58.4270   27.9560   45.7570 C   0  0  0  0  0  0  0  0  0  0  0  0
   57.2570   27.0700   45.8850 C   0  0  0  0  0  0  0  0  0  0  0  0
   57.2830   25.8400   46.4310 N   0  0  0  0  0  0  0  0  0  0  0  0
   55.9810   25.4810   46.4500 C   0  0  0  0  0  0  0  0  0  0  0  0
   55.5920   24.3660   46.8850 O   0  0  0  0  0  0  0  0  0  0  0  0
   55.1280   26.4140   45.9760 N   0  0  0  0  0  0  0  0  0  0  0  0
   55.9520   27.4180   45.6360 C   0  0  0  0  0  0  0  0  0  0  0  0
   55.5190   28.6290   45.1110 O   0  0  0  0  0  0  0  0  0  0  0  0
   58.3080   30.3470   45.5940 C   0  0  0  0  0  0  0  0  0  0  0  0
   58.4050   31.3890   46.4930 C   0  0  0  0  0  0  0  0  0  0  0  0
   58.3700   32.8330   46.0960 C   0  0  0  0  0  0  0  0  0  0  0  0
   58.7010   30.9190   47.7290 N   0  0  0  0  0  0  0  0  0  0  0  0
   58.9290   31.7200   48.9060 C   0  0  0  0  0  0  0  0  0  0  0  0
   58.0990   31.5300   50.0230 C   0  0  0  0  0  0  0  0  0  0  0  0
   58.3110   32.2570   51.1940 C   0  0  0  0  0  0  0  0  0  0  0  0
   59.3510   33.1830   51.2630 C   0  0  0  0  0  0  0  0  0  0  0  0
   60.1870   33.3850   50.1640 C   0  0  0  0  0  0  0  0  0  0  0  0
   59.9980   32.6550   48.9760 C   0  0  0  0  0  0  0  0  0  0  0  0
   60.9120   32.8780   47.8240 C   0  0  0  0  0  0  0  0  0  0  0  0
   60.8430   33.9850   47.2230 O   0  0  0  0  0  0  0  0  0  0  0  0
   61.8800   31.8670   47.3890 N   0  0  2  0  0  0  0  0  0  0  0  0
   61.6640   30.5630   48.0650 C   0  0  0  0  0  0  0  0  0  0  0  0
   62.0290   30.5690   49.5750 C   0  0  0  0  0  0  0  0  0  0  0  0
   62.9410   31.7010   50.0050 C   0  0  0  0  0  0  0  0  0  0  0  0
   63.1570   31.9120   51.3770 C   0  0  0  0  0  0  0  0  0  0  0  0
   63.9870   32.9470   51.8100 C   0  0  0  0  0  0  0  0  0  0  0  0
   64.6250   33.7670   50.8810 C   0  0  0  0  0  0  0  0  0  0  0  0
   64.4260   33.5650   49.5130 C   0  0  0  0  0  0  0  0  0  0  0  0
   63.5610   32.5480   49.0600 C   0  0  0  0  0  0  0  0  0  0  0  0
   63.2950   32.2820   47.5880 C   0  0  2  0  0  0  0  0  0  0  0  0
   63.7130   33.4150   46.6300 C   0  0  0  0  0  0  0  0  0  0  0  0
   59.6222   29.2406   49.5587 H   0  0  0  0  0  0  0  0  0  0  0  0
   59.6670   27.7638   48.3558 H   0  0  0  0  0  0  0  0  0  0  0  0
   59.2796   27.5873   45.1679 H   0  0  0  0  0  0  0  0  0  0  0  0
   58.0916   30.4276   44.5185 H   0  0  0  0  0  0  0  0  0  0  0  0
   58.3548   33.4612   46.9988 H   0  0  0  0  0  0  0  0  0  0  0  0
   59.2626   33.0708   45.4988 H   0  0  0  0  0  0  0  0  0  0  0  0
   57.4669   33.0273   45.4988 H   0  0  0  0  0  0  0  0  0  0  0  0
   57.2756   30.8023   49.9738 H   0  0  0  0  0  0  0  0  0  0  0  0
   57.6569   32.0997   52.0643 H   0  0  0  0  0  0  0  0  0  0  0  0
   59.5132   33.7567   52.1874 H   0  0  0  0  0  0  0  0  0  0  0  0
   61.0013   34.1218   50.2270 H   0  0  0  0  0  0  0  0  0  0  0  0
   61.7300   31.6850   46.3700 H   0  0  0  0  0  0  0  0  0  0  0  0
   60.6021   30.2934   47.9664 H   0  0  0  0  0  0  0  0  0  0  0  0
   62.3310   29.8364   47.5780 H   0  0  0  0  0  0  0  0  0  0  0  0
   61.0956   30.6437   50.1522 H   0  0  0  0  0  0  0  0  0  0  0  0
   62.5827   29.6373   49.7630 H   0  0  0  0  0  0  0  0  0  0  0  0
   62.6691   31.2576   52.1143 H   0  0  0  0  0  0  0  0  0  0  0  0
   64.1379   33.1159   52.8864 H   0  0  0  0  0  0  0  0  0  0  0  0
   65.2868   34.5752   51.2257 H   0  0  0  0  0  0  0  0  0  0  0  0
   64.9475   34.2035   48.7847 H   0  0  0  0  0  0  0  0  0  0  0  0
   63.9592   31.4514   47.3069 H   0  0  0  0  0  0  0  0  0  0  0  0
   64.0355   34.2892   47.2146 H   0  0  0  0  0  0  0  0  0  0  0  0
   64.5435   33.0713   45.9959 H   0  0  0  0  0  0  0  0  0  0  0  0
   62.8583   33.6930   45.9959 H   0  0  0  0  0  0  0  0  0  0  0  0
  1  2  2  0
  2  3  1  0
  3  4  2  3
  4  5  1  0
  5  6  1  0
  6  7  1  0
  7  8  2  0
  7  9  1  0
  9 10  1  0
 10 11  1  0
  3 12  1  0
 12 13  2  0
 13 14  1  0
 13 15  1  0
 15 16  1  0
 16 17  2  0
 17 18  1  0
 18 19  2  0
 19 20  1  0
 20 21  2  0
 21 22  1  0
 22 23  2  0
 22 24  1  0
 24 25  1  0
 25 26  1  0
 26 27  1  0
 27 28  2  0
 28 29  1  0
 29 30  2  0
 30 31  1  0
 31 32  2  0
 32 33  1  0
 33 34  1  0
 15  2  1  0
 21 16  1  0
 33 24  1  0
 10  5  2  0
 32 27  1  0
  1 35  1  0
  1 36  1  0
  4 37  1  0
 12 38  1  0
 14 39  1  0
 14 40  1  0
 14 41  1  0
 17 42  1  0
 18 43  1  0
 19 44  1  0
 20 45  1  0
 24 46  1  6
 25 47  1  0
 25 48  1  0
 26 49  1  0
 26 50  1  0
 28 51  1  0
 29 52  1  0
 30 53  1  0
 31 54  1  0
 33 55  1  6
 34 56  1  0
 34 57  1  0
 34 58  1  0
M  CHG  4   6  -1   9  -1  11  -1  24   1
M  END
>  <UniqueID>  (14) 
13

>  <SMILES>  (14) 
C=c1c(=Cc2[n-]c(=O)[n-]c2[O-])cc(C)n1-c1ccccc1C(=O)[N@@H+]1CCc2ccccc2[C@@H]1C

>  <Energy>  (14) 
156.45408504873066

>  <Genealogy>  (14) 
C=c1c(=Cc2[n-]c(=O)[n-]c2[O-])cc(C)n1-c1ccccc1C(=O)[NH+]1CCc2ccccc2C1C (protonated)
C=c1c(=Cc2[n-]c(=O)[n-]c2[O-])cc(C)n1-c1ccccc1C(=O)[N@@H+]1CCc2ccccc2[C@@H]1C (chirality)
C=c1c(=Cc2[n-]c(=O)[n-]c2[O-])cc(C)n1-c1ccccc1C(=O)[N@@H+]1CCc2ccccc2[C@@H]1C (3D coordinates assigned)
C=c1c(=Cc2[n-]c(=O)[n-]c2[O-])cc(C)n1-c1ccccc1C(=O)[N@@H+]1CCc2ccccc2[C@@H]1C (nonaromatic ring conformer: 156.45408504873066 kcal/mol)

>  <smiles>  (14) 
C=c1c(=Cc2[nH]c(=O)[nH]c2O)cc(C)n1-c1ccccc1C(=O)N1CCc2ccccc2C1C

>  <score_type>  (14) 
oracle

>  <origin>  (14) 
adg

>  <m_score__min__energy>  (14) 
-16.16

>  <m_primary>  (14) 
energy

$$$$
14:0
     RDKit          3D

 44 46  0  0  0  0  0  0  0  0999 V2000
   55.3770   26.3450   46.0560 O   0  0  0  0  0  0  0  0  0  0  0  0
   56.3040   25.7490   46.6660 C   0  0  0  0  0  0  0  0  0  0  0  0
   56.0910   24.3310   47.1200 C   0  0  0  0  0  0  0  0  0  0  0  0
   56.2020   23.3810   45.9570 C   0  0  0  0  0  0  0  0  0  0  0  0
   56.6360   22.0600   46.1560 C   0  0  0  0  0  0  0  0  0  0  0  0
   56.7650   21.1910   45.0680 C   0  0  0  0  0  0  0  0  0  0  0  0
   56.4720   21.6330   43.7730 C   0  0  0  0  0  0  0  0  0  0  0  0
   56.6050   20.7560   42.7000 O   0  0  0  0  0  0  0  0  0  0  0  0
   56.0480   22.9540   43.5690 C   0  0  0  0  0  0  0  0  0  0  0  0
   55.9190   23.8250   44.6540 C   0  0  0  0  0  0  0  0  0  0  0  0
   57.5110   26.4640   46.9580 N   0  0  0  0  0  0  0  0  0  0  0  0
   58.1030   27.4930   46.1540 C   0  0  0  0  0  0  0  0  0  0  0  0
   59.4490   27.4270   45.7510 C   0  0  0  0  0  0  0  0  0  0  0  0
   59.9870   28.4260   44.9360 C   0  0  0  0  0  0  0  0  0  0  0  0
   59.1870   29.4860   44.5040 C   0  0  0  0  0  0  0  0  0  0  0  0
   57.8400   29.5500   44.8830 C   0  0  0  0  0  0  0  0  0  0  0  0
   56.8230   30.8670   44.3030 S   0  0  0  0  0  0  0  0  0  0  0  0
   55.3790   30.4780   44.4510 O   0  0  0  0  0  0  0  0  0  0  0  0
   57.1040   31.1190   42.8450 O   0  0  0  0  0  0  0  0  0  0  0  0
   57.1400   32.3000   45.2460 N   0  0  0  0  0  0  0  0  0  0  0  0
   58.1140   32.0350   46.3040 C   0  0  0  0  0  0  0  0  0  0  0  0
   58.8090   33.3570   46.5930 C   0  0  0  0  0  0  0  0  0  0  0  0
   58.5640   34.2180   45.3640 C   0  0  0  0  0  0  0  0  0  0  0  0
   57.7320   33.3560   44.4260 C   0  0  0  0  0  0  0  0  0  0  0  0
   57.2990   28.5430   45.6950 C   0  0  0  0  0  0  0  0  0  0  0  0
   56.8521   24.0735   47.8713 H   0  0  0  0  0  0  0  0  0  0  0  0
   55.0840   24.2446   47.5542 H   0  0  0  0  0  0  0  0  0  0  0  0
   56.8751   21.7081   47.1704 H   0  0  0  0  0  0  0  0  0  0  0  0
   57.0983   20.1554   45.2308 H   0  0  0  0  0  0  0  0  0  0  0  0
   57.0320   19.8440   42.8100 H   0  0  0  0  0  0  0  0  0  0  0  0
   55.8165   23.3053   42.5527 H   0  0  0  0  0  0  0  0  0  0  0  0
   55.5945   24.8628   44.4875 H   0  0  0  0  0  0  0  0  0  0  0  0
   60.0793   26.5870   46.0783 H   0  0  0  0  0  0  0  0  0  0  0  0
   61.0436   28.3775   44.6338 H   0  0  0  0  0  0  0  0  0  0  0  0
   59.6154   30.2721   43.8649 H   0  0  0  0  0  0  0  0  0  0  0  0
   57.6038   31.6686   47.2070 H   0  0  0  0  0  0  0  0  0  0  0  0
   58.8365   31.2651   45.9955 H   0  0  0  0  0  0  0  0  0  0  0  0
   58.3782   33.8310   47.4873 H   0  0  0  0  0  0  0  0  0  0  0  0
   59.8826   33.2207   46.7900 H   0  0  0  0  0  0  0  0  0  0  0  0
   58.0143   35.1308   45.6370 H   0  0  0  0  0  0  0  0  0  0  0  0
   59.5059   34.5403   44.8960 H   0  0  0  0  0  0  0  0  0  0  0  0
   56.9418   33.9598   43.9559 H   0  0  0  0  0  0  0  0  0  0  0  0
   58.3510   32.9337   43.6207 H   0  0  0  0  0  0  0  0  0  0  0  0
   56.2354   28.5783   45.9733 H   0  0  0  0  0  0  0  0  0  0  0  0
  1  2  2  0
  2  3  1  0
  3  4  1  0
  4  5  2  0
  5  6  1  0
  6  7  2  0
  7  8  1  0
  7  9  1  0
  9 10  2  0
  2 11  1  0
 11 12  1  0
 12 13  2  0
 13 14  1  0
 14 15  2  0
 15 16  1  0
 16 17  1  0
 17 18  2  0
 17 19  2  0
 17 20  1  0
 20 21  1  0
 21 22  1  0
 22 23  1  0
 23 24  1  0
 16 25  2  0
 10  4  1  0
 25 12  1  0
 24 20  1  0
  3 26  1  0
  3 27  1  0
  5 28  1  0
  6 29  1  0
  8 30  1  0
  9 31  1  0
 10 32  1  0
 13 33  1  0
 14 34  1  0
 15 35  1  0
 21 36  1  0
 21 37  1  0
 22 38  1  0
 22 39  1  0
 23 40  1  0
 23 41  1  0
 24 42  1  0
 24 43  1  0
 25 44  1  0
M  CHG  1  11  -1
M  END
>  <UniqueID>  (15) 
14

>  <SMILES>  (15) 
O=C(Cc1ccc(O)cc1)[N-]c1cccc(S(=O)(=O)N2CCCC2)c1

>  <Energy>  (15) 
49.11035747667318

>  <Genealogy>  (15) 
O=C(Cc1ccc(O)cc1)[N-]c1cccc(S(=O)(=O)N2CCCC2)c1 (protonated)
O=C(Cc1ccc(O)cc1)[N-]c1cccc(S(=O)(=O)N2CCCC2)c1 (3D coordinates assigned)
O=C(Cc1ccc(O)cc1)[N-]c1cccc(S(=O)(=O)N2CCCC2)c1 (nonaromatic ring conformer: 49.11035747667318 kcal/mol)

>  <smiles>  (15) 
O=C(Cc1ccc(O)cc1)Nc1cccc(S(=O)(=O)N2CCCC2)c1

>  <score_type>  (15) 
oracle

>  <origin>  (15) 
adg

>  <m_score__min__energy>  (15) 
-10.859999999999999

>  <m_primary>  (15) 
energy

$$$$
15:0
     RDKit          3D

 56 58  0  0  1  0  0  0  0  0999 V2000
   62.2260   32.7670   52.5060 C   0  0  0  0  0  0  0  0  0  0  0  0
   61.3600   33.6780   52.1050 C   0  0  0  0  0  0  0  0  0  0  0  0
   60.9930   33.6610   50.6920 C   0  0  0  0  0  0  0  0  0  0  0  0
   61.9440   33.7650   49.8650 O   0  0  0  0  0  0  0  0  0  0  0  0
   59.6360   33.5340   50.2710 N   0  0  0  0  0  0  0  0  0  0  0  0
   59.2450   33.5140   48.9090 C   0  0  0  0  0  0  0  0  0  0  0  0
   58.4320   32.5560   48.3540 C   0  0  0  0  0  0  0  0  0  0  0  0
   58.0970   32.6070   47.0180 C   0  0  0  0  0  0  0  0  0  0  0  0
   58.5670   33.6240   46.1790 C   0  0  0  0  0  0  0  0  0  0  0  0
   58.2300   33.7570   44.7770 C   0  0  0  0  0  0  0  0  0  0  0  0
   57.7470   32.7700   43.9590 N   0  0  0  0  0  0  0  0  0  0  0  0
   57.6680   31.5460   43.9270 C   0  0  0  0  0  0  0  0  0  0  0  0
   56.6490   30.9340   43.3210 N   0  0  0  0  0  0  0  0  0  0  0  0
   56.5040   29.6170   43.2530 C   0  0  0  0  0  0  0  0  0  0  0  0
   57.4650   28.8240   43.8420 C   0  0  0  0  0  0  0  0  0  0  0  0
   58.5350   29.4200   44.4770 C   0  0  0  0  0  0  0  0  0  0  0  0
   59.4520   28.7080   45.0390 N   0  0  0  0  0  0  0  0  0  0  0  0
   59.8740   28.9580   46.3730 C   0  0  0  0  0  0  0  0  0  0  0  0
   59.6570   28.0840   47.4170 C   0  0  0  0  0  0  0  0  0  0  0  0
   60.0990   28.3920   48.7090 C   0  0  0  0  0  0  0  0  0  0  0  0
   60.7630   29.6070   48.9060 C   0  0  0  0  0  0  0  0  0  0  0  0
   61.2270   29.9120   50.3000 C   0  0  0  0  0  0  0  0  0  0  0  0
   60.9810   30.4840   47.8620 C   0  0  0  0  0  0  0  0  0  0  0  0
   61.6630   31.7200   48.1000 N   0  0  0  0  0  0  0  0  0  0  0  0
   62.9380   31.8610   47.4750 C   0  0  0  0  0  0  0  0  0  0  0  0
   63.3810   30.9000   46.7590 O   0  0  0  0  0  0  0  0  0  0  0  0
   63.7460   33.0680   47.6320 C   0  0  0  0  0  0  0  0  0  0  0  0
   63.4580   34.1950   46.9620 C   0  0  0  0  0  0  0  0  0  0  0  0
   60.5390   30.1620   46.5960 C   0  0  0  0  0  0  0  0  0  0  0  0
   58.6080   30.7640   44.5030 N   0  0  0  0  0  0  0  0  0  0  0  0
   59.3980   34.5900   46.7710 C   0  0  0  0  0  0  0  0  0  0  0  0
   59.7300   34.5370   48.1080 C   0  0  0  0  0  0  0  0  0  0  0  0
   62.5393   32.7321   53.5599 H   0  0  0  0  0  0  0  0  0  0  0  0
   62.6348   32.0423   51.7865 H   0  0  0  0  0  0  0  0  0  0  0  0
   60.9348   34.4152   52.8020 H   0  0  0  0  0  0  0  0  0  0  0  0
   58.9080   33.4530   51.0410 H   0  0  0  0  0  0  0  0  0  0  0  0
   58.0445   31.7402   48.9819 H   0  0  0  0  0  0  0  0  0  0  0  0
   57.4428   31.8277   46.6000 H   0  0  0  0  0  0  0  0  0  0  0  0
   57.4744   34.5555   44.7388 H   0  0  0  0  0  0  0  0  0  0  0  0
   59.2404   33.8652   44.3557 H   0  0  0  0  0  0  0  0  0  0  0  0
   55.9360   31.5350   42.8850 H   0  0  0  0  0  0  0  0  0  0  0  0
   55.6397   29.1699   42.7401 H   0  0  0  0  0  0  0  0  0  0  0  0
   57.3798   27.7279   43.8062 H   0  0  0  0  0  0  0  0  0  0  0  0
   59.1314   27.1354   47.2329 H   0  0  0  0  0  0  0  0  0  0  0  0
   59.9289   27.6982   49.5455 H   0  0  0  0  0  0  0  0  0  0  0  0
   60.5353   29.4573   51.0244 H   0  0  0  0  0  0  0  0  0  0  0  0
   62.2363   29.5006   50.4488 H   0  0  0  0  0  0  0  0  0  0  0  0
   61.2496   31.0017   50.4488 H   0  0  0  0  0  0  0  0  0  0  0  0
   61.2710   32.4830   48.6930 H   0  0  0  0  0  0  0  0  0  0  0  0
   64.6090   33.0530   48.3139 H   0  0  0  0  0  0  0  0  0  0  0  0
   64.0823   35.0904   47.0979 H   0  0  0  0  0  0  0  0  0  0  0  0
   62.5977   34.2231   46.2770 H   0  0  0  0  0  0  0  0  0  0  0  0
   60.7117   30.8568   45.7609 H   0  0  0  0  0  0  0  0  0  0  0  0
   59.4300   31.1700   44.9920 H   0  0  0  0  0  0  0  0  0  0  0  0
   59.7935   35.4090   46.1523 H   0  0  0  0  0  0  0  0  0  0  0  0
   60.3824   35.3094   48.5413 H   0  0  0  0  0  0  0  0  0  0  0  0
  1  2  2  0
  2  3  1  0
  3  4  2  0
  3  5  1  0
  5  6  1  0
  6  7  2  0
  7  8  1  0
  8  9  2  0
  9 10  1  0
 10 11  1  0
 11 12  2  0
 12 13  1  0
 13 14  1  0
 14 15  2  0
 15 16  1  0
 16 17  2  0
 17 18  1  0
 18 19  2  0
 19 20  1  0
 20 21  2  0
 21 22  1  0
 21 23  1  0
 23 24  1  0
 24 25  1  0
 25 26  2  0
 25 27  1  0
 27 28  2  0
 23 29  2  0
 16 30  1  0
  9 31  1  0
 31 32  2  0
 32  6  1  0
 30 12  1  0
 29 18  1  0
  1 33  1  0
  1 34  1  0
  2 35  1  0
  5 36  1  0
  7 37  1  0
  8 38  1  0
 10 39  1  0
 10 40  1  0
 13 41  1  0
 14 42  1  0
 15 43  1  0
 19 44  1  0
 20 45  1  0
 22 46  1  0
 22 47  1  0
 22 48  1  0
 24 49  1  0
 27 50  1  0
 28 51  1  0
 28 52  1  0
 29 53  1  0
 30 54  1  0
 31 55  1  0
 32 56  1  0
M  END
>  <smiles>  (16) 
C=CC(=O)Nc1ccc(CN=c2[nH]ccc(=Nc3ccc(C)c(NC(=O)C=C)c3)[nH]2)cc1

>  <score_type>  (16) 
oracle

>  <origin>  (16) 
adg

>  <m_score__min__energy>  (16) 
-9.5500000000000007

>  <m_primary>  (16) 
energy

$$$$
16:0
     RDKit          3D

 59 62  0  0  0  0  0  0  0  0999 V2000
   59.6880   34.9490   45.9030 C   0  0  0  0  0  0  0  0  0  0  0  0
   58.3930   34.4950   46.4550 N   0  0  0  0  0  0  0  0  0  0  0  0
   58.5480   33.3220   47.3530 C   0  0  0  0  0  0  0  0  0  0  0  0
   58.2440   31.9770   46.6590 C   0  0  0  0  0  0  0  0  0  0  0  0
   58.6000   32.0540   45.2270 N   0  0  0  0  0  0  0  0  0  0  0  0
   58.5180   30.7320   44.5710 C   0  0  0  0  0  0  0  0  0  0  0  0
   57.5390   30.7590   43.3930 C   0  0  0  0  0  0  0  0  0  0  0  0
   56.6700   29.5910   43.4540 N   0  0  0  0  0  0  0  0  0  0  0  0
   56.1170   29.1000   44.6760 C   0  0  0  0  0  0  0  0  0  0  0  0
   55.1710   29.7280   45.2190 O   0  0  0  0  0  0  0  0  0  0  0  0
   56.5980   27.8770   45.2500 N   0  0  0  0  0  0  0  0  0  0  0  0
   57.5340   27.7350   46.1460 C   0  0  0  0  0  0  0  0  0  0  0  0
   58.1270   28.7960   46.7950 C   0  0  0  0  0  0  0  0  0  0  0  0
   59.1060   28.2030   47.5780 C   0  0  0  0  0  0  0  0  0  0  0  0
   60.0540   28.8810   48.4800 C   0  0  0  0  0  0  0  0  0  0  0  0
   60.2230   28.4210   49.6440 O   0  0  0  0  0  0  0  0  0  0  0  0
   60.7690   30.0550   48.0650 N   0  0  0  0  0  0  0  0  0  0  0  0
   61.6900   30.7370   48.9750 C   0  0  0  0  0  0  0  0  0  0  0  0
   62.3550   31.8860   48.2880 C   0  0  0  0  0  0  0  0  0  0  0  0
   61.9700   32.3660   47.0850 N   0  0  0  0  0  0  0  0  0  0  0  0
   62.7130   33.4420   46.7060 C   0  0  0  0  0  0  0  0  0  0  0  0
   63.6870   33.8330   47.6150 C   0  0  0  0  0  0  0  0  0  0  0  0
   63.6130   32.7920   48.9350 S   0  0  0  0  0  0  0  0  0  0  0  0
   59.0690   26.8630   47.4230 N   0  0  0  0  0  0  0  0  0  0  0  0
   58.1090   26.5740   46.5570 N   0  0  0  0  0  0  0  0  0  0  0  0
   57.6610   25.2240   46.3640 C   0  0  0  0  0  0  0  0  0  0  0  0
   56.6710   24.6890   47.2030 C   0  0  0  0  0  0  0  0  0  0  0  0
   56.2020   23.3870   46.9970 C   0  0  0  0  0  0  0  0  0  0  0  0
   56.7090   22.6170   45.9480 C   0  0  0  0  0  0  0  0  0  0  0  0
   57.6780   23.1530   45.0930 C   0  0  0  0  0  0  0  0  0  0  0  0
   58.1420   24.4570   45.2880 C   0  0  0  0  0  0  0  0  0  0  0  0
   57.7280   33.0270   44.5270 C   0  0  0  0  0  0  0  0  0  0  0  0
   57.3920   34.2610   45.3940 C   0  0  0  0  0  0  0  0  0  0  0  0
   60.3743   35.1896   46.7283 H   0  0  0  0  0  0  0  0  0  0  0  0
   60.1235   34.1500   45.2851 H   0  0  0  0  0  0  0  0  0  0  0  0
   59.5293   35.8451   45.2851 H   0  0  0  0  0  0  0  0  0  0  0  0
   59.5844   33.2986   47.7210 H   0  0  0  0  0  0  0  0  0  0  0  0
   57.8206   33.4388   48.1698 H   0  0  0  0  0  0  0  0  0  0  0  0
   58.8311   31.1794   47.1377 H   0  0  0  0  0  0  0  0  0  0  0  0
   57.1701   31.7578   46.7523 H   0  0  0  0  0  0  0  0  0  0  0  0
   59.5157   30.4517   44.2022 H   0  0  0  0  0  0  0  0  0  0  0  0
   58.1572   29.9990   45.3075 H   0  0  0  0  0  0  0  0  0  0  0  0
   56.9287   31.6727   43.4448 H   0  0  0  0  0  0  0  0  0  0  0  0
   58.1028   30.7464   42.4486 H   0  0  0  0  0  0  0  0  0  0  0  0
   57.8810   29.8649   46.7115 H   0  0  0  0  0  0  0  0  0  0  0  0
   60.6140   30.4400   47.1090 H   0  0  0  0  0  0  0  0  0  0  0  0
   61.1286   31.1112   49.8438 H   0  0  0  0  0  0  0  0  0  0  0  0
   62.4616   30.0231   49.2989 H   0  0  0  0  0  0  0  0  0  0  0  0
   62.5535   33.9630   45.7504 H   0  0  0  0  0  0  0  0  0  0  0  0
   64.3843   34.6751   47.4936 H   0  0  0  0  0  0  0  0  0  0  0  0
   56.2626   25.2952   48.0250 H   0  0  0  0  0  0  0  0  0  0  0  0
   55.4324   22.9690   47.6626 H   0  0  0  0  0  0  0  0  0  0  0  0
   56.3467   21.5898   45.7941 H   0  0  0  0  0  0  0  0  0  0  0  0
   58.0756   22.5470   44.2656 H   0  0  0  0  0  0  0  0  0  0  0  0
   58.8849   24.8841   44.5983 H   0  0  0  0  0  0  0  0  0  0  0  0
   58.2415   33.3670   43.6156 H   0  0  0  0  0  0  0  0  0  0  0  0
   56.7813   32.5169   44.2955 H   0  0  0  0  0  0  0  0  0  0  0  0
   57.3517   35.1481   44.7448 H   0  0  0  0  0  0  0  0  0  0  0  0
   56.4243   34.0736   45.8822 H   0  0  0  0  0  0  0  0  0  0  0  0
  1  2  1  0
  2  3  1  0
  3  4  1  0
  4  5  1  0
  5  6  1  0
  6  7  1  0
  7  8  1  0
  8  9  1  0
  9 10  2  0
  9 11  1  0
 11 12  2  3
 12 13  1  0
 13 14  2  0
 14 15  1  0
 15 16  2  0
 15 17  1  0
 17 18  1  0
 18 19  1  0
 19 20  2  0
 20 21  1  0
 21 22  2  0
 22 23  1  0
 14 24  1  0
 24 25  1  0
 25 26  1  0
 26 27  2  0
 27 28  1  0
 28 29  2  0
 29 30  1  0
 30 31  2  0
  5 32  1  0
 32 33  1  0
 33  2  1  0
 25 12  1  0
 31 26  1  0
 23 19  1  0
  1 34  1  0
  1 35  1  0
  1 36  1  0
  3 37  1  0
  3 38  1  0
  4 39  1  0
  4 40  1  0
  6 41  1  0
  6 42  1  0
  7 43  1  0
  7 44  1  0
 13 45  1  0
 17 46  1  0
 18 47  1  0
 18 48  1  0
 21 49  1  0
 22 50  1  0
 27 51  1  0
 28 52  1  0
 29 53  1  0
 30 54  1  0
 31 55  1  0
 32 56  1  0
 32 57  1  0
 33 58  1  0
 33 59  1  0
M  CHG  2   8  -1  24  -1
M  END
>  <UniqueID>  (17) 
15

>  <SMILES>  (17) 
CN1CCN(CC[N-]C(=O)N=c2cc(C(=O)NCc3nccs3)[n-]n2-c2ccccc2)CC1

>  <Energy>  (17) 
142.4297419121182

>  <Genealogy>  (17) 
CN1CCN(CC[N-]C(=O)N=c2cc(C(=O)NCc3nccs3)[n-]n2-c2ccccc2)CC1 (protonated)
CN1CCN(CC[N-]C(=O)N=c2cc(C(=O)NCc3nccs3)[n-]n2-c2ccccc2)CC1 (3D coordinates assigned)
CN1CCN(CC[N-]C(=O)N=c2cc(C(=O)NCc3nccs3)[n-]n2-c2ccccc2)CC1 (nonaromatic ring conformer: 142.4297419121182 kcal/mol)

>  <smiles>  (17) 
CN1CCN(CCNC(=O)N=c2cc(C(=O)NCc3nccs3)[nH]n2-c2ccccc2)CC1

>  <score_type>  (17) 
oracle

>  <origin>  (17) 
adg

>  <m_score__min__energy>  (17) 
-11.050000000000001

>  <m_primary>  (17) 
energy

$$$$
17:0
     RDKit          3D

 45 47  0  0  0  0  0  0  0  0999 V2000
   59.2443   30.8796   48.3593 H   0  0  0  0  0  0  0  0  0  0  0  0
   58.8980   30.3960   47.4340 C   0  0  0  0  0  0  0  0  0  0  0  0
   58.9420   29.3013   47.3358 H   0  0  0  0  0  0  0  0  0  0  0  0
   58.4210   31.1430   46.4230 C   0  0  0  0  0  0  0  0  0  0  0  0
   57.9430   30.6810   45.1840 C   0  0  0  0  0  0  0  0  0  0  0  0
   57.9690   29.4550   44.6220 C   0  0  0  0  0  0  0  0  0  0  0  0
   58.4383   29.3672   43.6310 H   0  0  0  0  0  0  0  0  0  0  0  0
   57.4230   28.2210   45.2200 C   0  0  0  0  0  0  0  0  0  0  0  0
   56.0370   28.0200   45.3380 C   0  0  0  0  0  0  0  0  0  0  0  0
   55.1380   28.9660   44.8580 O   0  0  0  0  0  0  0  0  0  0  0  0
   55.5650   26.8930   45.9310 N   0  0  0  0  0  0  0  0  0  0  0  0
   56.4110   25.9580   46.4330 C   0  0  0  0  0  0  0  0  0  0  0  0
   55.9510   24.9200   46.9750 O   0  0  0  0  0  0  0  0  0  0  0  0
   57.7540   26.1450   46.3560 N   0  0  0  0  0  0  0  0  0  0  0  0
   58.2760   27.2540   45.7720 C   0  0  0  0  0  0  0  0  0  0  0  0
   59.5270   27.3980   45.7250 O   0  0  0  0  0  0  0  0  0  0  0  0
   57.3880   31.7770   44.5500 C   0  0  0  0  0  0  0  0  0  0  0  0
   56.8828   31.7816   43.5729 H   0  0  0  0  0  0  0  0  0  0  0  0
   57.5880   32.8630   45.3750 C   0  0  0  0  0  0  0  0  0  0  0  0
   57.1170   34.2530   45.0700 C   0  0  0  0  0  0  0  0  0  0  0  0
   56.9341   34.7929   46.0108 H   0  0  0  0  0  0  0  0  0  0  0  0
   57.8863   34.7813   44.4877 H   0  0  0  0  0  0  0  0  0  0  0  0
   56.1850   34.2048   44.4877 H   0  0  0  0  0  0  0  0  0  0  0  0
   58.2280   32.4880   46.5070 N   0  0  0  0  0  0  0  0  0  0  0  0
   58.5380   33.3710   47.6430 C   0  0  0  0  0  0  0  0  0  0  0  0
   57.7776   34.1635   47.7045 H   0  0  0  0  0  0  0  0  0  0  0  0
   58.5386   32.7763   48.5684 H   0  0  0  0  0  0  0  0  0  0  0  0
   59.8890   33.9950   47.4640 C   0  0  0  0  0  0  0  0  0  0  0  0
   60.0360   34.9270   46.6280 O   0  0  0  0  0  0  0  0  0  0  0  0
   61.0120   33.5210   48.2220 N   0  0  0  0  0  0  0  0  0  0  0  0
   60.8570   32.7570   48.9180 H   0  0  0  0  0  0  0  0  0  0  0  0
   62.3640   34.0610   48.0270 C   0  0  0  0  0  0  0  0  0  0  0  0
   62.2606   35.1561   48.0162 H   0  0  0  0  0  0  0  0  0  0  0  0
   62.9840   33.5280   46.7390 C   0  0  0  0  0  0  0  0  0  0  0  0
   62.2043   33.3514   45.9834 H   0  0  0  0  0  0  0  0  0  0  0  0
   63.6981   34.2448   46.3074 H   0  0  0  0  0  0  0  0  0  0  0  0
   63.6640   32.2180   47.1150 C   0  0  0  0  0  0  0  0  0  0  0  0
   63.0228   31.3666   46.8430 H   0  0  0  0  0  0  0  0  0  0  0  0
   64.6192   32.1015   46.5820 H   0  0  0  0  0  0  0  0  0  0  0  0
   63.8800   32.2520   48.6270 C   0  0  0  0  0  0  0  0  0  0  0  0
   63.3637   31.4049   49.1022 H   0  0  0  0  0  0  0  0  0  0  0  0
   64.9491   32.1750   48.8743 H   0  0  0  0  0  0  0  0  0  0  0  0
   63.2970   33.5690   49.1270 C   0  0  0  0  0  0  0  0  0  0  0  0
   62.7367   33.4090   50.0600 H   0  0  0  0  0  0  0  0  0  0  0  0
   64.0874   34.3030   49.3425 H   0  0  0  0  0  0  0  0  0  0  0  0
  1  2  1  0
  2  3  1  0
  2  4  2  0
  4  5  1  0
  5  6  2  0
  6  7  1  0
  6  8  1  0
  8  9  2  0
  9 10  1  0
  9 11  1  0
 11 12  1  0
 12 13  2  0
 12 14  1  0
 14 15  1  0
 15 16  2  0
  5 17  1  0
 17 18  1  0
 17 19  2  0
 19 20  1  0
 20 21  1  0
 20 22  1  0
 20 23  1  0
 19 24  1  0
 24 25  1  0
 25 26  1  0
 25 27  1  0
 25 28  1  0
 28 29  2  0
 28 30  1  0
 30 31  1  0
 30 32  1  0
 32 33  1  0
 32 34  1  0
 34 35  1  0
 34 36  1  0
 34 37  1  0
 37 38  1  0
 37 39  1  0
 37 40  1  0
 40 41  1  0
 40 42  1  0
 40 43  1  0
 43 44  1  0
 43 45  1  0
 24  4  1  0
 43 32  1  0
 15  8  1  0
M  CHG  3  10  -1  11  -1  14  -1
M  END
>  <UniqueID>  (18) 
16

>  <SMILES>  (18) 
C=c1/c(=C\c2c([O-])[n-]c(=O)[n-]c2=O)cc(C)n1CC(=O)NC1CCCC1

>  <Energy>  (18) 
85.89935146241139

>  <Genealogy>  (18) 
C=c1c(=Cc2c([O-])[n-]c(=O)[n-]c2=O)cc(C)n1CC(=O)NC1CCCC1 (protonated)
C=c1/c(=C\c2c([O-])[n-]c(=O)[n-]c2=O)cc(C)n1CC(=O)NC1CCCC1 (cis-trans isomerization)
C=c1/c(=C\c2c([O-])[n-]c(=O)[n-]c2=O)cc(C)n1CC(=O)NC1CCCC1 (3D coordinates assigned)
C=c1/c(=C\c2c([O-])[n-]c(=O)[n-]c2=O)cc(C)n1CC(=O)NC1CCCC1 (nonaromatic ring conformer: 85.89935146241139 kcal/mol)

>  <smiles>  (18) 
C=c1c(=Cc2c(O)[nH]c(=O)[nH]c2=O)cc(C)n1CC(=O)NC1CCCC1

>  <score_type>  (18) 
oracle

>  <origin>  (18) 
adg

>  <m_score__min__energy>  (18) 
-16.57

>  <m_primary>  (18) 
energy

$$$$
18:0
     RDKit          3D

 51 53  0  0  0  0  0  0  0  0999 V2000
   57.6520   24.7500   47.4840 C   0  0  0  0  0  0  0  0  0  0  0  0
   57.8330   25.4170   46.3310 C   0  0  0  0  0  0  0  0  0  0  0  0
   57.3440   25.0500   45.0640 C   0  0  0  0  0  0  0  0  0  0  0  0
   56.4880   24.0800   44.6870 C   0  0  0  0  0  0  0  0  0  0  0  0
   55.0650   23.9990   45.0410 C   0  0  0  0  0  0  0  0  0  0  0  0
   54.2950   22.9300   44.7720 N   0  0  0  0  0  0  0  0  0  0  0  0
   53.0660   23.3230   45.1700 C   0  0  0  0  0  0  0  0  0  0  0  0
   52.0570   22.5740   45.0890 O   0  0  0  0  0  0  0  0  0  0  0  0
   53.0000   24.5820   45.6490 N   0  0  0  0  0  0  0  0  0  0  0  0
   54.2700   25.0060   45.5490 C   0  0  0  0  0  0  0  0  0  0  0  0
   54.6770   26.2920   45.8940 O   0  0  0  0  0  0  0  0  0  0  0  0
   57.9100   25.9310   44.1620 C   0  0  0  0  0  0  0  0  0  0  0  0
   58.6660   26.8230   44.8890 C   0  0  0  0  0  0  0  0  0  0  0  0
   59.4310   27.9650   44.2840 C   0  0  0  0  0  0  0  0  0  0  0  0
   58.6290   26.5170   46.2090 N   0  0  0  0  0  0  0  0  0  0  0  0
   59.3850   27.2150   47.2650 C   0  0  0  0  0  0  0  0  0  0  0  0
   58.6240   28.4390   47.8010 C   0  0  0  0  0  0  0  0  0  0  0  0
   58.5010   29.5600   46.7630 C   0  0  0  0  0  0  0  0  0  0  0  0
   57.2250   29.3920   45.9130 C   0  0  0  0  0  0  0  0  0  0  0  0
   56.9490   30.5370   45.0190 N   0  0  0  0  0  0  0  0  0  0  0  0
   58.1660   31.2770   44.6120 C   0  0  0  0  0  0  0  0  0  0  0  0
   57.8330   32.3300   43.5520 C   0  0  0  0  0  0  0  0  0  0  0  0
   57.2640   31.6820   42.2770 C   0  0  0  0  0  0  0  0  0  0  0  0
   56.6200   30.3080   42.5360 C   0  0  0  0  0  0  0  0  0  0  0  0
   55.9800   30.2460   43.9310 C   0  0  0  0  0  0  0  0  0  0  0  0
   58.0857   25.1377   48.4176 H   0  0  0  0  0  0  0  0  0  0  0  0
   57.0702   23.8165   47.4939 H   0  0  0  0  0  0  0  0  0  0  0  0
   56.8923   23.2747   44.0560 H   0  0  0  0  0  0  0  0  0  0  0  0
   54.3950   26.7190   46.7680 H   0  0  0  0  0  0  0  0  0  0  0  0
   57.7809   25.9214   43.0696 H   0  0  0  0  0  0  0  0  0  0  0  0
   59.8503   28.5909   45.0855 H   0  0  0  0  0  0  0  0  0  0  0  0
   60.2477   27.5704   43.6617 H   0  0  0  0  0  0  0  0  0  0  0  0
   58.7553   28.5701   43.6617 H   0  0  0  0  0  0  0  0  0  0  0  0
   59.5643   26.5160   48.0953 H   0  0  0  0  0  0  0  0  0  0  0  0
   60.3327   27.5660   46.8307 H   0  0  0  0  0  0  0  0  0  0  0  0
   57.6134   28.1225   48.0986 H   0  0  0  0  0  0  0  0  0  0  0  0
   59.1933   28.8369   48.6540 H   0  0  0  0  0  0  0  0  0  0  0  0
   58.4613   30.5285   47.2831 H   0  0  0  0  0  0  0  0  0  0  0  0
   59.3740   29.5153   46.0953 H   0  0  0  0  0  0  0  0  0  0  0  0
   57.3361   28.4886   45.2954 H   0  0  0  0  0  0  0  0  0  0  0  0
   56.3800   29.3214   46.6137 H   0  0  0  0  0  0  0  0  0  0  0  0
   58.5963   31.7757   45.4930 H   0  0  0  0  0  0  0  0  0  0  0  0
   58.8865   30.5634   44.1859 H   0  0  0  0  0  0  0  0  0  0  0  0
   57.0880   33.0277   43.9621 H   0  0  0  0  0  0  0  0  0  0  0  0
   58.7597   32.8603   43.2873 H   0  0  0  0  0  0  0  0  0  0  0  0
   56.5014   32.3522   41.8536 H   0  0  0  0  0  0  0  0  0  0  0  0
   58.1042   31.5260   41.5843 H   0  0  0  0  0  0  0  0  0  0  0  0
   55.8442   30.1271   41.7774 H   0  0  0  0  0  0  0  0  0  0  0  0
   57.4056   29.5401   42.4798 H   0  0  0  0  0  0  0  0  0  0  0  0
   55.1658   30.9842   43.9779 H   0  0  0  0  0  0  0  0  0  0  0  0
   55.6088   29.2215   44.0814 H   0  0  0  0  0  0  0  0  0  0  0  0
  1  2  2  0
  2  3  1  0
  3  4  2  3
  4  5  1  0
  5  6  1  0
  6  7  1  0
  7  8  2  0
  7  9  1  0
  9 10  1  0
 10 11  1  0
  3 12  1  0
 12 13  2  0
 13 14  1  0
 13 15  1  0
 15 16  1  0
 16 17  1  0
 17 18  1  0
 18 19  1  0
 19 20  1  0
 20 21  1  0
 21 22  1  0
 22 23  1  0
 23 24  1  0
 24 25  1  0
 15  2  1  0
 25 20  1  0
 10  5  2  0
  1 26  1  0
  1 27  1  0
  4 28  1  0
 11 29  1  0
 12 30  1  0
 14 31  1  0
 14 32  1  0
 14 33  1  0
 16 34  1  0
 16 35  1  0
 17 36  1  0
 17 37  1  0
 18 38  1  0
 18 39  1  0
 19 40  1  0
 19 41  1  0
 21 42  1  0
 21 43  1  0
 22 44  1  0
 22 45  1  0
 23 46  1  0
 23 47  1  0
 24 48  1  0
 24 49  1  0
 25 50  1  0
 25 51  1  0
M  CHG  2   6  -1   9  -1
M  END
>  <UniqueID>  (19) 
17

>  <SMILES>  (19) 
C=c1c(=Cc2[n-]c(=O)[n-]c2O)cc(C)n1CCCCN1CCCCC1

>  <Energy>  (19) 
123.92496360910037

>  <Genealogy>  (19) 
C=c1c(=Cc2[n-]c(=O)[n-]c2O)cc(C)n1CCCCN1CCCCC1 (protonated)
C=c1c(=Cc2[n-]c(=O)[n-]c2O)cc(C)n1CCCCN1CCCCC1 (3D coordinates assigned)
C=c1c(=Cc2[n-]c(=O)[n-]c2O)cc(C)n1CCCCN1CCCCC1 (nonaromatic ring conformer: 123.92496360910037 kcal/mol)

>  <smiles>  (19) 
C=c1c(=Cc2[nH]c(=O)[nH]c2O)cc(C)n1CCCCN1CCCCC1

>  <score_type>  (19) 
oracle

>  <origin>  (19) 
adg

>  <m_score__min__energy>  (19) 
-13.18

>  <m_primary>  (19) 
energy

$$$$
19:0
     RDKit          3D

 66 70  0  0  0  0  0  0  0  0999 V2000
   51.3660   33.2490   52.5700 H   0  0  0  0  0  0  0  0  0  0  0  0
   51.0370   33.0900   51.6260 O   0  0  0  0  0  0  0  0  0  0  0  0
   51.4350   31.9580   50.9200 C   0  0  0  0  0  0  0  0  0  0  0  0
   50.8830   31.5570   49.7620 N   0  0  0  0  0  0  0  0  0  0  0  0
   51.5990   30.4490   49.4610 C   0  0  0  0  0  0  0  0  0  0  0  0
   51.3840   29.7640   48.4260 O   0  0  0  0  0  0  0  0  0  0  0  0
   52.5630   30.1340   50.3530 N   0  0  0  0  0  0  0  0  0  0  0  0
   52.4400   31.0970   51.2860 C   0  0  0  0  0  0  0  0  0  0  0  0
   53.3140   31.2270   52.4550 C   0  0  0  0  0  0  0  0  0  0  0  0
   53.0496   31.9911   53.2008 H   0  0  0  0  0  0  0  0  0  0  0  0
   54.4150   30.4870   52.6910 C   0  0  0  0  0  0  0  0  0  0  0  0
   54.3530   29.2130   53.2340 C   0  0  0  0  0  0  0  0  0  0  0  0
   53.4429   28.6739   53.5358 H   0  0  0  0  0  0  0  0  0  0  0  0
   55.6480   28.7500   53.3240 C   0  0  0  0  0  0  0  0  0  0  0  0
   56.0440   27.4040   53.8500 C   0  0  0  0  0  0  0  0  0  0  0  0
   56.0381   27.4239   54.9498 H   0  0  0  0  0  0  0  0  0  0  0  0
   55.3307   26.6465   53.4932 H   0  0  0  0  0  0  0  0  0  0  0  0
   57.0539   27.1535   53.4932 H   0  0  0  0  0  0  0  0  0  0  0  0
   56.5120   29.6820   52.8680 N   0  0  0  0  0  0  0  0  0  0  0  0
   57.9440   29.5570   52.8630 C   0  0  0  0  0  0  0  0  0  0  0  0
   58.6530   29.5690   54.0700 C   0  0  0  0  0  0  0  0  0  0  0  0
   58.1144   29.6896   55.0215 H   0  0  0  0  0  0  0  0  0  0  0  0
   60.0450   29.4280   54.0690 C   0  0  0  0  0  0  0  0  0  0  0  0
   60.5966   29.4378   55.0207 H   0  0  0  0  0  0  0  0  0  0  0  0
   60.7420   29.2740   52.8590 C   0  0  0  0  0  0  0  0  0  0  0  0
   62.2110   29.1160   52.8500 C   0  0  0  0  0  0  0  0  0  0  0  0
   62.8430   29.3610   51.7870 O   0  0  0  0  0  0  0  0  0  0  0  0
   62.9260   28.6660   54.0190 N   0  0  0  0  0  0  0  0  0  0  0  0
   62.3530   27.6080   54.8640 C   0  0  0  0  0  0  0  0  0  0  0  0
   61.6474   28.0610   55.5760 H   0  0  0  0  0  0  0  0  0  0  0  0
   61.8396   26.8846   54.2136 H   0  0  0  0  0  0  0  0  0  0  0  0
   63.4470   26.8640   55.6480 C   0  0  0  0  0  0  0  0  0  0  0  0
   63.7997   27.5088   56.4664 H   0  0  0  0  0  0  0  0  0  0  0  0
   63.0140   25.9313   56.0387 H   0  0  0  0  0  0  0  0  0  0  0  0
   64.6590   26.4930   54.7390 C   0  0  0  0  0  0  0  0  0  0  0  0
   65.4298   26.0762   55.4040 H   0  0  0  0  0  0  0  0  0  0  0  0
   64.3550   25.4240   53.7380 N   0  0  0  0  0  0  0  0  0  0  0  0
   64.0580   25.9500   52.3770 C   0  0  0  0  0  0  0  0  0  0  0  0
   63.3698   26.8032   52.4688 H   0  0  0  0  0  0  0  0  0  0  0  0
   65.0095   26.2528   51.9156 H   0  0  0  0  0  0  0  0  0  0  0  0
   63.4130   24.8890   51.4770 C   0  0  0  0  0  0  0  0  0  0  0  0
   63.2674   25.3116   50.4719 H   0  0  0  0  0  0  0  0  0  0  0  0
   64.0791   24.0145   51.4376 H   0  0  0  0  0  0  0  0  0  0  0  0
   62.0540   24.4400   52.0330 C   0  0  0  0  0  0  0  0  0  0  0  0
   61.2602   25.0140   51.5327 H   0  0  0  0  0  0  0  0  0  0  0  0
   61.9521   23.3616   51.8415 H   0  0  0  0  0  0  0  0  0  0  0  0
   61.9420   24.6600   53.5480 C   0  0  0  0  0  0  0  0  0  0  0  0
   61.5757   25.6799   53.7370 H   0  0  0  0  0  0  0  0  0  0  0  0
   61.2432   23.9163   53.9586 H   0  0  0  0  0  0  0  0  0  0  0  0
   63.3040   24.4810   54.2340 C   0  0  0  0  0  0  0  0  0  0  0  0
   63.1731   24.6435   55.3140 H   0  0  0  0  0  0  0  0  0  0  0  0
   63.6498   23.4628   54.0022 H   0  0  0  0  0  0  0  0  0  0  0  0
   65.2090   27.7770   54.0210 C   0  0  0  0  0  0  0  0  0  0  0  0
   66.2095   27.9946   54.4231 H   0  0  0  0  0  0  0  0  0  0  0  0
   65.2199   27.5549   52.9437 H   0  0  0  0  0  0  0  0  0  0  0  0
   64.3360   29.0260   54.2030 C   0  0  0  0  0  0  0  0  0  0  0  0
   64.4821   29.4316   55.2150 H   0  0  0  0  0  0  0  0  0  0  0  0
   64.6213   29.7852   53.4599 H   0  0  0  0  0  0  0  0  0  0  0  0
   60.0300   29.3010   51.6490 C   0  0  0  0  0  0  0  0  0  0  0  0
   60.5705   29.2145   50.6949 H   0  0  0  0  0  0  0  0  0  0  0  0
   58.6400   29.4370   51.6490 C   0  0  0  0  0  0  0  0  0  0  0  0
   57.9670   29.4580   50.4710 F   0  0  0  0  0  0  0  0  0  0  0  0
   55.7800   30.7580   52.4800 C   0  0  0  0  0  0  0  0  0  0  0  0
   56.3340   31.8860   52.0040 C   0  0  0  0  0  0  0  0  0  0  0  0
   57.4259   31.9573   51.8910 H   0  0  0  0  0  0  0  0  0  0  0  0
   55.6956   32.7380   51.7274 H   0  0  0  0  0  0  0  0  0  0  0  0
  1  2  1  0
  2  3  1  0
  3  4  1  0
  4  5  1  0
  5  6  2  0
  5  7  1  0
  7  8  1  0
  8  9  1  0
  9 10  1  0
  9 11  2  0
 11 12  1  0
 12 13  1  0
 12 14  2  0
 14 15  1  0
 15 16  1  0
 15 17  1  0
 15 18  1  0
 14 19  1  0
 19 20  1  0
 20 21  2  0
 21 22  1  0
 21 23  1  0
 23 24  1  0
 23 25  2  0
 25 26  1  0
 26 27  2  0
 26 28  1  0
 28 29  1  0
 29 30  1  0
 29 31  1  0
 29 32  1  0
 32 33  1  0
 32 34  1  0
 32 35  1  0
 35 36  1  0
 35 37  1  0
 37 38  1  0
 38 39  1  0
 38 40  1  0
 38 41  1  0
 41 42  1  0
 41 43  1  0
 41 44  1  0
 44 45  1  0
 44 46  1  0
 44 47  1  0
 47 48  1  0
 47 49  1  0
 47 50  1  0
 50 51  1  0
 50 52  1  0
 35 53  1  0
 53 54  1  0
 53 55  1  0
 53 56  1  0
 56 57  1  0
 56 58  1  0
 25 59  1  0
 59 60  1  0
 59 61  2  0
 61 62  1  0
 19 63  1  0
 63 64  2  0
 64 65  1  0
 64 66  1  0
  8  3  2  0
 63 11  1  0
 61 20  1  0
 56 28  1  0
 50 37  1  0
M  CHG  2   4  -1   7  -1
M  END
>  <UniqueID>  (20) 
18

>  <SMILES>  (20) 
C=c1/c(=C\c2[n-]c(=O)[n-]c2O)cc(C)n1-c1ccc(C(=O)N2CCC(N3CCCCC3)CC2)cc1F

>  <Energy>  (20) 
168.44847827266804

>  <Genealogy>  (20) 
C=c1c(=Cc2[n-]c(=O)[n-]c2O)cc(C)n1-c1ccc(C(=O)N2CCC(N3CCCCC3)CC2)cc1F (protonated)
C=c1/c(=C\c2[n-]c(=O)[n-]c2O)cc(C)n1-c1ccc(C(=O)N2CCC(N3CCCCC3)CC2)cc1F (cis-trans isomerization)
C=c1/c(=C\c2[n-]c(=O)[n-]c2O)cc(C)n1-c1ccc(C(=O)N2CCC(N3CCCCC3)CC2)cc1F (3D coordinates assigned)
C=c1/c(=C\c2[n-]c(=O)[n-]c2O)cc(C)n1-c1ccc(C(=O)N2CCC(N3CCCCC3)CC2)cc1F (nonaromatic ring conformer: 168.44847827266804 kcal/mol)

>  <smiles>  (20) 
C=c1c(=Cc2[nH]c(=O)[nH]c2O)cc(C)n1-c1ccc(C(=O)N2CCC(N3CCCCC3)CC2)cc1F

>  <score_type>  (20) 
oracle

>  <origin>  (20) 
adg

>  <m_score__min__energy>  (20) 
-14.08

>  <m_primary>  (20) 
energy

$$$$
20:0
     RDKit          3D

 54 57  0  0  0  0  0  0  0  0999 V2000
   59.2180   29.2390   48.9850 C   0  0  0  0  0  0  0  0  0  0  0  0
   58.8320   29.9900   47.9420 C   0  0  0  0  0  0  0  0  0  0  0  0
   58.4040   29.5430   46.6800 C   0  0  0  0  0  0  0  0  0  0  0  0
   58.4230   28.3180   46.1210 C   0  0  0  0  0  0  0  0  0  0  0  0
   57.3770   27.2920   46.2650 C   0  0  0  0  0  0  0  0  0  0  0  0
   57.5860   26.0440   46.7230 N   0  0  0  0  0  0  0  0  0  0  0  0
   56.3920   25.4400   46.5380 C   0  0  0  0  0  0  0  0  0  0  0  0
   56.1800   24.2440   46.8660 O   0  0  0  0  0  0  0  0  0  0  0  0
   55.4470   26.2160   45.9660 N   0  0  0  0  0  0  0  0  0  0  0  0
   56.0930   27.3800   45.7870 C   0  0  0  0  0  0  0  0  0  0  0  0
   55.5220   28.4970   45.1900 O   0  0  0  0  0  0  0  0  0  0  0  0
   57.9270   30.6610   46.0150 C   0  0  0  0  0  0  0  0  0  0  0  0
   58.1460   31.7440   46.8410 C   0  0  0  0  0  0  0  0  0  0  0  0
   57.7370   33.1490   46.5180 C   0  0  0  0  0  0  0  0  0  0  0  0
   58.6760   31.3360   48.0150 N   0  0  0  0  0  0  0  0  0  0  0  0
   59.0020   32.1860   49.1290 C   0  0  0  0  0  0  0  0  0  0  0  0
   58.3710   31.9590   50.3620 C   0  0  0  0  0  0  0  0  0  0  0  0
   57.4880   30.9380   50.4980 F   0  0  0  0  0  0  0  0  0  0  0  0
   58.6390   32.7850   51.4550 C   0  0  0  0  0  0  0  0  0  0  0  0
   59.5300   33.8490   51.3250 C   0  0  0  0  0  0  0  0  0  0  0  0
   60.1690   34.0830   50.1060 C   0  0  0  0  0  0  0  0  0  0  0  0
   59.9260   33.2520   49.0000 C   0  0  0  0  0  0  0  0  0  0  0  0
   60.8060   33.5710   47.4970 S   0  0  0  0  0  0  0  0  0  0  0  0
   60.0940   34.6530   46.7380 O   0  0  0  0  0  0  0  0  0  0  0  0
   60.8970   32.3430   46.6360 O   0  0  0  0  0  0  0  0  0  0  0  0
   62.4170   34.1040   47.8580 N   0  0  0  0  0  0  0  0  0  0  0  0
   63.5020   33.2170   48.1530 C   0  0  0  0  0  0  0  0  0  0  0  0
   64.4250   33.0810   47.3080 O   0  0  0  0  0  0  0  0  0  0  0  0
   63.5580   32.5030   49.3950 N   0  0  0  0  0  0  0  0  0  0  0  0
   64.7880   31.8760   49.8710 C   0  0  0  0  0  0  0  0  0  0  0  0
   65.6640   32.9020   50.5390 C   0  0  0  0  0  0  0  0  0  0  0  0
   65.1040   33.8620   51.3970 C   0  0  0  0  0  0  0  0  0  0  0  0
   65.9110   34.8560   51.9610 C   0  0  0  0  0  0  0  0  0  0  0  0
   67.2760   34.9060   51.6590 C   0  0  0  0  0  0  0  0  0  0  0  0
   67.8350   33.9630   50.7930 C   0  0  0  0  0  0  0  0  0  0  0  0
   67.0320   32.9650   50.2310 C   0  0  0  0  0  0  0  0  0  0  0  0
   59.5318   29.7203   49.9230 H   0  0  0  0  0  0  0  0  0  0  0  0
   59.2206   28.1421   48.9019 H   0  0  0  0  0  0  0  0  0  0  0  0
   59.2961   28.0616   45.5030 H   0  0  0  0  0  0  0  0  0  0  0  0
   57.4622   30.6812   45.0182 H   0  0  0  0  0  0  0  0  0  0  0  0
   57.5744   33.7074   47.4517 H   0  0  0  0  0  0  0  0  0  0  0  0
   58.5305   33.6365   45.9326 H   0  0  0  0  0  0  0  0  0  0  0  0
   56.8058   33.1344   45.9326 H   0  0  0  0  0  0  0  0  0  0  0  0
   58.1464   32.5959   52.4202 H   0  0  0  0  0  0  0  0  0  0  0  0
   59.7301   34.5056   52.1846 H   0  0  0  0  0  0  0  0  0  0  0  0
   60.8693   34.9260   50.0108 H   0  0  0  0  0  0  0  0  0  0  0  0
   62.6950   32.4270   49.9780 H   0  0  0  0  0  0  0  0  0  0  0  0
   64.5377   31.0850   50.5933 H   0  0  0  0  0  0  0  0  0  0  0  0
   65.3271   31.4431   49.0154 H   0  0  0  0  0  0  0  0  0  0  0  0
   64.0285   33.8325   51.6262 H   0  0  0  0  0  0  0  0  0  0  0  0
   65.4716   35.5991   52.6427 H   0  0  0  0  0  0  0  0  0  0  0  0
   67.9093   35.6879   52.1035 H   0  0  0  0  0  0  0  0  0  0  0  0
   68.9076   34.0053   50.5528 H   0  0  0  0  0  0  0  0  0  0  0  0
   67.4741   32.2271   49.5454 H   0  0  0  0  0  0  0  0  0  0  0  0
  1  2  2  0
  2  3  1  0
  3  4  2  3
  4  5  1  0
  5  6  1  0
  6  7  1  0
  7  8  2  0
  7  9  1  0
  9 10  1  0
 10 11  1  0
  3 12  1  0
 12 13  2  0
 13 14  1  0
 13 15  1  0
 15 16  1  0
 16 17  2  0
 17 18  1  0
 17 19  1  0
 19 20  2  0
 20 21  1  0
 21 22  2  0
 22 23  1  0
 23 24  2  0
 23 25  2  0
 23 26  1  0
 26 27  1  0
 27 28  2  0
 27 29  1  0
 29 30  1  0
 30 31  1  0
 31 32  2  0
 32 33  1  0
 33 34  2  0
 34 35  1  0
 35 36  2  0
 15  2  1  0
 22 16  1  0
 36 31  1  0
 10  5  2  0
  1 37  1  0
  1 38  1  0
  4 39  1  0
 12 40  1  0
 14 41  1  0
 14 42  1  0
 14 43  1  0
 19 44  1  0
 20 45  1  0
 21 46  1  0
 29 47  1  0
 30 48  1  0
 30 49  1  0
 32 50  1  0
 33 51  1  0
 34 52  1  0
 35 53  1  0
 36 54  1  0
M  CHG  4   6  -1   9  -1  11  -1  26  -1
M  END
>  <UniqueID>  (21) 
19

>  <SMILES>  (21) 
C=c1c(=Cc2[n-]c(=O)[n-]c2[O-])cc(C)n1-c1c(F)cccc1S(=O)(=O)[N-]C(=O)NCc1ccccc1

>  <Energy>  (21) 
129.56429495072786

>  <Genealogy>  (21) 
C=c1c(=Cc2[n-]c(=O)[n-]c2[O-])cc(C)n1-c1c(F)cccc1S(=O)(=O)[N-]C(=O)NCc1ccccc1 (protonated)
C=c1c(=Cc2[n-]c(=O)[n-]c2[O-])cc(C)n1-c1c(F)cccc1S(=O)(=O)[N-]C(=O)NCc1ccccc1 (3D coordinates assigned)
C=c1c(=Cc2[n-]c(=O)[n-]c2[O-])cc(C)n1-c1c(F)cccc1S(=O)(=O)[N-]C(=O)NCc1ccccc1 (optimized conformer: 129.56429495072786 kcal/mol)

>  <smiles>  (21) 
C=c1c(=Cc2[nH]c(=O)[nH]c2O)cc(C)n1-c1c(F)cccc1S(=O)(=O)NC(=O)NCc1ccccc1

>  <score_type>  (21) 
oracle

>  <origin>  (21) 
adg

>  <m_score__min__energy>  (21) 
-18.399999999999999

>  <m_primary>  (21) 
energy

$$$$
21:0
     RDKit          3D

 41 43  0  0  0  0  0  0  0  0999 V2000
   56.6900   29.5610   44.1170 C   0  0  0  0  0  0  0  0  0  0  0  0
   56.1970   28.6090   45.0540 O   0  0  0  0  0  0  0  0  0  0  0  0
   56.9480   27.5460   45.5810 C   0  0  0  0  0  0  0  0  0  0  0  0
   58.3560   27.5840   45.6400 C   0  0  0  0  0  0  0  0  0  0  0  0
   59.0780   26.5120   46.1900 C   0  0  0  0  0  0  0  0  0  0  0  0
   60.5810   26.5770   46.3020 C   0  0  0  0  0  0  0  0  0  0  0  0
   60.9870   26.9060   47.6680 N   0  0  0  0  0  0  0  0  0  0  0  0
   60.4510   27.9750   48.4620 C   0  0  0  0  0  0  0  0  0  0  0  0
   60.2030   27.7660   49.6770 O   0  0  0  0  0  0  0  0  0  0  0  0
   60.1350   29.2910   47.8820 C   0  0  0  0  0  0  0  0  0  0  0  0
   58.8140   29.7590   47.8740 C   0  0  0  0  0  0  0  0  0  0  0  0
   58.5110   30.9820   47.2760 C   0  0  0  0  0  0  0  0  0  0  0  0
   59.5390   31.7370   46.7000 C   0  0  0  0  0  0  0  0  0  0  0  0
   59.2490   32.9750   46.0530 N   0  0  0  0  0  0  0  0  0  0  0  0
   59.6280   34.3920   46.1810 C   0  0  0  0  0  0  0  0  0  0  0  0
   58.7490   34.8900   45.0820 C   0  0  0  0  0  0  0  0  0  0  0  0
   58.3750   33.4500   44.9670 C   0  0  0  0  0  0  0  0  0  0  0  0
   60.8190   31.2800   46.7400 N   0  0  0  0  0  0  0  0  0  0  0  0
   61.1370   30.0900   47.3140 C   0  0  0  0  0  0  0  0  0  0  0  0
   58.3880   25.3860   46.6590 C   0  0  0  0  0  0  0  0  0  0  0  0
   56.9940   25.3380   46.5970 C   0  0  0  0  0  0  0  0  0  0  0  0
   56.2720   26.4110   46.0670 C   0  0  0  0  0  0  0  0  0  0  0  0
   54.8800   26.3330   46.0310 O   0  0  0  0  0  0  0  0  0  0  0  0
   57.1308   30.4122   44.6566 H   0  0  0  0  0  0  0  0  0  0  0  0
   57.4576   29.0901   43.4853 H   0  0  0  0  0  0  0  0  0  0  0  0
   55.8625   29.9162   43.4853 H   0  0  0  0  0  0  0  0  0  0  0  0
   58.8942   28.4613   45.2517 H   0  0  0  0  0  0  0  0  0  0  0  0
   61.0057   25.6009   46.0249 H   0  0  0  0  0  0  0  0  0  0  0  0
   60.9510   27.3618   45.6259 H   0  0  0  0  0  0  0  0  0  0  0  0
   58.0161   29.1617   48.3394 H   0  0  0  0  0  0  0  0  0  0  0  0
   57.4744   31.3495   47.2573 H   0  0  0  0  0  0  0  0  0  0  0  0
   59.3637   34.8155   47.1612 H   0  0  0  0  0  0  0  0  0  0  0  0
   60.6993   34.6324   46.1140 H   0  0  0  0  0  0  0  0  0  0  0  0
   57.9395   35.5675   45.3915 H   0  0  0  0  0  0  0  0  0  0  0  0
   59.1051   35.5014   44.2397 H   0  0  0  0  0  0  0  0  0  0  0  0
   57.3090   33.2705   45.1705 H   0  0  0  0  0  0  0  0  0  0  0  0
   58.4983   32.9773   43.9814 H   0  0  0  0  0  0  0  0  0  0  0  0
   62.1838   29.7527   47.3330 H   0  0  0  0  0  0  0  0  0  0  0  0
   58.9471   24.5363   47.0778 H   0  0  0  0  0  0  0  0  0  0  0  0
   56.4606   24.4502   46.9676 H   0  0  0  0  0  0  0  0  0  0  0  0
   54.2880   27.0910   46.3490 H   0  0  0  0  0  0  0  0  0  0  0  0
  1  2  1  0
  2  3  1  0
  3  4  2  0
  4  5  1  0
  5  6  1  0
  6  7  1  0
  7  8  1  0
  8  9  2  0
  8 10  1  0
 10 11  2  0
 11 12  1  0
 12 13  2  0
 13 14  1  0
 14 15  1  0
 15 16  1  0
 16 17  1  0
 13 18  1  0
 18 19  2  0
  5 20  2  0
 20 21  1  0
 21 22  2  0
 22 23  1  0
 22  3  1  0
 19 10  1  0
 17 14  1  0
  1 24  1  0
  1 25  1  0
  1 26  1  0
  4 27  1  0
  6 28  1  0
  6 29  1  0
 11 30  1  0
 12 31  1  0
 15 32  1  0
 15 33  1  0
 16 34  1  0
 16 35  1  0
 17 36  1  0
 17 37  1  0
 19 38  1  0
 20 39  1  0
 21 40  1  0
 23 41  1  0
M  CHG  1   7  -1
M  END
>  <UniqueID>  (22) 
20

>  <SMILES>  (22) 
COc1cc(C[N-]C(=O)c2ccc(N3CCC3)nc2)ccc1O

>  <Energy>  (22) 
85.58958367043734

>  <Genealogy>  (22) 
COc1cc(C[N-]C(=O)c2ccc(N3CCC3)nc2)ccc1O (protonated)
COc1cc(C[N-]C(=O)c2ccc(N3CCC3)nc2)ccc1O (3D coordinates assigned)
COc1cc(C[N-]C(=O)c2ccc(N3CCC3)nc2)ccc1O (nonaromatic ring conformer: 85.58958367043734 kcal/mol)

>  <smiles>  (22) 
COc1cc(CNC(=O)c2ccc(N3CCC3)nc2)ccc1O

>  <score_type>  (22) 
oracle

>  <origin>  (22) 
adg

>  <m_score__min__energy>  (22) 
-9.7100000000000009

>  <m_primary>  (22) 
energy

$$$$
22:0
     RDKit          3D

 56 60  0  0  1  0  0  0  0  0999 V2000
   66.5720   32.0230   50.7720 C   0  0  0  0  0  0  0  0  0  0  0  0
   65.8280   32.5500   49.6330 N   0  0  0  0  0  0  0  0  0  0  0  0
   64.3990   32.4090   49.5350 C   0  0  0  0  0  0  0  0  0  0  0  0
   63.7250   31.8240   50.4290 O   0  0  0  0  0  0  0  0  0  0  0  0
   63.6900   32.9470   48.3840 C   0  0  0  0  0  0  0  0  0  0  0  0
   62.4030   33.4370   48.4080 C   0  0  0  0  0  0  0  0  0  0  0  0
   62.1240   33.8390   47.1270 C   0  0  0  0  0  0  0  0  0  0  0  0
   61.0240   34.3540   46.7250 N   0  0  0  0  0  0  0  0  0  0  0  0
   59.7430   34.0790   47.2490 C   0  0  0  0  0  0  0  0  0  0  0  0
   59.2810   34.4190   48.3370 O   0  0  0  0  0  0  0  0  0  0  0  0
   58.8550   33.2820   46.3710 C   0  0  0  0  0  0  0  0  0  0  0  0
   57.5610   33.6590   46.0990 C   0  0  0  0  0  0  0  0  0  0  0  0
   56.8120   32.8440   45.2530 C   0  0  0  0  0  0  0  0  0  0  0  0
   57.3120   31.6950   44.6890 C   0  0  0  0  0  0  0  0  0  0  0  0
   56.5020   30.8310   43.7900 C   0  0  0  0  0  0  0  0  0  0  0  0
   58.6150   31.3630   44.9930 C   0  0  0  0  0  0  0  0  0  0  0  0
   59.2480   30.2260   44.4350 N   0  0  0  0  0  0  0  0  0  0  0  0
   58.9880   29.0470   44.7840 C   0  0  0  0  0  0  0  0  0  0  0  0
   58.4380   28.2250   43.8450 N   0  0  0  0  0  0  0  0  0  0  0  0
   58.1210   26.9470   44.1160 C   0  0  0  0  0  0  0  0  0  0  0  0
   58.3660   26.4920   45.3590 N   0  0  0  0  0  0  0  0  0  0  0  0
   58.9060   27.2720   46.3080 C   0  0  0  0  0  0  0  0  0  0  0  0
   59.1310   26.7410   47.5550 C   0  0  0  0  0  0  0  0  0  0  0  0
   59.6750   27.5600   48.4680 N   0  0  0  0  0  0  0  0  0  0  0  0
   60.0030   28.8420   48.2250 C   0  0  0  0  0  0  0  0  0  0  0  0
   60.5810   29.5620   49.3300 N   0  0  0  0  0  0  0  0  0  0  0  0
   60.6340   30.8960   49.8540 C   0  0  0  0  0  0  0  0  0  0  0  0
   61.0470   30.3640   51.2160 C   0  0  0  0  0  0  0  0  0  0  0  0
   61.4260   29.1400   50.4490 C   0  0  0  0  0  0  0  0  0  0  0  0
   59.7970   29.3920   47.0170 N   0  0  0  0  0  0  0  0  0  0  0  0
   59.2510   28.6090   46.0660 C   0  0  0  0  0  0  0  0  0  0  0  0
   59.4010   32.1490   45.8360 C   0  0  0  0  0  0  0  0  0  0  0  0
   63.1990   33.6050   46.3440 N   0  0  0  0  0  0  0  0  0  0  0  0
   64.1370   33.0650   47.1230 N   0  0  0  0  0  0  0  0  0  0  0  0
   66.0983   32.3585   51.7063 H   0  0  0  0  0  0  0  0  0  0  0  0
   66.5702   30.9236   50.7342 H   0  0  0  0  0  0  0  0  0  0  0  0
   67.6085   32.3895   50.7342 H   0  0  0  0  0  0  0  0  0  0  0  0
   66.2940   33.0520   48.8370 H   0  0  0  0  0  0  0  0  0  0  0  0
   61.7338   33.4943   49.2792 H   0  0  0  0  0  0  0  0  0  0  0  0
   57.1316   34.5733   46.5347 H   0  0  0  0  0  0  0  0  0  0  0  0
   55.7750   33.1329   45.0266 H   0  0  0  0  0  0  0  0  0  0  0  0
   55.8734   30.1605   44.3944 H   0  0  0  0  0  0  0  0  0  0  0  0
   55.8615   31.4609   43.1553 H   0  0  0  0  0  0  0  0  0  0  0  0
   57.1719   30.2324   43.1553 H   0  0  0  0  0  0  0  0  0  0  0  0
   58.2380   28.5560   42.8740 H   0  0  0  0  0  0  0  0  0  0  0  0
   57.6769   26.2958   43.3488 H   0  0  0  0  0  0  0  0  0  0  0  0
   58.8780   25.6973   47.7929 H   0  0  0  0  0  0  0  0  0  0  0  0
   61.3917   31.5338   49.3754 H   0  0  0  0  0  0  0  0  0  0  0  0
   59.7605   31.5584   49.7633 H   0  0  0  0  0  0  0  0  0  0  0  0
   61.8806   30.8961   51.6976 H   0  0  0  0  0  0  0  0  0  0  0  0
   60.3809   30.3512   52.0913 H   0  0  0  0  0  0  0  0  0  0  0  0
   62.4965   29.0804   50.2030 H   0  0  0  0  0  0  0  0  0  0  0  0
   61.2915   28.1444   50.8971 H   0  0  0  0  0  0  0  0  0  0  0  0
   60.4381   31.8630   46.0652 H   0  0  0  0  0  0  0  0  0  0  0  0
   63.2450   33.8230   45.3170 H   0  0  0  0  0  0  0  0  0  0  0  0
   65.0910   32.7840   46.7520 H   0  0  0  0  0  0  0  0  0  0  0  0
  1  2  1  0
  2  3  1  0
  3  4  2  0
  3  5  1  0
  5  6  2  0
  6  7  1  0
  7  8  2  0
  8  9  1  0
  9 10  2  0
  9 11  1  0
 11 12  2  0
 12 13  1  0
 13 14  2  0
 14 15  1  0
 14 16  1  0
 16 17  1  0
 17 18  2  0
 18 19  1  0
 19 20  1  0
 20 21  2  0
 21 22  1  0
 22 23  2  0
 23 24  1  0
 24 25  2  0
 25 26  1  0
 26 27  1  0
 27 28  1  0
 28 29  1  0
 25 30  1  0
 30 31  2  0
 16 32  2  0
  7 33  1  0
 33 34  1  0
 34  5  1  0
 32 11  1  0
 31 18  1  0
 31 22  1  0
 29 26  1  0
  1 35  1  0
  1 36  1  0
  1 37  1  0
  2 38  1  0
  6 39  1  0
 12 40  1  0
 13 41  1  0
 15 42  1  0
 15 43  1  0
 15 44  1  0
 19 45  1  0
 20 46  1  0
 23 47  1  0
 27 48  1  0
 27 49  1  0
 28 50  1  0
 28 51  1  0
 29 52  1  0
 29 53  1  0
 32 54  1  0
 33 55  1  0
 34 56  1  0
M  END
>  <smiles>  (23) 
CNC(=O)c1cc(=NC(=O)c2ccc(C)c(N=c3[nH]cnc4cnc(N5CCC5)nc34)c2)[nH][nH]1

>  <score_type>  (23) 
oracle

>  <origin>  (23) 
adg

>  <m_score__min__energy>  (23) 
-9.3900000000000006

>  <m_primary>  (23) 
energy

$$$$
23:0
     RDKit          3D

 37 39  0  0  0  0  0  0  0  0999 V2000
   58.7271   29.9869   45.3928 H   0  0  0  0  0  0  0  0  0  0  0  0
   58.0260   29.1490   45.5210 C   0  0  0  0  0  0  0  0  0  0  0  0
   58.4440   27.9500   46.1180 C   0  0  0  0  0  0  0  0  0  0  0  0
   59.8320   27.7680   46.5970 C   0  0  0  0  0  0  0  0  0  0  0  0
   60.6160   27.0310   45.9400 O   0  0  0  0  0  0  0  0  0  0  0  0
   60.3000   28.3570   47.8180 N   0  0  0  0  0  0  0  0  0  0  0  0
   60.5120   29.6250   48.0050 C   0  0  0  0  0  0  0  0  0  0  0  0
   60.6410   30.1610   49.2380 N   0  0  0  0  0  0  0  0  0  0  0  0
   60.8480   31.4750   49.2170 N   0  0  0  0  0  0  0  0  0  0  0  0
   60.8830   31.9900   47.9690 C   0  0  0  0  0  0  0  0  0  0  0  0
   61.1600   33.6870   47.6200 S   0  0  0  0  0  0  0  0  0  0  0  0
   61.9320   34.2830   48.7650 O   0  0  0  0  0  0  0  0  0  0  0  0
   62.0280   33.7650   46.3940 O   0  0  0  0  0  0  0  0  0  0  0  0
   59.6990   34.6180   47.3310 N   0  0  0  0  0  0  0  0  0  0  0  0
   59.7140   35.3510   48.0790 H   0  0  0  0  0  0  0  0  0  0  0  0
   59.7210   35.3550   46.0430 C   0  0  0  0  0  0  0  0  0  0  0  0
   59.0541   36.2252   46.1324 H   0  0  0  0  0  0  0  0  0  0  0  0
   60.7682   35.6368   45.8586 H   0  0  0  0  0  0  0  0  0  0  0  0
   59.2670   34.5210   44.8280 C   0  0  0  0  0  0  0  0  0  0  0  0
   59.1279   35.1919   43.9674 H   0  0  0  0  0  0  0  0  0  0  0  0
   60.0419   33.7682   44.6209 H   0  0  0  0  0  0  0  0  0  0  0  0
   57.9580   33.7910   45.1010 C   0  0  0  0  0  0  0  0  0  0  0  0
   57.1503   34.5271   45.2264 H   0  0  0  0  0  0  0  0  0  0  0  0
   57.7321   33.1280   44.2528 H   0  0  0  0  0  0  0  0  0  0  0  0
   58.0790   32.9540   46.3700 C   0  0  0  0  0  0  0  0  0  0  0  0
   57.1160   32.4637   46.5757 H   0  0  0  0  0  0  0  0  0  0  0  0
   58.8624   32.1950   46.2275 H   0  0  0  0  0  0  0  0  0  0  0  0
   58.4560   33.8470   47.5550 C   0  0  0  0  0  0  0  0  0  0  0  0
   57.6333   34.5546   47.7353 H   0  0  0  0  0  0  0  0  0  0  0  0
   58.6308   33.1882   48.4184 H   0  0  0  0  0  0  0  0  0  0  0  0
   60.6910   30.7950   46.7960 S   0  0  0  0  0  0  0  0  0  0  0  0
   57.5440   26.9440   46.2870 N   0  0  0  0  0  0  0  0  0  0  0  0
   56.2580   27.0690   45.8670 C   0  0  0  0  0  0  0  0  0  0  0  0
   55.4480   26.1200   46.0310 O   0  0  0  0  0  0  0  0  0  0  0  0
   55.8450   28.2180   45.2730 N   0  0  0  0  0  0  0  0  0  0  0  0
   56.7010   29.2560   45.0930 C   0  0  0  0  0  0  0  0  0  0  0  0
   56.2980   30.3140   44.5440 O   0  0  0  0  0  0  0  0  0  0  0  0
  1  2  1  0
  2  3  2  0
  3  4  1  0
  4  5  2  0
  4  6  1  0
  6  7  2  0
  7  8  1  0
  8  9  1  0
  9 10  2  0
 10 11  1  0
 11 12  2  0
 11 13  2  0
 11 14  1  0
 14 15  1  0
 14 16  1  0
 16 17  1  0
 16 18  1  0
 16 19  1  0
 19 20  1  0
 19 21  1  0
 19 22  1  0
 22 23  1  0
 22 24  1  0
 22 25  1  0
 25 26  1  0
 25 27  1  0
 25 28  1  0
 28 29  1  0
 28 30  1  0
 10 31  1  0
  3 32  1  0
 32 33  1  0
 33 34  2  0
 33 35  1  0
 35 36  1  0
 36 37  2  0
 36  2  1  0
 31  7  1  0
 28 14  1  0
M  CHG  4   8  -1  14   1  32  -1  35  -1
M  END
>  <UniqueID>  (24) 
21

>  <SMILES>  (24) 
O=C(/N=c1/[n-]nc(S(=O)(=O)[NH+]2CCCCC2)s1)c1cc(=O)[n-]c(=O)[n-]1

>  <Energy>  (24) 
82.03111742785904

>  <Genealogy>  (24) 
O=C(N=c1[n-]nc(S(=O)(=O)[NH+]2CCCCC2)s1)c1cc(=O)[n-]c(=O)[n-]1 (protonated)
O=C(/N=c1/[n-]nc(S(=O)(=O)[NH+]2CCCCC2)s1)c1cc(=O)[n-]c(=O)[n-]1 (cis-trans isomerization)
O=C(/N=c1/[n-]nc(S(=O)(=O)[NH+]2CCCCC2)s1)c1cc(=O)[n-]c(=O)[n-]1 (3D coordinates assigned)
O=C(/N=c1/[n-]nc(S(=O)(=O)[NH+]2CCCCC2)s1)c1cc(=O)[n-]c(=O)[n-]1 (nonaromatic ring conformer: 82.03111742785904 kcal/mol)

>  <smiles>  (24) 
O=C(N=c1[nH]nc(S(=O)(=O)N2CCCCC2)s1)c1cc(=O)[nH]c(=O)[nH]1

>  <score_type>  (24) 
oracle

>  <origin>  (24) 
adg

>  <m_score__min__energy>  (24) 
-13.19

>  <m_primary>  (24) 
energy

$$$$
24:0
     RDKit          3D

 65 69  0  0  0  0  0  0  0  0999 V2000
   57.7400   29.5440   51.6150 O   0  0  0  0  0  0  0  0  0  0  0  0
   58.3630   30.5790   51.2580 C   0  0  0  0  0  0  0  0  0  0  0  0
   58.6950   31.5590   52.2480 N   0  0  0  0  0  0  0  0  0  0  0  0
   59.9770   31.6340   52.9480 C   0  0  0  0  0  0  0  0  0  0  0  0
   60.8990   32.6290   52.2860 C   0  0  0  0  0  0  0  0  0  0  0  0
   60.6460   33.8250   52.3500 O   0  0  0  0  0  0  0  0  0  0  0  0
   62.0950   32.1740   51.6010 N   0  0  0  0  0  0  0  0  0  0  0  0
   63.3010   32.3830   52.4490 C   0  0  0  0  0  0  0  0  0  0  0  0
   63.7590   31.0900   53.1470 C   0  0  0  0  0  0  0  0  0  0  0  0
   64.0410   30.0060   52.1770 N   0  0  0  0  0  0  0  0  0  0  0  0
   65.4780   29.7000   51.9900 C   0  0  0  0  0  0  0  0  0  0  0  0
   66.3280   30.9120   51.6600 C   0  0  0  0  0  0  0  0  0  0  0  0
   66.1370   31.6060   50.4510 C   0  0  0  0  0  0  0  0  0  0  0  0
   66.9180   32.7240   50.1450 C   0  0  0  0  0  0  0  0  0  0  0  0
   67.9070   33.1530   51.0350 C   0  0  0  0  0  0  0  0  0  0  0  0
   68.6640   34.2390   50.7370 F   0  0  0  0  0  0  0  0  0  0  0  0
   68.1240   32.4560   52.2260 C   0  0  0  0  0  0  0  0  0  0  0  0
   67.3450   31.3360   52.5350 C   0  0  0  0  0  0  0  0  0  0  0  0
   63.2790   30.0970   50.9100 C   0  0  0  0  0  0  0  0  0  0  0  0
   61.9220   30.7720   51.1380 C   0  0  0  0  0  0  0  0  0  0  0  0
   58.7060   30.7480   49.8370 C   0  0  0  0  0  0  0  0  0  0  0  0
   59.4130   29.8620   49.0470 C   0  0  0  0  0  0  0  0  0  0  0  0
   59.5140   30.4580   47.8100 C   0  0  0  0  0  0  0  0  0  0  0  0
   58.8740   31.6820   47.9230 C   0  0  0  0  0  0  0  0  0  0  0  0
   58.6900   32.7010   46.8620 C   0  0  0  0  0  0  0  0  0  0  0  0
   57.3840   33.1360   46.5730 C   0  0  0  0  0  0  0  0  0  0  0  0
   57.1530   34.0820   45.5740 C   0  0  0  0  0  0  0  0  0  0  0  0
   58.2210   34.6110   44.8510 C   0  0  0  0  0  0  0  0  0  0  0  0
   59.5260   34.2090   45.1380 C   0  0  0  0  0  0  0  0  0  0  0  0
   59.7770   33.2780   46.1620 C   0  0  0  0  0  0  0  0  0  0  0  0
   61.1280   32.8930   46.4590 N   0  0  0  0  0  0  0  0  0  0  0  0
   61.8220   33.2100   47.5180 C   0  0  0  0  0  0  0  0  0  0  0  0
   63.0840   32.6480   47.7980 C   0  0  0  0  0  0  0  0  0  0  0  0
   63.7780   33.0490   48.9440 C   0  0  0  0  0  0  0  0  0  0  0  0
   63.2420   33.9800   49.7750 N   0  0  0  0  0  0  0  0  0  0  0  0
   62.0330   34.5470   49.5240 C   0  0  0  0  0  0  0  0  0  0  0  0
   61.3070   34.1780   48.3900 C   0  0  0  0  0  0  0  0  0  0  0  0
   58.4040   31.8210   49.1430 O   0  0  0  0  0  0  0  0  0  0  0  0
   59.8008   31.9443   53.9885 H   0  0  0  0  0  0  0  0  0  0  0  0
   60.4516   30.6422   52.9160 H   0  0  0  0  0  0  0  0  0  0  0  0
   62.2210   32.7610   50.7420 H   0  0  0  0  0  0  0  0  0  0  0  0
   64.1202   32.7506   51.8136 H   0  0  0  0  0  0  0  0  0  0  0  0
   63.0391   33.1113   53.2307 H   0  0  0  0  0  0  0  0  0  0  0  0
   64.6739   31.3007   53.7202 H   0  0  0  0  0  0  0  0  0  0  0  0
   62.9455   30.7531   53.8063 H   0  0  0  0  0  0  0  0  0  0  0  0
   65.8602   29.2519   52.9191 H   0  0  0  0  0  0  0  0  0  0  0  0
   65.5492   29.0173   51.1305 H   0  0  0  0  0  0  0  0  0  0  0  0
   65.3678   31.2664   49.7418 H   0  0  0  0  0  0  0  0  0  0  0  0
   66.7542   33.2671   49.2025 H   0  0  0  0  0  0  0  0  0  0  0  0
   68.9085   32.7883   52.9218 H   0  0  0  0  0  0  0  0  0  0  0  0
   67.5287   30.7832   53.4681 H   0  0  0  0  0  0  0  0  0  0  0  0
   63.8572   30.6862   50.1830 H   0  0  0  0  0  0  0  0  0  0  0  0
   63.1070   29.0798   50.5283 H   0  0  0  0  0  0  0  0  0  0  0  0
   61.3572   30.7721   50.1940 H   0  0  0  0  0  0  0  0  0  0  0  0
   61.3779   30.2119   51.9128 H   0  0  0  0  0  0  0  0  0  0  0  0
   59.8131   28.8817   49.3451 H   0  0  0  0  0  0  0  0  0  0  0  0
   60.0029   30.0466   46.9147 H   0  0  0  0  0  0  0  0  0  0  0  0
   56.5357   32.7259   47.1407 H   0  0  0  0  0  0  0  0  0  0  0  0
   56.1262   34.4111   45.3564 H   0  0  0  0  0  0  0  0  0  0  0  0
   58.0349   35.3457   44.0538 H   0  0  0  0  0  0  0  0  0  0  0  0
   60.3647   34.6232   44.5592 H   0  0  0  0  0  0  0  0  0  0  0  0
   63.5198   31.8994   47.1200 H   0  0  0  0  0  0  0  0  0  0  0  0
   64.7601   32.6095   49.1728 H   0  0  0  0  0  0  0  0  0  0  0  0
   61.6252   35.2986   50.2160 H   0  0  0  0  0  0  0  0  0  0  0  0
   60.3335   34.6459   48.1818 H   0  0  0  0  0  0  0  0  0  0  0  0
  1  2  2  0
  2  3  1  0
  3  4  1  0
  4  5  1  0
  5  6  2  0
  5  7  1  0
  7  8  1  0
  8  9  1  0
  9 10  1  0
 10 11  1  0
 11 12  1  0
 12 13  2  0
 13 14  1  0
 14 15  2  0
 15 16  1  0
 15 17  1  0
 17 18  2  0
 10 19  1  0
 19 20  1  0
  2 21  1  0
 21 22  2  0
 22 23  1  0
 23 24  2  0
 24 25  1  0
 25 26  2  0
 26 27  1  0
 27 28  2  0
 28 29  1  0
 29 30  2  0
 30 31  1  0
 31 32  2  3
 32 33  1  0
 33 34  2  0
 34 35  1  0
 35 36  1  0
 36 37  2  0
 24 38  1  0
 20  7  1  0
 38 21  1  0
 18 12  1  0
 30 25  1  0
 37 32  1  0
  4 39  1  0
  4 40  1  0
  7 41  1  0
  8 42  1  0
  8 43  1  0
  9 44  1  0
  9 45  1  0
 11 46  1  0
 11 47  1  0
 13 48  1  0
 14 49  1  0
 17 50  1  0
 18 51  1  0
 19 52  1  0
 19 53  1  0
 20 54  1  0
 20 55  1  0
 22 56  1  0
 23 57  1  0
 26 58  1  0
 27 59  1  0
 28 60  1  0
 29 61  1  0
 33 62  1  0
 34 63  1  0
 36 64  1  0
 37 65  1  0
M  CHG  3   3  -1   7   1  35  -1
M  END
>  <UniqueID>  (25) 
22

>  <SMILES>  (25) 
O=C([N-]CC(=O)[NH+]1CCN(Cc2ccc(F)cc2)CC1)c1ccc(-c2ccccc2N=c2cc[n-]cc2)o1

>  <Energy>  (25) 
131.38850745390351

>  <Genealogy>  (25) 
O=C([N-]CC(=O)[NH+]1CCN(Cc2ccc(F)cc2)CC1)c1ccc(-c2ccccc2N=c2cc[n-]cc2)o1 (protonated)
O=C([N-]CC(=O)[NH+]1CCN(Cc2ccc(F)cc2)CC1)c1ccc(-c2ccccc2N=c2cc[n-]cc2)o1 (3D coordinates assigned)
O=C([N-]CC(=O)[NH+]1CCN(Cc2ccc(F)cc2)CC1)c1ccc(-c2ccccc2N=c2cc[n-]cc2)o1 (nonaromatic ring conformer: 131.38850745390351 kcal/mol)

>  <smiles>  (25) 
O=C(NCC(=O)N1CCN(Cc2ccc(F)cc2)CC1)c1ccc(-c2ccccc2N=c2cc[nH]cc2)o1

>  <score_type>  (25) 
oracle

>  <origin>  (25) 
adg

>  <m_score__min__energy>  (25) 
-11.880000000000001

>  <m_primary>  (25) 
energy

$$$$
25:0
     RDKit          3D

 65 69  0  0  0  0  0  0  0  0999 V2000
   62.3410   35.1040   49.4490 H   0  0  0  0  0  0  0  0  0  0  0  0
   62.1000   34.5870   48.6360 O   0  0  0  0  0  0  0  0  0  0  0  0
   61.1850   33.5780   49.0050 C   0  0  1  0  0  0  0  0  0  0  0  0
   59.7540   34.1880   48.9110 C   0  0  0  0  0  0  0  0  0  0  0  0
   59.0823   33.5991   49.5528 H   0  0  0  0  0  0  0  0  0  0  0  0
   59.8291   35.2368   49.2340 H   0  0  0  0  0  0  0  0  0  0  0  0
   59.1890   34.1960   47.5080 C   0  0  0  0  0  0  0  0  0  0  0  0
   59.7640   35.0060   46.5120 C   0  0  0  0  0  0  0  0  0  0  0  0
   60.6234   35.6476   46.7565 H   0  0  0  0  0  0  0  0  0  0  0  0
   59.2480   34.9990   45.2130 C   0  0  0  0  0  0  0  0  0  0  0  0
   59.7040   35.6324   44.4379 H   0  0  0  0  0  0  0  0  0  0  0  0
   58.1540   34.1890   44.8970 C   0  0  0  0  0  0  0  0  0  0  0  0
   57.7518   34.1826   43.8732 H   0  0  0  0  0  0  0  0  0  0  0  0
   57.5710   33.3870   45.8820 C   0  0  0  0  0  0  0  0  0  0  0  0
   56.7081   32.7517   45.6333 H   0  0  0  0  0  0  0  0  0  0  0  0
   58.0830   33.3910   47.1830 C   0  0  0  0  0  0  0  0  0  0  0  0
   57.6183   32.7613   47.9560 H   0  0  0  0  0  0  0  0  0  0  0  0
   61.3180   32.3820   48.0050 C   0  0  0  0  0  0  0  0  0  0  0  0
   62.2544   32.5029   47.4406 H   0  0  0  0  0  0  0  0  0  0  0  0
   60.4317   32.4053   47.3539 H   0  0  0  0  0  0  0  0  0  0  0  0
   61.3380   31.0030   48.6930 C   0  0  0  0  0  0  0  0  0  0  0  0
   62.3406   30.8218   49.1077 H   0  0  0  0  0  0  0  0  0  0  0  0
   61.0863   30.2343   47.9475 H   0  0  0  0  0  0  0  0  0  0  0  0
   60.3450   30.9450   49.7850 N   0  0  1  0  0  0  0  0  0  0  0  0
   59.4260   31.2110   49.3630 H   0  0  0  0  0  0  0  0  0  0  0  0
   60.2330   29.5910   50.2960 C   0  0  0  0  0  0  0  0  0  0  0  0
   60.7830   28.6410   49.6690 O   0  0  0  0  0  0  0  0  0  0  0  0
   59.5220   29.2890   51.5670 C   0  0  0  0  0  0  0  0  0  0  0  0
   60.2030   28.7870   52.6940 C   0  0  0  0  0  0  0  0  0  0  0  0
   61.2889   28.6182   52.6453 H   0  0  0  0  0  0  0  0  0  0  0  0
   59.5090   28.5020   53.8730 C   0  0  0  0  0  0  0  0  0  0  0  0
   60.0511   28.1130   54.7475 H   0  0  0  0  0  0  0  0  0  0  0  0
   58.1310   28.7090   53.9450 C   0  0  0  0  0  0  0  0  0  0  0  0
   57.5902   28.4836   54.8760 H   0  0  0  0  0  0  0  0  0  0  0  0
   57.4350   29.2030   52.8350 C   0  0  0  0  0  0  0  0  0  0  0  0
   56.0120   29.4060   52.9040 N   0  0  0  0  0  0  0  0  0  0  0  0
   55.1110   28.5110   53.3640 C   0  0  0  0  0  0  0  0  0  0  0  0
   55.4490   27.1550   53.9040 C   0  0  0  0  0  0  0  0  0  0  0  0
   55.4413   27.1858   55.0035 H   0  0  0  0  0  0  0  0  0  0  0  0
   54.7054   26.4246   53.5525 H   0  0  0  0  0  0  0  0  0  0  0  0
   56.4484   26.8590   53.5525 H   0  0  0  0  0  0  0  0  0  0  0  0
   53.8340   29.0290   53.2870 C   0  0  0  0  0  0  0  0  0  0  0  0
   52.9042   28.5305   53.5986 H   0  0  0  0  0  0  0  0  0  0  0  0
   53.9490   30.3040   52.7390 C   0  0  0  0  0  0  0  0  0  0  0  0
   52.9510   31.1770   52.4800 C   0  0  0  0  0  0  0  0  0  0  0  0
   52.7011   31.8987   53.2716 H   0  0  0  0  0  0  0  0  0  0  0  0
   52.1620   31.2520   51.2280 C   0  0  0  0  0  0  0  0  0  0  0  0
   52.1650   30.3480   50.2330 N   0  0  0  0  0  0  0  0  0  0  0  0
   51.2970   30.8610   49.3340 C   0  0  0  0  0  0  0  0  0  0  0  0
   51.0290   30.2890   48.2470 O   0  0  0  0  0  0  0  0  0  0  0  0
   50.7390   32.0350   49.6950 N   0  0  0  0  0  0  0  0  0  0  0  0
   51.2970   32.2680   50.8930 C   0  0  0  0  0  0  0  0  0  0  0  0
   51.0210   33.3890   51.6670 O   0  0  0  0  0  0  0  0  0  0  0  0
   55.3180   30.5050   52.5160 C   0  0  0  0  0  0  0  0  0  0  0  0
   55.8940   31.6150   52.0270 C   0  0  0  0  0  0  0  0  0  0  0  0
   56.9853   31.6560   51.8952 H   0  0  0  0  0  0  0  0  0  0  0  0
   55.2746   32.4834   51.7582 H   0  0  0  0  0  0  0  0  0  0  0  0
   58.1300   29.4840   51.6490 C   0  0  0  0  0  0  0  0  0  0  0  0
   57.5812   29.8609   50.7734 H   0  0  0  0  0  0  0  0  0  0  0  0
   60.6690   31.8830   50.8940 C   0  0  0  0  0  0  0  0  0  0  0  0
   61.2394   31.3336   51.6574 H   0  0  0  0  0  0  0  0  0  0  0  0
   59.7126   32.2672   51.2783 H   0  0  0  0  0  0  0  0  0  0  0  0
   61.5010   33.1080   50.4520 C   0  0  0  0  0  0  0  0  0  0  0  0
   62.5674   32.8440   50.5080 H   0  0  0  0  0  0  0  0  0  0  0  0
   61.2424   33.9372   51.1269 H   0  0  0  0  0  0  0  0  0  0  0  0
  1  2  1  0
  3  2  1  6
  3  4  1  0
  4  5  1  0
  4  6  1  0
  4  7  1  0
  7  8  2  0
  8  9  1  0
  8 10  1  0
 10 11  1  0
 10 12  2  0
 12 13  1  0
 12 14  1  0
 14 15  1  0
 14 16  2  0
 16 17  1  0
  3 18  1  0
 18 19  1  0
 18 20  1  0
 18 21  1  0
 21 22  1  0
 21 23  1  0
 21 24  1  0
 24 25  1  6
 24 26  1  0
 26 27  2  0
 26 28  1  0
 28 29  2  0
 29 30  1  0
 29 31  1  0
 31 32  1  0
 31 33  2  0
 33 34  1  0
 33 35  1  0
 35 36  1  0
 36 37  1  0
 37 38  1  0
 38 39  1  0
 38 40  1  0
 38 41  1  0
 37 42  2  0
 42 43  1  0
 42 44  1  0
 44 45  2  0
 45 46  1  0
 45 47  1  0
 47 48  1  0
 48 49  1  0
 49 50  2  0
 49 51  1  0
 51 52  1  0
 52 53  1  0
 44 54  1  0
 54 55  2  0
 55 56  1  0
 55 57  1  0
 35 58  2  0
 58 59  1  0
 24 60  1  0
 60 61  1  0
 60 62  1  0
 60 63  1  0
 63 64  1  0
 63 65  1  0
 63  3  1  0
 16  7  1  0
 58 28  1  0
 54 36  1  0
 52 47  2  0
M  CHG  4  24   1  48  -1  51  -1  53  -1
M  END
>  <UniqueID>  (26) 
23

>  <SMILES>  (26) 
C=c1/c(=C/c2[n-]c(=O)[n-]c2[O-])cc(C)n1-c1cccc(C(=O)[NH+]2CCC(O)(Cc3ccccc3)CC2)c1

>  <Energy>  (26) 
152.92602999265205

>  <Genealogy>  (26) 
C=c1c(=Cc2[n-]c(=O)[n-]c2[O-])cc(C)n1-c1cccc(C(=O)[NH+]2CCC(O)(Cc3ccccc3)CC2)c1 (protonated)
C=c1/c(=C/c2[n-]c(=O)[n-]c2[O-])cc(C)n1-c1cccc(C(=O)[NH+]2CCC(O)(Cc3ccccc3)CC2)c1 (cis-trans isomerization)
C=c1/c(=C/c2[n-]c(=O)[n-]c2[O-])cc(C)n1-c1cccc(C(=O)[NH+]2CCC(O)(Cc3ccccc3)CC2)c1 (3D coordinates assigned)
C=c1/c(=C/c2[n-]c(=O)[n-]c2[O-])cc(C)n1-c1cccc(C(=O)[NH+]2CCC(O)(Cc3ccccc3)CC2)c1 (nonaromatic ring conformer: 152.92602999265205 kcal/mol)

>  <smiles>  (26) 
C=c1c(=Cc2[nH]c(=O)[nH]c2O)cc(C)n1-c1cccc(C(=O)N2CCC(O)(Cc3ccccc3)CC2)c1

>  <score_type>  (26) 
oracle

>  <origin>  (26) 
adg

>  <m_score__min__energy>  (26) 
-17.93

>  <m_primary>  (26) 
energy

$$$$
26:0
     RDKit          3D

 51 54  0  0  0  0  0  0  0  0999 V2000
   55.7070   31.6570   52.0970 C   0  0  0  0  0  0  0  0  0  0  0  0
   55.1870   30.4920   52.5120 C   0  0  0  0  0  0  0  0  0  0  0  0
   53.8330   30.2140   52.7700 C   0  0  0  0  0  0  0  0  0  0  0  0
   52.7180   30.9300   52.5290 C   0  0  0  0  0  0  0  0  0  0  0  0
   52.0980   31.1370   51.2120 C   0  0  0  0  0  0  0  0  0  0  0  0
   52.0710   30.2230   50.2240 N   0  0  0  0  0  0  0  0  0  0  0  0
   51.2850   30.7960   49.2880 C   0  0  0  0  0  0  0  0  0  0  0  0
   51.0270   30.2440   48.1870 O   0  0  0  0  0  0  0  0  0  0  0  0
   50.7850   32.0030   49.6300 N   0  0  0  0  0  0  0  0  0  0  0  0
   51.2980   32.1950   50.8570 C   0  0  0  0  0  0  0  0  0  0  0  0
   51.0350   33.3130   51.6380 O   0  0  0  0  0  0  0  0  0  0  0  0
   53.8000   28.9520   53.3410 C   0  0  0  0  0  0  0  0  0  0  0  0
   55.0970   28.4850   53.3600 C   0  0  0  0  0  0  0  0  0  0  0  0
   55.5070   27.1420   53.8860 C   0  0  0  0  0  0  0  0  0  0  0  0
   55.9400   29.4110   52.8500 N   0  0  0  0  0  0  0  0  0  0  0  0
   57.3720   29.2870   52.7870 C   0  0  0  0  0  0  0  0  0  0  0  0
   58.2340   29.1200   53.8510 C   0  0  0  0  0  0  0  0  0  0  0  0
   59.4920   29.1580   53.3760 N   0  0  0  0  0  0  0  0  0  0  0  0
   59.4530   29.3430   52.0620 N   0  0  0  0  0  0  0  0  0  0  0  0
   60.6230   29.5360   51.1910 C   0  0  0  0  0  0  0  0  0  0  0  0
   61.2400   30.9500   51.3710 C   0  0  0  0  0  0  0  0  0  0  0  0
   61.2430   31.7940   50.0880 C   0  0  0  0  0  0  0  0  0  0  0  0
   59.9640   31.6680   49.3700 N   0  0  0  0  0  0  0  0  0  0  0  0
   59.2940   32.8140   48.7980 C   0  0  0  0  0  0  0  0  0  0  0  0
   59.9290   34.1720   48.7610 C   0  0  0  0  0  0  0  0  0  0  0  0
   58.1340   32.6830   48.3190 O   0  0  0  0  0  0  0  0  0  0  0  0
   59.4140   30.3290   49.0960 C   0  0  0  0  0  0  0  0  0  0  0  0
   60.2590   29.2180   49.7300 C   0  0  0  0  0  0  0  0  0  0  0  0
   58.1670   29.4440   51.6690 C   0  0  0  0  0  0  0  0  0  0  0  0
   56.7905   31.7473   51.9300 H   0  0  0  0  0  0  0  0  0  0  0  0
   55.0499   32.5220   51.9237 H   0  0  0  0  0  0  0  0  0  0  0  0
   52.2280   31.4015   53.3937 H   0  0  0  0  0  0  0  0  0  0  0  0
   52.9084   28.4232   53.7092 H   0  0  0  0  0  0  0  0  0  0  0  0
   55.5010   27.1615   54.9858 H   0  0  0  0  0  0  0  0  0  0  0  0
   54.8014   26.3774   53.5290 H   0  0  0  0  0  0  0  0  0  0  0  0
   56.5194   26.9019   53.5290 H   0  0  0  0  0  0  0  0  0  0  0  0
   57.9437   28.9803   54.9028 H   0  0  0  0  0  0  0  0  0  0  0  0
   60.3600   29.0740   53.9510 H   0  0  0  0  0  0  0  0  0  0  0  0
   61.4089   28.8268   51.4902 H   0  0  0  0  0  0  0  0  0  0  0  0
   60.6606   31.4860   52.1371 H   0  0  0  0  0  0  0  0  0  0  0  0
   62.2911   30.8058   51.6615 H   0  0  0  0  0  0  0  0  0  0  0  0
   61.4046   32.8495   50.3523 H   0  0  0  0  0  0  0  0  0  0  0  0
   62.0494   31.4326   49.4330 H   0  0  0  0  0  0  0  0  0  0  0  0
   60.0951   34.5272   49.7887 H   0  0  0  0  0  0  0  0  0  0  0  0
   60.8924   34.1120   48.2336 H   0  0  0  0  0  0  0  0  0  0  0  0
   59.2653   34.8729   48.2336 H   0  0  0  0  0  0  0  0  0  0  0  0
   58.3935   30.2746   49.5030 H   0  0  0  0  0  0  0  0  0  0  0  0
   59.4176   30.1776   48.0065 H   0  0  0  0  0  0  0  0  0  0  0  0
   59.6887   28.2778   49.7023 H   0  0  0  0  0  0  0  0  0  0  0  0
   61.1940   29.1320   49.1569 H   0  0  0  0  0  0  0  0  0  0  0  0
   57.8145   29.6199   50.6420 H   0  0  0  0  0  0  0  0  0  0  0  0
  1  2  2  0
  2  3  1  0
  3  4  2  3
  4  5  1  0
  5  6  1  0
  6  7  1  0
  7  8  2  0
  7  9  1  0
  9 10  1  0
 10 11  1  0
  3 12  1  0
 12 13  2  0
 13 14  1  0
 13 15  1  0
 15 16  1  0
 16 17  1  0
 17 18  2  0
 18 19  1  0
 19 20  1  0
 20 21  1  0
 21 22  1  0
 22 23  1  0
 23 24  1  0
 24 25  1  0
 24 26  2  0
 23 27  1  0
 27 28  1  0
 19 29  1  0
 15  2  1  0
 29 16  2  0
 10  5  2  0
 28 20  1  0
  1 30  1  0
  1 31  1  0
  4 32  1  0
 12 33  1  0
 14 34  1  0
 14 35  1  0
 14 36  1  0
 17 37  1  0
 18 38  1  0
 20 39  1  0
 21 40  1  0
 21 41  1  0
 22 42  1  0
 22 43  1  0
 25 44  1  0
 25 45  1  0
 25 46  1  0
 27 47  1  0
 27 48  1  0
 28 49  1  0
 28 50  1  0
 29 51  1  0
M  CHG  4   6  -1   9  -1  11  -1  18   1
M  END
>  <UniqueID>  (27) 
24

>  <SMILES>  (27) 
C=c1c(=Cc2[n-]c(=O)[n-]c2[O-])cc(C)n1-c1c[nH+]n(C2CCN(C(C)=O)CC2)c1

>  <Energy>  (27) 
161.84021797920278

>  <Genealogy>  (27) 
C=c1c(=Cc2[n-]c(=O)[n-]c2[O-])cc(C)n1-c1c[nH+]n(C2CCN(C(C)=O)CC2)c1 (protonated)
C=c1c(=Cc2[n-]c(=O)[n-]c2[O-])cc(C)n1-c1c[nH+]n(C2CCN(C(C)=O)CC2)c1 (3D coordinates assigned)
C=c1c(=Cc2[n-]c(=O)[n-]c2[O-])cc(C)n1-c1c[nH+]n(C2CCN(C(C)=O)CC2)c1 (nonaromatic ring conformer: 161.84021797920278 kcal/mol)

>  <smiles>  (27) 
C=c1c(=Cc2[nH]c(=O)[nH]c2O)cc(C)n1-c1cnn(C2CCN(C(C)=O)CC2)c1

>  <score_type>  (27) 
oracle

>  <origin>  (27) 
adg

>  <m_score__min__energy>  (27) 
-15.69

>  <m_primary>  (27) 
energy

$$$$
27:0
     RDKit          3D

 52 55  0  0  0  0  0  0  0  0999 V2000
   59.7740   28.2100   44.1550 C   0  0  0  0  0  0  0  0  0  0  0  0
   58.9160   27.7940   45.0890 C   0  0  0  0  0  0  0  0  0  0  0  0
   58.7160   26.4900   45.3680 N   0  0  0  0  0  0  0  0  0  0  0  0
   57.8600   26.4420   46.4120 C   0  0  0  0  0  0  0  0  0  0  0  0
   57.3970   25.3200   46.9820 C   0  0  0  0  0  0  0  0  0  0  0  0
   56.1620   24.6300   46.5460 C   0  0  0  0  0  0  0  0  0  0  0  0
   55.0760   25.3370   46.0010 C   0  0  0  0  0  0  0  0  0  0  0  0
   55.1250   26.7200   45.8580 O   0  0  0  0  0  0  0  0  0  0  0  0
   53.9690   24.6660   45.5890 N   0  0  0  0  0  0  0  0  0  0  0  0
   53.8960   23.3150   45.6750 C   0  0  0  0  0  0  0  0  0  0  0  0
   52.8590   22.7150   45.2910 O   0  0  0  0  0  0  0  0  0  0  0  0
   54.9430   22.6070   46.1700 N   0  0  0  0  0  0  0  0  0  0  0  0
   56.0730   23.2300   46.5980 C   0  0  0  0  0  0  0  0  0  0  0  0
   57.0270   22.5410   47.0460 O   0  0  0  0  0  0  0  0  0  0  0  0
   57.4990   27.7210   46.7980 C   0  0  0  0  0  0  0  0  0  0  0  0
   58.1620   28.5880   45.9490 C   0  0  0  0  0  0  0  0  0  0  0  0
   58.0280   30.0610   45.9980 C   0  0  0  0  0  0  0  0  0  0  0  0
   57.0740   30.5950   45.3670 O   0  0  0  0  0  0  0  0  0  0  0  0
   59.0440   30.8950   46.6100 N   0  0  0  0  0  0  0  0  0  0  0  0
   58.8920   30.9000   48.0880 C   0  0  0  0  0  0  0  0  0  0  0  0
   59.5400   32.1460   48.7040 C   0  0  0  0  0  0  0  0  0  0  0  0
   58.8690   33.3900   48.2480 N   0  0  0  0  0  0  0  0  0  0  0  0
   59.7710   34.5580   48.3480 C   0  0  0  0  0  0  0  0  0  0  0  0
   61.2130   34.1370   48.2190 C   0  0  0  0  0  0  0  0  0  0  0  0
   61.7420   33.8260   46.9560 C   0  0  0  0  0  0  0  0  0  0  0  0
   63.0860   33.4590   46.8280 C   0  0  0  0  0  0  0  0  0  0  0  0
   63.9080   33.4060   47.9570 C   0  0  0  0  0  0  0  0  0  0  0  0
   63.3900   33.7210   49.2160 C   0  0  0  0  0  0  0  0  0  0  0  0
   62.0460   34.0880   49.3480 C   0  0  0  0  0  0  0  0  0  0  0  0
   58.2760   33.2730   46.8910 C   0  0  0  0  0  0  0  0  0  0  0  0
   59.0250   32.2570   46.0110 C   0  0  0  0  0  0  0  0  0  0  0  0
   59.9012   29.2860   43.9651 H   0  0  0  0  0  0  0  0  0  0  0  0
   60.3539   27.4768   43.5752 H   0  0  0  0  0  0  0  0  0  0  0  0
   59.1420   25.6820   44.8610 H   0  0  0  0  0  0  0  0  0  0  0  0
   57.9658   24.8889   47.8190 H   0  0  0  0  0  0  0  0  0  0  0  0
   56.8189   27.9940   47.6183 H   0  0  0  0  0  0  0  0  0  0  0  0
   59.9840   30.4900   46.3940 H   0  0  0  0  0  0  0  0  0  0  0  0
   57.8211   30.8902   48.3393 H   0  0  0  0  0  0  0  0  0  0  0  0
   59.3919   30.0084   48.4943 H   0  0  0  0  0  0  0  0  0  0  0  0
   59.4677   32.0819   49.7997 H   0  0  0  0  0  0  0  0  0  0  0  0
   60.5913   32.1831   48.3826 H   0  0  0  0  0  0  0  0  0  0  0  0
   59.5301   35.2689   47.5439 H   0  0  0  0  0  0  0  0  0  0  0  0
   59.6290   35.0284   49.3322 H   0  0  0  0  0  0  0  0  0  0  0  0
   61.0982   33.8710   46.0652 H   0  0  0  0  0  0  0  0  0  0  0  0
   63.4961   33.2119   45.8377 H   0  0  0  0  0  0  0  0  0  0  0  0
   64.9641   33.1159   47.8544 H   0  0  0  0  0  0  0  0  0  0  0  0
   64.0387   33.6805   50.1034 H   0  0  0  0  0  0  0  0  0  0  0  0
   61.6410   34.3389   50.3395 H   0  0  0  0  0  0  0  0  0  0  0  0
   57.2287   32.9512   46.9893 H   0  0  0  0  0  0  0  0  0  0  0  0
   58.3505   34.2573   46.4056 H   0  0  0  0  0  0  0  0  0  0  0  0
   58.5289   32.2051   45.0306 H   0  0  0  0  0  0  0  0  0  0  0  0
   60.0668   32.5974   45.9173 H   0  0  0  0  0  0  0  0  0  0  0  0
  1  2  2  0
  2  3  1  0
  3  4  1  0
  4  5  2  3
  5  6  1  0
  6  7  2  0
  7  8  1  0
  7  9  1  0
  9 10  1  0
 10 11  2  0
 10 12  1  0
 12 13  1  0
 13 14  2  0
  4 15  1  0
 15 16  2  0
 16 17  1  0
 17 18  2  0
 17 19  1  0
 19 20  1  0
 20 21  1  0
 21 22  1  0
 22 23  1  0
 23 24  1  0
 24 25  2  0
 25 26  1  0
 26 27  2  0
 27 28  1  0
 28 29  2  0
 22 30  1  0
 30 31  1  0
 16  2  1  0
 31 19  1  0
 13  6  1  0
 29 24  1  0
  1 32  1  0
  1 33  1  0
  3 34  1  0
  5 35  1  0
 15 36  1  0
 19 37  1  0
 20 38  1  0
 20 39  1  0
 21 40  1  0
 21 41  1  0
 23 42  1  0
 23 43  1  0
 25 44  1  0
 26 45  1  0
 27 46  1  0
 28 47  1  0
 29 48  1  0
 30 49  1  0
 30 50  1  0
 31 51  1  0
 31 52  1  0
M  CHG  4   8  -1   9  -1  12  -1  19   1
M  END
>  <UniqueID>  (28) 
25

>  <SMILES>  (28) 
C=c1[nH]c(=Cc2c([O-])[n-]c(=O)[n-]c2=O)cc1C(=O)[NH+]1CCN(Cc2ccccc2)CC1

>  <Energy>  (28) 
110.9848653793164

>  <Genealogy>  (28) 
C=c1[nH]c(=Cc2c([O-])[n-]c(=O)[n-]c2=O)cc1C(=O)[NH+]1CCN(Cc2ccccc2)CC1 (protonated)
C=c1[nH]c(=Cc2c([O-])[n-]c(=O)[n-]c2=O)cc1C(=O)[NH+]1CCN(Cc2ccccc2)CC1 (3D coordinates assigned)
C=c1[nH]c(=Cc2c([O-])[n-]c(=O)[n-]c2=O)cc1C(=O)[NH+]1CCN(Cc2ccccc2)CC1 (nonaromatic ring conformer: 110.9848653793164 kcal/mol)

>  <smiles>  (28) 
C=c1[nH]c(=Cc2c(O)[nH]c(=O)[nH]c2=O)cc1C(=O)N1CCN(Cc2ccccc2)CC1

>  <score_type>  (28) 
oracle

>  <origin>  (28) 
adg

>  <m_score__min__energy>  (28) 
-15.34

>  <m_primary>  (28) 
energy

$$$$
28:0
     RDKit          3D

 56 59  0  0  1  0  0  0  0  0999 V2000
   66.7550   34.7910   51.7540 C   0  0  0  0  0  0  0  0  0  0  0  0
   66.2430   33.4340   51.7290 N   0  0  0  0  0  0  0  0  0  0  0  0
   64.8860   33.4430   52.2020 C   0  0  0  0  0  0  0  0  0  0  0  0
   63.9510   34.0850   51.1810 C   0  0  0  0  0  0  0  0  0  0  0  0
   64.1020   33.3130   49.9570 N   0  0  0  0  0  0  0  0  0  0  0  0
   63.3260   33.5400   48.7920 C   0  0  0  0  0  0  0  0  0  0  0  0
   62.0270   33.8950   48.8630 N   0  0  0  0  0  0  0  0  0  0  0  0
   61.3300   34.0910   47.7310 C   0  0  0  0  0  0  0  0  0  0  0  0
   60.0920   34.4500   47.7020 N   0  0  0  0  0  0  0  0  0  0  0  0
   59.5630   34.8040   46.3740 C   0  0  0  0  0  0  0  0  0  0  0  0
   58.8650   33.5310   45.9450 C   0  0  0  0  0  0  0  0  0  0  0  0
   58.3730   33.4870   44.6560 C   0  0  0  0  0  0  0  0  0  0  0  0
   57.7250   32.3440   44.2200 C   0  0  0  0  0  0  0  0  0  0  0  0
   57.5950   31.2820   45.1000 C   0  0  0  0  0  0  0  0  0  0  0  0
   56.9030   30.0850   44.5790 C   0  0  0  0  0  0  0  0  0  0  0  0
   55.6460   30.1940   44.5010 O   0  0  0  0  0  0  0  0  0  0  0  0
   57.5900   28.9100   44.1990 N   0  0  0  0  0  0  0  0  0  0  0  0
   57.9050   28.0140   45.0390 C   0  0  0  0  0  0  0  0  0  0  0  0
   59.2140   27.7540   45.2230 N   0  0  0  0  0  0  0  0  0  0  0  0
   59.6770   26.8280   46.0790 C   0  0  0  0  0  0  0  0  0  0  0  0
   58.7550   26.0990   46.8130 C   0  0  0  0  0  0  0  0  0  0  0  0
   57.3910   26.3270   46.6600 C   0  0  0  0  0  0  0  0  0  0  0  0
   56.9720   27.3030   45.7530 C   0  0  0  0  0  0  0  0  0  0  0  0
   55.6310   27.5060   45.6210 O   0  0  0  0  0  0  0  0  0  0  0  0
   58.0940   31.3510   46.3770 C   0  0  0  0  0  0  0  0  0  0  0  0
   58.7520   32.4920   46.8430 C   0  0  0  0  0  0  0  0  0  0  0  0
   61.9650   33.9230   46.4960 C   0  0  0  0  0  0  0  0  0  0  0  0
   63.3030   33.5570   46.4330 C   0  0  0  0  0  0  0  0  0  0  0  0
   63.9320   33.3800   47.5950 N   0  0  0  0  0  0  0  0  0  0  0  0
   65.1090   32.2690   49.9450 C   0  0  0  0  0  0  0  0  0  0  0  0
   66.4400   32.7920   50.4660 C   0  0  0  0  0  0  0  0  0  0  0  0
   66.8781   35.1173   52.7973 H   0  0  0  0  0  0  0  0  0  0  0  0
   67.7279   34.8253   51.2419 H   0  0  0  0  0  0  0  0  0  0  0  0
   66.0472   35.4594   51.2419 H   0  0  0  0  0  0  0  0  0  0  0  0
   64.5623   32.4075   52.3839 H   0  0  0  0  0  0  0  0  0  0  0  0
   64.8444   34.0307   53.1309 H   0  0  0  0  0  0  0  0  0  0  0  0
   62.9104   34.0406   51.5349 H   0  0  0  0  0  0  0  0  0  0  0  0
   64.1964   35.1453   51.0212 H   0  0  0  0  0  0  0  0  0  0  0  0
   58.8541   35.6425   46.4398 H   0  0  0  0  0  0  0  0  0  0  0  0
   60.3392   35.1358   45.6687 H   0  0  0  0  0  0  0  0  0  0  0  0
   58.4943   34.3492   43.9838 H   0  0  0  0  0  0  0  0  0  0  0  0
   57.3225   32.2805   43.1982 H   0  0  0  0  0  0  0  0  0  0  0  0
   59.9200   28.2890   44.6850 H   0  0  0  0  0  0  0  0  0  0  0  0
   60.7570   26.6534   46.1940 H   0  0  0  0  0  0  0  0  0  0  0  0
   59.1042   25.3341   47.5222 H   0  0  0  0  0  0  0  0  0  0  0  0
   56.6571   25.7500   47.2418 H   0  0  0  0  0  0  0  0  0  0  0  0
   55.1420   28.1070   45.0040 H   0  0  0  0  0  0  0  0  0  0  0  0
   57.9730   30.4883   47.0487 H   0  0  0  0  0  0  0  0  0  0  0  0
   59.1552   32.5569   47.8644 H   0  0  0  0  0  0  0  0  0  0  0  0
   61.3992   34.0823   45.5662 H   0  0  0  0  0  0  0  0  0  0  0  0
   63.8188   33.4198   45.4712 H   0  0  0  0  0  0  0  0  0  0  0  0
   64.9570   33.0970   47.5650 H   0  0  0  0  0  0  0  0  0  0  0  0
   64.7739   31.4381   50.5832 H   0  0  0  0  0  0  0  0  0  0  0  0
   65.2474   31.9262   48.9090 H   0  0  0  0  0  0  0  0  0  0  0  0
   67.1407   31.9528   50.5874 H   0  0  0  0  0  0  0  0  0  0  0  0
   66.8533   33.5165   49.7489 H   0  0  0  0  0  0  0  0  0  0  0  0
  1  2  1  0
  2  3  1  0
  3  4  1  0
  4  5  1  0
  5  6  1  0
  6  7  2  0
  7  8  1  0
  8  9  2  0
  9 10  1  0
 10 11  1  0
 11 12  2  0
 12 13  1  0
 13 14  2  0
 14 15  1  0
 15 16  2  0
 15 17  1  0
 17 18  2  0
 18 19  1  0
 19 20  1  0
 20 21  2  0
 21 22  1  0
 22 23  2  0
 23 24  1  0
 14 25  1  0
 25 26  2  0
  8 27  1  0
 27 28  2  0
 28 29  1  0
  5 30  1  0
 30 31  1  0
 31  2  1  0
 29  6  1  0
 26 11  1  0
 23 18  1  0
  1 32  1  0
  1 33  1  0
  1 34  1  0
  3 35  1  0
  3 36  1  0
  4 37  1  0
  4 38  1  0
 10 39  1  0
 10 40  1  0
 12 41  1  0
 13 42  1  0
 19 43  1  0
 20 44  1  0
 21 45  1  0
 22 46  1  0
 24 47  1  0
 25 48  1  0
 26 49  1  0
 27 50  1  0
 28 51  1  0
 29 52  1  0
 30 53  1  0
 30 54  1  0
 31 55  1  0
 31 56  1  0
M  END
>  <smiles>  (29) 
CN1CCN(c2nc(=NCc3ccc(C(=O)N=c4[nH]cccc4O)cc3)cc[nH]2)CC1

>  <score_type>  (29) 
oracle

>  <origin>  (29) 
adg

>  <m_score__min__energy>  (29) 
-10.300000000000001

>  <m_primary>  (29) 
energy

$$$$
29:0
     RDKit          3D

 49 52  0  0  0  0  0  0  0  0999 V2000
   60.0810   29.4410   44.9880 C   0  0  0  0  0  0  0  0  0  0  0  0
   59.5550   29.3340   46.2170 C   0  0  0  0  0  0  0  0  0  0  0  0
   58.9140   28.2140   46.7600 C   0  0  0  0  0  0  0  0  0  0  0  0
   58.6820   27.0360   46.1450 C   0  0  0  0  0  0  0  0  0  0  0  0
   57.6400   26.0670   46.5500 C   0  0  0  0  0  0  0  0  0  0  0  0
   57.8750   24.8960   47.1710 N   0  0  0  0  0  0  0  0  0  0  0  0
   56.6540   24.3270   47.2490 C   0  0  0  0  0  0  0  0  0  0  0  0
   56.4610   23.2040   47.7840 O   0  0  0  0  0  0  0  0  0  0  0  0
   55.6560   25.0540   46.7060 N   0  0  0  0  0  0  0  0  0  0  0  0
   56.2920   26.1490   46.2620 C   0  0  0  0  0  0  0  0  0  0  0  0
   55.6430   27.1990   45.6170 O   0  0  0  0  0  0  0  0  0  0  0  0
   58.5290   28.5750   48.0470 C   0  0  0  0  0  0  0  0  0  0  0  0
   58.9590   29.8720   48.2420 C   0  0  0  0  0  0  0  0  0  0  0  0
   58.7060   30.6750   49.4800 C   0  0  0  0  0  0  0  0  0  0  0  0
   59.5670   30.3370   47.1300 N   0  0  0  0  0  0  0  0  0  0  0  0
   60.1480   31.6450   46.9720 C   0  0  0  0  0  0  0  0  0  0  0  0
   61.4310   31.8960   47.4940 C   0  0  0  0  0  0  0  0  0  0  0  0
   62.1230   30.8350   48.1670 N   0  0  0  0  0  0  0  0  0  0  0  0
   62.3740   30.7220   49.8780 S   0  0  0  0  0  0  0  0  0  0  0  0
   61.4950   32.0460   50.6750 C   0  0  0  0  0  0  0  0  0  0  0  0
   61.8530   29.4070   50.3840 O   0  0  0  0  0  0  0  0  0  0  0  0
   63.8400   30.8500   50.1880 O   0  0  0  0  0  0  0  0  0  0  0  0
   61.9970   33.1760   47.3590 C   0  0  0  0  0  0  0  0  0  0  0  0
   61.2930   34.1910   46.7140 C   0  0  0  0  0  0  0  0  0  0  0  0
   60.0200   33.9470   46.2000 C   0  0  0  0  0  0  0  0  0  0  0  0
   59.4300   32.6790   46.3280 C   0  0  0  0  0  0  0  0  0  0  0  0
   58.0890   32.4390   45.7390 C   0  0  0  0  0  0  0  0  0  0  0  0
   57.4390   33.4140   45.2750 O   0  0  0  0  0  0  0  0  0  0  0  0
   57.4710   31.1440   45.7410 N   0  0  0  0  0  0  0  0  0  0  0  0
   56.8540   30.5860   44.7410 C   0  0  0  0  0  0  0  0  0  0  0  0
   55.7490   29.8160   44.8560 N   0  0  0  0  0  0  0  0  0  0  0  0
   55.3340   29.3300   43.6880 N   0  0  0  0  0  0  0  0  0  0  0  0
   56.1060   29.7030   42.6410 C   0  0  0  0  0  0  0  0  0  0  0  0
   57.3800   30.6830   43.1500 S   0  0  0  0  0  0  0  0  0  0  0  0
   60.5619   30.3796   44.6754 H   0  0  0  0  0  0  0  0  0  0  0  0
   60.0315   28.5902   44.2926 H   0  0  0  0  0  0  0  0  0  0  0  0
   59.3122   26.7776   45.2812 H   0  0  0  0  0  0  0  0  0  0  0  0
   56.0510   27.6720   44.8210 H   0  0  0  0  0  0  0  0  0  0  0  0
   57.9866   27.9479   48.7698 H   0  0  0  0  0  0  0  0  0  0  0  0
   58.9017   30.0537   50.3664 H   0  0  0  0  0  0  0  0  0  0  0  0
   59.3718   31.5505   49.4916 H   0  0  0  0  0  0  0  0  0  0  0  0
   57.6586   31.0107   49.4916 H   0  0  0  0  0  0  0  0  0  0  0  0
   61.5709   31.9317   51.7664 H   0  0  0  0  0  0  0  0  0  0  0  0
   61.9334   33.0095   50.3759 H   0  0  0  0  0  0  0  0  0  0  0  0
   60.4369   32.0160   50.3759 H   0  0  0  0  0  0  0  0  0  0  0  0
   62.9997   33.3770   47.7642 H   0  0  0  0  0  0  0  0  0  0  0  0
   61.7435   35.1891   46.6099 H   0  0  0  0  0  0  0  0  0  0  0  0
   59.4735   34.7541   45.6902 H   0  0  0  0  0  0  0  0  0  0  0  0
   55.9263   29.4064   41.5971 H   0  0  0  0  0  0  0  0  0  0  0  0
  1  2  2  0
  2  3  1  0
  3  4  2  3
  4  5  1  0
  5  6  1  0
  6  7  1  0
  7  8  2  0
  7  9  1  0
  9 10  1  0
 10 11  1  0
  3 12  1  0
 12 13  2  0
 13 14  1  0
 13 15  1  0
 15 16  1  0
 16 17  2  0
 17 18  1  0
 18 19  1  0
 19 20  1  0
 19 21  2  0
 19 22  2  0
 17 23  1  0
 23 24  2  0
 24 25  1  0
 25 26  2  0
 26 27  1  0
 27 28  2  0
 27 29  1  0
 29 30  2  3
 30 31  1  0
 31 32  1  0
 32 33  2  0
 33 34  1  0
 15  2  1  0
 26 16  1  0
 34 30  1  0
 10  5  2  0
  1 35  1  0
  1 36  1  0
  4 37  1  0
 11 38  1  0
 12 39  1  0
 14 40  1  0
 14 41  1  0
 14 42  1  0
 20 43  1  0
 20 44  1  0
 20 45  1  0
 23 46  1  0
 24 47  1  0
 25 48  1  0
 33 49  1  0
M  CHG  4   6  -1   9  -1  18  -1  31  -1
M  END
>  <UniqueID>  (30) 
26

>  <SMILES>  (30) 
C=c1c(=Cc2[n-]c(=O)[n-]c2O)cc(C)n1-c1c([N-]S(C)(=O)=O)cccc1C(=O)N=c1[n-]ncs1

>  <Energy>  (30) 
161.64020322786467

>  <Genealogy>  (30) 
C=c1c(=Cc2[n-]c(=O)[n-]c2O)cc(C)n1-c1c([N-]S(C)(=O)=O)cccc1C(=O)N=c1[n-]ncs1 (protonated)
C=c1c(=Cc2[n-]c(=O)[n-]c2O)cc(C)n1-c1c([N-]S(C)(=O)=O)cccc1C(=O)N=c1[n-]ncs1 (3D coordinates assigned)
C=c1c(=Cc2[n-]c(=O)[n-]c2O)cc(C)n1-c1c([N-]S(C)(=O)=O)cccc1C(=O)N=c1[n-]ncs1 (optimized conformer: 161.64020322786467 kcal/mol)

>  <smiles>  (30) 
C=c1c(=Cc2[nH]c(=O)[nH]c2O)cc(C)n1-c1c(NS(C)(=O)=O)cccc1C(=O)N=c1[nH]ncs1

>  <score_type>  (30) 
oracle

>  <origin>  (30) 
adg

>  <m_score__min__energy>  (30) 
-15.130000000000001

>  <m_primary>  (30) 
energy

$$$$
30:0
     RDKit          3D

 46 48  0  0  0  0  0  0  0  0999 V2000
   55.0950   26.3010   46.0020 O   0  0  0  0  0  0  0  0  0  0  0  0
   56.0970   25.5700   45.7800 C   0  0  0  0  0  0  0  0  0  0  0  0
   57.4690   26.0750   46.0990 C   0  0  0  0  0  0  0  0  0  0  0  0
   57.4220   27.0980   47.1450 N   0  0  0  0  0  0  0  0  0  0  0  0
   58.4510   28.4520   46.7660 S   0  0  0  0  0  0  0  0  0  0  0  0
   58.5410   29.3500   47.9680 O   0  0  0  0  0  0  0  0  0  0  0  0
   59.8310   27.9520   46.4440 O   0  0  0  0  0  0  0  0  0  0  0  0
   57.8030   29.3840   45.4120 C   0  0  0  0  0  0  0  0  0  0  0  0
   56.6350   28.9560   44.7630 C   0  0  0  0  0  0  0  0  0  0  0  0
   56.0930   29.7070   43.7190 C   0  0  0  0  0  0  0  0  0  0  0  0
   56.7110   30.8910   43.3160 C   0  0  0  0  0  0  0  0  0  0  0  0
   57.8730   31.3290   43.9570 C   0  0  0  0  0  0  0  0  0  0  0  0
   58.4290   30.5800   45.0130 C   0  0  0  0  0  0  0  0  0  0  0  0
   59.5920   30.9910   45.6880 O   0  0  0  0  0  0  0  0  0  0  0  0
   59.6510   31.9980   46.6970 C   0  0  0  0  0  0  0  0  0  0  0  0
   61.0820   32.3540   46.9970 C   0  0  0  0  0  0  0  0  0  0  0  0
   61.6160   33.5610   46.5170 C   0  0  0  0  0  0  0  0  0  0  0  0
   62.9510   33.8890   46.7700 C   0  0  0  0  0  0  0  0  0  0  0  0
   63.7580   33.0220   47.5090 C   0  0  0  0  0  0  0  0  0  0  0  0
   63.2310   31.8230   47.9990 C   0  0  0  0  0  0  0  0  0  0  0  0
   61.8960   31.4890   47.7460 C   0  0  0  0  0  0  0  0  0  0  0  0
   55.9400   24.2650   45.2070 N   0  0  0  0  0  0  0  0  0  0  0  0
   56.6460   23.7590   44.0280 C   0  0  1  0  0  0  0  0  0  0  0  0
   57.7990   22.8090   44.3990 C   0  0  0  0  0  0  0  0  0  0  0  0
   57.4380   21.4320   43.8040 C   0  0  0  0  0  0  0  0  0  0  0  0
   56.2350   21.6180   43.0790 O   0  0  0  0  0  0  0  0  0  0  0  0
   55.7700   22.9070   43.1970 C   0  0  0  0  0  0  0  0  0  0  0  0
   54.7140   23.3070   42.6390 O   0  0  0  0  0  0  0  0  0  0  0  0
   58.0899   25.2354   46.4448 H   0  0  0  0  0  0  0  0  0  0  0  0
   57.8974   26.5228   45.1902 H   0  0  0  0  0  0  0  0  0  0  0  0
   56.1439   28.0237   45.0787 H   0  0  0  0  0  0  0  0  0  0  0  0
   55.1778   29.3651   43.2135 H   0  0  0  0  0  0  0  0  0  0  0  0
   56.2829   31.4809   42.4922 H   0  0  0  0  0  0  0  0  0  0  0  0
   58.3561   32.2634   43.6354 H   0  0  0  0  0  0  0  0  0  0  0  0
   59.1199   32.8950   46.3458 H   0  0  0  0  0  0  0  0  0  0  0  0
   59.1782   31.6145   47.6132 H   0  0  0  0  0  0  0  0  0  0  0  0
   60.9818   34.2503   45.9402 H   0  0  0  0  0  0  0  0  0  0  0  0
   63.3666   34.8323   46.3860 H   0  0  0  0  0  0  0  0  0  0  0  0
   64.8085   33.2821   47.7058 H   0  0  0  0  0  0  0  0  0  0  0  0
   63.8665   31.1418   48.5839 H   0  0  0  0  0  0  0  0  0  0  0  0
   61.4831   30.5465   48.1348 H   0  0  0  0  0  0  0  0  0  0  0  0
   56.9942   24.6654   43.5110 H   0  0  0  0  0  0  0  0  0  0  0  0
   58.7444   23.1726   43.9701 H   0  0  0  0  0  0  0  0  0  0  0  0
   57.9315   22.7497   45.4894 H   0  0  0  0  0  0  0  0  0  0  0  0
   58.2377   21.0849   43.1332 H   0  0  0  0  0  0  0  0  0  0  0  0
   57.3182   20.6738   44.5919 H   0  0  0  0  0  0  0  0  0  0  0  0
  1  2  2  0
  2  3  1  0
  3  4  1  0
  4  5  1  0
  5  6  2  0
  5  7  2  0
  5  8  1  0
  8  9  2  0
  9 10  1  0
 10 11  2  0
 11 12  1  0
 12 13  2  0
 13 14  1  0
 14 15  1  0
 15 16  1  0
 16 17  2  0
 17 18  1  0
 18 19  2  0
 19 20  1  0
 20 21  2  0
  2 22  1  0
 22 23  1  0
 23 24  1  0
 24 25  1  0
 25 26  1  0
 26 27  1  0
 27 28  2  0
 13  8  1  0
 21 16  1  0
 27 23  1  0
  3 29  1  0
  3 30  1  0
  9 31  1  0
 10 32  1  0
 11 33  1  0
 12 34  1  0
 15 35  1  0
 15 36  1  0
 17 37  1  0
 18 38  1  0
 19 39  1  0
 20 40  1  0
 21 41  1  0
 23 42  1  6
 24 43  1  0
 24 44  1  0
 25 45  1  0
 25 46  1  0
M  CHG  2   4  -1  22  -1
M  END
>  <UniqueID>  (31) 
27

>  <SMILES>  (31) 
O=C(C[N-]S(=O)(=O)c1ccccc1OCc1ccccc1)[N-][C@H]1CCOC1=O

>  <Energy>  (31) 
51.693058004130265

>  <Genealogy>  (31) 
O=C(C[N-]S(=O)(=O)c1ccccc1OCc1ccccc1)[N-]C1CCOC1=O (protonated)
O=C(C[N-]S(=O)(=O)c1ccccc1OCc1ccccc1)[N-][C@H]1CCOC1=O (chirality)
O=C(C[N-]S(=O)(=O)c1ccccc1OCc1ccccc1)[N-][C@H]1CCOC1=O (3D coordinates assigned)
O=C(C[N-]S(=O)(=O)c1ccccc1OCc1ccccc1)[N-][C@H]1CCOC1=O (nonaromatic ring conformer: 51.693058004130265 kcal/mol)

>  <smiles>  (31) 
O=C(CNS(=O)(=O)c1ccccc1OCc1ccccc1)NC1CCOC1=O

>  <score_type>  (31) 
oracle

>  <origin>  (31) 
adg

>  <m_score__min__energy>  (31) 
-12.74

>  <m_primary>  (31) 
energy

$$$$
31:0
     RDKit          3D

 47 49  0  0  1  0  0  0  0  0999 V2000
   58.5250   31.1100   49.1920 N   0  0  0  0  0  0  0  0  0  0  0  0
   59.9390   30.3570   48.5390 S   0  0  0  0  0  0  0  0  0  0  0  0
   60.4350   29.4100   49.6070 O   0  0  0  0  0  0  0  0  0  0  0  0
   59.6110   29.5400   47.3220 O   0  0  0  0  0  0  0  0  0  0  0  0
   61.1980   31.5370   48.2420 C   0  0  0  0  0  0  0  0  0  0  0  0
   62.5480   31.2030   48.4130 C   0  0  0  0  0  0  0  0  0  0  0  0
   63.5390   32.1560   48.1740 C   0  0  0  0  0  0  0  0  0  0  0  0
   63.1980   33.4480   47.7610 C   0  0  0  0  0  0  0  0  0  0  0  0
   61.8510   33.7840   47.5880 C   0  0  0  0  0  0  0  0  0  0  0  0
   60.8480   32.8310   47.8280 C   0  0  0  0  0  0  0  0  0  0  0  0
   56.8710   30.7000   45.0270 N   0  0  0  0  0  0  0  0  0  0  0  0
   57.4760   31.8350   45.1890 C   0  0  0  0  0  0  0  0  0  0  0  0
   58.1920   32.0180   46.3160 N   0  0  0  0  0  0  0  0  0  0  0  0
   58.8600   33.1510   46.5920 C   0  0  0  0  0  0  0  0  0  0  0  0
   59.5030   33.2360   47.6690 N   0  0  0  0  0  0  0  0  0  0  0  0
   57.5710   29.4560   45.1060 C   0  0  0  0  0  0  0  0  0  0  0  0
   58.8560   29.4410   44.5960 C   0  0  0  0  0  0  0  0  0  0  0  0
   59.6110   28.2870   44.6280 C   0  0  0  0  0  0  0  0  0  0  0  0
   59.0690   27.1440   45.1760 C   0  0  0  0  0  0  0  0  0  0  0  0
   57.7840   27.1870   45.6780 C   0  0  0  0  0  0  0  0  0  0  0  0
   57.2380   26.0220   46.2340 O   0  0  0  0  0  0  0  0  0  0  0  0
   56.7190   24.9840   45.4580 C   0  0  0  0  0  0  0  0  0  0  0  0
   55.2090   25.0720   45.4650 C   0  0  0  0  0  0  0  0  0  0  0  0
   54.7480   26.2700   45.9930 O   0  0  0  0  0  0  0  0  0  0  0  0
   57.0030   28.3230   45.6610 C   0  0  0  0  0  0  0  0  0  0  0  0
   57.4110   32.8210   44.2800 N   0  0  0  0  0  0  0  0  0  0  0  0
   58.0740   33.9690   44.5350 C   0  0  0  0  0  0  0  0  0  0  0  0
   58.8110   34.1760   45.6800 C   0  0  0  0  0  0  0  0  0  0  0  0
   59.6460   35.6860   45.9450 Cl  0  0  0  0  0  0  0  0  0  0  0  0
   58.5140   31.0590   50.2360 H   0  0  0  0  0  0  0  0  0  0  0  0
   58.4460   32.1160   48.9420 H   0  0  0  0  0  0  0  0  0  0  0  0
   62.8268   30.1891   48.7358 H   0  0  0  0  0  0  0  0  0  0  0  0
   64.5972   31.8888   48.3116 H   0  0  0  0  0  0  0  0  0  0  0  0
   63.9835   34.1949   47.5735 H   0  0  0  0  0  0  0  0  0  0  0  0
   61.5766   34.7984   47.2628 H   0  0  0  0  0  0  0  0  0  0  0  0
   58.2280   31.2350   47.0100 H   0  0  0  0  0  0  0  0  0  0  0  0
   59.2802   30.3578   44.1607 H   0  0  0  0  0  0  0  0  0  0  0  0
   60.6330   28.2789   44.2212 H   0  0  0  0  0  0  0  0  0  0  0  0
   59.6518   26.2118   45.2126 H   0  0  0  0  0  0  0  0  0  0  0  0
   57.0890   25.0744   44.4260 H   0  0  0  0  0  0  0  0  0  0  0  0
   57.0369   24.0156   45.8718 H   0  0  0  0  0  0  0  0  0  0  0  0
   54.8456   24.9794   44.4309 H   0  0  0  0  0  0  0  0  0  0  0  0
   54.8302   24.2589   46.1016 H   0  0  0  0  0  0  0  0  0  0  0  0
   55.1360   26.3370   46.9140 H   0  0  0  0  0  0  0  0  0  0  0  0
   55.9810   28.3283   46.0677 H   0  0  0  0  0  0  0  0  0  0  0  0
   56.8660   32.7050   43.4040 H   0  0  0  0  0  0  0  0  0  0  0  0
   58.0231   34.7786   43.7921 H   0  0  0  0  0  0  0  0  0  0  0  0
  1  2  1  0
  2  3  2  0
  2  4  2  0
  2  5  1  0
  5  6  2  0
  6  7  1  0
  7  8  2  0
  8  9  1  0
  9 10  2  0
 10 11  1  0
 11 12  2  0
 12 13  1  0
 13 14  1  0
 14 15  2  0
 15 16  1  0
 16 17  2  0
 17 18  1  0
 18 19  2  0
 19 20  1  0
 20 21  1  0
 21 22  1  0
 22 23  1  0
 23 24  1  0
 20 25  2  0
 14 26  1  0
 26 27  1  0
 27 28  2  0
 28 29  1  0
 10  5  1  0
 28 12  1  0
 25 16  1  0
  1 30  1  0
  1 31  1  0
  6 32  1  0
  7 33  1  0
  8 34  1  0
  9 35  1  0
 13 36  1  0
 17 37  1  0
 18 38  1  0
 19 39  1  0
 22 40  1  0
 22 41  1  0
 23 42  1  0
 23 43  1  0
 24 44  1  0
 25 45  1  0
 26 46  1  0
 27 47  1  0
M  END
>  <smiles>  (32) 
NS(=O)(=O)c1ccccc1N=c1[nH]c(=Nc2cccc(OCCO)c2)[nH]cc1Cl

>  <score_type>  (32) 
oracle

>  <origin>  (32) 
adg

>  <m_score__min__energy>  (32) 
-8.75

>  <m_primary>  (32) 
energy

$$$$
32:0
     RDKit          3D

 49 52  0  0  0  0  0  0  0  0999 V2000
   58.1242   28.0301   42.6199 H   0  0  0  0  0  0  0  0  0  0  0  0
   57.8100   27.1460   43.1940 C   0  0  0  0  0  0  0  0  0  0  0  0
   57.3812   26.2766   42.6741 H   0  0  0  0  0  0  0  0  0  0  0  0
   57.9500   27.1280   44.5310 C   0  0  0  0  0  0  0  0  0  0  0  0
   57.5950   26.0760   45.3850 C   0  0  0  0  0  0  0  0  0  0  0  0
   57.0440   24.8960   45.0320 C   0  0  0  0  0  0  0  0  0  0  0  0
   57.7125   24.1349   44.6033 H   0  0  0  0  0  0  0  0  0  0  0  0
   55.6160   24.5420   45.1740 C   0  0  0  0  0  0  0  0  0  0  0  0
   55.0830   23.3220   44.9720 N   0  0  0  0  0  0  0  0  0  0  0  0
   53.7870   23.4830   45.3100 C   0  0  0  0  0  0  0  0  0  0  0  0
   52.9480   22.5460   45.2470 O   0  0  0  0  0  0  0  0  0  0  0  0
   53.4600   24.7240   45.7290 N   0  0  0  0  0  0  0  0  0  0  0  0
   54.6290   25.3780   45.6430 C   0  0  0  0  0  0  0  0  0  0  0  0
   54.7940   26.7110   45.9950 O   0  0  0  0  0  0  0  0  0  0  0  0
   57.9260   26.4940   46.6680 C   0  0  0  0  0  0  0  0  0  0  0  0
   57.8026   25.9188   47.5974 H   0  0  0  0  0  0  0  0  0  0  0  0
   58.4390   27.7690   46.5520 C   0  0  0  0  0  0  0  0  0  0  0  0
   58.9960   28.5560   47.7010 C   0  0  0  0  0  0  0  0  0  0  0  0
   58.6732   28.0999   48.6485 H   0  0  0  0  0  0  0  0  0  0  0  0
   60.0947   28.5538   47.6486 H   0  0  0  0  0  0  0  0  0  0  0  0
   58.6285   29.5915   47.6486 H   0  0  0  0  0  0  0  0  0  0  0  0
   58.4520   28.1620   45.2560 N   0  0  0  0  0  0  0  0  0  0  0  0
   58.9010   29.4690   44.7520 C   0  0  0  0  0  0  0  0  0  0  0  0
   59.5528   29.9356   45.5054 H   0  0  0  0  0  0  0  0  0  0  0  0
   59.4407   29.3026   43.8081 H   0  0  0  0  0  0  0  0  0  0  0  0
   57.7200   30.4110   44.4650 C   0  0  0  0  0  0  0  0  0  0  0  0
   57.9495   31.0108   43.5719 H   0  0  0  0  0  0  0  0  0  0  0  0
   56.8203   29.7990   44.3037 H   0  0  0  0  0  0  0  0  0  0  0  0
   57.4680   31.3140   45.5950 N   0  0  0  0  0  0  0  0  0  0  0  0
   57.8560   32.5330   45.8770 C   0  0  0  0  0  0  0  0  0  0  0  0
   57.6580   33.4800   44.8610 C   0  0  0  0  0  0  0  0  0  0  0  0
   56.9455   33.2706   44.0495 H   0  0  0  0  0  0  0  0  0  0  0  0
   58.3580   34.6830   44.8740 C   0  0  0  0  0  0  0  0  0  0  0  0
   58.2242   35.4051   44.0550 H   0  0  0  0  0  0  0  0  0  0  0  0
   59.2040   34.9660   45.8940 N   0  0  0  0  0  0  0  0  0  0  0  0
   59.3370   34.1420   46.9640 C   0  0  0  0  0  0  0  0  0  0  0  0
   60.1690   34.5270   48.0210 C   0  0  0  0  0  0  0  0  0  0  0  0
   60.8036   35.4195   47.9178 H   0  0  0  0  0  0  0  0  0  0  0  0
   60.2010   33.7890   49.2050 C   0  0  0  0  0  0  0  0  0  0  0  0
   61.0690   34.2020   50.2260 O   0  0  0  0  0  0  0  0  0  0  0  0
   62.4880   34.2250   50.1130 C   0  0  0  0  0  0  0  0  0  0  0  0
   62.9358   34.2323   51.1177 H   0  0  0  0  0  0  0  0  0  0  0  0
   62.8269   33.3322   49.5670 H   0  0  0  0  0  0  0  0  0  0  0  0
   62.7978   35.1283   49.5670 H   0  0  0  0  0  0  0  0  0  0  0  0
   59.3470   32.6830   49.3420 C   0  0  0  0  0  0  0  0  0  0  0  0
   59.3186   32.1294   50.2921 H   0  0  0  0  0  0  0  0  0  0  0  0
   58.5320   32.2800   48.2790 C   0  0  0  0  0  0  0  0  0  0  0  0
   57.8319   31.4432   48.4189 H   0  0  0  0  0  0  0  0  0  0  0  0
   58.5960   32.9320   47.0310 C   0  0  0  0  0  0  0  0  0  0  0  0
  1  2  1  0
  2  3  1  0
  2  4  2  0
  4  5  1  0
  5  6  2  0
  6  7  1  0
  6  8  1  0
  8  9  1  0
  9 10  1  0
 10 11  2  0
 10 12  1  0
 12 13  1  0
 13 14  1  0
  5 15  1  0
 15 16  1  0
 15 17  2  0
 17 18  1  0
 18 19  1  0
 18 20  1  0
 18 21  1  0
 17 22  1  0
 22 23  1  0
 23 24  1  0
 23 25  1  0
 23 26  1  0
 26 27  1  0
 26 28  1  0
 26 29  1  0
 29 30  2  3
 30 31  1  0
 31 32  1  0
 31 33  2  0
 33 34  1  0
 33 35  1  0
 35 36  1  0
 36 37  2  0
 37 38  1  0
 37 39  1  0
 39 40  1  0
 40 41  1  0
 41 42  1  0
 41 43  1  0
 41 44  1  0
 39 45  2  0
 45 46  1  0
 45 47  1  0
 47 48  1  0
 47 49  2  0
 22  4  1  0
 49 30  1  0
 13  8  2  0
 49 36  1  0
M  CHG  4   9  -1  12  -1  14  -1  35  -1
M  END
>  <UniqueID>  (33) 
28

>  <SMILES>  (33) 
C=c1/c(=C/c2[n-]c(=O)[n-]c2[O-])cc(C)n1CCN=c1cc[n-]c2cc(OC)ccc12

>  <Energy>  (33) 
130.33535912057775

>  <Genealogy>  (33) 
C=c1c(=Cc2[n-]c(=O)[n-]c2[O-])cc(C)n1CCN=c1cc[n-]c2cc(OC)ccc12 (protonated)
C=c1/c(=C/c2[n-]c(=O)[n-]c2[O-])cc(C)n1CCN=c1cc[n-]c2cc(OC)ccc12 (cis-trans isomerization)
C=c1/c(=C/c2[n-]c(=O)[n-]c2[O-])cc(C)n1CCN=c1cc[n-]c2cc(OC)ccc12 (3D coordinates assigned)
C=c1/c(=C/c2[n-]c(=O)[n-]c2[O-])cc(C)n1CCN=c1cc[n-]c2cc(OC)ccc12 (optimized conformer: 130.33535912057775 kcal/mol)

>  <smiles>  (33) 
C=c1c(=Cc2[nH]c(=O)[nH]c2O)cc(C)n1CCN=c1cc[nH]c2cc(OC)ccc12

>  <score_type>  (33) 
oracle

>  <origin>  (33) 
adg

>  <m_score__min__energy>  (33) 
-17.329999999999998

>  <m_primary>  (33) 
energy

$$$$
33:0
     RDKit          3D

 38 39  0  0  0  0  0  0  0  0999 V2000
   59.4880   28.1440   46.7040 C   0  0  0  0  0  0  0  0  0  0  0  0
   58.1610   28.2590   46.6980 C   0  0  0  0  0  0  0  0  0  0  0  0
   57.4220   29.1150   45.7410 C   0  0  0  0  0  0  0  0  0  0  0  0
   58.0450   30.2860   45.2810 C   0  0  0  0  0  0  0  0  0  0  0  0
   57.3990   31.1330   44.3660 C   0  0  0  0  0  0  0  0  0  0  0  0
   58.0920   32.3790   43.8780 C   0  0  0  0  0  0  0  0  0  0  0  0
   58.2850   33.3290   44.9920 N   0  0  0  0  0  0  0  0  0  0  0  0
   57.2290   34.3560   44.9690 C   0  0  0  0  0  0  0  0  0  0  0  0
   59.6230   33.9590   44.9330 C   0  0  0  0  0  0  0  0  0  0  0  0
   60.2370   33.9870   46.3060 C   0  0  0  0  0  0  0  0  0  0  0  0
   61.5680   33.5760   46.4860 C   0  0  0  0  0  0  0  0  0  0  0  0
   62.1400   33.5810   47.7610 C   0  0  0  0  0  0  0  0  0  0  0  0
   61.3900   33.9930   48.8640 C   0  0  0  0  0  0  0  0  0  0  0  0
   60.0610   34.4000   48.7000 C   0  0  0  0  0  0  0  0  0  0  0  0
   59.3230   34.8050   49.8090 O   0  0  0  0  0  0  0  0  0  0  0  0
   59.4850   34.3960   47.4210 C   0  0  0  0  0  0  0  0  0  0  0  0
   56.1190   30.7990   43.9050 C   0  0  0  0  0  0  0  0  0  0  0  0
   55.5000   29.6260   44.3390 C   0  0  0  0  0  0  0  0  0  0  0  0
   56.1450   28.7760   45.2410 C   0  0  0  0  0  0  0  0  0  0  0  0
   55.5230   27.5850   45.6020 O   0  0  0  0  0  0  0  0  0  0  0  0
   59.9802   27.4917   47.4404 H   0  0  0  0  0  0  0  0  0  0  0  0
   60.0917   28.7013   45.9726 H   0  0  0  0  0  0  0  0  0  0  0  0
   57.5844   27.6893   47.4416 H   0  0  0  0  0  0  0  0  0  0  0  0
   59.0518   30.5432   45.6418 H   0  0  0  0  0  0  0  0  0  0  0  0
   59.0721   32.1082   43.4584 H   0  0  0  0  0  0  0  0  0  0  0  0
   57.4695   32.8551   43.1061 H   0  0  0  0  0  0  0  0  0  0  0  0
   56.9546   34.6229   46.0002 H   0  0  0  0  0  0  0  0  0  0  0  0
   57.5982   35.2498   44.4448 H   0  0  0  0  0  0  0  0  0  0  0  0
   56.3458   33.9621   44.4448 H   0  0  0  0  0  0  0  0  0  0  0  0
   60.2690   33.3804   44.2563 H   0  0  0  0  0  0  0  0  0  0  0  0
   59.5221   34.9891   44.5605 H   0  0  0  0  0  0  0  0  0  0  0  0
   62.1623   33.2490   45.6201 H   0  0  0  0  0  0  0  0  0  0  0  0
   63.1833   33.2596   47.8958 H   0  0  0  0  0  0  0  0  0  0  0  0
   61.8451   33.9978   49.8654 H   0  0  0  0  0  0  0  0  0  0  0  0
   58.9110   35.7290   49.8630 H   0  0  0  0  0  0  0  0  0  0  0  0
   58.4403   34.7143   47.2900 H   0  0  0  0  0  0  0  0  0  0  0  0
   55.6001   31.4636   43.1985 H   0  0  0  0  0  0  0  0  0  0  0  0
   54.4969   29.3687   43.9682 H   0  0  0  0  0  0  0  0  0  0  0  0
  1  2  2  0
  2  3  1  0
  3  4  2  0
  4  5  1  0
  5  6  1  0
  6  7  1  0
  7  8  1  0
  7  9  1  0
  9 10  1  0
 10 11  2  0
 11 12  1  0
 12 13  2  0
 13 14  1  0
 14 15  1  0
 14 16  2  0
  5 17  2  0
 17 18  1  0
 18 19  2  0
 19 20  1  0
 19  3  1  0
 16 10  1  0
  1 21  1  0
  1 22  1  0
  2 23  1  0
  4 24  1  0
  6 25  1  0
  6 26  1  0
  8 27  1  0
  8 28  1  0
  8 29  1  0
  9 30  1  0
  9 31  1  0
 11 32  1  0
 12 33  1  0
 13 34  1  0
 15 35  1  0
 16 36  1  0
 17 37  1  0
 18 38  1  0
M  CHG  1  20  -1
M  END
>  <UniqueID>  (34) 
29

>  <SMILES>  (34) 
C=Cc1cc(CN(C)Cc2cccc(O)c2)ccc1[O-]

>  <Energy>  (34) 
41.54484464607093

>  <Genealogy>  (34) 
C=Cc1cc(CN(C)Cc2cccc(O)c2)ccc1[O-] (protonated)
C=Cc1cc(CN(C)Cc2cccc(O)c2)ccc1[O-] (3D coordinates assigned)
C=Cc1cc(CN(C)Cc2cccc(O)c2)ccc1[O-] (optimized conformer: 41.54484464607093 kcal/mol)

>  <smiles>  (34) 
C=Cc1cc(CN(C)Cc2cccc(O)c2)ccc1O

>  <score_type>  (34) 
oracle

>  <origin>  (34) 
adg

>  <m_score__min__energy>  (34) 
-10.199999999999999

>  <m_primary>  (34) 
energy

$$$$
34:0
     RDKit          3D

 57 60  0  0  0  0  0  0  0  0999 V2000
   67.5030   36.0590   51.8840 C   0  0  0  0  0  0  0  0  0  0  0  0
   67.3730   34.6220   51.6730 N   0  0  0  0  0  0  0  0  0  0  0  0
   66.4300   33.7650   52.3680 C   0  0  0  0  0  0  0  0  0  0  0  0
   66.6630   32.3370   51.8120 C   0  0  1  0  0  0  0  0  0  0  0  0
   65.4310   31.7980   51.2260 N   0  0  0  0  0  0  0  0  0  0  0  0
   64.8190   32.3660   50.0580 C   0  0  0  0  0  0  0  0  0  0  0  0
   65.3680   33.3310   49.4580 O   0  0  0  0  0  0  0  0  0  0  0  0
   63.5490   31.8280   49.5480 C   0  0  0  0  0  0  0  0  0  0  0  0
   62.6990   31.0820   50.2870 N   0  0  0  0  0  0  0  0  0  0  0  0
   61.5990   30.7050   49.5820 C   0  0  0  0  0  0  0  0  0  0  0  0
   61.5610   31.1490   48.2580 C   0  0  0  0  0  0  0  0  0  0  0  0
   60.4940   30.8880   47.2560 C   0  0  0  0  0  0  0  0  0  0  0  0
   59.3770   31.7370   47.1450 C   0  0  0  0  0  0  0  0  0  0  0  0
   58.3800   31.4820   46.1990 C   0  0  0  0  0  0  0  0  0  0  0  0
   58.4870   30.3810   45.3340 C   0  0  0  0  0  0  0  0  0  0  0  0
   57.4700   30.0740   44.3690 N   0  0  0  0  0  0  0  0  0  0  0  0
   56.1360   29.6430   44.6620 C   0  0  0  0  0  0  0  0  0  0  0  0
   55.1770   30.4290   44.4400 O   0  0  0  0  0  0  0  0  0  0  0  0
   55.8940   28.3570   45.2440 N   0  0  0  0  0  0  0  0  0  0  0  0
   56.9410   27.5110   45.8050 C   0  0  0  0  0  0  0  0  0  0  0  0
   56.8370   26.1150   45.2560 C   0  0  0  0  0  0  0  0  0  0  0  0
   57.6460   25.7220   44.1780 C   0  0  0  0  0  0  0  0  0  0  0  0
   57.5700   24.4190   43.6770 C   0  0  0  0  0  0  0  0  0  0  0  0
   56.6840   23.4940   44.2470 C   0  0  0  0  0  0  0  0  0  0  0  0
   56.5930   21.8470   43.6340 S   0  0  0  0  0  0  0  0  0  0  0  0
   55.6020   20.8880   44.6760 N   0  0  0  0  0  0  0  0  0  0  0  0
   55.9920   21.8400   42.2550 O   0  0  0  0  0  0  0  0  0  0  0  0
   57.9740   21.2590   43.5760 O   0  0  0  0  0  0  0  0  0  0  0  0
   55.8830   23.8810   45.3290 C   0  0  0  0  0  0  0  0  0  0  0  0
   55.9580   25.1840   45.8310 C   0  0  0  0  0  0  0  0  0  0  0  0
   59.5820   29.5200   45.4570 C   0  0  0  0  0  0  0  0  0  0  0  0
   60.5820   29.7740   46.4000 C   0  0  0  0  0  0  0  0  0  0  0  0
   62.9670   32.0440   47.9870 S   0  0  0  0  0  0  0  0  0  0  0  0
   67.7710   32.4370   50.7400 C   0  0  0  0  0  0  0  0  0  0  0  0
   68.1350   33.8670   50.7540 C   0  0  0  0  0  0  0  0  0  0  0  0
   69.0280   34.3720   50.0230 O   0  0  0  0  0  0  0  0  0  0  0  0
   67.5222   36.2709   52.9632 H   0  0  0  0  0  0  0  0  0  0  0  0
   68.4369   36.4141   51.4240 H   0  0  0  0  0  0  0  0  0  0  0  0
   66.6480   36.5760   51.4240 H   0  0  0  0  0  0  0  0  0  0  0  0
   66.6181   33.7890   53.4515 H   0  0  0  0  0  0  0  0  0  0  0  0
   65.3926   34.0952   52.2104 H   0  0  0  0  0  0  0  0  0  0  0  0
   66.9638   31.6555   52.6214 H   0  0  0  0  0  0  0  0  0  0  0  0
   64.9040   31.0750   51.7660 H   0  0  0  0  0  0  0  0  0  0  0  0
   60.7970   30.0945   50.0225 H   0  0  0  0  0  0  0  0  0  0  0  0
   59.2877   32.6095   47.8090 H   0  0  0  0  0  0  0  0  0  0  0  0
   57.5067   32.1475   46.1318 H   0  0  0  0  0  0  0  0  0  0  0  0
   57.9241   27.9304   45.5450 H   0  0  0  0  0  0  0  0  0  0  0  0
   56.8228   27.4744   46.8980 H   0  0  0  0  0  0  0  0  0  0  0  0
   58.3430   26.4427   43.7254 H   0  0  0  0  0  0  0  0  0  0  0  0
   58.2077   24.1185   42.8326 H   0  0  0  0  0  0  0  0  0  0  0  0
   54.6680   21.3550   44.7200 H   0  0  0  0  0  0  0  0  0  0  0  0
   55.1922   23.1570   45.7857 H   0  0  0  0  0  0  0  0  0  0  0  0
   55.3252   25.4807   46.6804 H   0  0  0  0  0  0  0  0  0  0  0  0
   59.6570   28.6360   44.8066 H   0  0  0  0  0  0  0  0  0  0  0  0
   61.4458   29.0970   46.4739 H   0  0  0  0  0  0  0  0  0  0  0  0
   68.6339   31.8089   51.0065 H   0  0  0  0  0  0  0  0  0  0  0  0
   67.4424   32.0880   49.7500 H   0  0  0  0  0  0  0  0  0  0  0  0
  1  2  1  0
  2  3  1  0
  3  4  1  0
  4  5  1  0
  5  6  1  0
  6  7  2  0
  6  8  1  0
  8  9  2  0
  9 10  1  0
 10 11  2  0
 11 12  1  0
 12 13  2  0
 13 14  1  0
 14 15  2  0
 15 16  1  0
 16 17  1  0
 17 18  2  0
 17 19  1  0
 19 20  1  0
 20 21  1  0
 21 22  2  0
 22 23  1  0
 23 24  2  0
 24 25  1  0
 25 26  1  0
 25 27  2  0
 25 28  2  0
 24 29  1  0
 29 30  2  0
 15 31  1  0
 31 32  2  0
 11 33  1  0
  4 34  1  0
 34 35  1  0
 35 36  2  0
 35  2  1  0
 33  8  1  0
 32 12  1  0
 30 21  1  0
  1 37  1  0
  1 38  1  0
  1 39  1  0
  3 40  1  0
  3 41  1  0
  4 42  1  1
  5 43  1  0
 10 44  1  0
 13 45  1  0
 14 46  1  0
 20 47  1  0
 20 48  1  0
 22 49  1  0
 23 50  1  0
 26 51  1  0
 29 52  1  0
 30 53  1  0
 31 54  1  0
 32 55  1  0
 34 56  1  0
 34 57  1  0
M  CHG  3  16  -1  19  -1  26  -1
M  END
>  <UniqueID>  (35) 
30

>  <SMILES>  (35) 
CN1C[C@@H](NC(=O)c2ncc(-c3ccc([N-]C(=O)[N-]Cc4ccc(S([NH-])(=O)=O)cc4)cc3)s2)CC1=O

>  <Energy>  (35) 
96.67360594300793

>  <Genealogy>  (35) 
CN1CC(NC(=O)c2ncc(-c3ccc([N-]C(=O)[N-]Cc4ccc(S([NH-])(=O)=O)cc4)cc3)s2)CC1=O (protonated)
CN1C[C@@H](NC(=O)c2ncc(-c3ccc([N-]C(=O)[N-]Cc4ccc(S([NH-])(=O)=O)cc4)cc3)s2)CC1=O (chirality)
CN1C[C@@H](NC(=O)c2ncc(-c3ccc([N-]C(=O)[N-]Cc4ccc(S([NH-])(=O)=O)cc4)cc3)s2)CC1=O (3D coordinates assigned)
CN1C[C@@H](NC(=O)c2ncc(-c3ccc([N-]C(=O)[N-]Cc4ccc(S([NH-])(=O)=O)cc4)cc3)s2)CC1=O (nonaromatic ring conformer: 96.67360594300793 kcal/mol)

>  <smiles>  (35) 
CN1CC(NC(=O)c2ncc(-c3ccc(NC(=O)NCc4ccc(S(N)(=O)=O)cc4)cc3)s2)CC1=O

>  <score_type>  (35) 
oracle

>  <origin>  (35) 
adg

>  <m_score__min__energy>  (35) 
-13.890000000000001

>  <m_primary>  (35) 
energy

$$$$
35:0
     RDKit          3D

 56 59  0  0  0  0  0  0  0  0999 V2000
   50.3360   33.4210   52.4630 O   0  0  0  0  0  0  0  0  0  0  0  0
   50.8340   32.3710   51.9750 C   0  0  0  0  0  0  0  0  0  0  0  0
   51.0590   32.3090   50.6030 O   0  0  0  0  0  0  0  0  0  0  0  0
   51.1360   31.2000   52.8330 C   0  0  0  0  0  0  0  0  0  0  0  0
   50.1990   30.8370   53.8190 C   0  0  0  0  0  0  0  0  0  0  0  0
   50.4600   29.7860   54.7010 C   0  0  0  0  0  0  0  0  0  0  0  0
   51.6560   29.0750   54.6080 C   0  0  0  0  0  0  0  0  0  0  0  0
   52.5900   29.4050   53.6260 C   0  0  0  0  0  0  0  0  0  0  0  0
   52.3470   30.4600   52.7280 C   0  0  0  0  0  0  0  0  0  0  0  0
   53.3320   30.6960   51.6460 C   0  0  0  0  0  0  0  0  0  0  0  0
   53.0890   30.2520   50.4940 O   0  0  0  0  0  0  0  0  0  0  0  0
   54.6010   31.3300   51.8850 N   0  0  0  0  0  0  0  0  0  0  0  0
   55.7540   30.7460   52.0340 C   0  0  0  0  0  0  0  0  0  0  0  0
   56.8670   31.3470   51.5380 N   0  0  0  0  0  0  0  0  0  0  0  0
   58.1030   30.7920   51.6730 C   0  0  0  0  0  0  0  0  0  0  0  0
   59.2560   31.4680   51.1250 N   0  0  0  0  0  0  0  0  0  0  0  0
   60.5760   31.2680   51.7420 C   0  0  0  0  0  0  0  0  0  0  0  0
   61.6740   31.3530   50.6790 C   0  0  0  0  0  0  0  0  0  0  0  0
   61.6340   32.6760   49.8840 C   0  0  0  0  0  0  0  0  0  0  0  0
   60.2930   33.4300   49.9920 C   0  0  1  0  0  0  0  0  0  0  0  0
   60.1880   34.3870   48.8720 N   0  0  0  0  0  0  0  0  0  0  0  0
   60.6730   33.8400   47.5960 C   0  0  0  0  0  0  0  0  0  0  0  0
   59.5350   33.6650   46.6220 C   0  0  0  0  0  0  0  0  0  0  0  0
   59.1380   34.7270   45.7920 C   0  0  0  0  0  0  0  0  0  0  0  0
   58.0950   34.5530   44.8780 C   0  0  0  0  0  0  0  0  0  0  0  0
   57.4430   33.3210   44.7830 C   0  0  0  0  0  0  0  0  0  0  0  0
   57.8330   32.2540   45.6050 C   0  0  0  0  0  0  0  0  0  0  0  0
   57.1940   31.0180   45.5180 O   0  0  0  0  0  0  0  0  0  0  0  0
   58.8770   32.4280   46.5220 C   0  0  0  0  0  0  0  0  0  0  0  0
   59.1030   32.4420   50.0290 C   0  0  0  0  0  0  0  0  0  0  0  0
   58.2270   29.5700   52.3530 C   0  0  0  0  0  0  0  0  0  0  0  0
   57.0790   28.9710   52.8680 C   0  0  0  0  0  0  0  0  0  0  0  0
   55.8710   29.5660   52.7040 N   0  0  0  0  0  0  0  0  0  0  0  0
   49.2499   31.3878   53.8957 H   0  0  0  0  0  0  0  0  0  0  0  0
   49.7208   29.5186   55.4704 H   0  0  0  0  0  0  0  0  0  0  0  0
   51.8630   28.2534   55.3095 H   0  0  0  0  0  0  0  0  0  0  0  0
   53.5272   28.8337   53.5530 H   0  0  0  0  0  0  0  0  0  0  0  0
   60.7440   32.0461   52.5011 H   0  0  0  0  0  0  0  0  0  0  0  0
   60.6063   30.2734   52.2110 H   0  0  0  0  0  0  0  0  0  0  0  0
   62.6519   31.2708   51.1760 H   0  0  0  0  0  0  0  0  0  0  0  0
   61.5094   30.5321   49.9656 H   0  0  0  0  0  0  0  0  0  0  0  0
   62.4316   33.3319   50.2629 H   0  0  0  0  0  0  0  0  0  0  0  0
   61.7692   32.4155   48.8239 H   0  0  0  0  0  0  0  0  0  0  0  0
   60.2586   33.9930   50.9364 H   0  0  0  0  0  0  0  0  0  0  0  0
   60.7320   35.2540   49.0940 H   0  0  0  0  0  0  0  0  0  0  0  0
   61.4133   34.5305   47.1656 H   0  0  0  0  0  0  0  0  0  0  0  0
   61.1305   32.8575   47.7844 H   0  0  0  0  0  0  0  0  0  0  0  0
   59.6496   35.6983   45.8618 H   0  0  0  0  0  0  0  0  0  0  0  0
   57.7867   35.3881   44.2318 H   0  0  0  0  0  0  0  0  0  0  0  0
   56.6226   33.1878   44.0624 H   0  0  0  0  0  0  0  0  0  0  0  0
   56.2200   30.9420   45.2450 H   0  0  0  0  0  0  0  0  0  0  0  0
   59.1834   31.5916   47.1674 H   0  0  0  0  0  0  0  0  0  0  0  0
   58.1712   33.0073   50.1781 H   0  0  0  0  0  0  0  0  0  0  0  0
   59.0742   31.8938   49.0758 H   0  0  0  0  0  0  0  0  0  0  0  0
   59.2112   29.0946   52.4769 H   0  0  0  0  0  0  0  0  0  0  0  0
   57.1524   28.0153   53.4077 H   0  0  0  0  0  0  0  0  0  0  0  0
  1  2  2  0
  2  3  1  0
  2  4  1  0
  4  5  2  0
  5  6  1  0
  6  7  2  0
  7  8  1  0
  8  9  2  0
  9 10  1  0
 10 11  2  0
 10 12  1  0
 12 13  2  3
 13 14  1  0
 14 15  2  0
 15 16  1  0
 16 17  1  0
 17 18  1  0
 18 19  1  0
 19 20  1  0
 20 21  1  0
 21 22  1  0
 22 23  1  0
 23 24  2  0
 24 25  1  0
 25 26  2  0
 26 27  1  0
 27 28  1  0
 27 29  2  0
 20 30  1  0
 15 31  1  0
 31 32  2  0
 32 33  1  0
  9  4  1  0
 33 13  1  0
 30 16  1  0
 29 23  1  0
  5 34  1  0
  6 35  1  0
  7 36  1  0
  8 37  1  0
 17 38  1  0
 17 39  1  0
 18 40  1  0
 18 41  1  0
 19 42  1  0
 19 43  1  0
 20 44  1  1
 21 45  1  0
 22 46  1  0
 22 47  1  0
 24 48  1  0
 25 49  1  0
 26 50  1  0
 28 51  1  0
 29 52  1  0
 30 53  1  0
 30 54  1  0
 31 55  1  0
 32 56  1  0
M  CHG  2   3  -1  33  -1
M  END
>  <UniqueID>  (36) 
31

>  <SMILES>  (36) 
O=C([O-])c1ccccc1C(=O)N=c1nc(N2CCC[C@@H](NCc3cccc(O)c3)C2)cc[n-]1

>  <Energy>  (36) 
78.17059551752945

>  <Genealogy>  (36) 
O=C([O-])c1ccccc1C(=O)N=c1nc(N2CCCC(NCc3cccc(O)c3)C2)cc[n-]1 (protonated)
O=C([O-])c1ccccc1C(=O)N=c1nc(N2CCC[C@@H](NCc3cccc(O)c3)C2)cc[n-]1 (chirality)
O=C([O-])c1ccccc1C(=O)N=c1nc(N2CCC[C@@H](NCc3cccc(O)c3)C2)cc[n-]1 (3D coordinates assigned)
O=C([O-])c1ccccc1C(=O)N=c1nc(N2CCC[C@@H](NCc3cccc(O)c3)C2)cc[n-]1 (nonaromatic ring conformer: 78.17059551752945 kcal/mol)

>  <smiles>  (36) 
O=C(O)c1ccccc1C(=O)N=c1nc(N2CCCC(NCc3cccc(O)c3)C2)cc[nH]1

>  <score_type>  (36) 
oracle

>  <origin>  (36) 
adg

>  <m_score__min__energy>  (36) 
-15.4

>  <m_primary>  (36) 
energy

$$$$
36:0
     RDKit          3D

 51 54  0  0  0  0  0  0  0  0999 V2000
   56.2460   32.1620   52.2830 C   0  0  0  0  0  0  0  0  0  0  0  0
   55.8250   30.9020   52.4670 C   0  0  0  0  0  0  0  0  0  0  0  0
   54.5050   30.4280   52.5180 C   0  0  0  0  0  0  0  0  0  0  0  0
   53.3460   31.0430   52.2170 C   0  0  0  0  0  0  0  0  0  0  0  0
   52.5940   30.8980   50.9600 C   0  0  0  0  0  0  0  0  0  0  0  0
   52.7390   29.8770   50.0940 N   0  0  0  0  0  0  0  0  0  0  0  0
   51.7580   30.0940   49.1910 C   0  0  0  0  0  0  0  0  0  0  0  0
   51.5750   29.3470   48.1960 O   0  0  0  0  0  0  0  0  0  0  0  0
   50.9810   31.1690   49.4450 N   0  0  0  0  0  0  0  0  0  0  0  0
   51.5150   31.6560   50.5760 C   0  0  0  0  0  0  0  0  0  0  0  0
   51.0240   32.7690   51.2470 O   0  0  0  0  0  0  0  0  0  0  0  0
   54.5170   29.1380   52.9190 N   0  0  0  0  0  0  0  0  0  0  0  0
   55.8230   28.8400   53.0560 C   0  0  0  0  0  0  0  0  0  0  0  0
   56.2270   27.6970   53.4020 O   0  0  0  0  0  0  0  0  0  0  0  0
   56.6460   29.8740   52.7910 N   0  0  0  0  0  0  0  0  0  0  0  0
   58.1120   29.8520   52.8480 C   0  0  0  0  0  0  0  0  0  0  0  0
   58.6960   29.7880   51.4340 C   0  0  0  0  0  0  0  0  0  0  0  0
   59.2540   31.1270   51.0280 C   0  0  0  0  0  0  0  0  0  0  0  0
   60.0240   31.8670   51.9380 C   0  0  0  0  0  0  0  0  0  0  0  0
   60.5180   33.1210   51.5840 C   0  0  0  0  0  0  0  0  0  0  0  0
   60.2400   33.6580   50.3250 C   0  0  0  0  0  0  0  0  0  0  0  0
   59.4530   32.9440   49.4020 C   0  0  0  0  0  0  0  0  0  0  0  0
   59.1570   33.5100   48.0590 C   0  0  0  0  0  0  0  0  0  0  0  0
   59.5890   34.6630   47.7740 O   0  0  0  0  0  0  0  0  0  0  0  0
   58.3640   32.7810   47.0870 N   0  0  0  0  0  0  0  0  0  0  0  0
   59.1990   31.8050   46.3610 C   0  0  0  0  0  0  0  0  0  0  0  0
   58.3530   31.0370   45.3160 C   0  0  0  0  0  0  0  0  0  0  0  0
   57.0600   31.5920   45.1500 O   0  0  0  0  0  0  0  0  0  0  0  0
   57.1630   32.9800   44.9070 C   0  0  0  0  0  0  0  0  0  0  0  0
   57.7210   33.7190   46.1410 C   0  0  0  0  0  0  0  0  0  0  0  0
   58.9610   31.6720   49.7640 C   0  0  0  0  0  0  0  0  0  0  0  0
   58.1740   30.9760   48.9020 F   0  0  0  0  0  0  0  0  0  0  0  0
   57.3230   32.3851   52.2661 H   0  0  0  0  0  0  0  0  0  0  0  0
   55.5143   32.9723   52.1489 H   0  0  0  0  0  0  0  0  0  0  0  0
   52.9229   31.7142   52.9789 H   0  0  0  0  0  0  0  0  0  0  0  0
   58.4698   30.7642   53.3478 H   0  0  0  0  0  0  0  0  0  0  0  0
   58.4357   28.9637   53.4102 H   0  0  0  0  0  0  0  0  0  0  0  0
   59.5009   29.0387   51.4092 H   0  0  0  0  0  0  0  0  0  0  0  0
   57.8953   29.5108   50.7326 H   0  0  0  0  0  0  0  0  0  0  0  0
   60.2387   31.4555   52.9353 H   0  0  0  0  0  0  0  0  0  0  0  0
   61.1296   33.6905   52.2993 H   0  0  0  0  0  0  0  0  0  0  0  0
   60.6391   34.6463   50.0528 H   0  0  0  0  0  0  0  0  0  0  0  0
   57.6200   32.2390   47.5860 H   0  0  0  0  0  0  0  0  0  0  0  0
   60.0131   32.3370   45.8470 H   0  0  0  0  0  0  0  0  0  0  0  0
   59.6120   31.0846   47.0825 H   0  0  0  0  0  0  0  0  0  0  0  0
   58.8760   31.0660   44.3487 H   0  0  0  0  0  0  0  0  0  0  0  0
   58.2298   30.0059   45.6788 H   0  0  0  0  0  0  0  0  0  0  0  0
   57.8365   33.1465   44.0534 H   0  0  0  0  0  0  0  0  0  0  0  0
   56.1588   33.3724   44.6888 H   0  0  0  0  0  0  0  0  0  0  0  0
   58.4647   34.4585   45.8092 H   0  0  0  0  0  0  0  0  0  0  0  0
   56.8839   34.2116   46.6573 H   0  0  0  0  0  0  0  0  0  0  0  0
  1  2  2  0
  2  3  1  0
  3  4  2  3
  4  5  1  0
  5  6  1  0
  6  7  1  0
  7  8  2  0
  7  9  1  0
  9 10  1  0
 10 11  1  0
  3 12  1  0
 12 13  1  0
 13 14  2  0
 13 15  1  0
 15 16  1  0
 16 17  1  0
 17 18  1  0
 18 19  2  0
 19 20  1  0
 20 21  2  0
 21 22  1  0
 22 23  1  0
 23 24  2  0
 23 25  1  0
 25 26  1  0
 26 27  1  0
 27 28  1  0
 28 29  1  0
 29 30  1  0
 22 31  2  0
 31 32  1  0
 15  2  1  0
 31 18  1  0
 10  5  2  0
 30 25  1  0
  1 33  1  0
  1 34  1  0
  4 35  1  0
 16 36  1  0
 16 37  1  0
 17 38  1  0
 17 39  1  0
 19 40  1  0
 20 41  1  0
 21 42  1  0
 25 43  1  0
 26 44  1  0
 26 45  1  0
 27 46  1  0
 27 47  1  0
 29 48  1  0
 29 49  1  0
 30 50  1  0
 30 51  1  0
M  CHG  5   6  -1   9  -1  11  -1  12  -1  25   1
M  END
>  <UniqueID>  (37) 
32

>  <SMILES>  (37) 
C=c1c(=Cc2[n-]c(=O)[n-]c2[O-])[n-]c(=O)n1CCc1cccc(C(=O)[NH+]2CCOCC2)c1F

>  <Energy>  (37) 
140.08255613423256

>  <Genealogy>  (37) 
C=c1c(=Cc2[n-]c(=O)[n-]c2[O-])[n-]c(=O)n1CCc1cccc(C(=O)[NH+]2CCOCC2)c1F (protonated)
C=c1c(=Cc2[n-]c(=O)[n-]c2[O-])[n-]c(=O)n1CCc1cccc(C(=O)[NH+]2CCOCC2)c1F (3D coordinates assigned)
C=c1c(=Cc2[n-]c(=O)[n-]c2[O-])[n-]c(=O)n1CCc1cccc(C(=O)[NH+]2CCOCC2)c1F (nonaromatic ring conformer: 140.08255613423256 kcal/mol)

>  <smiles>  (37) 
C=c1c(=Cc2[nH]c(=O)[nH]c2O)[nH]c(=O)n1CCc1cccc(C(=O)N2CCOCC2)c1F

>  <score_type>  (37) 
oracle

>  <origin>  (37) 
adg

>  <m_score__min__energy>  (37) 
-17.629999999999999

>  <m_primary>  (37) 
energy

$$$$
37:0
     RDKit          3D

 35 37  0  0  0  0  0  0  0  0999 V2000
   55.1440   27.5950   45.5450 H   0  0  0  0  0  0  0  0  0  0  0  0
   54.9710   26.6970   45.9800 O   0  0  0  0  0  0  0  0  0  0  0  0
   56.0120   25.8260   46.2940 C   0  0  0  0  0  0  0  0  0  0  0  0
   55.8940   24.8260   47.1830 N   0  0  0  0  0  0  0  0  0  0  0  0
   57.1170   24.2580   47.1590 C   0  0  0  0  0  0  0  0  0  0  0  0
   57.4170   23.2630   47.8690 O   0  0  0  0  0  0  0  0  0  0  0  0
   57.9920   24.8350   46.3080 N   0  0  0  0  0  0  0  0  0  0  0  0
   57.2860   25.8460   45.7700 C   0  0  0  0  0  0  0  0  0  0  0  0
   57.7780   26.7360   44.7020 C   0  0  0  0  0  0  0  0  0  0  0  0
   58.0293   26.2817   43.7322 H   0  0  0  0  0  0  0  0  0  0  0  0
   57.9410   28.0670   44.8320 C   0  0  0  0  0  0  0  0  0  0  0  0
   57.1150   29.0650   44.2020 N   0  0  0  0  0  0  0  0  0  0  0  0
   56.6940   29.0370   42.7980 C   0  0  0  0  0  0  0  0  0  0  0  0
   55.5977   28.9641   42.7453 H   0  0  0  0  0  0  0  0  0  0  0  0
   57.0246   29.9591   42.2976 H   0  0  0  0  0  0  0  0  0  0  0  0
   57.1438   28.1668   42.2976 H   0  0  0  0  0  0  0  0  0  0  0  0
   57.4960   30.2870   44.8230 C   0  0  0  0  0  0  0  0  0  0  0  0
   56.9480   31.5490   44.5700 C   0  0  0  0  0  0  0  0  0  0  0  0
   56.1195   31.6691   43.8565 H   0  0  0  0  0  0  0  0  0  0  0  0
   57.4780   32.6580   45.2460 C   0  0  0  0  0  0  0  0  0  0  0  0
   57.0582   33.6591   45.0685 H   0  0  0  0  0  0  0  0  0  0  0  0
   58.5440   32.4960   46.1500 C   0  0  0  0  0  0  0  0  0  0  0  0
   58.9530   33.3709   46.6766 H   0  0  0  0  0  0  0  0  0  0  0  0
   59.0880   31.2230   46.3830 C   0  0  0  0  0  0  0  0  0  0  0  0
   59.9257   31.0904   47.0835 H   0  0  0  0  0  0  0  0  0  0  0  0
   58.5430   30.1260   45.7060 C   0  0  0  0  0  0  0  0  0  0  0  0
   58.9670   28.6870   45.7680 C   0  0  0  0  0  0  0  0  0  0  0  0
   60.3920   28.5120   45.2220 C   0  0  0  0  0  0  0  0  0  0  0  0
   61.0981   28.4253   46.0610 H   0  0  0  0  0  0  0  0  0  0  0  0
   60.4397   27.6012   44.6070 H   0  0  0  0  0  0  0  0  0  0  0  0
   60.6587   29.3841   44.6070 H   0  0  0  0  0  0  0  0  0  0  0  0
   58.8370   28.1500   47.2050 C   0  0  0  0  0  0  0  0  0  0  0  0
   59.0338   28.9629   47.9194 H   0  0  0  0  0  0  0  0  0  0  0  0
   57.8192   27.7630   47.3612 H   0  0  0  0  0  0  0  0  0  0  0  0
   59.5651   27.3404   47.3612 H   0  0  0  0  0  0  0  0  0  0  0  0
  1  2  1  0
  2  3  1  0
  3  4  1  0
  4  5  1  0
  5  6  2  0
  5  7  1  0
  7  8  1  0
  8  9  1  0
  9 10  1  0
  9 11  2  0
 11 12  1  0
 12 13  1  0
 13 14  1  0
 13 15  1  0
 13 16  1  0
 12 17  1  0
 17 18  2  0
 18 19  1  0
 18 20  1  0
 20 21  1  0
 20 22  2  0
 22 23  1  0
 22 24  1  0
 24 25  1  0
 24 26  2  0
 26 27  1  0
 27 28  1  0
 28 29  1  0
 28 30  1  0
 28 31  1  0
 27 32  1  0
 32 33  1  0
 32 34  1  0
 32 35  1  0
  8  3  2  0
 27 11  1  0
 26 17  1  0
M  CHG  2   4  -1   7  -1
M  END
>  <UniqueID>  (38) 
33

>  <SMILES>  (38) 
CN1/C(=C\c2[n-]c(=O)[n-]c2O)C(C)(C)c2ccccc21

>  <Energy>  (38) 
89.40425373580706

>  <Genealogy>  (38) 
CN1C(=Cc2[n-]c(=O)[n-]c2O)C(C)(C)c2ccccc21 (protonated)
CN1/C(=C\c2[n-]c(=O)[n-]c2O)C(C)(C)c2ccccc21 (cis-trans isomerization)
CN1/C(=C\c2[n-]c(=O)[n-]c2O)C(C)(C)c2ccccc21 (3D coordinates assigned)
CN1/C(=C\c2[n-]c(=O)[n-]c2O)C(C)(C)c2ccccc21 (nonaromatic ring conformer: 89.40425373580706 kcal/mol)

>  <smiles>  (38) 
CN1C(=Cc2[nH]c(=O)[nH]c2O)C(C)(C)c2ccccc21

>  <score_type>  (38) 
oracle

>  <origin>  (38) 
adg

>  <m_score__min__energy>  (38) 
-12.08

>  <m_primary>  (38) 
energy

$$$$
38:0
     RDKit          3D

 58 62  0  0  0  0  0  0  0  0999 V2000
   55.5240   26.7420   46.0250 O   0  0  0  0  0  0  0  0  0  0  0  0
   56.2630   27.6660   45.5970 C   0  0  0  0  0  0  0  0  0  0  0  0
   57.6820   27.4850   45.6270 N   0  0  0  0  0  0  0  0  0  0  0  0
   58.5490   27.8040   46.7260 C   0  0  0  0  0  0  0  0  0  0  0  0
   59.3570   26.7940   47.2610 C   0  0  0  0  0  0  0  0  0  0  0  0
   60.1940   27.0580   48.3500 C   0  0  0  0  0  0  0  0  0  0  0  0
   60.2050   28.3280   48.9460 C   0  0  0  0  0  0  0  0  0  0  0  0
   61.0890   28.6210   50.0930 C   0  0  0  0  0  0  0  0  0  0  0  0
   61.3480   27.7030   50.9140 O   0  0  0  0  0  0  0  0  0  0  0  0
   61.6940   29.9070   50.2850 N   0  0  0  0  0  0  0  0  0  0  0  0
   61.3220   30.8590   51.3260 C   0  0  0  0  0  0  0  0  0  0  0  0
   59.8260   30.9300   51.4280 C   0  0  0  0  0  0  0  0  0  0  0  0
   59.1330   30.0250   52.2500 C   0  0  0  0  0  0  0  0  0  0  0  0
   57.7420   30.0910   52.3580 C   0  0  0  0  0  0  0  0  0  0  0  0
   57.0330   31.0710   51.6570 C   0  0  0  0  0  0  0  0  0  0  0  0
   55.6830   31.1380   51.7630 F   0  0  0  0  0  0  0  0  0  0  0  0
   57.7150   31.9870   50.8500 C   0  0  0  0  0  0  0  0  0  0  0  0
   59.1080   31.9180   50.7350 C   0  0  0  0  0  0  0  0  0  0  0  0
   59.3960   29.3430   48.4100 C   0  0  0  0  0  0  0  0  0  0  0  0
   58.5630   29.0810   47.3160 C   0  0  0  0  0  0  0  0  0  0  0  0
   55.6940   28.8410   45.0020 N   0  0  0  0  0  0  0  0  0  0  0  0
   56.3880   29.8880   44.3070 C   0  0  0  0  0  0  0  0  0  0  0  0
   56.3480   30.0140   42.9080 C   0  0  0  0  0  0  0  0  0  0  0  0
   57.0160   31.0650   42.2800 C   0  0  0  0  0  0  0  0  0  0  0  0
   57.7120   32.0110   43.0370 C   0  0  0  0  0  0  0  0  0  0  0  0
   57.7460   31.9200   44.4390 C   0  0  0  0  0  0  0  0  0  0  0  0
   58.4600   32.9590   45.2310 C   0  0  0  0  0  0  0  0  0  0  0  0
   58.8430   34.2090   44.7310 C   0  0  0  0  0  0  0  0  0  0  0  0
   59.6360   35.0440   45.9540 S   0  0  0  0  0  0  0  0  0  0  0  0
   59.4600   33.7930   47.0710 C   0  0  0  0  0  0  0  0  0  0  0  0
   59.8870   33.7800   48.2990 N   0  0  0  0  0  0  0  0  0  0  0  0
   61.2330   33.5670   48.7530 C   0  0  0  0  0  0  0  0  0  0  0  0
   61.6700   34.1180   49.7990 O   0  0  0  0  0  0  0  0  0  0  0  0
   62.1580   32.7320   47.9220 C   0  0  0  0  0  0  0  0  0  0  0  0
   62.8150   33.4670   46.7630 C   0  0  0  0  0  0  0  0  0  0  0  0
   63.6230   33.1380   48.0080 C   0  0  0  0  0  0  0  0  0  0  0  0
   58.8040   32.7450   46.5330 N   0  0  0  0  0  0  0  0  0  0  0  0
   57.0700   30.8510   45.0640 C   0  0  0  0  0  0  0  0  0  0  0  0
   59.3335   25.7857   46.8219 H   0  0  0  0  0  0  0  0  0  0  0  0
   60.8478   26.2648   48.7417 H   0  0  0  0  0  0  0  0  0  0  0  0
   61.7400   30.5310   52.2892 H   0  0  0  0  0  0  0  0  0  0  0  0
   61.7198   31.8529   51.0730 H   0  0  0  0  0  0  0  0  0  0  0  0
   59.6893   29.2601   52.8117 H   0  0  0  0  0  0  0  0  0  0  0  0
   57.2047   29.3723   52.9942 H   0  0  0  0  0  0  0  0  0  0  0  0
   57.1562   32.7622   50.3053 H   0  0  0  0  0  0  0  0  0  0  0  0
   59.6422   32.6399   50.0998 H   0  0  0  0  0  0  0  0  0  0  0  0
   59.4170   30.3499   48.8524 H   0  0  0  0  0  0  0  0  0  0  0  0
   57.9170   29.8765   46.9162 H   0  0  0  0  0  0  0  0  0  0  0  0
   55.7886   29.2821   42.3069 H   0  0  0  0  0  0  0  0  0  0  0  0
   56.9948   31.1496   41.1835 H   0  0  0  0  0  0  0  0  0  0  0  0
   58.2379   32.8341   42.5312 H   0  0  0  0  0  0  0  0  0  0  0  0
   58.6568   34.5806   43.7125 H   0  0  0  0  0  0  0  0  0  0  0  0
   61.5990   31.7908   48.0303 H   0  0  0  0  0  0  0  0  0  0  0  0
   63.0176   32.9376   45.8203 H   0  0  0  0  0  0  0  0  0  0  0  0
   62.5941   34.3858   46.1999 H   0  0  0  0  0  0  0  0  0  0  0  0
   64.4098   32.3704   47.9661 H   0  0  0  0  0  0  0  0  0  0  0  0
   64.2284   33.7198   48.7186 H   0  0  0  0  0  0  0  0  0  0  0  0
   57.0781   30.7719   46.1611 H   0  0  0  0  0  0  0  0  0  0  0  0
  1  2  2  0
  2  3  1  0
  3  4  1  0
  4  5  2  0
  5  6  1  0
  6  7  2  0
  7  8  1  0
  8  9  2  0
  8 10  1  0
 10 11  1  0
 11 12  1  0
 12 13  2  0
 13 14  1  0
 14 15  2  0
 15 16  1  0
 15 17  1  0
 17 18  2  0
  7 19  1  0
 19 20  2  0
  2 21  1  0
 21 22  1  0
 22 23  2  0
 23 24  1  0
 24 25  2  0
 25 26  1  0
 26 27  1  0
 27 28  2  0
 28 29  1  0
 29 30  1  0
 30 31  2  3
 31 32  1  0
 32 33  2  0
 32 34  1  0
 34 35  1  0
 35 36  1  0
 30 37  1  0
 26 38  2  0
 20  4  1  0
 38 22  1  0
 18 12  1  0
 37 27  1  0
 36 34  1  0
  5 39  1  0
  6 40  1  0
 11 41  1  0
 11 42  1  0
 13 43  1  0
 14 44  1  0
 17 45  1  0
 18 46  1  0
 19 47  1  0
 20 48  1  0
 23 49  1  0
 24 50  1  0
 25 51  1  0
 28 52  1  0
 34 53  1  0
 35 54  1  0
 35 55  1  0
 36 56  1  0
 36 57  1  0
 38 58  1  0
M  CHG  4   3  -1  10  -1  21  -1  37  -1
M  END
>  <UniqueID>  (39) 
34

>  <SMILES>  (39) 
O=C([N-]c1ccc(C(=O)[N-]Cc2ccc(F)cc2)cc1)[N-]c1cccc(-c2csc(=NC(=O)C3CC3)[n-]2)c1

>  <Energy>  (39) 
372.59863832906484

>  <Genealogy>  (39) 
O=C([N-]c1ccc(C(=O)[N-]Cc2ccc(F)cc2)cc1)[N-]c1cccc(-c2csc(=NC(=O)C3CC3)[n-]2)c1 (protonated)
O=C([N-]c1ccc(C(=O)[N-]Cc2ccc(F)cc2)cc1)[N-]c1cccc(-c2csc(=NC(=O)C3CC3)[n-]2)c1 (3D coordinates assigned)
O=C([N-]c1ccc(C(=O)[N-]Cc2ccc(F)cc2)cc1)[N-]c1cccc(-c2csc(=NC(=O)C3CC3)[n-]2)c1 (nonaromatic ring conformer: 372.59863832906484 kcal/mol)

>  <smiles>  (39) 
O=C(Nc1ccc(C(=O)NCc2ccc(F)cc2)cc1)Nc1cccc(-c2csc(=NC(=O)C3CC3)[nH]2)c1

>  <score_type>  (39) 
oracle

>  <origin>  (39) 
adg

>  <m_score__min__energy>  (39) 
-15.359999999999999

>  <m_primary>  (39) 
energy

$$$$
39:0
     RDKit          3D

 67 71  0  0  0  0  0  0  0  0999 V2000
   57.2237   34.4096   43.8531 H   0  0  0  0  0  0  0  0  0  0  0  0
   57.7820   34.0890   44.7450 C   0  0  0  0  0  0  0  0  0  0  0  0
   57.2680   32.9570   45.5370 C   0  0  0  0  0  0  0  0  0  0  0  0
   57.0380   33.0940   46.7700 O   0  0  0  0  0  0  0  0  0  0  0  0
   57.0350   31.7060   44.8730 N   0  0  0  0  0  0  0  0  0  0  0  0
   57.4100   30.5200   45.2580 C   0  0  0  0  0  0  0  0  0  0  0  0
   56.6030   29.4410   45.1260 N   0  0  0  0  0  0  0  0  0  0  0  0
   57.1910   28.3240   45.6260 C   0  0  0  0  0  0  0  0  0  0  0  0
   56.5910   27.0660   45.6380 C   0  0  0  0  0  0  0  0  0  0  0  0
   55.5874   26.9206   45.2117 H   0  0  0  0  0  0  0  0  0  0  0  0
   57.2890   25.9890   46.2030 C   0  0  0  0  0  0  0  0  0  0  0  0
   56.8283   24.9903   46.2206 H   0  0  0  0  0  0  0  0  0  0  0  0
   58.5740   26.1740   46.7480 C   0  0  0  0  0  0  0  0  0  0  0  0
   59.1058   25.3189   47.1908 H   0  0  0  0  0  0  0  0  0  0  0  0
   59.1880   27.4480   46.7320 C   0  0  0  0  0  0  0  0  0  0  0  0
   60.4990   27.6810   47.2890 N   0  0  0  0  0  0  0  0  0  0  0  0
   61.3320   27.6100   46.6620 H   0  0  0  0  0  0  0  0  0  0  0  0
   60.7500   28.1140   48.6640 C   0  0  0  0  0  0  0  0  0  0  0  0
   60.0827   27.5634   49.3433 H   0  0  0  0  0  0  0  0  0  0  0  0
   61.8018   27.9091   48.9126 H   0  0  0  0  0  0  0  0  0  0  0  0
   60.4920   29.6190   48.8150 C   0  0  0  0  0  0  0  0  0  0  0  0
   61.3714   30.0902   49.2783 H   0  0  0  0  0  0  0  0  0  0  0  0
   60.3076   30.0452   47.8178 H   0  0  0  0  0  0  0  0  0  0  0  0
   59.3060   29.8700   49.6620 N   0  0  0  0  0  0  0  0  0  0  0  0
   59.5810   29.4870   51.0590 C   0  0  0  0  0  0  0  0  0  0  0  0
   59.8719   28.4268   51.0944 H   0  0  0  0  0  0  0  0  0  0  0  0
   60.3966   30.1137   51.4488 H   0  0  0  0  0  0  0  0  0  0  0  0
   58.3220   29.7000   51.9290 C   0  0  0  0  0  0  0  0  0  0  0  0
   57.9020   28.7168   52.1878 H   0  0  0  0  0  0  0  0  0  0  0  0
   58.6271   30.2593   52.8257 H   0  0  0  0  0  0  0  0  0  0  0  0
   57.3260   30.4590   51.2680 O   0  0  0  0  0  0  0  0  0  0  0  0
   57.8990   31.6340   50.7310 C   0  0  0  0  0  0  0  0  0  0  0  0
   57.0998   32.2770   50.3337 H   0  0  0  0  0  0  0  0  0  0  0  0
   58.4475   32.1574   51.5280 H   0  0  0  0  0  0  0  0  0  0  0  0
   58.8820   31.2880   49.5960 C   0  0  0  0  0  0  0  0  0  0  0  0
   58.3905   31.4700   48.6289 H   0  0  0  0  0  0  0  0  0  0  0  0
   59.7744   31.9217   49.7055 H   0  0  0  0  0  0  0  0  0  0  0  0
   58.4620   28.5020   46.1590 C   0  0  0  0  0  0  0  0  0  0  0  0
   58.8830   30.1240   46.0040 S   0  0  0  0  0  0  0  0  0  0  0  0
   58.9070   34.7420   45.0740 C   0  0  0  0  0  0  0  0  0  0  0  0
   59.2167   35.5877   44.4424 H   0  0  0  0  0  0  0  0  0  0  0  0
   59.7590   34.3930   46.2380 C   0  0  0  0  0  0  0  0  0  0  0  0
   59.3810   34.6630   47.5680 C   0  0  0  0  0  0  0  0  0  0  0  0
   58.4220   35.1614   47.7728 H   0  0  0  0  0  0  0  0  0  0  0  0
   60.2160   34.3020   48.6290 C   0  0  0  0  0  0  0  0  0  0  0  0
   59.9064   34.5143   49.6630 H   0  0  0  0  0  0  0  0  0  0  0  0
   61.4460   33.6710   48.3870 C   0  0  0  0  0  0  0  0  0  0  0  0
   62.3020   33.2980   49.4850 N   0  0  0  0  0  0  0  0  0  0  0  0
   63.7640   33.3730   49.3560 C   0  0  0  0  0  0  0  0  0  0  0  0
   64.0222   33.6510   48.3235 H   0  0  0  0  0  0  0  0  0  0  0  0
   64.1443   34.1285   50.0593 H   0  0  0  0  0  0  0  0  0  0  0  0
   64.4060   32.0160   49.6900 C   0  0  0  0  0  0  0  0  0  0  0  0
   64.4042   31.3964   48.7811 H   0  0  0  0  0  0  0  0  0  0  0  0
   65.4243   32.2193   50.0529 H   0  0  0  0  0  0  0  0  0  0  0  0
   63.6690   31.2470   50.8080 C   0  0  0  0  0  0  0  0  0  0  0  0
   63.0545   30.4592   50.3479 H   0  0  0  0  0  0  0  0  0  0  0  0
   64.4304   30.8258   51.4810 H   0  0  0  0  0  0  0  0  0  0  0  0
   62.7590   32.1540   51.6450 C   0  0  0  0  0  0  0  0  0  0  0  0
   62.2473   31.5495   52.4084 H   0  0  0  0  0  0  0  0  0  0  0  0
   63.3726   32.9294   52.1269 H   0  0  0  0  0  0  0  0  0  0  0  0
   61.7120   32.8310   50.7500 C   0  0  0  0  0  0  0  0  0  0  0  0
   60.9129   32.1089   50.5262 H   0  0  0  0  0  0  0  0  0  0  0  0
   61.3129   33.7042   51.2869 H   0  0  0  0  0  0  0  0  0  0  0  0
   61.8390   33.4300   47.0610 C   0  0  0  0  0  0  0  0  0  0  0  0
   62.8105   32.9563   46.8565 H   0  0  0  0  0  0  0  0  0  0  0  0
   61.0040   33.7880   45.9990 C   0  0  0  0  0  0  0  0  0  0  0  0
   61.3252   33.5939   44.9650 H   0  0  0  0  0  0  0  0  0  0  0  0
  1  2  1  0
  2  3  1  0
  3  4  2  0
  3  5  1  0
  5  6  2  0
  6  7  1  0
  7  8  1  0
  8  9  2  0
  9 10  1  0
  9 11  1  0
 11 12  1  0
 11 13  2  0
 13 14  1  0
 13 15  1  0
 15 16  1  0
 16 17  1  0
 16 18  1  0
 18 19  1  0
 18 20  1  0
 18 21  1  0
 21 22  1  0
 21 23  1  0
 21 24  1  0
 24 25  1  0
 25 26  1  0
 25 27  1  0
 25 28  1  0
 28 29  1  0
 28 30  1  0
 28 31  1  0
 31 32  1  0
 32 33  1  0
 32 34  1  0
 32 35  1  0
 35 36  1  0
 35 37  1  0
 15 38  2  0
 38 39  1  0
  2 40  2  3
 40 41  1  0
 40 42  1  0
 42 43  2  0
 43 44  1  0
 43 45  1  0
 45 46  1  0
 45 47  2  0
 47 48  1  0
 48 49  1  0
 49 50  1  0
 49 51  1  0
 49 52  1  0
 52 53  1  0
 52 54  1  0
 52 55  1  0
 55 56  1  0
 55 57  1  0
 55 58  1  0
 58 59  1  0
 58 60  1  0
 58 61  1  0
 61 62  1  0
 61 63  1  0
 47 64  1  0
 64 65  1  0
 64 66  2  0
 66 67  1  0
 39  6  1  0
 66 42  1  0
 38  8  1  0
 61 48  1  0
 35 24  1  0
M  CHG  1   7  -1
M  END
>  <UniqueID>  (40) 
35

>  <SMILES>  (40) 
O=C(C=Cc1ccc(N2CCCCC2)cc1)/N=c1/[n-]c2cccc(NCCN3CCOCC3)c2s1

>  <Energy>  (40) 
123.921313334244

>  <Genealogy>  (40) 
O=C(C=Cc1ccc(N2CCCCC2)cc1)N=c1[n-]c2cccc(NCCN3CCOCC3)c2s1 (protonated)
O=C(C=Cc1ccc(N2CCCCC2)cc1)/N=c1/[n-]c2cccc(NCCN3CCOCC3)c2s1 (cis-trans isomerization)
O=C(C=Cc1ccc(N2CCCCC2)cc1)/N=c1/[n-]c2cccc(NCCN3CCOCC3)c2s1 (3D coordinates assigned)
O=C(C=Cc1ccc(N2CCCCC2)cc1)/N=c1/[n-]c2cccc(NCCN3CCOCC3)c2s1 (nonaromatic ring conformer: 123.921313334244 kcal/mol)

>  <smiles>  (40) 
O=C(C=Cc1ccc(N2CCCCC2)cc1)N=c1[nH]c2cccc(NCCN3CCOCC3)c2s1

>  <score_type>  (40) 
oracle

>  <origin>  (40) 
adg

>  <m_score__min__energy>  (40) 
-11.98

>  <m_primary>  (40) 
energy

$$$$
40:0
     RDKit          3D

 57 60  0  0  0  0  0  0  0  0999 V2000
   57.5850   25.9400   43.9180 O   0  0  0  0  0  0  0  0  0  0  0  0
   58.0420   26.3050   45.0350 C   0  0  0  0  0  0  0  0  0  0  0  0
   57.7250   25.5100   46.2620 C   0  0  0  0  0  0  0  0  0  0  0  0
   56.4760   24.6970   46.0380 C   0  0  0  0  0  0  0  0  0  0  0  0
   56.5710   23.3000   45.9070 C   0  0  0  0  0  0  0  0  0  0  0  0
   55.4310   22.5320   45.6450 C   0  0  0  0  0  0  0  0  0  0  0  0
   55.5800   20.7880   45.4790 Cl  0  0  0  0  0  0  0  0  0  0  0  0
   54.1850   23.1560   45.5080 C   0  0  0  0  0  0  0  0  0  0  0  0
   53.0440   22.4030   45.2480 O   0  0  0  0  0  0  0  0  0  0  0  0
   54.0820   24.5450   45.6290 C   0  0  0  0  0  0  0  0  0  0  0  0
   55.2210   25.3180   45.8830 C   0  0  0  0  0  0  0  0  0  0  0  0
   55.0960   26.7010   45.9760 O   0  0  0  0  0  0  0  0  0  0  0  0
   58.8800   27.4620   45.1420 N   0  0  0  0  0  0  0  0  0  0  0  0
   58.8830   28.4200   46.2100 C   0  0  0  0  0  0  0  0  0  0  0  0
   58.9220   28.0310   47.5600 C   0  0  0  0  0  0  0  0  0  0  0  0
   58.9590   28.9960   48.5710 C   0  0  0  0  0  0  0  0  0  0  0  0
   58.9860   30.3640   48.2520 C   0  0  0  0  0  0  0  0  0  0  0  0
   59.0270   31.3880   49.3220 C   0  0  0  0  0  0  0  0  0  0  0  0
   59.6120   32.4850   49.1100 O   0  0  0  0  0  0  0  0  0  0  0  0
   58.3820   31.1690   50.5880 N   0  0  0  0  0  0  0  0  0  0  0  0
   57.6340   32.2650   51.2140 C   0  0  0  0  0  0  0  0  0  0  0  0
   56.7810   31.7440   52.3760 C   0  0  0  0  0  0  0  0  0  0  0  0
   56.2620   30.4080   52.0300 N   0  0  0  0  0  0  0  0  0  0  0  0
   55.1910   30.0060   52.9660 C   0  0  0  0  0  0  0  0  0  0  0  0
   53.8900   30.6740   52.6060 C   0  0  0  0  0  0  0  0  0  0  0  0
   52.9000   30.8600   53.5870 C   0  0  0  0  0  0  0  0  0  0  0  0
   51.7050   31.5130   53.2680 C   0  0  0  0  0  0  0  0  0  0  0  0
   51.4930   31.9910   51.9700 C   0  0  0  0  0  0  0  0  0  0  0  0
   50.3060   32.6410   51.6550 O   0  0  0  0  0  0  0  0  0  0  0  0
   52.4760   31.8160   50.9900 C   0  0  0  0  0  0  0  0  0  0  0  0
   53.6730   31.1630   51.3060 C   0  0  0  0  0  0  0  0  0  0  0  0
   57.3580   29.4070   52.0040 C   0  0  0  0  0  0  0  0  0  0  0  0
   58.6520   29.9520   51.3650 C   0  0  0  0  0  0  0  0  0  0  0  0
   58.9550   30.7490   46.9010 C   0  0  0  0  0  0  0  0  0  0  0  0
   58.9150   29.7820   45.8910 C   0  0  0  0  0  0  0  0  0  0  0  0
   58.5642   24.8351   46.4862 H   0  0  0  0  0  0  0  0  0  0  0  0
   57.5638   26.1962   47.1065 H   0  0  0  0  0  0  0  0  0  0  0  0
   57.5489   22.8073   46.0113 H   0  0  0  0  0  0  0  0  0  0  0  0
   53.1016   25.0326   45.5241 H   0  0  0  0  0  0  0  0  0  0  0  0
   58.9234   26.9627   47.8223 H   0  0  0  0  0  0  0  0  0  0  0  0
   58.9670   28.6815   49.6251 H   0  0  0  0  0  0  0  0  0  0  0  0
   58.3430   33.0151   51.5944 H   0  0  0  0  0  0  0  0  0  0  0  0
   56.9697   32.7150   50.4615 H   0  0  0  0  0  0  0  0  0  0  0  0
   57.3975   31.6761   53.2845 H   0  0  0  0  0  0  0  0  0  0  0  0
   55.9426   32.4322   52.5589 H   0  0  0  0  0  0  0  0  0  0  0  0
   55.0615   28.9147   52.9191 H   0  0  0  0  0  0  0  0  0  0  0  0
   55.4766   30.3135   53.9828 H   0  0  0  0  0  0  0  0  0  0  0  0
   53.0660   30.4904   54.6097 H   0  0  0  0  0  0  0  0  0  0  0  0
   50.9314   31.6509   54.0378 H   0  0  0  0  0  0  0  0  0  0  0  0
   52.3080   32.1920   49.9700 H   0  0  0  0  0  0  0  0  0  0  0  0
   54.4463   31.0320   50.5347 H   0  0  0  0  0  0  0  0  0  0  0  0
   57.5785   29.1007   53.0372 H   0  0  0  0  0  0  0  0  0  0  0  0
   57.0176   28.5599   51.3904 H   0  0  0  0  0  0  0  0  0  0  0  0
   59.3753   30.1857   52.1601 H   0  0  0  0  0  0  0  0  0  0  0  0
   59.0585   29.1863   50.6879 H   0  0  0  0  0  0  0  0  0  0  0  0
   58.9622   31.8166   46.6362 H   0  0  0  0  0  0  0  0  0  0  0  0
   58.9086   30.0951   44.8365 H   0  0  0  0  0  0  0  0  0  0  0  0
  1  2  2  0
  2  3  1  0
  3  4  1  0
  4  5  2  0
  5  6  1  0
  6  7  1  0
  6  8  2  0
  8  9  1  0
  8 10  1  0
 10 11  2  0
 11 12  1  0
  2 13  1  0
 13 14  1  0
 14 15  2  0
 15 16  1  0
 16 17  2  0
 17 18  1  0
 18 19  2  0
 18 20  1  0
 20 21  1  0
 21 22  1  0
 22 23  1  0
 23 24  1  0
 24 25  1  0
 25 26  2  0
 26 27  1  0
 27 28  2  0
 28 29  1  0
 28 30  1  0
 30 31  2  0
 23 32  1  0
 32 33  1  0
 17 34  1  0
 34 35  2  0
 11  4  1  0
 35 14  1  0
 33 20  1  0
 31 25  1  0
  3 36  1  0
  3 37  1  0
  5 38  1  0
 10 39  1  0
 15 40  1  0
 16 41  1  0
 21 42  1  0
 21 43  1  0
 22 44  1  0
 22 45  1  0
 24 46  1  0
 24 47  1  0
 26 48  1  0
 27 49  1  0
 30 50  1  0
 31 51  1  0
 32 52  1  0
 32 53  1  0
 33 54  1  0
 33 55  1  0
 34 56  1  0
 35 57  1  0
M  CHG  4   9  -1  12  -1  13  -1  29  -1
M  END
>  <UniqueID>  (41) 
36

>  <SMILES>  (41) 
O=C(Cc1cc(Cl)c([O-])cc1[O-])[N-]c1ccc(C(=O)N2CCN(Cc3ccc([O-])cc3)CC2)cc1

>  <Energy>  (41) 
73.0673628116288

>  <Genealogy>  (41) 
O=C(Cc1cc(Cl)c([O-])cc1[O-])[N-]c1ccc(C(=O)N2CCN(Cc3ccc([O-])cc3)CC2)cc1 (protonated)
O=C(Cc1cc(Cl)c([O-])cc1[O-])[N-]c1ccc(C(=O)N2CCN(Cc3ccc([O-])cc3)CC2)cc1 (3D coordinates assigned)
O=C(Cc1cc(Cl)c([O-])cc1[O-])[N-]c1ccc(C(=O)N2CCN(Cc3ccc([O-])cc3)CC2)cc1 (nonaromatic ring conformer: 73.0673628116288 kcal/mol)

>  <smiles>  (41) 
O=C(Cc1cc(Cl)c(O)cc1O)Nc1ccc(C(=O)N2CCN(Cc3ccc(O)cc3)CC2)cc1

>  <score_type>  (41) 
oracle

>  <origin>  (41) 
adg

>  <m_score__min__energy>  (41) 
-20.579999999999998

>  <m_primary>  (41) 
energy

$$$$
41:0
     RDKit          3D

 43 44  0  0  0  0  0  0  0  0999 V2000
   57.7710   33.0310   43.8920 C   0  0  0  0  0  0  0  0  0  0  0  0
   57.6850   31.5680   44.1970 C   0  0  0  0  0  0  0  0  0  0  0  0
   56.4420   30.9480   44.3620 C   0  0  0  0  0  0  0  0  0  0  0  0
   56.3840   29.5850   44.6650 C   0  0  0  0  0  0  0  0  0  0  0  0
   55.1440   28.9860   44.8640 O   0  0  0  0  0  0  0  0  0  0  0  0
   57.5750   28.8410   44.7830 C   0  0  0  0  0  0  0  0  0  0  0  0
   57.5560   27.3940   45.1010 C   0  0  0  0  0  0  0  0  0  0  0  0
   58.5640   26.7220   45.6810 C   0  0  0  0  0  0  0  0  0  0  0  0
   59.0560   26.9400   47.0610 C   0  0  0  0  0  0  0  0  0  0  0  0
   58.8060   26.0910   47.9580 O   0  0  0  0  0  0  0  0  0  0  0  0
   59.9470   28.0200   47.3730 N   0  0  0  0  0  0  0  0  0  0  0  0
   59.6560   29.1660   47.9160 C   0  0  0  0  0  0  0  0  0  0  0  0
   59.6450   30.3580   47.2720 N   0  0  0  0  0  0  0  0  0  0  0  0
   59.2190   31.3960   48.0640 C   0  0  0  0  0  0  0  0  0  0  0  0
   59.1540   32.8500   47.5420 C   0  0  0  0  0  0  0  0  0  0  0  0
   59.5900   33.8650   48.6260 C   0  0  0  0  0  0  0  0  0  0  0  0
   57.7140   33.2360   47.1160 C   0  0  0  0  0  0  0  0  0  0  0  0
   60.0610   32.9890   46.3040 C   0  0  0  0  0  0  0  0  0  0  0  0
   58.9080   30.9790   49.3820 C   0  0  0  0  0  0  0  0  0  0  0  0
   58.3640   31.7760   50.5280 C   0  0  0  0  0  0  0  0  0  0  0  0
   59.1290   29.3120   49.4900 S   0  0  0  0  0  0  0  0  0  0  0  0
   58.8030   29.5130   44.6450 C   0  0  0  0  0  0  0  0  0  0  0  0
   59.8910   28.8890   44.7650 O   0  0  0  0  0  0  0  0  0  0  0  0
   58.8250   30.8420   44.3590 N   0  0  0  0  0  0  0  0  0  0  0  0
   57.8045   33.6003   44.8326 H   0  0  0  0  0  0  0  0  0  0  0  0
   58.6825   33.2312   43.3096 H   0  0  0  0  0  0  0  0  0  0  0  0
   56.8893   33.3366   43.3096 H   0  0  0  0  0  0  0  0  0  0  0  0
   55.5150   31.5303   44.2538 H   0  0  0  0  0  0  0  0  0  0  0  0
   56.6488   26.8279   44.8429 H   0  0  0  0  0  0  0  0  0  0  0  0
   59.0648   25.9468   45.0825 H   0  0  0  0  0  0  0  0  0  0  0  0
   59.8780   30.4570   46.2640 H   0  0  0  0  0  0  0  0  0  0  0  0
   59.4066   33.4381   49.6230 H   0  0  0  0  0  0  0  0  0  0  0  0
   60.6619   34.0847   48.5127 H   0  0  0  0  0  0  0  0  0  0  0  0
   59.0114   34.7937   48.5127 H   0  0  0  0  0  0  0  0  0  0  0  0
   57.0982   33.4011   48.0124 H   0  0  0  0  0  0  0  0  0  0  0  0
   57.7436   34.1579   46.5167 H   0  0  0  0  0  0  0  0  0  0  0  0
   57.2785   32.4229   46.5167 H   0  0  0  0  0  0  0  0  0  0  0  0
   61.1004   33.1483   46.6270 H   0  0  0  0  0  0  0  0  0  0  0  0
   60.0011   32.0712   45.7007 H   0  0  0  0  0  0  0  0  0  0  0  0
   59.7290   33.8467   45.7007 H   0  0  0  0  0  0  0  0  0  0  0  0
   58.6781   31.3158   51.4765 H   0  0  0  0  0  0  0  0  0  0  0  0
   58.7491   32.8050   50.4745 H   0  0  0  0  0  0  0  0  0  0  0  0
   57.2654   31.7923   50.4745 H   0  0  0  0  0  0  0  0  0  0  0  0
  1  2  1  0
  2  3  2  0
  3  4  1  0
  4  5  1  0
  4  6  2  0
  6  7  1  0
  7  8  2  3
  8  9  1  0
  9 10  2  0
  9 11  1  0
 11 12  2  3
 12 13  1  0
 13 14  1  0
 14 15  1  0
 15 16  1  0
 15 17  1  0
 15 18  1  0
 14 19  2  0
 19 20  1  0
 19 21  1  0
  6 22  1  0
 22 23  2  0
 22 24  1  0
 24  2  1  0
 21 12  1  0
  1 25  1  0
  1 26  1  0
  1 27  1  0
  3 28  1  0
  7 29  1  0
  8 30  1  0
 13 31  1  0
 16 32  1  0
 16 33  1  0
 16 34  1  0
 17 35  1  0
 17 36  1  0
 17 37  1  0
 18 38  1  0
 18 39  1  0
 18 40  1  0
 20 41  1  0
 20 42  1  0
 20 43  1  0
M  CHG  2   5  -1  24  -1
M  END
>  <UniqueID>  (42) 
37

>  <SMILES>  (42) 
Cc1cc([O-])c(C=CC(=O)N=c2[nH]c(C(C)(C)C)c(C)s2)c(=O)[n-]1

>  <Energy>  (42) 
89.66823364410001

>  <Genealogy>  (42) 
Cc1cc([O-])c(C=CC(=O)N=c2[nH]c(C(C)(C)C)c(C)s2)c(=O)[n-]1 (protonated)
Cc1cc([O-])c(C=CC(=O)N=c2[nH]c(C(C)(C)C)c(C)s2)c(=O)[n-]1 (3D coordinates assigned)
Cc1cc([O-])c(C=CC(=O)N=c2[nH]c(C(C)(C)C)c(C)s2)c(=O)[n-]1 (optimized conformer: 89.66823364410001 kcal/mol)

>  <smiles>  (42) 
Cc1cc(O)c(C=CC(=O)N=c2[nH]c(C(C)(C)C)c(C)s2)c(=O)[nH]1

>  <score_type>  (42) 
oracle

>  <origin>  (42) 
adg

>  <m_score__min__energy>  (42) 
-13.42

>  <m_primary>  (42) 
energy

$$$$
42:0
     RDKit          3D

 60 63  0  0  0  0  0  0  0  0999 V2000
   57.7180   28.0260   44.0830 C   0  0  0  0  0  0  0  0  0  0  0  0
   57.4400   29.3980   44.6080 C   0  0  0  0  0  0  0  0  0  0  0  0
   56.2480   29.7490   44.8220 O   0  0  0  0  0  0  0  0  0  0  0  0
   58.5210   30.3190   44.8310 N   0  0  0  0  0  0  0  0  0  0  0  0
   58.3180   31.6490   45.3290 C   0  0  0  0  0  0  0  0  0  0  0  0
   57.8950   32.6510   44.4360 C   0  0  0  0  0  0  0  0  0  0  0  0
   57.6620   33.9530   44.8920 C   0  0  0  0  0  0  0  0  0  0  0  0
   57.8330   34.2620   46.2460 C   0  0  0  0  0  0  0  0  0  0  0  0
   58.2290   33.2700   47.1500 C   0  0  0  0  0  0  0  0  0  0  0  0
   58.4660   31.9600   46.7040 C   0  0  0  0  0  0  0  0  0  0  0  0
   58.9120   30.7100   47.9290 S   0  0  0  0  0  0  0  0  0  0  0  0
   59.3590   31.9220   49.1720 C   0  0  0  0  0  0  0  0  0  0  0  0
   60.4890   32.7350   49.0040 C   0  0  0  0  0  0  0  0  0  0  0  0
   60.8020   33.7000   49.9750 C   0  0  0  0  0  0  0  0  0  0  0  0
   59.9950   33.8470   51.1140 C   0  0  0  0  0  0  0  0  0  0  0  0
   58.8860   33.0130   51.2910 C   0  0  0  0  0  0  0  0  0  0  0  0
   58.0660   33.1250   52.4560 N   0  0  0  0  0  0  0  0  0  0  0  0
   57.9150   32.0550   53.3870 C   0  0  0  0  0  0  0  0  0  0  0  0
   58.7780   31.8950   54.2950 O   0  0  0  0  0  0  0  0  0  0  0  0
   56.7360   31.1590   53.3020 C   0  0  0  0  0  0  0  0  0  0  0  0
   56.5060   30.1990   54.3020 C   0  0  0  0  0  0  0  0  0  0  0  0
   55.4330   29.3100   54.1920 C   0  0  0  0  0  0  0  0  0  0  0  0
   54.5880   29.3560   53.0840 C   0  0  0  0  0  0  0  0  0  0  0  0
   54.7880   30.3160   52.0880 C   0  0  0  0  0  0  0  0  0  0  0  0
   53.9120   30.3020   50.8950 C   0  0  0  0  0  0  0  0  0  0  0  0
   52.5680   30.3730   50.9320 C   0  0  0  0  0  0  0  0  0  0  0  0
   51.7780   29.6380   49.8790 C   0  0  0  0  0  0  0  0  0  0  0  0
   51.8370   31.0460   52.0350 C   0  0  0  0  0  0  0  0  0  0  0  0
   51.6790   30.3930   53.2730 C   0  0  0  0  0  0  0  0  0  0  0  0
   50.9590   30.9980   54.3110 C   0  0  0  0  0  0  0  0  0  0  0  0
   50.3830   32.2570   54.1190 C   0  0  0  0  0  0  0  0  0  0  0  0
   50.5330   32.9160   52.8930 C   0  0  0  0  0  0  0  0  0  0  0  0
   51.2550   32.3160   51.8480 C   0  0  0  0  0  0  0  0  0  0  0  0
   51.3950   32.9890   50.6370 O   0  0  0  0  0  0  0  0  0  0  0  0
   55.8670   31.2100   52.1940 C   0  0  0  0  0  0  0  0  0  0  0  0
   58.5760   32.0480   50.3240 C   0  0  0  0  0  0  0  0  0  0  0  0
   57.8585   27.3326   44.9253 H   0  0  0  0  0  0  0  0  0  0  0  0
   56.8698   27.6896   43.4687 H   0  0  0  0  0  0  0  0  0  0  0  0
   58.6303   28.0463   43.4687 H   0  0  0  0  0  0  0  0  0  0  0  0
   59.4910   29.9470   44.8290 H   0  0  0  0  0  0  0  0  0  0  0  0
   57.7467   32.4091   43.3732 H   0  0  0  0  0  0  0  0  0  0  0  0
   57.3442   34.7342   44.1858 H   0  0  0  0  0  0  0  0  0  0  0  0
   57.6556   35.2880   46.6009 H   0  0  0  0  0  0  0  0  0  0  0  0
   58.3551   33.5175   48.2143 H   0  0  0  0  0  0  0  0  0  0  0  0
   61.1273   32.6175   48.1159 H   0  0  0  0  0  0  0  0  0  0  0  0
   61.6839   34.3439   49.8423 H   0  0  0  0  0  0  0  0  0  0  0  0
   60.2337   34.6150   51.8645 H   0  0  0  0  0  0  0  0  0  0  0  0
   57.1732   30.1469   55.1750 H   0  0  0  0  0  0  0  0  0  0  0  0
   55.2540   28.5690   54.9851 H   0  0  0  0  0  0  0  0  0  0  0  0
   53.7621   28.6352   52.9935 H   0  0  0  0  0  0  0  0  0  0  0  0
   54.3930   30.2284   49.9085 H   0  0  0  0  0  0  0  0  0  0  0  0
   51.0556   28.9659   50.3652 H   0  0  0  0  0  0  0  0  0  0  0  0
   51.2392   30.3635   49.2518 H   0  0  0  0  0  0  0  0  0  0  0  0
   52.4628   29.0484   49.2518 H   0  0  0  0  0  0  0  0  0  0  0  0
   52.1250   29.3992   53.4260 H   0  0  0  0  0  0  0  0  0  0  0  0
   50.8470   30.4828   55.2764 H   0  0  0  0  0  0  0  0  0  0  0  0
   49.8118   32.7301   54.9313 H   0  0  0  0  0  0  0  0  0  0  0  0
   50.0830   33.9091   52.7472 H   0  0  0  0  0  0  0  0  0  0  0  0
   56.0349   31.9570   51.4042 H   0  0  0  0  0  0  0  0  0  0  0  0
   57.7109   31.3849   50.4717 H   0  0  0  0  0  0  0  0  0  0  0  0
  1  2  1  0
  2  3  2  0
  2  4  1  0
  4  5  1  0
  5  6  2  0
  6  7  1  0
  7  8  2  0
  8  9  1  0
  9 10  2  0
 10 11  1  0
 11 12  1  0
 12 13  2  0
 13 14  1  0
 14 15  2  0
 15 16  1  0
 16 17  1  0
 17 18  1  0
 18 19  2  0
 18 20  1  0
 20 21  2  0
 21 22  1  0
 22 23  2  0
 23 24  1  0
 24 25  1  0
 25 26  2  3
 26 27  1  0
 26 28  1  0
 28 29  2  0
 29 30  1  0
 30 31  2  0
 31 32  1  0
 32 33  2  0
 33 34  1  0
 24 35  2  0
 16 36  2  0
 10  5  1  0
 36 12  1  0
 35 20  1  0
 33 28  1  0
  1 37  1  0
  1 38  1  0
  1 39  1  0
  4 40  1  0
  6 41  1  0
  7 42  1  0
  8 43  1  0
  9 44  1  0
 13 45  1  0
 14 46  1  0
 15 47  1  0
 21 48  1  0
 22 49  1  0
 23 50  1  0
 25 51  1  0
 27 52  1  0
 27 53  1  0
 27 54  1  0
 29 55  1  0
 30 56  1  0
 31 57  1  0
 32 58  1  0
 35 59  1  0
 36 60  1  0
M  CHG  2  17  -1  34  -1
M  END
>  <UniqueID>  (43) 
38

>  <SMILES>  (43) 
CC(=O)Nc1ccccc1Sc1cccc([N-]C(=O)c2cccc(C=C(C)c3ccccc3[O-])c2)c1

>  <Energy>  (43) 
84.21990164262357

>  <Genealogy>  (43) 
CC(=O)Nc1ccccc1Sc1cccc([N-]C(=O)c2cccc(C=C(C)c3ccccc3[O-])c2)c1 (protonated)
CC(=O)Nc1ccccc1Sc1cccc([N-]C(=O)c2cccc(C=C(C)c3ccccc3[O-])c2)c1 (3D coordinates assigned)
CC(=O)Nc1ccccc1Sc1cccc([N-]C(=O)c2cccc(C=C(C)c3ccccc3[O-])c2)c1 (optimized conformer: 84.21990164262357 kcal/mol)

>  <smiles>  (43) 
CC(=O)Nc1ccccc1Sc1cccc(NC(=O)c2cccc(C=C(C)c3ccccc3O)c2)c1

>  <score_type>  (43) 
oracle

>  <origin>  (43) 
adg

>  <m_score__min__energy>  (43) 
-15.800000000000001

>  <m_primary>  (43) 
energy

$$$$
43:0
     RDKit          3D

 51 54  0  0  0  0  0  0  0  0999 V2000
   59.3020   24.7760   45.9930 C   0  0  0  0  0  0  0  0  0  0  0  0
   58.0120   25.0410   45.7330 C   0  0  0  0  0  0  0  0  0  0  0  0
   57.0140   24.1160   45.3790 C   0  0  0  0  0  0  0  0  0  0  0  0
   57.1010   22.8320   44.9820 C   0  0  0  0  0  0  0  0  0  0  0  0
   56.9850   21.6570   45.8630 C   0  0  0  0  0  0  0  0  0  0  0  0
   57.4470   21.6050   47.1260 N   0  0  0  0  0  0  0  0  0  0  0  0
   57.2460   20.3170   47.4790 C   0  0  0  0  0  0  0  0  0  0  0  0
   57.5440   19.8720   48.6180 O   0  0  0  0  0  0  0  0  0  0  0  0
   56.7100   19.5420   46.5130 N   0  0  0  0  0  0  0  0  0  0  0  0
   56.5630   20.3990   45.4910 C   0  0  0  0  0  0  0  0  0  0  0  0
   56.0520   20.0320   44.2490 O   0  0  0  0  0  0  0  0  0  0  0  0
   55.8040   24.7840   45.4920 C   0  0  0  0  0  0  0  0  0  0  0  0
   56.1090   26.0800   45.8340 C   0  0  0  0  0  0  0  0  0  0  0  0
   55.1720   27.0940   45.9990 O   0  0  0  0  0  0  0  0  0  0  0  0
   57.4390   26.2510   45.9690 N   0  0  0  0  0  0  0  0  0  0  0  0
   58.0860   27.4860   46.3260 C   0  0  0  0  0  0  0  0  0  0  0  0
   58.2910   28.4840   45.3620 C   0  0  0  0  0  0  0  0  0  0  0  0
   58.9300   29.6780   45.7060 C   0  0  0  0  0  0  0  0  0  0  0  0
   59.3920   29.8840   47.0150 C   0  0  0  0  0  0  0  0  0  0  0  0
   60.0470   31.1580   47.3770 C   0  0  0  0  0  0  0  0  0  0  0  0
   60.7990   31.7120   46.5300 O   0  0  0  0  0  0  0  0  0  0  0  0
   59.8490   31.7720   48.6680 N   0  0  0  0  0  0  0  0  0  0  0  0
   60.4020   31.1380   49.8720 C   0  0  0  0  0  0  0  0  0  0  0  0
   59.2360   33.1030   48.7600 C   0  0  0  0  0  0  0  0  0  0  0  0
   58.8320   33.6050   47.3960 C   0  0  0  0  0  0  0  0  0  0  0  0
   59.6540   34.5040   46.6950 C   0  0  0  0  0  0  0  0  0  0  0  0
   59.2670   34.9790   45.4380 C   0  0  0  0  0  0  0  0  0  0  0  0
   58.0600   34.5620   44.8720 C   0  0  0  0  0  0  0  0  0  0  0  0
   57.2380   33.6680   45.5620 C   0  0  0  0  0  0  0  0  0  0  0  0
   57.6200   33.1900   46.8190 C   0  0  0  0  0  0  0  0  0  0  0  0
   59.1750   28.8900   47.9830 C   0  0  0  0  0  0  0  0  0  0  0  0
   58.5360   27.6970   47.6390 C   0  0  0  0  0  0  0  0  0  0  0  0
   59.9882   25.5930   46.2609 H   0  0  0  0  0  0  0  0  0  0  0  0
   59.6729   23.7419   45.9382 H   0  0  0  0  0  0  0  0  0  0  0  0
   57.2728   22.6452   43.9117 H   0  0  0  0  0  0  0  0  0  0  0  0
   56.5380   19.3740   43.6520 H   0  0  0  0  0  0  0  0  0  0  0  0
   54.8002   24.3611   45.3385 H   0  0  0  0  0  0  0  0  0  0  0  0
   57.9468   28.3258   44.3293 H   0  0  0  0  0  0  0  0  0  0  0  0
   59.0717   30.4610   44.9465 H   0  0  0  0  0  0  0  0  0  0  0  0
   59.9812   31.6204   50.7666 H   0  0  0  0  0  0  0  0  0  0  0  0
   60.1426   30.0690   49.8756 H   0  0  0  0  0  0  0  0  0  0  0  0
   61.4963   31.2498   49.8756 H   0  0  0  0  0  0  0  0  0  0  0  0
   58.3441   33.0452   49.4012 H   0  0  0  0  0  0  0  0  0  0  0  0
   59.9719   33.8001   49.1873 H   0  0  0  0  0  0  0  0  0  0  0  0
   60.6054   34.8352   47.1368 H   0  0  0  0  0  0  0  0  0  0  0  0
   59.9144   35.6824   44.8939 H   0  0  0  0  0  0  0  0  0  0  0  0
   57.7570   34.9374   43.8834 H   0  0  0  0  0  0  0  0  0  0  0  0
   56.2880   33.3393   45.1154 H   0  0  0  0  0  0  0  0  0  0  0  0
   56.9691   32.4862   47.3584 H   0  0  0  0  0  0  0  0  0  0  0  0
   59.5103   29.0521   49.0180 H   0  0  0  0  0  0  0  0  0  0  0  0
   58.3844   26.9183   48.4010 H   0  0  0  0  0  0  0  0  0  0  0  0
  1  2  2  0
  2  3  1  0
  3  4  2  3
  4  5  1  0
  5  6  1  0
  6  7  1  0
  7  8  2  0
  7  9  1  0
  9 10  1  0
 10 11  1  0
  3 12  1  0
 12 13  2  0
 13 14  1  0
 13 15  1  0
 15 16  1  0
 16 17  2  0
 17 18  1  0
 18 19  2  0
 19 20  1  0
 20 21  2  0
 20 22  1  0
 22 23  1  0
 22 24  1  0
 24 25  1  0
 25 26  2  0
 26 27  1  0
 27 28  2  0
 28 29  1  0
 29 30  2  0
 19 31  1  0
 31 32  2  0
 15  2  1  0
 32 16  1  0
 10  5  2  0
 30 25  1  0
  1 33  1  0
  1 34  1  0
  4 35  1  0
 11 36  1  0
 12 37  1  0
 17 38  1  0
 18 39  1  0
 23 40  1  0
 23 41  1  0
 23 42  1  0
 24 43  1  0
 24 44  1  0
 26 45  1  0
 27 46  1  0
 28 47  1  0
 29 48  1  0
 30 49  1  0
 31 50  1  0
 32 51  1  0
M  CHG  3   6  -1   9  -1  14  -1
M  END
>  <UniqueID>  (44) 
39

>  <SMILES>  (44) 
C=c1c(=Cc2[n-]c(=O)[n-]c2O)cc([O-])n1-c1ccc(C(=O)N(C)Cc2ccccc2)cc1

>  <Energy>  (44) 
134.60087745189028

>  <Genealogy>  (44) 
C=c1c(=Cc2[n-]c(=O)[n-]c2O)cc([O-])n1-c1ccc(C(=O)N(C)Cc2ccccc2)cc1 (protonated)
C=c1c(=Cc2[n-]c(=O)[n-]c2O)cc([O-])n1-c1ccc(C(=O)N(C)Cc2ccccc2)cc1 (3D coordinates assigned)
C=c1c(=Cc2[n-]c(=O)[n-]c2O)cc([O-])n1-c1ccc(C(=O)N(C)Cc2ccccc2)cc1 (optimized conformer: 134.60087745189028 kcal/mol)

>  <smiles>  (44) 
C=c1c(=Cc2[nH]c(=O)[nH]c2O)cc(O)n1-c1ccc(C(=O)N(C)Cc2ccccc2)cc1

>  <score_type>  (44) 
oracle

>  <origin>  (44) 
adg

>  <m_score__min__energy>  (44) 
-15.32

>  <m_primary>  (44) 
energy

$$$$
44:0
     RDKit          3D

 45 48  0  0  0  0  0  0  0  0999 V2000
   59.6720   36.1430   46.3920 N   0  0  0  0  0  0  0  0  0  0  0  0
   59.6230   34.7010   46.3100 C   0  0  0  0  0  0  0  0  0  0  0  0
   59.5260   34.3220   44.8480 C   0  0  0  0  0  0  0  0  0  0  0  0
   58.1120   33.8750   44.5330 C   0  0  0  0  0  0  0  0  0  0  0  0
   57.8750   32.6730   45.3220 N   0  0  0  0  0  0  0  0  0  0  0  0
   57.4570   31.4410   44.7440 C   0  0  0  0  0  0  0  0  0  0  0  0
   56.9550   31.4410   43.5140 N   0  0  0  0  0  0  0  0  0  0  0  0
   56.5460   30.3170   42.9100 C   0  0  0  0  0  0  0  0  0  0  0  0
   56.6550   29.1220   43.6000 C   0  0  0  0  0  0  0  0  0  0  0  0
   57.1700   29.0930   44.8710 C   0  0  0  0  0  0  0  0  0  0  0  0
   57.3170   27.8630   45.6480 C   0  0  0  0  0  0  0  0  0  0  0  0
   56.6270   26.7120   45.5640 N   0  0  0  0  0  0  0  0  0  0  0  0
   57.1190   25.8780   46.4790 N   0  0  0  0  0  0  0  0  0  0  0  0
   58.1170   26.4590   47.1610 C   0  0  0  0  0  0  0  0  0  0  0  0
   58.8270   25.9950   48.0990 O   0  0  0  0  0  0  0  0  0  0  0  0
   58.2710   27.7440   46.6470 C   0  0  0  0  0  0  0  0  0  0  0  0
   59.2370   28.7510   47.0730 C   0  0  0  0  0  0  0  0  0  0  0  0
   59.2310   29.3170   48.3340 C   0  0  0  0  0  0  0  0  0  0  0  0
   60.1760   30.2660   48.6690 C   0  0  0  0  0  0  0  0  0  0  0  0
   61.1320   30.6560   47.7510 C   0  0  0  0  0  0  0  0  0  0  0  0
   62.0860   31.5970   48.0540 F   0  0  0  0  0  0  0  0  0  0  0  0
   61.1420   30.0870   46.4780 C   0  0  0  0  0  0  0  0  0  0  0  0
   60.1960   29.1300   46.1250 C   0  0  0  0  0  0  0  0  0  0  0  0
   57.5550   30.2840   45.3940 N   0  0  0  0  0  0  0  0  0  0  0  0
   58.0830   32.7790   46.7590 C   0  0  0  0  0  0  0  0  0  0  0  0
   58.4140   34.2190   47.0870 C   0  0  0  0  0  0  0  0  0  0  0  0
   59.4030   36.6170   45.4950 H   0  0  0  0  0  0  0  0  0  0  0  0
   59.0100   36.4180   47.1750 H   0  0  0  0  0  0  0  0  0  0  0  0
   60.5215   34.2349   46.7406 H   0  0  0  0  0  0  0  0  0  0  0  0
   59.7822   35.1924   44.2261 H   0  0  0  0  0  0  0  0  0  0  0  0
   60.2256   33.5001   44.6358 H   0  0  0  0  0  0  0  0  0  0  0  0
   57.3939   34.6604   44.8112 H   0  0  0  0  0  0  0  0  0  0  0  0
   57.9863   33.6777   43.4582 H   0  0  0  0  0  0  0  0  0  0  0  0
   56.1336   30.3433   41.8906 H   0  0  0  0  0  0  0  0  0  0  0  0
   56.3254   28.1865   43.1244 H   0  0  0  0  0  0  0  0  0  0  0  0
   55.8460   26.5500   44.8790 H   0  0  0  0  0  0  0  0  0  0  0  0
   56.7860   24.8920   46.6620 H   0  0  0  0  0  0  0  0  0  0  0  0
   58.4733   29.0113   49.0705 H   0  0  0  0  0  0  0  0  0  0  0  0
   60.1678   30.7146   49.6734 H   0  0  0  0  0  0  0  0  0  0  0  0
   61.9036   30.3972   45.7474 H   0  0  0  0  0  0  0  0  0  0  0  0
   60.2010   28.6799   45.1213 H   0  0  0  0  0  0  0  0  0  0  0  0
   57.1683   32.4774   47.2904 H   0  0  0  0  0  0  0  0  0  0  0  0
   58.9065   32.1203   47.0721 H   0  0  0  0  0  0  0  0  0  0  0  0
   57.5504   34.8512   46.8331 H   0  0  0  0  0  0  0  0  0  0  0  0
   58.6446   34.2846   48.1606 H   0  0  0  0  0  0  0  0  0  0  0  0
  1  2  1  0
  2  3  1  0
  3  4  1  0
  4  5  1  0
  5  6  1  0
  6  7  2  0
  7  8  1  0
  8  9  2  0
  9 10  1  0
 10 11  1  0
 11 12  1  0
 12 13  1  0
 13 14  1  0
 14 15  2  0
 14 16  1  0
 16 17  1  0
 17 18  2  0
 18 19  1  0
 19 20  2  0
 20 21  1  0
 20 22  1  0
 22 23  2  0
 10 24  2  0
  5 25  1  0
 25 26  1  0
 26  2  1  0
 24  6  1  0
 16 11  2  0
 23 17  1  0
  1 27  1  0
  1 28  1  0
  2 29  1  0
  3 30  1  0
  3 31  1  0
  4 32  1  0
  4 33  1  0
  8 34  1  0
  9 35  1  0
 12 36  1  0
 13 37  1  0
 18 38  1  0
 19 39  1  0
 22 40  1  0
 23 41  1  0
 25 42  1  0
 25 43  1  0
 26 44  1  0
 26 45  1  0
M  END
>  <smiles>  (45) 
NC1CCN(c2nccc(-c3[nH][nH]c(=O)c3-c3ccc(F)cc3)n2)CC1

>  <score_type>  (45) 
oracle

>  <origin>  (45) 
adg

>  <m_score__min__energy>  (45) 
-7.8700000000000001

>  <m_primary>  (45) 
energy

$$$$
45:0
     RDKit          3D

 61 64  0  0  0  0  0  0  0  0999 V2000
   64.1310   32.7870   49.6990 C   0  0  0  0  0  0  0  0  0  0  0  0
   63.0590   31.9030   49.1330 C   0  0  0  0  0  0  0  0  0  0  0  0
   62.3180   30.9570   49.8240 C   0  0  0  0  0  0  0  0  0  0  0  0
   62.4450   30.5970   51.2480 C   0  0  0  0  0  0  0  0  0  0  0  0
   63.0080   31.3990   52.0380 O   0  0  0  0  0  0  0  0  0  0  0  0
   61.9610   29.3480   51.7570 N   0  0  0  0  0  0  0  0  0  0  0  0
   60.5790   29.0950   52.1550 C   0  0  0  0  0  0  0  0  0  0  0  0
   59.6500   29.8140   51.2230 C   0  0  0  0  0  0  0  0  0  0  0  0
   59.3150   29.2550   50.1440 O   0  0  0  0  0  0  0  0  0  0  0  0
   59.1420   31.1260   51.5380 N   0  0  0  0  0  0  0  0  0  0  0  0
   59.6620   32.3610   50.9660 C   0  0  0  0  0  0  0  0  0  0  0  0
   58.7930   33.4720   51.5350 C   0  0  0  0  0  0  0  0  0  0  0  0
   58.1210   32.8750   52.7710 C   0  0  0  0  0  0  0  0  0  0  0  0
   58.1180   31.3640   52.5450 C   0  0  1  0  0  0  0  0  0  0  0  0
   56.8080   30.9030   52.0540 C   0  0  0  0  0  0  0  0  0  0  0  0
   55.7740   30.5450   51.6760 N   0  0  0  0  0  0  0  0  0  0  0  0
   61.4430   30.3880   48.9740 N   0  0  0  0  0  0  0  0  0  0  0  0
   61.6450   30.9940   47.7880 C   0  0  0  0  0  0  0  0  0  0  0  0
   60.7600   30.7660   46.5930 C   0  0  0  0  0  0  0  0  0  0  0  0
   59.4210   30.2970   47.0130 N   0  0  0  0  0  0  0  0  0  0  0  0
   58.6660   29.7300   45.8630 C   0  0  0  0  0  0  0  0  0  0  0  0
   58.5510   30.7050   44.6690 C   0  0  0  0  0  0  0  0  0  0  0  0
   57.8200   32.0390   44.9690 C   0  0  0  0  0  0  0  0  0  0  0  0
   58.5590   33.0310   45.8510 C   0  0  0  0  0  0  0  0  0  0  0  0
   58.8230   34.3230   45.3670 C   0  0  0  0  0  0  0  0  0  0  0  0
   59.4510   35.2660   46.1800 C   0  0  0  0  0  0  0  0  0  0  0  0
   59.8090   34.9160   47.4800 C   0  0  0  0  0  0  0  0  0  0  0  0
   59.5480   33.6660   47.9440 N   0  0  0  0  0  0  0  0  0  0  0  0
   58.9300   32.7260   47.1790 C   0  0  0  0  0  0  0  0  0  0  0  0
   58.6990   31.3560   47.7570 C   0  0  0  0  0  0  0  0  0  0  0  0
   62.6430   31.9100   47.8460 N   0  0  0  0  0  0  0  0  0  0  0  0
   63.0530   32.8360   46.7900 C   0  0  0  0  0  0  0  0  0  0  0  0
   64.0911   32.7541   50.7978 H   0  0  0  0  0  0  0  0  0  0  0  0
   65.1153   32.4346   49.3571 H   0  0  0  0  0  0  0  0  0  0  0  0
   63.9725   33.8204   49.3571 H   0  0  0  0  0  0  0  0  0  0  0  0
   60.3772   28.0145   52.1123 H   0  0  0  0  0  0  0  0  0  0  0  0
   60.4212   29.4576   53.1815 H   0  0  0  0  0  0  0  0  0  0  0  0
   60.7124   32.5072   51.2581 H   0  0  0  0  0  0  0  0  0  0  0  0
   59.6336   32.3443   49.8665 H   0  0  0  0  0  0  0  0  0  0  0  0
   59.4109   34.3381   51.8144 H   0  0  0  0  0  0  0  0  0  0  0  0
   58.0544   33.8275   50.8015 H   0  0  0  0  0  0  0  0  0  0  0  0
   58.6907   33.1269   53.6776 H   0  0  0  0  0  0  0  0  0  0  0  0
   57.1034   33.2683   52.9120 H   0  0  0  0  0  0  0  0  0  0  0  0
   58.3140   30.8179   53.4795 H   0  0  0  0  0  0  0  0  0  0  0  0
   60.7530   29.6320   49.1830 H   0  0  0  0  0  0  0  0  0  0  0  0
   60.6539   31.7095   46.0375 H   0  0  0  0  0  0  0  0  0  0  0  0
   61.2194   29.9962   45.9556 H   0  0  0  0  0  0  0  0  0  0  0  0
   59.1803   28.8193   45.5222 H   0  0  0  0  0  0  0  0  0  0  0  0
   57.6445   29.5214   46.2139 H   0  0  0  0  0  0  0  0  0  0  0  0
   59.5687   30.9449   44.3273 H   0  0  0  0  0  0  0  0  0  0  0  0
   57.9416   30.1884   43.9129 H   0  0  0  0  0  0  0  0  0  0  0  0
   57.6169   32.5329   44.0073 H   0  0  0  0  0  0  0  0  0  0  0  0
   56.9202   31.7579   45.5359 H   0  0  0  0  0  0  0  0  0  0  0  0
   58.5327   34.5924   44.3408 H   0  0  0  0  0  0  0  0  0  0  0  0
   59.6616   36.2761   45.7986 H   0  0  0  0  0  0  0  0  0  0  0  0
   60.3032   35.6520   48.1312 H   0  0  0  0  0  0  0  0  0  0  0  0
   59.0440   31.3510   48.8015 H   0  0  0  0  0  0  0  0  0  0  0  0
   57.6228   31.1402   47.6855 H   0  0  0  0  0  0  0  0  0  0  0  0
   63.4588   33.7525   47.2432 H   0  0  0  0  0  0  0  0  0  0  0  0
   63.8255   32.3622   46.1664 H   0  0  0  0  0  0  0  0  0  0  0  0
   62.1830   33.0895   46.1664 H   0  0  0  0  0  0  0  0  0  0  0  0
  1  2  1  0
  2  3  2  0
  3  4  1  0
  4  5  2  0
  4  6  1  0
  6  7  1  0
  7  8  1  0
  8  9  2  0
  8 10  1  0
 10 11  1  0
 11 12  1  0
 12 13  1  0
 13 14  1  0
 14 15  1  0
 15 16  3  0
  3 17  1  0
 17 18  2  0
 18 19  1  0
 19 20  1  0
 20 21  1  0
 21 22  1  0
 22 23  1  0
 23 24  1  0
 24 25  2  0
 25 26  1  0
 26 27  2  0
 27 28  1  0
 28 29  2  0
 29 30  1  0
 18 31  1  0
 31 32  1  0
 31  2  1  0
 14 10  1  0
 30 20  1  0
 29 24  1  0
  1 33  1  0
  1 34  1  0
  1 35  1  0
  7 36  1  0
  7 37  1  0
 11 38  1  0
 11 39  1  0
 12 40  1  0
 12 41  1  0
 13 42  1  0
 13 43  1  0
 14 44  1  1
 17 45  1  0
 19 46  1  0
 19 47  1  0
 21 48  1  0
 21 49  1  0
 22 50  1  0
 22 51  1  0
 23 52  1  0
 23 53  1  0
 25 54  1  0
 26 55  1  0
 27 56  1  0
 30 57  1  0
 30 58  1  0
 32 59  1  0
 32 60  1  0
 32 61  1  0
M  CHG  2   6  -1  17   1
M  END
>  <UniqueID>  (46) 
40

>  <SMILES>  (46) 
Cc1c(C(=O)[N-]CC(=O)N2CCC[C@H]2C#N)[nH+]c(CN2CCCc3cccnc3C2)n1C

>  <Energy>  (46) 
106.63014651460574

>  <Genealogy>  (46) 
Cc1c(C(=O)[N-]CC(=O)N2CCCC2C#N)[nH+]c(CN2CCCc3cccnc3C2)n1C (protonated)
Cc1c(C(=O)[N-]CC(=O)N2CCC[C@H]2C#N)[nH+]c(CN2CCCc3cccnc3C2)n1C (chirality)
Cc1c(C(=O)[N-]CC(=O)N2CCC[C@H]2C#N)[nH+]c(CN2CCCc3cccnc3C2)n1C (3D coordinates assigned)
Cc1c(C(=O)[N-]CC(=O)N2CCC[C@H]2C#N)[nH+]c(CN2CCCc3cccnc3C2)n1C (nonaromatic ring conformer: 106.63014651460574 kcal/mol)

>  <smiles>  (46) 
Cc1c(C(=O)NCC(=O)N2CCCC2C#N)nc(CN2CCCc3cccnc3C2)n1C

>  <score_type>  (46) 
oracle

>  <origin>  (46) 
adg

>  <m_score__min__energy>  (46) 
-8.4199999999999999

>  <m_primary>  (46) 
energy

$$$$
46:0
     RDKit          3D

 66 70  0  0  0  0  0  0  0  0999 V2000
   59.6387   29.9414   49.0394 H   0  0  0  0  0  0  0  0  0  0  0  0
   59.3620   29.6030   48.0300 C   0  0  0  0  0  0  0  0  0  0  0  0
   59.6112   28.5822   47.7046 H   0  0  0  0  0  0  0  0  0  0  0  0
   58.7200   30.4360   47.1950 C   0  0  0  0  0  0  0  0  0  0  0  0
   58.3110   30.1420   45.8950 C   0  0  0  0  0  0  0  0  0  0  0  0
   58.4050   28.9650   45.2490 C   0  0  0  0  0  0  0  0  0  0  0  0
   59.0748   28.8881   44.3798 H   0  0  0  0  0  0  0  0  0  0  0  0
   57.6400   27.7740   45.6670 C   0  0  0  0  0  0  0  0  0  0  0  0
   56.2390   27.7670   45.6170 C   0  0  0  0  0  0  0  0  0  0  0  0
   55.5390   28.8860   45.1830 O   0  0  0  0  0  0  0  0  0  0  0  0
   55.5530   26.6510   45.9740 N   0  0  0  0  0  0  0  0  0  0  0  0
   56.2010   25.5320   46.3900 C   0  0  0  0  0  0  0  0  0  0  0  0
   55.5460   24.4980   46.6900 O   0  0  0  0  0  0  0  0  0  0  0  0
   57.5570   25.5190   46.4630 N   0  0  0  0  0  0  0  0  0  0  0  0
   58.2890   26.6110   46.1140 C   0  0  0  0  0  0  0  0  0  0  0  0
   59.5460   26.5640   46.2010 O   0  0  0  0  0  0  0  0  0  0  0  0
   57.7930   31.3170   45.3720 C   0  0  0  0  0  0  0  0  0  0  0  0
   57.3915   31.4626   44.3583 H   0  0  0  0  0  0  0  0  0  0  0  0
   57.8780   32.2680   46.3670 C   0  0  0  0  0  0  0  0  0  0  0  0
   57.6940   33.7340   46.1190 C   0  0  0  0  0  0  0  0  0  0  0  0
   57.6276   34.2631   47.0811 H   0  0  0  0  0  0  0  0  0  0  0  0
   58.5508   34.1195   45.5469 H   0  0  0  0  0  0  0  0  0  0  0  0
   56.7685   33.8958   45.5469 H   0  0  0  0  0  0  0  0  0  0  0  0
   58.4270   31.7310   47.4860 N   0  0  0  0  0  0  0  0  0  0  0  0
   58.8450   32.4770   48.6470 C   0  0  0  0  0  0  0  0  0  0  0  0
   58.2060   32.2240   49.8760 C   0  0  0  0  0  0  0  0  0  0  0  0
   57.3443   31.5412   49.9108 H   0  0  0  0  0  0  0  0  0  0  0  0
   58.6540   32.8300   51.0500 C   0  0  0  0  0  0  0  0  0  0  0  0
   58.1277   32.6495   51.9989 H   0  0  0  0  0  0  0  0  0  0  0  0
   59.7690   33.6640   51.0180 C   0  0  0  0  0  0  0  0  0  0  0  0
   60.1420   34.1172   51.9483 H   0  0  0  0  0  0  0  0  0  0  0  0
   60.4140   33.9260   49.8090 C   0  0  0  0  0  0  0  0  0  0  0  0
   61.3071   34.5681   49.7977 H   0  0  0  0  0  0  0  0  0  0  0  0
   59.9370   33.3800   48.6060 C   0  0  0  0  0  0  0  0  0  0  0  0
   60.6550   33.7350   47.3560 C   0  0  0  0  0  0  0  0  0  0  0  0
   60.3060   34.8070   46.7870 O   0  0  0  0  0  0  0  0  0  0  0  0
   61.6920   32.9140   46.7360 N   0  0  1  0  0  0  0  0  0  0  0  0
   61.3280   32.6760   45.7820 H   0  0  0  0  0  0  0  0  0  0  0  0
   63.0070   33.5660   46.5310 C   0  0  0  0  0  0  0  0  0  0  0  0
   62.8420   34.5380   46.0431 H   0  0  0  0  0  0  0  0  0  0  0  0
   63.6128   32.8877   45.9122 H   0  0  0  0  0  0  0  0  0  0  0  0
   63.7820   33.8020   47.8380 C   0  0  0  0  0  0  0  0  0  0  0  0
   63.2373   34.5340   48.4524 H   0  0  0  0  0  0  0  0  0  0  0  0
   64.7846   34.1797   47.5886 H   0  0  0  0  0  0  0  0  0  0  0  0
   63.9340   32.4890   48.6330 C   0  0  1  0  0  0  0  0  0  0  0  0
   64.5900   31.8400   48.0343 H   0  0  0  0  0  0  0  0  0  0  0  0
   64.6220   32.6510   49.9420 N   0  0  0  0  0  0  0  0  0  0  0  0
   66.0940   32.7000   49.7980 C   0  0  0  0  0  0  0  0  0  0  0  0
   66.4770   31.6728   49.7073 H   0  0  0  0  0  0  0  0  0  0  0  0
   66.3296   33.2913   48.9009 H   0  0  0  0  0  0  0  0  0  0  0  0
   66.7670   33.3780   51.0080 C   0  0  0  0  0  0  0  0  0  0  0  0
   67.8030   33.0187   51.0949 H   0  0  0  0  0  0  0  0  0  0  0  0
   66.7563   34.4677   50.8581 H   0  0  0  0  0  0  0  0  0  0  0  0
   66.0670   33.0720   52.1960 O   0  0  0  0  0  0  0  0  0  0  0  0
   64.7690   33.6540   52.1920 C   0  0  0  0  0  0  0  0  0  0  0  0
   64.1162   33.0457   52.8353 H   0  0  0  0  0  0  0  0  0  0  0  0
   64.8839   34.6857   52.5557 H   0  0  0  0  0  0  0  0  0  0  0  0
   64.1210   33.7460   50.7930 C   0  0  0  0  0  0  0  0  0  0  0  0
   63.0284   33.6637   50.8897 H   0  0  0  0  0  0  0  0  0  0  0  0
   64.3787   34.7120   50.3342 H   0  0  0  0  0  0  0  0  0  0  0  0
   62.5650   31.8150   48.8120 C   0  0  0  0  0  0  0  0  0  0  0  0
   61.9341   32.4441   49.4572 H   0  0  0  0  0  0  0  0  0  0  0  0
   62.7140   30.8269   49.2717 H   0  0  0  0  0  0  0  0  0  0  0  0
   61.8700   31.6290   47.4520 C   0  0  0  0  0  0  0  0  0  0  0  0
   60.8816   31.1757   47.6180 H   0  0  0  0  0  0  0  0  0  0  0  0
   62.5074   30.9815   46.8319 H   0  0  0  0  0  0  0  0  0  0  0  0
  1  2  1  0
  2  3  1  0
  2  4  2  0
  4  5  1  0
  5  6  2  0
  6  7  1  0
  6  8  1  0
  8  9  2  0
  9 10  1  0
  9 11  1  0
 11 12  1  0
 12 13  2  0
 12 14  1  0
 14 15  1  0
 15 16  2  0
  5 17  1  0
 17 18  1  0
 17 19  2  0
 19 20  1  0
 20 21  1  0
 20 22  1  0
 20 23  1  0
 19 24  1  0
 24 25  1  0
 25 26  2  0
 26 27  1  0
 26 28  1  0
 28 29  1  0
 28 30  2  0
 30 31  1  0
 30 32  1  0
 32 33  1  0
 32 34  2  0
 34 35  1  0
 35 36  2  0
 35 37  1  0
 37 38  1  1
 37 39  1  0
 39 40  1  0
 39 41  1  0
 39 42  1  0
 42 43  1  0
 42 44  1  0
 42 45  1  0
 45 46  1  1
 45 47  1  0
 47 48  1  0
 48 49  1  0
 48 50  1  0
 48 51  1  0
 51 52  1  0
 51 53  1  0
 51 54  1  0
 54 55  1  0
 55 56  1  0
 55 57  1  0
 55 58  1  0
 58 59  1  0
 58 60  1  0
 45 61  1  0
 61 62  1  0
 61 63  1  0
 61 64  1  0
 64 65  1  0
 64 66  1  0
 24  4  1  0
 34 25  1  0
 64 37  1  0
 15  8  1  0
 58 47  1  0
M  CHG  4  10  -1  11  -1  14  -1  37   1
M  END
>  <UniqueID>  (47) 
41

>  <SMILES>  (47) 
C=c1/c(=C/c2c([O-])[n-]c(=O)[n-]c2=O)cc(C)n1-c1ccccc1C(=O)[NH+]1CCC(N2CCOCC2)CC1

>  <Energy>  (47) 
145.54765698958437

>  <Genealogy>  (47) 
C=c1c(=Cc2c([O-])[n-]c(=O)[n-]c2=O)cc(C)n1-c1ccccc1C(=O)[NH+]1CCC(N2CCOCC2)CC1 (protonated)
C=c1/c(=C/c2c([O-])[n-]c(=O)[n-]c2=O)cc(C)n1-c1ccccc1C(=O)[NH+]1CCC(N2CCOCC2)CC1 (cis-trans isomerization)
C=c1/c(=C/c2c([O-])[n-]c(=O)[n-]c2=O)cc(C)n1-c1ccccc1C(=O)[NH+]1CCC(N2CCOCC2)CC1 (3D coordinates assigned)
C=c1/c(=C/c2c([O-])[n-]c(=O)[n-]c2=O)cc(C)n1-c1ccccc1C(=O)[NH+]1CCC(N2CCOCC2)CC1 (nonaromatic ring conformer: 145.54765698958437 kcal/mol)

>  <smiles>  (47) 
C=c1c(=Cc2c(O)[nH]c(=O)[nH]c2=O)cc(C)n1-c1ccccc1C(=O)N1CCC(N2CCOCC2)CC1

>  <score_type>  (47) 
oracle

>  <origin>  (47) 
adg

>  <m_score__min__energy>  (47) 
-16.370000000000001

>  <m_primary>  (47) 
energy

$$$$
47:0
     RDKit          3D

 66 70  0  0  0  0  0  0  0  0999 V2000
   65.6344   34.3883   49.3866 H   0  0  0  0  0  0  0  0  0  0  0  0
   65.1390   33.4630   49.7160 C   0  0  0  0  0  0  0  0  0  0  0  0
   63.8190   33.3460   49.4680 C   0  0  0  0  0  0  0  0  0  0  0  0
   62.8580   32.7030   50.4060 C   0  0  0  0  0  0  0  0  0  0  0  0
   63.1190   32.6510   51.6390 O   0  0  0  0  0  0  0  0  0  0  0  0
   61.5780   32.2410   49.9170 N   0  0  0  0  0  0  0  0  0  0  0  0
   60.5420   31.7850   50.8740 C   0  0  0  0  0  0  0  0  0  0  0  0
   60.5633   32.4647   51.7387 H   0  0  0  0  0  0  0  0  0  0  0  0
   59.1310   31.8950   50.2470 C   0  0  0  0  0  0  0  0  0  0  0  0
   58.3877   31.9179   51.0575 H   0  0  0  0  0  0  0  0  0  0  0  0
   59.1085   32.8151   49.6445 H   0  0  0  0  0  0  0  0  0  0  0  0
   58.7990   30.7220   49.3100 C   0  0  0  0  0  0  0  0  0  0  0  0
   57.7086   30.6748   49.1726 H   0  0  0  0  0  0  0  0  0  0  0  0
   59.3134   30.8952   48.3533 H   0  0  0  0  0  0  0  0  0  0  0  0
   59.2660   29.4350   49.8510 N   0  0  0  0  0  0  0  0  0  0  0  0
   59.5630   28.3530   48.9470 C   0  0  0  0  0  0  0  0  0  0  0  0
   60.5910   27.6450   49.1340 O   0  0  0  0  0  0  0  0  0  0  0  0
   58.7300   28.0850   47.7640 C   0  0  0  0  0  0  0  0  0  0  0  0
   58.3700   29.0370   46.8750 N   0  0  0  0  0  0  0  0  0  0  0  0
   57.6570   28.3570   45.9500 C   0  0  0  0  0  0  0  0  0  0  0  0
   57.1480   28.9110   44.9380 O   0  0  0  0  0  0  0  0  0  0  0  0
   57.5510   27.0360   46.2090 N   0  0  0  0  0  0  0  0  0  0  0  0
   56.9410   26.0030   45.3730 C   0  0  0  0  0  0  0  0  0  0  0  0
   56.7339   26.4172   44.3752 H   0  0  0  0  0  0  0  0  0  0  0  0
   57.6331   25.1523   45.2876 H   0  0  0  0  0  0  0  0  0  0  0  0
   55.6620   25.5350   45.9900 C   0  0  0  0  0  0  0  0  0  0  0  0
   55.5930   24.3920   46.5140 O   0  0  0  0  0  0  0  0  0  0  0  0
   54.5290   26.3360   45.9350 O   0  0  0  0  0  0  0  0  0  0  0  0
   58.2460   26.8620   47.3450 C   0  0  0  0  0  0  0  0  0  0  0  0
   58.4750   25.6320   47.9500 O   0  0  0  0  0  0  0  0  0  0  0  0
   59.7180   29.3710   51.2450 C   0  0  0  0  0  0  0  0  0  0  0  0
   58.8764   29.6084   51.9123 H   0  0  0  0  0  0  0  0  0  0  0  0
   60.0885   28.3576   51.4587 H   0  0  0  0  0  0  0  0  0  0  0  0
   60.8480   30.3790   51.4750 C   0  0  0  0  0  0  0  0  0  0  0  0
   61.0058   30.4876   52.5582 H   0  0  0  0  0  0  0  0  0  0  0  0
   61.7431   29.9915   50.9665 H   0  0  0  0  0  0  0  0  0  0  0  0
   61.2920   32.4240   48.4850 C   0  0  0  0  0  0  0  0  0  0  0  0
   60.2082   32.3407   48.3163 H   0  0  0  0  0  0  0  0  0  0  0  0
   61.8195   31.6492   47.9092 H   0  0  0  0  0  0  0  0  0  0  0  0
   61.7710   33.8020   48.0290 C   0  0  0  0  0  0  0  0  0  0  0  0
   61.2938   34.5744   48.6500 H   0  0  0  0  0  0  0  0  0  0  0  0
   61.4978   33.9408   46.9726 H   0  0  0  0  0  0  0  0  0  0  0  0
   63.2950   33.9160   48.1650 C   0  0  0  0  0  0  0  0  0  0  0  0
   63.5730   34.9789   48.1108 H   0  0  0  0  0  0  0  0  0  0  0  0
   63.7423   33.3316   47.3475 H   0  0  0  0  0  0  0  0  0  0  0  0
   65.9740   32.4520   50.3930 C   0  0  0  0  0  0  0  0  0  0  0  0
   67.2700   32.6170   50.8510 C   0  0  0  0  0  0  0  0  0  0  0  0
   68.0520   33.8880   50.8580 C   0  0  0  0  0  0  0  0  0  0  0  0
   68.2416   34.1961   51.8968 H   0  0  0  0  0  0  0  0  0  0  0  0
   69.0104   33.7317   50.3412 H   0  0  0  0  0  0  0  0  0  0  0  0
   67.4805   34.6730   50.3412 H   0  0  0  0  0  0  0  0  0  0  0  0
   67.7740   31.4240   51.2200 N   0  0  0  0  0  0  0  0  0  0  0  0
   66.8370   30.5080   51.0160 N   0  0  0  0  0  0  0  0  0  0  0  0
   67.0310   29.1010   51.2620 C   0  0  0  0  0  0  0  0  0  0  0  0
   67.8400   28.3180   50.4160 C   0  0  0  0  0  0  0  0  0  0  0  0
   68.3358   28.7822   49.5507 H   0  0  0  0  0  0  0  0  0  0  0  0
   68.0170   26.9540   50.6690 C   0  0  0  0  0  0  0  0  0  0  0  0
   68.6530   26.3509   50.0044 H   0  0  0  0  0  0  0  0  0  0  0  0
   67.3880   26.3550   51.7640 C   0  0  0  0  0  0  0  0  0  0  0  0
   67.5311   25.2825   51.9621 H   0  0  0  0  0  0  0  0  0  0  0  0
   66.5780   27.1190   52.6060 C   0  0  0  0  0  0  0  0  0  0  0  0
   66.0810   26.6468   53.4663 H   0  0  0  0  0  0  0  0  0  0  0  0
   66.3970   28.4840   52.3580 C   0  0  0  0  0  0  0  0  0  0  0  0
   65.7550   29.0796   53.0237 H   0  0  0  0  0  0  0  0  0  0  0  0
   65.7360   31.0950   50.4970 C   0  0  0  0  0  0  0  0  0  0  0  0
   64.8083   30.5801   50.2068 H   0  0  0  0  0  0  0  0  0  0  0  0
  1  2  1  0
  2  3  2  0
  3  4  1  0
  4  5  2  0
  4  6  1  0
  6  7  1  0
  7  8  1  0
  7  9  1  0
  9 10  1  0
  9 11  1  0
  9 12  1  0
 12 13  1  0
 12 14  1  0
 12 15  1  0
 15 16  1  0
 16 17  2  0
 16 18  1  0
 18 19  1  0
 19 20  1  0
 20 21  2  0
 20 22  1  0
 22 23  1  0
 23 24  1  0
 23 25  1  0
 23 26  1  0
 26 27  2  0
 26 28  1  0
 22 29  1  0
 29 30  1  0
 15 31  1  0
 31 32  1  0
 31 33  1  0
 31 34  1  0
 34 35  1  0
 34 36  1  0
  6 37  1  0
 37 38  1  0
 37 39  1  0
 37 40  1  0
 40 41  1  0
 40 42  1  0
 40 43  1  0
 43 44  1  0
 43 45  1  0
  2 46  1  0
 46 47  1  0
 47 48  1  0
 48 49  1  0
 48 50  1  0
 48 51  1  0
 47 52  2  0
 52 53  1  0
 53 54  1  0
 54 55  2  0
 55 56  1  0
 55 57  1  0
 57 58  1  0
 57 59  2  0
 59 60  1  0
 59 61  1  0
 61 62  1  0
 61 63  2  0
 63 64  1  0
 53 65  1  0
 65 66  1  0
 43  3  1  0
 65 46  2  0
 34  7  1  0
 63 54  1  0
 29 18  2  0
M  CHG  3  19  -1  28  -1  30  -1
M  END
>  <UniqueID>  (48) 
42

>  <SMILES>  (48) 
Cc1nn(-c2ccccc2)cc1/C=C1/CCCN(C2CCN(C(=O)c3[n-]c(=O)n(CC(=O)[O-])c3[O-])CC2)C1=O

>  <Energy>  (48) 
148.90363766858133

>  <Genealogy>  (48) 
Cc1nn(-c2ccccc2)cc1C=C1CCCN(C2CCN(C(=O)c3[n-]c(=O)n(CC(=O)[O-])c3[O-])CC2)C1=O (protonated)
Cc1nn(-c2ccccc2)cc1/C=C1/CCCN(C2CCN(C(=O)c3[n-]c(=O)n(CC(=O)[O-])c3[O-])CC2)C1=O (cis-trans isomerization)
Cc1nn(-c2ccccc2)cc1/C=C1/CCCN(C2CCN(C(=O)c3[n-]c(=O)n(CC(=O)[O-])c3[O-])CC2)C1=O (3D coordinates assigned)
Cc1nn(-c2ccccc2)cc1/C=C1/CCCN(C2CCN(C(=O)c3[n-]c(=O)n(CC(=O)[O-])c3[O-])CC2)C1=O (nonaromatic ring conformer: 148.90363766858133 kcal/mol)

>  <smiles>  (48) 
Cc1nn(-c2ccccc2)cc1C=C1CCCN(C2CCN(C(=O)c3[nH]c(=O)n(CC(=O)O)c3O)CC2)C1=O

>  <score_type>  (48) 
oracle

>  <origin>  (48) 
adg

>  <m_score__min__energy>  (48) 
-16.300000000000001

>  <m_primary>  (48) 
energy

$$$$
48:0
     RDKit          3D

 53 55  0  0  0  0  0  0  0  0999 V2000
   60.7920   29.1610   50.1850 C   0  0  0  0  0  0  0  0  0  0  0  0
   59.6290   28.9340   49.4020 O   0  0  0  0  0  0  0  0  0  0  0  0
   59.5450   29.1590   48.0200 C   0  0  0  0  0  0  0  0  0  0  0  0
   60.7110   29.5220   47.3360 C   0  0  0  0  0  0  0  0  0  0  0  0
   60.6830   29.7580   45.9600 C   0  0  0  0  0  0  0  0  0  0  0  0
   59.4860   29.6320   45.2530 C   0  0  0  0  0  0  0  0  0  0  0  0
   58.3060   29.2690   45.9200 C   0  0  0  0  0  0  0  0  0  0  0  0
   57.0170   29.1550   45.1520 C   0  0  0  0  0  0  0  0  0  0  0  0
   56.4840   30.4820   44.8620 N   0  0  0  0  0  0  0  0  0  0  0  0
   57.1410   31.4330   44.0210 C   0  0  0  0  0  0  0  0  0  0  0  0
   57.4910   31.1190   42.8510 O   0  0  0  0  0  0  0  0  0  0  0  0
   57.3990   32.8140   44.5320 C   0  0  0  0  0  0  0  0  0  0  0  0
   58.3490   32.7750   45.6360 N   0  0  0  0  0  0  0  0  0  0  0  0
   58.1650   33.4980   46.8550 C   0  0  0  0  0  0  0  0  0  0  0  0
   57.0850   33.3680   47.4910 O   0  0  0  0  0  0  0  0  0  0  0  0
   59.2070   34.4600   47.3510 C   0  0  0  0  0  0  0  0  0  0  0  0
   60.5410   33.7830   47.5700 C   0  0  0  0  0  0  0  0  0  0  0  0
   61.5330   33.8880   46.5780 C   0  0  0  0  0  0  0  0  0  0  0  0
   62.7850   33.3010   46.7610 C   0  0  0  0  0  0  0  0  0  0  0  0
   63.0580   32.5940   47.9330 C   0  0  0  0  0  0  0  0  0  0  0  0
   62.0790   32.4640   48.9190 C   0  0  0  0  0  0  0  0  0  0  0  0
   60.8180   33.0450   48.7440 C   0  0  0  0  0  0  0  0  0  0  0  0
   59.8230   32.8550   49.7560 N   0  0  0  0  0  0  0  0  0  0  0  0
   58.7260   31.9180   49.6180 C   0  0  0  0  0  0  0  0  0  0  0  0
   58.0200   31.9210   50.9710 C   0  0  0  0  0  0  0  0  0  0  0  0
   58.5480   33.1420   51.7230 C   0  0  0  0  0  0  0  0  0  0  0  0
   59.8520   33.5310   51.0380 C   0  0  0  0  0  0  0  0  0  0  0  0
   58.3380   29.0360   47.3040 C   0  0  0  0  0  0  0  0  0  0  0  0
   60.5311   29.1101   51.2524 H   0  0  0  0  0  0  0  0  0  0  0  0
   61.5449   28.3929   49.9545 H   0  0  0  0  0  0  0  0  0  0  0  0
   61.2008   30.1559   49.9545 H   0  0  0  0  0  0  0  0  0  0  0  0
   61.6576   29.6222   47.8872 H   0  0  0  0  0  0  0  0  0  0  0  0
   61.6052   30.0435   45.4326 H   0  0  0  0  0  0  0  0  0  0  0  0
   59.4677   29.8180   44.1690 H   0  0  0  0  0  0  0  0  0  0  0  0
   57.2029   28.6236   44.2070 H   0  0  0  0  0  0  0  0  0  0  0  0
   56.2862   28.5993   45.7579 H   0  0  0  0  0  0  0  0  0  0  0  0
   57.8116   33.4304   43.7197 H   0  0  0  0  0  0  0  0  0  0  0  0
   56.4526   33.2461   44.8892 H   0  0  0  0  0  0  0  0  0  0  0  0
   59.3328   35.2618   46.6086 H   0  0  0  0  0  0  0  0  0  0  0  0
   58.8668   34.8630   48.3163 H   0  0  0  0  0  0  0  0  0  0  0  0
   61.3194   34.4380   45.6496 H   0  0  0  0  0  0  0  0  0  0  0  0
   63.5564   33.3952   45.9825 H   0  0  0  0  0  0  0  0  0  0  0  0
   64.0481   32.1378   48.0800 H   0  0  0  0  0  0  0  0  0  0  0  0
   62.2997   31.9020   49.8385 H   0  0  0  0  0  0  0  0  0  0  0  0
   58.0383   32.2444   48.8240 H   0  0  0  0  0  0  0  0  0  0  0  0
   59.0778   30.9131   49.3416 H   0  0  0  0  0  0  0  0  0  0  0  0
   56.9315   31.9990   50.8332 H   0  0  0  0  0  0  0  0  0  0  0  0
   58.2142   30.9921   51.5272 H   0  0  0  0  0  0  0  0  0  0  0  0
   57.8247   33.9686   51.6638 H   0  0  0  0  0  0  0  0  0  0  0  0
   58.7055   32.9196   52.7887 H   0  0  0  0  0  0  0  0  0  0  0  0
   59.9045   34.6209   50.8985 H   0  0  0  0  0  0  0  0  0  0  0  0
   60.7312   33.2453   51.6341 H   0  0  0  0  0  0  0  0  0  0  0  0
   57.4150   28.7557   47.8326 H   0  0  0  0  0  0  0  0  0  0  0  0
  1  2  1  0
  2  3  1  0
  3  4  2  0
  4  5  1  0
  5  6  2  0
  6  7  1  0
  7  8  1  0
  8  9  1  0
  9 10  1  0
 10 11  2  0
 10 12  1  0
 12 13  1  0
 13 14  1  0
 14 15  2  0
 14 16  1  0
 16 17  1  0
 17 18  2  0
 18 19  1  0
 19 20  2  0
 20 21  1  0
 21 22  2  0
 22 23  1  0
 23 24  1  0
 24 25  1  0
 25 26  1  0
 26 27  1  0
  7 28  2  0
 28  3  1  0
 22 17  1  0
 27 23  1  0
  1 29  1  0
  1 30  1  0
  1 31  1  0
  4 32  1  0
  5 33  1  0
  6 34  1  0
  8 35  1  0
  8 36  1  0
 12 37  1  0
 12 38  1  0
 16 39  1  0
 16 40  1  0
 18 41  1  0
 19 42  1  0
 20 43  1  0
 21 44  1  0
 24 45  1  0
 24 46  1  0
 25 47  1  0
 25 48  1  0
 26 49  1  0
 26 50  1  0
 27 51  1  0
 27 52  1  0
 28 53  1  0
M  CHG  2   9  -1  13  -1
M  END
>  <UniqueID>  (49) 
43

>  <SMILES>  (49) 
COc1cccc(C[N-]C(=O)C[N-]C(=O)Cc2ccccc2N2CCCC2)c1

>  <Energy>  (49) 
59.32716826584371

>  <Genealogy>  (49) 
COc1cccc(C[N-]C(=O)C[N-]C(=O)Cc2ccccc2N2CCCC2)c1 (protonated)
COc1cccc(C[N-]C(=O)C[N-]C(=O)Cc2ccccc2N2CCCC2)c1 (3D coordinates assigned)
COc1cccc(C[N-]C(=O)C[N-]C(=O)Cc2ccccc2N2CCCC2)c1 (nonaromatic ring conformer: 59.32716826584371 kcal/mol)

>  <smiles>  (49) 
COc1cccc(CNC(=O)CNC(=O)Cc2ccccc2N2CCCC2)c1

>  <score_type>  (49) 
oracle

>  <origin>  (49) 
adg

>  <m_score__min__energy>  (49) 
-13.199999999999999

>  <m_primary>  (49) 
energy

$$$$
49:0
     RDKit          3D

 52 55  0  0  0  0  0  0  0  0999 V2000
   62.6551   34.1361   46.3760 H   0  0  0  0  0  0  0  0  0  0  0  0
   62.4570   33.4590   47.2200 C   0  0  0  0  0  0  0  0  0  0  0  0
   61.8650   33.9510   48.3870 C   0  0  0  0  0  0  0  0  0  0  0  0
   61.5900   35.0137   48.4574 H   0  0  0  0  0  0  0  0  0  0  0  0
   61.6220   33.0940   49.4650 C   0  0  0  0  0  0  0  0  0  0  0  0
   61.1512   33.4837   50.3796 H   0  0  0  0  0  0  0  0  0  0  0  0
   61.9770   31.7370   49.3840 C   0  0  0  0  0  0  0  0  0  0  0  0
   61.7530   30.8190   50.5600 C   0  0  0  0  0  0  0  0  0  0  0  0
   61.4865   31.4221   51.4405 H   0  0  0  0  0  0  0  0  0  0  0  0
   62.6791   30.2544   50.7430 H   0  0  0  0  0  0  0  0  0  0  0  0
   60.6740   29.8660   50.2890 N   0  0  0  0  0  0  0  0  0  0  0  0
   60.0010   29.7990   49.1790 C   0  0  0  0  0  0  0  0  0  0  0  0
   60.1010   28.6900   48.4030 N   0  0  0  0  0  0  0  0  0  0  0  0
   59.4400   28.6150   47.2200 C   0  0  0  0  0  0  0  0  0  0  0  0
   59.5360   27.5310   46.5070 N   0  0  0  0  0  0  0  0  0  0  0  0
   58.4730   26.6270   46.1630 C   0  0  0  0  0  0  0  0  0  0  0  0
   58.7150   25.2810   45.8260 C   0  0  0  0  0  0  0  0  0  0  0  0
   59.7469   24.9013   45.7938 H   0  0  0  0  0  0  0  0  0  0  0  0
   57.6480   24.4250   45.5320 C   0  0  0  0  0  0  0  0  0  0  0  0
   57.8437   23.3787   45.2548 H   0  0  0  0  0  0  0  0  0  0  0  0
   56.3350   24.8970   45.5900 C   0  0  0  0  0  0  0  0  0  0  0  0
   55.4980   24.2253   45.3484 H   0  0  0  0  0  0  0  0  0  0  0  0
   56.0840   26.2230   45.9550 C   0  0  0  0  0  0  0  0  0  0  0  0
   54.7770   26.6880   46.0280 O   0  0  0  0  0  0  0  0  0  0  0  0
   57.1490   27.0810   46.2500 C   0  0  0  0  0  0  0  0  0  0  0  0
   56.9464   28.1190   46.5523 H   0  0  0  0  0  0  0  0  0  0  0  0
   58.6640   29.6580   46.8190 N   0  0  0  0  0  0  0  0  0  0  0  0
   58.5510   30.7680   47.5900 C   0  0  0  0  0  0  0  0  0  0  0  0
   57.8440   31.7720   47.1630 N   0  0  0  0  0  0  0  0  0  0  0  0
   58.3700   32.9410   46.5090 C   0  0  0  0  0  0  0  0  0  0  0  0
   58.8940   34.0000   47.2710 C   0  0  0  0  0  0  0  0  0  0  0  0
   58.9439   33.9112   48.3663 H   0  0  0  0  0  0  0  0  0  0  0  0
   59.3510   35.1620   46.6500 C   0  0  0  0  0  0  0  0  0  0  0  0
   59.7622   35.9834   47.2551 H   0  0  0  0  0  0  0  0  0  0  0  0
   59.2870   35.2830   45.2630 C   0  0  0  0  0  0  0  0  0  0  0  0
   59.6580   36.1958   44.7740 H   0  0  0  0  0  0  0  0  0  0  0  0
   58.7530   34.2480   44.4930 C   0  0  0  0  0  0  0  0  0  0  0  0
   58.7054   34.3518   43.3989 H   0  0  0  0  0  0  0  0  0  0  0  0
   58.2750   33.0730   45.1030 C   0  0  0  0  0  0  0  0  0  0  0  0
   57.7310   31.9790   44.2600 C   0  0  0  0  0  0  0  0  0  0  0  0
   57.8770   32.0230   43.0080 O   0  0  0  0  0  0  0  0  0  0  0  0
   57.0350   30.8740   44.8530 N   0  0  0  0  0  0  0  0  0  0  0  0
   57.0070   30.7710   45.8930 H   0  0  0  0  0  0  0  0  0  0  0  0
   56.3960   29.8470   44.0400 C   0  0  0  0  0  0  0  0  0  0  0  0
   55.9296   29.0974   44.6962 H   0  0  0  0  0  0  0  0  0  0  0  0
   55.6255   30.3087   43.4051 H   0  0  0  0  0  0  0  0  0  0  0  0
   57.1506   29.3597   43.4051 H   0  0  0  0  0  0  0  0  0  0  0  0
   59.2220   30.8340   48.7690 N   0  0  0  0  0  0  0  0  0  0  0  0
   62.5520   31.2470   48.1990 C   0  0  0  0  0  0  0  0  0  0  0  0
   62.8104   30.1810   48.1161 H   0  0  0  0  0  0  0  0  0  0  0  0
   62.7970   32.1070   47.1260 C   0  0  0  0  0  0  0  0  0  0  0  0
   63.2583   31.7194   46.2057 H   0  0  0  0  0  0  0  0  0  0  0  0
  1  2  1  0
  2  3  2  0
  3  4  1  0
  3  5  1  0
  5  6  1  0
  5  7  2  0
  7  8  1  0
  8  9  1  0
  8 10  1  0
  8 11  1  0
 11 12  2  3
 12 13  1  0
 13 14  1  0
 14 15  2  0
 15 16  1  0
 16 17  2  0
 17 18  1  0
 17 19  1  0
 19 20  1  0
 19 21  2  0
 21 22  1  0
 21 23  1  0
 23 24  1  0
 23 25  2  0
 25 26  1  0
 14 27  1  0
 27 28  1  0
 28 29  2  0
 29 30  1  0
 30 31  2  0
 31 32  1  0
 31 33  1  0
 33 34  1  0
 33 35  2  0
 35 36  1  0
 35 37  1  0
 37 38  1  0
 37 39  2  0
 39 40  1  0
 40 41  2  0
 40 42  1  0
 42 43  1  0
 42 44  1  0
 44 45  1  0
 44 46  1  0
 44 47  1  0
 28 48  1  0
  7 49  1  0
 49 50  1  0
 49 51  2  0
 51 52  1  0
 51  2  1  0
 48 12  1  0
 25 16  1  0
 39 30  1  0
M  CHG  4  13  -1  24  -1  27  -1  48  -1
M  END
>  <UniqueID>  (50) 
44

>  <SMILES>  (50) 
CNC(=O)c1ccccc1/N=c1\[n-]c(=NCc2ccccc2)[n-]/c(=N/c2cccc([O-])c2)[n-]1

>  <Energy>  (50) 
67.83654582513907

>  <Genealogy>  (50) 
CNC(=O)c1ccccc1N=c1[n-]c(=NCc2ccccc2)[n-]c(=Nc2cccc([O-])c2)[n-]1 (protonated)
CNC(=O)c1ccccc1/N=c1\[n-]c(=NCc2ccccc2)[n-]/c(=N/c2cccc([O-])c2)[n-]1 (cis-trans isomerization)
CNC(=O)c1ccccc1/N=c1\[n-]c(=NCc2ccccc2)[n-]/c(=N/c2cccc([O-])c2)[n-]1 (3D coordinates assigned)
CNC(=O)c1ccccc1/N=c1\[n-]c(=NCc2ccccc2)[n-]/c(=N/c2cccc([O-])c2)[n-]1 (optimized conformer: 67.83654582513907 kcal/mol)

>  <smiles>  (50) 
CNC(=O)c1ccccc1N=c1[nH]c(=NCc2ccccc2)[nH]c(=Nc2cccc(O)c2)[nH]1

>  <score_type>  (50) 
oracle

>  <origin>  (50) 
adg

>  <m_score__min__energy>  (50) 
-15.75

>  <m_primary>  (50) 
energy

$$$$
50:0
     RDKit          3D

 46 49  0  0  0  0  0  0  0  0999 V2000
   56.2750   30.5100   44.0068 H   0  0  0  0  0  0  0  0  0  0  0  0
   56.5240   29.4500   44.1630 C   0  0  0  0  0  0  0  0  0  0  0  0
   55.8149   28.6674   43.8553 H   0  0  0  0  0  0  0  0  0  0  0  0
   57.6950   29.1110   44.7300 C   0  0  0  0  0  0  0  0  0  0  0  0
   58.1490   27.8120   44.9920 C   0  0  0  0  0  0  0  0  0  0  0  0
   57.5200   26.6570   44.6830 C   0  0  0  0  0  0  0  0  0  0  0  0
   57.3960   26.4235   43.6153 H   0  0  0  0  0  0  0  0  0  0  0  0
   56.9830   25.6780   45.6550 C   0  0  0  0  0  0  0  0  0  0  0  0
   57.6390   24.6140   46.1510 N   0  0  0  0  0  0  0  0  0  0  0  0
   56.7530   24.0670   47.0110 C   0  0  0  0  0  0  0  0  0  0  0  0
   57.0060   23.0310   47.6790 O   0  0  0  0  0  0  0  0  0  0  0  0
   55.5760   24.7210   47.1020 N   0  0  0  0  0  0  0  0  0  0  0  0
   55.7400   25.7380   46.2410 C   0  0  0  0  0  0  0  0  0  0  0  0
   54.7710   26.7050   45.9970 O   0  0  0  0  0  0  0  0  0  0  0  0
   59.3820   27.9570   45.6210 C   0  0  0  0  0  0  0  0  0  0  0  0
   60.0345   27.1476   45.9803 H   0  0  0  0  0  0  0  0  0  0  0  0
   59.6280   29.3120   45.7070 C   0  0  0  0  0  0  0  0  0  0  0  0
   60.8540   29.9160   46.3250 C   0  0  0  0  0  0  0  0  0  0  0  0
   60.7704   29.8748   47.4210 H   0  0  0  0  0  0  0  0  0  0  0  0
   61.7423   29.3524   46.0036 H   0  0  0  0  0  0  0  0  0  0  0  0
   60.9484   30.9637   46.0036 H   0  0  0  0  0  0  0  0  0  0  0  0
   58.6060   30.0140   45.1740 N   0  0  0  0  0  0  0  0  0  0  0  0
   58.5280   31.4480   45.0860 C   0  0  0  0  0  0  0  0  0  0  0  0
   58.1210   32.0610   43.8940 C   0  0  0  0  0  0  0  0  0  0  0  0
   57.8487   31.4440   43.0250 H   0  0  0  0  0  0  0  0  0  0  0  0
   58.0600   33.4530   43.8060 C   0  0  0  0  0  0  0  0  0  0  0  0
   57.7356   33.9299   42.8693 H   0  0  0  0  0  0  0  0  0  0  0  0
   58.4100   34.2420   44.9050 C   0  0  0  0  0  0  0  0  0  0  0  0
   58.3606   35.3382   44.8279 H   0  0  0  0  0  0  0  0  0  0  0  0
   58.8250   33.6450   46.1090 C   0  0  0  0  0  0  0  0  0  0  0  0
   59.2000   34.4820   47.2730 C   0  0  0  0  0  0  0  0  0  0  0  0
   58.9200   35.7120   47.2790 O   0  0  0  0  0  0  0  0  0  0  0  0
   59.8350   33.8840   48.4130 N   0  0  0  0  0  0  0  0  0  0  0  0
   61.2430   33.6950   48.6090 C   0  0  0  0  0  0  0  0  0  0  0  0
   61.7700   33.8590   49.8970 C   0  0  0  0  0  0  0  0  0  0  0  0
   61.1062   34.1439   50.7266 H   0  0  0  0  0  0  0  0  0  0  0  0
   63.1340   33.6630   50.1350 C   0  0  0  0  0  0  0  0  0  0  0  0
   63.5414   33.8065   51.1466 H   0  0  0  0  0  0  0  0  0  0  0  0
   63.9800   33.2850   49.0890 C   0  0  0  0  0  0  0  0  0  0  0  0
   65.3350   33.0910   49.3260 O   0  0  0  0  0  0  0  0  0  0  0  0
   63.4590   33.0940   47.8060 C   0  0  0  0  0  0  0  0  0  0  0  0
   64.1232   32.7878   46.9844 H   0  0  0  0  0  0  0  0  0  0  0  0
   62.0960   33.2910   47.5640 C   0  0  0  0  0  0  0  0  0  0  0  0
   61.6891   33.1300   46.5548 H   0  0  0  0  0  0  0  0  0  0  0  0
   58.8810   32.2410   46.1900 C   0  0  0  0  0  0  0  0  0  0  0  0
   59.2039   31.7610   47.1256 H   0  0  0  0  0  0  0  0  0  0  0  0
  1  2  1  0
  2  3  1  0
  2  4  2  0
  4  5  1  0
  5  6  2  0
  6  7  1  0
  6  8  1  0
  8  9  1  0
  9 10  1  0
 10 11  2  0
 10 12  1  0
 12 13  1  0
 13 14  1  0
  5 15  1  0
 15 16  1  0
 15 17  2  0
 17 18  1  0
 18 19  1  0
 18 20  1  0
 18 21  1  0
 17 22  1  0
 22 23  1  0
 23 24  2  0
 24 25  1  0
 24 26  1  0
 26 27  1  0
 26 28  2  0
 28 29  1  0
 28 30  1  0
 30 31  1  0
 31 32  2  0
 31 33  1  0
 33 34  1  0
 34 35  2  0
 35 36  1  0
 35 37  1  0
 37 38  1  0
 37 39  2  0
 39 40  1  0
 39 41  1  0
 41 42  1  0
 41 43  2  0
 43 44  1  0
 30 45  2  0
 45 46  1  0
 22  4  1  0
 45 23  1  0
 13  8  2  0
 43 34  1  0
M  CHG  5   9  -1  12  -1  14  -1  33  -1  40  -1
M  END
>  <UniqueID>  (51) 
45

>  <SMILES>  (51) 
C=c1/c(=C/c2[n-]c(=O)[n-]c2[O-])cc(C)n1-c1cccc(C(=O)[N-]c2ccc([O-])cc2)c1

>  <Energy>  (51) 
123.2399880190943

>  <Genealogy>  (51) 
C=c1c(=Cc2[n-]c(=O)[n-]c2[O-])cc(C)n1-c1cccc(C(=O)[N-]c2ccc([O-])cc2)c1 (protonated)
C=c1/c(=C/c2[n-]c(=O)[n-]c2[O-])cc(C)n1-c1cccc(C(=O)[N-]c2ccc([O-])cc2)c1 (cis-trans isomerization)
C=c1/c(=C/c2[n-]c(=O)[n-]c2[O-])cc(C)n1-c1cccc(C(=O)[N-]c2ccc([O-])cc2)c1 (3D coordinates assigned)
C=c1/c(=C/c2[n-]c(=O)[n-]c2[O-])cc(C)n1-c1cccc(C(=O)[N-]c2ccc([O-])cc2)c1 (optimized conformer: 123.2399880190943 kcal/mol)

>  <smiles>  (51) 
C=c1c(=Cc2[nH]c(=O)[nH]c2O)cc(C)n1-c1cccc(C(=O)Nc2ccc(O)cc2)c1

>  <score_type>  (51) 
oracle

>  <origin>  (51) 
adg

>  <m_score__min__energy>  (51) 
-19.539999999999999

>  <m_primary>  (51) 
energy

$$$$
51:0
     RDKit          3D

 49 51  0  0  0  0  0  0  0  0999 V2000
   57.7150   26.5810   46.3180 C   0  0  0  0  0  0  0  0  0  0  0  0
   58.4410   27.6740   47.0910 C   0  0  0  0  0  0  0  0  0  0  0  0
   59.7940   27.7570   46.6540 O   0  0  0  0  0  0  0  0  0  0  0  0
   60.2310   28.7160   45.7350 C   0  0  0  0  0  0  0  0  0  0  0  0
   61.1400   28.4200   44.9120 O   0  0  0  0  0  0  0  0  0  0  0  0
   59.6360   30.0760   45.7230 C   0  0  0  0  0  0  0  0  0  0  0  0
   58.4530   30.4400   45.0780 C   0  0  0  0  0  0  0  0  0  0  0  0
   57.5700   29.6020   44.1970 C   0  0  0  0  0  0  0  0  0  0  0  0
   56.1460   29.7000   44.6460 C   0  0  0  0  0  0  0  0  0  0  0  0
   55.5110   30.7800   44.5200 O   0  0  0  0  0  0  0  0  0  0  0  0
   55.5240   28.6000   45.2240 O   0  0  0  0  0  0  0  0  0  0  0  0
   58.2720   31.7910   45.2950 C   0  0  0  0  0  0  0  0  0  0  0  0
   59.3260   32.2010   46.0790 C   0  0  0  0  0  0  0  0  0  0  0  0
   59.5520   33.8910   46.6450 S   0  0  0  0  0  0  0  0  0  0  0  0
   59.2840   33.4490   48.3630 C   0  0  0  0  0  0  0  0  0  0  0  0
   58.3630   32.4490   48.7000 C   0  0  0  0  0  0  0  0  0  0  0  0
   58.1470   32.1180   50.0410 C   0  0  0  0  0  0  0  0  0  0  0  0
   58.8550   32.7820   51.0510 C   0  0  0  0  0  0  0  0  0  0  0  0
   58.5820   32.3670   52.7320 Cl  0  0  0  0  0  0  0  0  0  0  0  0
   59.7820   33.7740   50.7150 C   0  0  0  0  0  0  0  0  0  0  0  0
   60.0010   34.1040   49.3730 C   0  0  0  0  0  0  0  0  0  0  0  0
   60.1620   31.1680   46.3400 N   0  0  0  0  0  0  0  0  0  0  0  0
   61.4140   31.2540   47.1070 C   0  0  0  0  0  0  0  0  0  0  0  0
   61.2510   30.7590   48.5250 C   0  0  0  0  0  0  0  0  0  0  0  0
   62.1060   31.2550   49.5240 C   0  0  0  0  0  0  0  0  0  0  0  0
   62.0060   30.7910   50.8390 C   0  0  0  0  0  0  0  0  0  0  0  0
   61.0660   29.8120   51.1700 C   0  0  0  0  0  0  0  0  0  0  0  0
   60.9740   29.3620   52.4860 O   0  0  0  0  0  0  0  0  0  0  0  0
   60.2290   29.2890   50.1760 C   0  0  0  0  0  0  0  0  0  0  0  0
   60.3290   29.7490   48.8590 C   0  0  0  0  0  0  0  0  0  0  0  0
   57.2489   25.8794   47.0255 H   0  0  0  0  0  0  0  0  0  0  0  0
   56.9377   27.0340   45.6851 H   0  0  0  0  0  0  0  0  0  0  0  0
   58.4340   26.0401   45.6851 H   0  0  0  0  0  0  0  0  0  0  0  0
   57.9411   28.6382   46.9165 H   0  0  0  0  0  0  0  0  0  0  0  0
   58.4202   27.4345   48.1644 H   0  0  0  0  0  0  0  0  0  0  0  0
   57.6488   29.9589   43.1595 H   0  0  0  0  0  0  0  0  0  0  0  0
   57.8938   28.5526   44.2600 H   0  0  0  0  0  0  0  0  0  0  0  0
   57.4493   32.4155   44.9167 H   0  0  0  0  0  0  0  0  0  0  0  0
   57.8089   31.9233   47.9084 H   0  0  0  0  0  0  0  0  0  0  0  0
   57.4201   31.3351   50.3033 H   0  0  0  0  0  0  0  0  0  0  0  0
   60.3397   34.2955   51.5069 H   0  0  0  0  0  0  0  0  0  0  0  0
   60.7368   34.8784   49.1106 H   0  0  0  0  0  0  0  0  0  0  0  0
   62.1794   30.6441   46.6049 H   0  0  0  0  0  0  0  0  0  0  0  0
   61.7103   32.3124   47.1513 H   0  0  0  0  0  0  0  0  0  0  0  0
   62.8599   32.0144   49.2692 H   0  0  0  0  0  0  0  0  0  0  0  0
   62.6699   31.1982   51.6158 H   0  0  0  0  0  0  0  0  0  0  0  0
   61.4040   29.8690   53.2510 H   0  0  0  0  0  0  0  0  0  0  0  0
   59.4911   28.5144   50.4319 H   0  0  0  0  0  0  0  0  0  0  0  0
   59.6832   29.3189   48.0793 H   0  0  0  0  0  0  0  0  0  0  0  0
  1  2  1  0
  2  3  1  0
  3  4  1  0
  4  5  2  0
  4  6  1  0
  6  7  2  0
  7  8  1  0
  8  9  1  0
  9 10  2  0
  9 11  1  0
  7 12  1  0
 12 13  2  0
 13 14  1  0
 14 15  1  0
 15 16  2  0
 16 17  1  0
 17 18  2  0
 18 19  1  0
 18 20  1  0
 20 21  2  0
 13 22  1  0
 22 23  1  0
 23 24  1  0
 24 25  2  0
 25 26  1  0
 26 27  2  0
 27 28  1  0
 27 29  1  0
 29 30  2  0
 22  6  1  0
 30 24  1  0
 21 15  1  0
  1 31  1  0
  1 32  1  0
  1 33  1  0
  2 34  1  0
  2 35  1  0
  8 36  1  0
  8 37  1  0
 12 38  1  0
 16 39  1  0
 17 40  1  0
 20 41  1  0
 21 42  1  0
 23 43  1  0
 23 44  1  0
 25 45  1  0
 26 46  1  0
 28 47  1  0
 29 48  1  0
 30 49  1  0
M  CHG  1  11  -1
M  END
>  <UniqueID>  (52) 
46

>  <SMILES>  (52) 
CCOC(=O)c1c(CC(=O)[O-])cc(Sc2ccc(Cl)cc2)n1Cc1ccc(O)cc1

>  <Energy>  (52) 
66.85314512312434

>  <Genealogy>  (52) 
CCOC(=O)c1c(CC(=O)[O-])cc(Sc2ccc(Cl)cc2)n1Cc1ccc(O)cc1 (protonated)
CCOC(=O)c1c(CC(=O)[O-])cc(Sc2ccc(Cl)cc2)n1Cc1ccc(O)cc1 (3D coordinates assigned)
CCOC(=O)c1c(CC(=O)[O-])cc(Sc2ccc(Cl)cc2)n1Cc1ccc(O)cc1 (optimized conformer: 66.85314512312434 kcal/mol)

>  <smiles>  (52) 
CCOC(=O)c1c(CC(=O)O)cc(Sc2ccc(Cl)cc2)n1Cc1ccc(O)cc1

>  <score_type>  (52) 
oracle

>  <origin>  (52) 
adg

>  <m_score__min__energy>  (52) 
-10.720000000000001

>  <m_primary>  (52) 
energy

$$$$
52:0
     RDKit          3D

 53 56  0  0  0  0  0  0  0  0999 V2000
   54.7640   26.3360   45.8040 O   0  0  0  0  0  0  0  0  0  0  0  0
   55.9500   26.2090   46.2130 C   0  0  0  0  0  0  0  0  0  0  0  0
   56.6940   27.3690   46.6100 N   0  0  0  0  0  0  0  0  0  0  0  0
   57.8680   27.8980   45.9700 C   0  0  0  0  0  0  0  0  0  0  0  0
   59.1370   27.3360   46.2030 C   0  0  0  0  0  0  0  0  0  0  0  0
   60.2670   27.8500   45.5640 C   0  0  0  0  0  0  0  0  0  0  0  0
   60.1480   28.9370   44.6990 C   0  0  0  0  0  0  0  0  0  0  0  0
   58.9000   29.5210   44.4790 C   0  0  0  0  0  0  0  0  0  0  0  0
   57.7520   29.0170   45.1140 C   0  0  0  0  0  0  0  0  0  0  0  0
   56.4420   29.6700   44.8740 C   0  0  0  0  0  0  0  0  0  0  0  0
   55.4010   28.9660   44.7900 O   0  0  0  0  0  0  0  0  0  0  0  0
   56.3130   31.0970   44.8080 N   0  0  0  0  0  0  0  0  0  0  0  0
   57.3520   32.0500   45.0700 C   0  0  0  0  0  0  0  0  0  0  0  0
   57.9050   32.8380   44.0450 C   0  0  0  0  0  0  0  0  0  0  0  0
   58.9030   33.7710   44.3370 C   0  0  0  0  0  0  0  0  0  0  0  0
   59.3450   33.9370   45.6520 C   0  0  0  0  0  0  0  0  0  0  0  0
   58.7800   33.1780   46.6870 C   0  0  0  0  0  0  0  0  0  0  0  0
   59.3210   33.4010   48.3510 S   0  0  0  0  0  0  0  0  0  0  0  0
   59.3330   34.8710   48.6640 O   0  0  0  0  0  0  0  0  0  0  0  0
   58.3390   32.7430   49.2820 O   0  0  0  0  0  0  0  0  0  0  0  0
   60.9170   32.7360   48.6370 N   0  0  0  0  0  0  0  0  0  0  0  0
   60.9060   31.6470   49.6300 C   0  0  0  0  0  0  0  0  0  0  0  0
   60.4960   30.2820   49.0270 C   0  0  0  0  0  0  0  0  0  0  0  0
   60.4640   30.2790   47.6130 O   0  0  0  0  0  0  0  0  0  0  0  0
   61.6350   30.8770   47.1070 C   0  0  0  0  0  0  0  0  0  0  0  0
   61.6270   32.3880   47.3870 C   0  0  0  0  0  0  0  0  0  0  0  0
   57.7850   32.2350   46.3890 C   0  0  0  0  0  0  0  0  0  0  0  0
   56.5260   24.8510   46.3750 C   0  0  0  0  0  0  0  0  0  0  0  0
   56.3790   24.1960   47.6120 C   0  0  0  0  0  0  0  0  0  0  0  0
   56.9230   22.9250   47.7980 C   0  0  0  0  0  0  0  0  0  0  0  0
   57.5920   22.3150   46.7870 N   0  0  0  0  0  0  0  0  0  0  0  0
   57.7460   22.9080   45.5750 C   0  0  0  0  0  0  0  0  0  0  0  0
   57.2160   24.1820   45.3350 C   0  0  0  0  0  0  0  0  0  0  0  0
   57.3870   24.8420   43.7110 Cl  0  0  0  0  0  0  0  0  0  0  0  0
   59.2394   26.4858   46.8934 H   0  0  0  0  0  0  0  0  0  0  0  0
   61.2530   27.3965   45.7433 H   0  0  0  0  0  0  0  0  0  0  0  0
   61.0384   29.3344   44.1898 H   0  0  0  0  0  0  0  0  0  0  0  0
   58.8139   30.3839   43.8023 H   0  0  0  0  0  0  0  0  0  0  0  0
   57.5508   32.7195   43.0104 H   0  0  0  0  0  0  0  0  0  0  0  0
   59.3417   34.3762   43.5300 H   0  0  0  0  0  0  0  0  0  0  0  0
   60.1385   34.6652   45.8761 H   0  0  0  0  0  0  0  0  0  0  0  0
   61.9151   31.5523   50.0574 H   0  0  0  0  0  0  0  0  0  0  0  0
   60.1586   31.9066   50.3943 H   0  0  0  0  0  0  0  0  0  0  0  0
   61.2181   29.5224   49.3610 H   0  0  0  0  0  0  0  0  0  0  0  0
   59.4750   30.0669   49.3752 H   0  0  0  0  0  0  0  0  0  0  0  0
   62.5123   30.4231   47.5909 H   0  0  0  0  0  0  0  0  0  0  0  0
   61.6780   30.7151   46.0198 H   0  0  0  0  0  0  0  0  0  0  0  0
   62.6674   32.7364   47.4652 H   0  0  0  0  0  0  0  0  0  0  0  0
   61.0945   32.8756   46.5571 H   0  0  0  0  0  0  0  0  0  0  0  0
   57.3413   31.6360   47.1979 H   0  0  0  0  0  0  0  0  0  0  0  0
   55.8349   24.6865   48.4325 H   0  0  0  0  0  0  0  0  0  0  0  0
   56.8094   22.4159   48.7665 H   0  0  0  0  0  0  0  0  0  0  0  0
   58.2909   22.3839   44.7760 H   0  0  0  0  0  0  0  0  0  0  0  0
  1  2  2  0
  2  3  1  0
  3  4  1  0
  4  5  2  0
  5  6  1  0
  6  7  2  0
  7  8  1  0
  8  9  2  0
  9 10  1  0
 10 11  2  0
 10 12  1  0
 12 13  1  0
 13 14  2  0
 14 15  1  0
 15 16  2  0
 16 17  1  0
 17 18  1  0
 18 19  2  0
 18 20  2  0
 18 21  1  0
 21 22  1  0
 22 23  1  0
 23 24  1  0
 24 25  1  0
 25 26  1  0
 17 27  2  0
  2 28  1  0
 28 29  2  0
 29 30  1  0
 30 31  2  0
 31 32  1  0
 32 33  2  0
 33 34  1  0
  9  4  1  0
 27 13  1  0
 33 28  1  0
 26 21  1  0
  5 35  1  0
  6 36  1  0
  7 37  1  0
  8 38  1  0
 14 39  1  0
 15 40  1  0
 16 41  1  0
 22 42  1  0
 22 43  1  0
 23 44  1  0
 23 45  1  0
 25 46  1  0
 25 47  1  0
 26 48  1  0
 26 49  1  0
 27 50  1  0
 29 51  1  0
 30 52  1  0
 32 53  1  0
M  CHG  2   3  -1  12  -1
M  END
>  <UniqueID>  (53) 
47

>  <SMILES>  (53) 
O=C([N-]c1ccccc1C(=O)[N-]c1cccc(S(=O)(=O)N2CCOCC2)c1)c1ccncc1Cl

>  <Energy>  (53) 
84.63409478254516

>  <Genealogy>  (53) 
O=C([N-]c1ccccc1C(=O)[N-]c1cccc(S(=O)(=O)N2CCOCC2)c1)c1ccncc1Cl (protonated)
O=C([N-]c1ccccc1C(=O)[N-]c1cccc(S(=O)(=O)N2CCOCC2)c1)c1ccncc1Cl (3D coordinates assigned)
O=C([N-]c1ccccc1C(=O)[N-]c1cccc(S(=O)(=O)N2CCOCC2)c1)c1ccncc1Cl (nonaromatic ring conformer: 84.63409478254516 kcal/mol)

>  <smiles>  (53) 
O=C(Nc1ccccc1C(=O)Nc1cccc(S(=O)(=O)N2CCOCC2)c1)c1ccncc1Cl

>  <score_type>  (53) 
oracle

>  <origin>  (53) 
adg

>  <m_score__min__energy>  (53) 
-14.130000000000001

>  <m_primary>  (53) 
energy

$$$$
53:0
     RDKit          3D

 58 61  0  0  0  0  0  0  0  0999 V2000
   59.5837   34.6253   43.8532 H   0  0  0  0  0  0  0  0  0  0  0  0
   59.0040   33.9610   44.5110 C   0  0  0  0  0  0  0  0  0  0  0  0
   58.1130   33.0520   44.0340 N   0  0  0  0  0  0  0  0  0  0  0  0
   57.5130   32.3720   45.0370 C   0  0  0  0  0  0  0  0  0  0  0  0
   56.6460   31.4200   44.8610 N   0  0  0  0  0  0  0  0  0  0  0  0
   56.9340   30.0160   44.8040 C   0  0  0  0  0  0  0  0  0  0  0  0
   56.2980   29.3070   43.9800 O   0  0  0  0  0  0  0  0  0  0  0  0
   57.9520   29.4290   45.6380 N   0  0  0  0  0  0  0  0  0  0  0  0
   58.4610   30.0370   46.3170 H   0  0  0  0  0  0  0  0  0  0  0  0
   58.2790   28.0290   45.6420 C   0  0  0  0  0  0  0  0  0  0  0  0
   59.5350   27.5690   46.0720 C   0  0  0  0  0  0  0  0  0  0  0  0
   60.3002   28.2897   46.3961 H   0  0  0  0  0  0  0  0  0  0  0  0
   59.8170   26.2000   46.0900 C   0  0  0  0  0  0  0  0  0  0  0  0
   60.8111   25.8514   46.4067 H   0  0  0  0  0  0  0  0  0  0  0  0
   58.8410   25.2670   45.7070 C   0  0  0  0  0  0  0  0  0  0  0  0
   59.1520   23.8220   45.7230 C   0  0  0  0  0  0  0  0  0  0  0  0
   60.3490   23.4550   45.5660 O   0  0  0  0  0  0  0  0  0  0  0  0
   58.1260   22.8280   45.9380 N   0  0  0  0  0  0  0  0  0  0  0  0
   58.1910   21.5500   45.2000 C   0  0  0  0  0  0  0  0  0  0  0  0
   59.2416   21.2270   45.1562 H   0  0  0  0  0  0  0  0  0  0  0  0
   57.5547   20.8334   45.7400 H   0  0  0  0  0  0  0  0  0  0  0  0
   57.6470   21.6400   43.7560 C   0  0  0  0  0  0  0  0  0  0  0  0
   58.2737   22.3509   43.1976 H   0  0  0  0  0  0  0  0  0  0  0  0
   57.6806   20.6192   43.3475 H   0  0  0  0  0  0  0  0  0  0  0  0
   56.2350   22.0870   43.6510 N   0  0  0  0  0  0  0  0  0  0  0  0
   56.1490   23.4390   43.0730 C   0  0  0  0  0  0  0  0  0  0  0  0
   56.1018   24.1817   43.8830 H   0  0  0  0  0  0  0  0  0  0  0  0
   57.0368   23.6295   42.4522 H   0  0  0  0  0  0  0  0  0  0  0  0
   55.2442   23.5155   42.4522 H   0  0  0  0  0  0  0  0  0  0  0  0
   55.4500   22.0210   44.9050 C   0  0  0  0  0  0  0  0  0  0  0  0
   54.3828   21.9561   44.6462 H   0  0  0  0  0  0  0  0  0  0  0  0
   55.7955   21.1366   45.4603 H   0  0  0  0  0  0  0  0  0  0  0  0
   55.6590   23.2460   45.8190 C   0  0  0  0  0  0  0  0  0  0  0  0
   55.7243   24.1399   45.1813 H   0  0  0  0  0  0  0  0  0  0  0  0
   54.8032   23.2627   46.5098 H   0  0  0  0  0  0  0  0  0  0  0  0
   56.9250   23.1950   46.7030 C   0  0  0  0  0  0  0  0  0  0  0  0
   57.0819   24.1861   47.1536 H   0  0  0  0  0  0  0  0  0  0  0  0
   56.7675   22.4243   47.4719 H   0  0  0  0  0  0  0  0  0  0  0  0
   57.5830   25.7270   45.2850 C   0  0  0  0  0  0  0  0  0  0  0  0
   56.8154   25.0061   44.9669 H   0  0  0  0  0  0  0  0  0  0  0  0
   57.3010   27.0960   45.2670 C   0  0  0  0  0  0  0  0  0  0  0  0
   56.3048   27.4442   44.9565 H   0  0  0  0  0  0  0  0  0  0  0  0
   58.0710   32.8460   46.5490 S   0  0  0  0  0  0  0  0  0  0  0  0
   59.1250   33.9850   45.8970 C   0  0  0  0  0  0  0  0  0  0  0  0
   59.9980   34.9120   46.6840 C   0  0  0  0  0  0  0  0  0  0  0  0
   60.8689   35.1949   46.0745 H   0  0  0  0  0  0  0  0  0  0  0  0
   59.4181   35.8074   46.9522 H   0  0  0  0  0  0  0  0  0  0  0  0
   60.4730   34.2390   47.9480 C   0  0  0  0  0  0  0  0  0  0  0  0
   59.5770   34.1080   49.0260 C   0  0  0  0  0  0  0  0  0  0  0  0
   58.5590   34.5160   48.9414 H   0  0  0  0  0  0  0  0  0  0  0  0
   59.9690   33.4650   50.2010 C   0  0  0  0  0  0  0  0  0  0  0  0
   59.2615   33.3718   51.0381 H   0  0  0  0  0  0  0  0  0  0  0  0
   61.2570   32.9400   50.3160 C   0  0  0  0  0  0  0  0  0  0  0  0
   61.5654   32.4380   51.2449 H   0  0  0  0  0  0  0  0  0  0  0  0
   62.1540   33.0520   49.2520 C   0  0  0  0  0  0  0  0  0  0  0  0
   63.1669   32.6334   49.3453 H   0  0  0  0  0  0  0  0  0  0  0  0
   61.7730   33.6940   48.0660 C   0  0  0  0  0  0  0  0  0  0  0  0
   63.0660   33.7970   46.6520 Br  0  0  0  0  0  0  0  0  0  0  0  0
  1  2  1  0
  2  3  1  0
  3  4  1  0
  4  5  2  0
  5  6  1  0
  6  7  2  0
  6  8  1  0
  8  9  1  0
  8 10  1  0
 10 11  2  0
 11 12  1  0
 11 13  1  0
 13 14  1  0
 13 15  2  0
 15 16  1  0
 16 17  2  0
 16 18  1  0
 18 19  1  0
 19 20  1  0
 19 21  1  0
 19 22  1  0
 22 23  1  0
 22 24  1  0
 22 25  1  0
 25 26  1  0
 26 27  1  0
 26 28  1  0
 26 29  1  0
 25 30  1  0
 30 31  1  0
 30 32  1  0
 30 33  1  0
 33 34  1  0
 33 35  1  0
 33 36  1  0
 36 37  1  0
 36 38  1  0
 15 39  1  0
 39 40  1  0
 39 41  2  0
 41 42  1  0
  4 43  1  0
 43 44  1  0
 44 45  1  0
 45 46  1  0
 45 47  1  0
 45 48  1  0
 48 49  2  0
 49 50  1  0
 49 51  1  0
 51 52  1  0
 51 53  2  0
 53 54  1  0
 53 55  1  0
 55 56  1  0
 55 57  2  0
 57 58  1  0
 44  2  2  0
 57 48  1  0
 41 10  1  0
 36 18  1  0
M  CHG  1   3  -1
M  END
>  <UniqueID>  (54) 
48

>  <SMILES>  (54) 
CN1CCCN(C(=O)c2ccc(NC(=O)/N=c3\[n-]cc(Cc4ccccc4Br)s3)cc2)CC1

>  <Energy>  (54) 
116.35348987616614

>  <Genealogy>  (54) 
CN1CCCN(C(=O)c2ccc(NC(=O)N=c3[n-]cc(Cc4ccccc4Br)s3)cc2)CC1 (protonated)
CN1CCCN(C(=O)c2ccc(NC(=O)/N=c3\[n-]cc(Cc4ccccc4Br)s3)cc2)CC1 (cis-trans isomerization)
CN1CCCN(C(=O)c2ccc(NC(=O)/N=c3\[n-]cc(Cc4ccccc4Br)s3)cc2)CC1 (3D coordinates assigned)
CN1CCCN(C(=O)c2ccc(NC(=O)/N=c3\[n-]cc(Cc4ccccc4Br)s3)cc2)CC1 (nonaromatic ring conformer: 116.35348987616614 kcal/mol)

>  <smiles>  (54) 
CN1CCCN(C(=O)c2ccc(NC(=O)N=c3[nH]cc(Cc4ccccc4Br)s3)cc2)CC1

>  <score_type>  (54) 
oracle

>  <origin>  (54) 
adg

>  <m_score__min__energy>  (54) 
-9.3399999999999999

>  <m_primary>  (54) 
energy

$$$$
54:0
     RDKit          3D

 49 52  0  0  0  0  0  0  0  0999 V2000
   59.6500   29.3180   45.0200 C   0  0  0  0  0  0  0  0  0  0  0  0
   59.6080   28.9560   46.3120 C   0  0  0  0  0  0  0  0  0  0  0  0
   59.2870   27.6900   46.8270 C   0  0  0  0  0  0  0  0  0  0  0  0
   58.7480   26.6060   46.2380 C   0  0  0  0  0  0  0  0  0  0  0  0
   57.3250   26.2330   46.2750 C   0  0  0  0  0  0  0  0  0  0  0  0
   56.8720   24.9810   46.4780 N   0  0  0  0  0  0  0  0  0  0  0  0
   55.5400   25.0970   46.2900 C   0  0  0  0  0  0  0  0  0  0  0  0
   54.7520   24.1230   46.4090 O   0  0  0  0  0  0  0  0  0  0  0  0
   55.1190   26.3350   45.9570 N   0  0  0  0  0  0  0  0  0  0  0  0
   56.2620   27.0420   45.9380 C   0  0  0  0  0  0  0  0  0  0  0  0
   56.3220   28.3950   45.6190 O   0  0  0  0  0  0  0  0  0  0  0  0
   59.6200   27.7260   48.1710 C   0  0  0  0  0  0  0  0  0  0  0  0
   60.0560   29.0060   48.4460 C   0  0  0  0  0  0  0  0  0  0  0  0
   60.4750   29.4670   49.7850 C   0  0  0  0  0  0  0  0  0  0  0  0
   61.6480   29.8870   49.9780 O   0  0  0  0  0  0  0  0  0  0  0  0
   59.5520   29.4450   50.8370 O   0  0  0  0  0  0  0  0  0  0  0  0
   58.3220   30.1660   50.8130 C   0  0  0  0  0  0  0  0  0  0  0  0
   58.5430   31.5900   51.2440 C   0  0  0  0  0  0  0  0  0  0  0  0
   59.3670   32.4340   50.4790 C   0  0  0  0  0  0  0  0  0  0  0  0
   59.5530   33.7670   50.8570 C   0  0  0  0  0  0  0  0  0  0  0  0
   58.9150   34.2680   51.9960 C   0  0  0  0  0  0  0  0  0  0  0  0
   58.0900   33.4370   52.7580 C   0  0  0  0  0  0  0  0  0  0  0  0
   57.9020   32.1030   52.3850 C   0  0  0  0  0  0  0  0  0  0  0  0
   60.0350   29.7570   47.3210 N   0  0  0  0  0  0  0  0  0  0  0  0
   60.5390   31.0990   47.1890 C   0  0  0  0  0  0  0  0  0  0  0  0
   61.9240   31.3080   47.2860 C   0  0  0  0  0  0  0  0  0  0  0  0
   62.4610   32.5840   47.1250 C   0  0  0  0  0  0  0  0  0  0  0  0
   61.6220   33.6660   46.8610 C   0  0  0  0  0  0  0  0  0  0  0  0
   60.2410   33.4740   46.7640 C   0  0  0  0  0  0  0  0  0  0  0  0
   59.6770   32.1960   46.9320 C   0  0  0  0  0  0  0  0  0  0  0  0
   58.2010   32.0470   46.8490 C   0  0  0  0  0  0  0  0  0  0  0  0
   57.4320   32.7980   47.5060 O   0  0  0  0  0  0  0  0  0  0  0  0
   57.6410   31.0830   46.0180 O   0  0  0  0  0  0  0  0  0  0  0  0
   59.9178   30.3492   44.7462 H   0  0  0  0  0  0  0  0  0  0  0  0
   59.4166   28.5835   44.2351 H   0  0  0  0  0  0  0  0  0  0  0  0
   59.4283   25.9437   45.6826 H   0  0  0  0  0  0  0  0  0  0  0  0
   56.8930   29.0390   46.1520 H   0  0  0  0  0  0  0  0  0  0  0  0
   59.5501   26.8917   48.8845 H   0  0  0  0  0  0  0  0  0  0  0  0
   57.9149   30.1552   49.7911 H   0  0  0  0  0  0  0  0  0  0  0  0
   57.6137   29.6883   51.5059 H   0  0  0  0  0  0  0  0  0  0  0  0
   59.8670   32.0442   49.5801 H   0  0  0  0  0  0  0  0  0  0  0  0
   60.2020   34.4225   50.2577 H   0  0  0  0  0  0  0  0  0  0  0  0
   59.0628   35.3170   52.2922 H   0  0  0  0  0  0  0  0  0  0  0  0
   57.5876   33.8331   53.6528 H   0  0  0  0  0  0  0  0  0  0  0  0
   57.2501   31.4524   52.9865 H   0  0  0  0  0  0  0  0  0  0  0  0
   62.5909   30.4575   47.4908 H   0  0  0  0  0  0  0  0  0  0  0  0
   63.5472   32.7376   47.2062 H   0  0  0  0  0  0  0  0  0  0  0  0
   62.0475   34.6717   46.7289 H   0  0  0  0  0  0  0  0  0  0  0  0
   59.5868   34.3329   46.5537 H   0  0  0  0  0  0  0  0  0  0  0  0
  1  2  2  0
  2  3  1  0
  3  4  2  3
  4  5  1  0
  5  6  1  0
  6  7  1  0
  7  8  2  0
  7  9  1  0
  9 10  1  0
 10 11  1  0
  3 12  1  0
 12 13  2  0
 13 14  1  0
 14 15  2  0
 14 16  1  0
 16 17  1  0
 17 18  1  0
 18 19  2  0
 19 20  1  0
 20 21  2  0
 21 22  1  0
 22 23  2  0
 13 24  1  0
 24 25  1  0
 25 26  2  0
 26 27  1  0
 27 28  2  0
 28 29  1  0
 29 30  2  0
 30 31  1  0
 31 32  2  0
 31 33  1  0
 24  2  1  0
 30 25  1  0
 10  5  2  0
 23 18  1  0
  1 34  1  0
  1 35  1  0
  4 36  1  0
 11 37  1  0
 12 38  1  0
 17 39  1  0
 17 40  1  0
 19 41  1  0
 20 42  1  0
 21 43  1  0
 22 44  1  0
 23 45  1  0
 26 46  1  0
 27 47  1  0
 28 48  1  0
 29 49  1  0
M  CHG  3   6  -1   9  -1  33  -1
M  END
>  <UniqueID>  (55) 
49

>  <SMILES>  (55) 
C=c1c(=Cc2[n-]c(=O)[n-]c2O)cc(C(=O)OCc2ccccc2)n1-c1ccccc1C(=O)[O-]

>  <Energy>  (55) 
129.91464591888823

>  <Genealogy>  (55) 
C=c1c(=Cc2[n-]c(=O)[n-]c2O)cc(C(=O)OCc2ccccc2)n1-c1ccccc1C(=O)[O-] (protonated)
C=c1c(=Cc2[n-]c(=O)[n-]c2O)cc(C(=O)OCc2ccccc2)n1-c1ccccc1C(=O)[O-] (3D coordinates assigned)
C=c1c(=Cc2[n-]c(=O)[n-]c2O)cc(C(=O)OCc2ccccc2)n1-c1ccccc1C(=O)[O-] (optimized conformer: 129.91464591888823 kcal/mol)

>  <smiles>  (55) 
C=c1c(=Cc2[nH]c(=O)[nH]c2O)cc(C(=O)OCc2ccccc2)n1-c1ccccc1C(=O)O

>  <score_type>  (55) 
oracle

>  <origin>  (55) 
adg

>  <m_score__min__energy>  (55) 
-14.470000000000001

>  <m_primary>  (55) 
energy

$$$$
55:0
     RDKit          3D

 55 59  0  0  0  0  0  0  0  0999 V2000
   58.9610   27.7030   47.1550 C   0  0  0  0  0  0  0  0  0  0  0  0
   58.6300   28.1660   45.9390 C   0  0  0  0  0  0  0  0  0  0  0  0
   58.0140   27.4500   44.8990 C   0  0  0  0  0  0  0  0  0  0  0  0
   57.7870   26.1310   44.7480 C   0  0  0  0  0  0  0  0  0  0  0  0
   57.1610   25.2490   45.7440 C   0  0  0  0  0  0  0  0  0  0  0  0
   57.8160   24.2590   46.3750 N   0  0  0  0  0  0  0  0  0  0  0  0
   56.9110   23.8060   47.2700 C   0  0  0  0  0  0  0  0  0  0  0  0
   57.1510   22.8500   48.0530 O   0  0  0  0  0  0  0  0  0  0  0  0
   55.7330   24.4670   47.2700 N   0  0  0  0  0  0  0  0  0  0  0  0
   55.9130   25.3880   46.3080 C   0  0  0  0  0  0  0  0  0  0  0  0
   54.9680   26.3510   45.9690 O   0  0  0  0  0  0  0  0  0  0  0  0
   57.6480   28.3880   43.9480 C   0  0  0  0  0  0  0  0  0  0  0  0
   58.1060   29.6100   44.3920 C   0  0  0  0  0  0  0  0  0  0  0  0
   57.9400   30.9020   43.6490 C   0  0  0  0  0  0  0  0  0  0  0  0
   58.7020   29.4790   45.5990 N   0  0  0  0  0  0  0  0  0  0  0  0
   59.2750   30.5470   46.3750 C   0  0  0  0  0  0  0  0  0  0  0  0
   58.5330   31.7080   46.6300 C   0  0  0  0  0  0  0  0  0  0  0  0
   59.0860   32.7460   47.3840 C   0  0  0  0  0  0  0  0  0  0  0  0
   60.3930   32.6430   47.8890 C   0  0  0  0  0  0  0  0  0  0  0  0
   60.9800   33.7400   48.6950 C   0  0  0  0  0  0  0  0  0  0  0  0
   60.5520   34.9180   48.5500 O   0  0  0  0  0  0  0  0  0  0  0  0
   62.0430   33.4860   49.6280 N   0  0  0  0  0  0  0  0  0  0  0  0
   61.7580   33.4600   51.0630 C   0  0  0  0  0  0  0  0  0  0  0  0
   62.8790   34.1740   51.8140 C   0  0  0  0  0  0  0  0  0  0  0  0
   64.2430   33.7130   51.3630 C   0  0  0  0  0  0  0  0  0  0  0  0
   65.3510   33.9410   52.1950 C   0  0  0  0  0  0  0  0  0  0  0  0
   66.6340   33.5800   51.7790 C   0  0  0  0  0  0  0  0  0  0  0  0
   66.8260   33.0000   50.5240 C   0  0  0  0  0  0  0  0  0  0  0  0
   65.7360   32.7810   49.6790 C   0  0  0  0  0  0  0  0  0  0  0  0
   64.4410   33.1460   50.0810 C   0  0  0  0  0  0  0  0  0  0  0  0
   63.2820   32.8550   49.1590 C   0  0  0  0  0  0  0  0  0  0  0  0
   61.1290   31.4700   47.6430 C   0  0  0  0  0  0  0  0  0  0  0  0
   60.5750   30.4330   46.8880 C   0  0  0  0  0  0  0  0  0  0  0  0
   59.4427   28.3700   47.8851 H   0  0  0  0  0  0  0  0  0  0  0  0
   58.7505   26.6566   47.4211 H   0  0  0  0  0  0  0  0  0  0  0  0
   58.0969   25.6738   43.7967 H   0  0  0  0  0  0  0  0  0  0  0  0
   54.0490   26.3440   46.3940 H   0  0  0  0  0  0  0  0  0  0  0  0
   57.0968   28.1947   43.0159 H   0  0  0  0  0  0  0  0  0  0  0  0
   57.8339   31.7275   44.3682 H   0  0  0  0  0  0  0  0  0  0  0  0
   58.8230   31.0775   43.0169 H   0  0  0  0  0  0  0  0  0  0  0  0
   57.0413   30.8486   43.0169 H   0  0  0  0  0  0  0  0  0  0  0  0
   57.5108   31.8025   46.2348 H   0  0  0  0  0  0  0  0  0  0  0  0
   58.4935   33.6510   47.5838 H   0  0  0  0  0  0  0  0  0  0  0  0
   60.8029   33.9701   51.2571 H   0  0  0  0  0  0  0  0  0  0  0  0
   61.6911   32.4170   51.4062 H   0  0  0  0  0  0  0  0  0  0  0  0
   62.7929   35.2561   51.6361 H   0  0  0  0  0  0  0  0  0  0  0  0
   62.7764   33.9377   52.8834 H   0  0  0  0  0  0  0  0  0  0  0  0
   65.2072   34.4071   53.1810 H   0  0  0  0  0  0  0  0  0  0  0  0
   67.4950   33.7530   52.4414 H   0  0  0  0  0  0  0  0  0  0  0  0
   67.8378   32.7149   50.2000 H   0  0  0  0  0  0  0  0  0  0  0  0
   65.8928   32.3199   48.6927 H   0  0  0  0  0  0  0  0  0  0  0  0
   63.5197   33.2385   48.1558 H   0  0  0  0  0  0  0  0  0  0  0  0
   63.1256   31.7664   49.1383 H   0  0  0  0  0  0  0  0  0  0  0  0
   62.1469   31.3684   48.0474 H   0  0  0  0  0  0  0  0  0  0  0  0
   61.1616   29.5227   46.6951 H   0  0  0  0  0  0  0  0  0  0  0  0
  1  2  2  0
  2  3  1  0
  3  4  2  3
  4  5  1  0
  5  6  1  0
  6  7  1  0
  7  8  2  0
  7  9  1  0
  9 10  1  0
 10 11  1  0
  3 12  1  0
 12 13  2  0
 13 14  1  0
 13 15  1  0
 15 16  1  0
 16 17  2  0
 17 18  1  0
 18 19  2  0
 19 20  1  0
 20 21  2  0
 20 22  1  0
 22 23  1  0
 23 24  1  0
 24 25  1  0
 25 26  2  0
 26 27  1  0
 27 28  2  0
 28 29  1  0
 29 30  2  0
 30 31  1  0
 19 32  1  0
 32 33  2  0
 15  2  1  0
 33 16  1  0
 10  5  2  0
 31 22  1  0
 30 25  1  0
  1 34  1  0
  1 35  1  0
  4 36  1  0
 11 37  1  0
 12 38  1  0
 14 39  1  0
 14 40  1  0
 14 41  1  0
 17 42  1  0
 18 43  1  0
 23 44  1  0
 23 45  1  0
 24 46  1  0
 24 47  1  0
 26 48  1  0
 27 49  1  0
 28 50  1  0
 29 51  1  0
 31 52  1  0
 31 53  1  0
 32 54  1  0
 33 55  1  0
M  CHG  2   6  -1   9  -1
M  END
>  <UniqueID>  (56) 
50

>  <SMILES>  (56) 
C=c1c(=Cc2[n-]c(=O)[n-]c2O)cc(C)n1-c1ccc(C(=O)N2CCc3ccccc3C2)cc1

>  <Energy>  (56) 
141.6587184337939

>  <Genealogy>  (56) 
C=c1c(=Cc2[n-]c(=O)[n-]c2O)cc(C)n1-c1ccc(C(=O)N2CCc3ccccc3C2)cc1 (protonated)
C=c1c(=Cc2[n-]c(=O)[n-]c2O)cc(C)n1-c1ccc(C(=O)N2CCc3ccccc3C2)cc1 (3D coordinates assigned)
C=c1c(=Cc2[n-]c(=O)[n-]c2O)cc(C)n1-c1ccc(C(=O)N2CCc3ccccc3C2)cc1 (nonaromatic ring conformer: 141.6587184337939 kcal/mol)

>  <smiles>  (56) 
C=c1c(=Cc2[nH]c(=O)[nH]c2O)cc(C)n1-c1ccc(C(=O)N2CCc3ccccc3C2)cc1

>  <score_type>  (56) 
oracle

>  <origin>  (56) 
adg

>  <m_score__min__energy>  (56) 
-14.6

>  <m_primary>  (56) 
energy

$$$$
56:0
     RDKit          3D

 51 54  0  0  0  0  0  0  0  0999 V2000
   54.5920   28.3450   52.8290 C   0  0  0  0  0  0  0  0  0  0  0  0
   55.0760   29.5790   52.6220 C   0  0  0  0  0  0  0  0  0  0  0  0
   54.3680   30.7070   52.1790 C   0  0  0  0  0  0  0  0  0  0  0  0
   53.1370   30.8230   51.6460 C   0  0  0  0  0  0  0  0  0  0  0  0
   52.0310   31.6130   52.2140 C   0  0  0  0  0  0  0  0  0  0  0  0
   51.6860   31.6260   53.5150 N   0  0  0  0  0  0  0  0  0  0  0  0
   50.5550   32.3650   53.5300 C   0  0  0  0  0  0  0  0  0  0  0  0
   49.9270   32.6210   54.5900 O   0  0  0  0  0  0  0  0  0  0  0  0
   50.1430   32.7970   52.3180 N   0  0  0  0  0  0  0  0  0  0  0  0
   51.0810   32.3000   51.4960 C   0  0  0  0  0  0  0  0  0  0  0  0
   51.0660   32.4630   50.1170 O   0  0  0  0  0  0  0  0  0  0  0  0
   55.2080   31.7930   52.3730 C   0  0  0  0  0  0  0  0  0  0  0  0
   56.4050   31.2940   52.8410 C   0  0  0  0  0  0  0  0  0  0  0  0
   57.5970   32.1250   53.2000 C   0  0  0  0  0  0  0  0  0  0  0  0
   56.3300   29.9520   52.9840 N   0  0  0  0  0  0  0  0  0  0  0  0
   57.3520   29.1140   53.5520 C   0  0  0  0  0  0  0  0  0  0  0  0
   57.1690   28.6150   54.8490 C   0  0  0  0  0  0  0  0  0  0  0  0
   58.0940   27.7360   55.4090 C   0  0  0  0  0  0  0  0  0  0  0  0
   59.2100   27.3280   54.6710 C   0  0  0  0  0  0  0  0  0  0  0  0
   60.1880   26.3890   55.2520 C   0  0  0  0  0  0  0  0  0  0  0  0
   61.1070   26.8650   55.9740 O   0  0  0  0  0  0  0  0  0  0  0  0
   60.1230   24.9540   55.0280 N   0  0  0  0  0  0  0  0  0  0  0  0
   58.8840   24.5460   54.3170 C   0  0  0  0  0  0  0  0  0  0  0  0
   59.1050   24.2970   52.8140 C   0  0  0  0  0  0  0  0  0  0  0  0
   60.1730   25.0770   52.3300 O   0  0  0  0  0  0  0  0  0  0  0  0
   61.3920   24.6010   52.8650 C   0  0  0  0  0  0  0  0  0  0  0  0
   61.3550   24.4200   54.4030 C   0  0  0  0  0  0  0  0  0  0  0  0
   59.4240   27.8520   53.3900 C   0  0  0  0  0  0  0  0  0  0  0  0
   58.5040   28.7470   52.8120 C   0  0  0  0  0  0  0  0  0  0  0  0
   58.7770   29.2860   51.4560 C   0  0  0  0  0  0  0  0  0  0  0  0
   57.8380   29.7560   50.7580 O   0  0  0  0  0  0  0  0  0  0  0  0
   60.0570   29.2560   50.9160 O   0  0  0  0  0  0  0  0  0  0  0  0
   55.2594   27.5441   53.1799 H   0  0  0  0  0  0  0  0  0  0  0  0
   53.5277   28.1341   52.6478 H   0  0  0  0  0  0  0  0  0  0  0  0
   52.9408   30.2827   50.7081 H   0  0  0  0  0  0  0  0  0  0  0  0
   54.9658   32.8501   52.1888 H   0  0  0  0  0  0  0  0  0  0  0  0
   57.6849   32.1863   54.2948 H   0  0  0  0  0  0  0  0  0  0  0  0
   58.5047   31.6629   52.7845 H   0  0  0  0  0  0  0  0  0  0  0  0
   57.4774   33.1365   52.7845 H   0  0  0  0  0  0  0  0  0  0  0  0
   56.2866   28.9202   55.4305 H   0  0  0  0  0  0  0  0  0  0  0  0
   57.9463   27.3624   56.4330 H   0  0  0  0  0  0  0  0  0  0  0  0
   60.0750   24.5130   55.9790 H   0  0  0  0  0  0  0  0  0  0  0  0
   58.5072   23.6190   54.7738 H   0  0  0  0  0  0  0  0  0  0  0  0
   58.1646   25.3729   54.4104 H   0  0  0  0  0  0  0  0  0  0  0  0
   59.3341   23.2330   52.6545 H   0  0  0  0  0  0  0  0  0  0  0  0
   58.1898   24.5768   52.2718 H   0  0  0  0  0  0  0  0  0  0  0  0
   61.6199   23.6286   52.4041 H   0  0  0  0  0  0  0  0  0  0  0  0
   62.1622   25.3544   52.6433 H   0  0  0  0  0  0  0  0  0  0  0  0
   61.4236   23.3458   54.6295 H   0  0  0  0  0  0  0  0  0  0  0  0
   62.2017   24.9869   54.8174 H   0  0  0  0  0  0  0  0  0  0  0  0
   60.3233   27.5602   52.8278 H   0  0  0  0  0  0  0  0  0  0  0  0
  1  2  2  0
  2  3  1  0
  3  4  2  3
  4  5  1  0
  5  6  1  0
  6  7  1  0
  7  8  2  0
  7  9  1  0
  9 10  1  0
 10 11  1  0
  3 12  1  0
 12 13  2  0
 13 14  1  0
 13 15  1  0
 15 16  1  0
 16 17  2  0
 17 18  1  0
 18 19  2  0
 19 20  1  0
 20 21  2  0
 20 22  1  0
 22 23  1  0
 23 24  1  0
 24 25  1  0
 25 26  1  0
 26 27  1  0
 19 28  1  0
 28 29  2  0
 29 30  1  0
 30 31  2  0
 30 32  1  0
 15  2  1  0
 29 16  1  0
 10  5  2  0
 27 22  1  0
  1 33  1  0
  1 34  1  0
  4 35  1  0
 12 36  1  0
 14 37  1  0
 14 38  1  0
 14 39  1  0
 17 40  1  0
 18 41  1  0
 22 42  1  0
 23 43  1  0
 23 44  1  0
 24 45  1  0
 24 46  1  0
 26 47  1  0
 26 48  1  0
 27 49  1  0
 27 50  1  0
 28 51  1  0
M  CHG  5   6  -1   9  -1  11  -1  22   1  32  -1
M  END
>  <UniqueID>  (57) 
51

>  <SMILES>  (57) 
C=c1c(=Cc2[n-]c(=O)[n-]c2[O-])cc(C)n1-c1ccc(C(=O)[NH+]2CCOCC2)cc1C(=O)[O-]

>  <Energy>  (57) 
153.30277347784352

>  <Genealogy>  (57) 
C=c1c(=Cc2[n-]c(=O)[n-]c2[O-])cc(C)n1-c1ccc(C(=O)[NH+]2CCOCC2)cc1C(=O)[O-] (protonated)
C=c1c(=Cc2[n-]c(=O)[n-]c2[O-])cc(C)n1-c1ccc(C(=O)[NH+]2CCOCC2)cc1C(=O)[O-] (3D coordinates assigned)
C=c1c(=Cc2[n-]c(=O)[n-]c2[O-])cc(C)n1-c1ccc(C(=O)[NH+]2CCOCC2)cc1C(=O)[O-] (nonaromatic ring conformer: 153.30277347784352 kcal/mol)

>  <smiles>  (57) 
C=c1c(=Cc2[nH]c(=O)[nH]c2O)cc(C)n1-c1ccc(C(=O)N2CCOCC2)cc1C(=O)O

>  <score_type>  (57) 
oracle

>  <origin>  (57) 
adg

>  <m_score__min__energy>  (57) 
-16.260000000000002

>  <m_primary>  (57) 
energy

$$$$
57:0
     RDKit          3D

 37 39  0  0  0  0  0  0  0  0999 V2000
   57.9930   33.2960   43.7390 O   0  0  0  0  0  0  0  0  0  0  0  0
   58.4910   33.1640   44.8890 C   0  0  0  0  0  0  0  0  0  0  0  0
   58.3850   34.2800   45.8810 C   0  0  0  0  0  0  0  0  0  0  0  0
   58.9470   33.8590   47.2040 C   0  0  0  0  0  0  0  0  0  0  0  0
   58.3250   33.0100   48.0510 N   0  0  0  0  0  0  0  0  0  0  0  0
   59.0080   32.8380   49.2170 C   0  0  0  0  0  0  0  0  0  0  0  0
   58.5030   31.9280   50.2750 C   0  0  0  0  0  0  0  0  0  0  0  0
   58.8530   30.5640   50.2550 C   0  0  0  0  0  0  0  0  0  0  0  0
   58.3920   29.6920   51.2460 C   0  0  0  0  0  0  0  0  0  0  0  0
   57.5830   30.1700   52.2730 C   0  0  0  0  0  0  0  0  0  0  0  0
   56.9600   28.9800   53.6290 Br  0  0  0  0  0  0  0  0  0  0  0  0
   57.2330   31.5230   52.3100 C   0  0  0  0  0  0  0  0  0  0  0  0
   57.6900   32.4000   51.3210 C   0  0  0  0  0  0  0  0  0  0  0  0
   60.1850   33.5890   49.3100 C   0  0  0  0  0  0  0  0  0  0  0  0
   60.3520   34.4740   47.8890 S   0  0  0  0  0  0  0  0  0  0  0  0
   59.1380   31.9430   45.2650 N   0  0  0  0  0  0  0  0  0  0  0  0
   58.4790   30.6780   45.4200 C   0  0  0  0  0  0  0  0  0  0  0  0
   59.1210   29.6670   46.1370 C   0  0  0  0  0  0  0  0  0  0  0  0
   58.4850   28.4400   46.3500 C   0  0  0  0  0  0  0  0  0  0  0  0
   57.1870   28.2110   45.8620 C   0  0  0  0  0  0  0  0  0  0  0  0
   56.5800   26.8830   46.0530 C   0  0  0  0  0  0  0  0  0  0  0  0
   57.3090   25.8750   46.2450 O   0  0  0  0  0  0  0  0  0  0  0  0
   55.2040   26.7150   45.9580 O   0  0  0  0  0  0  0  0  0  0  0  0
   56.5130   29.2560   45.1850 C   0  0  0  0  0  0  0  0  0  0  0  0
   55.1860   29.1490   44.7680 O   0  0  0  0  0  0  0  0  0  0  0  0
   57.1690   30.4670   44.9540 C   0  0  0  0  0  0  0  0  0  0  0  0
   58.9464   35.1498   45.5092 H   0  0  0  0  0  0  0  0  0  0  0  0
   57.3245   34.5416   46.0112 H   0  0  0  0  0  0  0  0  0  0  0  0
   59.4968   30.1800   49.4500 H   0  0  0  0  0  0  0  0  0  0  0  0
   58.6687   28.6279   51.2141 H   0  0  0  0  0  0  0  0  0  0  0  0
   56.5941   31.9002   53.1221 H   0  0  0  0  0  0  0  0  0  0  0  0
   57.4123   33.4636   51.3615 H   0  0  0  0  0  0  0  0  0  0  0  0
   60.8795   33.5990   50.1630 H   0  0  0  0  0  0  0  0  0  0  0  0
   60.1319   29.8363   46.5363 H   0  0  0  0  0  0  0  0  0  0  0  0
   59.0059   27.6459   46.9051 H   0  0  0  0  0  0  0  0  0  0  0  0
   54.7630   28.2700   44.4960 H   0  0  0  0  0  0  0  0  0  0  0  0
   56.6544   31.2662   44.4004 H   0  0  0  0  0  0  0  0  0  0  0  0
  1  2  2  0
  2  3  1  0
  3  4  1  0
  4  5  2  0
  5  6  1  0
  6  7  1  0
  7  8  2  0
  8  9  1  0
  9 10  2  0
 10 11  1  0
 10 12  1  0
 12 13  2  0
  6 14  2  0
 14 15  1  0
  2 16  1  0
 16 17  1  0
 17 18  2  0
 18 19  1  0
 19 20  2  0
 20 21  1  0
 21 22  2  0
 21 23  1  0
 20 24  1  0
 24 25  1  0
 24 26  2  0
 15  4  1  0
 26 17  1  0
 13  7  1  0
  3 27  1  0
  3 28  1  0
  8 29  1  0
  9 30  1  0
 12 31  1  0
 13 32  1  0
 14 33  1  0
 18 34  1  0
 19 35  1  0
 25 36  1  0
 26 37  1  0
M  CHG  2  16  -1  23  -1
M  END
>  <UniqueID>  (58) 
52

>  <SMILES>  (58) 
O=C(Cc1nc(-c2ccc(Br)cc2)cs1)[N-]c1ccc(C(=O)[O-])c(O)c1

>  <Energy>  (58) 
78.50987704994058

>  <Genealogy>  (58) 
O=C(Cc1nc(-c2ccc(Br)cc2)cs1)[N-]c1ccc(C(=O)[O-])c(O)c1 (protonated)
O=C(Cc1nc(-c2ccc(Br)cc2)cs1)[N-]c1ccc(C(=O)[O-])c(O)c1 (3D coordinates assigned)
O=C(Cc1nc(-c2ccc(Br)cc2)cs1)[N-]c1ccc(C(=O)[O-])c(O)c1 (optimized conformer: 78.50987704994058 kcal/mol)

>  <smiles>  (58) 
O=C(Cc1nc(-c2ccc(Br)cc2)cs1)Nc1ccc(C(=O)O)c(O)c1

>  <score_type>  (58) 
oracle

>  <origin>  (58) 
adg

>  <m_score__min__energy>  (58) 
-12.949999999999999

>  <m_primary>  (58) 
energy

$$$$
58:0
     RDKit          3D

 37 39  0  0  0  0  0  0  0  0999 V2000
   54.4330   25.2180   45.5840 H   0  0  0  0  0  0  0  0  0  0  0  0
   53.9430   24.3160   45.3940 N   0  0  0  0  0  0  0  0  0  0  0  0
   53.7920   23.4250   46.3190 C   0  0  0  0  0  0  0  0  0  0  0  0
   52.6430   22.2020   46.2720 S   0  0  0  0  0  0  0  0  0  0  0  0
   53.1170   21.5680   47.7610 C   0  0  0  0  0  0  0  0  0  0  0  0
   52.6695   20.6977   48.2633 H   0  0  0  0  0  0  0  0  0  0  0  0
   54.1750   22.3380   48.2460 C   0  0  0  0  0  0  0  0  0  0  0  0
   54.8180   22.0940   49.5780 C   0  0  0  0  0  0  0  0  0  0  0  0
   54.6209   22.9515   50.2382 H   0  0  0  0  0  0  0  0  0  0  0  0
   54.3972   21.1763   50.0148 H   0  0  0  0  0  0  0  0  0  0  0  0
   56.3310   21.9190   49.4160 C   0  0  0  0  0  0  0  0  0  0  0  0
   56.7622   21.5982   50.3757 H   0  0  0  0  0  0  0  0  0  0  0  0
   56.5185   21.1611   48.6411 H   0  0  0  0  0  0  0  0  0  0  0  0
   56.9560   23.1770   49.0050 N   0  0  0  0  0  0  0  0  0  0  0  0
   57.2310   23.5000   47.7770 C   0  0  0  0  0  0  0  0  0  0  0  0
   57.2680   24.8040   47.3870 N   0  0  0  0  0  0  0  0  0  0  0  0
   57.5610   25.1600   46.1070 C   0  0  0  0  0  0  0  0  0  0  0  0
   57.5730   26.5960   45.7410 C   0  0  0  0  0  0  0  0  0  0  0  0
   58.8080   27.2380   45.5440 C   0  0  0  0  0  0  0  0  0  0  0  0
   59.7428   26.6705   45.6628 H   0  0  0  0  0  0  0  0  0  0  0  0
   58.8580   28.5890   45.1990 C   0  0  0  0  0  0  0  0  0  0  0  0
   59.8303   29.0822   45.0528 H   0  0  0  0  0  0  0  0  0  0  0  0
   57.6780   29.3160   45.0390 C   0  0  0  0  0  0  0  0  0  0  0  0
   57.7239   30.3834   44.7773 H   0  0  0  0  0  0  0  0  0  0  0  0
   56.4350   28.6930   45.2100 C   0  0  0  0  0  0  0  0  0  0  0  0
   55.2340   29.4510   45.0230 N   0  0  0  0  0  0  0  0  0  0  0  0
   54.3710   29.0140   44.6280 H   0  0  0  0  0  0  0  0  0  0  0  0
   55.1950   30.4620   45.2840 H   0  0  0  0  0  0  0  0  0  0  0  0
   56.3790   27.3280   45.5500 C   0  0  0  0  0  0  0  0  0  0  0  0
   55.1420   26.7010   45.6660 O   0  0  0  0  0  0  0  0  0  0  0  0
   57.8010   24.1540   45.1600 C   0  0  0  0  0  0  0  0  0  0  0  0
   58.0179   24.4096   44.1123 H   0  0  0  0  0  0  0  0  0  0  0  0
   57.7590   22.8220   45.5740 C   0  0  0  0  0  0  0  0  0  0  0  0
   57.9750   21.8960   44.7490 O   0  0  0  0  0  0  0  0  0  0  0  0
   57.4780   22.5210   46.8670 N   0  0  0  0  0  0  0  0  0  0  0  0
   54.5400   23.3740   47.4420 N   0  0  0  0  0  0  0  0  0  0  0  0
   55.3000   24.0530   47.6720 H   0  0  0  0  0  0  0  0  0  0  0  0
  1  2  1  0
  2  3  2  0
  3  4  1  0
  4  5  1  0
  5  6  1  0
  5  7  2  0
  7  8  1  0
  8  9  1  0
  8 10  1  0
  8 11  1  0
 11 12  1  0
 11 13  1  0
 11 14  1  0
 14 15  2  3
 15 16  1  0
 16 17  1  0
 17 18  1  0
 18 19  2  0
 19 20  1  0
 19 21  1  0
 21 22  1  0
 21 23  2  0
 23 24  1  0
 23 25  1  0
 25 26  1  0
 26 27  1  0
 26 28  1  0
 25 29  2  0
 29 30  1  0
 17 31  2  0
 31 32  1  0
 31 33  1  0
 33 34  2  0
 33 35  1  0
  7 36  1  0
 36 37  1  0
 36  3  1  0
 35 15  1  0
 29 18  1  0
M  CHG  3  16  -1  30  -1  35  -1
M  END
>  <UniqueID>  (59) 
53

>  <SMILES>  (59) 
[H]/N=c1\[nH]c(CCN=c2[n-]c(-c3cccc(N)c3[O-])cc(=O)[n-]2)cs1

>  <Energy>  (59) 
71.9471704833941

>  <Genealogy>  (59) 
N=c1[nH]c(CCN=c2[n-]c(-c3cccc(N)c3[O-])cc(=O)[n-]2)cs1 (protonated)
[H]/N=c1\[nH]c(CCN=c2[n-]c(-c3cccc(N)c3[O-])cc(=O)[n-]2)cs1 (cis-trans isomerization)
[H]/N=c1\[nH]c(CCN=c2[n-]c(-c3cccc(N)c3[O-])cc(=O)[n-]2)cs1 (3D coordinates assigned)
[H]/N=c1\[nH]c(CCN=c2[n-]c(-c3cccc(N)c3[O-])cc(=O)[n-]2)cs1 (optimized conformer: 71.9471704833941 kcal/mol)

>  <smiles>  (59) 
N=c1[nH]c(CCN=c2[nH]c(-c3cccc(N)c3O)cc(=O)[nH]2)cs1

>  <score_type>  (59) 
oracle

>  <origin>  (59) 
adg

>  <m_score__min__energy>  (59) 
-13.6

>  <m_primary>  (59) 
energy

$$$$
59:0
     RDKit          3D

 56 58  0  0  0  0  0  0  0  0999 V2000
   59.0706   29.0229   50.0055 H   0  0  0  0  0  0  0  0  0  0  0  0
   59.4070   29.5440   49.0970 C   0  0  0  0  0  0  0  0  0  0  0  0
   58.5350   29.6790   48.0140 C   0  0  0  0  0  0  0  0  0  0  0  0
   57.5175   29.2654   48.0745 H   0  0  0  0  0  0  0  0  0  0  0  0
   58.9520   30.3390   46.8520 C   0  0  0  0  0  0  0  0  0  0  0  0
   57.8430   30.5070   45.4930 S   0  0  0  0  0  0  0  0  0  0  0  0
   56.7540   29.4810   45.6200 O   0  0  0  0  0  0  0  0  0  0  0  0
   58.5720   30.2930   44.1960 O   0  0  0  0  0  0  0  0  0  0  0  0
   57.1370   32.0940   45.5060 N   0  0  0  0  0  0  0  0  0  0  0  0
   57.4030   32.7480   46.7870 C   0  0  0  0  0  0  0  0  0  0  0  0
   58.0640   32.1077   47.3895 H   0  0  0  0  0  0  0  0  0  0  0  0
   56.4480   32.9069   47.3092 H   0  0  0  0  0  0  0  0  0  0  0  0
   58.0820   34.1120   46.5680 C   0  0  1  0  0  0  0  0  0  0  0  0
   57.5589   34.8080   47.2403 H   0  0  0  0  0  0  0  0  0  0  0  0
   59.5100   34.0350   46.8520 N   0  0  0  0  0  0  0  0  0  0  0  0
   60.0630   33.9180   48.1740 C   0  0  0  0  0  0  0  0  0  0  0  0
   61.4080   33.9610   48.3600 N   0  0  0  0  0  0  0  0  0  0  0  0
   61.9340   33.8510   49.6050 C   0  0  0  0  0  0  0  0  0  0  0  0
   63.2220   33.8930   49.7610 N   0  0  0  0  0  0  0  0  0  0  0  0
   64.1660   33.1270   48.9500 C   0  0  0  0  0  0  0  0  0  0  0  0
   64.6271   33.7893   48.2025 H   0  0  0  0  0  0  0  0  0  0  0  0
   63.6310   32.3115   48.4414 H   0  0  0  0  0  0  0  0  0  0  0  0
   65.2500   32.5390   49.8420 C   0  0  0  0  0  0  0  0  0  0  0  0
   64.9769   32.6872   50.8972 H   0  0  0  0  0  0  0  0  0  0  0  0
   65.3500   31.4630   49.6367 H   0  0  0  0  0  0  0  0  0  0  0  0
   66.2065   33.0419   49.6367 H   0  0  0  0  0  0  0  0  0  0  0  0
   61.1050   33.6980   50.6720 N   0  0  0  0  0  0  0  0  0  0  0  0
   59.7580   33.6510   50.4950 C   0  0  0  0  0  0  0  0  0  0  0  0
   58.9550   33.5050   51.5070 N   0  0  0  0  0  0  0  0  0  0  0  0
   58.5470   32.2200   52.0750 C   0  0  0  0  0  0  0  0  0  0  0  0
   59.4100   31.5380   52.0807 H   0  0  0  0  0  0  0  0  0  0  0  0
   58.1840   32.3870   53.0998 H   0  0  0  0  0  0  0  0  0  0  0  0
   57.4230   31.5970   51.2540 C   0  0  0  0  0  0  0  0  0  0  0  0
   56.6644   31.1765   51.9306 H   0  0  0  0  0  0  0  0  0  0  0  0
   56.9615   32.3681   50.6196 H   0  0  0  0  0  0  0  0  0  0  0  0
   57.8323   30.7970   50.6196 H   0  0  0  0  0  0  0  0  0  0  0  0
   59.2430   33.7610   49.2460 N   0  0  0  0  0  0  0  0  0  0  0  0
   60.3320   34.2170   45.6670 C   0  0  0  0  0  0  0  0  0  0  0  0
   60.9188   35.1440   45.7465 H   0  0  0  0  0  0  0  0  0  0  0  0
   61.0471   33.3910   45.5395 H   0  0  0  0  0  0  0  0  0  0  0  0
   59.3600   34.3030   44.4970 C   0  0  0  0  0  0  0  0  0  0  0  0
   59.6469   35.1217   43.8207 H   0  0  0  0  0  0  0  0  0  0  0  0
   59.3590   33.3766   43.9039 H   0  0  0  0  0  0  0  0  0  0  0  0
   57.9890   34.5770   45.1110 C   0  0  0  0  0  0  0  0  0  0  0  0
   57.7573   35.6514   45.0661 H   0  0  0  0  0  0  0  0  0  0  0  0
   57.1904   34.0497   44.5686 H   0  0  0  0  0  0  0  0  0  0  0  0
   60.2530   30.8480   46.7740 C   0  0  0  0  0  0  0  0  0  0  0  0
   60.5889   31.3554   45.8576 H   0  0  0  0  0  0  0  0  0  0  0  0
   61.1280   30.7140   47.8570 C   0  0  0  0  0  0  0  0  0  0  0  0
   62.1494   31.1162   47.7866 H   0  0  0  0  0  0  0  0  0  0  0  0
   60.7110   30.0680   49.0370 C   0  0  0  0  0  0  0  0  0  0  0  0
   61.6270   29.9110   50.1940 C   0  0  0  0  0  0  0  0  0  0  0  0
   61.6750   28.8100   50.8060 O   0  0  0  0  0  0  0  0  0  0  0  0
   62.4530   30.9880   50.6450 N   0  0  0  0  0  0  0  0  0  0  0  0
   62.3380   31.9590   50.2830 H   0  0  0  0  0  0  0  0  0  0  0  0
   63.1290   30.8310   51.4260 H   0  0  0  0  0  0  0  0  0  0  0  0
  1  2  1  0
  2  3  2  0
  3  4  1  0
  3  5  1  0
  5  6  1  0
  6  7  2  0
  6  8  2  0
  6  9  1  0
  9 10  1  0
 10 11  1  0
 10 12  1  0
 10 13  1  0
 13 14  1  1
 13 15  1  0
 15 16  1  0
 16 17  2  0
 17 18  1  0
 18 19  2  3
 19 20  1  0
 20 21  1  0
 20 22  1  0
 20 23  1  0
 23 24  1  0
 23 25  1  0
 23 26  1  0
 18 27  1  0
 27 28  1  0
 28 29  2  0
 29 30  1  0
 30 31  1  0
 30 32  1  0
 30 33  1  0
 33 34  1  0
 33 35  1  0
 33 36  1  0
 28 37  1  0
 15 38  1  0
 38 39  1  0
 38 40  1  0
 38 41  1  0
 41 42  1  0
 41 43  1  0
 41 44  1  0
 44 45  1  0
 44 46  1  0
  5 47  2  0
 47 48  1  0
 47 49  1  0
 49 50  1  0
 49 51  2  0
 51 52  1  0
 52 53  2  0
 52 54  1  0
 54 55  1  0
 54 56  1  0
 51  2  1  0
 44 13  1  0
 37 16  1  0
M  CHG  3   9  -1  27  -1  37  -1
M  END
>  <UniqueID>  (60) 
54

>  <SMILES>  (60) 
CCN=c1nc(N2CCC[C@H]2C[N-]S(=O)(=O)c2ccc(C(N)=O)cc2)[n-]/c(=N/CC)[n-]1

>  <Energy>  (60) 
47.01782624893502

>  <Genealogy>  (60) 
CCN=c1nc(N2CCCC2C[N-]S(=O)(=O)c2ccc(C(N)=O)cc2)[n-]c(=NCC)[n-]1 (protonated)
CCN=c1nc(N2CCC[C@H]2C[N-]S(=O)(=O)c2ccc(C(N)=O)cc2)[n-]c(=NCC)[n-]1 (chirality)
CCN=c1nc(N2CCC[C@H]2C[N-]S(=O)(=O)c2ccc(C(N)=O)cc2)[n-]/c(=N/CC)[n-]1 (cis-trans isomerization)
CCN=c1nc(N2CCC[C@H]2C[N-]S(=O)(=O)c2ccc(C(N)=O)cc2)[n-]/c(=N/CC)[n-]1 (3D coordinates assigned)
CCN=c1nc(N2CCC[C@H]2C[N-]S(=O)(=O)c2ccc(C(N)=O)cc2)[n-]/c(=N/CC)[n-]1 (nonaromatic ring conformer: 47.01782624893502 kcal/mol)

>  <smiles>  (60) 
CCN=c1nc(N2CCCC2CNS(=O)(=O)c2ccc(C(N)=O)cc2)[nH]c(=NCC)[nH]1

>  <score_type>  (60) 
oracle

>  <origin>  (60) 
adg

>  <m_score__min__energy>  (60) 
-13.18

>  <m_primary>  (60) 
energy

$$$$
60:0
     RDKit          3D

 40 42  0  0  0  0  0  0  0  0999 V2000
   54.3860   26.6860   46.7460 H   0  0  0  0  0  0  0  0  0  0  0  0
   54.3810   26.1020   45.9190 O   0  0  0  0  0  0  0  0  0  0  0  0
   55.4620   25.2940   45.5640 C   0  0  0  0  0  0  0  0  0  0  0  0
   55.2260   24.1650   44.7710 C   0  0  0  0  0  0  0  0  0  0  0  0
   54.1999   23.9322   44.4502 H   0  0  0  0  0  0  0  0  0  0  0  0
   56.2770   23.3290   44.3810 C   0  0  0  0  0  0  0  0  0  0  0  0
   55.9810   22.2110   43.5890 O   0  0  0  0  0  0  0  0  0  0  0  0
   56.9590   21.3600   43.0020 C   0  0  0  0  0  0  0  0  0  0  0  0
   57.5337   20.8599   43.7955 H   0  0  0  0  0  0  0  0  0  0  0  0
   56.4601   20.6036   42.3784 H   0  0  0  0  0  0  0  0  0  0  0  0
   57.6392   21.9587   42.3784 H   0  0  0  0  0  0  0  0  0  0  0  0
   57.5860   23.6410   44.7890 C   0  0  0  0  0  0  0  0  0  0  0  0
   58.4226   22.9954   44.4835 H   0  0  0  0  0  0  0  0  0  0  0  0
   57.8300   24.7660   45.5800 C   0  0  0  0  0  0  0  0  0  0  0  0
   58.8596   25.0074   45.8828 H   0  0  0  0  0  0  0  0  0  0  0  0
   56.7700   25.5920   45.9920 C   0  0  0  0  0  0  0  0  0  0  0  0
   56.9980   26.7690   46.7840 N   0  0  0  0  0  0  0  0  0  0  0  0
   57.7090   27.9500   46.3870 C   0  0  0  0  0  0  0  0  0  0  0  0
   58.8050   28.2400   46.9340 O   0  0  0  0  0  0  0  0  0  0  0  0
   57.1690   28.8550   45.4120 N   0  0  0  0  0  0  0  0  0  0  0  0
   57.4480   30.1160   45.2400 C   0  0  0  0  0  0  0  0  0  0  0  0
   56.5390   30.9820   44.7410 N   0  0  0  0  0  0  0  0  0  0  0  0
   57.0340   32.2450   44.6530 C   0  0  0  0  0  0  0  0  0  0  0  0
   56.4384   33.0904   44.2780 H   0  0  0  0  0  0  0  0  0  0  0  0
   58.3520   32.3850   45.0740 C   0  0  0  0  0  0  0  0  0  0  0  0
   59.1160   33.6680   45.1580 C   0  0  0  0  0  0  0  0  0  0  0  0
   59.8049   33.7379   44.3033 H   0  0  0  0  0  0  0  0  0  0  0  0
   58.4087   34.5102   45.1384 H   0  0  0  0  0  0  0  0  0  0  0  0
   59.9040   33.7170   46.4370 C   0  0  0  0  0  0  0  0  0  0  0  0
   61.2990   33.5520   46.4170 C   0  0  0  0  0  0  0  0  0  0  0  0
   61.8208   33.4160   45.4582 H   0  0  0  0  0  0  0  0  0  0  0  0
   62.0270   33.5600   47.6110 C   0  0  0  0  0  0  0  0  0  0  0  0
   63.1199   33.4371   47.5892 H   0  0  0  0  0  0  0  0  0  0  0  0
   61.3670   33.7240   48.8320 C   0  0  0  0  0  0  0  0  0  0  0  0
   61.9413   33.7343   49.7701 H   0  0  0  0  0  0  0  0  0  0  0  0
   59.9770   33.8750   48.8620 C   0  0  0  0  0  0  0  0  0  0  0  0
   59.4584   34.0002   49.8240 H   0  0  0  0  0  0  0  0  0  0  0  0
   59.2460   33.8670   47.6700 C   0  0  0  0  0  0  0  0  0  0  0  0
   58.1520   33.9785   47.6973 H   0  0  0  0  0  0  0  0  0  0  0  0
   58.9080   30.8870   45.6010 S   0  0  0  0  0  0  0  0  0  0  0  0
  1  2  1  0
  2  3  1  0
  3  4  2  0
  4  5  1  0
  4  6  1  0
  6  7  1  0
  7  8  1  0
  8  9  1  0
  8 10  1  0
  8 11  1  0
  6 12  2  0
 12 13  1  0
 12 14  1  0
 14 15  1  0
 14 16  2  0
 16 17  1  0
 17 18  1  0
 18 19  2  0
 18 20  1  0
 20 21  2  0
 21 22  1  0
 22 23  1  0
 23 24  1  0
 23 25  2  0
 25 26  1  0
 26 27  1  0
 26 28  1  0
 26 29  1  0
 29 30  2  0
 30 31  1  0
 30 32  1  0
 32 33  1  0
 32 34  2  0
 34 35  1  0
 34 36  1  0
 36 37  1  0
 36 38  2  0
 38 39  1  0
 25 40  1  0
 16  3  1  0
 40 21  1  0
 38 29  1  0
M  CHG  2  17  -1  22  -1
M  END
>  <UniqueID>  (61) 
55

>  <SMILES>  (61) 
COc1ccc([N-]C(=O)/N=c2/[n-]cc(Cc3ccccc3)s2)c(O)c1

>  <Energy>  (61) 
77.23748877326308

>  <Genealogy>  (61) 
COc1ccc([N-]C(=O)N=c2[n-]cc(Cc3ccccc3)s2)c(O)c1 (protonated)
COc1ccc([N-]C(=O)/N=c2/[n-]cc(Cc3ccccc3)s2)c(O)c1 (cis-trans isomerization)
COc1ccc([N-]C(=O)/N=c2/[n-]cc(Cc3ccccc3)s2)c(O)c1 (3D coordinates assigned)
COc1ccc([N-]C(=O)/N=c2/[n-]cc(Cc3ccccc3)s2)c(O)c1 (optimized conformer: 77.23748877326308 kcal/mol)

>  <smiles>  (61) 
COc1ccc(NC(=O)N=c2[nH]cc(Cc3ccccc3)s2)c(O)c1

>  <score_type>  (61) 
oracle

>  <origin>  (61) 
adg

>  <m_score__min__energy>  (61) 
-12.140000000000001

>  <m_primary>  (61) 
energy

$$$$
61:0
     RDKit          3D

 73 77  0  0  1  0  0  0  0  0999 V2000
   66.8700   26.9120   51.4340 C   0  0  0  0  0  0  0  0  0  0  0  0
   65.9780   27.2050   52.4950 O   0  0  0  0  0  0  0  0  0  0  0  0
   64.6400   26.8800   52.3030 C   0  0  0  0  0  0  0  0  0  0  0  0
   63.7770   27.9140   52.0370 C   0  0  0  0  0  0  0  0  0  0  0  0
   62.4390   27.6370   51.8390 C   0  0  0  0  0  0  0  0  0  0  0  0
   61.4810   28.6570   51.5580 N   0  0  0  0  0  0  0  0  0  0  0  0
   61.2930   29.1980   50.4210 C   0  0  0  0  0  0  0  0  0  0  0  0
   61.6500   30.4840   50.2500 N   0  0  0  0  0  0  0  0  0  0  0  0
   61.4380   31.0250   49.0370 C   0  0  0  0  0  0  0  0  0  0  0  0
   61.7970   32.3830   48.8030 N   0  0  0  0  0  0  0  0  0  0  0  0
   63.0330   32.8500   48.1920 C   0  0  0  0  0  0  0  0  0  0  0  0
   63.2500   34.0990   49.0120 C   0  0  0  0  0  0  0  0  0  0  0  0
   62.0900   34.4860   49.5360 C   0  0  0  0  0  0  0  0  0  0  0  0
   60.9960   33.5540   49.1280 C   0  0  1  0  0  0  0  0  0  0  0  0
   60.3920   34.1540   47.9100 C   0  0  0  0  0  0  0  0  0  0  0  0
   59.9960   35.3240   47.8360 O   0  0  0  0  0  0  0  0  0  0  0  0
   60.2710   33.3120   46.7700 N   0  0  0  0  0  0  0  0  0  0  0  0
   59.6860   33.8780   45.5790 C   0  0  0  0  0  0  0  0  0  0  0  0
   58.7800   32.8550   44.9850 C   0  0  0  0  0  0  0  0  0  0  0  0
   58.4340   31.7910   45.8240 C   0  0  0  0  0  0  0  0  0  0  0  0
   57.6040   30.7770   45.4020 C   0  0  0  0  0  0  0  0  0  0  0  0
   57.1150   30.8380   44.1140 C   0  0  0  0  0  0  0  0  0  0  0  0
   56.2260   29.7800   43.6170 C   0  0  0  0  0  0  0  0  0  0  0  0
   55.0860   29.4080   44.3640 N   0  0  0  0  0  0  0  0  0  0  0  0
   56.4780   29.2030   42.5250 O   0  0  0  0  0  0  0  0  0  0  0  0
   57.4630   31.8920   43.2950 C   0  0  0  0  0  0  0  0  0  0  0  0
   58.2960   32.9160   43.7070 C   0  0  0  0  0  0  0  0  0  0  0  0
   60.8900   30.3050   48.0420 N   0  0  0  0  0  0  0  0  0  0  0  0
   60.5260   29.0180   48.1930 C   0  0  0  0  0  0  0  0  0  0  0  0
   60.7290   28.4280   49.4260 C   0  0  0  0  0  0  0  0  0  0  0  0
   60.2860   27.1670   49.3010 N   0  0  0  0  0  0  0  0  0  0  0  0
   59.8190   26.9680   48.0330 C   0  0  0  0  0  0  0  0  0  0  0  0
   59.9730   28.1210   47.3560 N   0  0  0  0  0  0  0  0  0  0  0  0
   59.5890   28.2880   45.9820 C   0  0  0  0  0  0  0  0  0  0  0  0
   60.7010   28.7190   45.0920 C   0  0  0  0  0  0  0  0  0  0  0  0
   58.9050   27.0880   45.3800 C   0  0  0  0  0  0  0  0  0  0  0  0
   61.9400   26.3370   51.9020 C   0  0  0  0  0  0  0  0  0  0  0  0
   62.8150   25.3130   52.1690 C   0  0  0  0  0  0  0  0  0  0  0  0
   62.3900   23.9730   52.2490 O   0  0  0  0  0  0  0  0  0  0  0  0
   60.9810   23.8030   52.4200 C   0  0  0  0  0  0  0  0  0  0  0  0
   64.1650   25.5790   52.3700 C   0  0  0  0  0  0  0  0  0  0  0  0
   67.8387   26.5938   51.8467 H   0  0  0  0  0  0  0  0  0  0  0  0
   66.4516   26.1041   50.8158 H   0  0  0  0  0  0  0  0  0  0  0  0
   67.0122   27.8106   50.8158 H   0  0  0  0  0  0  0  0  0  0  0  0
   64.1464   28.9487   51.9824 H   0  0  0  0  0  0  0  0  0  0  0  0
   62.0720   31.0150   51.0430 H   0  0  0  0  0  0  0  0  0  0  0  0
   63.8529   32.1275   48.3175 H   0  0  0  0  0  0  0  0  0  0  0  0
   62.9925   33.0020   47.1033 H   0  0  0  0  0  0  0  0  0  0  0  0
   64.2146   34.6084   49.1537 H   0  0  0  0  0  0  0  0  0  0  0  0
   61.9553   35.3681   50.1792 H   0  0  0  0  0  0  0  0  0  0  0  0
   60.1844   33.3474   49.8411 H   0  0  0  0  0  0  0  0  0  0  0  0
   60.6060   32.3040   46.8140 H   0  0  0  0  0  0  0  0  0  0  0  0
   59.1128   34.7808   45.8366 H   0  0  0  0  0  0  0  0  0  0  0  0
   60.4713   34.1582   44.8615 H   0  0  0  0  0  0  0  0  0  0  0  0
   58.8355   31.7636   46.8477 H   0  0  0  0  0  0  0  0  0  0  0  0
   57.3393   29.9447   46.0708 H   0  0  0  0  0  0  0  0  0  0  0  0
   54.7710   28.4230   44.4980 H   0  0  0  0  0  0  0  0  0  0  0  0
   54.4870   30.1440   44.8330 H   0  0  0  0  0  0  0  0  0  0  0  0
   57.0611   31.9191   42.2714 H   0  0  0  0  0  0  0  0  0  0  0  0
   58.5587   33.7458   43.0344 H   0  0  0  0  0  0  0  0  0  0  0  0
   59.3938   26.0341   47.6367 H   0  0  0  0  0  0  0  0  0  0  0  0
   58.8541   29.1047   46.0358 H   0  0  0  0  0  0  0  0  0  0  0  0
   61.5533   29.0494   45.7039 H   0  0  0  0  0  0  0  0  0  0  0  0
   61.0104   27.8757   44.4571 H   0  0  0  0  0  0  0  0  0  0  0  0
   60.3612   29.5506   44.4571 H   0  0  0  0  0  0  0  0  0  0  0  0
   58.5334   26.4360   46.1842 H   0  0  0  0  0  0  0  0  0  0  0  0
   58.0609   27.4207   44.7581 H   0  0  0  0  0  0  0  0  0  0  0  0
   59.6214   26.5312   44.7581 H   0  0  0  0  0  0  0  0  0  0  0  0
   60.8705   26.1362   51.7416 H   0  0  0  0  0  0  0  0  0  0  0  0
   60.7428   23.7743   53.4935 H   0  0  0  0  0  0  0  0  0  0  0  0
   60.4504   24.6436   51.9490 H   0  0  0  0  0  0  0  0  0  0  0  0
   60.6656   22.8603   51.9490 H   0  0  0  0  0  0  0  0  0  0  0  0
   64.8596   24.7532   52.5832 H   0  0  0  0  0  0  0  0  0  0  0  0
  1  2  1  0
  2  3  1  0
  3  4  2  0
  4  5  1  0
  5  6  1  0
  6  7  2  0
  7  8  1  0
  8  9  1  0
  9 10  1  0
 10 11  1  0
 11 12  1  0
 12 13  2  0
 13 14  1  0
 14 15  1  0
 15 16  2  0
 15 17  1  0
 17 18  1  0
 18 19  1  0
 19 20  2  0
 20 21  1  0
 21 22  2  0
 22 23  1  0
 23 24  1  0
 23 25  2  0
 22 26  1  0
 26 27  2  0
  9 28  2  0
 28 29  1  0
 29 30  2  0
 30 31  1  0
 31 32  2  0
 32 33  1  0
 33 34  1  0
 34 35  1  0
 34 36  1  0
  5 37  2  0
 37 38  1  0
 38 39  1  0
 39 40  1  0
 38 41  2  0
 41  3  1  0
 30  7  1  0
 14 10  1  0
 27 19  1  0
 33 29  1  0
  1 42  1  0
  1 43  1  0
  1 44  1  0
  4 45  1  0
  8 46  1  0
 11 47  1  0
 11 48  1  0
 12 49  1  0
 13 50  1  0
 14 51  1  1
 17 52  1  0
 18 53  1  0
 18 54  1  0
 20 55  1  0
 21 56  1  0
 24 57  1  0
 24 58  1  0
 26 59  1  0
 27 60  1  0
 32 61  1  0
 34 62  1  0
 35 63  1  0
 35 64  1  0
 35 65  1  0
 36 66  1  0
 36 67  1  0
 36 68  1  0
 37 69  1  0
 40 70  1  0
 40 71  1  0
 40 72  1  0
 41 73  1  0
M  END
>  <smiles>  (62) 
COc1cc(N=c2[nH]c(N3CC=CC3C(=O)NCc3ccc(C(N)=O)cc3)nc3c2ncn3C(C)C)cc(OC)c1

>  <score_type>  (62) 
oracle

>  <origin>  (62) 
adg

>  <m_score__min__energy>  (62) 
-10.119999999999999

>  <m_primary>  (62) 
energy

$$$$
62:0
     RDKit          3D

 35 38  0  0  0  0  0  0  0  0999 V2000
   58.8890   28.2670   48.2300 N   0  0  0  0  0  0  0  0  0  0  0  0
   60.1130   29.1680   49.0510 S   0  0  0  0  0  0  0  0  0  0  0  0
   61.0340   29.7990   48.0440 O   0  0  0  0  0  0  0  0  0  0  0  0
   60.9150   28.2420   49.9220 O   0  0  0  0  0  0  0  0  0  0  0  0
   59.3630   30.4200   50.0360 C   0  0  0  0  0  0  0  0  0  0  0  0
   59.9240   31.7000   50.0990 C   0  0  0  0  0  0  0  0  0  0  0  0
   59.3340   32.6860   50.8930 C   0  0  0  0  0  0  0  0  0  0  0  0
   58.1840   32.3970   51.6320 C   0  0  0  0  0  0  0  0  0  0  0  0
   57.6110   31.1130   51.5880 C   0  0  0  0  0  0  0  0  0  0  0  0
   56.3900   30.8030   52.3730 C   0  0  0  0  0  0  0  0  0  0  0  0
   56.4920   30.3990   53.7330 C   0  0  0  0  0  0  0  0  0  0  0  0
   55.3380   30.1200   54.4880 C   0  0  0  0  0  0  0  0  0  0  0  0
   55.4330   29.7410   55.8210 O   0  0  0  0  0  0  0  0  0  0  0  0
   54.1030   30.2370   53.8600 C   0  0  0  0  0  0  0  0  0  0  0  0
   52.8870   30.0540   54.4020 N   0  0  0  0  0  0  0  0  0  0  0  0
   51.9900   30.2940   53.4510 N   0  0  0  0  0  0  0  0  0  0  0  0
   52.6310   30.6260   52.3050 C   0  0  0  0  0  0  0  0  0  0  0  0
   51.9310   30.9340   51.0450 C   0  0  0  0  0  0  0  0  0  0  0  0
   51.8190   30.1350   49.9240 C   0  0  0  0  0  0  0  0  0  0  0  0
   51.0240   30.8430   49.0460 C   0  0  0  0  0  0  0  0  0  0  0  0
   50.6520   30.3940   47.7850 O   0  0  0  0  0  0  0  0  0  0  0  0
   50.6310   32.0270   49.5520 N   0  0  0  0  0  0  0  0  0  0  0  0
   51.1860   32.0690   50.7770 C   0  0  0  0  0  0  0  0  0  0  0  0
   51.0180   33.1370   51.6500 O   0  0  0  0  0  0  0  0  0  0  0  0
   53.9920   30.6010   52.5480 C   0  0  0  0  0  0  0  0  0  0  0  0
   55.1120   30.9130   51.7740 C   0  0  0  0  0  0  0  0  0  0  0  0
   58.2130   30.1270   50.7840 C   0  0  0  0  0  0  0  0  0  0  0  0
   57.9680   28.6340   48.5610 H   0  0  0  0  0  0  0  0  0  0  0  0
   60.8317   31.9304   49.5220 H   0  0  0  0  0  0  0  0  0  0  0  0
   59.7758   33.6925   50.9366 H   0  0  0  0  0  0  0  0  0  0  0  0
   57.7232   33.1794   52.2529 H   0  0  0  0  0  0  0  0  0  0  0  0
   57.4836   30.3037   54.1994 H   0  0  0  0  0  0  0  0  0  0  0  0
   52.2685   29.1438   49.7647 H   0  0  0  0  0  0  0  0  0  0  0  0
   55.0040   31.2353   50.7278 H   0  0  0  0  0  0  0  0  0  0  0  0
   57.7778   29.1176   50.7418 H   0  0  0  0  0  0  0  0  0  0  0  0
  1  2  1  0
  2  3  2  0
  2  4  2  0
  2  5  1  0
  5  6  2  0
  6  7  1  0
  7  8  2  0
  8  9  1  0
  9 10  1  0
 10 11  2  0
 11 12  1  0
 12 13  1  0
 12 14  2  0
 14 15  1  0
 15 16  1  0
 16 17  2  0
 17 18  1  0
 18 19  1  0
 19 20  2  0
 20 21  1  0
 20 22  1  0
 22 23  1  0
 23 24  1  0
 17 25  1  0
 25 26  2  0
  9 27  2  0
 27  5  1  0
 26 10  1  0
 25 14  1  0
 23 18  2  0
  1 28  1  0
  6 29  1  0
  7 30  1  0
  8 31  1  0
 11 32  1  0
 19 33  1  0
 26 34  1  0
 27 35  1  0
M  CHG  6   1  -1  13  -1  15  -1  21  -1  22  -1  24  -1
M  END
>  <UniqueID>  (63) 
56

>  <SMILES>  (63) 
[NH-]S(=O)(=O)c1cccc(-c2cc([O-])c3[n-]nc(-c4cc([O-])[n-]c4[O-])c3c2)c1

>  <Energy>  (63) 
111.85962365651945

>  <Genealogy>  (63) 
[NH-]S(=O)(=O)c1cccc(-c2cc([O-])c3[n-]nc(-c4cc([O-])[n-]c4[O-])c3c2)c1 (protonated)
[NH-]S(=O)(=O)c1cccc(-c2cc([O-])c3[n-]nc(-c4cc([O-])[n-]c4[O-])c3c2)c1 (3D coordinates assigned)
[NH-]S(=O)(=O)c1cccc(-c2cc([O-])c3[n-]nc(-c4cc([O-])[n-]c4[O-])c3c2)c1 (optimized conformer: 111.85962365651945 kcal/mol)

>  <smiles>  (63) 
NS(=O)(=O)c1cccc(-c2cc(O)c3[nH]nc(-c4cc(O)[nH]c4O)c3c2)c1

>  <score_type>  (63) 
oracle

>  <origin>  (63) 
adg

>  <m_score__min__energy>  (63) 
-18.489999999999998

>  <m_primary>  (63) 
energy

$$$$
63:0
     RDKit          3D

 52 55  0  0  0  0  0  0  0  0999 V2000
   57.3290   31.8420   41.3640 C   0  0  0  0  0  0  0  0  0  0  0  0
   56.9430   31.4230   42.7110 N   0  0  0  0  0  0  0  0  0  0  0  0
   56.0470   30.4520   42.9720 C   0  0  0  0  0  0  0  0  0  0  0  0
   56.0300   30.2500   44.3300 C   0  0  0  0  0  0  0  0  0  0  0  0
   55.2450   29.3190   45.0020 O   0  0  0  0  0  0  0  0  0  0  0  0
   56.8920   31.0770   44.9450 N   0  0  0  0  0  0  0  0  0  0  0  0
   57.4230   31.7940   43.9310 C   0  0  0  0  0  0  0  0  0  0  0  0
   58.3300   32.7030   44.1590 N   0  0  0  0  0  0  0  0  0  0  0  0
   58.3320   33.7300   45.1570 C   0  0  0  0  0  0  0  0  0  0  0  0
   57.9340   34.8890   44.8570 O   0  0  0  0  0  0  0  0  0  0  0  0
   58.6980   33.4110   46.5560 C   0  0  0  0  0  0  0  0  0  0  0  0
   57.7110   33.0160   47.4790 C   0  0  0  0  0  0  0  0  0  0  0  0
   58.0570   32.7190   48.8010 C   0  0  0  0  0  0  0  0  0  0  0  0
   59.3850   32.8160   49.2180 C   0  0  0  0  0  0  0  0  0  0  0  0
   60.3780   33.2180   48.3150 C   0  0  0  0  0  0  0  0  0  0  0  0
   62.0590   33.3280   48.8270 S   0  0  0  0  0  0  0  0  0  0  0  0
   62.1230   33.8390   50.2400 O   0  0  0  0  0  0  0  0  0  0  0  0
   62.7630   34.3160   47.9370 O   0  0  0  0  0  0  0  0  0  0  0  0
   62.8280   31.7610   48.6820 N   0  0  0  0  0  0  0  0  0  0  0  0
   62.8590   31.2530   47.2990 C   0  0  0  0  0  0  0  0  0  0  0  0
   61.5020   30.7150   46.8290 C   0  0  0  0  0  0  0  0  0  0  0  0
   60.9460   29.7850   47.8190 N   0  0  0  0  0  0  0  0  0  0  0  0
   60.1030   28.6900   47.4030 C   0  0  0  0  0  0  0  0  0  0  0  0
   59.1830   28.2780   48.1600 O   0  0  0  0  0  0  0  0  0  0  0  0
   60.2770   28.0350   46.0610 C   0  0  0  0  0  0  0  0  0  0  0  0
   59.7520   28.8410   44.8830 C   0  0  0  0  0  0  0  0  0  0  0  0
   58.9750   27.6370   45.3820 C   0  0  0  0  0  0  0  0  0  0  0  0
   60.9310   30.2100   49.2240 C   0  0  0  0  0  0  0  0  0  0  0  0
   62.2980   30.7710   49.6370 C   0  0  0  0  0  0  0  0  0  0  0  0
   60.0330   33.5080   46.9880 C   0  0  0  0  0  0  0  0  0  0  0  0
   58.0729   32.6496   41.4303 H   0  0  0  0  0  0  0  0  0  0  0  0
   57.7627   30.9873   40.8243 H   0  0  0  0  0  0  0  0  0  0  0  0
   56.4416   32.2043   40.8243 H   0  0  0  0  0  0  0  0  0  0  0  0
   55.4374   29.9162   42.2295 H   0  0  0  0  0  0  0  0  0  0  0  0
   54.7500   28.5940   44.4950 H   0  0  0  0  0  0  0  0  0  0  0  0
   56.6615   32.9405   47.1584 H   0  0  0  0  0  0  0  0  0  0  0  0
   57.2797   32.4079   49.5145 H   0  0  0  0  0  0  0  0  0  0  0  0
   59.6528   32.5764   50.2576 H   0  0  0  0  0  0  0  0  0  0  0  0
   63.1618   32.0728   46.6309 H   0  0  0  0  0  0  0  0  0  0  0  0
   63.5728   30.4165   47.2711 H   0  0  0  0  0  0  0  0  0  0  0  0
   60.8068   31.5564   46.6925 H   0  0  0  0  0  0  0  0  0  0  0  0
   61.6418   30.1800   45.8781 H   0  0  0  0  0  0  0  0  0  0  0  0
   61.2244   27.5284   46.2972 H   0  0  0  0  0  0  0  0  0  0  0  0
   59.3570   29.8551   45.0432 H   0  0  0  0  0  0  0  0  0  0  0  0
   60.1613   29.1535   43.9110 H   0  0  0  0  0  0  0  0  0  0  0  0
   58.0171   27.7786   45.9039 H   0  0  0  0  0  0  0  0  0  0  0  0
   58.5883   26.7159   44.9215 H   0  0  0  0  0  0  0  0  0  0  0  0
   60.1660   30.9892   49.3571 H   0  0  0  0  0  0  0  0  0  0  0  0
   60.7022   29.3379   49.8542 H   0  0  0  0  0  0  0  0  0  0  0  0
   62.1963   31.2527   50.6207 H   0  0  0  0  0  0  0  0  0  0  0  0
   63.0047   29.9284   49.6628 H   0  0  0  0  0  0  0  0  0  0  0  0
   60.8143   33.8146   46.2770 H   0  0  0  0  0  0  0  0  0  0  0  0
  1  2  1  0
  2  3  1  0
  3  4  2  0
  4  5  1  0
  4  6  1  0
  6  7  1  0
  7  8  2  3
  8  9  1  0
  9 10  2  0
  9 11  1  0
 11 12  2  0
 12 13  1  0
 13 14  2  0
 14 15  1  0
 15 16  1  0
 16 17  2  0
 16 18  2  0
 16 19  1  0
 19 20  1  0
 20 21  1  0
 21 22  1  0
 22 23  1  0
 23 24  2  0
 23 25  1  0
 25 26  1  0
 26 27  1  0
 22 28  1  0
 28 29  1  0
 15 30  2  0
  7  2  1  0
 30 11  1  0
 29 19  1  0
 27 25  1  0
  1 31  1  0
  1 32  1  0
  1 33  1  0
  3 34  1  0
  5 35  1  0
 12 36  1  0
 13 37  1  0
 14 38  1  0
 20 39  1  0
 20 40  1  0
 21 41  1  0
 21 42  1  0
 25 43  1  0
 26 44  1  0
 26 45  1  0
 27 46  1  0
 27 47  1  0
 28 48  1  0
 28 49  1  0
 29 50  1  0
 29 51  1  0
 30 52  1  0
M  CHG  1   6  -1
M  END
>  <UniqueID>  (64) 
57

>  <SMILES>  (64) 
Cn1cc(O)[n-]c1=NC(=O)c1cccc(S(=O)(=O)N2CCN(C(=O)C3CC3)CC2)c1

>  <Energy>  (64) 
362.77694225427166

>  <Genealogy>  (64) 
Cn1cc(O)[n-]c1=NC(=O)c1cccc(S(=O)(=O)N2CCN(C(=O)C3CC3)CC2)c1 (protonated)
Cn1cc(O)[n-]c1=NC(=O)c1cccc(S(=O)(=O)N2CCN(C(=O)C3CC3)CC2)c1 (3D coordinates assigned)
Cn1cc(O)[n-]c1=NC(=O)c1cccc(S(=O)(=O)N2CCN(C(=O)C3CC3)CC2)c1 (nonaromatic ring conformer: 362.77694225427166 kcal/mol)

>  <smiles>  (64) 
Cn1cc(O)[nH]c1=NC(=O)c1cccc(S(=O)(=O)N2CCN(C(=O)C3CC3)CC2)c1

>  <score_type>  (64) 
oracle

>  <origin>  (64) 
adg

>  <m_score__min__energy>  (64) 
-11.779999999999999

>  <m_primary>  (64) 
energy

$$$$
64:0
     RDKit          3D

 41 43  0  0  0  0  0  0  0  0999 V2000
   59.6110   28.1220   48.2310 C   0  0  0  0  0  0  0  0  0  0  0  0
   58.9080   29.2350   48.4620 C   0  0  0  0  0  0  0  0  0  0  0  0
   59.3750   30.5680   47.9620 C   0  0  0  0  0  0  0  0  0  0  0  0
   58.2860   31.2530   47.3490 O   0  0  0  0  0  0  0  0  0  0  0  0
   58.3780   32.0090   46.1700 C   0  0  0  0  0  0  0  0  0  0  0  0
   58.8320   33.3440   46.1720 C   0  0  0  0  0  0  0  0  0  0  0  0
   58.8970   34.0790   44.9720 C   0  0  0  0  0  0  0  0  0  0  0  0
   59.3400   35.4090   44.9260 O   0  0  0  0  0  0  0  0  0  0  0  0
   59.9890   36.0800   46.0010 C   0  0  0  0  0  0  0  0  0  0  0  0
   58.5090   33.4690   43.7750 C   0  0  0  0  0  0  0  0  0  0  0  0
   58.0620   32.1470   43.7650 C   0  0  0  0  0  0  0  0  0  0  0  0
   57.9930   31.4120   44.9570 C   0  0  0  0  0  0  0  0  0  0  0  0
   57.5430   30.0460   44.9290 N   0  0  0  0  0  0  0  0  0  0  0  0
   56.2640   29.6240   44.8720 C   0  0  0  0  0  0  0  0  0  0  0  0
   55.2750   30.4020   44.8300 O   0  0  0  0  0  0  0  0  0  0  0  0
   56.1350   28.2820   44.8810 N   0  0  0  0  0  0  0  0  0  0  0  0
   57.4060   27.8270   44.9500 C   0  0  0  0  0  0  0  0  0  0  0  0
   57.7320   26.5220   44.9780 C   0  0  0  0  0  0  0  0  0  0  0  0
   57.1540   25.5550   45.9340 C   0  0  0  0  0  0  0  0  0  0  0  0
   57.8260   24.5570   46.5380 N   0  0  0  0  0  0  0  0  0  0  0  0
   56.8840   23.9630   47.3030 C   0  0  0  0  0  0  0  0  0  0  0  0
   57.1320   22.9680   48.0330 O   0  0  0  0  0  0  0  0  0  0  0  0
   55.6570   24.5190   47.2240 N   0  0  0  0  0  0  0  0  0  0  0  0
   55.8460   25.5230   46.3530 C   0  0  0  0  0  0  0  0  0  0  0  0
   54.8410   26.3960   45.9520 O   0  0  0  0  0  0  0  0  0  0  0  0
   58.2830   28.9140   44.9780 C   0  0  0  0  0  0  0  0  0  0  0  0
   59.6230   28.8810   45.0110 C   0  0  0  0  0  0  0  0  0  0  0  0
   59.2484   27.1543   48.6079 H   0  0  0  0  0  0  0  0  0  0  0  0
   60.5521   28.1737   47.6639 H   0  0  0  0  0  0  0  0  0  0  0  0
   57.9683   29.1712   49.0302 H   0  0  0  0  0  0  0  0  0  0  0  0
   59.7548   31.1635   48.8053 H   0  0  0  0  0  0  0  0  0  0  0  0
   60.1784   30.4224   47.2249 H   0  0  0  0  0  0  0  0  0  0  0  0
   59.1377   33.8151   47.1178 H   0  0  0  0  0  0  0  0  0  0  0  0
   59.6117   35.6900   46.9578 H   0  0  0  0  0  0  0  0  0  0  0  0
   61.0739   35.9098   45.9379 H   0  0  0  0  0  0  0  0  0  0  0  0
   59.7828   37.1586   45.9379 H   0  0  0  0  0  0  0  0  0  0  0  0
   58.5565   34.0359   42.8335 H   0  0  0  0  0  0  0  0  0  0  0  0
   57.7619   31.6787   42.8160 H   0  0  0  0  0  0  0  0  0  0  0  0
   58.4694   26.1547   44.2491 H   0  0  0  0  0  0  0  0  0  0  0  0
   60.1960   29.8198   45.0306 H   0  0  0  0  0  0  0  0  0  0  0  0
   60.1494   27.9151   45.0185 H   0  0  0  0  0  0  0  0  0  0  0  0
  1  2  2  0
  2  3  1  0
  3  4  1  0
  4  5  1  0
  5  6  2  0
  6  7  1  0
  7  8  1  0
  8  9  1  0
  7 10  2  0
 10 11  1  0
 11 12  2  0
 12 13  1  0
 13 14  1  0
 14 15  2  0
 14 16  1  0
 16 17  1  0
 17 18  2  3
 18 19  1  0
 19 20  1  0
 20 21  1  0
 21 22  2  0
 21 23  1  0
 23 24  1  0
 24 25  1  0
 17 26  1  0
 26 27  2  0
 12  5  1  0
 26 13  1  0
 24 19  2  0
  1 28  1  0
  1 29  1  0
  2 30  1  0
  3 31  1  0
  3 32  1  0
  6 33  1  0
  9 34  1  0
  9 35  1  0
  9 36  1  0
 10 37  1  0
 11 38  1  0
 18 39  1  0
 27 40  1  0
 27 41  1  0
M  CHG  4  16  -1  20  -1  23  -1  25  -1
M  END
>  <UniqueID>  (65) 
58

>  <SMILES>  (65) 
C=CCOc1cc(OC)ccc1-n1c(=O)[n-]c(=Cc2[n-]c(=O)[n-]c2[O-])c1=C

>  <Energy>  (65) 
109.86148932111185

>  <Genealogy>  (65) 
C=CCOc1cc(OC)ccc1-n1c(=O)[n-]c(=Cc2[n-]c(=O)[n-]c2[O-])c1=C (protonated)
C=CCOc1cc(OC)ccc1-n1c(=O)[n-]c(=Cc2[n-]c(=O)[n-]c2[O-])c1=C (3D coordinates assigned)
C=CCOc1cc(OC)ccc1-n1c(=O)[n-]c(=Cc2[n-]c(=O)[n-]c2[O-])c1=C (optimized conformer: 109.86148932111185 kcal/mol)

>  <smiles>  (65) 
C=CCOc1cc(OC)ccc1-n1c(=O)[nH]c(=Cc2[nH]c(=O)[nH]c2O)c1=C

>  <score_type>  (65) 
oracle

>  <origin>  (65) 
adg

>  <m_score__min__energy>  (65) 
-16.050000000000001

>  <m_primary>  (65) 
energy

$$$$
65:0
     RDKit          3D

 62 66  0  0  0  0  0  0  0  0999 V2000
   59.0030   32.4710   46.8530 O   0  0  0  0  0  0  0  0  0  0  0  0
   59.5060   31.3170   46.7690 C   0  0  0  0  0  0  0  0  0  0  0  0
   60.7640   31.0400   47.4100 N   0  0  0  0  0  0  0  0  0  0  0  0
   61.7200   32.0540   47.7650 C   0  0  0  0  0  0  0  0  0  0  0  0
   62.3170   32.8210   46.7540 C   0  0  0  0  0  0  0  0  0  0  0  0
   63.2320   33.8280   47.0770 C   0  0  0  0  0  0  0  0  0  0  0  0
   63.5510   34.0840   48.4120 C   0  0  0  0  0  0  0  0  0  0  0  0
   62.9490   33.3370   49.4330 C   0  0  0  0  0  0  0  0  0  0  0  0
   63.3130   33.6710   51.1250 S   0  0  0  0  0  0  0  0  0  0  0  0
   63.7230   35.1120   51.2460 O   0  0  0  0  0  0  0  0  0  0  0  0
   62.0880   33.4480   51.9700 O   0  0  0  0  0  0  0  0  0  0  0  0
   64.6200   32.6370   51.6620 N   0  0  0  0  0  0  0  0  0  0  0  0
   65.7120   33.4370   52.2280 C   0  0  0  0  0  0  0  0  0  0  0  0
   66.7150   33.7190   51.1190 C   0  0  0  0  0  0  0  0  0  0  0  0
   66.3910   32.7300   50.0150 C   0  0  0  0  0  0  0  0  0  0  0  0
   65.2090   31.9200   50.5260 C   0  0  0  0  0  0  0  0  0  0  0  0
   62.0270   32.3330   49.1090 C   0  0  0  0  0  0  0  0  0  0  0  0
   58.7650   30.2490   46.0540 C   0  0  0  0  0  0  0  0  0  0  0  0
   58.2010   30.4850   44.7870 C   0  0  0  0  0  0  0  0  0  0  0  0
   57.5100   29.4710   44.1190 C   0  0  0  0  0  0  0  0  0  0  0  0
   57.3650   28.2130   44.7070 C   0  0  0  0  0  0  0  0  0  0  0  0
   57.9000   27.9640   45.9800 C   0  0  0  0  0  0  0  0  0  0  0  0
   57.7760   26.5960   46.6040 C   0  0  0  0  0  0  0  0  0  0  0  0
   56.6070   25.8080   46.0550 C   0  0  0  0  0  0  0  0  0  0  0  0
   55.3340   26.2050   46.3400 N   0  0  0  0  0  0  0  0  0  0  0  0
   54.2670   25.5590   45.8700 N   0  0  0  0  0  0  0  0  0  0  0  0
   54.3890   24.4640   45.0800 C   0  0  0  0  0  0  0  0  0  0  0  0
   53.3530   23.8990   44.6400 O   0  0  0  0  0  0  0  0  0  0  0  0
   55.6670   23.9820   44.7650 C   0  0  0  0  0  0  0  0  0  0  0  0
   56.7950   24.6500   45.2680 C   0  0  0  0  0  0  0  0  0  0  0  0
   58.1590   24.1210   44.8770 C   0  0  0  0  0  0  0  0  0  0  0  0
   58.2070   22.5860   44.9760 C   0  0  0  0  0  0  0  0  0  0  0  0
   56.9550   21.8600   44.4190 C   0  0  0  0  0  0  0  0  0  0  0  0
   55.8790   22.7980   43.8520 C   0  0  0  0  0  0  0  0  0  0  0  0
   58.6030   28.9820   46.6450 C   0  0  0  0  0  0  0  0  0  0  0  0
   60.9420   30.0650   47.7380 H   0  0  0  0  0  0  0  0  0  0  0  0
   62.0640   32.6294   45.7008 H   0  0  0  0  0  0  0  0  0  0  0  0
   63.7015   34.4198   46.2774 H   0  0  0  0  0  0  0  0  0  0  0  0
   64.2756   34.8729   48.6623 H   0  0  0  0  0  0  0  0  0  0  0  0
   65.3150   34.3844   52.6215 H   0  0  0  0  0  0  0  0  0  0  0  0
   66.1970   32.8918   53.0511 H   0  0  0  0  0  0  0  0  0  0  0  0
   66.6046   34.7510   50.7546 H   0  0  0  0  0  0  0  0  0  0  0  0
   67.7517   33.6114   51.4706 H   0  0  0  0  0  0  0  0  0  0  0  0
   66.1214   33.2613   49.0903 H   0  0  0  0  0  0  0  0  0  0  0  0
   67.2522   32.0882   49.7775 H   0  0  0  0  0  0  0  0  0  0  0  0
   64.4608   31.8085   49.7274 H   0  0  0  0  0  0  0  0  0  0  0  0
   65.5407   30.9189   50.8388 H   0  0  0  0  0  0  0  0  0  0  0  0
   61.5399   31.7591   49.9111 H   0  0  0  0  0  0  0  0  0  0  0  0
   58.3048   31.4750   44.3189 H   0  0  0  0  0  0  0  0  0  0  0  0
   57.0785   29.6645   43.1259 H   0  0  0  0  0  0  0  0  0  0  0  0
   56.8301   27.4152   44.1710 H   0  0  0  0  0  0  0  0  0  0  0  0
   58.7016   26.0348   46.4085 H   0  0  0  0  0  0  0  0  0  0  0  0
   57.6055   26.7364   47.6816 H   0  0  0  0  0  0  0  0  0  0  0  0
   58.3775   24.4213   43.8416 H   0  0  0  0  0  0  0  0  0  0  0  0
   58.9069   24.5392   45.5668 H   0  0  0  0  0  0  0  0  0  0  0  0
   59.0850   22.2340   44.4146 H   0  0  0  0  0  0  0  0  0  0  0  0
   58.2533   22.3457   46.0484 H   0  0  0  0  0  0  0  0  0  0  0  0
   57.2791   21.1823   43.6155 H   0  0  0  0  0  0  0  0  0  0  0  0
   56.4956   21.3303   45.2666 H   0  0  0  0  0  0  0  0  0  0  0  0
   56.1986   23.1577   42.8628 H   0  0  0  0  0  0  0  0  0  0  0  0
   54.9335   22.2419   43.7692 H   0  0  0  0  0  0  0  0  0  0  0  0
   59.0318   28.7868   47.6390 H   0  0  0  0  0  0  0  0  0  0  0  0
  1  2  2  0
  2  3  1  0
  3  4  1  0
  4  5  2  0
  5  6  1  0
  6  7  2  0
  7  8  1  0
  8  9  1  0
  9 10  2  0
  9 11  2  0
  9 12  1  0
 12 13  1  0
 13 14  1  0
 14 15  1  0
 15 16  1  0
  8 17  2  0
  2 18  1  0
 18 19  2  0
 19 20  1  0
 20 21  2  0
 21 22  1  0
 22 23  1  0
 23 24  1  0
 24 25  2  0
 25 26  1  0
 26 27  1  0
 27 28  2  0
 27 29  1  0
 29 30  2  0
 30 31  1  0
 31 32  1  0
 32 33  1  0
 33 34  1  0
 22 35  2  0
 17  4  1  0
 35 18  1  0
 16 12  1  0
 30 24  1  0
 34 29  1  0
  3 36  1  0
  5 37  1  0
  6 38  1  0
  7 39  1  0
 13 40  1  0
 13 41  1  0
 14 42  1  0
 14 43  1  0
 15 44  1  0
 15 45  1  0
 16 46  1  0
 16 47  1  0
 17 48  1  0
 19 49  1  0
 20 50  1  0
 21 51  1  0
 23 52  1  0
 23 53  1  0
 31 54  1  0
 31 55  1  0
 32 56  1  0
 32 57  1  0
 33 58  1  0
 33 59  1  0
 34 60  1  0
 34 61  1  0
 35 62  1  0
M  CHG  1  26  -1
M  END
>  <UniqueID>  (66) 
59

>  <SMILES>  (66) 
O=C(Nc1cccc(S(=O)(=O)N2CCCC2)c1)c1cccc(Cc2n[n-]c(=O)c3c2CCCC3)c1

>  <Energy>  (66) 
81.6132763535055

>  <Genealogy>  (66) 
O=C(Nc1cccc(S(=O)(=O)N2CCCC2)c1)c1cccc(Cc2n[n-]c(=O)c3c2CCCC3)c1 (protonated)
O=C(Nc1cccc(S(=O)(=O)N2CCCC2)c1)c1cccc(Cc2n[n-]c(=O)c3c2CCCC3)c1 (3D coordinates assigned)
O=C(Nc1cccc(S(=O)(=O)N2CCCC2)c1)c1cccc(Cc2n[n-]c(=O)c3c2CCCC3)c1 (nonaromatic ring conformer: 81.6132763535055 kcal/mol)

>  <smiles>  (66) 
O=C(Nc1cccc(S(=O)(=O)N2CCCC2)c1)c1cccc(Cc2n[nH]c(=O)c3c2CCCC3)c1

>  <score_type>  (66) 
oracle

>  <origin>  (66) 
adg

>  <m_score__min__energy>  (66) 
-13.77

>  <m_primary>  (66) 
energy

$$$$
66:0
     RDKit          3D

 69 71  0  0  0  0  0  0  0  0999 V2000
   60.6960   30.7870   50.1370 C   0  0  0  0  0  0  0  0  0  0  0  0
   59.1990   30.6320   49.8700 C   0  0  0  0  0  0  0  0  0  0  0  0
   58.8980   29.6290   48.7420 C   0  0  0  0  0  0  0  0  0  0  0  0
   60.1700   29.0900   48.0530 C   0  0  0  0  0  0  0  0  0  0  0  0
   59.9720   27.6860   47.5460 C   0  0  0  0  0  0  0  0  0  0  0  0
   60.4970   26.7270   48.1750 O   0  0  0  0  0  0  0  0  0  0  0  0
   59.1060   27.3990   46.3850 C   0  0  0  0  0  0  0  0  0  0  0  0
   58.0590   26.4880   46.3210 C   0  0  0  0  0  0  0  0  0  0  0  0
   57.5250   25.6280   47.4300 C   0  0  0  0  0  0  0  0  0  0  0  0
   56.4390   24.6900   46.9140 C   0  0  0  0  0  0  0  0  0  0  0  0
   57.4820   26.5500   45.1050 N   0  0  0  0  0  0  0  0  0  0  0  0
   58.1420   27.4430   44.3830 N   0  0  0  0  0  0  0  0  0  0  0  0
   57.7350   27.8200   43.0270 C   0  0  0  0  0  0  0  0  0  0  0  0
   56.9980   29.1660   43.0370 C   0  0  0  0  0  0  0  0  0  0  0  0
   56.3730   29.4330   44.3720 C   0  0  0  0  0  0  0  0  0  0  0  0
   55.5660   28.6000   44.8670 O   0  0  0  0  0  0  0  0  0  0  0  0
   56.6660   30.6540   45.0550 N   0  0  0  0  0  0  0  0  0  0  0  0
   57.5680   31.6700   44.5210 C   0  0  0  0  0  0  0  0  0  0  0  0
   58.3270   32.3840   45.6150 C   0  0  0  0  0  0  0  0  0  0  0  0
   59.5210   31.8150   46.0850 C   0  0  0  0  0  0  0  0  0  0  0  0
   60.2360   32.4140   47.1270 C   0  0  0  0  0  0  0  0  0  0  0  0
   59.7750   33.6050   47.7140 C   0  0  0  0  0  0  0  0  0  0  0  0
   60.5130   34.2470   48.8310 C   0  0  0  0  0  0  0  0  0  0  0  0
   59.9070   34.4930   49.9090 O   0  0  0  0  0  0  0  0  0  0  0  0
   61.9030   34.5890   48.7390 N   0  0  0  0  0  0  0  0  0  0  0  0
   62.9900   33.9130   49.3870 C   0  0  0  0  0  0  0  0  0  0  0  0
   63.2160   34.1790   50.7460 C   0  0  0  0  0  0  0  0  0  0  0  0
   64.2430   33.5300   51.4360 C   0  0  0  0  0  0  0  0  0  0  0  0
   65.0660   32.6200   50.7700 C   0  0  0  0  0  0  0  0  0  0  0  0
   64.8750   32.3700   49.4090 C   0  0  0  0  0  0  0  0  0  0  0  0
   63.8540   33.0240   48.6990 C   0  0  0  0  0  0  0  0  0  0  0  0
   63.7620   32.8310   47.2820 N   0  0  0  0  0  0  0  0  0  0  0  0
   58.5680   34.1650   47.2620 C   0  0  0  0  0  0  0  0  0  0  0  0
   57.8490   33.5620   46.2260 C   0  0  0  0  0  0  0  0  0  0  0  0
   59.1490   27.9700   45.1200 C   0  0  0  0  0  0  0  0  0  0  0  0
   60.1610   28.9580   44.6150 C   0  0  0  0  0  0  0  0  0  0  0  0
   60.8749   30.8055   51.2222 H   0  0  0  0  0  0  0  0  0  0  0  0
   61.2377   29.9401   49.6905 H   0  0  0  0  0  0  0  0  0  0  0  0
   61.0527   31.7269   49.6905 H   0  0  0  0  0  0  0  0  0  0  0  0
   58.7115   30.2818   50.7918 H   0  0  0  0  0  0  0  0  0  0  0  0
   58.8144   31.6129   49.5540 H   0  0  0  0  0  0  0  0  0  0  0  0
   58.3443   28.7794   49.1680 H   0  0  0  0  0  0  0  0  0  0  0  0
   58.3128   30.1618   47.9780 H   0  0  0  0  0  0  0  0  0  0  0  0
   60.4211   29.7439   47.2049 H   0  0  0  0  0  0  0  0  0  0  0  0
   60.9837   29.0774   48.7931 H   0  0  0  0  0  0  0  0  0  0  0  0
   58.3473   25.0306   47.8507 H   0  0  0  0  0  0  0  0  0  0  0  0
   57.0901   26.2792   48.2025 H   0  0  0  0  0  0  0  0  0  0  0  0
   55.9123   24.2351   47.7659 H   0  0  0  0  0  0  0  0  0  0  0  0
   55.7236   25.2589   46.3020 H   0  0  0  0  0  0  0  0  0  0  0  0
   56.8977   23.8994   46.3020 H   0  0  0  0  0  0  0  0  0  0  0  0
   58.6289   27.9024   42.3913 H   0  0  0  0  0  0  0  0  0  0  0  0
   57.0571   27.0482   42.6335 H   0  0  0  0  0  0  0  0  0  0  0  0
   57.7147   29.9689   42.8096 H   0  0  0  0  0  0  0  0  0  0  0  0
   56.2004   29.1314   42.2803 H   0  0  0  0  0  0  0  0  0  0  0  0
   58.2892   31.1855   43.8464 H   0  0  0  0  0  0  0  0  0  0  0  0
   56.9615   32.4155   43.9858 H   0  0  0  0  0  0  0  0  0  0  0  0
   59.8984   30.8879   45.6288 H   0  0  0  0  0  0  0  0  0  0  0  0
   61.1652   31.9501   47.4895 H   0  0  0  0  0  0  0  0  0  0  0  0
   62.5791   34.9048   51.2728 H   0  0  0  0  0  0  0  0  0  0  0  0
   64.4032   33.7362   52.5046 H   0  0  0  0  0  0  0  0  0  0  0  0
   65.8656   32.0994   51.3174 H   0  0  0  0  0  0  0  0  0  0  0  0
   65.5294   31.6551   48.8887 H   0  0  0  0  0  0  0  0  0  0  0  0
   64.5240   32.3370   46.7650 H   0  0  0  0  0  0  0  0  0  0  0  0
   63.0190   33.2950   46.7140 H   0  0  0  0  0  0  0  0  0  0  0  0
   58.1858   35.0855   47.7273 H   0  0  0  0  0  0  0  0  0  0  0  0
   56.9037   34.0093   45.8848 H   0  0  0  0  0  0  0  0  0  0  0  0
   60.6576   29.4428   45.4684 H   0  0  0  0  0  0  0  0  0  0  0  0
   60.9107   28.4348   44.0034 H   0  0  0  0  0  0  0  0  0  0  0  0
   59.6559   29.7201   44.0034 H   0  0  0  0  0  0  0  0  0  0  0  0
  1  2  1  0
  2  3  1  0
  3  4  1  0
  4  5  1  0
  5  6  2  0
  5  7  1  0
  7  8  1  0
  8  9  1  0
  9 10  1  0
  8 11  2  0
 11 12  1  0
 12 13  1  0
 13 14  1  0
 14 15  1  0
 15 16  2  0
 15 17  1  0
 17 18  1  0
 18 19  1  0
 19 20  2  0
 20 21  1  0
 21 22  2  0
 22 23  1  0
 23 24  2  0
 23 25  1  0
 25 26  1  0
 26 27  2  0
 27 28  1  0
 28 29  2  0
 29 30  1  0
 30 31  2  0
 31 32  1  0
 22 33  1  0
 33 34  2  0
 12 35  1  0
 35 36  1  0
 35  7  2  0
 34 19  1  0
 31 26  1  0
  1 37  1  0
  1 38  1  0
  1 39  1  0
  2 40  1  0
  2 41  1  0
  3 42  1  0
  3 43  1  0
  4 44  1  0
  4 45  1  0
  9 46  1  0
  9 47  1  0
 10 48  1  0
 10 49  1  0
 10 50  1  0
 13 51  1  0
 13 52  1  0
 14 53  1  0
 14 54  1  0
 18 55  1  0
 18 56  1  0
 20 57  1  0
 21 58  1  0
 27 59  1  0
 28 60  1  0
 29 61  1  0
 30 62  1  0
 32 63  1  0
 32 64  1  0
 33 65  1  0
 34 66  1  0
 36 67  1  0
 36 68  1  0
 36 69  1  0
M  CHG  2  17  -1  25  -1
M  END
>  <UniqueID>  (67) 
60

>  <SMILES>  (67) 
CCCCC(=O)c1c(CC)nn(CCC(=O)[N-]Cc2ccc(C(=O)[N-]c3ccccc3N)cc2)c1C

>  <Energy>  (67) 
102.24459032606825

>  <Genealogy>  (67) 
CCCCC(=O)c1c(CC)nn(CCC(=O)[N-]Cc2ccc(C(=O)[N-]c3ccccc3N)cc2)c1C (protonated)
CCCCC(=O)c1c(CC)nn(CCC(=O)[N-]Cc2ccc(C(=O)[N-]c3ccccc3N)cc2)c1C (3D coordinates assigned)
CCCCC(=O)c1c(CC)nn(CCC(=O)[N-]Cc2ccc(C(=O)[N-]c3ccccc3N)cc2)c1C (optimized conformer: 102.24459032606825 kcal/mol)

>  <smiles>  (67) 
CCCCC(=O)c1c(CC)nn(CCC(=O)NCc2ccc(C(=O)Nc3ccccc3N)cc2)c1C

>  <score_type>  (67) 
oracle

>  <origin>  (67) 
adg

>  <m_score__min__energy>  (67) 
-11.42

>  <m_primary>  (67) 
energy

$$$$
67:0
     RDKit          3D

 62 65  0  0  0  0  0  0  0  0999 V2000
   62.6500   34.9430   49.6110 C   0  0  0  0  0  0  0  0  0  0  0  0
   63.6090   33.8250   49.9410 C   0  0  0  0  0  0  0  0  0  0  0  0
   64.5190   34.0120   50.9980 C   0  0  0  0  0  0  0  0  0  0  0  0
   65.3530   32.9730   51.4130 C   0  0  0  0  0  0  0  0  0  0  0  0
   65.2710   31.7250   50.8010 C   0  0  0  0  0  0  0  0  0  0  0  0
   64.3720   31.5170   49.7570 C   0  0  0  0  0  0  0  0  0  0  0  0
   63.5580   32.5640   49.2820 C   0  0  0  0  0  0  0  0  0  0  0  0
   62.6270   32.2910   48.1020 C   0  0  0  0  0  0  0  0  0  0  0  0
   61.2110   32.6940   48.3160 N   0  0  2  0  0  0  0  0  0  0  0  0
   60.4430   31.6440   48.9070 C   0  0  0  0  0  0  0  0  0  0  0  0
   60.6300   31.2500   50.0930 O   0  0  0  0  0  0  0  0  0  0  0  0
   59.4570   31.0770   48.0640 N   0  0  0  0  0  0  0  0  0  0  0  0
   58.8560   29.7590   48.2800 C   0  0  0  0  0  0  0  0  0  0  0  0
   59.8370   28.8440   48.9380 C   0  0  0  0  0  0  0  0  0  0  0  0
   59.8590   28.7390   50.1960 O   0  0  0  0  0  0  0  0  0  0  0  0
   60.7740   28.1210   48.1370 N   0  0  0  0  0  0  0  0  0  0  0  0
   60.3790   27.0740   47.2040 C   0  0  0  0  0  0  0  0  0  0  0  0
   59.3230   27.6080   46.2810 C   0  0  0  0  0  0  0  0  0  0  0  0
   59.6580   28.5640   45.3080 C   0  0  0  0  0  0  0  0  0  0  0  0
   58.6700   29.1100   44.4850 C   0  0  0  0  0  0  0  0  0  0  0  0
   57.3320   28.7100   44.6240 C   0  0  0  0  0  0  0  0  0  0  0  0
   56.2590   29.3370   43.7710 C   0  0  0  0  0  0  0  0  0  0  0  0
   55.1420   29.8020   44.5920 N   0  0  0  0  0  0  0  0  0  0  0  0
   56.9920   27.7710   45.6110 C   0  0  0  0  0  0  0  0  0  0  0  0
   57.9810   27.2230   46.4360 C   0  0  0  0  0  0  0  0  0  0  0  0
   59.5310   31.7700   46.7860 C   0  0  1  0  0  0  0  0  0  0  0  0
   58.1470   32.0810   46.2380 C   0  0  0  0  0  0  0  0  0  0  0  0
   57.4100   31.1520   45.9450 O   0  0  0  0  0  0  0  0  0  0  0  0
   57.6320   33.4850   46.0330 C   0  0  0  0  0  0  0  0  0  0  0  0
   58.7480   34.5250   46.0220 C   0  0  0  0  0  0  0  0  0  0  0  0
   59.6740   34.3170   47.2130 C   0  0  0  0  0  0  0  0  0  0  0  0
   60.4590   32.9970   47.0640 C   0  0  1  0  0  0  0  0  0  0  0  0
   62.2694   35.3867   50.5428 H   0  0  0  0  0  0  0  0  0  0  0  0
   63.1726   35.7133   49.0248 H   0  0  0  0  0  0  0  0  0  0  0  0
   61.8092   34.5438   49.0248 H   0  0  0  0  0  0  0  0  0  0  0  0
   64.5735   34.9879   51.5026 H   0  0  0  0  0  0  0  0  0  0  0  0
   66.0762   33.1402   52.2248 H   0  0  0  0  0  0  0  0  0  0  0  0
   65.9167   30.9024   51.1421 H   0  0  0  0  0  0  0  0  0  0  0  0
   64.2968   30.5206   49.2970 H   0  0  0  0  0  0  0  0  0  0  0  0
   63.0107   32.8404   47.2296 H   0  0  0  0  0  0  0  0  0  0  0  0
   62.6196   31.2002   47.9604 H   0  0  0  0  0  0  0  0  0  0  0  0
   61.2060   33.5080   48.9770 H   0  0  0  0  0  0  0  0  0  0  0  0
   57.9703   29.8650   48.9236 H   0  0  0  0  0  0  0  0  0  0  0  0
   58.5662   29.3339   47.3077 H   0  0  0  0  0  0  0  0  0  0  0  0
   61.2532   26.7550   46.6174 H   0  0  0  0  0  0  0  0  0  0  0  0
   59.9815   26.2130   47.7614 H   0  0  0  0  0  0  0  0  0  0  0  0
   60.7040   28.8845   45.1934 H   0  0  0  0  0  0  0  0  0  0  0  0
   58.9420   29.8568   43.7246 H   0  0  0  0  0  0  0  0  0  0  0  0
   56.6860   30.1923   43.2269 H   0  0  0  0  0  0  0  0  0  0  0  0
   55.8846   28.5800   43.0662 H   0  0  0  0  0  0  0  0  0  0  0  0
   55.4920   29.9780   45.5630 H   0  0  0  0  0  0  0  0  0  0  0  0
   54.4250   29.0420   44.6440 H   0  0  0  0  0  0  0  0  0  0  0  0
   55.9430   27.4645   45.7365 H   0  0  0  0  0  0  0  0  0  0  0  0
   57.7066   26.4888   47.2078 H   0  0  0  0  0  0  0  0  0  0  0  0
   59.9613   31.1688   45.9715 H   0  0  0  0  0  0  0  0  0  0  0  0
   57.1011   33.5282   45.0706 H   0  0  0  0  0  0  0  0  0  0  0  0
   56.9657   33.7212   46.8758 H   0  0  0  0  0  0  0  0  0  0  0  0
   59.3260   34.4276   45.0912 H   0  0  0  0  0  0  0  0  0  0  0  0
   58.3030   35.5290   46.0850 H   0  0  0  0  0  0  0  0  0  0  0  0
   60.3836   35.1555   47.2704 H   0  0  0  0  0  0  0  0  0  0  0  0
   59.0684   34.2688   48.1300 H   0  0  0  0  0  0  0  0  0  0  0  0
   61.1341   33.1466   46.2085 H   0  0  0  0  0  0  0  0  0  0  0  0
  1  2  1  0
  2  3  2  0
  3  4  1  0
  4  5  2  0
  5  6  1  0
  6  7  2  0
  7  8  1  0
  8  9  1  0
  9 10  1  0
 10 11  2  0
 10 12  1  0
 12 13  1  0
 13 14  1  0
 14 15  2  0
 14 16  1  0
 16 17  1  0
 17 18  1  0
 18 19  2  0
 19 20  1  0
 20 21  2  0
 21 22  1  0
 22 23  1  0
 21 24  1  0
 24 25  2  0
 12 26  1  0
 26 27  1  0
 27 28  2  0
 27 29  1  0
 29 30  1  0
 30 31  1  0
 31 32  1  0
  7  2  1  0
 32  9  1  0
 25 18  1  0
 32 26  1  0
  1 33  1  0
  1 34  1  0
  1 35  1  0
  3 36  1  0
  4 37  1  0
  5 38  1  0
  6 39  1  0
  8 40  1  0
  8 41  1  0
  9 42  1  1
 13 43  1  0
 13 44  1  0
 17 45  1  0
 17 46  1  0
 19 47  1  0
 20 48  1  0
 22 49  1  0
 22 50  1  0
 23 51  1  0
 23 52  1  0
 24 53  1  0
 25 54  1  0
 26 55  1  6
 29 56  1  0
 29 57  1  0
 30 58  1  0
 30 59  1  0
 31 60  1  0
 31 61  1  0
 32 62  1  6
M  CHG  2   9   1  16  -1
M  END
>  <UniqueID>  (68) 
61

>  <SMILES>  (68) 
Cc1ccccc1C[N@@H+]1C(=O)N(CC(=O)[N-]Cc2ccc(CN)cc2)[C@H]2C(=O)CCCC21

>  <Energy>  (68) 
74.04185763975639

>  <Genealogy>  (68) 
Cc1ccccc1C[NH+]1C(=O)N(CC(=O)[N-]Cc2ccc(CN)cc2)C2C(=O)CCCC21 (protonated)
Cc1ccccc1C[N@@H+]1C(=O)N(CC(=O)[N-]Cc2ccc(CN)cc2)[C@H]2C(=O)CCCC21 (chirality)
Cc1ccccc1C[N@@H+]1C(=O)N(CC(=O)[N-]Cc2ccc(CN)cc2)[C@H]2C(=O)CCCC21 (3D coordinates assigned)
Cc1ccccc1C[N@@H+]1C(=O)N(CC(=O)[N-]Cc2ccc(CN)cc2)[C@H]2C(=O)CCCC21 (nonaromatic ring conformer: 74.04185763975639 kcal/mol)

>  <smiles>  (68) 
Cc1ccccc1CN1C(=O)N(CC(=O)NCc2ccc(CN)cc2)C2C(=O)CCCC21

>  <score_type>  (68) 
oracle

>  <origin>  (68) 
adg

>  <m_score__min__energy>  (68) 
-11.08

>  <m_primary>  (68) 
energy

$$$$
68:0
     RDKit          3D

 49 50  0  0  0  0  0  0  0  0999 V2000
   63.3250   33.8210   46.4050 C   0  0  0  0  0  0  0  0  0  0  0  0
   62.1640   33.1350   47.1330 C   0  0  0  0  0  0  0  0  0  0  0  0
   62.6350   32.5850   48.4780 C   0  0  0  0  0  0  0  0  0  0  0  0
   61.1090   34.0690   47.3660 O   0  0  0  0  0  0  0  0  0  0  0  0
   59.8450   34.0650   46.7480 C   0  0  0  0  0  0  0  0  0  0  0  0
   59.6280   34.6250   45.4710 C   0  0  0  0  0  0  0  0  0  0  0  0
   58.3610   34.5840   44.8870 C   0  0  0  0  0  0  0  0  0  0  0  0
   57.2970   33.9860   45.5610 C   0  0  0  0  0  0  0  0  0  0  0  0
   57.4950   33.4280   46.8250 C   0  0  0  0  0  0  0  0  0  0  0  0
   58.7630   33.4670   47.4290 C   0  0  0  0  0  0  0  0  0  0  0  0
   58.9630   32.8600   48.7920 C   0  0  0  0  0  0  0  0  0  0  0  0
   58.5650   31.4590   48.7680 N   0  0  0  0  0  0  0  0  0  0  0  0
   59.4350   30.4150   48.3210 C   0  0  0  0  0  0  0  0  0  0  0  0
   60.5050   30.1710   48.9430 O   0  0  0  0  0  0  0  0  0  0  0  0
   59.0340   29.5790   47.1360 C   0  0  2  0  0  0  0  0  0  0  0  0
   60.0800   28.4750   46.8700 C   0  0  0  0  0  0  0  0  0  0  0  0
   60.0250   27.9450   45.4240 C   0  0  0  0  0  0  0  0  0  0  0  0
   58.6580   28.2000   44.7820 C   0  0  0  0  0  0  0  0  0  0  0  0
   58.3610   29.6470   44.7060 N   0  0  0  0  0  0  0  0  0  0  0  0
   56.6630   29.9060   44.3760 S   0  0  0  0  0  0  0  0  0  0  0  0
   56.2900   29.7240   42.6410 C   0  0  0  0  0  0  0  0  0  0  0  0
   55.8540   28.9070   45.1540 O   0  0  0  0  0  0  0  0  0  0  0  0
   56.2700   31.2910   44.8150 O   0  0  0  0  0  0  0  0  0  0  0  0
   58.8180   30.4410   45.8750 C   0  0  0  0  0  0  0  0  0  0  0  0
   64.0269   34.2358   47.1434 H   0  0  0  0  0  0  0  0  0  0  0  0
   63.8476   33.0866   45.7745 H   0  0  0  0  0  0  0  0  0  0  0  0
   62.9338   34.6331   45.7745 H   0  0  0  0  0  0  0  0  0  0  0  0
   61.8005   32.3111   46.5013 H   0  0  0  0  0  0  0  0  0  0  0  0
   62.1541   33.1466   49.2925 H   0  0  0  0  0  0  0  0  0  0  0  0
   62.3629   31.5220   48.5550 H   0  0  0  0  0  0  0  0  0  0  0  0
   63.7272   32.6904   48.5550 H   0  0  0  0  0  0  0  0  0  0  0  0
   60.4629   35.0969   44.9323 H   0  0  0  0  0  0  0  0  0  0  0  0
   58.2014   35.0248   43.8919 H   0  0  0  0  0  0  0  0  0  0  0  0
   56.3006   33.9539   45.0962 H   0  0  0  0  0  0  0  0  0  0  0  0
   56.6531   32.9548   47.3515 H   0  0  0  0  0  0  0  0  0  0  0  0
   60.0238   32.9341   49.0733 H   0  0  0  0  0  0  0  0  0  0  0  0
   58.3479   33.4012   49.5259 H   0  0  0  0  0  0  0  0  0  0  0  0
   58.0729   29.1016   47.3776 H   0  0  0  0  0  0  0  0  0  0  0  0
   61.0827   28.8869   47.0567 H   0  0  0  0  0  0  0  0  0  0  0  0
   59.8562   27.6339   47.5427 H   0  0  0  0  0  0  0  0  0  0  0  0
   60.7991   28.4511   44.8285 H   0  0  0  0  0  0  0  0  0  0  0  0
   60.1964   26.8587   45.4488 H   0  0  0  0  0  0  0  0  0  0  0  0
   58.6557   27.7799   43.7654 H   0  0  0  0  0  0  0  0  0  0  0  0
   57.8878   27.7198   45.4035 H   0  0  0  0  0  0  0  0  0  0  0  0
   55.3069   29.2443   42.5257 H   0  0  0  0  0  0  0  0  0  0  0  0
   56.2727   30.7149   42.1638 H   0  0  0  0  0  0  0  0  0  0  0  0
   57.0604   29.1006   42.1638 H   0  0  0  0  0  0  0  0  0  0  0  0
   59.7686   30.9308   45.6171 H   0  0  0  0  0  0  0  0  0  0  0  0
   58.0306   31.1737   46.1057 H   0  0  0  0  0  0  0  0  0  0  0  0
  1  2  1  0
  2  3  1  0
  2  4  1  0
  4  5  1  0
  5  6  2  0
  6  7  1  0
  7  8  2  0
  8  9  1  0
  9 10  2  0
 10 11  1  0
 11 12  1  0
 12 13  1  0
 13 14  2  0
 13 15  1  0
 15 16  1  0
 16 17  1  0
 17 18  1  0
 18 19  1  0
 19 20  1  0
 20 21  1  0
 20 22  2  0
 20 23  2  0
 19 24  1  0
 10  5  1  0
 24 15  1  0
  1 25  1  0
  1 26  1  0
  1 27  1  0
  2 28  1  0
  3 29  1  0
  3 30  1  0
  3 31  1  0
  6 32  1  0
  7 33  1  0
  8 34  1  0
  9 35  1  0
 11 36  1  0
 11 37  1  0
 15 38  1  1
 16 39  1  0
 16 40  1  0
 17 41  1  0
 17 42  1  0
 18 43  1  0
 18 44  1  0
 21 45  1  0
 21 46  1  0
 21 47  1  0
 24 48  1  0
 24 49  1  0
M  CHG  1  12  -1
M  END
>  <UniqueID>  (69) 
62

>  <SMILES>  (69) 
CC(C)Oc1ccccc1C[N-]C(=O)[C@@H]1CCCN(S(C)(=O)=O)C1

>  <Energy>  (69) 
41.3769260804595

>  <Genealogy>  (69) 
CC(C)Oc1ccccc1C[N-]C(=O)C1CCCN(S(C)(=O)=O)C1 (protonated)
CC(C)Oc1ccccc1C[N-]C(=O)[C@@H]1CCCN(S(C)(=O)=O)C1 (chirality)
CC(C)Oc1ccccc1C[N-]C(=O)[C@@H]1CCCN(S(C)(=O)=O)C1 (3D coordinates assigned)
CC(C)Oc1ccccc1C[N-]C(=O)[C@@H]1CCCN(S(C)(=O)=O)C1 (nonaromatic ring conformer: 41.3769260804595 kcal/mol)

>  <smiles>  (69) 
CC(C)Oc1ccccc1CNC(=O)C1CCCN(S(C)(=O)=O)C1

>  <score_type>  (69) 
oracle

>  <origin>  (69) 
adg

>  <m_score__min__energy>  (69) 
-9.7300000000000004

>  <m_primary>  (69) 
energy

$$$$
69:0
     RDKit          3D

 59 63  0  0  0  0  0  0  0  0999 V2000
   54.4290   29.3430   52.7870 O   0  0  0  0  0  0  0  0  0  0  0  0
   53.8480   30.3320   52.2610 C   0  0  0  0  0  0  0  0  0  0  0  0
   52.3590   30.2960   52.0930 C   0  0  0  0  0  0  0  0  0  0  0  0
   51.7040   31.2730   53.0370 C   0  0  0  0  0  0  0  0  0  0  0  0
   51.7620   31.0380   54.4230 C   0  0  0  0  0  0  0  0  0  0  0  0
   51.1860   31.9430   55.3190 C   0  0  0  0  0  0  0  0  0  0  0  0
   50.5540   33.0900   54.8420 C   0  0  0  0  0  0  0  0  0  0  0  0
   50.4980   33.3400   53.4680 C   0  0  0  0  0  0  0  0  0  0  0  0
   51.0760   32.4420   52.5630 C   0  0  0  0  0  0  0  0  0  0  0  0
   51.0230   32.7190   51.2020 O   0  0  0  0  0  0  0  0  0  0  0  0
   54.5880   31.5090   51.8950 N   0  0  0  0  0  0  0  0  0  0  0  0
   56.0220   31.6080   51.9490 C   0  0  0  0  0  0  0  0  0  0  0  0
   56.8020   30.4880   51.6240 C   0  0  0  0  0  0  0  0  0  0  0  0
   58.1980   30.5610   51.6630 C   0  0  0  0  0  0  0  0  0  0  0  0
   58.8370   31.7540   52.0150 C   0  0  0  0  0  0  0  0  0  0  0  0
   60.2730   31.7930   52.0480 N   0  0  0  0  0  0  0  0  0  0  0  0
   61.0520   32.1810   51.0810 C   0  0  0  0  0  0  0  0  0  0  0  0
   62.3680   31.8450   51.1110 N   0  0  0  0  0  0  0  0  0  0  0  0
   63.2080   32.2100   50.1070 C   0  0  0  0  0  0  0  0  0  0  0  0
   62.7220   32.9360   49.0200 C   0  0  0  0  0  0  0  0  0  0  0  0
   63.5490   33.2550   47.9930 F   0  0  0  0  0  0  0  0  0  0  0  0
   61.3630   33.2790   48.9980 C   0  0  0  0  0  0  0  0  0  0  0  0
   60.7940   33.9860   47.9320 O   0  0  0  0  0  0  0  0  0  0  0  0
   59.6560   33.5880   47.2150 C   0  0  0  0  0  0  0  0  0  0  0  0
   58.8960   34.5680   46.5680 C   0  0  0  0  0  0  0  0  0  0  0  0
   57.7520   34.2130   45.8500 C   0  0  0  0  0  0  0  0  0  0  0  0
   57.3710   32.8750   45.7520 C   0  0  0  0  0  0  0  0  0  0  0  0
   58.1440   31.8720   46.3530 C   0  0  0  0  0  0  0  0  0  0  0  0
   57.7080   30.5100   46.2350 N   0  0  0  0  0  0  0  0  0  0  0  0
   57.0870   29.8960   45.0960 C   0  0  0  0  0  0  0  0  0  0  0  0
   55.8550   30.0390   44.8750 O   0  0  0  0  0  0  0  0  0  0  0  0
   57.8840   28.9840   44.2150 C   0  0  0  0  0  0  0  0  0  0  0  0
   59.3530   28.8800   44.6150 C   0  0  0  0  0  0  0  0  0  0  0  0
   58.4100   27.7170   44.8830 C   0  0  0  0  0  0  0  0  0  0  0  0
   59.2800   32.2360   47.1020 C   0  0  0  0  0  0  0  0  0  0  0  0
   60.5610   32.8790   50.0180 N   0  0  0  0  0  0  0  0  0  0  0  0
   58.0580   32.8590   52.4030 C   0  0  0  0  0  0  0  0  0  0  0  0
   56.6630   32.7860   52.3710 C   0  0  0  0  0  0  0  0  0  0  0  0
   52.1037   30.5648   51.0573 H   0  0  0  0  0  0  0  0  0  0  0  0
   51.9970   29.2820   52.3183 H   0  0  0  0  0  0  0  0  0  0  0  0
   52.2639   30.1363   54.8039 H   0  0  0  0  0  0  0  0  0  0  0  0
   51.2315   31.7499   56.4010 H   0  0  0  0  0  0  0  0  0  0  0  0
   50.0985   33.7998   55.5482 H   0  0  0  0  0  0  0  0  0  0  0  0
   49.9976   34.2463   53.0962 H   0  0  0  0  0  0  0  0  0  0  0  0
   54.0460   32.3860   51.7230 H   0  0  0  0  0  0  0  0  0  0  0  0
   56.3121   29.5460   51.3365 H   0  0  0  0  0  0  0  0  0  0  0  0
   58.7981   29.6731   51.4149 H   0  0  0  0  0  0  0  0  0  0  0  0
   64.2715   31.9327   50.1517 H   0  0  0  0  0  0  0  0  0  0  0  0
   59.2009   35.6234   46.6250 H   0  0  0  0  0  0  0  0  0  0  0  0
   57.1491   34.9917   45.3599 H   0  0  0  0  0  0  0  0  0  0  0  0
   56.4586   32.6052   45.1999 H   0  0  0  0  0  0  0  0  0  0  0  0
   57.3270   29.1921   43.2895 H   0  0  0  0  0  0  0  0  0  0  0  0
   60.1288   28.7914   43.8402 H   0  0  0  0  0  0  0  0  0  0  0  0
   60.0358   29.4847   45.2300 H   0  0  0  0  0  0  0  0  0  0  0  0
   58.5042   26.7878   44.3019 H   0  0  0  0  0  0  0  0  0  0  0  0
   58.1291   27.1331   45.7720 H   0  0  0  0  0  0  0  0  0  0  0  0
   59.8771   31.4590   47.6018 H   0  0  0  0  0  0  0  0  0  0  0  0
   58.5497   33.7858   52.7335 H   0  0  0  0  0  0  0  0  0  0  0  0
   56.0628   33.6553   52.6778 H   0  0  0  0  0  0  0  0  0  0  0  0
  1  2  2  0
  2  3  1  0
  3  4  1  0
  4  5  2  0
  5  6  1  0
  6  7  2  0
  7  8  1  0
  8  9  2  0
  9 10  1  0
  2 11  1  0
 11 12  1  0
 12 13  2  0
 13 14  1  0
 14 15  2  0
 15 16  1  0
 16 17  2  3
 17 18  1  0
 18 19  2  0
 19 20  1  0
 20 21  1  0
 20 22  2  0
 22 23  1  0
 23 24  1  0
 24 25  2  0
 25 26  1  0
 26 27  2  0
 27 28  1  0
 28 29  1  0
 29 30  1  0
 30 31  2  0
 30 32  1  0
 32 33  1  0
 33 34  1  0
 28 35  2  0
 22 36  1  0
 15 37  1  0
 37 38  2  0
  9  4  1  0
 38 12  1  0
 36 17  1  0
 35 24  1  0
 34 32  1  0
  3 39  1  0
  3 40  1  0
  5 41  1  0
  6 42  1  0
  7 43  1  0
  8 44  1  0
 11 45  1  0
 13 46  1  0
 14 47  1  0
 19 48  1  0
 25 49  1  0
 26 50  1  0
 27 51  1  0
 32 52  1  0
 33 53  1  0
 33 54  1  0
 34 55  1  0
 34 56  1  0
 35 57  1  0
 37 58  1  0
 38 59  1  0
M  CHG  3  10  -1  29  -1  36  -1
M  END
>  <UniqueID>  (70) 
63

>  <SMILES>  (70) 
O=C(Cc1ccccc1[O-])Nc1ccc(N=c2ncc(F)c(Oc3cccc([N-]C(=O)C4CC4)c3)[n-]2)cc1

>  <Energy>  (70) 
348.1677609747895

>  <Genealogy>  (70) 
O=C(Cc1ccccc1[O-])Nc1ccc(N=c2ncc(F)c(Oc3cccc([N-]C(=O)C4CC4)c3)[n-]2)cc1 (protonated)
O=C(Cc1ccccc1[O-])Nc1ccc(N=c2ncc(F)c(Oc3cccc([N-]C(=O)C4CC4)c3)[n-]2)cc1 (3D coordinates assigned)
O=C(Cc1ccccc1[O-])Nc1ccc(N=c2ncc(F)c(Oc3cccc([N-]C(=O)C4CC4)c3)[n-]2)cc1 (nonaromatic ring conformer: 348.1677609747895 kcal/mol)

>  <smiles>  (70) 
O=C(Cc1ccccc1O)Nc1ccc(N=c2ncc(F)c(Oc3cccc(NC(=O)C4CC4)c3)[nH]2)cc1

>  <score_type>  (70) 
oracle

>  <origin>  (70) 
adg

>  <m_score__min__energy>  (70) 
-17.710000000000001

>  <m_primary>  (70) 
energy

$$$$
70:0
     RDKit          3D

 42 45  0  0  1  0  0  0  0  0999 V2000
   60.0110   31.4600   46.5130 O   0  0  0  0  0  0  0  0  0  0  0  0
   59.0480   30.7160   46.7610 C   0  0  0  0  0  0  0  0  0  0  0  0
   59.1830   29.6380   47.7770 C   0  0  0  0  0  0  0  0  0  0  0  0
   58.9070   28.3330   47.1360 C   0  0  0  0  0  0  0  0  0  0  0  0
   57.6650   27.9060   46.7220 C   0  0  0  0  0  0  0  0  0  0  0  0
   57.5590   26.6540   46.1680 C   0  0  0  0  0  0  0  0  0  0  0  0
   58.6420   25.8000   46.0040 C   0  0  0  0  0  0  0  0  0  0  0  0
   58.4550   24.4710   45.4040 C   0  0  0  0  0  0  0  0  0  0  0  0
   59.2790   23.4070   45.6100 C   0  0  0  0  0  0  0  0  0  0  0  0
   59.0370   22.2010   44.9660 C   0  0  0  0  0  0  0  0  0  0  0  0
   57.9430   22.1030   44.1160 C   0  0  0  0  0  0  0  0  0  0  0  0
   57.4580   21.0930   43.3460 N   0  0  0  0  0  0  0  0  0  0  0  0
   56.3770   21.4890   42.6800 C   0  0  0  0  0  0  0  0  0  0  0  0
   56.1740   22.7860   43.0410 N   0  0  0  0  0  0  0  0  0  0  0  0
   57.1140   23.1810   43.9140 C   0  0  0  0  0  0  0  0  0  0  0  0
   57.3540   24.3640   44.5460 C   0  0  0  0  0  0  0  0  0  0  0  0
   59.8820   26.2250   46.4140 C   0  0  0  0  0  0  0  0  0  0  0  0
   59.9870   27.4750   46.9670 C   0  0  0  0  0  0  0  0  0  0  0  0
   57.7990   30.8430   46.1160 N   0  0  0  0  0  0  0  0  0  0  0  0
   57.6060   30.9900   44.8620 C   0  0  0  0  0  0  0  0  0  0  0  0
   58.4320   31.7500   44.1380 N   0  0  0  0  0  0  0  0  0  0  0  0
   58.1740   31.8720   42.8200 C   0  0  0  0  0  0  0  0  0  0  0  0
   57.1010   31.2400   42.2350 C   0  0  0  0  0  0  0  0  0  0  0  0
   56.2550   30.4600   42.9750 C   0  0  0  0  0  0  0  0  0  0  0  0
   56.5060   30.3270   44.3200 C   0  0  0  0  0  0  0  0  0  0  0  0
   55.6750   29.5430   45.1180 O   0  0  0  0  0  0  0  0  0  0  0  0
   60.2052   29.6403   48.1832 H   0  0  0  0  0  0  0  0  0  0  0  0
   58.4683   29.8079   48.5957 H   0  0  0  0  0  0  0  0  0  0  0  0
   56.7808   28.5510   46.8322 H   0  0  0  0  0  0  0  0  0  0  0  0
   56.5675   26.3105   45.8378 H   0  0  0  0  0  0  0  0  0  0  0  0
   60.1392   23.5031   46.2888 H   0  0  0  0  0  0  0  0  0  0  0  0
   59.7002   21.3382   45.1262 H   0  0  0  0  0  0  0  0  0  0  0  0
   57.8540   20.1220   43.2580 H   0  0  0  0  0  0  0  0  0  0  0  0
   55.7720   20.8920   41.9818 H   0  0  0  0  0  0  0  0  0  0  0  0
   56.6898   25.2257   44.3838 H   0  0  0  0  0  0  0  0  0  0  0  0
   60.7662   25.5804   46.3018 H   0  0  0  0  0  0  0  0  0  0  0  0
   60.9797   27.8173   47.2946 H   0  0  0  0  0  0  0  0  0  0  0  0
   59.2470   32.2280   44.6150 H   0  0  0  0  0  0  0  0  0  0  0  0
   58.8370   32.4913   42.1980 H   0  0  0  0  0  0  0  0  0  0  0  0
   56.9208   31.3636   41.1569 H   0  0  0  0  0  0  0  0  0  0  0  0
   55.3981   29.9535   42.5069 H   0  0  0  0  0  0  0  0  0  0  0  0
   55.7260   29.7240   46.1130 H   0  0  0  0  0  0  0  0  0  0  0  0
  1  2  2  0
  2  3  1  0
  3  4  1  0
  4  5  2  0
  5  6  1  0
  6  7  2  0
  7  8  1  0
  8  9  2  0
  9 10  1  0
 10 11  2  0
 11 12  1  0
 12 13  1  0
 13 14  2  0
 14 15  1  0
 15 16  2  0
  7 17  1  0
 17 18  2  0
  2 19  1  0
 19 20  2  0
 20 21  1  0
 21 22  1  0
 22 23  2  0
 23 24  1  0
 24 25  2  0
 25 26  1  0
 18  4  1  0
 25 20  1  0
 16  8  1  0
 15 11  1  0
  3 27  1  0
  3 28  1  0
  5 29  1  0
  6 30  1  0
  9 31  1  0
 10 32  1  0
 12 33  1  0
 13 34  1  0
 16 35  1  0
 17 36  1  0
 18 37  1  0
 21 38  1  0
 22 39  1  0
 23 40  1  0
 24 41  1  0
 26 42  1  0
M  END
>  <smiles>  (71) 
O=C(Cc1ccc(-c2ccc3[nH]cnc3c2)cc1)N=c1[nH]cccc1O

>  <score_type>  (71) 
oracle

>  <origin>  (71) 
adg

>  <m_score__min__energy>  (71) 
-9.5899999999999999

>  <m_primary>  (71) 
energy

$$$$
71:0
     RDKit          3D

 56 59  0  0  0  0  0  0  0  0999 V2000
   56.6680   20.7660   43.0240 C   0  0  0  0  0  0  0  0  0  0  0  0
   56.3320   22.1500   43.0720 O   0  0  0  0  0  0  0  0  0  0  0  0
   56.7700   23.0410   44.0680 C   0  0  0  0  0  0  0  0  0  0  0  0
   55.9590   24.0960   44.5360 C   0  0  0  0  0  0  0  0  0  0  0  0
   56.4220   24.9640   45.5380 C   0  0  0  0  0  0  0  0  0  0  0  0
   55.5500   26.0790   46.0520 C   0  0  0  0  0  0  0  0  0  0  0  0
   56.0590   27.3690   45.6050 N   0  0  0  0  0  0  0  0  0  0  0  0
   57.4020   27.5830   45.1510 C   0  0  0  0  0  0  0  0  0  0  0  0
   57.7180   27.2810   43.9680 O   0  0  0  0  0  0  0  0  0  0  0  0
   58.4180   28.1400   46.0730 C   0  0  0  0  0  0  0  0  0  0  0  0
   59.3680   29.0690   45.6130 C   0  0  0  0  0  0  0  0  0  0  0  0
   60.3050   29.6220   46.4910 C   0  0  0  0  0  0  0  0  0  0  0  0
   60.2930   29.2730   47.8500 C   0  0  0  0  0  0  0  0  0  0  0  0
   61.2320   29.8340   48.7790 N   0  0  0  0  0  0  0  0  0  0  0  0
   61.9460   31.0700   48.6190 C   0  0  0  0  0  0  0  0  0  0  0  0
   63.0710   31.1940   49.1690 O   0  0  0  0  0  0  0  0  0  0  0  0
   61.3720   32.2090   47.8750 C   0  0  0  0  0  0  0  0  0  0  0  0
   62.1470   33.1530   47.2020 C   0  0  0  0  0  0  0  0  0  0  0  0
   61.1060   34.2420   46.4480 S   0  0  0  0  0  0  0  0  0  0  0  0
   59.7280   33.4820   47.0290 C   0  0  0  0  0  0  0  0  0  0  0  0
   58.0470   33.9800   46.6590 S   0  0  0  0  0  0  0  0  0  0  0  0
   58.3180   34.0790   44.8510 C   0  0  0  0  0  0  0  0  0  0  0  0
   57.7830   32.8420   44.1900 C   0  0  0  0  0  0  0  0  0  0  0  0
   57.9200   32.6480   42.8060 C   0  0  0  0  0  0  0  0  0  0  0  0
   57.4300   31.4820   42.2050 C   0  0  0  0  0  0  0  0  0  0  0  0
   56.7950   30.5080   42.9810 C   0  0  0  0  0  0  0  0  0  0  0  0
   56.3190   29.3800   42.3970 F   0  0  0  0  0  0  0  0  0  0  0  0
   56.6490   30.6980   44.3590 C   0  0  0  0  0  0  0  0  0  0  0  0
   57.1410   31.8600   44.9620 C   0  0  0  0  0  0  0  0  0  0  0  0
   60.0280   32.4090   47.7870 N   0  0  0  0  0  0  0  0  0  0  0  0
   59.3760   28.3190   48.3030 C   0  0  0  0  0  0  0  0  0  0  0  0
   58.4410   27.7610   47.4260 C   0  0  0  0  0  0  0  0  0  0  0  0
   57.7020   24.7720   46.0770 C   0  0  0  0  0  0  0  0  0  0  0  0
   58.5120   23.7320   45.6150 C   0  0  0  0  0  0  0  0  0  0  0  0
   58.0560   22.8700   44.6140 C   0  0  0  0  0  0  0  0  0  0  0  0
   58.8940   21.8460   44.1740 O   0  0  0  0  0  0  0  0  0  0  0  0
   56.7627   20.3759   44.0482 H   0  0  0  0  0  0  0  0  0  0  0  0
   55.8775   20.2150   42.4934 H   0  0  0  0  0  0  0  0  0  0  0  0
   57.6231   20.6387   42.4934 H   0  0  0  0  0  0  0  0  0  0  0  0
   54.9543   24.2401   44.1120 H   0  0  0  0  0  0  0  0  0  0  0  0
   54.5262   25.9424   45.6735 H   0  0  0  0  0  0  0  0  0  0  0  0
   55.5526   26.0560   47.1518 H   0  0  0  0  0  0  0  0  0  0  0  0
   59.3740   29.3632   44.5531 H   0  0  0  0  0  0  0  0  0  0  0  0
   61.0547   30.3336   46.1149 H   0  0  0  0  0  0  0  0  0  0  0  0
   63.2461   33.1816   47.1692 H   0  0  0  0  0  0  0  0  0  0  0  0
   57.7971   34.9615   44.4511 H   0  0  0  0  0  0  0  0  0  0  0  0
   59.3960   34.1626   44.6486 H   0  0  0  0  0  0  0  0  0  0  0  0
   58.4142   33.4150   42.1916 H   0  0  0  0  0  0  0  0  0  0  0  0
   57.5449   31.3324   41.1213 H   0  0  0  0  0  0  0  0  0  0  0  0
   56.1467   29.9328   44.9690 H   0  0  0  0  0  0  0  0  0  0  0  0
   57.0246   32.0055   46.0461 H   0  0  0  0  0  0  0  0  0  0  0  0
   59.3905   28.0054   49.3572 H   0  0  0  0  0  0  0  0  0  0  0  0
   57.7181   27.0199   47.7978 H   0  0  0  0  0  0  0  0  0  0  0  0
   58.0699   25.4432   46.8670 H   0  0  0  0  0  0  0  0  0  0  0  0
   59.5158   23.5905   46.0421 H   0  0  0  0  0  0  0  0  0  0  0  0
   58.8330   20.9040   44.5390 H   0  0  0  0  0  0  0  0  0  0  0  0
  1  2  1  0
  2  3  1  0
  3  4  2  0
  4  5  1  0
  5  6  1  0
  6  7  1  0
  7  8  1  0
  8  9  2  0
  8 10  1  0
 10 11  2  0
 11 12  1  0
 12 13  2  0
 13 14  1  0
 14 15  1  0
 15 16  2  0
 15 17  1  0
 17 18  2  0
 18 19  1  0
 19 20  1  0
 20 21  1  0
 21 22  1  0
 22 23  1  0
 23 24  2  0
 24 25  1  0
 25 26  2  0
 26 27  1  0
 26 28  1  0
 28 29  2  0
 20 30  2  0
 13 31  1  0
 31 32  2  0
  5 33  2  0
 33 34  1  0
 34 35  2  0
 35 36  1  0
 35  3  1  0
 32 10  1  0
 30 17  1  0
 29 23  1  0
  1 37  1  0
  1 38  1  0
  1 39  1  0
  4 40  1  0
  6 41  1  0
  6 42  1  0
 11 43  1  0
 12 44  1  0
 18 45  1  0
 22 46  1  0
 22 47  1  0
 24 48  1  0
 25 49  1  0
 28 50  1  0
 29 51  1  0
 31 52  1  0
 32 53  1  0
 33 54  1  0
 34 55  1  0
 36 56  1  0
M  CHG  2   7  -1  14  -1
M  END
>  <UniqueID>  (72) 
64

>  <SMILES>  (72) 
COc1cc(C[N-]C(=O)c2ccc([N-]C(=O)c3csc(SCc4ccc(F)cc4)n3)cc2)ccc1O

>  <Energy>  (72) 
85.07097663387577

>  <Genealogy>  (72) 
COc1cc(C[N-]C(=O)c2ccc([N-]C(=O)c3csc(SCc4ccc(F)cc4)n3)cc2)ccc1O (protonated)
COc1cc(C[N-]C(=O)c2ccc([N-]C(=O)c3csc(SCc4ccc(F)cc4)n3)cc2)ccc1O (3D coordinates assigned)
COc1cc(C[N-]C(=O)c2ccc([N-]C(=O)c3csc(SCc4ccc(F)cc4)n3)cc2)ccc1O (optimized conformer: 85.07097663387577 kcal/mol)

>  <smiles>  (72) 
COc1cc(CNC(=O)c2ccc(NC(=O)c3csc(SCc4ccc(F)cc4)n3)cc2)ccc1O

>  <score_type>  (72) 
oracle

>  <origin>  (72) 
adg

>  <m_score__min__energy>  (72) 
-12.57

>  <m_primary>  (72) 
energy

$$$$
72:0
     RDKit          3D

 46 48  0  0  0  0  0  0  0  0999 V2000
   57.8070   31.1240   43.4370 C   0  0  0  0  0  0  0  0  0  0  0  0
   57.1290   30.0660   44.2460 C   0  0  0  0  0  0  0  0  0  0  0  0
   55.8230   30.1030   44.5750 N   0  0  0  0  0  0  0  0  0  0  0  0
   55.5150   28.9810   45.2090 N   0  0  0  0  0  0  0  0  0  0  0  0
   56.6220   28.2160   45.2820 C   0  0  0  0  0  0  0  0  0  0  0  0
   56.6510   26.8520   45.8900 C   0  0  0  0  0  0  0  0  0  0  0  0
   57.6790   28.8730   44.6800 C   0  0  0  0  0  0  0  0  0  0  0  0
   59.0650   28.3510   44.4340 C   0  0  0  0  0  0  0  0  0  0  0  0
   60.0110   28.9170   45.4470 C   0  0  0  0  0  0  0  0  0  0  0  0
   61.1800   29.2310   45.0940 O   0  0  0  0  0  0  0  0  0  0  0  0
   59.5850   29.1020   46.8050 N   0  0  0  0  0  0  0  0  0  0  0  0
   60.2650   29.9420   47.7530 C   0  0  0  0  0  0  0  0  0  0  0  0
   60.8150   29.4150   48.9360 C   0  0  0  0  0  0  0  0  0  0  0  0
   61.4970   30.2490   49.8260 C   0  0  0  0  0  0  0  0  0  0  0  0
   61.6470   31.6080   49.5420 C   0  0  0  0  0  0  0  0  0  0  0  0
   61.1160   32.1440   48.3610 C   0  0  0  0  0  0  0  0  0  0  0  0
   61.3200   33.8600   47.9920 S   0  0  0  0  0  0  0  0  0  0  0  0
   62.5150   34.0290   47.0950 O   0  0  0  0  0  0  0  0  0  0  0  0
   61.5900   34.6070   49.2690 O   0  0  0  0  0  0  0  0  0  0  0  0
   59.9210   34.5580   47.2110 N   0  0  0  0  0  0  0  0  0  0  0  0
   60.0380   34.5410   45.7540 C   0  0  0  0  0  0  0  0  0  0  0  0
   58.6170   34.5530   45.2100 C   0  0  0  0  0  0  0  0  0  0  0  0
   57.7410   34.0840   46.3620 C   0  0  0  0  0  0  0  0  0  0  0  0
   58.6970   33.8190   47.5140 C   0  0  0  0  0  0  0  0  0  0  0  0
   60.4420   31.3030   47.4630 C   0  0  0  0  0  0  0  0  0  0  0  0
   58.2762   31.8562   44.1105 H   0  0  0  0  0  0  0  0  0  0  0  0
   58.5781   30.6626   42.8025 H   0  0  0  0  0  0  0  0  0  0  0  0
   57.0657   31.6318   42.8025 H   0  0  0  0  0  0  0  0  0  0  0  0
   56.6491   26.9392   46.9865 H   0  0  0  0  0  0  0  0  0  0  0  0
   55.7647   26.2870   45.5656 H   0  0  0  0  0  0  0  0  0  0  0  0
   57.5605   26.3252   45.5656 H   0  0  0  0  0  0  0  0  0  0  0  0
   59.0606   27.2538   44.5124 H   0  0  0  0  0  0  0  0  0  0  0  0
   59.3911   28.6510   43.4272 H   0  0  0  0  0  0  0  0  0  0  0  0
   58.7620   28.5500   47.1400 H   0  0  0  0  0  0  0  0  0  0  0  0
   60.7078   28.3436   49.1609 H   0  0  0  0  0  0  0  0  0  0  0  0
   61.9173   29.8334   50.7537 H   0  0  0  0  0  0  0  0  0  0  0  0
   62.1835   32.2597   50.2473 H   0  0  0  0  0  0  0  0  0  0  0  0
   60.5864   35.4287   45.4058 H   0  0  0  0  0  0  0  0  0  0  0  0
   60.5905   33.6549   45.4081 H   0  0  0  0  0  0  0  0  0  0  0  0
   58.3324   35.5689   44.8986 H   0  0  0  0  0  0  0  0  0  0  0  0
   58.5114   33.9072   44.3258 H   0  0  0  0  0  0  0  0  0  0  0  0
   57.0151   34.8638   46.6358 H   0  0  0  0  0  0  0  0  0  0  0  0
   57.1616   33.1874   46.0967 H   0  0  0  0  0  0  0  0  0  0  0  0
   58.2617   34.1748   48.4595 H   0  0  0  0  0  0  0  0  0  0  0  0
   58.8976   32.7434   47.6271 H   0  0  0  0  0  0  0  0  0  0  0  0
   60.0484   31.7149   46.5221 H   0  0  0  0  0  0  0  0  0  0  0  0
  1  2  1  0
  2  3  2  0
  3  4  1  0
  4  5  1  0
  5  6  1  0
  5  7  2  0
  7  8  1  0
  8  9  1  0
  9 10  2  0
  9 11  1  0
 11 12  1  0
 12 13  2  0
 13 14  1  0
 14 15  2  0
 15 16  1  0
 16 17  1  0
 17 18  2  0
 17 19  2  0
 17 20  1  0
 20 21  1  0
 21 22  1  0
 22 23  1  0
 23 24  1  0
 16 25  2  0
  7  2  1  0
 25 12  1  0
 24 20  1  0
  1 26  1  0
  1 27  1  0
  1 28  1  0
  6 29  1  0
  6 30  1  0
  6 31  1  0
  8 32  1  0
  8 33  1  0
 11 34  1  0
 13 35  1  0
 14 36  1  0
 15 37  1  0
 21 38  1  0
 21 39  1  0
 22 40  1  0
 22 41  1  0
 23 42  1  0
 23 43  1  0
 24 44  1  0
 24 45  1  0
 25 46  1  0
M  CHG  1   4  -1
M  END
>  <UniqueID>  (73) 
65

>  <SMILES>  (73) 
Cc1n[n-]c(C)c1CC(=O)Nc1cccc(S(=O)(=O)N2CCCC2)c1

>  <Energy>  (73) 
75.41118763949694

>  <Genealogy>  (73) 
Cc1n[n-]c(C)c1CC(=O)Nc1cccc(S(=O)(=O)N2CCCC2)c1 (protonated)
Cc1n[n-]c(C)c1CC(=O)Nc1cccc(S(=O)(=O)N2CCCC2)c1 (3D coordinates assigned)
Cc1n[n-]c(C)c1CC(=O)Nc1cccc(S(=O)(=O)N2CCCC2)c1 (nonaromatic ring conformer: 75.41118763949694 kcal/mol)

>  <smiles>  (73) 
Cc1n[nH]c(C)c1CC(=O)Nc1cccc(S(=O)(=O)N2CCCC2)c1

>  <score_type>  (73) 
oracle

>  <origin>  (73) 
adg

>  <m_score__min__energy>  (73) 
-10.84

>  <m_primary>  (73) 
energy

$$$$
73:0
     RDKit          3D

 57 60  0  0  0  0  0  0  0  0999 V2000
   57.8790   25.6050   44.0920 C   0  0  0  0  0  0  0  0  0  0  0  0
   58.1210   25.5350   45.4110 C   0  0  0  0  0  0  0  0  0  0  0  0
   57.4050   24.7690   46.3460 C   0  0  0  0  0  0  0  0  0  0  0  0
   56.5120   23.7750   46.1770 C   0  0  0  0  0  0  0  0  0  0  0  0
   55.1270   23.9420   45.7050 C   0  0  0  0  0  0  0  0  0  0  0  0
   54.3000   22.9250   45.3970 N   0  0  0  0  0  0  0  0  0  0  0  0
   53.1230   23.5410   45.1600 C   0  0  0  0  0  0  0  0  0  0  0  0
   52.0860   22.9130   44.8210 O   0  0  0  0  0  0  0  0  0  0  0  0
   53.1420   24.8800   45.3220 N   0  0  0  0  0  0  0  0  0  0  0  0
   54.4130   25.1190   45.6810 C   0  0  0  0  0  0  0  0  0  0  0  0
   54.9000   26.3890   45.9770 O   0  0  0  0  0  0  0  0  0  0  0  0
   57.8320   25.1830   47.5930 C   0  0  0  0  0  0  0  0  0  0  0  0
   58.8270   26.1140   47.3890 C   0  0  0  0  0  0  0  0  0  0  0  0
   59.6520   26.7040   48.4940 C   0  0  0  0  0  0  0  0  0  0  0  0
   59.0190   26.3250   46.0640 N   0  0  0  0  0  0  0  0  0  0  0  0
   60.1020   27.1340   45.4750 C   0  0  0  0  0  0  0  0  0  0  0  0
   59.6640   28.5700   45.3740 C   0  0  0  0  0  0  0  0  0  0  0  0
   60.1530   29.5210   46.2840 C   0  0  0  0  0  0  0  0  0  0  0  0
   59.6170   30.8090   46.3130 C   0  0  0  0  0  0  0  0  0  0  0  0
   58.5850   31.1630   45.4370 C   0  0  0  0  0  0  0  0  0  0  0  0
   57.7560   32.6980   45.6540 S   0  0  0  0  0  0  0  0  0  0  0  0
   58.4300   33.7430   44.8110 O   0  0  0  0  0  0  0  0  0  0  0  0
   56.3210   32.5850   45.2180 O   0  0  0  0  0  0  0  0  0  0  0  0
   57.8380   33.1740   47.3270 N   0  0  0  0  0  0  0  0  0  0  0  0
   58.8070   34.2560   47.5340 C   0  0  0  0  0  0  0  0  0  0  0  0
   59.7960   33.9220   48.6600 C   0  0  0  0  0  0  0  0  0  0  0  0
   61.1770   33.6280   48.1350 C   0  0  0  0  0  0  0  0  0  0  0  0
   61.5460   34.0230   46.8370 C   0  0  0  0  0  0  0  0  0  0  0  0
   62.8340   33.7600   46.3600 C   0  0  0  0  0  0  0  0  0  0  0  0
   63.7600   33.1010   47.1720 C   0  0  0  0  0  0  0  0  0  0  0  0
   63.4030   32.7070   48.4640 C   0  0  0  0  0  0  0  0  0  0  0  0
   62.1170   32.9700   48.9470 C   0  0  0  0  0  0  0  0  0  0  0  0
   58.1340   30.2380   44.4880 C   0  0  0  0  0  0  0  0  0  0  0  0
   58.6720   28.9480   44.4540 C   0  0  0  0  0  0  0  0  0  0  0  0
   58.5069   26.2409   43.4506 H   0  0  0  0  0  0  0  0  0  0  0  0
   57.0528   25.0265   43.6529 H   0  0  0  0  0  0  0  0  0  0  0  0
   56.8450   22.7531   46.4111 H   0  0  0  0  0  0  0  0  0  0  0  0
   54.3020   27.1050   46.3720 H   0  0  0  0  0  0  0  0  0  0  0  0
   57.4501   24.8354   48.5643 H   0  0  0  0  0  0  0  0  0  0  0  0
   59.2322   26.4038   49.4654 H   0  0  0  0  0  0  0  0  0  0  0  0
   60.6869   26.3399   48.4135 H   0  0  0  0  0  0  0  0  0  0  0  0
   59.6420   27.8010   48.4135 H   0  0  0  0  0  0  0  0  0  0  0  0
   60.9959   27.0682   46.1126 H   0  0  0  0  0  0  0  0  0  0  0  0
   60.3366   26.7529   44.4702 H   0  0  0  0  0  0  0  0  0  0  0  0
   60.9626   29.2493   46.9774 H   0  0  0  0  0  0  0  0  0  0  0  0
   60.0073   31.5489   47.0273 H   0  0  0  0  0  0  0  0  0  0  0  0
   59.3684   34.4155   46.6016 H   0  0  0  0  0  0  0  0  0  0  0  0
   58.2539   35.1628   47.8199 H   0  0  0  0  0  0  0  0  0  0  0  0
   59.8532   34.7790   49.3472 H   0  0  0  0  0  0  0  0  0  0  0  0
   59.4309   33.0207   49.1741 H   0  0  0  0  0  0  0  0  0  0  0  0
   60.8188   34.5408   46.1943 H   0  0  0  0  0  0  0  0  0  0  0  0
   63.1182   34.0724   45.3443 H   0  0  0  0  0  0  0  0  0  0  0  0
   64.7716   32.8920   46.7938 H   0  0  0  0  0  0  0  0  0  0  0  0
   64.1342   32.1893   49.1022 H   0  0  0  0  0  0  0  0  0  0  0  0
   61.8403   32.6609   49.9658 H   0  0  0  0  0  0  0  0  0  0  0  0
   57.3546   30.5267   43.7675 H   0  0  0  0  0  0  0  0  0  0  0  0
   58.3170   28.2261   43.7038 H   0  0  0  0  0  0  0  0  0  0  0  0
  1  2  2  0
  2  3  1  0
  3  4  2  3
  4  5  1  0
  5  6  1  0
  6  7  1  0
  7  8  2  0
  7  9  1  0
  9 10  1  0
 10 11  1  0
  3 12  1  0
 12 13  2  0
 13 14  1  0
 13 15  1  0
 15 16  1  0
 16 17  1  0
 17 18  2  0
 18 19  1  0
 19 20  2  0
 20 21  1  0
 21 22  2  0
 21 23  2  0
 21 24  1  0
 24 25  1  0
 25 26  1  0
 26 27  1  0
 27 28  2  0
 28 29  1  0
 29 30  2  0
 30 31  1  0
 31 32  2  0
 20 33  1  0
 33 34  2  0
 15  2  1  0
 34 17  1  0
 10  5  2  0
 32 27  1  0
  1 35  1  0
  1 36  1  0
  4 37  1  0
 11 38  1  0
 12 39  1  0
 14 40  1  0
 14 41  1  0
 14 42  1  0
 16 43  1  0
 16 44  1  0
 18 45  1  0
 19 46  1  0
 25 47  1  0
 25 48  1  0
 26 49  1  0
 26 50  1  0
 28 51  1  0
 29 52  1  0
 30 53  1  0
 31 54  1  0
 32 55  1  0
 33 56  1  0
 34 57  1  0
M  CHG  3   6  -1   9  -1  24  -1
M  END
>  <UniqueID>  (74) 
66

>  <SMILES>  (74) 
C=c1c(=Cc2[n-]c(=O)[n-]c2O)cc(C)n1Cc1ccc(S(=O)(=O)[N-]CCc2ccccc2)cc1

>  <Energy>  (74) 
122.99625179452241

>  <Genealogy>  (74) 
C=c1c(=Cc2[n-]c(=O)[n-]c2O)cc(C)n1Cc1ccc(S(=O)(=O)[N-]CCc2ccccc2)cc1 (protonated)
C=c1c(=Cc2[n-]c(=O)[n-]c2O)cc(C)n1Cc1ccc(S(=O)(=O)[N-]CCc2ccccc2)cc1 (3D coordinates assigned)
C=c1c(=Cc2[n-]c(=O)[n-]c2O)cc(C)n1Cc1ccc(S(=O)(=O)[N-]CCc2ccccc2)cc1 (optimized conformer: 122.99625179452241 kcal/mol)

>  <smiles>  (74) 
C=c1c(=Cc2[nH]c(=O)[nH]c2O)cc(C)n1Cc1ccc(S(=O)(=O)NCCc2ccccc2)cc1

>  <score_type>  (74) 
oracle

>  <origin>  (74) 
adg

>  <m_score__min__energy>  (74) 
-15.25

>  <m_primary>  (74) 
energy

$$$$
74:0
     RDKit          3D

 57 60  0  0  0  0  0  0  0  0999 V2000
   58.1000   29.2073   43.6061 H   0  0  0  0  0  0  0  0  0  0  0  0
   58.1020   28.2300   44.1110 C   0  0  0  0  0  0  0  0  0  0  0  0
   58.0729   27.3043   43.5175 H   0  0  0  0  0  0  0  0  0  0  0  0
   58.1400   28.1670   45.4520 C   0  0  0  0  0  0  0  0  0  0  0  0
   58.1480   27.0070   46.2450 C   0  0  0  0  0  0  0  0  0  0  0  0
   57.9130   25.7200   45.9270 C   0  0  0  0  0  0  0  0  0  0  0  0
   58.7881   25.0838   45.7285 H   0  0  0  0  0  0  0  0  0  0  0  0
   56.5880   25.0910   45.8220 C   0  0  0  0  0  0  0  0  0  0  0  0
   56.3970   23.7600   45.8230 N   0  0  0  0  0  0  0  0  0  0  0  0
   55.0520   23.6370   45.8580 C   0  0  0  0  0  0  0  0  0  0  0  0
   54.4740   22.5200   45.8520 O   0  0  0  0  0  0  0  0  0  0  0  0
   54.3760   24.8040   45.9090 N   0  0  0  0  0  0  0  0  0  0  0  0
   55.3630   25.7150   45.9030 C   0  0  0  0  0  0  0  0  0  0  0  0
   55.1480   27.0840   45.9980 O   0  0  0  0  0  0  0  0  0  0  0  0
   58.4490   27.4210   47.5330 C   0  0  0  0  0  0  0  0  0  0  0  0
   58.5940   26.7754   48.4118 H   0  0  0  0  0  0  0  0  0  0  0  0
   58.5320   28.7980   47.5020 C   0  0  0  0  0  0  0  0  0  0  0  0
   58.8250   29.6600   48.6910 C   0  0  0  0  0  0  0  0  0  0  0  0
   58.6317   29.0914   49.6126 H   0  0  0  0  0  0  0  0  0  0  0  0
   59.8796   29.9718   48.6669 H   0  0  0  0  0  0  0  0  0  0  0  0
   58.1789   30.5499   48.6669 H   0  0  0  0  0  0  0  0  0  0  0  0
   58.3450   29.2520   46.2420 N   0  0  0  0  0  0  0  0  0  0  0  0
   58.3880   30.6310   45.8310 C   0  0  0  0  0  0  0  0  0  0  0  0
   59.4840   31.4310   46.1870 C   0  0  0  0  0  0  0  0  0  0  0  0
   60.3084   30.9942   46.7698 H   0  0  0  0  0  0  0  0  0  0  0  0
   59.5420   32.7750   45.8110 C   0  0  0  0  0  0  0  0  0  0  0  0
   60.6610   33.5270   46.2070 O   0  0  0  0  0  0  0  0  0  0  0  0
   60.6610   34.5440   47.2090 C   0  0  0  0  0  0  0  0  0  0  0  0
   61.3747   35.3314   46.9251 H   0  0  0  0  0  0  0  0  0  0  0  0
   59.6467   34.9617   47.2908 H   0  0  0  0  0  0  0  0  0  0  0  0
   61.0670   33.9620   48.5670 C   0  0  0  0  0  0  0  0  0  0  0  0
   60.5796   34.5358   49.3690 H   0  0  0  0  0  0  0  0  0  0  0  0
   60.7527   32.9090   48.6155 H   0  0  0  0  0  0  0  0  0  0  0  0
   62.5370   34.0370   48.7350 N   0  0  0  0  0  0  0  0  0  0  0  0
   63.0280   33.1390   49.8020 C   0  0  0  0  0  0  0  0  0  0  0  0
   64.0415   33.4542   50.0909 H   0  0  0  0  0  0  0  0  0  0  0  0
   62.3289   33.2086   50.6484 H   0  0  0  0  0  0  0  0  0  0  0  0
   63.0770   31.6600   49.3490 C   0  0  0  0  0  0  0  0  0  0  0  0
   64.1101   31.2947   49.4457 H   0  0  0  0  0  0  0  0  0  0  0  0
   62.3870   31.0898   49.9884 H   0  0  0  0  0  0  0  0  0  0  0  0
   62.6600   31.4940   48.0080 O   0  0  0  0  0  0  0  0  0  0  0  0
   63.4510   32.3000   47.1620 C   0  0  0  0  0  0  0  0  0  0  0  0
   64.5085   32.0296   47.2985 H   0  0  0  0  0  0  0  0  0  0  0  0
   63.1304   32.1258   46.1243 H   0  0  0  0  0  0  0  0  0  0  0  0
   63.2740   33.8020   47.4750 C   0  0  0  0  0  0  0  0  0  0  0  0
   64.2687   34.2644   47.5571 H   0  0  0  0  0  0  0  0  0  0  0  0
   62.6867   34.2458   46.6576 H   0  0  0  0  0  0  0  0  0  0  0  0
   58.4890   33.3190   45.0510 C   0  0  0  0  0  0  0  0  0  0  0  0
   58.5294   34.3723   44.7365 H   0  0  0  0  0  0  0  0  0  0  0  0
   57.3940   32.5300   44.6940 C   0  0  0  0  0  0  0  0  0  0  0  0
   56.5759   32.9664   44.1022 H   0  0  0  0  0  0  0  0  0  0  0  0
   57.3300   31.1810   45.0860 C   0  0  0  0  0  0  0  0  0  0  0  0
   56.2350   30.3610   44.7640 O   0  0  0  0  0  0  0  0  0  0  0  0
   55.8000   30.0800   43.4380 C   0  0  0  0  0  0  0  0  0  0  0  0
   54.8765   29.4834   43.4737 H   0  0  0  0  0  0  0  0  0  0  0  0
   55.6063   31.0241   42.9078 H   0  0  0  0  0  0  0  0  0  0  0  0
   56.5810   29.5153   42.9078 H   0  0  0  0  0  0  0  0  0  0  0  0
  1  2  1  0
  2  3  1  0
  2  4  2  0
  4  5  1  0
  5  6  2  0
  6  7  1  0
  6  8  1  0
  8  9  1  0
  9 10  1  0
 10 11  2  0
 10 12  1  0
 12 13  1  0
 13 14  1  0
  5 15  1  0
 15 16  1  0
 15 17  2  0
 17 18  1  0
 18 19  1  0
 18 20  1  0
 18 21  1  0
 17 22  1  0
 22 23  1  0
 23 24  2  0
 24 25  1  0
 24 26  1  0
 26 27  1  0
 27 28  1  0
 28 29  1  0
 28 30  1  0
 28 31  1  0
 31 32  1  0
 31 33  1  0
 31 34  1  0
 34 35  1  0
 35 36  1  0
 35 37  1  0
 35 38  1  0
 38 39  1  0
 38 40  1  0
 38 41  1  0
 41 42  1  0
 42 43  1  0
 42 44  1  0
 42 45  1  0
 45 46  1  0
 45 47  1  0
 26 48  2  0
 48 49  1  0
 48 50  1  0
 50 51  1  0
 50 52  2  0
 52 53  1  0
 53 54  1  0
 54 55  1  0
 54 56  1  0
 54 57  1  0
 22  4  1  0
 52 23  1  0
 13  8  2  0
 45 34  1  0
M  CHG  3   9  -1  12  -1  14  -1
M  END
>  <UniqueID>  (75) 
67

>  <SMILES>  (75) 
C=c1/c(=C\c2[n-]c(=O)[n-]c2[O-])cc(C)n1-c1cc(OCCN2CCOCC2)ccc1OC

>  <Energy>  (75) 
145.96648718234812

>  <Genealogy>  (75) 
C=c1c(=Cc2[n-]c(=O)[n-]c2[O-])cc(C)n1-c1cc(OCCN2CCOCC2)ccc1OC (protonated)
C=c1/c(=C\c2[n-]c(=O)[n-]c2[O-])cc(C)n1-c1cc(OCCN2CCOCC2)ccc1OC (cis-trans isomerization)
C=c1/c(=C\c2[n-]c(=O)[n-]c2[O-])cc(C)n1-c1cc(OCCN2CCOCC2)ccc1OC (3D coordinates assigned)
C=c1/c(=C\c2[n-]c(=O)[n-]c2[O-])cc(C)n1-c1cc(OCCN2CCOCC2)ccc1OC (nonaromatic ring conformer: 145.96648718234812 kcal/mol)

>  <smiles>  (75) 
C=c1c(=Cc2[nH]c(=O)[nH]c2O)cc(C)n1-c1cc(OCCN2CCOCC2)ccc1OC

>  <score_type>  (75) 
oracle

>  <origin>  (75) 
adg

>  <m_score__min__energy>  (75) 
-16.289999999999999

>  <m_primary>  (75) 
energy

$$$$
75:0
     RDKit          3D

 48 51  0  0  0  0  0  0  0  0999 V2000
   60.2670   29.6750   46.5320 C   0  0  0  0  0  0  0  0  0  0  0  0
   59.4790   30.6620   46.0770 C   0  0  0  0  0  0  0  0  0  0  0  0
   58.4750   30.5750   45.0950 C   0  0  0  0  0  0  0  0  0  0  0  0
   57.9660   29.5140   44.4370 C   0  0  0  0  0  0  0  0  0  0  0  0
   57.4080   28.3010   45.0650 C   0  0  0  0  0  0  0  0  0  0  0  0
   56.0240   28.1510   45.2480 C   0  0  0  0  0  0  0  0  0  0  0  0
   55.1440   29.1600   44.8720 O   0  0  0  0  0  0  0  0  0  0  0  0
   55.5330   27.0090   45.7950 N   0  0  0  0  0  0  0  0  0  0  0  0
   56.3610   25.9940   46.1570 C   0  0  0  0  0  0  0  0  0  0  0  0
   55.8840   24.9470   46.6660 O   0  0  0  0  0  0  0  0  0  0  0  0
   57.7010   26.1070   45.9670 N   0  0  0  0  0  0  0  0  0  0  0  0
   58.2390   27.2290   45.4230 C   0  0  0  0  0  0  0  0  0  0  0  0
   59.4860   27.2970   45.2540 O   0  0  0  0  0  0  0  0  0  0  0  0
   58.0190   31.8680   44.8890 C   0  0  0  0  0  0  0  0  0  0  0  0
   58.7130   32.6810   45.7610 C   0  0  0  0  0  0  0  0  0  0  0  0
   58.5380   34.1650   45.8700 C   0  0  0  0  0  0  0  0  0  0  0  0
   59.5920   31.9530   46.4830 N   0  0  0  0  0  0  0  0  0  0  0  0
   60.5160   32.4850   47.4490 C   0  0  0  0  0  0  0  0  0  0  0  0
   60.1150   32.6680   48.7780 C   0  0  0  0  0  0  0  0  0  0  0  0
   61.0100   33.1830   49.7210 C   0  0  0  0  0  0  0  0  0  0  0  0
   62.3200   33.5320   49.3440 C   0  0  0  0  0  0  0  0  0  0  0  0
   63.2860   34.0710   50.3360 C   0  0  0  0  0  0  0  0  0  0  0  0
   63.2810   35.3110   50.5780 O   0  0  0  0  0  0  0  0  0  0  0  0
   64.2650   33.2030   50.9640 N   0  0  2  0  0  0  0  0  0  0  0  0
   65.6260   33.7560   51.0710 C   0  0  0  0  0  0  0  0  0  0  0  0
   66.1990   32.7140   50.1230 C   0  0  1  0  0  0  0  0  0  0  0  0
   67.0680   31.8320   50.7790 O   0  0  0  0  0  0  0  0  0  0  0  0
   64.7760   32.1770   50.0450 C   0  0  0  0  0  0  0  0  0  0  0  0
   62.7150   33.3420   48.0070 C   0  0  0  0  0  0  0  0  0  0  0  0
   61.8190   32.8270   47.0680 C   0  0  0  0  0  0  0  0  0  0  0  0
   61.0172   29.8840   47.3089 H   0  0  0  0  0  0  0  0  0  0  0  0
   60.1625   28.6572   46.1280 H   0  0  0  0  0  0  0  0  0  0  0  0
   57.9668   29.5563   43.3378 H   0  0  0  0  0  0  0  0  0  0  0  0
   57.2509   32.1849   44.1682 H   0  0  0  0  0  0  0  0  0  0  0  0
   58.5040   34.4532   46.9310 H   0  0  0  0  0  0  0  0  0  0  0  0
   59.3827   34.6708   45.3795 H   0  0  0  0  0  0  0  0  0  0  0  0
   57.5988   34.4605   45.3795 H   0  0  0  0  0  0  0  0  0  0  0  0
   59.0909   32.4054   49.0818 H   0  0  0  0  0  0  0  0  0  0  0  0
   60.6878   33.3162   50.7643 H   0  0  0  0  0  0  0  0  0  0  0  0
   63.9490   32.8060   51.8810 H   0  0  0  0  0  0  0  0  0  0  0  0
   65.7119   34.7860   50.6946 H   0  0  0  0  0  0  0  0  0  0  0  0
   66.0763   33.8752   52.0675 H   0  0  0  0  0  0  0  0  0  0  0  0
   66.7911   32.9684   49.2315 H   0  0  0  0  0  0  0  0  0  0  0  0
   66.5940   30.9620   50.8110 H   0  0  0  0  0  0  0  0  0  0  0  0
   64.3401   32.2352   49.0367 H   0  0  0  0  0  0  0  0  0  0  0  0
   64.5933   31.1170   50.2753 H   0  0  0  0  0  0  0  0  0  0  0  0
   63.7386   33.6014   47.6988 H   0  0  0  0  0  0  0  0  0  0  0  0
   62.1383   32.6894   46.0244 H   0  0  0  0  0  0  0  0  0  0  0  0
  1  2  2  0
  2  3  1  0
  3  4  2  3
  4  5  1  0
  5  6  2  0
  6  7  1  0
  6  8  1  0
  8  9  1  0
  9 10  2  0
  9 11  1  0
 11 12  1  0
 12 13  2  0
  3 14  1  0
 14 15  2  0
 15 16  1  0
 15 17  1  0
 17 18  1  0
 18 19  2  0
 19 20  1  0
 20 21  2  0
 21 22  1  0
 22 23  2  0
 22 24  1  0
 24 25  1  0
 25 26  1  0
 26 27  1  0
 26 28  1  0
 21 29  1  0
 29 30  2  0
 17  2  1  0
 30 18  1  0
 12  5  1  0
 28 24  1  0
  1 31  1  0
  1 32  1  0
  4 33  1  0
 14 34  1  0
 16 35  1  0
 16 36  1  0
 16 37  1  0
 19 38  1  0
 20 39  1  0
 24 40  1  1
 25 41  1  0
 25 42  1  0
 26 43  1  6
 27 44  1  0
 28 45  1  0
 28 46  1  0
 29 47  1  0
 30 48  1  0
M  CHG  4   7  -1   8  -1  11  -1  24   1
M  END
>  <UniqueID>  (76) 
68

>  <SMILES>  (76) 
C=c1c(=Cc2c([O-])[n-]c(=O)[n-]c2=O)cc(C)n1-c1ccc(C(=O)[NH+]2CC(O)C2)cc1

>  <Energy>  (76) 
178.32336290347445

>  <Genealogy>  (76) 
C=c1c(=Cc2c([O-])[n-]c(=O)[n-]c2=O)cc(C)n1-c1ccc(C(=O)[NH+]2CC(O)C2)cc1 (protonated)
C=c1c(=Cc2c([O-])[n-]c(=O)[n-]c2=O)cc(C)n1-c1ccc(C(=O)[NH+]2CC(O)C2)cc1 (3D coordinates assigned)
C=c1c(=Cc2c([O-])[n-]c(=O)[n-]c2=O)cc(C)n1-c1ccc(C(=O)[NH+]2CC(O)C2)cc1 (nonaromatic ring conformer: 178.32336290347445 kcal/mol)

>  <smiles>  (76) 
C=c1c(=Cc2c(O)[nH]c(=O)[nH]c2=O)cc(C)n1-c1ccc(C(=O)N2CC(O)C2)cc1

>  <score_type>  (76) 
oracle

>  <origin>  (76) 
adg

>  <m_score__min__energy>  (76) 
-14.48

>  <m_primary>  (76) 
energy

$$$$
76:0
     RDKit          3D

 76 81  0  0  0  0  0  0  0  0999 V2000
   55.1520   28.9710   44.5090 N   0  0  0  0  0  0  0  0  0  0  0  0
   56.5200   30.0090   44.3050 S   0  0  0  0  0  0  0  0  0  0  0  0
   56.8840   30.0810   42.8490 O   0  0  0  0  0  0  0  0  0  0  0  0
   56.1590   31.3860   44.7960 O   0  0  0  0  0  0  0  0  0  0  0  0
   57.8730   29.3720   45.2280 C   0  0  0  0  0  0  0  0  0  0  0  0
   58.0730   27.9860   45.3120 C   0  0  0  0  0  0  0  0  0  0  0  0
   59.1100   27.4710   46.0970 C   0  0  0  0  0  0  0  0  0  0  0  0
   59.9420   28.3370   46.8120 C   0  0  0  0  0  0  0  0  0  0  0  0
   59.7420   29.7230   46.7410 C   0  0  0  0  0  0  0  0  0  0  0  0
   60.5670   30.6370   47.5350 C   0  0  0  0  0  0  0  0  0  0  0  0
   61.6870   30.9980   47.0920 O   0  0  0  0  0  0  0  0  0  0  0  0
   60.0890   31.1530   48.7920 N   0  0  0  0  0  0  0  0  0  0  0  0
   59.8390   32.6170   48.8740 C   0  0  1  0  0  0  0  0  0  0  0  0
   58.7010   33.0410   47.9640 C   0  0  0  0  0  0  0  0  0  0  0  0
   57.5300   32.6990   48.2800 O   0  0  0  0  0  0  0  0  0  0  0  0
   58.9160   33.7120   46.7080 N   0  0  0  0  0  0  0  0  0  0  0  0
   59.6550   34.9560   46.5520 C   0  0  0  0  0  0  0  0  0  0  0  0
   59.5100   35.3390   45.0880 C   0  0  0  0  0  0  0  0  0  0  0  0
   58.2840   34.5810   44.5900 C   0  0  0  0  0  0  0  0  0  0  0  0
   58.1330   33.3900   45.5250 C   0  0  0  0  0  0  0  0  0  0  0  0
   59.6180   33.1640   50.3100 C   0  0  0  0  0  0  0  0  0  0  0  0
   58.9320   32.1620   51.1610 C   0  0  0  0  0  0  0  0  0  0  0  0
   59.1130   30.8190   51.0220 C   0  0  0  0  0  0  0  0  0  0  0  0
   58.3430   30.2100   51.9940 C   0  0  0  0  0  0  0  0  0  0  0  0
   58.2300   28.8300   52.1620 O   0  0  0  0  0  0  0  0  0  0  0  0
   57.7070   31.1480   52.7390 N   0  0  0  0  0  0  0  0  0  0  0  0
   56.7030   30.9420   53.7860 C   0  0  0  0  0  0  0  0  0  0  0  0
   55.4000   30.5000   53.1750 C   0  0  0  0  0  0  0  0  0  0  0  0
   54.7030   29.4070   53.7150 C   0  0  0  0  0  0  0  0  0  0  0  0
   53.5050   28.9780   53.1330 C   0  0  0  0  0  0  0  0  0  0  0  0
   52.9950   29.6350   52.0100 C   0  0  0  0  0  0  0  0  0  0  0  0
   53.6870   30.7180   51.4640 C   0  0  0  0  0  0  0  0  0  0  0  0
   54.8880   31.1490   52.0400 C   0  0  0  0  0  0  0  0  0  0  0  0
   58.0730   32.3420   52.2220 C   0  0  0  0  0  0  0  0  0  0  0  0
   57.6200   33.5680   52.6920 O   0  0  0  0  0  0  0  0  0  0  0  0
   59.9270   30.2070   49.9250 C   0  0  2  0  0  0  0  0  0  0  0  0
   61.2930   29.7060   50.4490 C   0  0  0  0  0  0  0  0  0  0  0  0
   61.1750   28.5240   51.3830 C   0  0  0  0  0  0  0  0  0  0  0  0
   61.4710   28.6700   52.7500 C   0  0  0  0  0  0  0  0  0  0  0  0
   61.3940   27.5710   53.6070 C   0  0  0  0  0  0  0  0  0  0  0  0
   61.0270   26.3180   53.1120 C   0  0  0  0  0  0  0  0  0  0  0  0
   60.7340   26.1620   51.7550 C   0  0  0  0  0  0  0  0  0  0  0  0
   60.3720   24.9150   51.2590 O   0  0  0  0  0  0  0  0  0  0  0  0
   60.8080   27.2610   50.8920 C   0  0  0  0  0  0  0  0  0  0  0  0
   58.7280   30.2400   45.9200 C   0  0  0  0  0  0  0  0  0  0  0  0
   54.5930   29.3470   45.3100 H   0  0  0  0  0  0  0  0  0  0  0  0
   57.4124   27.3021   44.7589 H   0  0  0  0  0  0  0  0  0  0  0  0
   59.2707   26.3842   46.1516 H   0  0  0  0  0  0  0  0  0  0  0  0
   60.7551   27.9306   47.4315 H   0  0  0  0  0  0  0  0  0  0  0  0
   60.7767   33.0734   48.5241 H   0  0  0  0  0  0  0  0  0  0  0  0
   59.2294   35.7386   47.1973 H   0  0  0  0  0  0  0  0  0  0  0  0
   60.7106   34.8402   46.8390 H   0  0  0  0  0  0  0  0  0  0  0  0
   59.3588   36.4239   44.9873 H   0  0  0  0  0  0  0  0  0  0  0  0
   60.4101   35.0866   44.5083 H   0  0  0  0  0  0  0  0  0  0  0  0
   57.3911   35.2217   44.6367 H   0  0  0  0  0  0  0  0  0  0  0  0
   58.3980   34.2649   43.5426 H   0  0  0  0  0  0  0  0  0  0  0  0
   57.0760   33.2453   45.7931 H   0  0  0  0  0  0  0  0  0  0  0  0
   58.4783   32.4585   45.0526 H   0  0  0  0  0  0  0  0  0  0  0  0
   60.5935   33.4074   50.7562 H   0  0  0  0  0  0  0  0  0  0  0  0
   58.9868   34.0628   50.2492 H   0  0  0  0  0  0  0  0  0  0  0  0
   58.9420   28.2830   52.6270 H   0  0  0  0  0  0  0  0  0  0  0  0
   57.0583   30.1691   54.4835 H   0  0  0  0  0  0  0  0  0  0  0  0
   56.5451   31.8884   54.3240 H   0  0  0  0  0  0  0  0  0  0  0  0
   55.1002   28.8862   54.5987 H   0  0  0  0  0  0  0  0  0  0  0  0
   52.9633   28.1214   53.5605 H   0  0  0  0  0  0  0  0  0  0  0  0
   52.0503   29.2997   51.5571 H   0  0  0  0  0  0  0  0  0  0  0  0
   53.2873   31.2341   50.5786 H   0  0  0  0  0  0  0  0  0  0  0  0
   55.4322   31.9987   51.6021 H   0  0  0  0  0  0  0  0  0  0  0  0
   59.3813   29.3288   49.5495 H   0  0  0  0  0  0  0  0  0  0  0  0
   61.9109   29.4110   49.5881 H   0  0  0  0  0  0  0  0  0  0  0  0
   61.7463   30.5298   51.0199 H   0  0  0  0  0  0  0  0  0  0  0  0
   61.7642   29.6538   53.1453 H   0  0  0  0  0  0  0  0  0  0  0  0
   61.6232   27.6924   54.6760 H   0  0  0  0  0  0  0  0  0  0  0  0
   60.9686   25.4540   53.7903 H   0  0  0  0  0  0  0  0  0  0  0  0
   60.5775   27.1347   49.8238 H   0  0  0  0  0  0  0  0  0  0  0  0
   58.6042   31.3284   45.8196 H   0  0  0  0  0  0  0  0  0  0  0  0
  1  2  1  0
  2  3  2  0
  2  4  2  0
  2  5  1  0
  5  6  2  0
  6  7  1  0
  7  8  2  0
  8  9  1  0
  9 10  1  0
 10 11  2  0
 10 12  1  0
 12 13  1  0
 13 14  1  0
 14 15  2  0
 14 16  1  0
 16 17  1  0
 17 18  1  0
 18 19  1  0
 19 20  1  0
 13 21  1  0
 21 22  1  0
 22 23  1  0
 23 24  2  0
 24 25  1  0
 24 26  1  0
 26 27  1  0
 27 28  1  0
 28 29  2  0
 29 30  1  0
 30 31  2  0
 31 32  1  0
 32 33  2  0
 26 34  1  0
 34 35  1  0
 23 36  1  0
 36 37  1  0
 37 38  1  0
 38 39  2  0
 39 40  1  0
 40 41  2  0
 41 42  1  0
 42 43  1  0
 42 44  2  0
  9 45  2  0
 45  5  1  0
 36 12  1  0
 44 38  1  0
 20 16  1  0
 34 22  2  0
 33 28  1  0
  1 46  1  0
  6 47  1  0
  7 48  1  0
  8 49  1  0
 13 50  1  6
 17 51  1  0
 17 52  1  0
 18 53  1  0
 18 54  1  0
 19 55  1  0
 19 56  1  0
 20 57  1  0
 20 58  1  0
 21 59  1  0
 21 60  1  0
 25 61  1  0
 27 62  1  0
 27 63  1  0
 29 64  1  0
 30 65  1  0
 31 66  1  0
 32 67  1  0
 33 68  1  0
 36 69  1  6
 37 70  1  0
 37 71  1  0
 39 72  1  0
 40 73  1  0
 41 74  1  0
 44 75  1  0
 45 76  1  0
M  CHG  3   1  -1  35  -1  43  -1
M  END
>  <UniqueID>  (77) 
69

>  <SMILES>  (77) 
[NH-]S(=O)(=O)c1cccc(C(=O)N2[C@@H](C(=O)N3CCCC3)Cc3c(c(O)n(Cc4ccccc4)c3[O-])[C@@H]2Cc2cccc([O-])c2)c1

>  <Energy>  (77) 
123.68754506990038

>  <Genealogy>  (77) 
[NH-]S(=O)(=O)c1cccc(C(=O)N2C(C(=O)N3CCCC3)Cc3c(c(O)n(Cc4ccccc4)c3[O-])C2Cc2cccc([O-])c2)c1 (protonated)
[NH-]S(=O)(=O)c1cccc(C(=O)N2[C@@H](C(=O)N3CCCC3)Cc3c(c(O)n(Cc4ccccc4)c3[O-])[C@@H]2Cc2cccc([O-])c2)c1 (chirality)
[NH-]S(=O)(=O)c1cccc(C(=O)N2[C@@H](C(=O)N3CCCC3)Cc3c(c(O)n(Cc4ccccc4)c3[O-])[C@@H]2Cc2cccc([O-])c2)c1 (3D coordinates assigned)
[NH-]S(=O)(=O)c1cccc(C(=O)N2[C@@H](C(=O)N3CCCC3)Cc3c(c(O)n(Cc4ccccc4)c3[O-])[C@@H]2Cc2cccc([O-])c2)c1 (nonaromatic ring conformer: 123.68754506990038 kcal/mol)

>  <smiles>  (77) 
NS(=O)(=O)c1cccc(C(=O)N2C(C(=O)N3CCCC3)Cc3c(c(O)n(Cc4ccccc4)c3O)C2Cc2cccc(O)c2)c1

>  <score_type>  (77) 
oracle

>  <origin>  (77) 
adg

>  <m_score__min__energy>  (77) 
-16.620000000000001

>  <m_primary>  (77) 
energy

$$$$
77:0
     RDKit          3D

 48 51  0  0  0  0  0  0  0  0999 V2000
   55.9700   28.4450   44.2620 H   0  0  0  0  0  0  0  0  0  0  0  0
   55.7900   28.2900   45.2460 O   0  0  0  0  0  0  0  0  0  0  0  0
   56.0920   27.0760   45.8560 C   0  0  0  0  0  0  0  0  0  0  0  0
   55.1720   26.1360   46.1280 N   0  0  0  0  0  0  0  0  0  0  0  0
   55.9070   25.1500   46.6840 C   0  0  0  0  0  0  0  0  0  0  0  0
   55.4010   24.0680   47.0800 O   0  0  0  0  0  0  0  0  0  0  0  0
   57.2290   25.4100   46.7730 N   0  0  0  0  0  0  0  0  0  0  0  0
   57.3370   26.6520   46.2650 C   0  0  0  0  0  0  0  0  0  0  0  0
   58.6140   27.3450   46.0220 C   0  0  0  0  0  0  0  0  0  0  0  0
   59.4334   26.7549   45.5858 H   0  0  0  0  0  0  0  0  0  0  0  0
   58.8610   28.6420   46.2900 C   0  0  0  0  0  0  0  0  0  0  0  0
   59.5590   29.0550   47.4130 C   0  0  0  0  0  0  0  0  0  0  0  0
   60.0372   28.4077   48.1628 H   0  0  0  0  0  0  0  0  0  0  0  0
   59.5390   30.4320   47.4100 C   0  0  0  0  0  0  0  0  0  0  0  0
   60.1060   31.2660   48.4880 C   0  0  0  0  0  0  0  0  0  0  0  0
   59.3470   31.6170   49.4300 O   0  0  0  0  0  0  0  0  0  0  0  0
   61.5370   31.7660   48.4820 C   0  0  0  0  0  0  0  0  0  0  0  0
   62.0186   31.2432   49.3214 H   0  0  0  0  0  0  0  0  0  0  0  0
   62.2620   31.4000   47.1770 C   0  0  0  0  0  0  0  0  0  0  0  0
   62.1749   30.3161   47.0108 H   0  0  0  0  0  0  0  0  0  0  0  0
   61.7957   31.9594   46.3526 H   0  0  0  0  0  0  0  0  0  0  0  0
   63.7590   31.7810   47.2390 C   0  0  0  0  0  0  0  0  0  0  0  0
   64.3483   30.8664   47.4010 H   0  0  0  0  0  0  0  0  0  0  0  0
   64.0171   32.2685   46.2873 H   0  0  0  0  0  0  0  0  0  0  0  0
   64.0600   32.7340   48.3230 N   0  0  0  0  0  0  0  0  0  0  0  0
   64.9980   33.1570   48.1290 H   0  0  0  0  0  0  0  0  0  0  0  0
   63.0700   33.8170   48.3660 C   0  0  0  0  0  0  0  0  0  0  0  0
   63.3931   34.5710   49.0989 H   0  0  0  0  0  0  0  0  0  0  0  0
   62.9938   34.2627   47.3632 H   0  0  0  0  0  0  0  0  0  0  0  0
   61.6840   33.2810   48.7720 C   0  0  0  0  0  0  0  0  0  0  0  0
   61.5393   33.4516   49.8490 H   0  0  0  0  0  0  0  0  0  0  0  0
   60.9273   33.8145   48.1781 H   0  0  0  0  0  0  0  0  0  0  0  0
   58.8970   30.8940   46.3140 N   0  0  0  0  0  0  0  0  0  0  0  0
   58.7710   32.2750   45.9340 C   0  0  0  0  0  0  0  0  0  0  0  0
   57.5290   32.7830   45.5220 C   0  0  0  0  0  0  0  0  0  0  0  0
   56.6527   32.1197   45.4767 H   0  0  0  0  0  0  0  0  0  0  0  0
   57.4030   34.1300   45.1690 C   0  0  0  0  0  0  0  0  0  0  0  0
   56.4279   34.5250   44.8477 H   0  0  0  0  0  0  0  0  0  0  0  0
   58.5150   34.9750   45.2240 C   0  0  0  0  0  0  0  0  0  0  0  0
   58.4141   36.0352   44.9487 H   0  0  0  0  0  0  0  0  0  0  0  0
   59.7560   34.4730   45.6290 C   0  0  0  0  0  0  0  0  0  0  0  0
   60.6314   35.1379   45.6681 H   0  0  0  0  0  0  0  0  0  0  0  0
   59.8850   33.1280   45.9840 C   0  0  0  0  0  0  0  0  0  0  0  0
   60.8620   32.7363   46.3035 H   0  0  0  0  0  0  0  0  0  0  0  0
   58.5060   29.8100   45.5960 C   0  0  0  0  0  0  0  0  0  0  0  0
   58.0180   29.8910   44.3490 C   0  0  0  0  0  0  0  0  0  0  0  0
   57.7774   30.8728   43.9152 H   0  0  0  0  0  0  0  0  0  0  0  0
   57.8585   28.9756   43.7603 H   0  0  0  0  0  0  0  0  0  0  0  0
  1  2  1  0
  2  3  1  0
  3  4  1  0
  4  5  1  0
  5  6  2  0
  5  7  1  0
  7  8  1  0
  8  9  1  0
  9 10  1  0
  9 11  2  0
 11 12  1  0
 12 13  1  0
 12 14  2  0
 14 15  1  0
 15 16  2  0
 15 17  1  0
 17 18  1  0
 17 19  1  0
 19 20  1  0
 19 21  1  0
 19 22  1  0
 22 23  1  0
 22 24  1  0
 22 25  1  0
 25 26  1  0
 25 27  1  0
 27 28  1  0
 27 29  1  0
 27 30  1  0
 30 31  1  0
 30 32  1  0
 14 33  1  0
 33 34  1  0
 34 35  2  0
 35 36  1  0
 35 37  1  0
 37 38  1  0
 37 39  2  0
 39 40  1  0
 39 41  1  0
 41 42  1  0
 41 43  2  0
 43 44  1  0
 33 45  1  0
 45 46  2  0
 46 47  1  0
 46 48  1  0
  8  3  2  0
 45 11  1  0
 30 17  1  0
 43 34  1  0
M  CHG  2   4  -1   7  -1
M  END
>  <UniqueID>  (78) 
70

>  <SMILES>  (78) 
C=c1/c(=C\c2[n-]c(=O)[n-]c2O)cc(C(=O)C2CCNCC2)n1-c1ccccc1

>  <Energy>  (78) 
135.94760111282352

>  <Genealogy>  (78) 
C=c1c(=Cc2[n-]c(=O)[n-]c2O)cc(C(=O)C2CCNCC2)n1-c1ccccc1 (protonated)
C=c1/c(=C\c2[n-]c(=O)[n-]c2O)cc(C(=O)C2CCNCC2)n1-c1ccccc1 (cis-trans isomerization)
C=c1/c(=C\c2[n-]c(=O)[n-]c2O)cc(C(=O)C2CCNCC2)n1-c1ccccc1 (3D coordinates assigned)
C=c1/c(=C\c2[n-]c(=O)[n-]c2O)cc(C(=O)C2CCNCC2)n1-c1ccccc1 (nonaromatic ring conformer: 135.94760111282352 kcal/mol)

>  <smiles>  (78) 
C=c1c(=Cc2[nH]c(=O)[nH]c2O)cc(C(=O)C2CCNCC2)n1-c1ccccc1

>  <score_type>  (78) 
oracle

>  <origin>  (78) 
adg

>  <m_score__min__energy>  (78) 
-14.02

>  <m_primary>  (78) 
energy

$$$$
78:0
     RDKit          3D

 61 64  0  0  0  0  0  0  0  0999 V2000
   68.0370   34.1240   51.1010 C   0  0  0  0  0  0  0  0  0  0  0  0
   67.3980   33.1130   50.1500 C   0  0  0  0  0  0  0  0  0  0  0  0
   66.3010   32.3860   50.8130 N   0  0  0  0  0  0  0  0  0  0  0  0
   66.6700   31.3350   51.7760 C   0  0  0  0  0  0  0  0  0  0  0  0
   67.0900   30.0570   51.0530 C   0  0  0  0  0  0  0  0  0  0  0  0
   64.9060   32.6980   50.5310 C   0  0  0  0  0  0  0  0  0  0  0  0
   64.3470   33.9380   50.9090 C   0  0  0  0  0  0  0  0  0  0  0  0
   63.0060   34.2310   50.6480 C   0  0  0  0  0  0  0  0  0  0  0  0
   62.1900   33.3040   49.9850 C   0  0  0  0  0  0  0  0  0  0  0  0
   60.7570   33.5670   49.7420 C   0  0  0  0  0  0  0  0  0  0  0  0
   60.1500   33.3850   48.5590 C   0  0  0  0  0  0  0  0  0  0  0  0
   59.8790   34.6480   47.3150 S   0  0  0  0  0  0  0  0  0  0  0  0
   59.2460   33.3400   46.2430 C   0  0  0  0  0  0  0  0  0  0  0  0
   58.8480   33.6180   44.8940 N   0  0  0  0  0  0  0  0  0  0  0  0
   58.1620   32.6780   44.0470 C   0  0  0  0  0  0  0  0  0  0  0  0
   58.0990   32.8620   42.6550 C   0  0  0  0  0  0  0  0  0  0  0  0
   57.4430   31.9280   41.8510 C   0  0  0  0  0  0  0  0  0  0  0  0
   56.8560   30.7970   42.4220 C   0  0  0  0  0  0  0  0  0  0  0  0
   56.9290   30.5800   43.8110 C   0  0  0  0  0  0  0  0  0  0  0  0
   56.3180   29.3750   44.4200 C   0  0  0  0  0  0  0  0  0  0  0  0
   55.1720   29.4440   44.9440 O   0  0  0  0  0  0  0  0  0  0  0  0
   57.0330   28.1320   44.4340 N   0  0  0  0  0  0  0  0  0  0  0  0
   57.8930   27.7080   45.5010 C   0  0  0  0  0  0  0  0  0  0  0  0
   59.2040   28.2050   45.5260 C   0  0  0  0  0  0  0  0  0  0  0  0
   60.0680   27.8810   46.5730 C   0  0  0  0  0  0  0  0  0  0  0  0
   59.6310   27.0510   47.6040 C   0  0  0  0  0  0  0  0  0  0  0  0
   58.3390   26.5200   47.5780 C   0  0  0  0  0  0  0  0  0  0  0  0
   57.4620   26.8180   46.5200 C   0  0  0  0  0  0  0  0  0  0  0  0
   56.1480   26.1320   46.4770 C   0  0  0  0  0  0  0  0  0  0  0  0
   55.1360   26.7000   45.9870 O   0  0  0  0  0  0  0  0  0  0  0  0
   56.0270   24.8260   46.9390 O   0  0  0  0  0  0  0  0  0  0  0  0
   57.5920   31.5290   44.6150 C   0  0  0  0  0  0  0  0  0  0  0  0
   59.2480   32.1360   46.7210 N   0  0  0  0  0  0  0  0  0  0  0  0
   59.7430   32.0890   48.0450 C   0  0  0  0  0  0  0  0  0  0  0  0
   59.8230   31.0120   48.6940 O   0  0  0  0  0  0  0  0  0  0  0  0
   62.7260   32.0620   49.6260 C   0  0  0  0  0  0  0  0  0  0  0  0
   64.0670   31.7650   49.8830 C   0  0  0  0  0  0  0  0  0  0  0  0
   67.8455   33.8210   52.1410 H   0  0  0  0  0  0  0  0  0  0  0  0
   69.1220   34.1596   50.9233 H   0  0  0  0  0  0  0  0  0  0  0  0
   67.6036   35.1193   50.9233 H   0  0  0  0  0  0  0  0  0  0  0  0
   66.9992   33.6453   49.2739 H   0  0  0  0  0  0  0  0  0  0  0  0
   68.1650   32.3868   49.8429 H   0  0  0  0  0  0  0  0  0  0  0  0
   67.5073   31.6908   52.3943 H   0  0  0  0  0  0  0  0  0  0  0  0
   65.7957   31.1119   52.4052 H   0  0  0  0  0  0  0  0  0  0  0  0
   67.3441   29.2837   51.7929 H   0  0  0  0  0  0  0  0  0  0  0  0
   66.2609   29.7030   50.4227 H   0  0  0  0  0  0  0  0  0  0  0  0
   67.9674   30.2638   50.4227 H   0  0  0  0  0  0  0  0  0  0  0  0
   64.9762   34.6842   51.4163 H   0  0  0  0  0  0  0  0  0  0  0  0
   62.5871   35.1973   50.9655 H   0  0  0  0  0  0  0  0  0  0  0  0
   60.1500   33.9347   50.5824 H   0  0  0  0  0  0  0  0  0  0  0  0
   59.1550   34.5260   44.4800 H   0  0  0  0  0  0  0  0  0  0  0  0
   58.5684   33.7453   42.1973 H   0  0  0  0  0  0  0  0  0  0  0  0
   57.3883   32.0837   40.7634 H   0  0  0  0  0  0  0  0  0  0  0  0
   56.3331   30.0708   41.7823 H   0  0  0  0  0  0  0  0  0  0  0  0
   59.5549   28.8567   44.7123 H   0  0  0  0  0  0  0  0  0  0  0  0
   61.0929   28.2803   46.5846 H   0  0  0  0  0  0  0  0  0  0  0  0
   60.3051   26.8135   48.4402 H   0  0  0  0  0  0  0  0  0  0  0  0
   58.0044   25.8620   48.3935 H   0  0  0  0  0  0  0  0  0  0  0  0
   57.6633   31.3667   45.7006 H   0  0  0  0  0  0  0  0  0  0  0  0
   62.0858   31.3129   49.1371 H   0  0  0  0  0  0  0  0  0  0  0  0
   64.4749   30.7906   49.5762 H   0  0  0  0  0  0  0  0  0  0  0  0
  1  2  1  0
  2  3  1  0
  3  4  1  0
  4  5  1  0
  3  6  1  0
  6  7  2  0
  7  8  1  0
  8  9  2  0
  9 10  1  0
 10 11  2  3
 11 12  1  0
 12 13  1  0
 13 14  1  0
 14 15  1  0
 15 16  2  0
 16 17  1  0
 17 18  2  0
 18 19  1  0
 19 20  1  0
 20 21  2  0
 20 22  1  0
 22 23  1  0
 23 24  2  0
 24 25  1  0
 25 26  2  0
 26 27  1  0
 27 28  2  0
 28 29  1  0
 29 30  2  0
 29 31  1  0
 19 32  2  0
 13 33  2  0
 33 34  1  0
 34 35  2  0
  9 36  1  0
 36 37  2  0
 37  6  1  0
 34 11  1  0
 32 15  1  0
 28 23  1  0
  1 38  1  0
  1 39  1  0
  1 40  1  0
  2 41  1  0
  2 42  1  0
  4 43  1  0
  4 44  1  0
  5 45  1  0
  5 46  1  0
  5 47  1  0
  7 48  1  0
  8 49  1  0
 10 50  1  0
 14 51  1  0
 16 52  1  0
 17 53  1  0
 18 54  1  0
 24 55  1  0
 25 56  1  0
 26 57  1  0
 27 58  1  0
 32 59  1  0
 36 60  1  0
 37 61  1  0
M  CHG  2  22  -1  31  -1
M  END
>  <UniqueID>  (79) 
71

>  <SMILES>  (79) 
CCN(CC)c1ccc(C=C2SC(Nc3cccc(C(=O)[N-]c4ccccc4C(=O)[O-])c3)=NC2=O)cc1

>  <Energy>  (79) 
103.20828892747498

>  <Genealogy>  (79) 
CCN(CC)c1ccc(C=C2SC(Nc3cccc(C(=O)[N-]c4ccccc4C(=O)[O-])c3)=NC2=O)cc1 (protonated)
CCN(CC)c1ccc(C=C2SC(Nc3cccc(C(=O)[N-]c4ccccc4C(=O)[O-])c3)=NC2=O)cc1 (3D coordinates assigned)
CCN(CC)c1ccc(C=C2SC(Nc3cccc(C(=O)[N-]c4ccccc4C(=O)[O-])c3)=NC2=O)cc1 (nonaromatic ring conformer: 103.20828892747498 kcal/mol)

>  <smiles>  (79) 
CCN(CC)c1ccc(C=C2SC(Nc3cccc(C(=O)Nc4ccccc4C(=O)O)c3)=NC2=O)cc1

>  <score_type>  (79) 
oracle

>  <origin>  (79) 
adg

>  <m_score__min__energy>  (79) 
-15.19

>  <m_primary>  (79) 
energy

$$$$
79:0
     RDKit          3D

 56 59  0  0  0  0  0  0  0  0999 V2000
   62.5930   29.4400   50.9760 C   0  0  0  0  0  0  0  0  0  0  0  0
   62.2640   28.2590   51.5060 C   0  0  0  0  0  0  0  0  0  0  0  0
   61.0690   27.4770   51.0290 C   0  0  0  0  0  0  0  0  0  0  0  0
   60.3160   28.2610   50.0240 N   0  0  0  0  0  0  0  0  0  0  0  0
   59.5510   29.3460   50.3960 C   0  0  0  0  0  0  0  0  0  0  0  0
   59.4160   29.8340   51.9610 S   0  0  0  0  0  0  0  0  0  0  0  0
   58.8850   30.0680   49.4590 N   0  0  0  0  0  0  0  0  0  0  0  0
   58.9530   29.7640   48.1430 C   0  0  0  0  0  0  0  0  0  0  0  0
   58.2650   30.5470   47.2100 C   0  0  0  0  0  0  0  0  0  0  0  0
   58.3800   30.2760   45.8390 C   0  0  0  0  0  0  0  0  0  0  0  0
   57.7240   31.1470   44.8520 C   0  0  0  0  0  0  0  0  0  0  0  0
   56.5430   30.8930   44.4940 O   0  0  0  0  0  0  0  0  0  0  0  0
   58.3860   32.2890   44.2910 N   0  0  0  0  0  0  0  0  0  0  0  0
   58.5350   33.6090   44.9210 C   0  0  2  0  0  0  0  0  0  0  0  0
   59.9900   33.8620   45.3670 C   0  0  0  0  0  0  0  0  0  0  0  0
   60.0330   35.0330   46.3590 C   0  0  0  0  0  0  0  0  0  0  0  0
   59.2910   34.7450   47.6210 N   0  0  2  0  0  0  0  0  0  0  0  0
   60.2360   34.3060   48.6810 C   0  0  0  0  0  0  0  0  0  0  0  0
   61.3390   33.4170   48.1480 C   0  0  0  0  0  0  0  0  0  0  0  0
   62.6200   33.9430   47.9090 C   0  0  0  0  0  0  0  0  0  0  0  0
   63.6360   33.1270   47.4050 C   0  0  0  0  0  0  0  0  0  0  0  0
   63.3790   31.7820   47.1260 C   0  0  0  0  0  0  0  0  0  0  0  0
   62.1080   31.2490   47.3620 C   0  0  0  0  0  0  0  0  0  0  0  0
   61.0910   32.0610   47.8740 C   0  0  0  0  0  0  0  0  0  0  0  0
   58.1820   33.7640   47.4500 C   0  0  0  0  0  0  0  0  0  0  0  0
   57.5210   33.8510   46.0640 C   0  0  0  0  0  0  0  0  0  0  0  0
   59.1270   29.1670   45.4150 C   0  0  0  0  0  0  0  0  0  0  0  0
   59.8010   28.3710   46.3460 C   0  0  0  0  0  0  0  0  0  0  0  0
   59.7320   28.6760   47.7180 C   0  0  0  0  0  0  0  0  0  0  0  0
   60.4210   27.9320   48.6920 C   0  0  0  0  0  0  0  0  0  0  0  0
   61.1430   26.9590   48.3300 O   0  0  0  0  0  0  0  0  0  0  0  0
   63.4731   29.9842   51.3490 H   0  0  0  0  0  0  0  0  0  0  0  0
   61.9838   29.8684   50.1665 H   0  0  0  0  0  0  0  0  0  0  0  0
   62.8843   27.8455   52.3148 H   0  0  0  0  0  0  0  0  0  0  0  0
   61.4087   26.5344   50.5751 H   0  0  0  0  0  0  0  0  0  0  0  0
   60.4124   27.2647   51.8856 H   0  0  0  0  0  0  0  0  0  0  0  0
   57.6315   31.3783   47.5531 H   0  0  0  0  0  0  0  0  0  0  0  0
   58.2947   34.3537   44.1479 H   0  0  0  0  0  0  0  0  0  0  0  0
   60.3859   32.9576   45.8521 H   0  0  0  0  0  0  0  0  0  0  0  0
   60.6023   34.1084   44.4870 H   0  0  0  0  0  0  0  0  0  0  0  0
   61.0832   35.2446   46.6085 H   0  0  0  0  0  0  0  0  0  0  0  0
   59.5481   35.8949   45.8774 H   0  0  0  0  0  0  0  0  0  0  0  0
   58.8650   35.6490   47.9360 H   0  0  0  0  0  0  0  0  0  0  0  0
   60.6917   35.1971   49.1374 H   0  0  0  0  0  0  0  0  0  0  0  0
   59.6632   33.7209   49.4155 H   0  0  0  0  0  0  0  0  0  0  0  0
   62.8240   35.0031   48.1199 H   0  0  0  0  0  0  0  0  0  0  0  0
   64.6386   33.5434   47.2277 H   0  0  0  0  0  0  0  0  0  0  0  0
   64.1768   31.1424   46.7206 H   0  0  0  0  0  0  0  0  0  0  0  0
   61.9078   30.1894   47.1446 H   0  0  0  0  0  0  0  0  0  0  0  0
   60.0937   31.6370   48.0629 H   0  0  0  0  0  0  0  0  0  0  0  0
   58.5857   32.7496   47.5843 H   0  0  0  0  0  0  0  0  0  0  0  0
   57.4125   33.9983   48.2004 H   0  0  0  0  0  0  0  0  0  0  0  0
   56.7273   33.0920   46.0010 H   0  0  0  0  0  0  0  0  0  0  0  0
   57.1124   34.8655   45.9460 H   0  0  0  0  0  0  0  0  0  0  0  0
   59.1828   28.9223   44.3440 H   0  0  0  0  0  0  0  0  0  0  0  0
   60.3865   27.5044   46.0052 H   0  0  0  0  0  0  0  0  0  0  0  0
  1  2  2  0
  2  3  1  0
  3  4  1  0
  4  5  1  0
  5  6  2  0
  5  7  1  0
  7  8  1  0
  8  9  2  0
  9 10  1  0
 10 11  1  0
 11 12  2  0
 11 13  1  0
 13 14  1  0
 14 15  1  0
 15 16  1  0
 16 17  1  0
 17 18  1  0
 18 19  1  0
 19 20  2  0
 20 21  1  0
 21 22  2  0
 22 23  1  0
 23 24  2  0
 17 25  1  0
 25 26  1  0
 10 27  2  0
 27 28  1  0
 28 29  2  0
 29 30  1  0
 30 31  2  0
 30  4  1  0
 29  8  1  0
 26 14  1  0
 24 19  1  0
  1 32  1  0
  1 33  1  0
  2 34  1  0
  3 35  1  0
  3 36  1  0
  9 37  1  0
 14 38  1  6
 15 39  1  0
 15 40  1  0
 16 41  1  0
 16 42  1  0
 17 43  1  1
 18 44  1  0
 18 45  1  0
 20 46  1  0
 21 47  1  0
 22 48  1  0
 23 49  1  0
 24 50  1  0
 25 51  1  0
 25 52  1  0
 26 53  1  0
 26 54  1  0
 27 55  1  0
 28 56  1  0
M  CHG  3   7  -1  13  -1  17   1
M  END
>  <UniqueID>  (80) 
72

>  <SMILES>  (80) 
C=CCn1c(=S)[n-]c2cc(C(=O)[N-]C3CC[NH+](Cc4ccccc4)CC3)ccc2c1=O

>  <Energy>  (80) 
82.59286962413196

>  <Genealogy>  (80) 
C=CCn1c(=S)[n-]c2cc(C(=O)[N-]C3CC[NH+](Cc4ccccc4)CC3)ccc2c1=O (protonated)
C=CCn1c(=S)[n-]c2cc(C(=O)[N-]C3CC[NH+](Cc4ccccc4)CC3)ccc2c1=O (3D coordinates assigned)
C=CCn1c(=S)[n-]c2cc(C(=O)[N-]C3CC[NH+](Cc4ccccc4)CC3)ccc2c1=O (nonaromatic ring conformer: 82.59286962413196 kcal/mol)

>  <smiles>  (80) 
C=CCn1c(=S)[nH]c2cc(C(=O)NC3CCN(Cc4ccccc4)CC3)ccc2c1=O

>  <score_type>  (80) 
oracle

>  <origin>  (80) 
adg

>  <m_score__min__energy>  (80) 
-10.539999999999999

>  <m_primary>  (80) 
energy

$$$$
80:0
     RDKit          3D

 42 44  0  0  0  0  0  0  0  0999 V2000
   55.0832   28.7331   53.7558 H   0  0  0  0  0  0  0  0  0  0  0  0
   54.9820   29.3620   52.8590 C   0  0  0  0  0  0  0  0  0  0  0  0
   53.8290   29.3530   52.1780 C   0  0  0  0  0  0  0  0  0  0  0  0
   53.6241   28.4981   51.5169 H   0  0  0  0  0  0  0  0  0  0  0  0
   52.8120   30.4300   52.2640 C   0  0  0  0  0  0  0  0  0  0  0  0
   52.2820   30.8780   53.4910 C   0  0  0  0  0  0  0  0  0  0  0  0
   52.6160   30.4164   54.4320 H   0  0  0  0  0  0  0  0  0  0  0  0
   51.3340   31.9060   53.5190 C   0  0  0  0  0  0  0  0  0  0  0  0
   50.9218   32.2454   54.4807 H   0  0  0  0  0  0  0  0  0  0  0  0
   50.9090   32.5030   52.3300 C   0  0  0  0  0  0  0  0  0  0  0  0
   49.9650   33.5230   52.3660 O   0  0  0  0  0  0  0  0  0  0  0  0
   51.4390   32.0770   51.1070 C   0  0  0  0  0  0  0  0  0  0  0  0
   51.0250   32.6730   49.9210 O   0  0  0  0  0  0  0  0  0  0  0  0
   52.3880   31.0500   51.0760 C   0  0  0  0  0  0  0  0  0  0  0  0
   52.8067   30.7243   50.1123 H   0  0  0  0  0  0  0  0  0  0  0  0
   56.1160   30.1960   52.4320 C   0  0  0  0  0  0  0  0  0  0  0  0
   56.2200   30.8120   51.2800 O   0  0  0  0  0  0  0  0  0  0  0  0
   57.3740   31.4420   51.2910 C   0  0  0  0  0  0  0  0  0  0  0  0
   57.7830   32.1620   50.2880 N   0  0  0  0  0  0  0  0  0  0  0  0
   58.8290   31.8340   49.3580 C   0  0  0  0  0  0  0  0  0  0  0  0
   60.0100   31.7410   49.7800 O   0  0  0  0  0  0  0  0  0  0  0  0
   58.5630   31.5690   47.9730 N   0  0  0  0  0  0  0  0  0  0  0  0
   58.4440   32.4300   47.0010 C   0  0  0  0  0  0  0  0  0  0  0  0
   59.0290   33.6500   47.1610 N   0  0  0  0  0  0  0  0  0  0  0  0
   58.9710   34.6200   46.2110 C   0  0  0  0  0  0  0  0  0  0  0  0
   59.4588   35.5903   46.3856 H   0  0  0  0  0  0  0  0  0  0  0  0
   58.2940   34.3860   45.0160 C   0  0  0  0  0  0  0  0  0  0  0  0
   58.2505   35.1643   44.2399 H   0  0  0  0  0  0  0  0  0  0  0  0
   57.6730   33.1560   44.8150 C   0  0  0  0  0  0  0  0  0  0  0  0
   57.1345   32.9614   43.8758 H   0  0  0  0  0  0  0  0  0  0  0  0
   57.7310   32.1670   45.8020 C   0  0  0  0  0  0  0  0  0  0  0  0
   57.0690   30.9670   45.5790 O   0  0  0  0  0  0  0  0  0  0  0  0
   58.0670   31.2730   52.4410 N   0  0  0  0  0  0  0  0  0  0  0  0
   57.2520   30.4720   53.1550 C   0  0  0  0  0  0  0  0  0  0  0  0
   57.5310   29.9970   54.4400 O   0  0  0  0  0  0  0  0  0  0  0  0
   57.9990   28.6740   54.6900 C   0  0  0  0  0  0  0  0  0  0  0  0
   57.1370   28.0023   54.8155 H   0  0  0  0  0  0  0  0  0  0  0  0
   58.6108   28.6787   55.6042 H   0  0  0  0  0  0  0  0  0  0  0  0
   58.8520   28.1840   53.5270 C   0  0  0  0  0  0  0  0  0  0  0  0
   59.7439   27.6716   53.9168 H   0  0  0  0  0  0  0  0  0  0  0  0
   58.2667   27.4845   52.9122 H   0  0  0  0  0  0  0  0  0  0  0  0
   59.1614   29.0421   52.9122 H   0  0  0  0  0  0  0  0  0  0  0  0
  1  2  1  0
  2  3  2  0
  3  4  1  0
  3  5  1  0
  5  6  2  0
  6  7  1  0
  6  8  1  0
  8  9  1  0
  8 10  2  0
 10 11  1  0
 10 12  1  0
 12 13  1  0
 12 14  2  0
 14 15  1  0
  2 16  1  0
 16 17  1  0
 17 18  1  0
 18 19  2  3
 19 20  1  0
 20 21  2  0
 20 22  1  0
 22 23  2  0
 23 24  1  0
 24 25  1  0
 25 26  1  0
 25 27  2  0
 27 28  1  0
 27 29  1  0
 29 30  1  0
 29 31  2  0
 31 32  1  0
 18 33  1  0
 33 34  1  0
 34 35  1  0
 35 36  1  0
 36 37  1  0
 36 38  1  0
 36 39  1  0
 39 40  1  0
 39 41  1  0
 39 42  1  0
 14  5  1  0
 34 16  2  0
 31 23  1  0
M  CHG  5  11  -1  13  -1  24  -1  32  -1  33  -1
M  END
>  <UniqueID>  (81) 
73

>  <SMILES>  (81) 
CCOc1[n-]c(=NC(=O)/N=c2/[n-]cccc2[O-])oc1/C=C/c1ccc([O-])c([O-])c1

>  <Energy>  (81) 
86.47668200763663

>  <Genealogy>  (81) 
CCOc1[n-]c(=NC(=O)N=c2[n-]cccc2[O-])oc1C=Cc1ccc([O-])c([O-])c1 (protonated)
CCOc1[n-]c(=NC(=O)/N=c2/[n-]cccc2[O-])oc1/C=C/c1ccc([O-])c([O-])c1 (cis-trans isomerization)
CCOc1[n-]c(=NC(=O)/N=c2/[n-]cccc2[O-])oc1/C=C/c1ccc([O-])c([O-])c1 (3D coordinates assigned)
CCOc1[n-]c(=NC(=O)/N=c2/[n-]cccc2[O-])oc1/C=C/c1ccc([O-])c([O-])c1 (optimized conformer: 86.47668200763663 kcal/mol)

>  <smiles>  (81) 
CCOc1[nH]c(=NC(=O)N=c2[nH]cccc2O)oc1C=Cc1ccc(O)c(O)c1

>  <score_type>  (81) 
oracle

>  <origin>  (81) 
adg

>  <m_score__min__energy>  (81) 
-20.059999999999999

>  <m_primary>  (81) 
energy

$$$$
81:0
     RDKit          3D

 55 57  0  0  0  0  0  0  0  0999 V2000
   53.2598   24.5725   45.8237 H   0  0  0  0  0  0  0  0  0  0  0  0
   54.3220   24.7710   45.6180 C   0  0  0  0  0  0  0  0  0  0  0  0
   54.8610   25.9790   45.9350 N   0  0  0  0  0  0  0  0  0  0  0  0
   56.1680   26.2740   45.6920 C   0  0  0  0  0  0  0  0  0  0  0  0
   56.6800   27.4280   46.0080 N   0  0  0  0  0  0  0  0  0  0  0  0
   56.6220   28.6890   45.3120 C   0  0  0  0  0  0  0  0  0  0  0  0
   55.5020   29.0460   44.8580 O   0  0  0  0  0  0  0  0  0  0  0  0
   57.8200   29.6210   45.1670 C   0  0  1  0  0  0  0  0  0  0  0  0
   58.1114   29.8566   46.2012 H   0  0  0  0  0  0  0  0  0  0  0  0
   59.0160   28.9680   44.5100 C   0  0  0  0  0  0  0  0  0  0  0  0
   58.8450   27.9990   43.7190 O   0  0  0  0  0  0  0  0  0  0  0  0
   60.3140   29.3730   44.8460 O   0  0  0  0  0  0  0  0  0  0  0  0
   60.7450   29.5270   46.1930 C   0  0  0  0  0  0  0  0  0  0  0  0
   59.9314   29.2363   46.8738 H   0  0  0  0  0  0  0  0  0  0  0  0
   61.6206   28.8861   46.3734 H   0  0  0  0  0  0  0  0  0  0  0  0
   61.0162   30.5777   46.3734 H   0  0  0  0  0  0  0  0  0  0  0  0
   57.4720   30.9400   44.4770 C   0  0  0  0  0  0  0  0  0  0  0  0
   57.2340   32.0600   45.1050 N   0  0  0  0  0  0  0  0  0  0  0  0
   58.0830   32.7610   46.0230 C   0  0  0  0  0  0  0  0  0  0  0  0
   58.7520   33.9130   45.5920 C   0  0  0  0  0  0  0  0  0  0  0  0
   58.6674   34.2371   44.5442 H   0  0  0  0  0  0  0  0  0  0  0  0
   59.5270   34.6520   46.4900 C   0  0  0  0  0  0  0  0  0  0  0  0
   60.0679   35.5444   46.1420 H   0  0  0  0  0  0  0  0  0  0  0  0
   59.6170   34.2610   47.8280 C   0  0  0  0  0  0  0  0  0  0  0  0
   60.2288   34.8451   48.5312 H   0  0  0  0  0  0  0  0  0  0  0  0
   58.9290   33.1260   48.2750 C   0  0  0  0  0  0  0  0  0  0  0  0
   58.9740   32.6920   49.9820 S   0  0  0  0  0  0  0  0  0  0  0  0
   57.5820   32.3340   50.4180 O   0  0  0  0  0  0  0  0  0  0  0  0
   59.4550   33.8470   50.8140 O   0  0  0  0  0  0  0  0  0  0  0  0
   60.0140   31.3230   50.2260 N   0  0  0  0  0  0  0  0  0  0  0  0
   61.1020   30.9610   49.3660 C   0  0  0  0  0  0  0  0  0  0  0  0
   61.2800   29.7450   49.0890 O   0  0  0  0  0  0  0  0  0  0  0  0
   62.0100   31.9660   48.7890 C   0  0  0  0  0  0  0  0  0  0  0  0
   62.5810   31.7700   47.5220 C   0  0  0  0  0  0  0  0  0  0  0  0
   62.3394   30.8647   46.9458 H   0  0  0  0  0  0  0  0  0  0  0  0
   63.4560   32.7220   46.9900 C   0  0  0  0  0  0  0  0  0  0  0  0
   63.9024   32.5638   45.9972 H   0  0  0  0  0  0  0  0  0  0  0  0
   63.7640   33.8740   47.7180 C   0  0  0  0  0  0  0  0  0  0  0  0
   64.4629   34.6155   47.3036 H   0  0  0  0  0  0  0  0  0  0  0  0
   63.1850   34.0850   48.9720 C   0  0  0  0  0  0  0  0  0  0  0  0
   63.4245   34.9948   49.5420 H   0  0  0  0  0  0  0  0  0  0  0  0
   62.3010   33.1400   49.5030 C   0  0  0  0  0  0  0  0  0  0  0  0
   61.8324   33.3167   50.4824 H   0  0  0  0  0  0  0  0  0  0  0  0
   58.1600   32.3810   47.3710 C   0  0  0  0  0  0  0  0  0  0  0  0
   57.6134   31.4928   47.7206 H   0  0  0  0  0  0  0  0  0  0  0  0
   57.3830   30.9700   42.9800 C   0  0  0  0  0  0  0  0  0  0  0  0
   56.3804   31.3079   42.6790 H   0  0  0  0  0  0  0  0  0  0  0  0
   58.1385   31.6631   42.5816 H   0  0  0  0  0  0  0  0  0  0  0  0
   57.5648   29.9609   42.5816 H   0  0  0  0  0  0  0  0  0  0  0  0
   56.9920   25.3040   45.1090 C   0  0  0  0  0  0  0  0  0  0  0  0
   58.0520   25.5236   44.9134 H   0  0  0  0  0  0  0  0  0  0  0  0
   56.4600   24.0550   44.7770 C   0  0  0  0  0  0  0  0  0  0  0  0
   57.0998   23.2882   44.3158 H   0  0  0  0  0  0  0  0  0  0  0  0
   55.1150   23.7830   45.0320 C   0  0  0  0  0  0  0  0  0  0  0  0
   54.6858   22.8034   44.7747 H   0  0  0  0  0  0  0  0  0  0  0  0
  1  2  1  0
  2  3  1  0
  3  4  1  0
  4  5  2  0
  5  6  1  0
  6  7  2  0
  6  8  1  0
  8  9  1  1
  8 10  1  0
 10 11  2  0
 10 12  1  0
 12 13  1  0
 13 14  1  0
 13 15  1  0
 13 16  1  0
  8 17  1  0
 17 18  2  3
 18 19  1  0
 19 20  2  0
 20 21  1  0
 20 22  1  0
 22 23  1  0
 22 24  2  0
 24 25  1  0
 24 26  1  0
 26 27  1  0
 27 28  2  0
 27 29  2  0
 27 30  1  0
 30 31  1  0
 31 32  2  0
 31 33  1  0
 33 34  2  0
 34 35  1  0
 34 36  1  0
 36 37  1  0
 36 38  2  0
 38 39  1  0
 38 40  1  0
 40 41  1  0
 40 42  2  0
 42 43  1  0
 26 44  2  0
 44 45  1  0
 17 46  1  0
 46 47  1  0
 46 48  1  0
 46 49  1  0
  4 50  1  0
 50 51  1  0
 50 52  2  0
 52 53  1  0
 52 54  1  0
 54 55  1  0
 54  2  2  0
 44 19  1  0
 42 33  1  0
M  CHG  2   3  -1  30  -1
M  END
>  <UniqueID>  (82) 
74

>  <SMILES>  (82) 
COC(=O)[C@H](C(=O)/N=c1/cccc[n-]1)C(C)=Nc1cccc(S(=O)(=O)[N-]C(=O)c2ccccc2)c1

>  <Energy>  (82) 
73.27214841132351

>  <Genealogy>  (82) 
COC(=O)C(C(=O)N=c1cccc[n-]1)C(C)=Nc1cccc(S(=O)(=O)[N-]C(=O)c2ccccc2)c1 (protonated)
COC(=O)[C@H](C(=O)N=c1cccc[n-]1)C(C)=Nc1cccc(S(=O)(=O)[N-]C(=O)c2ccccc2)c1 (chirality)
COC(=O)[C@H](C(=O)/N=c1/cccc[n-]1)C(C)=Nc1cccc(S(=O)(=O)[N-]C(=O)c2ccccc2)c1 (cis-trans isomerization)
COC(=O)[C@H](C(=O)/N=c1/cccc[n-]1)C(C)=Nc1cccc(S(=O)(=O)[N-]C(=O)c2ccccc2)c1 (3D coordinates assigned)
COC(=O)[C@H](C(=O)/N=c1/cccc[n-]1)C(C)=Nc1cccc(S(=O)(=O)[N-]C(=O)c2ccccc2)c1 (optimized conformer: 73.27214841132351 kcal/mol)

>  <smiles>  (82) 
COC(=O)C(C(=O)N=c1cccc[nH]1)C(C)=Nc1cccc(S(=O)(=O)NC(=O)c2ccccc2)c1

>  <score_type>  (82) 
oracle

>  <origin>  (82) 
adg

>  <m_score__min__energy>  (82) 
-14.02

>  <m_primary>  (82) 
energy

$$$$
82:0
     RDKit          3D

 63 67  0  0  0  0  0  0  0  0999 V2000
   56.2240   30.0680   45.7750 H   0  0  0  0  0  0  0  0  0  0  0  0
   56.4470   29.3000   45.1540 O   0  0  0  0  0  0  0  0  0  0  0  0
   56.5880   27.9970   45.6210 C   0  0  0  0  0  0  0  0  0  0  0  0
   55.5510   27.1610   45.7830 N   0  0  0  0  0  0  0  0  0  0  0  0
   56.1470   26.0080   46.1490 C   0  0  0  0  0  0  0  0  0  0  0  0
   55.5000   24.9570   46.3930 O   0  0  0  0  0  0  0  0  0  0  0  0
   57.4930   26.0680   46.2270 N   0  0  0  0  0  0  0  0  0  0  0  0
   57.7700   27.3440   45.9180 C   0  0  0  0  0  0  0  0  0  0  0  0
   59.1440   27.8660   45.8200 C   0  0  0  0  0  0  0  0  0  0  0  0
   59.8830   27.2758   45.2583 H   0  0  0  0  0  0  0  0  0  0  0  0
   59.5490   29.0240   46.3780 C   0  0  0  0  0  0  0  0  0  0  0  0
   60.1600   30.0850   45.7210 C   0  0  0  0  0  0  0  0  0  0  0  0
   60.4203   30.1342   44.6534 H   0  0  0  0  0  0  0  0  0  0  0  0
   60.3770   31.0660   46.6690 C   0  0  0  0  0  0  0  0  0  0  0  0
   61.0520   32.3770   46.4010 C   0  0  0  0  0  0  0  0  0  0  0  0
   61.3020   32.8626   47.3558 H   0  0  0  0  0  0  0  0  0  0  0  0
   61.9732   32.2042   45.8252 H   0  0  0  0  0  0  0  0  0  0  0  0
   60.3762   33.0264   45.8252 H   0  0  0  0  0  0  0  0  0  0  0  0
   59.9380   30.6550   47.8790 N   0  0  0  0  0  0  0  0  0  0  0  0
   59.9970   31.4170   49.0980 C   0  0  0  0  0  0  0  0  0  0  0  0
   61.0590   31.1860   49.9860 C   0  0  0  0  0  0  0  0  0  0  0  0
   61.7992   30.4061   49.7540 H   0  0  0  0  0  0  0  0  0  0  0  0
   61.1910   31.9360   51.1670 C   0  0  0  0  0  0  0  0  0  0  0  0
   62.3180   31.6860   52.0950 C   0  0  0  0  0  0  0  0  0  0  0  0
   62.4120   30.5770   52.6880 O   0  0  0  0  0  0  0  0  0  0  0  0
   63.2980   32.7040   52.3270 N   0  0  0  0  0  0  0  0  0  0  0  0
   63.6620   33.9660   51.1960 S   0  0  0  0  0  0  0  0  0  0  0  0
   62.3720   34.5640   50.7100 O   0  0  0  0  0  0  0  0  0  0  0  0
   64.4680   35.0450   51.8650 O   0  0  0  0  0  0  0  0  0  0  0  0
   64.5540   33.2790   49.8010 C   0  0  0  0  0  0  0  0  0  0  0  0
   65.5459   33.7218   49.9745 H   0  0  0  0  0  0  0  0  0  0  0  0
   64.3910   31.7690   49.6640 C   0  0  0  0  0  0  0  0  0  0  0  0
   65.3410   31.2188   49.5951 H   0  0  0  0  0  0  0  0  0  0  0  0
   63.9118   31.1852   50.4637 H   0  0  0  0  0  0  0  0  0  0  0  0
   63.6900   31.9680   48.3290 C   0  0  0  0  0  0  0  0  0  0  0  0
   64.2287   31.5385   47.4715 H   0  0  0  0  0  0  0  0  0  0  0  0
   62.6987   31.5255   48.1516 H   0  0  0  0  0  0  0  0  0  0  0  0
   63.8440   33.4760   48.4660 C   0  0  0  0  0  0  0  0  0  0  0  0
   64.4700   33.9365   47.6875 H   0  0  0  0  0  0  0  0  0  0  0  0
   62.9665   34.1352   48.3929 H   0  0  0  0  0  0  0  0  0  0  0  0
   60.2480   32.9380   51.4430 C   0  0  0  0  0  0  0  0  0  0  0  0
   60.3444   33.5414   52.3577 H   0  0  0  0  0  0  0  0  0  0  0  0
   59.1870   33.1750   50.5640 C   0  0  0  0  0  0  0  0  0  0  0  0
   58.4630   33.9718   50.7897 H   0  0  0  0  0  0  0  0  0  0  0  0
   59.0330   32.4090   49.3960 C   0  0  0  0  0  0  0  0  0  0  0  0
   57.8800   32.7130   48.4620 C   0  0  0  0  0  0  0  0  0  0  0  0
   57.4578   31.7654   48.0961 H   0  0  0  0  0  0  0  0  0  0  0  0
   57.1277   33.2890   49.0208 H   0  0  0  0  0  0  0  0  0  0  0  0
   58.3240   33.5390   47.2810 C   0  0  0  0  0  0  0  0  0  0  0  0
   57.8420   33.2540   45.9910 C   0  0  0  0  0  0  0  0  0  0  0  0
   57.1300   32.4291   45.8409 H   0  0  0  0  0  0  0  0  0  0  0  0
   58.2660   34.0170   44.8990 C   0  0  0  0  0  0  0  0  0  0  0  0
   57.8834   33.7937   43.8922 H   0  0  0  0  0  0  0  0  0  0  0  0
   59.1740   35.0620   45.0830 C   0  0  0  0  0  0  0  0  0  0  0  0
   59.5063   35.6596   44.2214 H   0  0  0  0  0  0  0  0  0  0  0  0
   59.6610   35.3490   46.3620 C   0  0  0  0  0  0  0  0  0  0  0  0
   60.3776   36.1711   46.5053 H   0  0  0  0  0  0  0  0  0  0  0  0
   59.2380   34.5920   47.4590 C   0  0  0  0  0  0  0  0  0  0  0  0
   59.6216   34.8212   48.4641 H   0  0  0  0  0  0  0  0  0  0  0  0
   59.4070   29.4180   47.7110 C   0  0  0  0  0  0  0  0  0  0  0  0
   58.8360   28.7110   48.6980 C   0  0  0  0  0  0  0  0  0  0  0  0
   58.7826   29.1289   49.7141 H   0  0  0  0  0  0  0  0  0  0  0  0
   58.4212   27.7134   48.4911 H   0  0  0  0  0  0  0  0  0  0  0  0
  1  2  1  0
  2  3  1  0
  3  4  1  0
  4  5  1  0
  5  6  2  0
  5  7  1  0
  7  8  1  0
  8  9  1  0
  9 10  1  0
  9 11  2  0
 11 12  1  0
 12 13  1  0
 12 14  2  0
 14 15  1  0
 15 16  1  0
 15 17  1  0
 15 18  1  0
 14 19  1  0
 19 20  1  0
 20 21  2  0
 21 22  1  0
 21 23  1  0
 23 24  1  0
 24 25  2  0
 24 26  1  0
 26 27  1  0
 27 28  2  0
 27 29  2  0
 27 30  1  0
 30 31  1  0
 30 32  1  0
 32 33  1  0
 32 34  1  0
 32 35  1  0
 35 36  1  0
 35 37  1  0
 35 38  1  0
 38 39  1  0
 38 40  1  0
 23 41  2  0
 41 42  1  0
 41 43  1  0
 43 44  1  0
 43 45  2  0
 45 46  1  0
 46 47  1  0
 46 48  1  0
 46 49  1  0
 49 50  2  0
 50 51  1  0
 50 52  1  0
 52 53  1  0
 52 54  2  0
 54 55  1  0
 54 56  1  0
 56 57  1  0
 56 58  2  0
 58 59  1  0
 19 60  1  0
 60 61  2  0
 61 62  1  0
 61 63  1  0
  8  3  2  0
 60 11  1  0
 45 20  1  0
 58 49  1  0
 38 30  1  0
M  CHG  3   4  -1   7  -1  26  -1
M  END
>  <UniqueID>  (83) 
75

>  <SMILES>  (83) 
C=c1/c(=C/c2[n-]c(=O)[n-]c2O)cc(C)n1-c1cc(C(=O)[N-]S(=O)(=O)C2CCC2)ccc1Cc1ccccc1

>  <Energy>  (83) 
197.24083151599808

>  <Genealogy>  (83) 
C=c1c(=Cc2[n-]c(=O)[n-]c2O)cc(C)n1-c1cc(C(=O)[N-]S(=O)(=O)C2CCC2)ccc1Cc1ccccc1 (protonated)
C=c1/c(=C/c2[n-]c(=O)[n-]c2O)cc(C)n1-c1cc(C(=O)[N-]S(=O)(=O)C2CCC2)ccc1Cc1ccccc1 (cis-trans isomerization)
C=c1/c(=C/c2[n-]c(=O)[n-]c2O)cc(C)n1-c1cc(C(=O)[N-]S(=O)(=O)C2CCC2)ccc1Cc1ccccc1 (3D coordinates assigned)
C=c1/c(=C/c2[n-]c(=O)[n-]c2O)cc(C)n1-c1cc(C(=O)[N-]S(=O)(=O)C2CCC2)ccc1Cc1ccccc1 (nonaromatic ring conformer: 197.24083151599808 kcal/mol)

>  <smiles>  (83) 
C=c1c(=Cc2[nH]c(=O)[nH]c2O)cc(C)n1-c1cc(C(=O)NS(=O)(=O)C2CCC2)ccc1Cc1ccccc1

>  <score_type>  (83) 
oracle

>  <origin>  (83) 
adg

>  <m_score__min__energy>  (83) 
-16.32

>  <m_primary>  (83) 
energy

$$$$
83:0
     RDKit          3D

 48 51  0  0  0  0  0  0  0  0999 V2000
   55.1110   23.3220   44.7000 C   0  0  0  0  0  0  0  0  0  0  0  0
   54.6570   22.5360   45.8440 N   0  0  0  0  0  0  0  0  0  0  0  0
   53.4050   22.0560   46.0690 C   0  0  0  0  0  0  0  0  0  0  0  0
   52.4480   22.2200   45.2670 O   0  0  0  0  0  0  0  0  0  0  0  0
   53.2690   21.3790   47.2380 N   0  0  0  0  0  0  0  0  0  0  0  0
   54.5060   21.4660   47.7570 C   0  0  0  0  0  0  0  0  0  0  0  0
   54.9250   20.9250   48.9260 N   0  0  0  0  0  0  0  0  0  0  0  0
   56.2300   21.0950   49.2890 C   0  0  0  0  0  0  0  0  0  0  0  0
   57.0880   21.8010   48.4860 N   0  0  0  0  0  0  0  0  0  0  0  0
   56.6730   22.3530   47.3080 C   0  0  0  0  0  0  0  0  0  0  0  0
   57.5750   23.0680   46.5200 O   0  0  0  0  0  0  0  0  0  0  0  0
   57.3990   24.4080   46.1480 C   0  0  0  0  0  0  0  0  0  0  0  0
   56.8210   25.3590   47.0100 C   0  0  0  0  0  0  0  0  0  0  0  0
   56.6510   26.6800   46.5880 C   0  0  0  0  0  0  0  0  0  0  0  0
   57.0400   27.0720   45.3000 C   0  0  0  0  0  0  0  0  0  0  0  0
   56.8660   28.4420   44.9020 N   0  0  0  0  0  0  0  0  0  0  0  0
   57.4450   29.5520   45.5970 C   0  0  0  0  0  0  0  0  0  0  0  0
   58.2500   29.3600   46.5480 O   0  0  0  0  0  0  0  0  0  0  0  0
   57.0850   30.8830   45.2060 N   0  0  0  0  0  0  0  0  0  0  0  0
   57.7950   32.0910   45.5180 C   0  0  0  0  0  0  0  0  0  0  0  0
   57.7280   33.1590   44.6130 C   0  0  0  0  0  0  0  0  0  0  0  0
   58.4130   34.3490   44.8730 C   0  0  0  0  0  0  0  0  0  0  0  0
   59.1800   34.4770   46.0330 C   0  0  0  0  0  0  0  0  0  0  0  0
   59.2770   33.4100   46.9350 C   0  0  0  0  0  0  0  0  0  0  0  0
   60.2830   33.5710   48.3710 S   0  0  0  0  0  0  0  0  0  0  0  0
   60.4770   31.9800   49.1400 C   0  0  0  0  0  0  0  0  0  0  0  0
   59.6440   34.5170   49.3500 O   0  0  0  0  0  0  0  0  0  0  0  0
   61.6290   34.1120   47.9800 O   0  0  0  0  0  0  0  0  0  0  0  0
   58.5950   32.2130   46.6700 C   0  0  0  0  0  0  0  0  0  0  0  0
   57.6520   26.1310   44.4510 C   0  0  0  0  0  0  0  0  0  0  0  0
   58.1330   26.4980   43.2370 F   0  0  0  0  0  0  0  0  0  0  0  0
   57.8200   24.8080   44.8740 C   0  0  0  0  0  0  0  0  0  0  0  0
   55.3390   22.1630   46.9400 C   0  0  0  0  0  0  0  0  0  0  0  0
   55.6313   24.2229   45.0574 H   0  0  0  0  0  0  0  0  0  0  0  0
   55.7995   22.7184   44.0905 H   0  0  0  0  0  0  0  0  0  0  0  0
   54.2441   23.6168   44.0905 H   0  0  0  0  0  0  0  0  0  0  0  0
   56.5955   20.6626   50.2321 H   0  0  0  0  0  0  0  0  0  0  0  0
   56.5020   25.0610   48.0197 H   0  0  0  0  0  0  0  0  0  0  0  0
   56.2081   27.4185   47.2724 H   0  0  0  0  0  0  0  0  0  0  0  0
   56.4080   28.6340   43.9840 H   0  0  0  0  0  0  0  0  0  0  0  0
   57.1330   33.0600   43.6931 H   0  0  0  0  0  0  0  0  0  0  0  0
   58.3479   35.1864   44.1627 H   0  0  0  0  0  0  0  0  0  0  0  0
   59.7096   35.4189   46.2389 H   0  0  0  0  0  0  0  0  0  0  0  0
   60.4627   32.0972   50.2336 H   0  0  0  0  0  0  0  0  0  0  0  0
   59.6526   31.3205   48.8311 H   0  0  0  0  0  0  0  0  0  0  0  0
   61.4357   31.5379   48.8311 H   0  0  0  0  0  0  0  0  0  0  0  0
   58.6858   31.3657   47.3656 H   0  0  0  0  0  0  0  0  0  0  0  0
   58.2871   24.0754   44.1995 H   0  0  0  0  0  0  0  0  0  0  0  0
  1  2  1  0
  2  3  1  0
  3  4  2  0
  3  5  1  0
  5  6  1  0
  6  7  2  0
  7  8  1  0
  8  9  2  0
  9 10  1  0
 10 11  1  0
 11 12  1  0
 12 13  2  0
 13 14  1  0
 14 15  2  0
 15 16  1  0
 16 17  1  0
 17 18  2  0
 17 19  1  0
 19 20  1  0
 20 21  2  0
 21 22  1  0
 22 23  2  0
 23 24  1  0
 24 25  1  0
 25 26  1  0
 25 27  2  0
 25 28  2  0
 24 29  2  0
 15 30  1  0
 30 31  1  0
 30 32  2  0
 10 33  2  0
 33  2  1  0
 33  6  1  0
 32 12  1  0
 29 20  1  0
  1 34  1  0
  1 35  1  0
  1 36  1  0
  8 37  1  0
 13 38  1  0
 14 39  1  0
 16 40  1  0
 21 41  1  0
 22 42  1  0
 23 43  1  0
 26 44  1  0
 26 45  1  0
 26 46  1  0
 29 47  1  0
 32 48  1  0
M  CHG  2   5  -1  19  -1
M  END
>  <UniqueID>  (84) 
76

>  <SMILES>  (84) 
Cn1c(=O)[n-]c2ncnc(Oc3ccc(NC(=O)[N-]c4cccc(S(C)(=O)=O)c4)c(F)c3)c21

>  <Energy>  (84) 
108.63995107542667

>  <Genealogy>  (84) 
Cn1c(=O)[n-]c2ncnc(Oc3ccc(NC(=O)[N-]c4cccc(S(C)(=O)=O)c4)c(F)c3)c21 (protonated)
Cn1c(=O)[n-]c2ncnc(Oc3ccc(NC(=O)[N-]c4cccc(S(C)(=O)=O)c4)c(F)c3)c21 (3D coordinates assigned)
Cn1c(=O)[n-]c2ncnc(Oc3ccc(NC(=O)[N-]c4cccc(S(C)(=O)=O)c4)c(F)c3)c21 (optimized conformer: 108.63995107542667 kcal/mol)

>  <smiles>  (84) 
Cn1c(=O)[nH]c2ncnc(Oc3ccc(NC(=O)Nc4cccc(S(C)(=O)=O)c4)c(F)c3)c21

>  <score_type>  (84) 
oracle

>  <origin>  (84) 
adg

>  <m_score__min__energy>  (84) 
-12

>  <m_primary>  (84) 
energy

$$$$
84:0
     RDKit          3D

 50 52  0  0  0  0  0  0  0  0999 V2000
   53.9400   30.3760   54.5570 O   0  0  0  0  0  0  0  0  0  0  0  0
   53.4920   30.8150   53.4630 C   0  0  0  0  0  0  0  0  0  0  0  0
   52.0130   30.9800   53.2930 C   0  0  0  0  0  0  0  0  0  0  0  0
   51.6870   31.1990   51.8490 C   0  0  0  0  0  0  0  0  0  0  0  0
   51.8910   30.2880   50.8810 N   0  0  0  0  0  0  0  0  0  0  0  0
   51.3900   30.8880   49.7790 C   0  0  0  0  0  0  0  0  0  0  0  0
   51.3990   30.3420   48.6460 O   0  0  0  0  0  0  0  0  0  0  0  0
   50.8700   32.1160   49.9880 N   0  0  0  0  0  0  0  0  0  0  0  0
   51.0610   32.2940   51.3050 C   0  0  0  0  0  0  0  0  0  0  0  0
   50.6690   33.4330   51.9960 O   0  0  0  0  0  0  0  0  0  0  0  0
   54.3720   31.0630   52.3550 N   0  0  0  0  0  0  0  0  0  0  0  0
   55.8080   31.0470   52.4370 C   0  0  0  0  0  0  0  0  0  0  0  0
   56.4790   31.2840   53.6510 C   0  0  0  0  0  0  0  0  0  0  0  0
   57.8730   31.2920   53.6940 C   0  0  0  0  0  0  0  0  0  0  0  0
   58.6150   31.0730   52.5300 C   0  0  0  0  0  0  0  0  0  0  0  0
   57.9660   30.8400   51.3070 C   0  0  0  0  0  0  0  0  0  0  0  0
   58.7650   30.6370   50.0760 C   0  0  0  0  0  0  0  0  0  0  0  0
   59.2140   29.4860   49.8240 O   0  0  0  0  0  0  0  0  0  0  0  0
   59.0420   31.7290   49.1220 C   0  0  0  0  0  0  0  0  0  0  0  0
   60.0830   32.6390   49.1910 C   0  0  0  0  0  0  0  0  0  0  0  0
   60.0320   33.4560   48.1210 N   0  0  0  0  0  0  0  0  0  0  0  0
   59.0080   33.0730   47.3710 N   0  0  0  0  0  0  0  0  0  0  0  0
   58.6010   33.7550   46.1450 C   0  0  0  0  0  0  0  0  0  0  0  0
   57.2100   33.2910   45.6740 C   0  0  0  0  0  0  0  0  0  0  0  0
   57.2470   32.2660   44.5270 C   0  0  0  0  0  0  0  0  0  0  0  0
   57.2740   30.7900   44.9630 C   0  0  0  0  0  0  0  0  0  0  0  0
   56.3670   29.8820   44.1240 C   0  0  0  0  0  0  0  0  0  0  0  0
   55.2300   29.5120   44.8560 O   0  0  0  0  0  0  0  0  0  0  0  0
   58.3750   32.0340   47.9510 C   0  0  0  0  0  0  0  0  0  0  0  0
   56.5600   30.8540   51.2670 C   0  0  0  0  0  0  0  0  0  0  0  0
   51.5017   30.0734   53.6488 H   0  0  0  0  0  0  0  0  0  0  0  0
   51.6765   31.8500   53.8760 H   0  0  0  0  0  0  0  0  0  0  0  0
   53.9390   31.1570   51.4100 H   0  0  0  0  0  0  0  0  0  0  0  0
   55.9017   31.4637   54.5699 H   0  0  0  0  0  0  0  0  0  0  0  0
   58.3906   31.4714   54.6479 H   0  0  0  0  0  0  0  0  0  0  0  0
   59.7141   31.0833   52.5723 H   0  0  0  0  0  0  0  0  0  0  0  0
   60.8338   32.6874   49.9934 H   0  0  0  0  0  0  0  0  0  0  0  0
   58.5716   34.8386   46.3320 H   0  0  0  0  0  0  0  0  0  0  0  0
   59.3298   33.5122   45.3577 H   0  0  0  0  0  0  0  0  0  0  0  0
   56.6898   32.8346   46.5290 H   0  0  0  0  0  0  0  0  0  0  0  0
   56.6914   34.1812   45.2885 H   0  0  0  0  0  0  0  0  0  0  0  0
   56.3530   32.4201   43.9049 H   0  0  0  0  0  0  0  0  0  0  0  0
   58.1922   32.4422   43.9927 H   0  0  0  0  0  0  0  0  0  0  0  0
   58.3072   30.4220   44.8788 H   0  0  0  0  0  0  0  0  0  0  0  0
   56.8979   30.7534   45.9961 H   0  0  0  0  0  0  0  0  0  0  0  0
   56.0543   30.4208   43.2174 H   0  0  0  0  0  0  0  0  0  0  0  0
   56.9259   28.9744   43.8521 H   0  0  0  0  0  0  0  0  0  0  0  0
   55.2290   30.0830   45.6700 H   0  0  0  0  0  0  0  0  0  0  0  0
   57.4844   31.5196   47.5609 H   0  0  0  0  0  0  0  0  0  0  0  0
   56.0429   30.7119   50.3066 H   0  0  0  0  0  0  0  0  0  0  0  0
  1  2  2  0
  2  3  1  0
  3  4  1  0
  4  5  1  0
  5  6  1  0
  6  7  2  0
  6  8  1  0
  8  9  1  0
  9 10  1  0
  2 11  1  0
 11 12  1  0
 12 13  2  0
 13 14  1  0
 14 15  2  0
 15 16  1  0
 16 17  1  0
 17 18  2  0
 17 19  1  0
 19 20  1  0
 20 21  2  0
 21 22  1  0
 22 23  1  0
 23 24  1  0
 24 25  1  0
 25 26  1  0
 26 27  1  0
 27 28  1  0
 22 29  1  0
 16 30  2  0
  9  4  2  0
 30 12  1  0
 29 19  2  0
  3 31  1  0
  3 32  1  0
 11 33  1  0
 13 34  1  0
 14 35  1  0
 15 36  1  0
 20 37  1  0
 23 38  1  0
 23 39  1  0
 24 40  1  0
 24 41  1  0
 25 42  1  0
 25 43  1  0
 26 44  1  0
 26 45  1  0
 27 46  1  0
 27 47  1  0
 28 48  1  0
 29 49  1  0
 30 50  1  0
M  CHG  3   5  -1   8  -1  10  -1
M  END
>  <UniqueID>  (85) 
77

>  <SMILES>  (85) 
O=C(Cc1[n-]c(=O)[n-]c1[O-])Nc1cccc(C(=O)c2cnn(CCCCCO)c2)c1

>  <Energy>  (85) 
110.51422079145364

>  <Genealogy>  (85) 
O=C(Cc1[n-]c(=O)[n-]c1[O-])Nc1cccc(C(=O)c2cnn(CCCCCO)c2)c1 (protonated)
O=C(Cc1[n-]c(=O)[n-]c1[O-])Nc1cccc(C(=O)c2cnn(CCCCCO)c2)c1 (3D coordinates assigned)
O=C(Cc1[n-]c(=O)[n-]c1[O-])Nc1cccc(C(=O)c2cnn(CCCCCO)c2)c1 (optimized conformer: 110.51422079145364 kcal/mol)

>  <smiles>  (85) 
O=C(Cc1[nH]c(=O)[nH]c1O)Nc1cccc(C(=O)c2cnn(CCCCCO)c2)c1

>  <score_type>  (85) 
oracle

>  <origin>  (85) 
adg

>  <m_score__min__energy>  (85) 
-19.210000000000001

>  <m_primary>  (85) 
energy

$$$$
85:0
     RDKit          3D

 44 46  0  0  0  0  0  0  0  0999 V2000
   54.7578   24.8813   46.2974 H   0  0  0  0  0  0  0  0  0  0  0  0
   55.6240   25.4580   45.9410 C   0  0  0  0  0  0  0  0  0  0  0  0
   55.6070   26.8150   45.9980 N   0  0  0  0  0  0  0  0  0  0  0  0
   56.6600   27.5740   45.5780 C   0  0  0  0  0  0  0  0  0  0  0  0
   56.6230   28.8740   45.6570 N   0  0  0  0  0  0  0  0  0  0  0  0
   55.9050   29.7580   44.7800 C   0  0  0  0  0  0  0  0  0  0  0  0
   54.8840   29.3270   44.1850 O   0  0  0  0  0  0  0  0  0  0  0  0
   56.3270   31.1100   44.5450 N   0  0  0  0  0  0  0  0  0  0  0  0
   57.5480   31.6970   45.0160 C   0  0  0  0  0  0  0  0  0  0  0  0
   57.9290   32.9540   44.5350 C   0  0  0  0  0  0  0  0  0  0  0  0
   57.3383   33.4398   43.7444 H   0  0  0  0  0  0  0  0  0  0  0  0
   59.0560   33.5950   45.0540 C   0  0  0  0  0  0  0  0  0  0  0  0
   59.3446   34.5848   44.6706 H   0  0  0  0  0  0  0  0  0  0  0  0
   59.8230   32.9890   46.0590 C   0  0  0  0  0  0  0  0  0  0  0  0
   60.8960   33.7190   46.5910 O   0  0  0  0  0  0  0  0  0  0  0  0
   62.2330   33.0980   47.4740 S   0  0  0  0  0  0  0  0  0  0  0  0
   62.7700   31.8460   46.8380 O   0  0  0  0  0  0  0  0  0  0  0  0
   63.3150   34.1400   47.4240 O   0  0  0  0  0  0  0  0  0  0  0  0
   61.8290   32.8160   49.1580 N   0  0  0  0  0  0  0  0  0  0  0  0
   62.7350   32.8930   49.6790 H   0  0  0  0  0  0  0  0  0  0  0  0
   61.3300   31.4190   49.3310 C   0  0  0  0  0  0  0  0  0  0  0  0
   62.1752   30.7844   49.6360 H   0  0  0  0  0  0  0  0  0  0  0  0
   60.8984   31.1120   48.3669 H   0  0  0  0  0  0  0  0  0  0  0  0
   60.2190   31.2820   50.3810 C   0  0  0  0  0  0  0  0  0  0  0  0
   60.6180   31.5285   51.3760 H   0  0  0  0  0  0  0  0  0  0  0  0
   59.8405   30.2492   50.3928 H   0  0  0  0  0  0  0  0  0  0  0  0
   59.1080   32.2290   50.0340 C   0  0  0  0  0  0  0  0  0  0  0  0
   57.9430   31.9100   50.2110 O   0  0  0  0  0  0  0  0  0  0  0  0
   59.4470   33.5810   49.4820 C   0  0  0  0  0  0  0  0  0  0  0  0
   58.8446   34.3464   49.9931 H   0  0  0  0  0  0  0  0  0  0  0  0
   59.2296   33.5998   48.4039 H   0  0  0  0  0  0  0  0  0  0  0  0
   60.9380   33.8710   49.7060 C   0  0  0  0  0  0  0  0  0  0  0  0
   61.1191   33.9542   50.7878 H   0  0  0  0  0  0  0  0  0  0  0  0
   61.1725   34.8050   49.1743 H   0  0  0  0  0  0  0  0  0  0  0  0
   59.4840   31.6890   46.4830 C   0  0  0  0  0  0  0  0  0  0  0  0
   60.1104   31.1749   47.2269 H   0  0  0  0  0  0  0  0  0  0  0  0
   58.3560   31.0500   45.9630 C   0  0  0  0  0  0  0  0  0  0  0  0
   58.0998   30.0340   46.2978 H   0  0  0  0  0  0  0  0  0  0  0  0
   57.7940   26.9390   45.0420 C   0  0  0  0  0  0  0  0  0  0  0  0
   59.1830   27.8620   44.4840 Cl  0  0  0  0  0  0  0  0  0  0  0  0
   57.8260   25.5430   44.9730 C   0  0  0  0  0  0  0  0  0  0  0  0
   58.7080   25.0335   44.5578 H   0  0  0  0  0  0  0  0  0  0  0  0
   56.7410   24.7960   45.4300 C   0  0  0  0  0  0  0  0  0  0  0  0
   56.7653   23.6971   45.3882 H   0  0  0  0  0  0  0  0  0  0  0  0
  1  2  1  0
  2  3  1  0
  3  4  1  0
  4  5  2  0
  5  6  1  0
  6  7  2  0
  6  8  1  0
  8  9  1  0
  9 10  2  0
 10 11  1  0
 10 12  1  0
 12 13  1  0
 12 14  2  0
 14 15  1  0
 15 16  1  0
 16 17  2  0
 16 18  2  0
 16 19  1  0
 19 20  1  0
 19 21  1  0
 21 22  1  0
 21 23  1  0
 21 24  1  0
 24 25  1  0
 24 26  1  0
 24 27  1  0
 27 28  2  0
 27 29  1  0
 29 30  1  0
 29 31  1  0
 29 32  1  0
 32 33  1  0
 32 34  1  0
 14 35  1  0
 35 36  1  0
 35 37  2  0
 37 38  1  0
  4 39  1  0
 39 40  1  0
 39 41  2  0
 41 42  1  0
 41 43  1  0
 43 44  1  0
 43  2  2  0
 37  9  1  0
 32 19  1  0
M  CHG  3   3  -1   8  -1  19   1
M  END
>  <UniqueID>  (86) 
78

>  <SMILES>  (86) 
O=C1CC[NH+](S(=O)(=O)Oc2ccc([N-]C(=O)/N=c3\[n-]cccc3Cl)cc2)CC1

>  <Energy>  (86) 
60.23251909998834

>  <Genealogy>  (86) 
O=C1CC[NH+](S(=O)(=O)Oc2ccc([N-]C(=O)N=c3[n-]cccc3Cl)cc2)CC1 (protonated)
O=C1CC[NH+](S(=O)(=O)Oc2ccc([N-]C(=O)/N=c3\[n-]cccc3Cl)cc2)CC1 (cis-trans isomerization)
O=C1CC[NH+](S(=O)(=O)Oc2ccc([N-]C(=O)/N=c3\[n-]cccc3Cl)cc2)CC1 (3D coordinates assigned)
O=C1CC[NH+](S(=O)(=O)Oc2ccc([N-]C(=O)/N=c3\[n-]cccc3Cl)cc2)CC1 (nonaromatic ring conformer: 60.23251909998834 kcal/mol)

>  <smiles>  (86) 
O=C1CCN(S(=O)(=O)Oc2ccc(NC(=O)N=c3[nH]cccc3Cl)cc2)CC1

>  <score_type>  (86) 
oracle

>  <origin>  (86) 
adg

>  <m_score__min__energy>  (86) 
-10.23

>  <m_primary>  (86) 
energy

$$$$
