0:0
     RDKit          3D

 42 43  0  0  0  0  0  0  0  0999 V2000
   58.0440   32.3480   42.7550 C   0  0  0  0  0  0  0  0  0  0  0  0
   58.2280   32.7050   44.2070 C   0  0  0  0  0  0  0  0  0  0  0  0
   58.6620   33.9980   44.5480 C   0  0  0  0  0  0  0  0  0  0  0  0
   58.8370   34.3570   45.8870 C   0  0  0  0  0  0  0  0  0  0  0  0
   59.2560   35.6070   46.2030 F   0  0  0  0  0  0  0  0  0  0  0  0
   58.5800   33.4320   46.9020 C   0  0  0  0  0  0  0  0  0  0  0  0
   58.1540   32.1420   46.5790 C   0  0  0  0  0  0  0  0  0  0  0  0
   57.9840   31.7620   45.2360 C   0  0  0  0  0  0  0  0  0  0  0  0
   57.5320   30.3890   44.9320 C   0  0  0  0  0  0  0  0  0  0  0  0
   56.3260   30.0730   45.1280 O   0  0  0  0  0  0  0  0  0  0  0  0
   58.5010   29.3390   44.4710 C   0  0  0  0  0  0  0  0  0  0  0  0
   57.7810   28.0210   44.3130 C   0  0  0  0  0  0  0  0  0  0  0  0
   57.7440   27.4300   43.0080 N   0  0  0  0  0  0  0  0  0  0  0  0
   57.1230   27.4470   45.2890 N   0  0  0  0  0  0  0  0  0  0  0  0
   57.1450   26.0190   45.6200 C   0  0  0  0  0  0  0  0  0  0  0  0
   55.7480   25.5110   45.7730 C   0  0  0  0  0  0  0  0  0  0  0  0
   54.8120   26.3200   46.0130 O   0  0  0  0  0  0  0  0  0  0  0  0
   55.5170   24.0970   45.7730 N   0  0  0  0  0  0  0  0  0  0  0  0
   56.0470   23.1260   44.8580 C   0  0  0  0  0  0  0  0  0  0  0  0
   56.8080   22.0700   45.3750 C   0  0  0  0  0  0  0  0  0  0  0  0
   57.3550   21.1060   44.5250 C   0  0  0  0  0  0  0  0  0  0  0  0
   57.1620   21.2020   43.1450 C   0  0  0  0  0  0  0  0  0  0  0  0
   56.4310   22.2680   42.6140 C   0  0  0  0  0  0  0  0  0  0  0  0
   55.8750   23.2290   43.4650 C   0  0  0  0  0  0  0  0  0  0  0  0
   57.5413   31.3726   42.6781 H   0  0  0  0  0  0  0  0  0  0  0  0
   57.4298   33.1168   42.2634 H   0  0  0  0  0  0  0  0  0  0  0  0
   59.0265   32.2939   42.2634 H   0  0  0  0  0  0  0  0  0  0  0  0
   58.8653   34.7325   43.7548 H   0  0  0  0  0  0  0  0  0  0  0  0
   58.7132   33.7198   47.9553 H   0  0  0  0  0  0  0  0  0  0  0  0
   57.9499   31.4176   47.3813 H   0  0  0  0  0  0  0  0  0  0  0  0
   58.9332   29.6384   43.5048 H   0  0  0  0  0  0  0  0  0  0  0  0
   59.3038   29.2303   45.2151 H   0  0  0  0  0  0  0  0  0  0  0  0
   57.2120   26.5470   42.8300 H   0  0  0  0  0  0  0  0  0  0  0  0
   58.2440   27.8740   42.2070 H   0  0  0  0  0  0  0  0  0  0  0  0
   56.4750   28.0360   45.8630 H   0  0  0  0  0  0  0  0  0  0  0  0
   57.6482   25.4654   44.8136 H   0  0  0  0  0  0  0  0  0  0  0  0
   57.6885   25.8746   46.5654 H   0  0  0  0  0  0  0  0  0  0  0  0
   56.9764   21.9992   46.4597 H   0  0  0  0  0  0  0  0  0  0  0  0
   57.9376   20.2715   44.9423 H   0  0  0  0  0  0  0  0  0  0  0  0
   57.5855   20.4383   42.4761 H   0  0  0  0  0  0  0  0  0  0  0  0
   56.2927   22.3515   41.5259 H   0  0  0  0  0  0  0  0  0  0  0  0
   55.3015   24.0679   43.0440 H   0  0  0  0  0  0  0  0  0  0  0  0
  1  2  1  0
  2  3  2  0
  3  4  1  0
  4  5  1  0
  4  6  2  0
  6  7  1  0
  7  8  2  0
  8  9  1  0
  9 10  2  0
  9 11  1  0
 11 12  1  0
 12 13  1  0
 12 14  2  3
 14 15  1  0
 15 16  1  0
 16 17  2  0
 16 18  1  0
 18 19  1  0
 19 20  2  0
 20 21  1  0
 21 22  2  0
 22 23  1  0
 23 24  2  0
  8  2  1  0
 24 19  1  0
  1 25  1  0
  1 26  1  0
  1 27  1  0
  3 28  1  0
  6 29  1  0
  7 30  1  0
 11 31  1  0
 11 32  1  0
 13 33  1  0
 13 34  1  0
 14 35  1  0
 15 36  1  0
 15 37  1  0
 20 38  1  0
 21 39  1  0
 22 40  1  0
 23 41  1  0
 24 42  1  0
M  CHG  2  14   1  18  -1
M  END
>  <UniqueID>  (1) 
1

>  <SMILES>  (1) 
Cc1cc(F)ccc1C(=O)CC(N)=[NH+]CC(=O)[N-]c1ccccc1

>  <Energy>  (1) 
48.452271951541704

>  <Genealogy>  (1) 
Cc1cc(F)ccc1C(=O)CC(N)=[NH+]CC(=O)[N-]c1ccccc1 (protonated)
Cc1cc(F)ccc1C(=O)CC(N)=[NH+]CC(=O)[N-]c1ccccc1 (3D coordinates assigned)
Cc1cc(F)ccc1C(=O)CC(N)=[NH+]CC(=O)[N-]c1ccccc1 (optimized conformer: 48.452271951541704 kcal/mol)

>  <smiles>  (1) 
Cc1cc(F)ccc1C(=O)CC(N)=NCC(=O)Nc1ccccc1

>  <score_type>  (1) 
oracle

>  <origin>  (1) 
adg

>  <m_score__min__energy>  (1) 
-8.3499999999999996

>  <m_primary>  (1) 
energy

$$$$
1:0
     RDKit          3D

 41 43  0  0  0  0  0  0  0  0999 V2000
   58.9705   28.4159   48.2099 H   0  0  0  0  0  0  0  0  0  0  0  0
   58.8610   29.5060   48.1110 C   0  0  0  0  0  0  0  0  0  0  0  0
   58.9968   30.1544   48.9892 H   0  0  0  0  0  0  0  0  0  0  0  0
   58.5600   30.0480   46.9120 C   0  0  0  0  0  0  0  0  0  0  0  0
   58.4350   31.4510   46.8590 C   0  0  0  0  0  0  0  0  0  0  0  0
   58.5396   32.0341   47.7859 H   0  0  0  0  0  0  0  0  0  0  0  0
   58.1810   32.1210   45.6560 C   0  0  0  0  0  0  0  0  0  0  0  0
   58.0940   33.5220   45.6020 O   0  0  0  0  0  0  0  0  0  0  0  0
   59.1750   34.4090   45.7060 C   0  0  0  0  0  0  0  0  0  0  0  0
   59.2810   35.3810   44.9080 O   0  0  0  0  0  0  0  0  0  0  0  0
   60.2240   34.1640   46.7190 C   0  0  0  0  0  0  0  0  0  0  0  0
   59.9600   34.3520   48.0880 C   0  0  0  0  0  0  0  0  0  0  0  0
   58.9624   34.6833   48.4123 H   0  0  0  0  0  0  0  0  0  0  0  0
   60.9590   34.1200   49.0390 C   0  0  0  0  0  0  0  0  0  0  0  0
   60.7448   34.2694   50.1075 H   0  0  0  0  0  0  0  0  0  0  0  0
   62.2280   33.6990   48.6350 C   0  0  0  0  0  0  0  0  0  0  0  0
   63.1950   33.4770   49.5600 F   0  0  0  0  0  0  0  0  0  0  0  0
   62.5020   33.5100   47.2780 C   0  0  0  0  0  0  0  0  0  0  0  0
   63.5020   33.1800   46.9600 H   0  0  0  0  0  0  0  0  0  0  0  0
   61.5060   33.7400   46.3240 C   0  0  0  0  0  0  0  0  0  0  0  0
   61.7264   33.5884   45.2570 H   0  0  0  0  0  0  0  0  0  0  0  0
   58.0580   31.3860   44.4700 C   0  0  0  0  0  0  0  0  0  0  0  0
   57.8220   32.0870   43.1530 C   0  0  0  0  0  0  0  0  0  0  0  0
   57.2832   33.0282   43.3369 H   0  0  0  0  0  0  0  0  0  0  0  0
   58.7951   32.2888   42.6815 H   0  0  0  0  0  0  0  0  0  0  0  0
   56.9960   31.2130   42.2150 C   0  0  0  0  0  0  0  0  0  0  0  0
   56.3593   30.5393   42.8072 H   0  0  0  0  0  0  0  0  0  0  0  0
   56.3637   31.8516   41.5806 H   0  0  0  0  0  0  0  0  0  0  0  0
   57.6692   30.6178   41.5806 H   0  0  0  0  0  0  0  0  0  0  0  0
   58.1770   29.9910   44.5000 C   0  0  0  0  0  0  0  0  0  0  0  0
   58.0814   29.4267   43.5606 H   0  0  0  0  0  0  0  0  0  0  0  0
   58.4170   29.2850   45.7050 C   0  0  0  0  0  0  0  0  0  0  0  0
   58.4550   27.9230   45.6980 C   0  0  0  0  0  0  0  0  0  0  0  0
   59.4405   27.4505   45.5733 H   0  0  0  0  0  0  0  0  0  0  0  0
   57.2900   27.0220   45.8430 C   0  0  0  0  0  0  0  0  0  0  0  0
   57.3280   25.7780   46.3560 N   0  0  0  0  0  0  0  0  0  0  0  0
   56.0270   25.4140   46.3920 C   0  0  0  0  0  0  0  0  0  0  0  0
   55.6510   24.2870   46.8070 O   0  0  0  0  0  0  0  0  0  0  0  0
   55.1620   26.3560   45.9590 N   0  0  0  0  0  0  0  0  0  0  0  0
   55.9770   27.3700   45.6270 C   0  0  0  0  0  0  0  0  0  0  0  0
   55.5290   28.5920   45.1420 O   0  0  0  0  0  0  0  0  0  0  0  0
  1  2  1  0
  2  3  1  0
  2  4  2  0
  4  5  1  0
  5  6  1  0
  5  7  2  0
  7  8  1  0
  8  9  1  0
  9 10  2  0
  9 11  1  0
 11 12  2  0
 12 13  1  0
 12 14  1  0
 14 15  1  0
 14 16  2  0
 16 17  1  0
 16 18  1  0
 18 19  1  0
 18 20  2  0
 20 21  1  0
  7 22  1  0
 22 23  1  0
 23 24  1  0
 23 25  1  0
 23 26  1  0
 26 27  1  0
 26 28  1  0
 26 29  1  0
 22 30  2  0
 30 31  1  0
 30 32  1  0
 32 33  2  0
 33 34  1  0
 33 35  1  0
 35 36  1  0
 36 37  1  0
 37 38  2  0
 37 39  1  0
 39 40  1  0
 40 41  1  0
 32  4  1  0
 40 35  2  0
 20 11  1  0
M  CHG  3  36  -1  39  -1  41  -1
M  END
>  <UniqueID>  (2) 
2

>  <SMILES>  (2) 
C=c1cc(OC(=O)c2ccc(F)cc2)c(CC)c/c1=C\c1[n-]c(=O)[n-]c1[O-]

>  <Energy>  (2) 
90.83798689078696

>  <Genealogy>  (2) 
C=c1cc(OC(=O)c2ccc(F)cc2)c(CC)cc1=Cc1[n-]c(=O)[n-]c1[O-] (protonated)
C=c1cc(OC(=O)c2ccc(F)cc2)c(CC)c/c1=C\c1[n-]c(=O)[n-]c1[O-] (cis-trans isomerization)
C=c1cc(OC(=O)c2ccc(F)cc2)c(CC)c/c1=C\c1[n-]c(=O)[n-]c1[O-] (3D coordinates assigned)
C=c1cc(OC(=O)c2ccc(F)cc2)c(CC)c/c1=C\c1[n-]c(=O)[n-]c1[O-] (optimized conformer: 90.83798689078696 kcal/mol)

>  <smiles>  (2) 
C=c1cc(OC(=O)c2ccc(F)cc2)c(CC)cc1=Cc1[nH]c(=O)[nH]c1O

>  <score_type>  (2) 
oracle

>  <origin>  (2) 
adg

>  <m_score__min__energy>  (2) 
-16.140000000000001

>  <m_primary>  (2) 
energy

$$$$
2:0
     RDKit          3D

 41 43  0  0  0  0  0  0  0  0999 V2000
   55.1970   30.0890   45.6310 H   0  0  0  0  0  0  0  0  0  0  0  0
   55.5010   29.2110   45.2270 O   0  0  0  0  0  0  0  0  0  0  0  0
   56.8510   28.8670   45.1500 C   0  0  0  0  0  0  0  0  0  0  0  0
   57.2410   27.5510   45.4440 C   0  0  0  0  0  0  0  0  0  0  0  0
   56.4831   26.8087   45.7347 H   0  0  0  0  0  0  0  0  0  0  0  0
   58.5840   27.1780   45.3700 C   0  0  0  0  0  0  0  0  0  0  0  0
   58.8809   26.1444   45.6013 H   0  0  0  0  0  0  0  0  0  0  0  0
   59.5500   28.1150   45.0030 C   0  0  0  0  0  0  0  0  0  0  0  0
   60.6083   27.8202   44.9466 H   0  0  0  0  0  0  0  0  0  0  0  0
   59.1740   29.4280   44.7070 C   0  0  0  0  0  0  0  0  0  0  0  0
   59.9409   30.1606   44.4152 H   0  0  0  0  0  0  0  0  0  0  0  0
   57.8270   29.8230   44.7780 C   0  0  0  0  0  0  0  0  0  0  0  0
   57.4900   31.2300   44.4550 C   0  0  0  0  0  0  0  0  0  0  0  0
   57.3403   31.5212   43.4049 H   0  0  0  0  0  0  0  0  0  0  0  0
   57.3680   32.1260   45.3880 N   0  0  0  0  0  0  0  0  0  0  0  0
   58.2370   33.2510   45.6180 C   0  0  0  0  0  0  0  0  0  0  0  0
   58.4700   34.2270   44.6250 C   0  0  0  0  0  0  0  0  0  0  0  0
   58.0085   34.1175   43.6325 H   0  0  0  0  0  0  0  0  0  0  0  0
   59.2820   35.3300   44.8940 C   0  0  0  0  0  0  0  0  0  0  0  0
   59.4620   36.0823   44.1119 H   0  0  0  0  0  0  0  0  0  0  0  0
   59.8660   35.4810   46.1520 C   0  0  0  0  0  0  0  0  0  0  0  0
   60.5110   36.3480   46.3578 H   0  0  0  0  0  0  0  0  0  0  0  0
   59.6330   34.5340   47.1490 C   0  0  0  0  0  0  0  0  0  0  0  0
   60.0955   34.6587   48.1392 H   0  0  0  0  0  0  0  0  0  0  0  0
   58.8120   33.4220   46.8980 C   0  0  0  0  0  0  0  0  0  0  0  0
   58.5960   32.4230   47.9700 C   0  0  0  0  0  0  0  0  0  0  0  0
   57.7450   32.6690   48.8680 O   0  0  0  0  0  0  0  0  0  0  0  0
   59.3310   31.1820   48.0070 N   0  0  0  0  0  0  0  0  0  0  0  0
   60.6310   31.0480   47.3380 C   0  0  0  0  0  0  0  0  0  0  0  0
   60.4814   30.6429   46.3263 H   0  0  0  0  0  0  0  0  0  0  0  0
   61.1106   32.0358   47.2737 H   0  0  0  0  0  0  0  0  0  0  0  0
   61.5290   30.1000   48.1380 C   0  0  0  0  0  0  0  0  0  0  0  0
   62.4458   29.9012   47.5635 H   0  0  0  0  0  0  0  0  0  0  0  0
   61.7747   30.5747   49.0994 H   0  0  0  0  0  0  0  0  0  0  0  0
   60.8670   28.8760   48.3930 O   0  0  0  0  0  0  0  0  0  0  0  0
   59.7540   29.1020   49.2370 C   0  0  0  0  0  0  0  0  0  0  0  0
   59.3036   28.1351   49.5058 H   0  0  0  0  0  0  0  0  0  0  0  0
   60.0980   29.6294   50.1389 H   0  0  0  0  0  0  0  0  0  0  0  0
   58.7030   29.9670   48.5350 C   0  0  0  0  0  0  0  0  0  0  0  0
   58.2557   29.3978   47.7068 H   0  0  0  0  0  0  0  0  0  0  0  0
   57.9219   30.2467   49.2573 H   0  0  0  0  0  0  0  0  0  0  0  0
  1  2  1  0
  2  3  1  0
  3  4  2  0
  4  5  1  0
  4  6  1  0
  6  7  1  0
  6  8  2  0
  8  9  1  0
  8 10  1  0
 10 11  1  0
 10 12  2  0
 12 13  1  0
 13 14  1  0
 13 15  2  0
 15 16  1  0
 16 17  2  0
 17 18  1  0
 17 19  1  0
 19 20  1  0
 19 21  2  0
 21 22  1  0
 21 23  1  0
 23 24  1  0
 23 25  2  0
 25 26  1  0
 26 27  2  0
 26 28  1  0
 28 29  1  0
 29 30  1  0
 29 31  1  0
 29 32  1  0
 32 33  1  0
 32 34  1  0
 32 35  1  0
 35 36  1  0
 36 37  1  0
 36 38  1  0
 36 39  1  0
 39 40  1  0
 39 41  1  0
 12  3  1  0
 25 16  1  0
 39 28  1  0
M  END
>  <UniqueID>  (3) 
3

>  <SMILES>  (3) 
O=C(c1ccccc1/N=C/c1ccccc1O)N1CCOCC1

>  <Energy>  (3) 
54.361522550929564

>  <Genealogy>  (3) 
O=C(c1ccccc1/N=C/c1ccccc1O)N1CCOCC1 (cis-trans isomerization)
O=C(c1ccccc1/N=C/c1ccccc1O)N1CCOCC1 (3D coordinates assigned)
O=C(c1ccccc1/N=C/c1ccccc1O)N1CCOCC1 (nonaromatic ring conformer: 54.361522550929564 kcal/mol)

>  <smiles>  (3) 
O=C(c1ccccc1N=Cc1ccccc1O)N1CCOCC1

>  <score_type>  (3) 
oracle

>  <origin>  (3) 
adg

>  <m_score__min__energy>  (3) 
-8.5700000000000003

>  <m_primary>  (3) 
energy

$$$$
3:0
     RDKit          3D

 42 43  0  0  0  0  0  0  0  0999 V2000
   58.1730   34.3860   47.2340 O   0  0  0  0  0  0  0  0  0  0  0  0
   58.4890   33.7080   46.2200 C   0  0  0  0  0  0  0  0  0  0  0  0
   59.9180   33.6640   45.7600 C   0  0  0  0  0  0  0  0  0  0  0  0
   60.7760   33.0710   46.7850 N   0  0  0  0  0  0  0  0  0  0  0  0
   60.3310   31.4110   47.0490 S   0  0  0  0  0  0  0  0  0  0  0  0
   61.5800   30.5760   47.0900 O   0  0  0  0  0  0  0  0  0  0  0  0
   59.4770   30.9270   45.9100 O   0  0  0  0  0  0  0  0  0  0  0  0
   59.4510   31.2230   48.5650 C   0  0  0  0  0  0  0  0  0  0  0  0
   59.2070   29.9460   49.0910 C   0  0  0  0  0  0  0  0  0  0  0  0
   58.5060   29.8030   50.2930 C   0  0  0  0  0  0  0  0  0  0  0  0
   58.0490   30.9330   50.9760 C   0  0  0  0  0  0  0  0  0  0  0  0
   57.1050   30.7370   52.6240 Br  0  0  0  0  0  0  0  0  0  0  0  0
   58.2870   32.2090   50.4540 C   0  0  0  0  0  0  0  0  0  0  0  0
   58.9830   32.3540   49.2510 C   0  0  0  0  0  0  0  0  0  0  0  0
   57.4530   33.0280   45.4980 N   0  0  0  0  0  0  0  0  0  0  0  0
   57.4930   32.7110   44.0730 C   0  0  0  0  0  0  0  0  0  0  0  0
   57.1670   31.2650   43.8670 C   0  0  0  0  0  0  0  0  0  0  0  0
   57.0070   30.8330   42.6940 O   0  0  0  0  0  0  0  0  0  0  0  0
   57.0150   30.3820   44.9890 N   0  0  0  0  0  0  0  0  0  0  0  0
   56.2780   29.1240   44.8900 C   0  0  0  0  0  0  0  0  0  0  0  0
   57.0810   28.0160   45.5230 C   0  0  0  0  0  0  0  0  0  0  0  0
   58.4750   28.1550   45.6270 C   0  0  0  0  0  0  0  0  0  0  0  0
   59.2370   27.1830   46.2800 C   0  0  0  0  0  0  0  0  0  0  0  0
   58.6140   26.0660   46.8410 C   0  0  0  0  0  0  0  0  0  0  0  0
   57.2280   25.9160   46.7440 C   0  0  0  0  0  0  0  0  0  0  0  0
   56.4590   26.8830   46.0880 C   0  0  0  0  0  0  0  0  0  0  0  0
   55.0810   26.7100   46.0050 O   0  0  0  0  0  0  0  0  0  0  0  0
   59.9830   33.0609   44.8424 H   0  0  0  0  0  0  0  0  0  0  0  0
   60.2580   34.6923   45.5676 H   0  0  0  0  0  0  0  0  0  0  0  0
   59.5678   29.0546   48.5570 H   0  0  0  0  0  0  0  0  0  0  0  0
   58.3143   28.7996   50.7011 H   0  0  0  0  0  0  0  0  0  0  0  0
   57.9260   33.0986   50.9909 H   0  0  0  0  0  0  0  0  0  0  0  0
   59.1646   33.3582   48.8404 H   0  0  0  0  0  0  0  0  0  0  0  0
   56.7571   33.3310   43.5400 H   0  0  0  0  0  0  0  0  0  0  0  0
   58.5010   32.9156   43.6831 H   0  0  0  0  0  0  0  0  0  0  0  0
   57.3090   30.7080   45.9370 H   0  0  0  0  0  0  0  0  0  0  0  0
   55.3147   29.2221   45.4119 H   0  0  0  0  0  0  0  0  0  0  0  0
   56.1005   28.8871   43.8306 H   0  0  0  0  0  0  0  0  0  0  0  0
   58.9701   29.0353   45.1912 H   0  0  0  0  0  0  0  0  0  0  0  0
   60.3286   27.2976   46.3524 H   0  0  0  0  0  0  0  0  0  0  0  0
   59.2145   25.3040   47.3594 H   0  0  0  0  0  0  0  0  0  0  0  0
   56.7400   25.0344   47.1851 H   0  0  0  0  0  0  0  0  0  0  0  0
  1  2  2  0
  2  3  1  0
  3  4  1  0
  4  5  1  0
  5  6  2  0
  5  7  2  0
  5  8  1  0
  8  9  2  0
  9 10  1  0
 10 11  2  0
 11 12  1  0
 11 13  1  0
 13 14  2  0
  2 15  1  0
 15 16  1  0
 16 17  1  0
 17 18  2  0
 17 19  1  0
 19 20  1  0
 20 21  1  0
 21 22  2  0
 22 23  1  0
 23 24  2  0
 24 25  1  0
 25 26  2  0
 26 27  1  0
 14  8  1  0
 26 21  1  0
  3 28  1  0
  3 29  1  0
  9 30  1  0
 10 31  1  0
 13 32  1  0
 14 33  1  0
 16 34  1  0
 16 35  1  0
 19 36  1  0
 20 37  1  0
 20 38  1  0
 22 39  1  0
 23 40  1  0
 24 41  1  0
 25 42  1  0
M  CHG  3   4  -1  15  -1  27  -1
M  END
>  <UniqueID>  (4) 
4

>  <SMILES>  (4) 
O=C(C[N-]S(=O)(=O)c1ccc(Br)cc1)[N-]CC(=O)NCc1ccccc1[O-]

>  <Energy>  (4) 
31.55702157275864

>  <Genealogy>  (4) 
O=C(C[N-]S(=O)(=O)c1ccc(Br)cc1)[N-]CC(=O)NCc1ccccc1[O-] (protonated)
O=C(C[N-]S(=O)(=O)c1ccc(Br)cc1)[N-]CC(=O)NCc1ccccc1[O-] (3D coordinates assigned)
O=C(C[N-]S(=O)(=O)c1ccc(Br)cc1)[N-]CC(=O)NCc1ccccc1[O-] (optimized conformer: 31.55702157275864 kcal/mol)

>  <smiles>  (4) 
O=C(CNC(=O)CNS(=O)(=O)c1ccc(Br)cc1)NCc1ccccc1O

>  <score_type>  (4) 
oracle

>  <origin>  (4) 
adg

>  <m_score__min__energy>  (4) 
-14.970000000000001

>  <m_primary>  (4) 
energy

$$$$
4:0
     RDKit          3D

 39 41  0  0  0  0  0  0  0  0999 V2000
   55.5250   28.6770   45.0900 O   0  0  0  0  0  0  0  0  0  0  0  0
   56.7030   28.2830   45.2960 C   0  0  0  0  0  0  0  0  0  0  0  0
   57.7830   29.0810   44.7890 N   0  0  0  0  0  0  0  0  0  0  0  0
   58.0440   30.4600   45.0910 C   0  0  0  0  0  0  0  0  0  0  0  0
   57.3100   31.4340   44.3990 C   0  0  0  0  0  0  0  0  0  0  0  0
   57.4680   32.7880   44.6980 C   0  0  0  0  0  0  0  0  0  0  0  0
   58.3740   33.1840   45.6820 C   0  0  0  0  0  0  0  0  0  0  0  0
   59.1430   32.2300   46.3520 C   0  0  0  0  0  0  0  0  0  0  0  0
   59.0100   30.8640   46.0470 C   0  0  0  0  0  0  0  0  0  0  0  0
   59.9170   29.9050   46.7160 C   0  0  0  0  0  0  0  0  0  0  0  0
   60.7850   29.3110   46.0180 O   0  0  0  0  0  0  0  0  0  0  0  0
   59.8180   29.6160   48.1270 N   0  0  0  0  0  0  0  0  0  0  0  0
   60.9060   28.8910   48.7920 C   0  0  0  0  0  0  0  0  0  0  0  0
   60.9180   29.2290   50.2860 C   0  0  0  0  0  0  0  0  0  0  0  0
   59.6430   29.0130   50.8610 O   0  0  0  0  0  0  0  0  0  0  0  0
   58.7050   29.9050   50.2930 C   0  0  0  0  0  0  0  0  0  0  0  0
   58.5130   29.6120   48.8010 C   0  0  0  0  0  0  0  0  0  0  0  0
   56.9300   27.0490   46.0920 C   0  0  0  0  0  0  0  0  0  0  0  0
   58.1830   26.7920   46.6730 C   0  0  0  0  0  0  0  0  0  0  0  0
   58.3900   25.6300   47.4170 C   0  0  0  0  0  0  0  0  0  0  0  0
   57.3360   24.7330   47.5930 C   0  0  0  0  0  0  0  0  0  0  0  0
   57.5050   23.6800   48.2610 O   0  0  0  0  0  0  0  0  0  0  0  0
   56.1200   25.0020   47.0500 N   0  0  0  0  0  0  0  0  0  0  0  0
   55.8890   26.1260   46.3180 C   0  0  0  0  0  0  0  0  0  0  0  0
   54.6180   26.3390   45.7990 O   0  0  0  0  0  0  0  0  0  0  0  0
   56.6034   31.1281   43.6135 H   0  0  0  0  0  0  0  0  0  0  0  0
   56.8781   33.5430   44.1577 H   0  0  0  0  0  0  0  0  0  0  0  0
   58.4830   34.2500   45.9307 H   0  0  0  0  0  0  0  0  0  0  0  0
   59.8582   32.5498   47.1242 H   0  0  0  0  0  0  0  0  0  0  0  0
   60.7556   27.8089   48.6637 H   0  0  0  0  0  0  0  0  0  0  0  0
   61.8663   29.1875   48.3449 H   0  0  0  0  0  0  0  0  0  0  0  0
   61.6555   28.5904   50.7942 H   0  0  0  0  0  0  0  0  0  0  0  0
   61.1830   30.2899   50.4051 H   0  0  0  0  0  0  0  0  0  0  0  0
   57.7407   29.7923   50.8101 H   0  0  0  0  0  0  0  0  0  0  0  0
   59.0810   30.9325   50.4059 H   0  0  0  0  0  0  0  0  0  0  0  0
   58.0409   28.6259   48.6792 H   0  0  0  0  0  0  0  0  0  0  0  0
   57.8694   30.3854   48.3563 H   0  0  0  0  0  0  0  0  0  0  0  0
   59.0052   27.5107   46.5407 H   0  0  0  0  0  0  0  0  0  0  0  0
   59.3750   25.4230   47.8607 H   0  0  0  0  0  0  0  0  0  0  0  0
  1  2  2  0
  2  3  1  0
  3  4  1  0
  4  5  2  0
  5  6  1  0
  6  7  2  0
  7  8  1  0
  8  9  2  0
  9 10  1  0
 10 11  2  0
 10 12  1  0
 12 13  1  0
 13 14  1  0
 14 15  1  0
 15 16  1  0
 16 17  1  0
  2 18  1  0
 18 19  1  0
 19 20  2  0
 20 21  1  0
 21 22  2  0
 21 23  1  0
 23 24  1  0
 24 25  1  0
  9  4  1  0
 17 12  1  0
 24 18  2  0
  5 26  1  0
  6 27  1  0
  7 28  1  0
  8 29  1  0
 13 30  1  0
 13 31  1  0
 14 32  1  0
 14 33  1  0
 16 34  1  0
 16 35  1  0
 17 36  1  0
 17 37  1  0
 19 38  1  0
 20 39  1  0
M  CHG  3   3  -1  23  -1  25  -1
M  END
>  <UniqueID>  (5) 
5

>  <SMILES>  (5) 
O=C([N-]c1ccccc1C(=O)N1CCOCC1)c1ccc(=O)[n-]c1[O-]

>  <Energy>  (5) 
57.22256841823001

>  <Genealogy>  (5) 
O=C([N-]c1ccccc1C(=O)N1CCOCC1)c1ccc(=O)[n-]c1[O-] (protonated)
O=C([N-]c1ccccc1C(=O)N1CCOCC1)c1ccc(=O)[n-]c1[O-] (3D coordinates assigned)
O=C([N-]c1ccccc1C(=O)N1CCOCC1)c1ccc(=O)[n-]c1[O-] (nonaromatic ring conformer: 57.22256841823001 kcal/mol)

>  <smiles>  (5) 
O=C(Nc1ccccc1C(=O)N1CCOCC1)c1ccc(=O)[nH]c1O

>  <score_type>  (5) 
oracle

>  <origin>  (5) 
adg

>  <m_score__min__energy>  (5) 
-15.06

>  <m_primary>  (5) 
energy

$$$$
5:0
     RDKit          3D

 55 58  0  0  0  0  0  0  0  0999 V2000
   59.6730   35.3560   46.3040 C   0  0  0  0  0  0  0  0  0  0  0  0
   58.9340   34.1270   45.8660 C   0  0  0  0  0  0  0  0  0  0  0  0
   58.7870   33.8390   44.5020 C   0  0  0  0  0  0  0  0  0  0  0  0
   58.1270   32.6760   44.0930 C   0  0  0  0  0  0  0  0  0  0  0  0
   57.6270   31.7740   45.0460 C   0  0  0  0  0  0  0  0  0  0  0  0
   56.8870   30.5450   44.6010 C   0  0  0  0  0  0  0  0  0  0  0  0
   56.9630   29.5190   45.6330 N   0  0  0  0  0  0  0  0  0  0  0  0
   56.8840   28.1130   45.3730 C   0  0  0  0  0  0  0  0  0  0  0  0
   55.8170   27.4830   45.6110 O   0  0  0  0  0  0  0  0  0  0  0  0
   58.0770   27.3740   44.8150 C   0  0  0  0  0  0  0  0  0  0  0  0
   59.1240   28.3610   44.2200 C   0  0  0  0  0  0  0  0  0  0  0  0
   60.4060   28.4540   45.0570 C   0  0  0  0  0  0  0  0  0  0  0  0
   60.0710   28.3960   46.4840 N   0  0  0  0  0  0  0  0  0  0  0  0
   60.2400   29.5310   47.3570 C   0  0  0  0  0  0  0  0  0  0  0  0
   61.2930   30.4590   47.1560 C   0  0  0  0  0  0  0  0  0  0  0  0
   61.3550   31.5560   48.0160 C   0  0  0  0  0  0  0  0  0  0  0  0
   60.4300   31.7290   49.0070 C   0  0  0  0  0  0  0  0  0  0  0  0
   59.3950   30.8240   49.1980 C   0  0  0  0  0  0  0  0  0  0  0  0
   59.3260   29.7500   48.3600 N   0  0  0  0  0  0  0  0  0  0  0  0
   60.8020   32.8850   49.6490 C   0  0  0  0  0  0  0  0  0  0  0  0
   60.2150   33.4110   50.6330 O   0  0  0  0  0  0  0  0  0  0  0  0
   61.9150   33.3770   49.0560 N   0  0  0  0  0  0  0  0  0  0  0  0
   62.6340   34.5920   49.4400 C   0  0  0  0  0  0  0  0  0  0  0  0
   62.2450   32.5750   48.0420 N   0  0  0  0  0  0  0  0  0  0  0  0
   63.4370   32.7240   47.2060 C   0  0  0  0  0  0  0  0  0  0  0  0
   59.4180   27.1830   46.9960 C   0  0  0  0  0  0  0  0  0  0  0  0
   58.6870   26.4230   45.8710 C   0  0  0  0  0  0  0  0  0  0  0  0
   57.7870   32.0560   46.4110 C   0  0  0  0  0  0  0  0  0  0  0  0
   58.4440   33.2200   46.8190 C   0  0  0  0  0  0  0  0  0  0  0  0
   59.6976   35.3969   47.4030 H   0  0  0  0  0  0  0  0  0  0  0  0
   60.7015   35.3235   45.9152 H   0  0  0  0  0  0  0  0  0  0  0  0
   59.1621   36.2492   45.9152 H   0  0  0  0  0  0  0  0  0  0  0  0
   59.1928   34.5313   43.7497 H   0  0  0  0  0  0  0  0  0  0  0  0
   57.9990   32.4669   43.0207 H   0  0  0  0  0  0  0  0  0  0  0  0
   55.8329   30.8004   44.4176 H   0  0  0  0  0  0  0  0  0  0  0  0
   57.3435   30.1626   43.6761 H   0  0  0  0  0  0  0  0  0  0  0  0
   57.7330   26.7426   43.9825 H   0  0  0  0  0  0  0  0  0  0  0  0
   59.3902   28.0211   43.2083 H   0  0  0  0  0  0  0  0  0  0  0  0
   58.6647   29.3605   44.2109 H   0  0  0  0  0  0  0  0  0  0  0  0
   61.0700   27.6146   44.8030 H   0  0  0  0  0  0  0  0  0  0  0  0
   60.9136   29.4056   44.8407 H   0  0  0  0  0  0  0  0  0  0  0  0
   62.0322   30.3196   46.3534 H   0  0  0  0  0  0  0  0  0  0  0  0
   58.6548   30.9682   49.9988 H   0  0  0  0  0  0  0  0  0  0  0  0
   62.6756   34.6622   50.5370 H   0  0  0  0  0  0  0  0  0  0  0  0
   63.6564   34.5562   49.0359 H   0  0  0  0  0  0  0  0  0  0  0  0
   62.1106   35.4710   49.0359 H   0  0  0  0  0  0  0  0  0  0  0  0
   64.3235   32.8348   47.8478 H   0  0  0  0  0  0  0  0  0  0  0  0
   63.5531   31.8334   46.5709 H   0  0  0  0  0  0  0  0  0  0  0  0
   63.3303   33.6158   46.5709 H   0  0  0  0  0  0  0  0  0  0  0  0
   60.1808   26.5242   47.4366 H   0  0  0  0  0  0  0  0  0  0  0  0
   58.6769   27.4805   47.7525 H   0  0  0  0  0  0  0  0  0  0  0  0
   59.4047   25.7552   45.3720 H   0  0  0  0  0  0  0  0  0  0  0  0
   57.8618   25.8585   46.3297 H   0  0  0  0  0  0  0  0  0  0  0  0
   57.3933   31.3573   47.1639 H   0  0  0  0  0  0  0  0  0  0  0  0
   58.5777   33.4264   47.8912 H   0  0  0  0  0  0  0  0  0  0  0  0
  1  2  1  0
  2  3  2  0
  3  4  1  0
  4  5  2  0
  5  6  1  0
  6  7  1  0
  7  8  1  0
  8  9  2  0
  8 10  1  0
 10 11  1  0
 11 12  1  0
 12 13  1  0
 13 14  1  0
 14 15  2  0
 15 16  1  0
 16 17  2  0
 17 18  1  0
 18 19  2  0
 17 20  1  0
 20 21  2  0
 20 22  1  0
 22 23  1  0
 22 24  1  0
 24 25  1  0
 13 26  1  0
 26 27  1  0
  5 28  1  0
 28 29  2  0
 29  2  1  0
 27 10  1  0
 19 14  1  0
 24 16  1  0
  1 30  1  0
  1 31  1  0
  1 32  1  0
  3 33  1  0
  4 34  1  0
  6 35  1  0
  6 36  1  0
 10 37  1  0
 11 38  1  0
 11 39  1  0
 12 40  1  0
 12 41  1  0
 15 42  1  0
 18 43  1  0
 23 44  1  0
 23 45  1  0
 23 46  1  0
 25 47  1  0
 25 48  1  0
 25 49  1  0
 26 50  1  0
 26 51  1  0
 27 52  1  0
 27 53  1  0
 28 54  1  0
 29 55  1  0
M  CHG  1   7  -1
M  END
>  <UniqueID>  (6) 
6

>  <SMILES>  (6) 
Cc1ccc(C[N-]C(=O)C2CCN(c3cc4c(cn3)c(=O)n(C)n4C)CC2)cc1

>  <Energy>  (6) 
101.45391705073328

>  <Genealogy>  (6) 
Cc1ccc(C[N-]C(=O)C2CCN(c3cc4c(cn3)c(=O)n(C)n4C)CC2)cc1 (protonated)
Cc1ccc(C[N-]C(=O)C2CCN(c3cc4c(cn3)c(=O)n(C)n4C)CC2)cc1 (3D coordinates assigned)
Cc1ccc(C[N-]C(=O)C2CCN(c3cc4c(cn3)c(=O)n(C)n4C)CC2)cc1 (nonaromatic ring conformer: 101.45391705073328 kcal/mol)

>  <smiles>  (6) 
Cc1ccc(CNC(=O)C2CCN(c3cc4c(cn3)c(=O)n(C)n4C)CC2)cc1

>  <score_type>  (6) 
oracle

>  <origin>  (6) 
adg

>  <m_score__min__energy>  (6) 
-10.380000000000001

>  <m_primary>  (6) 
energy

$$$$
6:0
     RDKit          3D

 61 64  0  0  0  0  0  0  0  0999 V2000
   57.1910   29.9890   43.5880 C   0  0  0  0  0  0  0  0  0  0  0  0
   57.9870   30.2230   44.6430 C   0  0  0  0  0  0  0  0  0  0  0  0
   58.4470   29.2790   45.5720 C   0  0  0  0  0  0  0  0  0  0  0  0
   58.4580   27.9310   45.5370 C   0  0  0  0  0  0  0  0  0  0  0  0
   57.2910   27.0510   45.7320 C   0  0  0  0  0  0  0  0  0  0  0  0
   57.3380   25.8090   46.2480 N   0  0  0  0  0  0  0  0  0  0  0  0
   56.0360   25.4740   46.3780 C   0  0  0  0  0  0  0  0  0  0  0  0
   55.6630   24.3550   46.8170 O   0  0  0  0  0  0  0  0  0  0  0  0
   55.1650   26.4360   46.0080 N   0  0  0  0  0  0  0  0  0  0  0  0
   55.9760   27.4320   45.6150 C   0  0  0  0  0  0  0  0  0  0  0  0
   55.5230   28.6650   45.1570 O   0  0  0  0  0  0  0  0  0  0  0  0
   58.9880   30.0010   46.6200 C   0  0  0  0  0  0  0  0  0  0  0  0
   58.9010   31.3360   46.2820 C   0  0  0  0  0  0  0  0  0  0  0  0
   59.4800   32.4130   47.1180 C   0  0  0  0  0  0  0  0  0  0  0  0
   58.7020   33.3230   47.5140 O   0  0  0  0  0  0  0  0  0  0  0  0
   60.9070   32.4920   47.3890 N   0  0  0  0  0  0  0  0  0  0  0  0
   61.3760   31.4330   48.3090 C   0  0  0  0  0  0  0  0  0  0  0  0
   60.9160   31.6360   49.7620 C   0  0  0  0  0  0  0  0  0  0  0  0
   61.0770   33.0260   50.2000 N   0  0  0  0  0  0  0  0  0  0  0  0
   60.9580   33.2820   51.6050 C   0  0  0  0  0  0  0  0  0  0  0  0
   61.8970   33.8560   52.2200 O   0  0  0  0  0  0  0  0  0  0  0  0
   59.7830   32.8730   52.3130 N   0  0  0  0  0  0  0  0  0  0  0  0
   59.8840   31.9190   53.4230 C   0  0  0  0  0  0  0  0  0  0  0  0
   58.8740   30.7760   53.2190 C   0  0  0  0  0  0  0  0  0  0  0  0
   57.5730   31.2630   52.7250 N   0  0  0  0  0  0  0  0  0  0  0  0
   56.5860   30.3010   52.2830 C   0  0  0  0  0  0  0  0  0  0  0  0
   55.3070   30.7210   51.6190 C   0  0  0  0  0  0  0  0  0  0  0  0
   56.7890   29.0700   52.4610 O   0  0  0  0  0  0  0  0  0  0  0  0
   57.3430   32.7160   52.6690 C   0  0  0  0  0  0  0  0  0  0  0  0
   58.4720   33.3710   51.8730 C   0  0  0  0  0  0  0  0  0  0  0  0
   60.8110   34.1370   49.2830 C   0  0  0  0  0  0  0  0  0  0  0  0
   61.3080   33.8300   47.8670 C   0  0  0  0  0  0  0  0  0  0  0  0
   58.3230   31.4730   45.0600 N   0  0  0  0  0  0  0  0  0  0  0  0
   58.1200   32.7130   44.3030 C   0  0  0  0  0  0  0  0  0  0  0  0
   56.8964   30.8173   42.9268 H   0  0  0  0  0  0  0  0  0  0  0  0
   56.8332   28.9689   43.3845 H   0  0  0  0  0  0  0  0  0  0  0  0
   59.4254   27.4436   45.3456 H   0  0  0  0  0  0  0  0  0  0  0  0
   59.4088   29.5885   47.5489 H   0  0  0  0  0  0  0  0  0  0  0  0
   61.4180   32.3550   46.4880 H   0  0  0  0  0  0  0  0  0  0  0  0
   60.9899   30.4664   47.9532 H   0  0  0  0  0  0  0  0  0  0  0  0
   62.4754   31.4679   48.3095 H   0  0  0  0  0  0  0  0  0  0  0  0
   59.8541   31.3597   49.8402 H   0  0  0  0  0  0  0  0  0  0  0  0
   61.5408   31.0017   50.4080 H   0  0  0  0  0  0  0  0  0  0  0  0
   60.9025   31.5050   53.4576 H   0  0  0  0  0  0  0  0  0  0  0  0
   59.6627   32.4359   54.3685 H   0  0  0  0  0  0  0  0  0  0  0  0
   59.2867   30.0650   52.4881 H   0  0  0  0  0  0  0  0  0  0  0  0
   58.7063   30.2959   54.1944 H   0  0  0  0  0  0  0  0  0  0  0  0
   54.5587   30.9667   52.3869 H   0  0  0  0  0  0  0  0  0  0  0  0
   55.4927   31.6053   50.9917 H   0  0  0  0  0  0  0  0  0  0  0  0
   54.9323   29.8987   50.9917 H   0  0  0  0  0  0  0  0  0  0  0  0
   56.3802   32.9178   52.1768 H   0  0  0  0  0  0  0  0  0  0  0  0
   57.3217   33.1274   53.6890 H   0  0  0  0  0  0  0  0  0  0  0  0
   58.3397   33.1416   50.8053 H   0  0  0  0  0  0  0  0  0  0  0  0
   58.4350   34.4575   52.0407 H   0  0  0  0  0  0  0  0  0  0  0  0
   59.7269   34.3202   49.2490 H   0  0  0  0  0  0  0  0  0  0  0  0
   61.3476   35.0237   49.6516 H   0  0  0  0  0  0  0  0  0  0  0  0
   60.8967   34.5846   47.1805 H   0  0  0  0  0  0  0  0  0  0  0  0
   62.4074   33.8525   47.8936 H   0  0  0  0  0  0  0  0  0  0  0  0
   57.9828   33.5511   45.0021 H   0  0  0  0  0  0  0  0  0  0  0  0
   58.9988   32.9040   43.6696 H   0  0  0  0  0  0  0  0  0  0  0  0
   57.2261   32.6138   43.6696 H   0  0  0  0  0  0  0  0  0  0  0  0
  1  2  2  0
  2  3  1  0
  3  4  2  3
  4  5  1  0
  5  6  1  0
  6  7  1  0
  7  8  2  0
  7  9  1  0
  9 10  1  0
 10 11  1  0
  3 12  1  0
 12 13  2  0
 13 14  1  0
 14 15  2  0
 14 16  1  0
 16 17  1  0
 17 18  1  0
 18 19  1  0
 19 20  1  0
 20 21  2  0
 20 22  1  0
 22 23  1  0
 23 24  1  0
 24 25  1  0
 25 26  1  0
 26 27  1  0
 26 28  2  0
 25 29  1  0
 29 30  1  0
 19 31  1  0
 31 32  1  0
 13 33  1  0
 33 34  1  0
 33  2  1  0
 10  5  2  0
 32 16  1  0
 30 22  1  0
  1 35  1  0
  1 36  1  0
  4 37  1  0
 12 38  1  0
 16 39  1  0
 17 40  1  0
 17 41  1  0
 18 42  1  0
 18 43  1  0
 23 44  1  0
 23 45  1  0
 24 46  1  0
 24 47  1  0
 27 48  1  0
 27 49  1  0
 27 50  1  0
 29 51  1  0
 29 52  1  0
 30 53  1  0
 30 54  1  0
 31 55  1  0
 31 56  1  0
 32 57  1  0
 32 58  1  0
 34 59  1  0
 34 60  1  0
 34 61  1  0
M  CHG  4   6  -1   9  -1  11  -1  16   1
M  END
>  <UniqueID>  (7) 
7

>  <SMILES>  (7) 
C=c1c(=Cc2[n-]c(=O)[n-]c2[O-])cc(C(=O)[NH+]2CCN(C(=O)N3CCN(C(C)=O)CC3)CC2)n1C

>  <Energy>  (7) 
152.1099968685166

>  <Genealogy>  (7) 
C=c1c(=Cc2[n-]c(=O)[n-]c2[O-])cc(C(=O)[NH+]2CCN(C(=O)N3CCN(C(C)=O)CC3)CC2)n1C (protonated)
C=c1c(=Cc2[n-]c(=O)[n-]c2[O-])cc(C(=O)[NH+]2CCN(C(=O)N3CCN(C(C)=O)CC3)CC2)n1C (3D coordinates assigned)
C=c1c(=Cc2[n-]c(=O)[n-]c2[O-])cc(C(=O)[NH+]2CCN(C(=O)N3CCN(C(C)=O)CC3)CC2)n1C (nonaromatic ring conformer: 152.1099968685166 kcal/mol)

>  <smiles>  (7) 
C=c1c(=Cc2[nH]c(=O)[nH]c2O)cc(C(=O)N2CCN(C(=O)N3CCN(C(C)=O)CC3)CC2)n1C

>  <score_type>  (7) 
oracle

>  <origin>  (7) 
adg

>  <m_score__min__energy>  (7) 
-17.73

>  <m_primary>  (7) 
energy

$$$$
7:0
     RDKit          3D

 34 36  0  0  0  0  0  0  0  0999 V2000
   56.2640   33.8510   47.1970 H   0  0  0  0  0  0  0  0  0  0  0  0
   56.9260   33.1660   46.8510 O   0  0  0  0  0  0  0  0  0  0  0  0
   58.2810   33.4640   46.7100 C   0  0  0  0  0  0  0  0  0  0  0  0
   58.6730   34.6830   46.1370 C   0  0  0  0  0  0  0  0  0  0  0  0
   57.9098   35.4047   45.8105 H   0  0  0  0  0  0  0  0  0  0  0  0
   60.0280   34.9850   45.9790 C   0  0  0  0  0  0  0  0  0  0  0  0
   60.3291   35.9440   45.5322 H   0  0  0  0  0  0  0  0  0  0  0  0
   61.0000   34.0700   46.3880 C   0  0  0  0  0  0  0  0  0  0  0  0
   62.0664   34.3077   46.2601 H   0  0  0  0  0  0  0  0  0  0  0  0
   60.6200   32.8520   46.9600 C   0  0  0  0  0  0  0  0  0  0  0  0
   61.3893   32.1304   47.2723 H   0  0  0  0  0  0  0  0  0  0  0  0
   59.2600   32.5450   47.1380 C   0  0  0  0  0  0  0  0  0  0  0  0
   58.8690   31.2100   47.7190 C   0  0  0  0  0  0  0  0  0  0  0  0
   58.0746   31.3561   48.4657 H   0  0  0  0  0  0  0  0  0  0  0  0
   59.7482   30.7515   48.1952 H   0  0  0  0  0  0  0  0  0  0  0  0
   58.3700   30.3070   46.6340 C   0  0  0  0  0  0  0  0  0  0  0  0
   58.4680   28.9290   46.6340 C   0  0  0  0  0  0  0  0  0  0  0  0
   58.9644   28.3032   47.3903 H   0  0  0  0  0  0  0  0  0  0  0  0
   57.8150   28.4910   45.4890 C   0  0  0  0  0  0  0  0  0  0  0  0
   57.6920   27.2170   45.0710 C   0  0  0  0  0  0  0  0  0  0  0  0
   57.9948   26.9797   44.0405 H   0  0  0  0  0  0  0  0  0  0  0  0
   57.1760   26.1210   45.9110 C   0  0  0  0  0  0  0  0  0  0  0  0
   57.9300   25.0870   46.3200 N   0  0  0  0  0  0  0  0  0  0  0  0
   57.0540   24.2970   46.9760 C   0  0  0  0  0  0  0  0  0  0  0  0
   57.3930   23.2170   47.5250 O   0  0  0  0  0  0  0  0  0  0  0  0
   55.7820   24.7510   46.9890 N   0  0  0  0  0  0  0  0  0  0  0  0
   55.8720   25.9000   46.3000 C   0  0  0  0  0  0  0  0  0  0  0  0
   54.7780   26.6990   45.9940 O   0  0  0  0  0  0  0  0  0  0  0  0
   57.3550   29.6410   44.8430 C   0  0  0  0  0  0  0  0  0  0  0  0
   56.6650   29.7070   43.6990 C   0  0  0  0  0  0  0  0  0  0  0  0
   56.4159   28.7851   43.1530 H   0  0  0  0  0  0  0  0  0  0  0  0
   56.3467   30.6831   43.3042 H   0  0  0  0  0  0  0  0  0  0  0  0
   57.6890   30.7350   45.5550 N   0  0  0  0  0  0  0  0  0  0  0  0
   57.4590   31.7290   45.3250 H   0  0  0  0  0  0  0  0  0  0  0  0
  1  2  1  0
  2  3  1  0
  3  4  2  0
  4  5  1  0
  4  6  1  0
  6  7  1  0
  6  8  2  0
  8  9  1  0
  8 10  1  0
 10 11  1  0
 10 12  2  0
 12 13  1  0
 13 14  1  0
 13 15  1  0
 13 16  1  0
 16 17  2  0
 17 18  1  0
 17 19  1  0
 19 20  2  0
 20 21  1  0
 20 22  1  0
 22 23  1  0
 23 24  1  0
 24 25  2  0
 24 26  1  0
 26 27  1  0
 27 28  1  0
 19 29  1  0
 29 30  2  0
 30 31  1  0
 30 32  1  0
 29 33  1  0
 33 34  1  0
 12  3  1  0
 33 16  1  0
 27 22  2  0
M  CHG  3  23  -1  26  -1  28  -1
M  END
>  <UniqueID>  (8) 
8

>  <SMILES>  (8) 
C=c1[nH]c(Cc2ccccc2O)c/c1=C\c1[n-]c(=O)[n-]c1[O-]

>  <Energy>  (8) 
97.36336483232259

>  <Genealogy>  (8) 
C=c1[nH]c(Cc2ccccc2O)cc1=Cc1[n-]c(=O)[n-]c1[O-] (protonated)
C=c1[nH]c(Cc2ccccc2O)c/c1=C\c1[n-]c(=O)[n-]c1[O-] (cis-trans isomerization)
C=c1[nH]c(Cc2ccccc2O)c/c1=C\c1[n-]c(=O)[n-]c1[O-] (3D coordinates assigned)
C=c1[nH]c(Cc2ccccc2O)c/c1=C\c1[n-]c(=O)[n-]c1[O-] (optimized conformer: 97.36336483232259 kcal/mol)

>  <smiles>  (8) 
C=c1[nH]c(Cc2ccccc2O)cc1=Cc1[nH]c(=O)[nH]c1O

>  <score_type>  (8) 
oracle

>  <origin>  (8) 
adg

>  <m_score__min__energy>  (8) 
-15.77

>  <m_primary>  (8) 
energy

$$$$
8:0
     RDKit          3D

 49 51  0  0  0  0  0  0  0  0999 V2000
   58.7570   27.9060   47.9940 O   0  0  0  0  0  0  0  0  0  0  0  0
   59.3940   28.4700   47.0630 C   0  0  0  0  0  0  0  0  0  0  0  0
   59.9230   29.8640   47.2870 C   0  0  0  0  0  0  0  0  0  0  0  0
   58.8930   30.7380   48.0140 C   0  0  0  0  0  0  0  0  0  0  0  0
   59.0540   32.1870   47.6210 C   0  0  0  0  0  0  0  0  0  0  0  0
   59.0930   32.5280   46.2570 C   0  0  0  0  0  0  0  0  0  0  0  0
   59.2750   33.8540   45.8620 C   0  0  0  0  0  0  0  0  0  0  0  0
   59.4320   34.8590   46.8240 C   0  0  0  0  0  0  0  0  0  0  0  0
   59.6140   36.1870   46.4420 O   0  0  0  0  0  0  0  0  0  0  0  0
   59.4100   34.5290   48.1830 C   0  0  0  0  0  0  0  0  0  0  0  0
   59.2300   33.2010   48.5900 C   0  0  0  0  0  0  0  0  0  0  0  0
   59.2420   32.8470   50.3160 Cl  0  0  0  0  0  0  0  0  0  0  0  0
   59.5820   27.7770   45.8090 N   0  0  0  0  0  0  0  0  0  0  0  0
   59.6550   28.5050   44.5310 C   0  0  0  0  0  0  0  0  0  0  0  0
   58.4670   29.4150   44.3680 C   0  0  0  0  0  0  0  0  0  0  0  0
   58.6300   30.7320   43.9050 C   0  0  0  0  0  0  0  0  0  0  0  0
   57.5230   31.5740   43.7720 C   0  0  0  0  0  0  0  0  0  0  0  0
   56.2450   31.1090   44.1000 C   0  0  0  0  0  0  0  0  0  0  0  0
   56.0730   29.8010   44.5600 C   0  0  0  0  0  0  0  0  0  0  0  0
   54.8040   29.3420   44.8890 O   0  0  0  0  0  0  0  0  0  0  0  0
   57.1790   28.9540   44.6910 C   0  0  0  0  0  0  0  0  0  0  0  0
   59.7030   26.3130   45.8230 C   0  0  0  0  0  0  0  0  0  0  0  0
   58.3650   25.6960   46.1310 C   0  0  0  0  0  0  0  0  0  0  0  0
   58.2980   24.4140   46.7020 C   0  0  0  0  0  0  0  0  0  0  0  0
   57.0620   23.8580   47.0450 C   0  0  0  0  0  0  0  0  0  0  0  0
   55.8850   24.5790   46.8250 C   0  0  0  0  0  0  0  0  0  0  0  0
   55.9430   25.8600   46.2640 C   0  0  0  0  0  0  0  0  0  0  0  0
   54.7730   26.5790   46.0520 O   0  0  0  0  0  0  0  0  0  0  0  0
   57.1790   26.4200   45.9210 C   0  0  0  0  0  0  0  0  0  0  0  0
   60.8381   29.8072   47.8947 H   0  0  0  0  0  0  0  0  0  0  0  0
   60.1354   30.3175   46.3076 H   0  0  0  0  0  0  0  0  0  0  0  0
   57.8804   30.4013   47.7470 H   0  0  0  0  0  0  0  0  0  0  0  0
   59.0512   30.6449   49.0986 H   0  0  0  0  0  0  0  0  0  0  0  0
   58.9791   31.7428   45.4951 H   0  0  0  0  0  0  0  0  0  0  0  0
   59.2952   34.1102   44.7924 H   0  0  0  0  0  0  0  0  0  0  0  0
   59.2600   36.9530   47.0040 H   0  0  0  0  0  0  0  0  0  0  0  0
   59.5351   35.3189   48.9383 H   0  0  0  0  0  0  0  0  0  0  0  0
   60.5759   29.1063   44.5101 H   0  0  0  0  0  0  0  0  0  0  0  0
   59.6568   27.7751   43.7080 H   0  0  0  0  0  0  0  0  0  0  0  0
   59.6333   31.1014   43.6463 H   0  0  0  0  0  0  0  0  0  0  0  0
   57.6565   32.6037   43.4090 H   0  0  0  0  0  0  0  0  0  0  0  0
   55.3748   31.7737   43.9957 H   0  0  0  0  0  0  0  0  0  0  0  0
   57.0399   27.9230   45.0483 H   0  0  0  0  0  0  0  0  0  0  0  0
   60.0479   25.9652   44.8381 H   0  0  0  0  0  0  0  0  0  0  0  0
   60.4278   26.0149   46.5948 H   0  0  0  0  0  0  0  0  0  0  0  0
   59.2225   23.8451   46.8800 H   0  0  0  0  0  0  0  0  0  0  0  0
   57.0158   22.8524   47.4883 H   0  0  0  0  0  0  0  0  0  0  0  0
   54.9128   24.1396   47.0928 H   0  0  0  0  0  0  0  0  0  0  0  0
   57.2222   27.4294   45.4860 H   0  0  0  0  0  0  0  0  0  0  0  0
  1  2  2  0
  2  3  1  0
  3  4  1  0
  4  5  1  0
  5  6  2  0
  6  7  1  0
  7  8  2  0
  8  9  1  0
  8 10  1  0
 10 11  2  0
 11 12  1  0
  2 13  1  0
 13 14  1  0
 14 15  1  0
 15 16  2  0
 16 17  1  0
 17 18  2  0
 18 19  1  0
 19 20  1  0
 19 21  2  0
 13 22  1  0
 22 23  1  0
 23 24  2  0
 24 25  1  0
 25 26  2  0
 26 27  1  0
 27 28  1  0
 27 29  2  0
 11  5  1  0
 21 15  1  0
 29 23  1  0
  3 30  1  0
  3 31  1  0
  4 32  1  0
  4 33  1  0
  6 34  1  0
  7 35  1  0
  9 36  1  0
 10 37  1  0
 14 38  1  0
 14 39  1  0
 16 40  1  0
 17 41  1  0
 18 42  1  0
 21 43  1  0
 22 44  1  0
 22 45  1  0
 24 46  1  0
 25 47  1  0
 26 48  1  0
 29 49  1  0
M  CHG  2  20  -1  28  -1
M  END
>  <UniqueID>  (9) 
9

>  <SMILES>  (9) 
O=C(CCc1ccc(O)cc1Cl)N(Cc1cccc([O-])c1)Cc1cccc([O-])c1

>  <Energy>  (9) 
47.62080176492025

>  <Genealogy>  (9) 
O=C(CCc1ccc(O)cc1Cl)N(Cc1cccc([O-])c1)Cc1cccc([O-])c1 (protonated)
O=C(CCc1ccc(O)cc1Cl)N(Cc1cccc([O-])c1)Cc1cccc([O-])c1 (3D coordinates assigned)
O=C(CCc1ccc(O)cc1Cl)N(Cc1cccc([O-])c1)Cc1cccc([O-])c1 (optimized conformer: 47.62080176492025 kcal/mol)

>  <smiles>  (9) 
O=C(CCc1ccc(O)cc1Cl)N(Cc1cccc(O)c1)Cc1cccc(O)c1

>  <score_type>  (9) 
oracle

>  <origin>  (9) 
adg

>  <m_score__min__energy>  (9) 
-16.09

>  <m_primary>  (9) 
energy

$$$$
9:0
     RDKit          3D

 37 38  0  0  0  0  0  0  0  0999 V2000
   56.3800   30.9580   44.8280 O   0  0  0  0  0  0  0  0  0  0  0  0
   56.3620   29.7090   44.9840 C   0  0  0  0  0  0  0  0  0  0  0  0
   55.1500   29.0390   44.8660 O   0  0  0  0  0  0  0  0  0  0  0  0
   57.6110   28.9510   45.2480 C   0  0  0  0  0  0  0  0  0  0  0  0
   57.6990   27.6190   44.7990 C   0  0  0  0  0  0  0  0  0  0  0  0
   58.8730   26.8820   44.9740 C   0  0  0  0  0  0  0  0  0  0  0  0
   59.9760   27.4630   45.5970 C   0  0  0  0  0  0  0  0  0  0  0  0
   59.9040   28.7760   46.0630 C   0  0  0  0  0  0  0  0  0  0  0  0
   58.7300   29.5280   45.9020 C   0  0  0  0  0  0  0  0  0  0  0  0
   58.6590   30.8330   46.4880 N   0  0  0  0  0  0  0  0  0  0  0  0
   59.2240   31.1360   48.0970 S   0  0  0  0  0  0  0  0  0  0  0  0
   58.2100   31.9770   48.8200 O   0  0  0  0  0  0  0  0  0  0  0  0
   59.3840   29.8470   48.8530 O   0  0  0  0  0  0  0  0  0  0  0  0
   60.7670   31.9970   48.0090 C   0  0  0  0  0  0  0  0  0  0  0  0
   61.7390   31.7530   48.9890 C   0  0  0  0  0  0  0  0  0  0  0  0
   62.9140   32.4330   48.9770 N   0  0  0  0  0  0  0  0  0  0  0  0
   63.1870   33.3670   48.0320 C   0  0  0  0  0  0  0  0  0  0  0  0
   62.2520   33.6530   47.0380 C   0  0  0  0  0  0  0  0  0  0  0  0
   61.0180   32.9690   47.0160 C   0  0  0  0  0  0  0  0  0  0  0  0
   60.1080   33.1990   46.1070 N   0  0  0  0  0  0  0  0  0  0  0  0
   59.1790   34.3290   46.0190 C   0  0  0  0  0  0  0  0  0  0  0  0
   58.3530   34.2700   44.7330 C   0  0  0  0  0  0  0  0  0  0  0  0
   58.2750   32.9050   44.2230 N   0  0  0  0  0  0  0  0  0  0  0  0
   58.0500   32.6560   42.9970 C   0  0  0  0  0  0  0  0  0  0  0  0
   57.7650   32.3390   41.4430 S   0  0  0  0  0  0  0  0  0  0  0  0
   56.8335   27.1535   44.3048 H   0  0  0  0  0  0  0  0  0  0  0  0
   58.9268   25.8420   44.6197 H   0  0  0  0  0  0  0  0  0  0  0  0
   60.9041   26.8858   45.7214 H   0  0  0  0  0  0  0  0  0  0  0  0
   60.7754   29.2260   46.5612 H   0  0  0  0  0  0  0  0  0  0  0  0
   58.4780   31.6580   45.8730 H   0  0  0  0  0  0  0  0  0  0  0  0
   61.5485   31.0055   49.7731 H   0  0  0  0  0  0  0  0  0  0  0  0
   64.1489   33.9004   48.0499 H   0  0  0  0  0  0  0  0  0  0  0  0
   62.4759   34.4104   46.2724 H   0  0  0  0  0  0  0  0  0  0  0  0
   58.4990   34.3021   46.8833 H   0  0  0  0  0  0  0  0  0  0  0  0
   59.7644   35.2603   46.0135 H   0  0  0  0  0  0  0  0  0  0  0  0
   57.3364   34.6346   44.9416 H   0  0  0  0  0  0  0  0  0  0  0  0
   58.8406   34.8999   43.9744 H   0  0  0  0  0  0  0  0  0  0  0  0
  1  2  2  0
  2  3  1  0
  2  4  1  0
  4  5  2  0
  5  6  1  0
  6  7  2  0
  7  8  1  0
  8  9  2  0
  9 10  1  0
 10 11  1  0
 11 12  2  0
 11 13  2  0
 11 14  1  0
 14 15  2  0
 15 16  1  0
 16 17  1  0
 17 18  2  0
 18 19  1  0
 19 20  2  3
 20 21  1  0
 21 22  1  0
 22 23  1  0
 23 24  2  0
 24 25  2  0
  9  4  1  0
 19 14  1  0
  5 26  1  0
  6 27  1  0
  7 28  1  0
  8 29  1  0
 10 30  1  0
 15 31  1  0
 17 32  1  0
 18 33  1  0
 21 34  1  0
 21 35  1  0
 22 36  1  0
 22 37  1  0
M  CHG  2   3  -1  16  -1
M  END
>  <UniqueID>  (10) 
10

>  <SMILES>  (10) 
O=C([O-])c1ccccc1NS(=O)(=O)c1c[n-]ccc1=NCCN=C=S

>  <Energy>  (10) 
46.39779494343314

>  <Genealogy>  (10) 
O=C([O-])c1ccccc1NS(=O)(=O)c1c[n-]ccc1=NCCN=C=S (protonated)
O=C([O-])c1ccccc1NS(=O)(=O)c1c[n-]ccc1=NCCN=C=S (3D coordinates assigned)
O=C([O-])c1ccccc1NS(=O)(=O)c1c[n-]ccc1=NCCN=C=S (optimized conformer: 46.39779494343314 kcal/mol)

>  <smiles>  (10) 
O=C(O)c1ccccc1NS(=O)(=O)c1c[nH]ccc1=NCCN=C=S

>  <score_type>  (10) 
oracle

>  <origin>  (10) 
adg

>  <m_score__min__energy>  (10) 
-10.92

>  <m_primary>  (10) 
energy

$$$$
10:0
     RDKit          3D

 59 62  0  0  0  0  0  0  0  0999 V2000
   57.0180   32.3640   40.2120 C   0  0  0  0  0  0  0  0  0  0  0  0
   58.0050   32.6400   41.3080 C   0  0  0  0  0  0  0  0  0  0  0  0
   59.0530   33.2760   41.0210 O   0  0  0  0  0  0  0  0  0  0  0  0
   57.7770   32.1940   42.7110 C   0  0  0  0  0  0  0  0  0  0  0  0
   58.3600   32.8800   43.7950 C   0  0  0  0  0  0  0  0  0  0  0  0
   58.1260   32.4480   45.1100 C   0  0  0  0  0  0  0  0  0  0  0  0
   58.7680   33.1400   46.2600 C   0  0  0  0  0  0  0  0  0  0  0  0
   58.6040   32.6500   47.5720 C   0  0  0  0  0  0  0  0  0  0  0  0
   59.2220   33.2900   48.6500 C   0  0  0  0  0  0  0  0  0  0  0  0
   60.0050   34.4290   48.4360 C   0  0  0  0  0  0  0  0  0  0  0  0
   60.1710   34.9270   47.1400 C   0  0  0  0  0  0  0  0  0  0  0  0
   59.5590   34.2870   46.0560 C   0  0  0  0  0  0  0  0  0  0  0  0
   57.2970   31.3380   45.3200 C   0  0  0  0  0  0  0  0  0  0  0  0
   56.7390   30.6620   44.2260 C   0  0  0  0  0  0  0  0  0  0  0  0
   55.9260   29.4520   44.4480 C   0  0  0  0  0  0  0  0  0  0  0  0
   54.7660   29.3700   43.9590 O   0  0  0  0  0  0  0  0  0  0  0  0
   56.4510   28.3540   45.2000 N   0  0  0  0  0  0  0  0  0  0  0  0
   57.8000   28.3040   45.6790 C   0  0  0  0  0  0  0  0  0  0  0  0
   58.7030   27.4100   45.0960 C   0  0  0  0  0  0  0  0  0  0  0  0
   60.0130   27.3190   45.5770 C   0  0  0  0  0  0  0  0  0  0  0  0
   60.4150   28.0920   46.6710 C   0  0  0  0  0  0  0  0  0  0  0  0
   59.5040   28.9560   47.2980 C   0  0  0  0  0  0  0  0  0  0  0  0
   59.9030   29.7210   48.4990 C   0  0  0  0  0  0  0  0  0  0  0  0
   59.1030   29.7770   49.4770 O   0  0  0  0  0  0  0  0  0  0  0  0
   61.1720   30.4100   48.5730 N   0  0  0  0  0  0  0  0  0  0  0  0
   61.8520   30.9000   47.3610 C   0  0  0  0  0  0  0  0  0  0  0  0
   62.4720   32.2970   47.5790 C   0  0  0  0  0  0  0  0  0  0  0  0
   62.8620   32.5690   48.9880 N   0  0  0  0  0  0  0  0  0  0  0  0
   64.0230   33.4760   49.0410 C   0  0  0  0  0  0  0  0  0  0  0  0
   63.1330   31.3430   49.7560 C   0  0  0  0  0  0  0  0  0  0  0  0
   61.8360   30.5410   49.8780 C   0  0  0  0  0  0  0  0  0  0  0  0
   58.2070   29.0840   46.7740 C   0  0  0  0  0  0  0  0  0  0  0  0
   56.9950   31.0980   42.9580 N   0  0  0  0  0  0  0  0  0  0  0  0
   56.0473   32.0926   40.6525 H   0  0  0  0  0  0  0  0  0  0  0  0
   56.8997   33.2635   39.5900 H   0  0  0  0  0  0  0  0  0  0  0  0
   57.3835   31.5336   39.5900 H   0  0  0  0  0  0  0  0  0  0  0  0
   58.9997   33.7557   43.6104 H   0  0  0  0  0  0  0  0  0  0  0  0
   57.9853   31.7577   47.7483 H   0  0  0  0  0  0  0  0  0  0  0  0
   59.0922   32.8969   49.6691 H   0  0  0  0  0  0  0  0  0  0  0  0
   60.4894   34.9322   49.2858 H   0  0  0  0  0  0  0  0  0  0  0  0
   60.7844   35.8245   46.9718 H   0  0  0  0  0  0  0  0  0  0  0  0
   59.6967   34.6824   45.0388 H   0  0  0  0  0  0  0  0  0  0  0  0
   57.0840   30.9969   46.3438 H   0  0  0  0  0  0  0  0  0  0  0  0
   58.3820   26.7761   44.2562 H   0  0  0  0  0  0  0  0  0  0  0  0
   60.7289   26.6379   45.0938 H   0  0  0  0  0  0  0  0  0  0  0  0
   61.4485   28.0225   47.0412 H   0  0  0  0  0  0  0  0  0  0  0  0
   62.6508   30.1938   47.0903 H   0  0  0  0  0  0  0  0  0  0  0  0
   61.1054   30.9780   46.5569 H   0  0  0  0  0  0  0  0  0  0  0  0
   63.3698   32.3798   46.9488 H   0  0  0  0  0  0  0  0  0  0  0  0
   61.7003   33.0343   47.3129 H   0  0  0  0  0  0  0  0  0  0  0  0
   64.2824   33.6786   50.0906 H   0  0  0  0  0  0  0  0  0  0  0  0
   64.8794   33.0053   48.5360 H   0  0  0  0  0  0  0  0  0  0  0  0
   63.7735   34.4208   48.5360 H   0  0  0  0  0  0  0  0  0  0  0  0
   63.8924   30.7410   49.2355 H   0  0  0  0  0  0  0  0  0  0  0  0
   63.5067   31.6040   50.7571 H   0  0  0  0  0  0  0  0  0  0  0  0
   62.0685   29.5381   50.2654 H   0  0  0  0  0  0  0  0  0  0  0  0
   61.1592   31.0720   50.5635 H   0  0  0  0  0  0  0  0  0  0  0  0
   57.5046   29.8006   47.2247 H   0  0  0  0  0  0  0  0  0  0  0  0
   56.5650   30.5840   42.1570 H   0  0  0  0  0  0  0  0  0  0  0  0
  1  2  1  0
  2  3  2  0
  2  4  1  0
  4  5  2  0
  5  6  1  0
  6  7  1  0
  7  8  2  0
  8  9  1  0
  9 10  2  0
 10 11  1  0
 11 12  2  0
  6 13  2  0
 13 14  1  0
 14 15  1  0
 15 16  2  0
 15 17  1  0
 17 18  1  0
 18 19  2  0
 19 20  1  0
 20 21  2  0
 21 22  1  0
 22 23  1  0
 23 24  2  0
 23 25  1  0
 25 26  1  0
 26 27  1  0
 27 28  1  0
 28 29  1  0
 28 30  1  0
 30 31  1  0
 22 32  2  0
 14 33  2  0
 33  4  1  0
 12  7  1  0
 32 18  1  0
 31 25  1  0
  1 34  1  0
  1 35  1  0
  1 36  1  0
  5 37  1  0
  8 38  1  0
  9 39  1  0
 10 40  1  0
 11 41  1  0
 12 42  1  0
 13 43  1  0
 19 44  1  0
 20 45  1  0
 21 46  1  0
 26 47  1  0
 26 48  1  0
 27 49  1  0
 27 50  1  0
 29 51  1  0
 29 52  1  0
 29 53  1  0
 30 54  1  0
 30 55  1  0
 31 56  1  0
 31 57  1  0
 32 58  1  0
 33 59  1  0
M  CHG  2  17  -1  33   1
M  END
>  <UniqueID>  (11) 
11

>  <SMILES>  (11) 
CC(=O)c1cc(-c2ccccc2)cc(C(=O)[N-]c2cccc(C(=O)N3CCN(C)CC3)c2)[nH+]1

>  <Energy>  (11) 
85.39763711724585

>  <Genealogy>  (11) 
CC(=O)c1cc(-c2ccccc2)cc(C(=O)[N-]c2cccc(C(=O)N3CCN(C)CC3)c2)[nH+]1 (protonated)
CC(=O)c1cc(-c2ccccc2)cc(C(=O)[N-]c2cccc(C(=O)N3CCN(C)CC3)c2)[nH+]1 (3D coordinates assigned)
CC(=O)c1cc(-c2ccccc2)cc(C(=O)[N-]c2cccc(C(=O)N3CCN(C)CC3)c2)[nH+]1 (nonaromatic ring conformer: 85.39763711724585 kcal/mol)

>  <smiles>  (11) 
CC(=O)c1cc(-c2ccccc2)cc(C(=O)Nc2cccc(C(=O)N3CCN(C)CC3)c2)n1

>  <score_type>  (11) 
oracle

>  <origin>  (11) 
adg

>  <m_score__min__energy>  (11) 
-9.5099999999999998

>  <m_primary>  (11) 
energy

$$$$
11:0
     RDKit          3D

 56 59  0  0  0  0  0  0  0  0999 V2000
   55.0350   29.2750   44.4600 O   0  0  0  0  0  0  0  0  0  0  0  0
   56.2770   29.4980   44.3980 C   0  0  0  0  0  0  0  0  0  0  0  0
   57.0320   29.2560   43.1260 C   0  0  0  0  0  0  0  0  0  0  0  0
   57.8290   27.5970   43.0290 S   0  0  0  0  0  0  0  0  0  0  0  0
   58.6390   27.6020   44.6530 C   0  0  0  0  0  0  0  0  0  0  0  0
   59.7720   28.4030   44.8590 C   0  0  0  0  0  0  0  0  0  0  0  0
   60.4040   28.4250   46.1110 C   0  0  0  0  0  0  0  0  0  0  0  0
   59.9180   27.6360   47.1610 C   0  0  0  0  0  0  0  0  0  0  0  0
   58.8070   26.8110   46.9590 C   0  0  0  0  0  0  0  0  0  0  0  0
   58.1650   26.7820   45.7060 C   0  0  0  0  0  0  0  0  0  0  0  0
   57.0770   25.8140   45.4750 C   0  0  0  0  0  0  0  0  0  0  0  0
   57.3260   24.6780   44.6820 C   0  0  0  0  0  0  0  0  0  0  0  0
   56.2790   23.8020   44.3750 C   0  0  0  0  0  0  0  0  0  0  0  0
   54.9740   24.0650   44.8410 C   0  0  0  0  0  0  0  0  0  0  0  0
   53.9170   23.2220   44.5040 O   0  0  0  0  0  0  0  0  0  0  0  0
   54.7280   25.1840   45.6540 C   0  0  0  0  0  0  0  0  0  0  0  0
   55.7770   26.0460   45.9890 C   0  0  0  0  0  0  0  0  0  0  0  0
   56.9700   30.0410   45.5210 N   0  0  0  0  0  0  0  0  0  0  0  0
   57.7030   31.2720   45.5320 C   0  0  0  0  0  0  0  0  0  0  0  0
   57.7990   32.0810   44.3790 C   0  0  0  0  0  0  0  0  0  0  0  0
   58.4140   33.3370   44.4490 C   0  0  0  0  0  0  0  0  0  0  0  0
   58.9660   33.7780   45.6610 C   0  0  0  0  0  0  0  0  0  0  0  0
   58.9080   32.9620   46.8070 C   0  0  0  0  0  0  0  0  0  0  0  0
   59.6570   33.4850   48.3230 S   0  0  0  0  0  0  0  0  0  0  0  0
   59.6230   34.9930   48.3920 O   0  0  0  0  0  0  0  0  0  0  0  0
   58.8490   32.9410   49.4720 O   0  0  0  0  0  0  0  0  0  0  0  0
   61.3090   32.9060   48.4590 N   0  0  0  0  0  0  0  0  0  0  0  0
   61.5560   31.8040   47.5080 C   0  0  0  0  0  0  0  0  0  0  0  0
   63.0660   31.6350   47.2670 C   0  0  0  0  0  0  0  0  0  0  0  0
   63.6850   32.7840   46.6910 O   0  0  0  0  0  0  0  0  0  0  0  0
   62.9970   34.0020   46.9520 C   0  0  0  0  0  0  0  0  0  0  0  0
   62.2760   34.0220   48.3170 C   0  0  0  0  0  0  0  0  0  0  0  0
   58.2520   31.7220   46.7420 C   0  0  0  0  0  0  0  0  0  0  0  0
   56.3306   29.3522   42.2841 H   0  0  0  0  0  0  0  0  0  0  0  0
   57.8417   29.9998   43.0909 H   0  0  0  0  0  0  0  0  0  0  0  0
   60.1664   29.0163   44.0354 H   0  0  0  0  0  0  0  0  0  0  0  0
   61.2849   29.0646   46.2688 H   0  0  0  0  0  0  0  0  0  0  0  0
   60.4100   27.6652   48.1444 H   0  0  0  0  0  0  0  0  0  0  0  0
   58.4335   26.1829   47.7812 H   0  0  0  0  0  0  0  0  0  0  0  0
   58.3401   24.4796   44.3050 H   0  0  0  0  0  0  0  0  0  0  0  0
   56.4743   22.9054   43.7683 H   0  0  0  0  0  0  0  0  0  0  0  0
   54.0310   22.2140   44.4860 H   0  0  0  0  0  0  0  0  0  0  0  0
   53.7120   25.3818   46.0264 H   0  0  0  0  0  0  0  0  0  0  0  0
   55.5929   26.9044   46.6517 H   0  0  0  0  0  0  0  0  0  0  0  0
   57.3894   31.7236   43.4227 H   0  0  0  0  0  0  0  0  0  0  0  0
   58.4642   33.9766   43.5555 H   0  0  0  0  0  0  0  0  0  0  0  0
   59.4464   34.7660   45.7163 H   0  0  0  0  0  0  0  0  0  0  0  0
   61.1477   30.8698   47.9211 H   0  0  0  0  0  0  0  0  0  0  0  0
   61.0653   32.0396   46.5521 H   0  0  0  0  0  0  0  0  0  0  0  0
   63.5508   31.4259   48.2320 H   0  0  0  0  0  0  0  0  0  0  0  0
   63.1876   30.8098   46.5499 H   0  0  0  0  0  0  0  0  0  0  0  0
   63.7264   34.8251   46.9315 H   0  0  0  0  0  0  0  0  0  0  0  0
   62.2244   34.1096   46.1765 H   0  0  0  0  0  0  0  0  0  0  0  0
   63.0282   33.9421   49.1156 H   0  0  0  0  0  0  0  0  0  0  0  0
   61.7143   34.9652   48.3872 H   0  0  0  0  0  0  0  0  0  0  0  0
   58.1681   31.0999   47.6453 H   0  0  0  0  0  0  0  0  0  0  0  0
  1  2  2  0
  2  3  1  0
  3  4  1  0
  4  5  1  0
  5  6  2  0
  6  7  1  0
  7  8  2  0
  8  9  1  0
  9 10  2  0
 10 11  1  0
 11 12  2  0
 12 13  1  0
 13 14  2  0
 14 15  1  0
 14 16  1  0
 16 17  2  0
  2 18  1  0
 18 19  1  0
 19 20  2  0
 20 21  1  0
 21 22  2  0
 22 23  1  0
 23 24  1  0
 24 25  2  0
 24 26  2  0
 24 27  1  0
 27 28  1  0
 28 29  1  0
 29 30  1  0
 30 31  1  0
 31 32  1  0
 23 33  2  0
 10  5  1  0
 17 11  1  0
 33 19  1  0
 32 27  1  0
  3 34  1  0
  3 35  1  0
  6 36  1  0
  7 37  1  0
  8 38  1  0
  9 39  1  0
 12 40  1  0
 13 41  1  0
 15 42  1  0
 16 43  1  0
 17 44  1  0
 20 45  1  0
 21 46  1  0
 22 47  1  0
 28 48  1  0
 28 49  1  0
 29 50  1  0
 29 51  1  0
 31 52  1  0
 31 53  1  0
 32 54  1  0
 32 55  1  0
 33 56  1  0
M  CHG  1  18  -1
M  END
>  <UniqueID>  (12) 
12

>  <SMILES>  (12) 
O=C(CSc1ccccc1-c1ccc(O)cc1)[N-]c1cccc(S(=O)(=O)N2CCOCC2)c1

>  <Energy>  (12) 
81.25824777893381

>  <Genealogy>  (12) 
O=C(CSc1ccccc1-c1ccc(O)cc1)[N-]c1cccc(S(=O)(=O)N2CCOCC2)c1 (protonated)
O=C(CSc1ccccc1-c1ccc(O)cc1)[N-]c1cccc(S(=O)(=O)N2CCOCC2)c1 (3D coordinates assigned)
O=C(CSc1ccccc1-c1ccc(O)cc1)[N-]c1cccc(S(=O)(=O)N2CCOCC2)c1 (nonaromatic ring conformer: 81.25824777893381 kcal/mol)

>  <smiles>  (12) 
O=C(CSc1ccccc1-c1ccc(O)cc1)Nc1cccc(S(=O)(=O)N2CCOCC2)c1

>  <score_type>  (12) 
oracle

>  <origin>  (12) 
adg

>  <m_score__min__energy>  (12) 
-12.109999999999999

>  <m_primary>  (12) 
energy

$$$$
12:0
     RDKit          3D

 50 52  0  0  0  0  0  0  0  0999 V2000
   55.1230   21.3610   44.0920 H   0  0  0  0  0  0  0  0  0  0  0  0
   54.9110   21.9970   44.8520 O   0  0  0  0  0  0  0  0  0  0  0  0
   55.6010   23.1940   45.0510 C   0  0  0  0  0  0  0  0  0  0  0  0
   54.8740   24.3330   45.4200 C   0  0  0  0  0  0  0  0  0  0  0  0
   53.7829   24.2668   45.5425 H   0  0  0  0  0  0  0  0  0  0  0  0
   55.5220   25.5530   45.6340 C   0  0  0  0  0  0  0  0  0  0  0  0
   54.7740   26.6620   46.0190 O   0  0  0  0  0  0  0  0  0  0  0  0
   56.9180   25.6500   45.4650 C   0  0  0  0  0  0  0  0  0  0  0  0
   57.6440   26.9440   45.7290 C   0  0  0  0  0  0  0  0  0  0  0  0
   58.5191   26.7480   46.3661 H   0  0  0  0  0  0  0  0  0  0  0  0
   56.9641   27.6440   46.2367 H   0  0  0  0  0  0  0  0  0  0  0  0
   58.0960   27.5460   44.4370 C   0  0  0  0  0  0  0  0  0  0  0  0
   57.7530   27.0130   43.3460 O   0  0  0  0  0  0  0  0  0  0  0  0
   58.8680   28.7550   44.4550 N   0  0  0  0  0  0  0  0  0  0  0  0
   58.5410   29.8120   45.1330 C   0  0  0  0  0  0  0  0  0  0  0  0
   59.2631   30.2602   45.8314 H   0  0  0  0  0  0  0  0  0  0  0  0
   57.2080   30.4130   44.9710 C   0  0  0  0  0  0  0  0  0  0  0  0
   56.1970   29.6670   44.8610 O   0  0  0  0  0  0  0  0  0  0  0  0
   57.0190   31.8340   44.9980 N   0  0  0  0  0  0  0  0  0  0  0  0
   57.9670   32.8050   45.4630 C   0  0  0  0  0  0  0  0  0  0  0  0
   58.2390   33.9770   44.7370 C   0  0  0  0  0  0  0  0  0  0  0  0
   57.7392   34.1532   43.7731 H   0  0  0  0  0  0  0  0  0  0  0  0
   59.1430   34.9200   45.2360 C   0  0  0  0  0  0  0  0  0  0  0  0
   59.3641   35.8285   44.6566 H   0  0  0  0  0  0  0  0  0  0  0  0
   59.7650   34.7110   46.4670 C   0  0  0  0  0  0  0  0  0  0  0  0
   60.4814   35.4515   46.8522 H   0  0  0  0  0  0  0  0  0  0  0  0
   59.4800   33.5610   47.2140 C   0  0  0  0  0  0  0  0  0  0  0  0
   60.2560   33.3040   48.7790 S   0  0  0  0  0  0  0  0  0  0  0  0
   59.2570   32.6820   49.7150 O   0  0  0  0  0  0  0  0  0  0  0  0
   60.6560   34.6340   49.3540 O   0  0  0  0  0  0  0  0  0  0  0  0
   61.6630   32.2650   48.6760 N   0  0  0  0  0  0  0  0  0  0  0  0
   62.7370   32.6710   49.6020 C   0  0  0  0  0  0  0  0  0  0  0  0
   62.2793   32.9961   50.5480 H   0  0  0  0  0  0  0  0  0  0  0  0
   63.3964   31.8016   49.7409 H   0  0  0  0  0  0  0  0  0  0  0  0
   63.6070   33.8270   49.0530 C   0  0  0  0  0  0  0  0  0  0  0  0
   63.3980   34.7316   49.6430 H   0  0  0  0  0  0  0  0  0  0  0  0
   64.6575   33.5113   49.1355 H   0  0  0  0  0  0  0  0  0  0  0  0
   63.3620   34.1140   47.6890 O   0  0  0  0  0  0  0  0  0  0  0  0
   63.3640   32.9190   46.9420 C   0  0  0  0  0  0  0  0  0  0  0  0
   63.3483   33.1622   45.8693 H   0  0  0  0  0  0  0  0  0  0  0  0
   64.2710   32.3469   47.1869 H   0  0  0  0  0  0  0  0  0  0  0  0
   62.1290   32.0680   47.2870 C   0  0  0  0  0  0  0  0  0  0  0  0
   61.3130   32.3400   46.6013 H   0  0  0  0  0  0  0  0  0  0  0  0
   62.4172   31.0115   47.1827 H   0  0  0  0  0  0  0  0  0  0  0  0
   58.5790   32.6120   46.7070 C   0  0  0  0  0  0  0  0  0  0  0  0
   58.3518   31.7087   47.2922 H   0  0  0  0  0  0  0  0  0  0  0  0
   57.6470   24.5040   45.1050 C   0  0  0  0  0  0  0  0  0  0  0  0
   58.7389   24.5675   44.9878 H   0  0  0  0  0  0  0  0  0  0  0  0
   56.9970   23.2820   44.8940 C   0  0  0  0  0  0  0  0  0  0  0  0
   57.9630   21.8800   44.4460 Cl  0  0  0  0  0  0  0  0  0  0  0  0
  1  2  1  0
  2  3  1  0
  3  4  2  0
  4  5  1  0
  4  6  1  0
  6  7  1  0
  6  8  2  0
  8  9  1  0
  9 10  1  0
  9 11  1  0
  9 12  1  0
 12 13  2  0
 12 14  1  0
 14 15  2  0
 15 16  1  0
 15 17  1  0
 17 18  2  0
 17 19  1  0
 19 20  1  0
 20 21  2  0
 21 22  1  0
 21 23  1  0
 23 24  1  0
 23 25  2  0
 25 26  1  0
 25 27  1  0
 27 28  1  0
 28 29  2  0
 28 30  2  0
 28 31  1  0
 31 32  1  0
 32 33  1  0
 32 34  1  0
 32 35  1  0
 35 36  1  0
 35 37  1  0
 35 38  1  0
 38 39  1  0
 39 40  1  0
 39 41  1  0
 39 42  1  0
 42 43  1  0
 42 44  1  0
 27 45  2  0
 45 46  1  0
  8 47  1  0
 47 48  1  0
 47 49  2  0
 49 50  1  0
 49  3  1  0
 45 20  1  0
 42 31  1  0
M  CHG  2   7  -1  19  -1
M  END
>  <UniqueID>  (13) 
13

>  <SMILES>  (13) 
O=C(Cc1cc(Cl)c(O)cc1[O-])/N=C/C(=O)[N-]c1cccc(S(=O)(=O)N2CCOCC2)c1

>  <Energy>  (13) 
64.87348492037368

>  <Genealogy>  (13) 
O=C(Cc1cc(Cl)c(O)cc1[O-])N=CC(=O)[N-]c1cccc(S(=O)(=O)N2CCOCC2)c1 (protonated)
O=C(Cc1cc(Cl)c(O)cc1[O-])/N=C/C(=O)[N-]c1cccc(S(=O)(=O)N2CCOCC2)c1 (cis-trans isomerization)
O=C(Cc1cc(Cl)c(O)cc1[O-])/N=C/C(=O)[N-]c1cccc(S(=O)(=O)N2CCOCC2)c1 (3D coordinates assigned)
O=C(Cc1cc(Cl)c(O)cc1[O-])/N=C/C(=O)[N-]c1cccc(S(=O)(=O)N2CCOCC2)c1 (nonaromatic ring conformer: 64.87348492037368 kcal/mol)

>  <smiles>  (13) 
O=C(Cc1cc(Cl)c(O)cc1O)N=CC(=O)Nc1cccc(S(=O)(=O)N2CCOCC2)c1

>  <score_type>  (13) 
oracle

>  <origin>  (13) 
adg

>  <m_score__min__energy>  (13) 
-14.960000000000001

>  <m_primary>  (13) 
energy

$$$$
13:0
     RDKit          3D

 59 62  0  0  0  0  0  0  0  0999 V2000
   58.2120   32.3260   49.3760 C   0  0  0  0  0  0  0  0  0  0  0  0
   59.2200   33.2900   48.9150 N   0  0  0  0  0  0  0  0  0  0  0  0
   60.3520   33.6130   49.7860 C   0  0  0  0  0  0  0  0  0  0  0  0
   58.9730   34.0990   47.7500 C   0  0  0  0  0  0  0  0  0  0  0  0
   59.2250   35.3350   47.7850 O   0  0  0  0  0  0  0  0  0  0  0  0
   58.4930   33.4940   46.4580 C   0  0  0  0  0  0  0  0  0  0  0  0
   58.7800   32.0580   46.3970 N   0  0  0  0  0  0  0  0  0  0  0  0
   57.8840   31.1730   45.9830 N   0  0  0  0  0  0  0  0  0  0  0  0
   58.4990   29.9770   45.8730 C   0  0  0  0  0  0  0  0  0  0  0  0
   57.8070   28.7490   45.4470 C   0  0  0  0  0  0  0  0  0  0  0  0
   56.5470   28.7340   45.4450 O   0  0  0  0  0  0  0  0  0  0  0  0
   58.5440   27.6020   44.9950 N   0  0  0  0  0  0  0  0  0  0  0  0
   57.9820   26.2830   44.8810 C   0  0  0  0  0  0  0  0  0  0  0  0
   57.7350   25.7480   43.6080 C   0  0  0  0  0  0  0  0  0  0  0  0
   57.2000   24.4640   43.4700 C   0  0  0  0  0  0  0  0  0  0  0  0
   56.9160   23.6870   44.6060 C   0  0  0  0  0  0  0  0  0  0  0  0
   56.3180   22.3060   44.4580 C   0  0  1  0  0  0  0  0  0  0  0  0
   57.4380   21.2420   44.2950 C   0  0  0  0  0  0  0  0  0  0  0  0
   57.5700   20.4600   45.5260 N   0  0  0  0  0  0  0  0  0  0  0  0
   56.3110   19.7670   45.8230 C   0  0  0  0  0  0  0  0  0  0  0  0
   55.0950   20.6920   45.6020 C   0  0  0  0  0  0  0  0  0  0  0  0
   55.4910   22.0490   45.5840 O   0  0  0  0  0  0  0  0  0  0  0  0
   57.1830   24.2140   45.8790 C   0  0  0  0  0  0  0  0  0  0  0  0
   57.7210   25.4960   46.0160 C   0  0  0  0  0  0  0  0  0  0  0  0
   59.8370   30.1060   46.2000 C   0  0  0  0  0  0  0  0  0  0  0  0
   59.9850   31.4420   46.5240 C   0  0  0  0  0  0  0  0  0  0  0  0
   61.2710   32.0870   46.8720 C   0  0  0  0  0  0  0  0  0  0  0  0
   61.6100   33.3580   46.3740 C   0  0  0  0  0  0  0  0  0  0  0  0
   62.8250   33.9520   46.7230 C   0  0  0  0  0  0  0  0  0  0  0  0
   63.7040   33.2960   47.5850 C   0  0  0  0  0  0  0  0  0  0  0  0
   63.3620   32.0470   48.1100 C   0  0  0  0  0  0  0  0  0  0  0  0
   62.1490   31.4470   47.7610 C   0  0  0  0  0  0  0  0  0  0  0  0
   58.1956   32.3103   50.4758 H   0  0  0  0  0  0  0  0  0  0  0  0
   57.2220   32.6220   48.9987 H   0  0  0  0  0  0  0  0  0  0  0  0
   58.4635   31.3238   48.9987 H   0  0  0  0  0  0  0  0  0  0  0  0
   60.0423   33.5246   50.8378 H   0  0  0  0  0  0  0  0  0  0  0  0
   61.1785   32.9148   49.5872 H   0  0  0  0  0  0  0  0  0  0  0  0
   60.6856   34.6422   49.5872 H   0  0  0  0  0  0  0  0  0  0  0  0
   57.4066   33.6451   46.3746 H   0  0  0  0  0  0  0  0  0  0  0  0
   59.0221   33.9868   45.6290 H   0  0  0  0  0  0  0  0  0  0  0  0
   59.5150   27.7490   44.6420 H   0  0  0  0  0  0  0  0  0  0  0  0
   57.9640   26.3433   42.7118 H   0  0  0  0  0  0  0  0  0  0  0  0
   57.0002   24.0596   42.4667 H   0  0  0  0  0  0  0  0  0  0  0  0
   55.7002   22.2512   43.5495 H   0  0  0  0  0  0  0  0  0  0  0  0
   57.1834   20.5699   43.4622 H   0  0  0  0  0  0  0  0  0  0  0  0
   58.3910   21.7504   44.0867 H   0  0  0  0  0  0  0  0  0  0  0  0
   58.3160   19.7380   45.3840 H   0  0  0  0  0  0  0  0  0  0  0  0
   56.2197   18.8916   45.1632 H   0  0  0  0  0  0  0  0  0  0  0  0
   56.3253   19.4592   46.8790 H   0  0  0  0  0  0  0  0  0  0  0  0
   54.6221   20.4419   44.6409 H   0  0  0  0  0  0  0  0  0  0  0  0
   54.3852   20.5436   46.4292 H   0  0  0  0  0  0  0  0  0  0  0  0
   56.9672   23.6136   46.7750 H   0  0  0  0  0  0  0  0  0  0  0  0
   57.9417   25.8920   47.0183 H   0  0  0  0  0  0  0  0  0  0  0  0
   60.6090   29.3224   46.2018 H   0  0  0  0  0  0  0  0  0  0  0  0
   60.9144   33.8871   45.7060 H   0  0  0  0  0  0  0  0  0  0  0  0
   63.0894   34.9396   46.3171 H   0  0  0  0  0  0  0  0  0  0  0  0
   64.6647   33.7611   47.8510 H   0  0  0  0  0  0  0  0  0  0  0  0
   64.0491   31.5348   48.7996 H   0  0  0  0  0  0  0  0  0  0  0  0
   61.8808   30.4681   48.1851 H   0  0  0  0  0  0  0  0  0  0  0  0
  1  2  1  0
  2  3  1  0
  2  4  1  0
  4  5  2  0
  4  6  1  0
  6  7  1  0
  7  8  1  0
  8  9  2  0
  9 10  1  0
 10 11  2  0
 10 12  1  0
 12 13  1  0
 13 14  2  0
 14 15  1  0
 15 16  2  0
 16 17  1  0
 17 18  1  0
 18 19  1  0
 19 20  1  0
 20 21  1  0
 21 22  1  0
 16 23  1  0
 23 24  2  0
  9 25  1  0
 25 26  2  0
 26 27  1  0
 27 28  2  0
 28 29  1  0
 29 30  2  0
 30 31  1  0
 31 32  2  0
 26  7  1  0
 32 27  1  0
 24 13  1  0
 22 17  1  0
  1 33  1  0
  1 34  1  0
  1 35  1  0
  3 36  1  0
  3 37  1  0
  3 38  1  0
  6 39  1  0
  6 40  1  0
 12 41  1  0
 14 42  1  0
 15 43  1  0
 17 44  1  6
 18 45  1  0
 18 46  1  0
 19 47  1  0
 20 48  1  0
 20 49  1  0
 21 50  1  0
 21 51  1  0
 23 52  1  0
 24 53  1  0
 25 54  1  0
 28 55  1  0
 29 56  1  0
 30 57  1  0
 31 58  1  0
 32 59  1  0
M  END
>  <UniqueID>  (14) 
14

>  <SMILES>  (14) 
CN(C)C(=O)Cn1nc(C(=O)Nc2ccc([C@H]3CNCCO3)cc2)cc1-c1ccccc1

>  <Energy>  (14) 
109.39449649007598

>  <Genealogy>  (14) 
CN(C)C(=O)Cn1nc(C(=O)Nc2ccc([C@H]3CNCCO3)cc2)cc1-c1ccccc1 (chirality)
CN(C)C(=O)Cn1nc(C(=O)Nc2ccc([C@H]3CNCCO3)cc2)cc1-c1ccccc1 (3D coordinates assigned)
CN(C)C(=O)Cn1nc(C(=O)Nc2ccc([C@H]3CNCCO3)cc2)cc1-c1ccccc1 (nonaromatic ring conformer: 109.39449649007598 kcal/mol)

>  <smiles>  (14) 
CN(C)C(=O)Cn1nc(C(=O)Nc2ccc(C3CNCCO3)cc2)cc1-c1ccccc1

>  <score_type>  (14) 
oracle

>  <origin>  (14) 
adg

>  <m_score__min__energy>  (14) 
-8.2899999999999991

>  <m_primary>  (14) 
energy

$$$$
14:0
     RDKit          3D

 58 61  0  0  0  0  0  0  0  0999 V2000
   64.8550   35.5340   52.7850 C   0  0  0  0  0  0  0  0  0  0  0  0
   63.8560   34.5910   53.4530 C   0  0  0  0  0  0  0  0  0  0  0  0
   64.0060   33.2200   52.9420 N   0  0  0  0  0  0  0  0  0  0  0  0
   63.8280   33.2010   51.5050 C   0  0  0  0  0  0  0  0  0  0  0  0
   64.9500   33.0660   50.6650 C   0  0  0  0  0  0  0  0  0  0  0  0
   66.1920   32.9200   51.1930 F   0  0  0  0  0  0  0  0  0  0  0  0
   64.8070   33.0910   49.2790 C   0  0  0  0  0  0  0  0  0  0  0  0
   63.5470   33.2530   48.7020 C   0  0  0  0  0  0  0  0  0  0  0  0
   63.4250   33.2730   47.3520 N   0  0  0  0  0  0  0  0  0  0  0  0
   62.2260   33.4220   46.7340 C   0  0  0  0  0  0  0  0  0  0  0  0
   61.0370   33.5570   47.4820 C   0  0  0  0  0  0  0  0  0  0  0  0
   59.7400   33.7230   46.8280 N   0  0  0  0  0  0  0  0  0  0  0  0
   59.6780   34.3330   45.4810 C   0  0  0  0  0  0  0  0  0  0  0  0
   58.2540   34.4850   44.9340 C   0  0  0  0  0  0  0  0  0  0  0  0
   57.4440   33.3970   45.3130 O   0  0  0  0  0  0  0  0  0  0  0  0
   57.2420   33.4580   46.7040 C   0  0  0  0  0  0  0  0  0  0  0  0
   58.5360   33.1370   47.4540 C   0  0  0  0  0  0  0  0  0  0  0  0
   61.1550   33.5360   48.8910 C   0  0  0  0  0  0  0  0  0  0  0  0
   62.4070   33.3970   49.5170 C   0  0  0  0  0  0  0  0  0  0  0  0
   62.5490   33.3940   50.9260 C   0  0  0  0  0  0  0  0  0  0  0  0
   61.4050   33.5840   51.7740 N   0  0  0  0  0  0  0  0  0  0  0  0
   60.2310   32.7510   51.7210 C   0  0  0  0  0  0  0  0  0  0  0  0
   60.3770   31.3640   51.5850 C   0  0  0  0  0  0  0  0  0  0  0  0
   59.2540   30.5340   51.5250 C   0  0  0  0  0  0  0  0  0  0  0  0
   57.9660   31.0730   51.6080 C   0  0  0  0  0  0  0  0  0  0  0  0
   56.8740   30.1910   51.5420 O   0  0  0  0  0  0  0  0  0  0  0  0
   55.8210   30.0990   52.5020 C   0  0  0  0  0  0  0  0  0  0  0  0
   54.5610   30.7850   51.9870 C   0  0  0  0  0  0  0  0  0  0  0  0
   57.8140   32.4650   51.7490 C   0  0  0  0  0  0  0  0  0  0  0  0
   58.9360   33.2960   51.8070 C   0  0  0  0  0  0  0  0  0  0  0  0
   65.4246   36.0717   53.5573 H   0  0  0  0  0  0  0  0  0  0  0  0
   65.5464   34.9516   52.1583 H   0  0  0  0  0  0  0  0  0  0  0  0
   64.3134   36.2578   52.1583 H   0  0  0  0  0  0  0  0  0  0  0  0
   64.0308   34.5917   54.5390 H   0  0  0  0  0  0  0  0  0  0  0  0
   62.8377   34.9407   53.2275 H   0  0  0  0  0  0  0  0  0  0  0  0
   63.3140   32.5880   53.4050 H   0  0  0  0  0  0  0  0  0  0  0  0
   64.9570   32.8580   53.1860 H   0  0  0  0  0  0  0  0  0  0  0  0
   65.6928   32.9824   48.6360 H   0  0  0  0  0  0  0  0  0  0  0  0
   62.1803   33.4378   45.6351 H   0  0  0  0  0  0  0  0  0  0  0  0
   60.1384   35.3308   45.5309 H   0  0  0  0  0  0  0  0  0  0  0  0
   60.2121   33.6557   44.7984 H   0  0  0  0  0  0  0  0  0  0  0  0
   57.8153   35.4134   45.3284 H   0  0  0  0  0  0  0  0  0  0  0  0
   58.3042   34.5158   43.8356 H   0  0  0  0  0  0  0  0  0  0  0  0
   56.9087   34.4703   46.9762 H   0  0  0  0  0  0  0  0  0  0  0  0
   56.4789   32.7165   46.9829 H   0  0  0  0  0  0  0  0  0  0  0  0
   58.4509   33.5278   48.4787 H   0  0  0  0  0  0  0  0  0  0  0  0
   58.6596   32.0442   47.4338 H   0  0  0  0  0  0  0  0  0  0  0  0
   60.2502   33.6302   49.5095 H   0  0  0  0  0  0  0  0  0  0  0  0
   61.4250   34.3860   52.4450 H   0  0  0  0  0  0  0  0  0  0  0  0
   61.3837   30.9248   51.5250 H   0  0  0  0  0  0  0  0  0  0  0  0
   59.3843   29.4476   51.4115 H   0  0  0  0  0  0  0  0  0  0  0  0
   55.6012   29.0389   52.6964 H   0  0  0  0  0  0  0  0  0  0  0  0
   56.1421   30.5982   53.4281 H   0  0  0  0  0  0  0  0  0  0  0  0
   53.9502   31.1176   52.8392 H   0  0  0  0  0  0  0  0  0  0  0  0
   54.8412   31.6551   51.3751 H   0  0  0  0  0  0  0  0  0  0  0  0
   53.9823   30.0774   51.3751 H   0  0  0  0  0  0  0  0  0  0  0  0
   56.8063   32.9013   51.8139 H   0  0  0  0  0  0  0  0  0  0  0  0
   58.8065   34.3824   51.9205 H   0  0  0  0  0  0  0  0  0  0  0  0
  1  2  1  0
  2  3  1  0
  3  4  1  0
  4  5  2  0
  5  6  1  0
  5  7  1  0
  7  8  2  0
  8  9  1  0
  9 10  2  0
 10 11  1  0
 11 12  1  0
 12 13  1  0
 13 14  1  0
 14 15  1  0
 15 16  1  0
 16 17  1  0
 11 18  2  0
 18 19  1  0
 19 20  2  0
 20 21  1  0
 21 22  1  0
 22 23  2  0
 23 24  1  0
 24 25  2  0
 25 26  1  0
 26 27  1  0
 27 28  1  0
 25 29  1  0
 29 30  2  0
 20  4  1  0
 30 22  1  0
 19  8  1  0
 17 12  1  0
  1 31  1  0
  1 32  1  0
  1 33  1  0
  2 34  1  0
  2 35  1  0
  3 36  1  0
  3 37  1  0
  7 38  1  0
 10 39  1  0
 13 40  1  0
 13 41  1  0
 14 42  1  0
 14 43  1  0
 16 44  1  0
 16 45  1  0
 17 46  1  0
 17 47  1  0
 18 48  1  0
 21 49  1  0
 23 50  1  0
 24 51  1  0
 27 52  1  0
 27 53  1  0
 28 54  1  0
 28 55  1  0
 28 56  1  0
 29 57  1  0
 30 58  1  0
M  CHG  1   3   1
M  END
>  <UniqueID>  (15) 
15

>  <SMILES>  (15) 
CC[NH2+]c1c(F)cc2ncc(N3CCOCC3)cc2c1Nc1ccc(OCC)cc1

>  <Energy>  (15) 
75.8193064732726

>  <Genealogy>  (15) 
CC[NH2+]c1c(F)cc2ncc(N3CCOCC3)cc2c1Nc1ccc(OCC)cc1 (protonated)
CC[NH2+]c1c(F)cc2ncc(N3CCOCC3)cc2c1Nc1ccc(OCC)cc1 (3D coordinates assigned)
CC[NH2+]c1c(F)cc2ncc(N3CCOCC3)cc2c1Nc1ccc(OCC)cc1 (nonaromatic ring conformer: 75.8193064732726 kcal/mol)

>  <smiles>  (15) 
CCNc1c(F)cc2ncc(N3CCOCC3)cc2c1Nc1ccc(OCC)cc1

>  <score_type>  (15) 
oracle

>  <origin>  (15) 
adg

>  <m_score__min__energy>  (15) 
-5.8200000000000003

>  <m_primary>  (15) 
energy

$$$$
15:0
     RDKit          3D

 44 45  0  0  0  0  0  0  0  0999 V2000
   59.5080   34.2190   44.5060 C   0  0  0  0  0  0  0  0  0  0  0  0
   58.4050   34.5420   45.5190 C   0  0  0  0  0  0  0  0  0  0  0  0
   57.0200   34.2850   44.9220 C   0  0  0  0  0  0  0  0  0  0  0  0
   58.5840   33.7320   46.7730 C   0  0  0  0  0  0  0  0  0  0  0  0
   59.7790   33.4960   47.3570 N   0  0  0  0  0  0  0  0  0  0  0  0
   59.4240   32.6870   48.3780 C   0  0  0  0  0  0  0  0  0  0  0  0
   60.3910   32.1030   49.3560 C   0  0  0  0  0  0  0  0  0  0  0  0
   60.8620   30.7790   48.9160 N   0  0  0  0  0  0  0  0  0  0  0  0
   60.8520   30.4920   47.5060 C   0  0  0  0  0  0  0  0  0  0  0  0
   61.8500   30.8070   46.8020 O   0  0  0  0  0  0  0  0  0  0  0  0
   59.7030   29.8150   46.8740 C   0  0  0  0  0  0  0  0  0  0  0  0
   59.4430   28.4500   47.0070 C   0  0  0  0  0  0  0  0  0  0  0  0
   58.0680   28.0790   46.1120 S   0  0  0  0  0  0  0  0  0  0  0  0
   57.8010   29.6350   45.5440 C   0  0  0  0  0  0  0  0  0  0  0  0
   56.4780   30.1050   44.4960 S   0  0  0  0  0  0  0  0  0  0  0  0
   55.1730   28.9880   44.6810 N   0  0  0  0  0  0  0  0  0  0  0  0
   56.9460   30.1090   43.0690 O   0  0  0  0  0  0  0  0  0  0  0  0
   56.0090   31.4860   44.8620 O   0  0  0  0  0  0  0  0  0  0  0  0
   58.7820   30.4770   46.0450 C   0  0  0  0  0  0  0  0  0  0  0  0
   61.1070   29.6660   49.8620 C   0  0  0  0  0  0  0  0  0  0  0  0
   62.2090   29.9950   50.8770 C   0  0  0  0  0  0  0  0  0  0  0  0
   59.8120   29.2480   50.5690 C   0  0  0  0  0  0  0  0  0  0  0  0
   58.1320   32.4600   48.3940 O   0  0  0  0  0  0  0  0  0  0  0  0
   57.5850   33.0940   47.4070 N   0  0  0  0  0  0  0  0  0  0  0  0
   60.4301   33.9490   45.0416 H   0  0  0  0  0  0  0  0  0  0  0  0
   59.1905   33.3761   43.8745 H   0  0  0  0  0  0  0  0  0  0  0  0
   59.6953   35.1000   43.8745 H   0  0  0  0  0  0  0  0  0  0  0  0
   58.4821   35.6097   45.7720 H   0  0  0  0  0  0  0  0  0  0  0  0
   56.2902   34.1496   45.7338 H   0  0  0  0  0  0  0  0  0  0  0  0
   56.7232   35.1434   44.3015 H   0  0  0  0  0  0  0  0  0  0  0  0
   57.0509   33.3773   44.3015 H   0  0  0  0  0  0  0  0  0  0  0  0
   61.2549   32.7771   49.4520 H   0  0  0  0  0  0  0  0  0  0  0  0
   59.8796   31.9863   50.3229 H   0  0  0  0  0  0  0  0  0  0  0  0
   60.0372   27.7371   47.5976 H   0  0  0  0  0  0  0  0  0  0  0  0
   54.5650   29.3520   45.4480 H   0  0  0  0  0  0  0  0  0  0  0  0
   58.8338   31.5519   45.8170 H   0  0  0  0  0  0  0  0  0  0  0  0
   61.4655   28.8133   49.2667 H   0  0  0  0  0  0  0  0  0  0  0  0
   61.8148   29.8773   51.8972 H   0  0  0  0  0  0  0  0  0  0  0  0
   63.0581   29.3112   50.7308 H   0  0  0  0  0  0  0  0  0  0  0  0
   62.5443   31.0324   50.7308 H   0  0  0  0  0  0  0  0  0  0  0  0
   59.9574   29.2949   51.6583 H   0  0  0  0  0  0  0  0  0  0  0  0
   58.9990   29.9293   50.2779 H   0  0  0  0  0  0  0  0  0  0  0  0
   59.5507   28.2199   50.2779 H   0  0  0  0  0  0  0  0  0  0  0  0
   56.5690   33.0850   47.1640 H   0  0  0  0  0  0  0  0  0  0  0  0
  1  2  1  0
  2  3  1  0
  2  4  1  0
  4  5  1  0
  5  6  2  0
  6  7  1  0
  7  8  1  0
  8  9  1  0
  9 10  2  0
  9 11  1  0
 11 12  2  0
 12 13  1  0
 13 14  1  0
 14 15  1  0
 15 16  1  0
 15 17  2  0
 15 18  2  0
 14 19  2  0
  8 20  1  0
 20 21  1  0
 20 22  1  0
  6 23  1  0
 23 24  1  0
 24  4  2  0
 19 11  1  0
  1 25  1  0
  1 26  1  0
  1 27  1  0
  2 28  1  0
  3 29  1  0
  3 30  1  0
  3 31  1  0
  7 32  1  0
  7 33  1  0
 12 34  1  0
 16 35  1  0
 19 36  1  0
 20 37  1  0
 21 38  1  0
 21 39  1  0
 21 40  1  0
 22 41  1  0
 22 42  1  0
 22 43  1  0
 24 44  1  0
M  CHG  2  16  -1  24   1
M  END
>  <UniqueID>  (16) 
16

>  <SMILES>  (16) 
CC(C)c1nc(CN(C(=O)c2csc(S([NH-])(=O)=O)c2)C(C)C)o[nH+]1

>  <Energy>  (16) 
97.28851137799109

>  <Genealogy>  (16) 
CC(C)c1nc(CN(C(=O)c2csc(S([NH-])(=O)=O)c2)C(C)C)o[nH+]1 (protonated)
CC(C)c1nc(CN(C(=O)c2csc(S([NH-])(=O)=O)c2)C(C)C)o[nH+]1 (3D coordinates assigned)
CC(C)c1nc(CN(C(=O)c2csc(S([NH-])(=O)=O)c2)C(C)C)o[nH+]1 (optimized conformer: 97.28851137799109 kcal/mol)

>  <smiles>  (16) 
CC(C)c1noc(CN(C(=O)c2csc(S(N)(=O)=O)c2)C(C)C)n1

>  <score_type>  (16) 
oracle

>  <origin>  (16) 
adg

>  <m_score__min__energy>  (16) 
-9.6099999999999994

>  <m_primary>  (16) 
energy

$$$$
16:0
     RDKit          3D

 57 60  0  0  0  0  0  0  0  0999 V2000
   60.6040   27.8640   51.4560 O   0  0  0  0  0  0  0  0  0  0  0  0
   60.5370   28.5510   50.4000 C   0  0  0  0  0  0  0  0  0  0  0  0
   60.3900   27.9130   49.1260 N   0  0  0  0  0  0  0  0  0  0  0  0
   59.6450   28.4410   48.0170 C   0  0  0  0  0  0  0  0  0  0  0  0
   59.2190   27.5660   47.0070 C   0  0  0  0  0  0  0  0  0  0  0  0
   58.4780   28.0460   45.9240 C   0  0  0  0  0  0  0  0  0  0  0  0
   58.1790   29.4100   45.8290 C   0  0  0  0  0  0  0  0  0  0  0  0
   58.6380   30.3030   46.8080 C   0  0  0  0  0  0  0  0  0  0  0  0
   58.3170   32.0320   46.6630 S   0  0  0  0  0  0  0  0  0  0  0  0
   57.7690   32.5270   47.9760 O   0  0  0  0  0  0  0  0  0  0  0  0
   57.2810   32.2600   45.5990 O   0  0  0  0  0  0  0  0  0  0  0  0
   59.8040   32.8770   46.2670 N   0  0  0  0  0  0  0  0  0  0  0  0
   60.5730   33.2010   47.4740 C   0  0  0  0  0  0  0  0  0  0  0  0
   60.1350   34.5830   47.9360 C   0  0  0  0  0  0  0  0  0  0  0  0
   59.5410   35.2460   46.7100 C   0  0  0  0  0  0  0  0  0  0  0  0
   59.5260   34.1660   45.6290 C   0  0  0  0  0  0  0  0  0  0  0  0
   59.3760   29.8170   47.8980 C   0  0  0  0  0  0  0  0  0  0  0  0
   60.6630   29.9410   50.4500 O   0  0  0  0  0  0  0  0  0  0  0  0
   60.2650   30.7040   51.5850 C   0  0  0  0  0  0  0  0  0  0  0  0
   58.7750   30.6160   51.7500 C   0  0  0  0  0  0  0  0  0  0  0  0
   57.9440   31.5970   51.1880 C   0  0  0  0  0  0  0  0  0  0  0  0
   56.5550   31.5080   51.3230 C   0  0  0  0  0  0  0  0  0  0  0  0
   55.9710   30.4280   52.0120 C   0  0  0  0  0  0  0  0  0  0  0  0
   54.4940   30.3390   52.1640 C   0  0  0  0  0  0  0  0  0  0  0  0
   53.9080   29.2400   52.8260 C   0  0  0  0  0  0  0  0  0  0  0  0
   52.5220   29.1610   52.9770 C   0  0  0  0  0  0  0  0  0  0  0  0
   51.7020   30.1730   52.4690 C   0  0  0  0  0  0  0  0  0  0  0  0
   52.2610   31.2780   51.8000 C   0  0  0  0  0  0  0  0  0  0  0  0
   51.3910   32.3440   51.2530 C   0  0  0  0  0  0  0  0  0  0  0  0
   50.9700   33.2740   51.9940 O   0  0  0  0  0  0  0  0  0  0  0  0
   51.0260   32.3350   49.9140 O   0  0  0  0  0  0  0  0  0  0  0  0
   53.6580   31.3520   51.6500 C   0  0  0  0  0  0  0  0  0  0  0  0
   56.8090   29.4380   52.5560 C   0  0  0  0  0  0  0  0  0  0  0  0
   58.1980   29.5270   52.4200 C   0  0  0  0  0  0  0  0  0  0  0  0
   59.4695   26.4966   47.0678 H   0  0  0  0  0  0  0  0  0  0  0  0
   58.1294   27.3514   45.1455 H   0  0  0  0  0  0  0  0  0  0  0  0
   57.5820   29.7828   44.9836 H   0  0  0  0  0  0  0  0  0  0  0  0
   60.3720   32.2670   45.6320 H   0  0  0  0  0  0  0  0  0  0  0  0
   60.3685   32.4595   48.2603 H   0  0  0  0  0  0  0  0  0  0  0  0
   61.6523   33.1866   47.2621 H   0  0  0  0  0  0  0  0  0  0  0  0
   59.3813   34.5017   48.7331 H   0  0  0  0  0  0  0  0  0  0  0  0
   60.9743   35.1620   48.3487 H   0  0  0  0  0  0  0  0  0  0  0  0
   58.5190   35.5952   46.9188 H   0  0  0  0  0  0  0  0  0  0  0  0
   60.1231   36.1262   46.3995 H   0  0  0  0  0  0  0  0  0  0  0  0
   58.5385   34.1369   45.1452 H   0  0  0  0  0  0  0  0  0  0  0  0
   60.2858   34.3833   44.8638 H   0  0  0  0  0  0  0  0  0  0  0  0
   59.7461   30.5152   48.6632 H   0  0  0  0  0  0  0  0  0  0  0  0
   60.7576   30.3069   52.4848 H   0  0  0  0  0  0  0  0  0  0  0  0
   60.5565   31.7548   51.4409 H   0  0  0  0  0  0  0  0  0  0  0  0
   58.3874   32.4404   50.6384 H   0  0  0  0  0  0  0  0  0  0  0  0
   55.9135   32.2881   50.8873 H   0  0  0  0  0  0  0  0  0  0  0  0
   54.5474   28.4394   53.2262 H   0  0  0  0  0  0  0  0  0  0  0  0
   52.0745   28.3009   53.4966 H   0  0  0  0  0  0  0  0  0  0  0  0
   50.6111   30.1051   52.5932 H   0  0  0  0  0  0  0  0  0  0  0  0
   54.1035   32.2102   51.1256 H   0  0  0  0  0  0  0  0  0  0  0  0
   56.3677   28.5857   53.0935 H   0  0  0  0  0  0  0  0  0  0  0  0
   58.8409   28.7396   52.8403 H   0  0  0  0  0  0  0  0  0  0  0  0
  1  2  2  0
  2  3  1  0
  3  4  1  0
  4  5  2  0
  5  6  1  0
  6  7  2  0
  7  8  1  0
  8  9  1  0
  9 10  2  0
  9 11  2  0
  9 12  1  0
 12 13  1  0
 13 14  1  0
 14 15  1  0
 15 16  1  0
  8 17  2  0
  2 18  1  0
 18 19  1  0
 19 20  1  0
 20 21  2  0
 21 22  1  0
 22 23  2  0
 23 24  1  0
 24 25  2  0
 25 26  1  0
 26 27  2  0
 27 28  1  0
 28 29  1  0
 29 30  2  0
 29 31  1  0
 28 32  2  0
 23 33  1  0
 33 34  2  0
 17  4  1  0
 34 20  1  0
 16 12  1  0
 32 24  1  0
  5 35  1  0
  6 36  1  0
  7 37  1  0
 12 38  1  0
 13 39  1  0
 13 40  1  0
 14 41  1  0
 14 42  1  0
 15 43  1  0
 15 44  1  0
 16 45  1  0
 16 46  1  0
 17 47  1  0
 19 48  1  0
 19 49  1  0
 21 50  1  0
 22 51  1  0
 25 52  1  0
 26 53  1  0
 27 54  1  0
 32 55  1  0
 33 56  1  0
 34 57  1  0
M  CHG  3   3  -1  12   1  31  -1
M  END
>  <UniqueID>  (17) 
17

>  <SMILES>  (17) 
O=C([N-]c1cccc(S(=O)(=O)[NH+]2CCCC2)c1)OCc1ccc(-c2cccc(C(=O)[O-])c2)cc1

>  <Energy>  (17) 
69.76453122461682

>  <Genealogy>  (17) 
O=C([N-]c1cccc(S(=O)(=O)[NH+]2CCCC2)c1)OCc1ccc(-c2cccc(C(=O)[O-])c2)cc1 (protonated)
O=C([N-]c1cccc(S(=O)(=O)[NH+]2CCCC2)c1)OCc1ccc(-c2cccc(C(=O)[O-])c2)cc1 (3D coordinates assigned)
O=C([N-]c1cccc(S(=O)(=O)[NH+]2CCCC2)c1)OCc1ccc(-c2cccc(C(=O)[O-])c2)cc1 (nonaromatic ring conformer: 69.76453122461682 kcal/mol)

>  <smiles>  (17) 
O=C(Nc1cccc(S(=O)(=O)N2CCCC2)c1)OCc1ccc(-c2cccc(C(=O)O)c2)cc1

>  <score_type>  (17) 
oracle

>  <origin>  (17) 
adg

>  <m_score__min__energy>  (17) 
-14

>  <m_primary>  (17) 
energy

$$$$
17:0
     RDKit          3D

 40 42  0  0  0  0  0  0  0  0999 V2000
   51.7530   25.5610   54.9640 C   0  0  0  0  0  0  0  0  0  0  0  0
   52.6570   25.9840   53.4890 S   0  0  0  0  0  0  0  0  0  0  0  0
   51.8760   25.5520   52.2800 O   0  0  0  0  0  0  0  0  0  0  0  0
   53.9790   25.2680   53.5040 O   0  0  0  0  0  0  0  0  0  0  0  0
   52.9490   27.7440   53.4300 C   0  0  0  0  0  0  0  0  0  0  0  0
   54.2320   28.1170   54.1770 C   0  0  0  0  0  0  0  0  0  0  0  0
   55.1700   28.7790   53.2710 N   0  0  0  0  0  0  0  0  0  0  0  0
   56.4560   28.4810   53.2190 N   0  0  0  0  0  0  0  0  0  0  0  0
   57.0150   29.4080   52.4160 C   0  0  0  0  0  0  0  0  0  0  0  0
   58.4810   29.4880   52.1490 C   0  0  0  0  0  0  0  0  0  0  0  0
   58.7350   30.4080   50.9980 C   0  0  0  0  0  0  0  0  0  0  0  0
   59.0190   30.0220   49.6950 C   0  0  0  0  0  0  0  0  0  0  0  0
   59.1250   31.1030   48.8120 C   0  0  0  0  0  0  0  0  0  0  0  0
   58.9090   32.3380   49.4120 C   0  0  0  0  0  0  0  0  0  0  0  0
   58.5840   32.0820   51.0430 S   0  0  0  0  0  0  0  0  0  0  0  0
   56.1270   30.3280   51.9820 N   0  0  0  0  0  0  0  0  0  0  0  0
   54.9740   29.8920   52.5280 C   0  0  0  0  0  0  0  0  0  0  0  0
   53.7000   30.6240   52.4000 C   0  0  0  0  0  0  0  0  0  0  0  0
   53.2700   31.0530   51.1350 C   0  0  0  0  0  0  0  0  0  0  0  0
   52.0690   31.7560   51.0000 C   0  0  0  0  0  0  0  0  0  0  0  0
   51.2840   32.0230   52.1250 C   0  0  0  0  0  0  0  0  0  0  0  0
   50.0920   32.7260   51.9910 O   0  0  0  0  0  0  0  0  0  0  0  0
   51.6950   31.5780   53.3850 C   0  0  0  0  0  0  0  0  0  0  0  0
   52.8950   30.8740   53.5230 C   0  0  0  0  0  0  0  0  0  0  0  0
   52.3449   25.8379   55.8489 H   0  0  0  0  0  0  0  0  0  0  0  0
   50.7972   26.1054   54.9771 H   0  0  0  0  0  0  0  0  0  0  0  0
   51.5585   24.4784   54.9771 H   0  0  0  0  0  0  0  0  0  0  0  0
   53.0412   28.0575   52.3797 H   0  0  0  0  0  0  0  0  0  0  0  0
   52.1031   28.2541   53.9139 H   0  0  0  0  0  0  0  0  0  0  0  0
   53.9853   28.7975   55.0053 H   0  0  0  0  0  0  0  0  0  0  0  0
   54.6980   27.2010   54.5693 H   0  0  0  0  0  0  0  0  0  0  0  0
   58.9950   29.8707   53.0431 H   0  0  0  0  0  0  0  0  0  0  0  0
   58.8616   28.4854   51.9043 H   0  0  0  0  0  0  0  0  0  0  0  0
   59.1476   28.9736   49.3878 H   0  0  0  0  0  0  0  0  0  0  0  0
   59.3575   30.9860   47.7432 H   0  0  0  0  0  0  0  0  0  0  0  0
   58.9444   33.3148   48.9074 H   0  0  0  0  0  0  0  0  0  0  0  0
   53.8802   30.8353   50.2461 H   0  0  0  0  0  0  0  0  0  0  0  0
   51.7417   32.0992   50.0075 H   0  0  0  0  0  0  0  0  0  0  0  0
   51.0733   31.7821   54.2692 H   0  0  0  0  0  0  0  0  0  0  0  0
   53.2094   30.5150   54.5141 H   0  0  0  0  0  0  0  0  0  0  0  0
  1  2  1  0
  2  3  2  0
  2  4  2  0
  2  5  1  0
  5  6  1  0
  6  7  1  0
  7  8  1  0
  8  9  2  0
  9 10  1  0
 10 11  1  0
 11 12  2  0
 12 13  1  0
 13 14  2  0
 14 15  1  0
  9 16  1  0
 16 17  2  0
 17 18  1  0
 18 19  2  0
 19 20  1  0
 20 21  2  0
 21 22  1  0
 21 23  1  0
 23 24  2  0
 17  7  1  0
 24 18  1  0
 15 11  1  0
  1 25  1  0
  1 26  1  0
  1 27  1  0
  5 28  1  0
  5 29  1  0
  6 30  1  0
  6 31  1  0
 10 32  1  0
 10 33  1  0
 12 34  1  0
 13 35  1  0
 14 36  1  0
 19 37  1  0
 20 38  1  0
 23 39  1  0
 24 40  1  0
M  CHG  1  22  -1
M  END
>  <UniqueID>  (18) 
18

>  <SMILES>  (18) 
CS(=O)(=O)CCn1nc(Cc2cccs2)nc1-c1ccc([O-])cc1

>  <Energy>  (18) 
92.5038365053462

>  <Genealogy>  (18) 
CS(=O)(=O)CCn1nc(Cc2cccs2)nc1-c1ccc([O-])cc1 (protonated)
CS(=O)(=O)CCn1nc(Cc2cccs2)nc1-c1ccc([O-])cc1 (3D coordinates assigned)
CS(=O)(=O)CCn1nc(Cc2cccs2)nc1-c1ccc([O-])cc1 (optimized conformer: 92.5038365053462 kcal/mol)

>  <smiles>  (18) 
CS(=O)(=O)CCn1nc(Cc2cccs2)nc1-c1ccc(O)cc1

>  <score_type>  (18) 
oracle

>  <origin>  (18) 
adg

>  <m_score__min__energy>  (18) 
-9.5600000000000005

>  <m_primary>  (18) 
energy

$$$$
18:0
     RDKit          3D

 55 58  0  0  0  0  0  0  0  0999 V2000
   57.7360   33.1230   45.1760 C   0  0  0  0  0  0  0  0  0  0  0  0
   57.7930   31.8180   45.4480 C   0  0  0  0  0  0  0  0  0  0  0  0
   57.0030   30.9160   44.8200 N   0  0  0  0  0  0  0  0  0  0  0  0
   57.3010   29.7350   45.3990 C   0  0  0  0  0  0  0  0  0  0  0  0
   56.7210   28.5830   45.0240 C   0  0  0  0  0  0  0  0  0  0  0  0
   57.0930   27.2530   45.5340 C   0  0  0  0  0  0  0  0  0  0  0  0
   58.3530   26.7670   45.4860 N   0  0  0  0  0  0  0  0  0  0  0  0
   58.2250   25.5010   45.9370 C   0  0  0  0  0  0  0  0  0  0  0  0
   59.2010   24.7110   46.0340 O   0  0  0  0  0  0  0  0  0  0  0  0
   56.9580   25.1610   46.2540 N   0  0  0  0  0  0  0  0  0  0  0  0
   56.4600   23.8530   46.6730 C   0  0  0  0  0  0  0  0  0  0  0  0
   56.2380   26.2590   45.9660 C   0  0  0  0  0  0  0  0  0  0  0  0
   54.8490   26.3480   46.0390 O   0  0  0  0  0  0  0  0  0  0  0  0
   58.2820   29.9460   46.3520 C   0  0  0  0  0  0  0  0  0  0  0  0
   58.8670   29.0640   47.0390 O   0  0  0  0  0  0  0  0  0  0  0  0
   58.5910   31.2550   46.3910 N   0  0  0  0  0  0  0  0  0  0  0  0
   59.5880   31.8730   47.2250 C   0  0  0  0  0  0  0  0  0  0  0  0
   59.2530   32.9580   48.0500 C   0  0  0  0  0  0  0  0  0  0  0  0
   60.2270   33.5650   48.8480 C   0  0  0  0  0  0  0  0  0  0  0  0
   61.5560   33.1100   48.8190 C   0  0  0  0  0  0  0  0  0  0  0  0
   62.5890   33.7410   49.6730 C   0  0  0  0  0  0  0  0  0  0  0  0
   62.6740   34.9990   49.7090 O   0  0  0  0  0  0  0  0  0  0  0  0
   63.5100   32.9500   50.4470 N   0  0  0  0  0  0  0  0  0  0  0  0
   64.9190   33.3590   50.5130 C   0  0  0  0  0  0  0  0  0  0  0  0
   65.7070   32.5430   51.5480 C   0  0  0  0  0  0  0  0  0  0  0  0
   65.3820   31.1110   51.4420 N   0  0  0  0  0  0  0  0  0  0  0  0
   66.3910   30.0940   51.6270 C   0  0  0  0  0  0  0  0  0  0  0  0
   67.7570   30.4200   52.1490 C   0  0  0  0  0  0  0  0  0  0  0  0
   66.1300   28.8940   51.3350 O   0  0  0  0  0  0  0  0  0  0  0  0
   63.9820   30.6870   51.2730 C   0  0  0  0  0  0  0  0  0  0  0  0
   63.0170   31.8750   51.3150 C   0  0  0  0  0  0  0  0  0  0  0  0
   61.8870   32.0220   47.9930 C   0  0  0  0  0  0  0  0  0  0  0  0
   60.9130   31.4160   47.1970 C   0  0  0  0  0  0  0  0  0  0  0  0
   58.3949   33.8250   45.7081 H   0  0  0  0  0  0  0  0  0  0  0  0
   57.0302   33.4969   44.4197 H   0  0  0  0  0  0  0  0  0  0  0  0
   55.9100   28.6372   44.2828 H   0  0  0  0  0  0  0  0  0  0  0  0
   56.4408   23.8027   47.7717 H   0  0  0  0  0  0  0  0  0  0  0  0
   55.4427   23.7053   46.2814 H   0  0  0  0  0  0  0  0  0  0  0  0
   57.1215   23.0662   46.2814 H   0  0  0  0  0  0  0  0  0  0  0  0
   54.3860   26.7110   46.8630 H   0  0  0  0  0  0  0  0  0  0  0  0
   58.2189   33.3325   48.0687 H   0  0  0  0  0  0  0  0  0  0  0  0
   59.9511   34.4045   49.5031 H   0  0  0  0  0  0  0  0  0  0  0  0
   65.3774   33.2149   49.5235 H   0  0  0  0  0  0  0  0  0  0  0  0
   64.9522   34.4157   50.8168 H   0  0  0  0  0  0  0  0  0  0  0  0
   66.7840   32.6823   51.3729 H   0  0  0  0  0  0  0  0  0  0  0  0
   65.4343   32.8929   52.5546 H   0  0  0  0  0  0  0  0  0  0  0  0
   67.7398   30.4159   53.2489 H   0  0  0  0  0  0  0  0  0  0  0  0
   68.4755   29.6681   51.7907 H   0  0  0  0  0  0  0  0  0  0  0  0
   68.0586   31.4153   51.7907 H   0  0  0  0  0  0  0  0  0  0  0  0
   63.8788   30.1791   50.3028 H   0  0  0  0  0  0  0  0  0  0  0  0
   63.7277   30.0115   52.1031 H   0  0  0  0  0  0  0  0  0  0  0  0
   62.0249   31.5514   50.9671 H   0  0  0  0  0  0  0  0  0  0  0  0
   62.9459   32.2473   52.3476 H   0  0  0  0  0  0  0  0  0  0  0  0
   62.9203   31.6454   47.9735 H   0  0  0  0  0  0  0  0  0  0  0  0
   61.1871   30.5745   46.5437 H   0  0  0  0  0  0  0  0  0  0  0  0
  1  2  2  0
  2  3  1  0
  3  4  1  0
  4  5  2  3
  5  6  1  0
  6  7  1  0
  7  8  1  0
  8  9  2  0
  8 10  1  0
 10 11  1  0
 10 12  1  0
 12 13  1  0
  4 14  1  0
 14 15  2  0
 14 16  1  0
 16 17  1  0
 17 18  2  0
 18 19  1  0
 19 20  2  0
 20 21  1  0
 21 22  2  0
 21 23  1  0
 23 24  1  0
 24 25  1  0
 25 26  1  0
 26 27  1  0
 27 28  1  0
 27 29  2  0
 26 30  1  0
 30 31  1  0
 20 32  1  0
 32 33  2  0
 16  2  1  0
 33 17  1  0
 12  6  2  0
 31 23  1  0
  1 34  1  0
  1 35  1  0
  5 36  1  0
 11 37  1  0
 11 38  1  0
 11 39  1  0
 13 40  1  0
 18 41  1  0
 19 42  1  0
 24 43  1  0
 24 44  1  0
 25 45  1  0
 25 46  1  0
 28 47  1  0
 28 48  1  0
 28 49  1  0
 30 50  1  0
 30 51  1  0
 31 52  1  0
 31 53  1  0
 32 54  1  0
 33 55  1  0
M  CHG  2   3  -1   7  -1
M  END
>  <UniqueID>  (19) 
19

>  <SMILES>  (19) 
C=c1[n-]c(=Cc2[n-]c(=O)n(C)c2O)c(=O)n1-c1ccc(C(=O)N2CCN(C(C)=O)CC2)cc1

>  <Energy>  (19) 
140.0581748805288

>  <Genealogy>  (19) 
C=c1[n-]c(=Cc2[n-]c(=O)n(C)c2O)c(=O)n1-c1ccc(C(=O)N2CCN(C(C)=O)CC2)cc1 (protonated)
C=c1[n-]c(=Cc2[n-]c(=O)n(C)c2O)c(=O)n1-c1ccc(C(=O)N2CCN(C(C)=O)CC2)cc1 (3D coordinates assigned)
C=c1[n-]c(=Cc2[n-]c(=O)n(C)c2O)c(=O)n1-c1ccc(C(=O)N2CCN(C(C)=O)CC2)cc1 (nonaromatic ring conformer: 140.0581748805288 kcal/mol)

>  <smiles>  (19) 
C=c1[nH]c(=Cc2[nH]c(=O)n(C)c2O)c(=O)n1-c1ccc(C(=O)N2CCN(C(C)=O)CC2)cc1

>  <score_type>  (19) 
oracle

>  <origin>  (19) 
adg

>  <m_score__min__energy>  (19) 
-12.550000000000001

>  <m_primary>  (19) 
energy

$$$$
19:0
     RDKit          3D

 55 58  0  0  0  0  0  0  0  0999 V2000
   56.8520   34.5830   44.7900 O   0  0  0  0  0  0  0  0  0  0  0  0
   57.9330   33.9770   45.0060 C   0  0  0  0  0  0  0  0  0  0  0  0
   59.0590   34.7320   45.4810 N   0  0  0  0  0  0  0  0  0  0  0  0
   59.9150   34.3790   46.5790 C   0  0  0  0  0  0  0  0  0  0  0  0
   59.4520   34.5650   47.8870 C   0  0  0  0  0  0  0  0  0  0  0  0
   60.2550   34.2160   48.9770 C   0  0  0  0  0  0  0  0  0  0  0  0
   61.5330   33.6930   48.7660 C   0  0  0  0  0  0  0  0  0  0  0  0
   62.0150   33.5270   47.4640 C   0  0  0  0  0  0  0  0  0  0  0  0
   63.6160   32.8670   47.1960 Cl  0  0  0  0  0  0  0  0  0  0  0  0
   61.2140   33.8800   46.3710 C   0  0  0  0  0  0  0  0  0  0  0  0
   57.9920   32.5070   44.8200 C   0  0  0  0  0  0  0  0  0  0  0  0
   57.3830   31.9150   43.7050 C   0  0  0  0  0  0  0  0  0  0  0  0
   57.4430   30.5340   43.5180 C   0  0  0  0  0  0  0  0  0  0  0  0
   58.1020   29.7170   44.4410 C   0  0  0  0  0  0  0  0  0  0  0  0
   58.1300   27.9880   44.1160 Cl  0  0  0  0  0  0  0  0  0  0  0  0
   58.7060   30.2950   45.5830 C   0  0  0  0  0  0  0  0  0  0  0  0
   59.5570   29.3370   46.8130 S   0  0  0  0  0  0  0  0  0  0  0  0
   60.7850   28.7360   46.1870 O   0  0  0  0  0  0  0  0  0  0  0  0
   58.6990   28.2020   47.2910 O   0  0  0  0  0  0  0  0  0  0  0  0
   60.0340   30.3160   48.1810 N   0  0  0  0  0  0  0  0  0  0  0  0
   60.8730   29.5370   49.1120 C   0  0  0  0  0  0  0  0  0  0  0  0
   60.9480   30.2300   50.4760 C   0  0  0  0  0  0  0  0  0  0  0  0
   59.6190   30.2960   51.1410 N   0  0  0  0  0  0  0  0  0  0  0  0
   59.5440   31.4240   52.1100 C   0  0  0  0  0  0  0  0  0  0  0  0
   60.6430   32.4720   51.8730 C   0  0  0  0  0  0  0  0  0  0  0  0
   60.0330   33.8420   52.1620 C   0  0  0  0  0  0  0  0  0  0  0  0
   58.5670   33.6100   52.4930 C   0  0  0  0  0  0  0  0  0  0  0  0
   58.2440   32.2230   51.9740 C   0  0  0  0  0  0  0  0  0  0  0  0
   58.4920   30.3070   50.1670 C   0  0  0  0  0  0  0  0  0  0  0  0
   58.8730   30.9680   48.8310 C   0  0  0  0  0  0  0  0  0  0  0  0
   58.6310   31.6850   45.7630 C   0  0  0  0  0  0  0  0  0  0  0  0
   58.4511   34.9880   48.0581 H   0  0  0  0  0  0  0  0  0  0  0  0
   59.8800   34.3534   50.0019 H   0  0  0  0  0  0  0  0  0  0  0  0
   62.1605   33.4116   49.6245 H   0  0  0  0  0  0  0  0  0  0  0  0
   61.6012   33.7669   45.3476 H   0  0  0  0  0  0  0  0  0  0  0  0
   56.8545   32.5433   42.9729 H   0  0  0  0  0  0  0  0  0  0  0  0
   56.9667   30.0832   42.6349 H   0  0  0  0  0  0  0  0  0  0  0  0
   60.4380   28.5347   49.2388 H   0  0  0  0  0  0  0  0  0  0  0  0
   61.8884   29.4603   48.6960 H   0  0  0  0  0  0  0  0  0  0  0  0
   61.6407   29.6699   51.1214 H   0  0  0  0  0  0  0  0  0  0  0  0
   61.2991   31.2600   50.3151 H   0  0  0  0  0  0  0  0  0  0  0  0
   59.6353   30.9347   53.0909 H   0  0  0  0  0  0  0  0  0  0  0  0
   61.4913   32.2874   52.5485 H   0  0  0  0  0  0  0  0  0  0  0  0
   61.0138   32.4208   50.8387 H   0  0  0  0  0  0  0  0  0  0  0  0
   60.5441   34.3115   53.0154 H   0  0  0  0  0  0  0  0  0  0  0  0
   60.1406   34.5122   51.2964 H   0  0  0  0  0  0  0  0  0  0  0  0
   58.4067   33.6597   53.5801 H   0  0  0  0  0  0  0  0  0  0  0  0
   57.9217   34.3749   52.0364 H   0  0  0  0  0  0  0  0  0  0  0  0
   57.4454   31.7636   52.5750 H   0  0  0  0  0  0  0  0  0  0  0  0
   57.8868   32.2486   50.9339 H   0  0  0  0  0  0  0  0  0  0  0  0
   58.1846   29.2690   49.9718 H   0  0  0  0  0  0  0  0  0  0  0  0
   57.6744   30.8952   50.6092 H   0  0  0  0  0  0  0  0  0  0  0  0
   58.0104   30.9097   48.1509 H   0  0  0  0  0  0  0  0  0  0  0  0
   59.1534   32.0101   49.0440 H   0  0  0  0  0  0  0  0  0  0  0  0
   59.0806   32.1388   46.6585 H   0  0  0  0  0  0  0  0  0  0  0  0
  1  2  2  0
  2  3  1  0
  3  4  1  0
  4  5  2  0
  5  6  1  0
  6  7  2  0
  7  8  1  0
  8  9  1  0
  8 10  2  0
  2 11  1  0
 11 12  2  0
 12 13  1  0
 13 14  2  0
 14 15  1  0
 14 16  1  0
 16 17  1  0
 17 18  2  0
 17 19  2  0
 17 20  1  0
 20 21  1  0
 21 22  1  0
 22 23  1  0
 23 24  1  0
 24 25  1  0
 25 26  1  0
 26 27  1  0
 27 28  1  0
 23 29  1  0
 29 30  1  0
 16 31  2  0
 10  4  1  0
 31 11  1  0
 30 20  1  0
 28 24  1  0
  5 32  1  0
  6 33  1  0
  7 34  1  0
 10 35  1  0
 12 36  1  0
 13 37  1  0
 21 38  1  0
 21 39  1  0
 22 40  1  0
 22 41  1  0
 24 42  1  0
 25 43  1  0
 25 44  1  0
 26 45  1  0
 26 46  1  0
 27 47  1  0
 27 48  1  0
 28 49  1  0
 28 50  1  0
 29 51  1  0
 29 52  1  0
 30 53  1  0
 30 54  1  0
 31 55  1  0
M  CHG  1   3  -1
M  END
>  <UniqueID>  (20) 
20

>  <SMILES>  (20) 
O=C([N-]c1cccc(Cl)c1)c1ccc(Cl)c(S(=O)(=O)N2CCN(C3CCCC3)CC2)c1

>  <Energy>  (20) 
79.56273435616791

>  <Genealogy>  (20) 
O=C([N-]c1cccc(Cl)c1)c1ccc(Cl)c(S(=O)(=O)N2CCN(C3CCCC3)CC2)c1 (protonated)
O=C([N-]c1cccc(Cl)c1)c1ccc(Cl)c(S(=O)(=O)N2CCN(C3CCCC3)CC2)c1 (3D coordinates assigned)
O=C([N-]c1cccc(Cl)c1)c1ccc(Cl)c(S(=O)(=O)N2CCN(C3CCCC3)CC2)c1 (nonaromatic ring conformer: 79.56273435616791 kcal/mol)

>  <smiles>  (20) 
O=C(Nc1cccc(Cl)c1)c1ccc(Cl)c(S(=O)(=O)N2CCN(C3CCCC3)CC2)c1

>  <score_type>  (20) 
oracle

>  <origin>  (20) 
adg

>  <m_score__min__energy>  (20) 
-12.08

>  <m_primary>  (20) 
energy

$$$$
20:0
     RDKit          3D

 51 53  0  0  0  0  0  0  0  0999 V2000
   53.2350   23.9940   44.8350 C   0  0  0  0  0  0  0  0  0  0  0  0
   54.3380   24.3210   45.5110 C   0  0  0  0  0  0  0  0  0  0  0  0
   54.7540   25.6040   45.6330 N   0  0  0  0  0  0  0  0  0  0  0  0
   55.8730   25.5260   46.3830 C   0  0  0  0  0  0  0  0  0  0  0  0
   56.6440   26.5680   46.7260 C   0  0  0  0  0  0  0  0  0  0  0  0
   57.2440   27.5080   45.7590 C   0  0  0  0  0  0  0  0  0  0  0  0
   58.5610   27.5020   45.4590 N   0  0  0  0  0  0  0  0  0  0  0  0
   58.7030   28.5350   44.6010 C   0  0  0  0  0  0  0  0  0  0  0  0
   59.8130   28.8550   44.0970 O   0  0  0  0  0  0  0  0  0  0  0  0
   57.5540   29.1940   44.3500 N   0  0  0  0  0  0  0  0  0  0  0  0
   57.3710   30.4100   43.5590 C   0  0  0  0  0  0  0  0  0  0  0  0
   57.7610   31.6170   44.3680 C   0  0  0  0  0  0  0  0  0  0  0  0
   58.0590   32.8320   43.7300 C   0  0  0  0  0  0  0  0  0  0  0  0
   58.3830   33.9630   44.4860 C   0  0  0  0  0  0  0  0  0  0  0  0
   58.4040   33.8910   45.8810 C   0  0  0  0  0  0  0  0  0  0  0  0
   58.7170   34.9910   46.6110 F   0  0  0  0  0  0  0  0  0  0  0  0
   58.0970   32.6880   46.5250 C   0  0  0  0  0  0  0  0  0  0  0  0
   58.1090   32.6180   47.8790 F   0  0  0  0  0  0  0  0  0  0  0  0
   57.7720   31.5550   45.7720 C   0  0  0  0  0  0  0  0  0  0  0  0
   56.6360   28.5620   45.1000 C   0  0  0  0  0  0  0  0  0  0  0  0
   55.3130   28.9690   45.2230 O   0  0  0  0  0  0  0  0  0  0  0  0
   56.1120   24.2050   46.6890 C   0  0  0  0  0  0  0  0  0  0  0  0
   57.0800   23.7630   47.3670 O   0  0  0  0  0  0  0  0  0  0  0  0
   55.1490   23.4370   46.1470 N   0  0  0  0  0  0  0  0  0  0  0  0
   55.0550   21.9730   46.2010 C   0  0  0  0  0  0  0  0  0  0  0  0
   56.4450   21.3130   46.1610 C   0  0  0  0  0  0  0  0  0  0  0  0
   57.2120   21.5090   44.8340 C   0  0  0  0  0  0  0  0  0  0  0  0
   58.1620   22.6510   44.8460 N   0  0  0  0  0  0  0  0  0  0  0  0
   57.7100   23.6800   43.8910 C   0  0  0  0  0  0  0  0  0  0  0  0
   59.5310   22.2280   44.5000 C   0  0  0  0  0  0  0  0  0  0  0  0
   52.9292   22.9402   44.7580 H   0  0  0  0  0  0  0  0  0  0  0  0
   52.6315   24.7783   44.3547 H   0  0  0  0  0  0  0  0  0  0  0  0
   56.8418   26.7327   47.7955 H   0  0  0  0  0  0  0  0  0  0  0  0
   58.0008   30.3565   42.6587 H   0  0  0  0  0  0  0  0  0  0  0  0
   56.3128   30.4963   43.2712 H   0  0  0  0  0  0  0  0  0  0  0  0
   58.0375   32.8943   42.6320 H   0  0  0  0  0  0  0  0  0  0  0  0
   58.6217   34.9109   43.9814 H   0  0  0  0  0  0  0  0  0  0  0  0
   57.5240   30.6117   46.2807 H   0  0  0  0  0  0  0  0  0  0  0  0
   54.5486   21.6821   47.1332 H   0  0  0  0  0  0  0  0  0  0  0  0
   54.4876   21.6325   45.3223 H   0  0  0  0  0  0  0  0  0  0  0  0
   57.0510   21.7397   46.9738 H   0  0  0  0  0  0  0  0  0  0  0  0
   56.2796   20.2309   46.2686 H   0  0  0  0  0  0  0  0  0  0  0  0
   57.7789   20.5901   44.6236 H   0  0  0  0  0  0  0  0  0  0  0  0
   56.4599   21.7299   44.0623 H   0  0  0  0  0  0  0  0  0  0  0  0
   58.1810   23.0960   45.7910 H   0  0  0  0  0  0  0  0  0  0  0  0
   57.3276   24.5507   44.4439 H   0  0  0  0  0  0  0  0  0  0  0  0
   58.5550   23.9896   43.2584 H   0  0  0  0  0  0  0  0  0  0  0  0
   56.9104   23.2672   43.2584 H   0  0  0  0  0  0  0  0  0  0  0  0
   60.1041   22.0509   45.4220 H   0  0  0  0  0  0  0  0  0  0  0  0
   59.4901   21.3006   43.9099 H   0  0  0  0  0  0  0  0  0  0  0  0
   60.0204   23.0168   43.9099 H   0  0  0  0  0  0  0  0  0  0  0  0
  1  2  2  0
  2  3  1  0
  3  4  1  0
  4  5  2  3
  5  6  1  0
  6  7  1  0
  7  8  1  0
  8  9  2  0
  8 10  1  0
 10 11  1  0
 11 12  1  0
 12 13  2  0
 13 14  1  0
 14 15  2  0
 15 16  1  0
 15 17  1  0
 17 18  1  0
 17 19  2  0
 10 20  1  0
 20 21  1  0
  4 22  1  0
 22 23  2  0
 22 24  1  0
 24 25  1  0
 25 26  1  0
 26 27  1  0
 27 28  1  0
 28 29  1  0
 28 30  1  0
 24  2  1  0
 20  6  2  0
 19 12  1  0
  1 31  1  0
  1 32  1  0
  5 33  1  0
 11 34  1  0
 11 35  1  0
 13 36  1  0
 14 37  1  0
 19 38  1  0
 25 39  1  0
 25 40  1  0
 26 41  1  0
 26 42  1  0
 27 43  1  0
 27 44  1  0
 28 45  1  0
 29 46  1  0
 29 47  1  0
 29 48  1  0
 30 49  1  0
 30 50  1  0
 30 51  1  0
M  CHG  4   3  -1   7  -1  21  -1  28   1
M  END
>  <UniqueID>  (21) 
21

>  <SMILES>  (21) 
C=c1[n-]c(=Cc2[n-]c(=O)n(Cc3ccc(F)c(F)c3)c2[O-])c(=O)n1CCC[NH+](C)C

>  <Energy>  (21) 
118.88425280776406

>  <Genealogy>  (21) 
C=c1[n-]c(=Cc2[n-]c(=O)n(Cc3ccc(F)c(F)c3)c2[O-])c(=O)n1CCC[NH+](C)C (protonated)
C=c1[n-]c(=Cc2[n-]c(=O)n(Cc3ccc(F)c(F)c3)c2[O-])c(=O)n1CCC[NH+](C)C (3D coordinates assigned)
C=c1[n-]c(=Cc2[n-]c(=O)n(Cc3ccc(F)c(F)c3)c2[O-])c(=O)n1CCC[NH+](C)C (optimized conformer: 118.88425280776406 kcal/mol)

>  <smiles>  (21) 
C=c1[nH]c(=Cc2[nH]c(=O)n(Cc3ccc(F)c(F)c3)c2O)c(=O)n1CCCN(C)C

>  <score_type>  (21) 
oracle

>  <origin>  (21) 
adg

>  <m_score__min__energy>  (21) 
-13.75

>  <m_primary>  (21) 
energy

$$$$
21:0
     RDKit          3D

 37 38  0  0  0  0  0  0  0  0999 V2000
   63.6570   33.3740   47.0980 C   0  0  0  0  0  0  0  0  0  0  0  0
   62.1740   33.1450   47.1280 C   0  0  0  0  0  0  0  0  0  0  0  0
   61.3900   33.9250   46.3400 N   0  0  0  0  0  0  0  0  0  0  0  0
   60.0450   33.7730   46.3030 C   0  0  0  0  0  0  0  0  0  0  0  0
   59.0620   34.8210   45.2300 S   0  0  0  0  0  0  0  0  0  0  0  0
   58.5120   33.4600   44.1400 C   0  0  0  0  0  0  0  0  0  0  0  0
   57.4600   32.6120   44.7990 C   0  0  0  0  0  0  0  0  0  0  0  0
   56.7380   33.1370   45.6900 O   0  0  0  0  0  0  0  0  0  0  0  0
   57.2170   31.2470   44.4110 N   0  0  0  0  0  0  0  0  0  0  0  0
   56.7030   30.8710   43.1040 C   0  0  0  0  0  0  0  0  0  0  0  0
   56.7440   29.3330   43.0480 C   0  0  0  0  0  0  0  0  0  0  0  0
   57.0910   28.8360   44.4580 C   0  0  0  0  0  0  0  0  0  0  0  0
   57.4080   30.0780   45.1900 C   0  0  0  0  0  0  0  0  0  0  0  0
   57.7650   30.0910   46.3980 O   0  0  0  0  0  0  0  0  0  0  0  0
   59.4460   32.8190   47.0610 N   0  0  0  0  0  0  0  0  0  0  0  0
   60.1750   31.9920   47.8620 C   0  0  0  0  0  0  0  0  0  0  0  0
   59.4580   30.9290   48.6540 C   0  0  0  0  0  0  0  0  0  0  0  0
   61.5780   32.1610   47.9510 C   0  0  0  0  0  0  0  0  0  0  0  0
   62.4190   31.2620   48.8310 C   0  0  0  0  0  0  0  0  0  0  0  0
   64.0398   33.4331   48.1276 H   0  0  0  0  0  0  0  0  0  0  0  0
   64.1461   32.5407   46.5722 H   0  0  0  0  0  0  0  0  0  0  0  0
   63.8720   34.3160   46.5722 H   0  0  0  0  0  0  0  0  0  0  0  0
   58.0973   33.8886   43.2157 H   0  0  0  0  0  0  0  0  0  0  0  0
   59.3810   32.8217   43.9224 H   0  0  0  0  0  0  0  0  0  0  0  0
   55.6698   31.2288   42.9840 H   0  0  0  0  0  0  0  0  0  0  0  0
   57.3025   31.3160   42.2962 H   0  0  0  0  0  0  0  0  0  0  0  0
   55.7632   28.9409   42.7411 H   0  0  0  0  0  0  0  0  0  0  0  0
   57.4915   28.9889   42.3180 H   0  0  0  0  0  0  0  0  0  0  0  0
   56.2349   28.3177   44.9145 H   0  0  0  0  0  0  0  0  0  0  0  0
   57.9172   28.1098   44.4662 H   0  0  0  0  0  0  0  0  0  0  0  0
   58.4070   32.7190   47.0120 H   0  0  0  0  0  0  0  0  0  0  0  0
   59.5883   31.1222   49.7290 H   0  0  0  0  0  0  0  0  0  0  0  0
   58.3866   30.9467   48.4055 H   0  0  0  0  0  0  0  0  0  0  0  0
   59.8758   29.9422   48.4055 H   0  0  0  0  0  0  0  0  0  0  0  0
   62.2108   31.4846   49.8879 H   0  0  0  0  0  0  0  0  0  0  0  0
   62.1729   30.2104   48.6224 H   0  0  0  0  0  0  0  0  0  0  0  0
   63.4847   31.4375   48.6224 H   0  0  0  0  0  0  0  0  0  0  0  0
  1  2  1  0
  2  3  2  0
  3  4  1  0
  4  5  1  0
  5  6  1  0
  6  7  1  0
  7  8  2  0
  7  9  1  0
  9 10  1  0
 10 11  1  0
 11 12  1  0
 12 13  1  0
 13 14  2  0
  4 15  2  0
 15 16  1  0
 16 17  1  0
 16 18  2  0
 18 19  1  0
 18  2  1  0
 13  9  1  0
  1 20  1  0
  1 21  1  0
  1 22  1  0
  6 23  1  0
  6 24  1  0
 10 25  1  0
 10 26  1  0
 11 27  1  0
 11 28  1  0
 12 29  1  0
 12 30  1  0
 15 31  1  0
 17 32  1  0
 17 33  1  0
 17 34  1  0
 19 35  1  0
 19 36  1  0
 19 37  1  0
M  CHG  1  15   1
M  END
>  <UniqueID>  (22) 
22

>  <SMILES>  (22) 
Cc1nc(SCC(=O)N2CCCC2=O)[nH+]c(C)c1C

>  <Energy>  (22) 
39.35198858695869

>  <Genealogy>  (22) 
Cc1nc(SCC(=O)N2CCCC2=O)[nH+]c(C)c1C (protonated)
Cc1nc(SCC(=O)N2CCCC2=O)[nH+]c(C)c1C (3D coordinates assigned)
Cc1nc(SCC(=O)N2CCCC2=O)[nH+]c(C)c1C (nonaromatic ring conformer: 39.35198858695869 kcal/mol)

>  <smiles>  (22) 
Cc1nc(SCC(=O)N2CCCC2=O)nc(C)c1C

>  <score_type>  (22) 
oracle

>  <origin>  (22) 
adg

>  <m_score__min__energy>  (22) 
-6.5499999999999998

>  <m_primary>  (22) 
energy

$$$$
22:0
     RDKit          3D

 42 44  0  0  0  0  0  0  0  0999 V2000
   60.1170   23.3710   45.4560 H   0  0  0  0  0  0  0  0  0  0  0  0
   59.3520   23.8380   45.9930 N   0  0  0  0  0  0  0  0  0  0  0  0
   59.2420   25.1280   46.0330 C   0  0  0  0  0  0  0  0  0  0  0  0
   60.3580   25.8950   46.1610 N   0  0  0  0  0  0  0  0  0  0  0  0
   60.3030   27.2510   46.2050 C   0  0  0  0  0  0  0  0  0  0  0  0
   61.2322   27.8328   46.2946 H   0  0  0  0  0  0  0  0  0  0  0  0
   59.0690   27.9150   46.1370 C   0  0  0  0  0  0  0  0  0  0  0  0
   59.0210   29.3990   46.1960 C   0  0  0  0  0  0  0  0  0  0  0  0
   60.1310   30.0890   46.5770 N   0  0  0  0  0  0  0  0  0  0  0  0
   60.1590   31.4480   46.6580 C   0  0  0  0  0  0  0  0  0  0  0  0
   61.3730   32.1230   47.0630 N   0  0  0  0  0  0  0  0  0  0  0  0
   62.3110   31.4770   47.9950 C   0  0  0  0  0  0  0  0  0  0  0  0
   61.7537   31.1120   48.8703 H   0  0  0  0  0  0  0  0  0  0  0  0
   62.8021   30.6419   47.4739 H   0  0  0  0  0  0  0  0  0  0  0  0
   63.3880   32.4600   48.4620 C   0  0  0  0  0  0  0  0  0  0  0  0
   62.9270   33.2213   49.1084 H   0  0  0  0  0  0  0  0  0  0  0  0
   64.1581   31.9052   49.0180 H   0  0  0  0  0  0  0  0  0  0  0  0
   64.0170   33.1200   47.3120 N   0  0  0  0  0  0  0  0  0  0  0  0
   64.5130   32.3900   46.7480 H   0  0  0  0  0  0  0  0  0  0  0  0
   63.0620   33.8330   46.4370 C   0  0  0  0  0  0  0  0  0  0  0  0
   63.2267   34.9136   46.5601 H   0  0  0  0  0  0  0  0  0  0  0  0
   63.2553   33.4773   45.4142 H   0  0  0  0  0  0  0  0  0  0  0  0
   61.5760   33.5390   46.7240 C   0  0  0  0  0  0  0  0  0  0  0  0
   61.2428   34.1617   47.5673 H   0  0  0  0  0  0  0  0  0  0  0  0
   60.9932   33.7690   45.8199 H   0  0  0  0  0  0  0  0  0  0  0  0
   58.9880   32.1580   46.3390 C   0  0  0  0  0  0  0  0  0  0  0  0
   58.9764   33.2569   46.3871 H   0  0  0  0  0  0  0  0  0  0  0  0
   57.8710   31.4780   45.9710 N   0  0  0  0  0  0  0  0  0  0  0  0
   57.8570   30.1220   45.8910 C   0  0  0  0  0  0  0  0  0  0  0  0
   56.9402   29.5943   45.5894 H   0  0  0  0  0  0  0  0  0  0  0  0
   57.9040   27.1410   45.9930 C   0  0  0  0  0  0  0  0  0  0  0  0
   56.9242   27.6372   45.9314 H   0  0  0  0  0  0  0  0  0  0  0  0
   57.9800   25.7390   45.9270 C   0  0  0  0  0  0  0  0  0  0  0  0
   56.7880   24.9390   45.8050 N   0  0  0  0  0  0  0  0  0  0  0  0
   56.8860   23.9380   45.5220 H   0  0  0  0  0  0  0  0  0  0  0  0
   55.4590   25.4550   45.9520 C   0  0  0  0  0  0  0  0  0  0  0  0
   55.2560   26.6980   46.0150 O   0  0  0  0  0  0  0  0  0  0  0  0
   54.3560   24.5460   45.9910 N   0  0  0  0  0  0  0  0  0  0  0  0
   53.9590   23.7400   44.8450 C   0  0  0  0  0  0  0  0  0  0  0  0
   53.4984   22.8049   45.1963 H   0  0  0  0  0  0  0  0  0  0  0  0
   53.2336   24.3000   44.2365 H   0  0  0  0  0  0  0  0  0  0  0  0
   54.8451   23.5063   44.2365 H   0  0  0  0  0  0  0  0  0  0  0  0
  1  2  1  0
  2  3  2  0
  3  4  1  0
  4  5  1  0
  5  6  1  0
  5  7  2  0
  7  8  1  0
  8  9  2  0
  9 10  1  0
 10 11  1  0
 11 12  1  0
 12 13  1  0
 12 14  1  0
 12 15  1  0
 15 16  1  0
 15 17  1  0
 15 18  1  0
 18 19  1  0
 18 20  1  0
 20 21  1  0
 20 22  1  0
 20 23  1  0
 23 24  1  0
 23 25  1  0
 10 26  2  0
 26 27  1  0
 26 28  1  0
 28 29  2  0
 29 30  1  0
  7 31  1  0
 31 32  1  0
 31 33  2  0
 33 34  1  0
 34 35  1  0
 34 36  1  0
 36 37  2  0
 36 38  1  0
 38 39  1  0
 39 40  1  0
 39 41  1  0
 39 42  1  0
 33  3  1  0
 29  8  1  0
 23 11  1  0
M  CHG  2   4  -1  38  -1
M  END
>  <UniqueID>  (23) 
23

>  <SMILES>  (23) 
[H]/N=c1\[n-]cc(-c2cncc(N3CCNCC3)n2)cc1NC(=O)[N-]C

>  <Energy>  (23) 
56.9572368990361

>  <Genealogy>  (23) 
C[N-]C(=O)Nc1cc(-c2cncc(N3CCNCC3)n2)c[n-]c1=N (protonated)
[H]/N=c1\[n-]cc(-c2cncc(N3CCNCC3)n2)cc1NC(=O)[N-]C (cis-trans isomerization)
[H]/N=c1\[n-]cc(-c2cncc(N3CCNCC3)n2)cc1NC(=O)[N-]C (3D coordinates assigned)
[H]/N=c1\[n-]cc(-c2cncc(N3CCNCC3)n2)cc1NC(=O)[N-]C (nonaromatic ring conformer: 56.9572368990361 kcal/mol)

>  <smiles>  (23) 
CNC(=O)Nc1cc(-c2cncc(N3CCNCC3)n2)c[nH]c1=N

>  <score_type>  (23) 
oracle

>  <origin>  (23) 
adg

>  <m_score__min__energy>  (23) 
-10.26

>  <m_primary>  (23) 
energy

$$$$
23:0
     RDKit          3D

 27 28  0  0  0  0  0  0  0  0999 V2000
   54.1770   31.2000   52.9520 O   0  0  0  0  0  0  0  0  0  0  0  0
   54.3600   30.1890   52.2240 C   0  0  0  0  0  0  0  0  0  0  0  0
   53.1630   29.4420   51.6920 C   0  0  0  0  0  0  0  0  0  0  0  0
   52.2940   30.3380   50.8390 C   0  0  0  0  0  0  0  0  0  0  0  0
   51.8080   31.5460   51.3590 C   0  0  0  0  0  0  0  0  0  0  0  0
   51.0200   32.3490   50.6010 N   0  0  0  0  0  0  0  0  0  0  0  0
   50.6910   32.0080   49.3290 C   0  0  0  0  0  0  0  0  0  0  0  0
   49.9560   32.7640   48.6440 O   0  0  0  0  0  0  0  0  0  0  0  0
   51.1580   30.8500   48.7950 N   0  0  0  0  0  0  0  0  0  0  0  0
   51.9510   30.0130   49.5130 C   0  0  0  0  0  0  0  0  0  0  0  0
   52.3730   28.9540   48.9750 O   0  0  0  0  0  0  0  0  0  0  0  0
   55.7030   29.7420   51.9900 N   0  0  0  0  0  0  0  0  0  0  0  0
   56.8790   30.5490   52.0990 C   0  0  0  0  0  0  0  0  0  0  0  0
   58.0850   29.9540   52.4860 C   0  0  0  0  0  0  0  0  0  0  0  0
   59.2450   30.7250   52.6080 C   0  0  0  0  0  0  0  0  0  0  0  0
   59.2030   32.1020   52.3640 C   0  0  0  0  0  0  0  0  0  0  0  0
   60.3660   32.8590   52.4860 O   0  0  0  0  0  0  0  0  0  0  0  0
   57.9890   32.7070   52.0060 C   0  0  0  0  0  0  0  0  0  0  0  0
   56.8300   31.9360   51.8820 C   0  0  0  0  0  0  0  0  0  0  0  0
   53.5106   28.5943   51.0833 H   0  0  0  0  0  0  0  0  0  0  0  0
   52.5660   29.0879   52.5454 H   0  0  0  0  0  0  0  0  0  0  0  0
   52.0667   31.8438   52.3858 H   0  0  0  0  0  0  0  0  0  0  0  0
   58.1206   28.8747   52.6952 H   0  0  0  0  0  0  0  0  0  0  0  0
   60.1931   30.2477   52.8966 H   0  0  0  0  0  0  0  0  0  0  0  0
   61.1480   32.5400   53.0460 H   0  0  0  0  0  0  0  0  0  0  0  0
   57.9492   33.7908   51.8224 H   0  0  0  0  0  0  0  0  0  0  0  0
   55.8774   32.4163   51.6139 H   0  0  0  0  0  0  0  0  0  0  0  0
  1  2  2  0
  2  3  1  0
  3  4  1  0
  4  5  2  0
  5  6  1  0
  6  7  1  0
  7  8  2  0
  7  9  1  0
  9 10  1  0
 10 11  2  0
  2 12  1  0
 12 13  1  0
 13 14  2  0
 14 15  1  0
 15 16  2  0
 16 17  1  0
 16 18  1  0
 18 19  2  0
 10  4  1  0
 19 13  1  0
  3 20  1  0
  3 21  1  0
  5 22  1  0
 14 23  1  0
 15 24  1  0
 17 25  1  0
 18 26  1  0
 19 27  1  0
M  CHG  3   6  -1   9  -1  12  -1
M  END
>  <UniqueID>  (24) 
24

>  <SMILES>  (24) 
O=C(Cc1c[n-]c(=O)[n-]c1=O)[N-]c1ccc(O)cc1

>  <Energy>  (24) 
33.282057986422984

>  <Genealogy>  (24) 
O=C(Cc1c[n-]c(=O)[n-]c1=O)[N-]c1ccc(O)cc1 (protonated)
O=C(Cc1c[n-]c(=O)[n-]c1=O)[N-]c1ccc(O)cc1 (3D coordinates assigned)
O=C(Cc1c[n-]c(=O)[n-]c1=O)[N-]c1ccc(O)cc1 (optimized conformer: 33.282057986422984 kcal/mol)

>  <smiles>  (24) 
O=C(Cc1c[nH]c(=O)[nH]c1=O)Nc1ccc(O)cc1

>  <score_type>  (24) 
oracle

>  <origin>  (24) 
adg

>  <m_score__min__energy>  (24) 
-11.779999999999999

>  <m_primary>  (24) 
energy

$$$$
24:0
     RDKit          3D

 68 72  0  0  0  0  0  0  0  0999 V2000
   55.3220   26.3680   46.3450 O   0  0  0  0  0  0  0  0  0  0  0  0
   56.3130   25.7330   45.8550 C   0  0  0  0  0  0  0  0  0  0  0  0
   57.6530   26.2400   46.2120 C   0  0  0  0  0  0  0  0  0  0  0  0
   58.1550   25.9290   47.4850 C   0  0  0  0  0  0  0  0  0  0  0  0
   59.4260   26.3310   47.8710 C   0  0  0  0  0  0  0  0  0  0  0  0
   60.2440   27.0120   46.9430 C   0  0  0  0  0  0  0  0  0  0  0  0
   59.7500   27.3710   45.6830 C   0  0  0  0  0  0  0  0  0  0  0  0
   58.4350   27.0390   45.3140 C   0  0  0  0  0  0  0  0  0  0  0  0
   57.8420   27.6600   44.0550 C   0  0  0  0  0  0  0  0  0  0  0  0
   58.4080   28.9560   43.7410 O   0  0  0  0  0  0  0  0  0  0  0  0
   58.4790   30.1760   44.5530 C   0  0  0  0  0  0  0  0  0  0  0  0
   59.4020   30.2830   45.6190 C   0  0  0  0  0  0  0  0  0  0  0  0
   59.3850   31.4380   46.4200 C   0  0  0  0  0  0  0  0  0  0  0  0
   58.5490   32.5210   46.1060 C   0  0  0  0  0  0  0  0  0  0  0  0
   58.0870   33.5090   47.1480 C   0  0  0  0  0  0  0  0  0  0  0  0
   57.1390   33.1260   47.8680 O   0  0  0  0  0  0  0  0  0  0  0  0
   58.9020   34.7180   47.4510 N   0  0  0  0  0  0  0  0  0  0  0  0
   59.8110   35.0010   46.2860 C   0  0  0  0  0  0  0  0  0  0  0  0
   61.0780   34.1050   46.2490 C   0  0  0  0  0  0  0  0  0  0  0  0
   61.6710   34.0970   47.5860 N   0  0  0  0  0  0  0  0  0  0  0  0
   63.0140   33.4770   47.5340 C   0  0  0  0  0  0  0  0  0  0  0  0
   63.7020   33.4970   48.9160 C   0  0  0  0  0  0  0  0  0  0  0  0
   64.0900   32.0490   48.6830 C   0  0  0  0  0  0  0  0  0  0  0  0
   63.0670   31.9500   47.5620 C   0  0  0  0  0  0  0  0  0  0  0  0
   60.7550   33.5010   48.5570 C   0  0  0  0  0  0  0  0  0  0  0  0
   59.6670   34.5480   48.7380 C   0  0  0  0  0  0  0  0  0  0  0  0
   57.7730   32.4730   44.9200 C   0  0  0  0  0  0  0  0  0  0  0  0
   57.6800   31.2850   44.2300 C   0  0  0  0  0  0  0  0  0  0  0  0
   56.1100   24.6520   44.9430 N   0  0  0  0  0  0  0  0  0  0  0  0
   54.8320   23.9420   44.9340 C   0  0  0  0  0  0  0  0  0  0  0  0
   55.1090   22.4560   44.8730 C   0  0  0  0  0  0  0  0  0  0  0  0
   55.9000   22.1340   43.7440 O   0  0  0  0  0  0  0  0  0  0  0  0
   57.1940   22.6910   43.9070 C   0  0  0  0  0  0  0  0  0  0  0  0
   57.1470   24.2200   43.9760 C   0  0  0  0  0  0  0  0  0  0  0  0
   57.5312   25.3575   48.1881 H   0  0  0  0  0  0  0  0  0  0  0  0
   59.7916   26.1218   48.8871 H   0  0  0  0  0  0  0  0  0  0  0  0
   61.2804   27.2631   47.2129 H   0  0  0  0  0  0  0  0  0  0  0  0
   60.3948   27.9160   44.9778 H   0  0  0  0  0  0  0  0  0  0  0  0
   58.0282   26.9821   43.2089 H   0  0  0  0  0  0  0  0  0  0  0  0
   56.7669   27.8062   44.2360 H   0  0  0  0  0  0  0  0  0  0  0  0
   60.1217   29.4753   45.8182 H   0  0  0  0  0  0  0  0  0  0  0  0
   60.0358   31.4939   47.3051 H   0  0  0  0  0  0  0  0  0  0  0  0
   58.2540   35.5720   47.5070 H   0  0  0  0  0  0  0  0  0  0  0  0
   59.2447   34.8397   45.3569 H   0  0  0  0  0  0  0  0  0  0  0  0
   60.1559   36.0400   46.3933 H   0  0  0  0  0  0  0  0  0  0  0  0
   60.8015   33.0808   45.9581 H   0  0  0  0  0  0  0  0  0  0  0  0
   61.7988   34.4961   45.5159 H   0  0  0  0  0  0  0  0  0  0  0  0
   63.4104   34.0037   46.6534 H   0  0  0  0  0  0  0  0  0  0  0  0
   64.5518   34.1911   48.9935 H   0  0  0  0  0  0  0  0  0  0  0  0
   63.1621   33.8087   49.8223 H   0  0  0  0  0  0  0  0  0  0  0  0
   65.1305   31.9110   48.3539 H   0  0  0  0  0  0  0  0  0  0  0  0
   64.0735   31.3292   49.5147 H   0  0  0  0  0  0  0  0  0  0  0  0
   63.4473   31.4905   46.6377 H   0  0  0  0  0  0  0  0  0  0  0  0
   62.1527   31.3490   47.6749 H   0  0  0  0  0  0  0  0  0  0  0  0
   60.3322   32.5626   48.1690 H   0  0  0  0  0  0  0  0  0  0  0  0
   61.2537   33.2448   49.5034 H   0  0  0  0  0  0  0  0  0  0  0  0
   58.9780   34.2249   49.5323 H   0  0  0  0  0  0  0  0  0  0  0  0
   60.1289   35.5071   49.0150 H   0  0  0  0  0  0  0  0  0  0  0  0
   57.2530   33.3716   44.5566 H   0  0  0  0  0  0  0  0  0  0  0  0
   56.9598   31.2022   43.4027 H   0  0  0  0  0  0  0  0  0  0  0  0
   54.2702   24.1775   45.8500 H   0  0  0  0  0  0  0  0  0  0  0  0
   54.2356   24.2503   44.0627 H   0  0  0  0  0  0  0  0  0  0  0  0
   55.6432   22.1518   45.7852 H   0  0  0  0  0  0  0  0  0  0  0  0
   54.1499   21.9234   44.7927 H   0  0  0  0  0  0  0  0  0  0  0  0
   57.6335   22.3053   44.8387 H   0  0  0  0  0  0  0  0  0  0  0  0
   57.8028   22.4052   43.0366 H   0  0  0  0  0  0  0  0  0  0  0  0
   58.1273   24.6004   44.2989 H   0  0  0  0  0  0  0  0  0  0  0  0
   56.9014   24.6191   42.9808 H   0  0  0  0  0  0  0  0  0  0  0  0
  1  2  2  0
  2  3  1  0
  3  4  2  0
  4  5  1  0
  5  6  2  0
  6  7  1  0
  7  8  2  0
  8  9  1  0
  9 10  1  0
 10 11  1  0
 11 12  2  0
 12 13  1  0
 13 14  2  0
 14 15  1  0
 15 16  2  0
 15 17  1  0
 17 18  1  0
 18 19  1  0
 19 20  1  0
 20 21  1  0
 21 22  1  0
 22 23  1  0
 23 24  1  0
 20 25  1  0
 25 26  1  0
 14 27  1  0
 27 28  2  0
  2 29  1  0
 29 30  1  0
 30 31  1  0
 31 32  1  0
 32 33  1  0
 33 34  1  0
  8  3  1  0
 28 11  1  0
 34 29  1  0
 26 17  1  0
 24 21  1  0
  4 35  1  0
  5 36  1  0
  6 37  1  0
  7 38  1  0
  9 39  1  0
  9 40  1  0
 12 41  1  0
 13 42  1  0
 17 43  1  0
 18 44  1  0
 18 45  1  0
 19 46  1  0
 19 47  1  0
 21 48  1  0
 22 49  1  0
 22 50  1  0
 23 51  1  0
 23 52  1  0
 24 53  1  0
 24 54  1  0
 25 55  1  0
 25 56  1  0
 26 57  1  0
 26 58  1  0
 27 59  1  0
 28 60  1  0
 30 61  1  0
 30 62  1  0
 31 63  1  0
 31 64  1  0
 33 65  1  0
 33 66  1  0
 34 67  1  0
 34 68  1  0
M  CHG  1  17   1
M  END
>  <UniqueID>  (25) 
25

>  <SMILES>  (25) 
O=C(c1ccccc1COc1ccc(C(=O)[NH+]2CCN(C3CCC3)CC2)cc1)N1CCOCC1

>  <Energy>  (25) 
207.01887898354641

>  <Genealogy>  (25) 
O=C(c1ccccc1COc1ccc(C(=O)[NH+]2CCN(C3CCC3)CC2)cc1)N1CCOCC1 (protonated)
O=C(c1ccccc1COc1ccc(C(=O)[NH+]2CCN(C3CCC3)CC2)cc1)N1CCOCC1 (3D coordinates assigned)
O=C(c1ccccc1COc1ccc(C(=O)[NH+]2CCN(C3CCC3)CC2)cc1)N1CCOCC1 (nonaromatic ring conformer: 207.01887898354641 kcal/mol)

>  <smiles>  (25) 
O=C(c1ccc(OCc2ccccc2C(=O)N2CCOCC2)cc1)N1CCN(C2CCC2)CC1

>  <score_type>  (25) 
oracle

>  <origin>  (25) 
adg

>  <m_score__min__energy>  (25) 
-9.0500000000000007

>  <m_primary>  (25) 
energy

$$$$
25:0
     RDKit          3D

 54 56  0  0  0  0  0  0  0  0999 V2000
   60.8490   30.6810   46.6820 O   0  0  0  0  0  0  0  0  0  0  0  0
   59.8330   30.8020   47.4160 C   0  0  0  0  0  0  0  0  0  0  0  0
   59.6480   32.0800   48.2000 C   0  0  0  0  0  0  0  0  0  0  0  0
   60.1700   33.3270   47.4580 C   0  0  0  0  0  0  0  0  0  0  0  0
   60.0060   33.2110   46.0030 N   0  0  0  0  0  0  0  0  0  0  0  0
   58.3940   33.6210   45.4820 S   0  0  0  0  0  0  0  0  0  0  0  0
   57.5070   33.7570   46.6870 O   0  0  0  0  0  0  0  0  0  0  0  0
   58.4350   34.9480   44.7780 O   0  0  0  0  0  0  0  0  0  0  0  0
   57.7310   32.4260   44.3660 C   0  0  0  0  0  0  0  0  0  0  0  0
   57.9110   32.5600   42.9810 C   0  0  0  0  0  0  0  0  0  0  0  0
   57.3830   31.6030   42.1090 C   0  0  0  0  0  0  0  0  0  0  0  0
   56.6760   30.5080   42.6140 C   0  0  0  0  0  0  0  0  0  0  0  0
   56.4940   30.3700   43.9930 C   0  0  0  0  0  0  0  0  0  0  0  0
   57.0240   31.3240   44.8680 C   0  0  0  0  0  0  0  0  0  0  0  0
   58.9140   29.7030   47.5020 N   0  0  0  0  0  0  0  0  0  0  0  0
   58.6160   28.7630   46.4640 C   0  0  0  0  0  0  0  0  0  0  0  0
   59.2750   28.8740   45.2340 C   0  0  0  0  0  0  0  0  0  0  0  0
   59.0050   27.9700   44.2050 C   0  0  0  0  0  0  0  0  0  0  0  0
   58.0530   26.9640   44.3890 C   0  0  0  0  0  0  0  0  0  0  0  0
   57.3440   26.8770   45.5940 C   0  0  0  0  0  0  0  0  0  0  0  0
   56.1410   25.6100   45.8310 S   0  0  0  0  0  0  0  0  0  0  0  0
   56.4520   24.8790   47.1080 O   0  0  0  0  0  0  0  0  0  0  0  0
   54.7940   26.2560   45.9970 O   0  0  0  0  0  0  0  0  0  0  0  0
   56.0550   24.4620   44.5110 N   0  0  0  0  0  0  0  0  0  0  0  0
   55.0160   23.4240   44.6700 C   0  0  0  0  0  0  0  0  0  0  0  0
   55.5050   22.1890   45.4360 C   0  0  0  0  0  0  0  0  0  0  0  0
   56.7840   21.6410   44.8170 C   0  0  0  0  0  0  0  0  0  0  0  0
   57.8580   22.7230   44.7970 C   0  0  0  0  0  0  0  0  0  0  0  0
   57.3690   23.9710   44.0480 C   0  0  0  0  0  0  0  0  0  0  0  0
   57.6340   27.7740   46.6330 C   0  0  0  0  0  0  0  0  0  0  0  0
   58.5749   32.2155   48.4000 H   0  0  0  0  0  0  0  0  0  0  0  0
   60.2313   31.9826   49.1275 H   0  0  0  0  0  0  0  0  0  0  0  0
   59.6128   34.2081   47.8090 H   0  0  0  0  0  0  0  0  0  0  0  0
   61.2446   33.4243   47.6719 H   0  0  0  0  0  0  0  0  0  0  0  0
   60.1520   32.2060   45.7490 H   0  0  0  0  0  0  0  0  0  0  0  0
   58.4685   33.4195   42.5804 H   0  0  0  0  0  0  0  0  0  0  0  0
   57.5242   31.7120   41.0236 H   0  0  0  0  0  0  0  0  0  0  0  0
   56.2630   29.7552   41.9265 H   0  0  0  0  0  0  0  0  0  0  0  0
   55.9337   29.5108   44.3903 H   0  0  0  0  0  0  0  0  0  0  0  0
   56.8857   31.2094   45.9532 H   0  0  0  0  0  0  0  0  0  0  0  0
   60.0095   29.6778   45.0774 H   0  0  0  0  0  0  0  0  0  0  0  0
   59.5423   28.0498   43.2485 H   0  0  0  0  0  0  0  0  0  0  0  0
   57.8597   26.2382   43.5853 H   0  0  0  0  0  0  0  0  0  0  0  0
   54.1671   23.8605   45.2167 H   0  0  0  0  0  0  0  0  0  0  0  0
   54.7317   23.0903   43.6611 H   0  0  0  0  0  0  0  0  0  0  0  0
   55.7009   22.4674   46.4820 H   0  0  0  0  0  0  0  0  0  0  0  0
   54.7278   21.4122   45.3861 H   0  0  0  0  0  0  0  0  0  0  0  0
   57.1391   20.7860   45.4111 H   0  0  0  0  0  0  0  0  0  0  0  0
   56.5770   21.3182   43.7860 H   0  0  0  0  0  0  0  0  0  0  0  0
   58.1088   22.9998   45.8316 H   0  0  0  0  0  0  0  0  0  0  0  0
   58.7436   22.3277   44.2779 H   0  0  0  0  0  0  0  0  0  0  0  0
   58.1089   24.7728   44.1882 H   0  0  0  0  0  0  0  0  0  0  0  0
   57.2534   23.6882   42.9913 H   0  0  0  0  0  0  0  0  0  0  0  0
   57.0888   27.7020   47.5856 H   0  0  0  0  0  0  0  0  0  0  0  0
  1  2  2  0
  2  3  1  0
  3  4  1  0
  4  5  1  0
  5  6  1  0
  6  7  2  0
  6  8  2  0
  6  9  1  0
  9 10  2  0
 10 11  1  0
 11 12  2  0
 12 13  1  0
 13 14  2  0
  2 15  1  0
 15 16  1  0
 16 17  2  0
 17 18  1  0
 18 19  2  0
 19 20  1  0
 20 21  1  0
 21 22  2  0
 21 23  2  0
 21 24  1  0
 24 25  1  0
 25 26  1  0
 26 27  1  0
 27 28  1  0
 28 29  1  0
 20 30  2  0
 14  9  1  0
 30 16  1  0
 29 24  1  0
  3 31  1  0
  3 32  1  0
  4 33  1  0
  4 34  1  0
  5 35  1  0
 10 36  1  0
 11 37  1  0
 12 38  1  0
 13 39  1  0
 14 40  1  0
 17 41  1  0
 18 42  1  0
 19 43  1  0
 25 44  1  0
 25 45  1  0
 26 46  1  0
 26 47  1  0
 27 48  1  0
 27 49  1  0
 28 50  1  0
 28 51  1  0
 29 52  1  0
 29 53  1  0
 30 54  1  0
M  CHG  1  15  -1
M  END
>  <UniqueID>  (26) 
26

>  <SMILES>  (26) 
O=C(CCNS(=O)(=O)c1ccccc1)[N-]c1cccc(S(=O)(=O)N2CCCCC2)c1

>  <Energy>  (26) 
57.89405567189061

>  <Genealogy>  (26) 
O=C(CCNS(=O)(=O)c1ccccc1)[N-]c1cccc(S(=O)(=O)N2CCCCC2)c1 (protonated)
O=C(CCNS(=O)(=O)c1ccccc1)[N-]c1cccc(S(=O)(=O)N2CCCCC2)c1 (3D coordinates assigned)
O=C(CCNS(=O)(=O)c1ccccc1)[N-]c1cccc(S(=O)(=O)N2CCCCC2)c1 (nonaromatic ring conformer: 57.89405567189061 kcal/mol)

>  <smiles>  (26) 
O=C(CCNS(=O)(=O)c1ccccc1)Nc1cccc(S(=O)(=O)N2CCCCC2)c1

>  <score_type>  (26) 
oracle

>  <origin>  (26) 
adg

>  <m_score__min__energy>  (26) 
-11.94

>  <m_primary>  (26) 
energy

$$$$
26:0
     RDKit          3D

 70 74  0  0  0  0  0  0  0  0999 V2000
   59.0910   29.0290   47.4920 C   0  0  0  0  0  0  0  0  0  0  0  0
   58.6960   29.8960   46.5460 C   0  0  0  0  0  0  0  0  0  0  0  0
   57.5290   29.8050   45.7660 C   0  0  0  0  0  0  0  0  0  0  0  0
   56.6520   28.7930   45.5980 C   0  0  0  0  0  0  0  0  0  0  0  0
   57.0030   27.3670   45.5670 C   0  0  0  0  0  0  0  0  0  0  0  0
   58.2620   26.9050   45.4190 N   0  0  0  0  0  0  0  0  0  0  0  0
   58.1150   25.5610   45.4740 C   0  0  0  0  0  0  0  0  0  0  0  0
   59.0780   24.7620   45.3320 O   0  0  0  0  0  0  0  0  0  0  0  0
   56.8430   25.1610   45.6850 N   0  0  0  0  0  0  0  0  0  0  0  0
   56.3070   23.8000   45.6250 C   0  0  0  0  0  0  0  0  0  0  0  0
   56.2440   23.2280   47.0090 C   0  0  0  0  0  0  0  0  0  0  0  0
   57.1560   22.4500   47.4020 O   0  0  0  0  0  0  0  0  0  0  0  0
   55.1450   23.5620   47.8710 N   0  0  0  0  0  0  0  0  0  0  0  0
   54.7290   22.7770   49.0010 C   0  0  0  0  0  0  0  0  0  0  0  0
   53.3700   22.6340   49.3440 C   0  0  0  0  0  0  0  0  0  0  0  0
   53.0000   21.8730   50.4590 C   0  0  0  0  0  0  0  0  0  0  0  0
   53.9780   21.2660   51.2500 C   0  0  0  0  0  0  0  0  0  0  0  0
   53.6150   20.5210   52.3260 F   0  0  0  0  0  0  0  0  0  0  0  0
   55.3300   21.4280   50.9350 C   0  0  0  0  0  0  0  0  0  0  0  0
   55.7050   22.1880   49.8230 C   0  0  0  0  0  0  0  0  0  0  0  0
   56.1460   26.3050   45.7540 C   0  0  0  0  0  0  0  0  0  0  0  0
   54.7760   26.3840   45.9830 O   0  0  0  0  0  0  0  0  0  0  0  0
   57.4190   31.0050   45.0890 C   0  0  0  0  0  0  0  0  0  0  0  0
   58.5380   31.7460   45.4040 C   0  0  0  0  0  0  0  0  0  0  0  0
   58.8000   33.1240   44.8730 C   0  0  0  0  0  0  0  0  0  0  0  0
   59.3210   31.0800   46.2880 N   0  0  0  0  0  0  0  0  0  0  0  0
   60.5480   31.6120   46.9080 C   0  0  0  0  0  0  0  0  0  0  0  0
   60.2670   32.1030   48.3050 C   0  0  0  0  0  0  0  0  0  0  0  0
   60.2270   31.2030   49.3820 C   0  0  0  0  0  0  0  0  0  0  0  0
   59.8780   31.6480   50.6600 C   0  0  0  0  0  0  0  0  0  0  0  0
   59.5630   32.9970   50.8770 C   0  0  0  0  0  0  0  0  0  0  0  0
   59.0330   33.5360   52.4720 S   0  0  0  0  0  0  0  0  0  0  0  0
   58.5130   34.9430   52.3730 O   0  0  0  0  0  0  0  0  0  0  0  0
   60.2060   33.5380   53.4100 O   0  0  0  0  0  0  0  0  0  0  0  0
   57.7850   32.4970   53.1160 N   0  0  0  0  0  0  0  0  0  0  0  0
   56.9170   31.9940   52.0350 C   0  0  0  0  0  0  0  0  0  0  0  0
   56.0080   30.8570   52.5470 C   0  0  0  0  0  0  0  0  0  0  0  0
   55.9800   30.8330   53.9600 O   0  0  0  0  0  0  0  0  0  0  0  0
   57.2640   30.5000   54.4630 C   0  0  0  0  0  0  0  0  0  0  0  0
   58.3810   31.3740   53.8540 C   0  0  0  0  0  0  0  0  0  0  0  0
   59.6380   33.9040   49.8120 C   0  0  0  0  0  0  0  0  0  0  0  0
   59.9890   33.4610   48.5350 C   0  0  0  0  0  0  0  0  0  0  0  0
   60.0280   29.2034   48.0412 H   0  0  0  0  0  0  0  0  0  0  0  0
   58.4777   28.1442   47.7178 H   0  0  0  0  0  0  0  0  0  0  0  0
   55.5912   29.0567   45.4746 H   0  0  0  0  0  0  0  0  0  0  0  0
   55.2965   23.8224   45.1909 H   0  0  0  0  0  0  0  0  0  0  0  0
   56.9606   23.1751   44.9987 H   0  0  0  0  0  0  0  0  0  0  0  0
   54.6260   24.4490   47.6750 H   0  0  0  0  0  0  0  0  0  0  0  0
   52.5966   23.1224   48.7331 H   0  0  0  0  0  0  0  0  0  0  0  0
   51.9365   21.7527   50.7128 H   0  0  0  0  0  0  0  0  0  0  0  0
   56.1004   20.9567   51.5630 H   0  0  0  0  0  0  0  0  0  0  0  0
   56.7711   22.3259   49.5899 H   0  0  0  0  0  0  0  0  0  0  0  0
   56.5962   31.3103   44.4259 H   0  0  0  0  0  0  0  0  0  0  0  0
   58.9326   33.8216   45.7131 H   0  0  0  0  0  0  0  0  0  0  0  0
   59.7121   33.1128   44.2582 H   0  0  0  0  0  0  0  0  0  0  0  0
   57.9474   33.4483   44.2582 H   0  0  0  0  0  0  0  0  0  0  0  0
   61.3060   30.8160   46.9503 H   0  0  0  0  0  0  0  0  0  0  0  0
   60.9142   32.4546   46.3031 H   0  0  0  0  0  0  0  0  0  0  0  0
   60.4715   30.1429   49.2191 H   0  0  0  0  0  0  0  0  0  0  0  0
   59.8503   30.9372   51.4990 H   0  0  0  0  0  0  0  0  0  0  0  0
   56.2897   32.8176   51.6633 H   0  0  0  0  0  0  0  0  0  0  0  0
   57.5516   31.6015   51.2268 H   0  0  0  0  0  0  0  0  0  0  0  0
   54.9870   31.0138   52.1689 H   0  0  0  0  0  0  0  0  0  0  0  0
   56.4073   29.8976   52.1864 H   0  0  0  0  0  0  0  0  0  0  0  0
   57.2625   30.6388   55.5542 H   0  0  0  0  0  0  0  0  0  0  0  0
   57.4700   29.4547   54.1892 H   0  0  0  0  0  0  0  0  0  0  0  0
   59.0202   31.7642   54.6597 H   0  0  0  0  0  0  0  0  0  0  0  0
   58.9850   30.7652   53.1651 H   0  0  0  0  0  0  0  0  0  0  0  0
   59.4197   34.9686   49.9822 H   0  0  0  0  0  0  0  0  0  0  0  0
   60.0482   34.1795   47.7042 H   0  0  0  0  0  0  0  0  0  0  0  0
  1  2  2  0
  2  3  1  0
  3  4  2  3
  4  5  1  0
  5  6  1  0
  6  7  1  0
  7  8  2  0
  7  9  1  0
  9 10  1  0
 10 11  1  0
 11 12  2  0
 11 13  1  0
 13 14  1  0
 14 15  2  0
 15 16  1  0
 16 17  2  0
 17 18  1  0
 17 19  1  0
 19 20  2  0
  9 21  1  0
 21 22  1  0
  3 23  1  0
 23 24  2  0
 24 25  1  0
 24 26  1  0
 26 27  1  0
 27 28  1  0
 28 29  2  0
 29 30  1  0
 30 31  2  0
 31 32  1  0
 32 33  2  0
 32 34  2  0
 32 35  1  0
 35 36  1  0
 36 37  1  0
 37 38  1  0
 38 39  1  0
 39 40  1  0
 31 41  1  0
 41 42  2  0
 26  2  1  0
 42 28  1  0
 21  5  2  0
 40 35  1  0
 20 14  1  0
  1 43  1  0
  1 44  1  0
  4 45  1  0
 10 46  1  0
 10 47  1  0
 13 48  1  0
 15 49  1  0
 16 50  1  0
 19 51  1  0
 20 52  1  0
 23 53  1  0
 25 54  1  0
 25 55  1  0
 25 56  1  0
 27 57  1  0
 27 58  1  0
 29 59  1  0
 30 60  1  0
 36 61  1  0
 36 62  1  0
 37 63  1  0
 37 64  1  0
 39 65  1  0
 39 66  1  0
 40 67  1  0
 40 68  1  0
 41 69  1  0
 42 70  1  0
M  CHG  2   6  -1  22  -1
M  END
>  <UniqueID>  (27) 
27

>  <SMILES>  (27) 
C=c1c(=Cc2[n-]c(=O)n(CC(=O)Nc3ccc(F)cc3)c2[O-])cc(C)n1Cc1ccc(S(=O)(=O)N2CCOCC2)cc1

>  <Energy>  (27) 
153.54087847078006

>  <Genealogy>  (27) 
C=c1c(=Cc2[n-]c(=O)n(CC(=O)Nc3ccc(F)cc3)c2[O-])cc(C)n1Cc1ccc(S(=O)(=O)N2CCOCC2)cc1 (protonated)
C=c1c(=Cc2[n-]c(=O)n(CC(=O)Nc3ccc(F)cc3)c2[O-])cc(C)n1Cc1ccc(S(=O)(=O)N2CCOCC2)cc1 (3D coordinates assigned)
C=c1c(=Cc2[n-]c(=O)n(CC(=O)Nc3ccc(F)cc3)c2[O-])cc(C)n1Cc1ccc(S(=O)(=O)N2CCOCC2)cc1 (nonaromatic ring conformer: 153.54087847078006 kcal/mol)

>  <smiles>  (27) 
C=c1c(=Cc2[nH]c(=O)n(CC(=O)Nc3ccc(F)cc3)c2O)cc(C)n1Cc1ccc(S(=O)(=O)N2CCOCC2)cc1

>  <score_type>  (27) 
oracle

>  <origin>  (27) 
adg

>  <m_score__min__energy>  (27) 
-13.65

>  <m_primary>  (27) 
energy

$$$$
27:0
     RDKit          3D

 37 39  0  0  0  0  0  0  0  0999 V2000
   59.3640   29.6410   45.1150 H   0  0  0  0  0  0  0  0  0  0  0  0
   58.3680   29.4810   45.2040 O   0  0  0  0  0  0  0  0  0  0  0  0
   57.8620   28.3060   45.7600 C   0  0  0  0  0  0  0  0  0  0  0  0
   56.5430   27.9140   45.4870 C   0  0  0  0  0  0  0  0  0  0  0  0
   55.8988   28.5542   44.8664 H   0  0  0  0  0  0  0  0  0  0  0  0
   56.0440   26.7140   46.0000 C   0  0  0  0  0  0  0  0  0  0  0  0
   54.7370   26.3300   45.7240 O   0  0  0  0  0  0  0  0  0  0  0  0
   56.8620   25.8960   46.7850 C   0  0  0  0  0  0  0  0  0  0  0  0
   56.4714   24.9471   47.1813 H   0  0  0  0  0  0  0  0  0  0  0  0
   58.1750   26.2820   47.0670 C   0  0  0  0  0  0  0  0  0  0  0  0
   58.8186   25.6286   47.6743 H   0  0  0  0  0  0  0  0  0  0  0  0
   58.6770   27.4980   46.5800 C   0  0  0  0  0  0  0  0  0  0  0  0
   60.0730   27.8670   46.8880 C   0  0  0  0  0  0  0  0  0  0  0  0
   60.8801   27.2391   46.4827 H   0  0  0  0  0  0  0  0  0  0  0  0
   60.4080   28.9290   47.6370 C   0  0  0  0  0  0  0  0  0  0  0  0
   60.7240   28.9320   49.2930 S   0  0  0  0  0  0  0  0  0  0  0  0
   61.0860   30.5730   49.3490 C   0  0  0  0  0  0  0  0  0  0  0  0
   61.4330   31.2060   50.4720 C   0  0  0  0  0  0  0  0  0  0  0  0
   61.6592   32.2822   50.4493 H   0  0  0  0  0  0  0  0  0  0  0  0
   61.4927   30.6513   51.4200 H   0  0  0  0  0  0  0  0  0  0  0  0
   60.9780   31.1450   48.1150 N   0  0  0  0  0  0  0  0  0  0  0  0
   61.2640   32.5560   47.8060 C   0  0  0  0  0  0  0  0  0  0  0  0
   61.4157   33.1080   48.7453 H   0  0  0  0  0  0  0  0  0  0  0  0
   62.1700   32.6056   47.1841 H   0  0  0  0  0  0  0  0  0  0  0  0
   60.1190   33.1770   47.0460 C   0  0  0  0  0  0  0  0  0  0  0  0
   58.7920   32.8740   47.3950 C   0  0  0  0  0  0  0  0  0  0  0  0
   58.5891   32.1805   48.2244 H   0  0  0  0  0  0  0  0  0  0  0  0
   57.7290   33.4490   46.6940 C   0  0  0  0  0  0  0  0  0  0  0  0
   56.6928   33.2034   46.9695 H   0  0  0  0  0  0  0  0  0  0  0  0
   57.9800   34.3360   45.6430 C   0  0  0  0  0  0  0  0  0  0  0  0
   57.1421   34.7862   45.0906 H   0  0  0  0  0  0  0  0  0  0  0  0
   59.2960   34.6500   45.2950 C   0  0  0  0  0  0  0  0  0  0  0  0
   59.4936   35.3491   44.4690 H   0  0  0  0  0  0  0  0  0  0  0  0
   60.3630   34.0770   45.9950 C   0  0  0  0  0  0  0  0  0  0  0  0
   61.3975   34.3321   45.7215 H   0  0  0  0  0  0  0  0  0  0  0  0
   60.6080   30.2280   47.1660 C   0  0  0  0  0  0  0  0  0  0  0  0
   60.4620   30.5400   45.9510 O   0  0  0  0  0  0  0  0  0  0  0  0
  1  2  1  0
  2  3  1  0
  3  4  2  0
  4  5  1  0
  4  6  1  0
  6  7  1  0
  6  8  2  0
  8  9  1  0
  8 10  1  0
 10 11  1  0
 10 12  2  0
 12 13  1  0
 13 14  1  0
 13 15  2  0
 15 16  1  0
 16 17  1  0
 17 18  2  0
 18 19  1  0
 18 20  1  0
 17 21  1  0
 21 22  1  0
 22 23  1  0
 22 24  1  0
 22 25  1  0
 25 26  2  0
 26 27  1  0
 26 28  1  0
 28 29  1  0
 28 30  2  0
 30 31  1  0
 30 32  1  0
 32 33  1  0
 32 34  2  0
 34 35  1  0
 21 36  1  0
 36 37  2  0
 12  3  1  0
 36 15  1  0
 34 25  1  0
M  CHG  1   7  -1
M  END
>  <UniqueID>  (28) 
28

>  <SMILES>  (28) 
C=c1s/c(=C\c2ccc([O-])cc2O)c(=O)n1Cc1ccccc1

>  <Energy>  (28) 
78.82692072361188

>  <Genealogy>  (28) 
C=c1sc(=Cc2ccc([O-])cc2O)c(=O)n1Cc1ccccc1 (protonated)
C=c1s/c(=C\c2ccc([O-])cc2O)c(=O)n1Cc1ccccc1 (cis-trans isomerization)
C=c1s/c(=C\c2ccc([O-])cc2O)c(=O)n1Cc1ccccc1 (3D coordinates assigned)
C=c1s/c(=C\c2ccc([O-])cc2O)c(=O)n1Cc1ccccc1 (optimized conformer: 78.82692072361188 kcal/mol)

>  <smiles>  (28) 
C=c1sc(=Cc2ccc(O)cc2O)c(=O)n1Cc1ccccc1

>  <score_type>  (28) 
oracle

>  <origin>  (28) 
adg

>  <m_score__min__energy>  (28) 
-10.85

>  <m_primary>  (28) 
energy

$$$$
28:0
     RDKit          3D

 53 55  0  0  0  0  0  0  0  0999 V2000
   59.0556   35.2997   49.2107 H   0  0  0  0  0  0  0  0  0  0  0  0
   59.4280   34.2650   49.2360 C   0  0  0  0  0  0  0  0  0  0  0  0
   59.2970   33.5190   50.5040 C   0  0  0  0  0  0  0  0  0  0  0  0
   59.8640   33.9820   51.5300 O   0  0  0  0  0  0  0  0  0  0  0  0
   58.5870   32.2680   50.5870 N   0  0  0  0  0  0  0  0  0  0  0  0
   57.8820   31.9240   51.8240 C   0  0  0  0  0  0  0  0  0  0  0  0
   58.6002   31.8966   52.6567 H   0  0  0  0  0  0  0  0  0  0  0  0
   57.1096   32.6819   52.0214 H   0  0  0  0  0  0  0  0  0  0  0  0
   57.2180   30.5580   51.6850 C   0  0  0  0  0  0  0  0  0  0  0  0
   56.8199   30.2410   52.6602 H   0  0  0  0  0  0  0  0  0  0  0  0
   56.3933   30.6189   50.9596 H   0  0  0  0  0  0  0  0  0  0  0  0
   58.1750   29.6230   51.2390 O   0  0  0  0  0  0  0  0  0  0  0  0
   58.5710   29.8730   49.8920 C   0  0  0  0  0  0  0  0  0  0  0  0
   59.6064   29.5209   49.7733 H   0  0  0  0  0  0  0  0  0  0  0  0
   57.8434   29.3403   49.2620 H   0  0  0  0  0  0  0  0  0  0  0  0
   58.5170   31.3540   49.4390 C   0  0  0  0  0  0  0  0  0  0  0  0
   59.3662   31.5547   48.7693 H   0  0  0  0  0  0  0  0  0  0  0  0
   57.5622   31.5228   48.9195 H   0  0  0  0  0  0  0  0  0  0  0  0
   59.9730   33.7660   48.1050 C   0  0  0  0  0  0  0  0  0  0  0  0
   61.4380   33.5450   47.9620 C   0  0  0  0  0  0  0  0  0  0  0  0
   62.2000   33.0280   49.0250 C   0  0  0  0  0  0  0  0  0  0  0  0
   61.7128   32.7885   49.9817 H   0  0  0  0  0  0  0  0  0  0  0  0
   63.5730   32.8170   48.8720 C   0  0  0  0  0  0  0  0  0  0  0  0
   64.1659   32.4270   49.7125 H   0  0  0  0  0  0  0  0  0  0  0  0
   64.1940   33.1010   47.6520 C   0  0  0  0  0  0  0  0  0  0  0  0
   65.2757   32.9391   47.5350 H   0  0  0  0  0  0  0  0  0  0  0  0
   63.4420   33.5900   46.5820 C   0  0  0  0  0  0  0  0  0  0  0  0
   63.9309   33.8093   45.6213 H   0  0  0  0  0  0  0  0  0  0  0  0
   62.0680   33.8010   46.7310 C   0  0  0  0  0  0  0  0  0  0  0  0
   61.4761   34.1695   45.8802 H   0  0  0  0  0  0  0  0  0  0  0  0
   59.0850   33.3700   46.9770 C   0  0  0  0  0  0  0  0  0  0  0  0
   58.0330   34.2130   46.5740 C   0  0  0  0  0  0  0  0  0  0  0  0
   57.8810   35.1770   47.0816 H   0  0  0  0  0  0  0  0  0  0  0  0
   57.1800   33.8350   45.5340 C   0  0  0  0  0  0  0  0  0  0  0  0
   56.3571   34.4990   45.2309 H   0  0  0  0  0  0  0  0  0  0  0  0
   57.3690   32.6180   44.8790 C   0  0  0  0  0  0  0  0  0  0  0  0
   56.6977   32.3286   44.0571 H   0  0  0  0  0  0  0  0  0  0  0  0
   58.4120   31.7610   45.2640 C   0  0  0  0  0  0  0  0  0  0  0  0
   58.6280   30.4500   44.5570 C   0  0  0  0  0  0  0  0  0  0  0  0
   59.6064   30.0386   44.8461 H   0  0  0  0  0  0  0  0  0  0  0  0
   58.5969   30.6198   43.4706 H   0  0  0  0  0  0  0  0  0  0  0  0
   57.5730   29.4940   44.9220 N   0  0  0  0  0  0  0  0  0  0  0  0
   56.3600   29.4330   44.1360 C   0  0  0  0  0  0  0  0  0  0  0  0
   55.2420   29.4060   44.7090 O   0  0  0  0  0  0  0  0  0  0  0  0
   56.4020   29.4170   42.7040 N   0  0  0  0  0  0  0  0  0  0  0  0
   57.3030   29.3970   42.1690 H   0  0  0  0  0  0  0  0  0  0  0  0
   55.5110   29.4200   42.1630 H   0  0  0  0  0  0  0  0  0  0  0  0
   57.7900   28.5640   46.0360 C   0  0  0  0  0  0  0  0  0  0  0  0
   57.6653   29.0984   46.9894 H   0  0  0  0  0  0  0  0  0  0  0  0
   57.0590   27.7441   45.9769 H   0  0  0  0  0  0  0  0  0  0  0  0
   58.8083   28.1523   45.9769 H   0  0  0  0  0  0  0  0  0  0  0  0
   59.2650   32.1420   46.3120 C   0  0  0  0  0  0  0  0  0  0  0  0
   60.0835   31.4734   46.6171 H   0  0  0  0  0  0  0  0  0  0  0  0
  1  2  1  0
  2  3  1  0
  3  4  2  0
  3  5  1  0
  5  6  1  0
  6  7  1  0
  6  8  1  0
  6  9  1  0
  9 10  1  0
  9 11  1  0
  9 12  1  0
 12 13  1  0
 13 14  1  0
 13 15  1  0
 13 16  1  0
 16 17  1  0
 16 18  1  0
  2 19  2  0
 19 20  1  0
 20 21  2  0
 21 22  1  0
 21 23  1  0
 23 24  1  0
 23 25  2  0
 25 26  1  0
 25 27  1  0
 27 28  1  0
 27 29  2  0
 29 30  1  0
 19 31  1  0
 31 32  2  0
 32 33  1  0
 32 34  1  0
 34 35  1  0
 34 36  2  0
 36 37  1  0
 36 38  1  0
 38 39  1  0
 39 40  1  0
 39 41  1  0
 39 42  1  0
 42 43  1  0
 43 44  2  0
 43 45  1  0
 45 46  1  0
 45 47  1  0
 42 48  1  0
 48 49  1  0
 48 50  1  0
 48 51  1  0
 38 52  2  0
 52 53  1  0
 16  5  1  0
 29 20  1  0
 52 31  1  0
M  END
>  <UniqueID>  (29) 
29

>  <SMILES>  (29) 
CN(Cc1cccc(/C(=C/C(=O)N2CCOCC2)c2ccccc2)c1)C(N)=O

>  <Energy>  (29) 
71.45544176316147

>  <Genealogy>  (29) 
CN(Cc1cccc(/C(=C/C(=O)N2CCOCC2)c2ccccc2)c1)C(N)=O (cis-trans isomerization)
CN(Cc1cccc(/C(=C/C(=O)N2CCOCC2)c2ccccc2)c1)C(N)=O (3D coordinates assigned)
CN(Cc1cccc(/C(=C/C(=O)N2CCOCC2)c2ccccc2)c1)C(N)=O (nonaromatic ring conformer: 71.45544176316147 kcal/mol)

>  <smiles>  (29) 
CN(Cc1cccc(C(=CC(=O)N2CCOCC2)c2ccccc2)c1)C(N)=O

>  <score_type>  (29) 
oracle

>  <origin>  (29) 
adg

>  <m_score__min__energy>  (29) 
-9.7400000000000002

>  <m_primary>  (29) 
energy

$$$$
29:0
     RDKit          3D

 68 72  0  0  0  0  0  0  0  0999 V2000
   59.6030   29.6810   47.8560 C   0  0  0  0  0  0  0  0  0  0  0  0
   59.0530   30.1830   46.7390 C   0  0  0  0  0  0  0  0  0  0  0  0
   58.5730   29.4560   45.6400 C   0  0  0  0  0  0  0  0  0  0  0  0
   58.5660   28.1110   45.5040 C   0  0  0  0  0  0  0  0  0  0  0  0
   57.4300   27.2150   45.8290 C   0  0  0  0  0  0  0  0  0  0  0  0
   57.5320   26.0170   46.4390 N   0  0  0  0  0  0  0  0  0  0  0  0
   56.2530   25.6090   46.5640 C   0  0  0  0  0  0  0  0  0  0  0  0
   55.9420   24.5080   47.0870 O   0  0  0  0  0  0  0  0  0  0  0  0
   55.3370   26.4700   46.0760 N   0  0  0  0  0  0  0  0  0  0  0  0
   56.0900   27.4840   45.6180 C   0  0  0  0  0  0  0  0  0  0  0  0
   55.5480   28.6230   45.0230 O   0  0  0  0  0  0  0  0  0  0  0  0
   58.1330   30.4040   44.7190 C   0  0  0  0  0  0  0  0  0  0  0  0
   58.3870   31.6440   45.2720 C   0  0  0  0  0  0  0  0  0  0  0  0
   58.0320   32.9530   44.6360 C   0  0  0  0  0  0  0  0  0  0  0  0
   58.9310   31.5100   46.4980 N   0  0  0  0  0  0  0  0  0  0  0  0
   59.3110   32.5890   47.3650 C   0  0  0  0  0  0  0  0  0  0  0  0
   58.4460   33.1070   48.1210 O   0  0  0  0  0  0  0  0  0  0  0  0
   60.6710   33.0630   47.3860 N   0  0  0  0  0  0  0  0  0  0  0  0
   61.7800   32.1540   47.0710 C   0  0  0  0  0  0  0  0  0  0  0  0
   62.9170   32.2970   48.1010 C   0  0  0  0  0  0  0  0  0  0  0  0
   62.4320   32.9260   49.3370 N   0  0  0  0  0  0  0  0  0  0  0  0
   62.7500   32.3550   50.6120 C   0  0  0  0  0  0  0  0  0  0  0  0
   63.5460   32.9520   51.3820 O   0  0  0  0  0  0  0  0  0  0  0  0
   62.1560   31.0330   51.0190 C   0  0  1  0  0  0  0  0  0  0  0  0
   63.0860   30.2660   51.9480 C   0  0  0  0  0  0  0  0  0  0  0  0
   62.1480   29.4310   52.7910 C   0  0  0  0  0  0  0  0  0  0  0  0
   60.8360   30.2050   52.8120 C   0  0  0  0  0  0  0  0  0  0  0  0
   60.9050   31.2390   51.7640 N   0  0  0  0  0  0  0  0  0  0  0  0
   59.7060   31.3970   50.8990 C   0  0  0  0  0  0  0  0  0  0  0  0
   58.5880   30.3410   51.1340 C   0  0  0  0  0  0  0  0  0  0  0  0
   57.2690   30.9860   51.5610 C   0  0  0  0  0  0  0  0  0  0  0  0
   57.5080   31.9270   52.5820 O   0  0  0  0  0  0  0  0  0  0  0  0
   58.1220   33.0960   52.0630 C   0  0  0  0  0  0  0  0  0  0  0  0
   59.1750   32.8480   50.9520 C   0  0  0  0  0  0  0  0  0  0  0  0
   61.7040   34.2010   49.2880 C   0  0  0  0  0  0  0  0  0  0  0  0
   61.0070   34.3800   47.9350 C   0  0  0  0  0  0  0  0  0  0  0  0
   59.9438   30.3578   48.6534 H   0  0  0  0  0  0  0  0  0  0  0  0
   59.7129   28.5929   47.9739 H   0  0  0  0  0  0  0  0  0  0  0  0
   59.4826   27.6404   45.1188 H   0  0  0  0  0  0  0  0  0  0  0  0
   54.7020   28.5910   44.4660 H   0  0  0  0  0  0  0  0  0  0  0  0
   57.6723   30.2038   43.7404 H   0  0  0  0  0  0  0  0  0  0  0  0
   57.8299   33.6984   45.4193 H   0  0  0  0  0  0  0  0  0  0  0  0
   58.8696   33.2960   44.0108 H   0  0  0  0  0  0  0  0  0  0  0  0
   57.1359   32.8258   44.0108 H   0  0  0  0  0  0  0  0  0  0  0  0
   61.4110   31.1178   47.0833 H   0  0  0  0  0  0  0  0  0  0  0  0
   62.1727   32.4100   46.0759 H   0  0  0  0  0  0  0  0  0  0  0  0
   63.3156   31.2994   48.3375 H   0  0  0  0  0  0  0  0  0  0  0  0
   63.7031   32.9337   47.6690 H   0  0  0  0  0  0  0  0  0  0  0  0
   61.9860   30.4688   50.0902 H   0  0  0  0  0  0  0  0  0  0  0  0
   63.7719   29.6255   51.3741 H   0  0  0  0  0  0  0  0  0  0  0  0
   63.7242   30.9280   52.5517 H   0  0  0  0  0  0  0  0  0  0  0  0
   62.0034   28.4384   52.3395 H   0  0  0  0  0  0  0  0  0  0  0  0
   62.5434   29.2635   53.8037 H   0  0  0  0  0  0  0  0  0  0  0  0
   59.9964   29.5235   52.6103 H   0  0  0  0  0  0  0  0  0  0  0  0
   60.6789   30.6674   53.7977 H   0  0  0  0  0  0  0  0  0  0  0  0
   60.0478   31.1919   49.8738 H   0  0  0  0  0  0  0  0  0  0  0  0
   58.4244   29.7836   50.1999 H   0  0  0  0  0  0  0  0  0  0  0  0
   58.9169   29.6736   51.9442 H   0  0  0  0  0  0  0  0  0  0  0  0
   56.8131   31.4919   50.6972 H   0  0  0  0  0  0  0  0  0  0  0  0
   56.5879   30.2077   51.9357 H   0  0  0  0  0  0  0  0  0  0  0  0
   57.3327   33.7394   51.6470 H   0  0  0  0  0  0  0  0  0  0  0  0
   58.6646   33.5554   52.9023 H   0  0  0  0  0  0  0  0  0  0  0  0
   58.7148   33.0832   49.9810 H   0  0  0  0  0  0  0  0  0  0  0  0
   60.0361   33.4930   51.1811 H   0  0  0  0  0  0  0  0  0  0  0  0
   60.9484   34.2154   50.0873 H   0  0  0  0  0  0  0  0  0  0  0  0
   62.4230   35.0222   49.4248 H   0  0  0  0  0  0  0  0  0  0  0  0
   60.0869   34.9675   48.0704 H   0  0  0  0  0  0  0  0  0  0  0  0
   61.6778   34.9084   47.2416 H   0  0  0  0  0  0  0  0  0  0  0  0
  1  2  2  0
  2  3  1  0
  3  4  2  3
  4  5  1  0
  5  6  1  0
  6  7  1  0
  7  8  2  0
  7  9  1  0
  9 10  1  0
 10 11  1  0
  3 12  1  0
 12 13  2  0
 13 14  1  0
 13 15  1  0
 15 16  1  0
 16 17  2  0
 16 18  1  0
 18 19  1  0
 19 20  1  0
 20 21  1  0
 21 22  1  0
 22 23  2  0
 22 24  1  0
 24 25  1  0
 25 26  1  0
 26 27  1  0
 27 28  1  0
 28 29  1  0
 29 30  1  0
 30 31  1  0
 31 32  1  0
 32 33  1  0
 33 34  1  0
 21 35  1  0
 35 36  1  0
 15  2  1  0
 36 18  1  0
 10  5  2  0
 28 24  1  0
 34 29  1  0
  1 37  1  0
  1 38  1  0
  4 39  1  0
 11 40  1  0
 12 41  1  0
 14 42  1  0
 14 43  1  0
 14 44  1  0
 19 45  1  0
 19 46  1  0
 20 47  1  0
 20 48  1  0
 24 49  1  6
 25 50  1  0
 25 51  1  0
 26 52  1  0
 26 53  1  0
 27 54  1  0
 27 55  1  0
 29 56  1  0
 30 57  1  0
 30 58  1  0
 31 59  1  0
 31 60  1  0
 33 61  1  0
 33 62  1  0
 34 63  1  0
 34 64  1  0
 35 65  1  0
 35 66  1  0
 36 67  1  0
 36 68  1  0
M  CHG  2   6  -1   9  -1
M  END
>  <UniqueID>  (30) 
30

>  <SMILES>  (30) 
C=c1c(=Cc2[n-]c(=O)[n-]c2O)cc(C)n1C(=O)N1CCN(C(=O)[C@H]2CCCN2C2CCOCC2)CC1

>  <Energy>  (30) 
162.15624328567554

>  <Genealogy>  (30) 
C=c1c(=Cc2[n-]c(=O)[n-]c2O)cc(C)n1C(=O)N1CCN(C(=O)C2CCCN2C2CCOCC2)CC1 (protonated)
C=c1c(=Cc2[n-]c(=O)[n-]c2O)cc(C)n1C(=O)N1CCN(C(=O)[C@H]2CCCN2C2CCOCC2)CC1 (chirality)
C=c1c(=Cc2[n-]c(=O)[n-]c2O)cc(C)n1C(=O)N1CCN(C(=O)[C@H]2CCCN2C2CCOCC2)CC1 (3D coordinates assigned)
C=c1c(=Cc2[n-]c(=O)[n-]c2O)cc(C)n1C(=O)N1CCN(C(=O)[C@H]2CCCN2C2CCOCC2)CC1 (nonaromatic ring conformer: 162.15624328567554 kcal/mol)

>  <smiles>  (30) 
C=c1c(=Cc2[nH]c(=O)[nH]c2O)cc(C)n1C(=O)N1CCN(C(=O)C2CCCN2C2CCOCC2)CC1

>  <score_type>  (30) 
oracle

>  <origin>  (30) 
adg

>  <m_score__min__energy>  (30) 
-13.619999999999999

>  <m_primary>  (30) 
energy

$$$$
30:0
     RDKit          3D

 67 71  0  0  0  0  0  0  0  0999 V2000
   55.4650   28.8930   44.8590 N   0  0  0  0  0  0  0  0  0  0  0  0
   56.6430   30.1100   44.5100 S   0  0  0  0  0  0  0  0  0  0  0  0
   55.9600   31.4480   44.4780 O   0  0  0  0  0  0  0  0  0  0  0  0
   57.2660   29.8370   43.1710 O   0  0  0  0  0  0  0  0  0  0  0  0
   57.8940   30.0950   45.7500 C   0  0  0  0  0  0  0  0  0  0  0  0
   58.6120   28.9230   46.0240 C   0  0  0  0  0  0  0  0  0  0  0  0
   59.6080   28.9220   47.0060 C   0  0  0  0  0  0  0  0  0  0  0  0
   59.8910   30.0910   47.7300 C   0  0  0  0  0  0  0  0  0  0  0  0
   60.9860   30.0960   48.7720 C   0  0  0  0  0  0  0  0  0  0  0  0
   60.7580   29.0780   49.8300 N   0  0  0  0  0  0  0  0  0  0  0  0
   59.4990   29.3210   50.5630 C   0  0  0  0  0  0  0  0  0  0  0  0
   59.5780   30.5460   51.4940 C   0  0  0  0  0  0  0  0  0  0  0  0
   60.7660   30.5270   52.3690 N   0  0  0  0  0  0  0  0  0  0  0  0
   60.5670   30.0280   53.7480 C   0  0  0  0  0  0  0  0  0  0  0  0
   59.9350   28.6550   53.8210 C   0  0  0  0  0  0  0  0  0  0  0  0
   58.5570   28.5300   54.0660 C   0  0  0  0  0  0  0  0  0  0  0  0
   57.9610   27.2680   54.1350 C   0  0  0  0  0  0  0  0  0  0  0  0
   58.7360   26.1090   53.9920 C   0  0  0  0  0  0  0  0  0  0  0  0
   58.1020   24.7770   54.0480 C   0  0  0  0  0  0  0  0  0  0  0  0
   56.9490   24.6610   54.5490 O   0  0  0  0  0  0  0  0  0  0  0  0
   58.7740   23.6120   53.5410 N   0  0  0  0  0  0  0  0  0  0  0  0
   57.9830   22.6230   52.7890 C   0  0  0  0  0  0  0  0  0  0  0  0
   58.4750   22.4370   51.3460 C   0  0  0  0  0  0  0  0  0  0  0  0
   59.7700   21.6890   51.3000 C   0  0  0  0  0  0  0  0  0  0  0  0
   59.9810   20.6040   50.5320 N   0  0  0  0  0  0  0  0  0  0  0  0
   61.2640   20.2860   50.7920 C   0  0  0  0  0  0  0  0  0  0  0  0
   61.8440   19.3080   50.2510 O   0  0  0  0  0  0  0  0  0  0  0  0
   61.8790   21.1000   51.6750 N   0  0  0  0  0  0  0  0  0  0  0  0
   60.9280   21.9970   51.9910 C   0  0  0  0  0  0  0  0  0  0  0  0
   61.1580   23.1240   52.9650 C   0  0  0  0  0  0  0  0  0  0  0  0
   60.0990   23.2580   54.0730 C   0  0  0  0  0  0  0  0  0  0  0  0
   60.1140   26.2300   53.7610 C   0  0  0  0  0  0  0  0  0  0  0  0
   60.7140   27.4910   53.6920 C   0  0  0  0  0  0  0  0  0  0  0  0
   62.0530   27.5700   53.4880 F   0  0  0  0  0  0  0  0  0  0  0  0
   62.0320   30.1550   51.7100 C   0  0  0  0  0  0  0  0  0  0  0  0
   61.8830   28.9390   50.7800 C   0  0  0  0  0  0  0  0  0  0  0  0
   59.1630   31.2610   47.4580 C   0  0  0  0  0  0  0  0  0  0  0  0
   58.1690   31.2620   46.4760 C   0  0  0  0  0  0  0  0  0  0  0  0
   54.6490   29.3770   45.2980 H   0  0  0  0  0  0  0  0  0  0  0  0
   58.3916   28.0014   45.4653 H   0  0  0  0  0  0  0  0  0  0  0  0
   60.1724   28.0006   47.2120 H   0  0  0  0  0  0  0  0  0  0  0  0
   61.9460   29.8849   48.2782 H   0  0  0  0  0  0  0  0  0  0  0  0
   60.9918   31.0861   49.2513 H   0  0  0  0  0  0  0  0  0  0  0  0
   60.6440   28.1510   49.3520 H   0  0  0  0  0  0  0  0  0  0  0  0
   58.6931   29.4858   49.8327 H   0  0  0  0  0  0  0  0  0  0  0  0
   59.3056   28.4390   51.1913 H   0  0  0  0  0  0  0  0  0  0  0  0
   59.6121   31.4551   50.8756 H   0  0  0  0  0  0  0  0  0  0  0  0
   58.6900   30.5251   52.1428 H   0  0  0  0  0  0  0  0  0  0  0  0
   61.5475   29.9842   54.2448 H   0  0  0  0  0  0  0  0  0  0  0  0
   59.8727   30.7243   54.2411 H   0  0  0  0  0  0  0  0  0  0  0  0
   57.9430   29.4321   54.2045 H   0  0  0  0  0  0  0  0  0  0  0  0
   56.8771   27.1837   54.3025 H   0  0  0  0  0  0  0  0  0  0  0  0
   58.0452   21.6554   53.3086 H   0  0  0  0  0  0  0  0  0  0  0  0
   56.9491   22.9954   52.7399 H   0  0  0  0  0  0  0  0  0  0  0  0
   57.7175   21.8752   50.7798 H   0  0  0  0  0  0  0  0  0  0  0  0
   58.6355   23.4320   50.9053 H   0  0  0  0  0  0  0  0  0  0  0  0
   62.1348   22.9649   53.4452 H   0  0  0  0  0  0  0  0  0  0  0  0
   61.1038   24.0519   52.3768 H   0  0  0  0  0  0  0  0  0  0  0  0
   60.0213   22.2987   54.6056 H   0  0  0  0  0  0  0  0  0  0  0  0
   60.4178   24.0674   54.7462 H   0  0  0  0  0  0  0  0  0  0  0  0
   60.7274   25.3259   53.6331 H   0  0  0  0  0  0  0  0  0  0  0  0
   62.3842   31.0112   51.1159 H   0  0  0  0  0  0  0  0  0  0  0  0
   62.7495   29.8839   52.4985 H   0  0  0  0  0  0  0  0  0  0  0  0
   62.8141   28.8188   50.2068 H   0  0  0  0  0  0  0  0  0  0  0  0
   61.6764   28.0625   51.4117 H   0  0  0  0  0  0  0  0  0  0  0  0
   59.3766   32.1815   48.0211 H   0  0  0  0  0  0  0  0  0  0  0  0
   57.6006   32.1814   46.2721 H   0  0  0  0  0  0  0  0  0  0  0  0
  1  2  1  0
  2  3  2  0
  2  4  2  0
  2  5  1  0
  5  6  2  0
  6  7  1  0
  7  8  2  0
  8  9  1  0
  9 10  1  0
 10 11  1  0
 11 12  1  0
 12 13  1  0
 13 14  1  0
 14 15  1  0
 15 16  2  0
 16 17  1  0
 17 18  2  0
 18 19  1  0
 19 20  2  0
 19 21  1  0
 21 22  1  0
 22 23  1  0
 23 24  1  0
 24 25  1  0
 25 26  1  0
 26 27  2  0
 26 28  1  0
 28 29  1  0
 29 30  1  0
 30 31  1  0
 18 32  1  0
 32 33  2  0
 33 34  1  0
 13 35  1  0
 35 36  1  0
  8 37  1  0
 37 38  2  0
 38  5  1  0
 36 10  1  0
 33 15  1  0
 31 21  1  0
 29 24  2  0
  1 39  1  0
  6 40  1  0
  7 41  1  0
  9 42  1  0
  9 43  1  0
 10 44  1  0
 11 45  1  0
 11 46  1  0
 12 47  1  0
 12 48  1  0
 14 49  1  0
 14 50  1  0
 16 51  1  0
 17 52  1  0
 22 53  1  0
 22 54  1  0
 23 55  1  0
 23 56  1  0
 30 57  1  0
 30 58  1  0
 31 59  1  0
 31 60  1  0
 32 61  1  0
 35 62  1  0
 35 63  1  0
 36 64  1  0
 36 65  1  0
 37 66  1  0
 38 67  1  0
M  CHG  4   1  -1  10   1  25  -1  28  -1
M  END
>  <UniqueID>  (31) 
31

>  <SMILES>  (31) 
[NH-]S(=O)(=O)c1ccc(C[NH+]2CCN(Cc3ccc(C(=O)N4CCc5[n-]c(=O)[n-]c5CC4)cc3F)CC2)cc1

>  <Energy>  (31) 
121.48046202801208

>  <Genealogy>  (31) 
[NH-]S(=O)(=O)c1ccc(C[NH+]2CCN(Cc3ccc(C(=O)N4CCc5[n-]c(=O)[n-]c5CC4)cc3F)CC2)cc1 (protonated)
[NH-]S(=O)(=O)c1ccc(C[NH+]2CCN(Cc3ccc(C(=O)N4CCc5[n-]c(=O)[n-]c5CC4)cc3F)CC2)cc1 (3D coordinates assigned)
[NH-]S(=O)(=O)c1ccc(C[NH+]2CCN(Cc3ccc(C(=O)N4CCc5[n-]c(=O)[n-]c5CC4)cc3F)CC2)cc1 (nonaromatic ring conformer: 121.48046202801208 kcal/mol)

>  <smiles>  (31) 
NS(=O)(=O)c1ccc(CN2CCN(Cc3ccc(C(=O)N4CCc5[nH]c(=O)[nH]c5CC4)cc3F)CC2)cc1

>  <score_type>  (31) 
oracle

>  <origin>  (31) 
adg

>  <m_score__min__energy>  (31) 
-11.94

>  <m_primary>  (31) 
energy

$$$$
31:0
     RDKit          3D

 51 54  0  0  0  0  0  0  0  0999 V2000
   58.8670   26.9810   46.2290 O   0  0  0  0  0  0  0  0  0  0  0  0
   58.5480   27.2400   45.0360 C   0  0  0  0  0  0  0  0  0  0  0  0
   59.2190   28.3800   44.3320 C   0  0  0  0  0  0  0  0  0  0  0  0
   58.5120   29.6320   44.6160 N   0  0  0  0  0  0  0  0  0  0  0  0
   59.1120   30.5340   45.3980 N   0  0  0  0  0  0  0  0  0  0  0  0
   58.5160   31.7090   45.7320 C   0  0  0  0  0  0  0  0  0  0  0  0
   59.2030   32.6410   46.5830 N   0  0  0  0  0  0  0  0  0  0  0  0
   58.7060   32.9360   47.9340 C   0  0  0  0  0  0  0  0  0  0  0  0
   59.8770   32.9720   48.9240 C   0  0  0  0  0  0  0  0  0  0  0  0
   61.0350   33.6870   48.3630 N   0  0  0  0  0  0  0  0  0  0  0  0
   62.3000   33.6420   49.0520 C   0  0  0  0  0  0  0  0  0  0  0  0
   62.4180   34.1470   50.3590 C   0  0  0  0  0  0  0  0  0  0  0  0
   63.6440   34.0900   51.0300 C   0  0  0  0  0  0  0  0  0  0  0  0
   64.7580   33.5230   50.4070 C   0  0  0  0  0  0  0  0  0  0  0  0
   64.6510   33.0120   49.1110 C   0  0  0  0  0  0  0  0  0  0  0  0
   63.4270   33.0690   48.4360 C   0  0  0  0  0  0  0  0  0  0  0  0
   60.9090   34.3760   47.0710 C   0  0  0  0  0  0  0  0  0  0  0  0
   60.3220   33.4170   46.0290 C   0  0  0  0  0  0  0  0  0  0  0  0
   57.2180   31.9490   45.2640 C   0  0  0  0  0  0  0  0  0  0  0  0
   56.5930   32.9940   45.5850 O   0  0  0  0  0  0  0  0  0  0  0  0
   56.6160   31.0260   44.4760 N   0  0  0  0  0  0  0  0  0  0  0  0
   57.2480   29.8720   44.1460 C   0  0  0  0  0  0  0  0  0  0  0  0
   56.6580   29.0320   43.4140 O   0  0  0  0  0  0  0  0  0  0  0  0
   57.4960   26.5100   44.3880 N   0  0  0  0  0  0  0  0  0  0  0  0
   56.8860   25.3370   44.9470 C   0  0  0  0  0  0  0  0  0  0  0  0
   57.5030   24.0890   44.7610 C   0  0  0  0  0  0  0  0  0  0  0  0
   56.9410   22.9330   45.3110 C   0  0  0  0  0  0  0  0  0  0  0  0
   55.7670   23.0150   46.0640 C   0  0  0  0  0  0  0  0  0  0  0  0
   55.1590   24.2560   46.2770 C   0  0  0  0  0  0  0  0  0  0  0  0
   55.7160   25.4170   45.7280 C   0  0  0  0  0  0  0  0  0  0  0  0
   55.1430   26.6150   46.0020 F   0  0  0  0  0  0  0  0  0  0  0  0
   60.2589   28.4619   44.6810 H   0  0  0  0  0  0  0  0  0  0  0  0
   59.2022   28.1944   43.2479 H   0  0  0  0  0  0  0  0  0  0  0  0
   58.2002   33.9128   47.9315 H   0  0  0  0  0  0  0  0  0  0  0  0
   57.9976   32.1516   48.2389 H   0  0  0  0  0  0  0  0  0  0  0  0
   59.5527   33.4821   49.8430 H   0  0  0  0  0  0  0  0  0  0  0  0
   60.1807   31.9366   49.1377 H   0  0  0  0  0  0  0  0  0  0  0  0
   61.5420   34.5890   50.8562 H   0  0  0  0  0  0  0  0  0  0  0  0
   63.7309   34.4924   52.0501 H   0  0  0  0  0  0  0  0  0  0  0  0
   65.7207   33.4787   50.9373 H   0  0  0  0  0  0  0  0  0  0  0  0
   65.5289   32.5650   48.6216 H   0  0  0  0  0  0  0  0  0  0  0  0
   63.3455   32.6630   47.4169 H   0  0  0  0  0  0  0  0  0  0  0  0
   60.2443   35.2452   47.1834 H   0  0  0  0  0  0  0  0  0  0  0  0
   61.9025   34.7113   46.7386 H   0  0  0  0  0  0  0  0  0  0  0  0
   59.9616   34.0004   45.1689 H   0  0  0  0  0  0  0  0  0  0  0  0
   61.1111   32.7149   45.7220 H   0  0  0  0  0  0  0  0  0  0  0  0
   57.0690   26.9210   43.5280 H   0  0  0  0  0  0  0  0  0  0  0  0
   58.4340   24.0207   44.1791 H   0  0  0  0  0  0  0  0  0  0  0  0
   57.4238   21.9577   45.1507 H   0  0  0  0  0  0  0  0  0  0  0  0
   55.3212   22.1037   46.4891 H   0  0  0  0  0  0  0  0  0  0  0  0
   54.2399   24.3202   46.8780 H   0  0  0  0  0  0  0  0  0  0  0  0
  1  2  2  0
  2  3  1  0
  3  4  1  0
  4  5  1  0
  5  6  2  0
  6  7  1  0
  7  8  1  0
  8  9  1  0
  9 10  1  0
 10 11  1  0
 11 12  2  0
 12 13  1  0
 13 14  2  0
 14 15  1  0
 15 16  2  0
 10 17  1  0
 17 18  1  0
  6 19  1  0
 19 20  2  0
 19 21  1  0
 21 22  1  0
 22 23  2  0
  2 24  1  0
 24 25  1  0
 25 26  2  0
 26 27  1  0
 27 28  2  0
 28 29  1  0
 29 30  2  0
 30 31  1  0
 22  4  1  0
 30 25  1  0
 18  7  1  0
 16 11  1  0
  3 32  1  0
  3 33  1  0
  8 34  1  0
  8 35  1  0
  9 36  1  0
  9 37  1  0
 12 38  1  0
 13 39  1  0
 14 40  1  0
 15 41  1  0
 16 42  1  0
 17 43  1  0
 17 44  1  0
 18 45  1  0
 18 46  1  0
 24 47  1  0
 26 48  1  0
 27 49  1  0
 28 50  1  0
 29 51  1  0
M  CHG  1  21  -1
M  END
>  <UniqueID>  (32) 
32

>  <SMILES>  (32) 
O=C(Cn1nc(N2CCN(c3ccccc3)CC2)c(=O)[n-]c1=O)Nc1ccccc1F

>  <Energy>  (32) 
69.53387813822792

>  <Genealogy>  (32) 
O=C(Cn1nc(N2CCN(c3ccccc3)CC2)c(=O)[n-]c1=O)Nc1ccccc1F (protonated)
O=C(Cn1nc(N2CCN(c3ccccc3)CC2)c(=O)[n-]c1=O)Nc1ccccc1F (3D coordinates assigned)
O=C(Cn1nc(N2CCN(c3ccccc3)CC2)c(=O)[n-]c1=O)Nc1ccccc1F (nonaromatic ring conformer: 69.53387813822792 kcal/mol)

>  <smiles>  (32) 
O=C(Cn1nc(N2CCN(c3ccccc3)CC2)c(=O)[nH]c1=O)Nc1ccccc1F

>  <score_type>  (32) 
oracle

>  <origin>  (32) 
adg

>  <m_score__min__energy>  (32) 
-9.6600000000000001

>  <m_primary>  (32) 
energy

$$$$
32:0
     RDKit          3D

 44 46  0  0  0  0  0  0  0  0999 V2000
   55.1280   24.1250   45.9650 C   0  0  0  0  0  0  0  0  0  0  0  0
   55.8950   24.7670   46.9780 O   0  0  0  0  0  0  0  0  0  0  0  0
   56.8440   25.7710   46.7350 C   0  0  0  0  0  0  0  0  0  0  0  0
   58.0280   25.8890   47.4870 C   0  0  0  0  0  0  0  0  0  0  0  0
   58.9450   26.9030   47.1980 C   0  0  0  0  0  0  0  0  0  0  0  0
   58.6870   27.8120   46.1690 C   0  0  0  0  0  0  0  0  0  0  0  0
   57.4950   27.7230   45.4310 C   0  0  0  0  0  0  0  0  0  0  0  0
   57.1970   28.6400   44.3670 N   0  0  0  0  0  0  0  0  0  0  0  0
   56.6240   29.9470   44.5120 C   0  0  0  0  0  0  0  0  0  0  0  0
   55.3740   30.0470   44.6310 O   0  0  0  0  0  0  0  0  0  0  0  0
   57.4690   31.1620   44.6110 C   0  0  0  0  0  0  0  0  0  0  0  0
   58.0650   31.4840   45.8430 C   0  0  0  0  0  0  0  0  0  0  0  0
   58.8920   32.6120   45.9750 C   0  0  0  0  0  0  0  0  0  0  0  0
   59.5400   32.9230   47.2740 C   0  0  0  0  0  0  0  0  0  0  0  0
   58.7720   33.0360   48.4470 C   0  0  0  0  0  0  0  0  0  0  0  0
   59.3860   33.3140   49.6710 C   0  0  0  0  0  0  0  0  0  0  0  0
   60.7700   33.4850   49.7390 C   0  0  0  0  0  0  0  0  0  0  0  0
   61.5480   33.3840   48.5790 C   0  0  0  0  0  0  0  0  0  0  0  0
   63.2970   33.5700   48.6650 S   0  0  0  0  0  0  0  0  0  0  0  0
   64.0530   32.0200   48.5570 N   0  0  0  0  0  0  0  0  0  0  0  0
   63.6780   34.2240   49.9650 O   0  0  0  0  0  0  0  0  0  0  0  0
   63.7700   34.4400   47.5350 O   0  0  0  0  0  0  0  0  0  0  0  0
   60.9330   33.0980   47.3530 C   0  0  0  0  0  0  0  0  0  0  0  0
   59.1050   33.4340   44.8580 C   0  0  0  0  0  0  0  0  0  0  0  0
   58.5070   33.1320   43.6340 C   0  0  0  0  0  0  0  0  0  0  0  0
   57.6920   32.0040   43.4990 C   0  0  0  0  0  0  0  0  0  0  0  0
   57.0270   31.6470   41.9070 Cl  0  0  0  0  0  0  0  0  0  0  0  0
   56.5930   26.6870   45.7060 C   0  0  0  0  0  0  0  0  0  0  0  0
   54.3646   23.4860   46.4328 H   0  0  0  0  0  0  0  0  0  0  0  0
   54.6369   24.8852   45.3398 H   0  0  0  0  0  0  0  0  0  0  0  0
   55.7899   23.5078   45.3398 H   0  0  0  0  0  0  0  0  0  0  0  0
   58.2319   25.1813   48.3041 H   0  0  0  0  0  0  0  0  0  0  0  0
   59.8731   26.9858   47.7827 H   0  0  0  0  0  0  0  0  0  0  0  0
   59.4190   28.5993   45.9361 H   0  0  0  0  0  0  0  0  0  0  0  0
   57.8809   30.8425   46.7174 H   0  0  0  0  0  0  0  0  0  0  0  0
   57.6809   32.9047   48.4004 H   0  0  0  0  0  0  0  0  0  0  0  0
   58.7774   33.3983   50.5834 H   0  0  0  0  0  0  0  0  0  0  0  0
   61.2500   33.6994   50.7052 H   0  0  0  0  0  0  0  0  0  0  0  0
   64.5480   31.9870   47.6380 H   0  0  0  0  0  0  0  0  0  0  0  0
   63.2880   31.3110   48.5120 H   0  0  0  0  0  0  0  0  0  0  0  0
   61.5456   33.0095   46.4437 H   0  0  0  0  0  0  0  0  0  0  0  0
   59.7476   34.3223   44.9478 H   0  0  0  0  0  0  0  0  0  0  0  0
   58.6783   33.7874   42.7673 H   0  0  0  0  0  0  0  0  0  0  0  0
   55.6760   26.5919   45.1060 H   0  0  0  0  0  0  0  0  0  0  0  0
  1  2  1  0
  2  3  1  0
  3  4  2  0
  4  5  1  0
  5  6  2  0
  6  7  1  0
  7  8  1  0
  8  9  1  0
  9 10  2  0
  9 11  1  0
 11 12  2  0
 12 13  1  0
 13 14  1  0
 14 15  2  0
 15 16  1  0
 16 17  2  0
 17 18  1  0
 18 19  1  0
 19 20  1  0
 19 21  2  0
 19 22  2  0
 18 23  2  0
 13 24  2  0
 24 25  1  0
 25 26  2  0
 26 27  1  0
  7 28  2  0
 28  3  1  0
 26 11  1  0
 23 14  1  0
  1 29  1  0
  1 30  1  0
  1 31  1  0
  4 32  1  0
  5 33  1  0
  6 34  1  0
 12 35  1  0
 15 36  1  0
 16 37  1  0
 17 38  1  0
 20 39  1  0
 20 40  1  0
 23 41  1  0
 24 42  1  0
 25 43  1  0
 28 44  1  0
M  CHG  1   8  -1
M  END
>  <UniqueID>  (33) 
33

>  <SMILES>  (33) 
COc1cccc([N-]C(=O)c2cc(-c3cccc(S(N)(=O)=O)c3)ccc2Cl)c1

>  <Energy>  (33) 
58.22839119662811

>  <Genealogy>  (33) 
COc1cccc([N-]C(=O)c2cc(-c3cccc(S(N)(=O)=O)c3)ccc2Cl)c1 (protonated)
COc1cccc([N-]C(=O)c2cc(-c3cccc(S(N)(=O)=O)c3)ccc2Cl)c1 (3D coordinates assigned)
COc1cccc([N-]C(=O)c2cc(-c3cccc(S(N)(=O)=O)c3)ccc2Cl)c1 (optimized conformer: 58.22839119662811 kcal/mol)

>  <smiles>  (33) 
COc1cccc(NC(=O)c2cc(-c3cccc(S(N)(=O)=O)c3)ccc2Cl)c1

>  <score_type>  (33) 
oracle

>  <origin>  (33) 
adg

>  <m_score__min__energy>  (33) 
-10.84

>  <m_primary>  (33) 
energy

$$$$
33:0
     RDKit          3D

 55 57  0  0  0  0  0  0  0  0999 V2000
   61.8880   30.9270   47.1010 C   0  0  0  0  0  0  0  0  0  0  0  0
   60.8400   30.1050   47.2330 C   0  0  0  0  0  0  0  0  0  0  0  0
   59.4610   30.6220   47.5470 C   0  0  0  0  0  0  0  0  0  0  0  0
   58.7790   31.1550   46.3020 C   0  0  0  0  0  0  0  0  0  0  0  0
   58.2210   32.4540   46.2920 C   0  0  0  0  0  0  0  0  0  0  0  0
   58.2750   33.2500   47.4890 N   0  0  0  0  0  0  0  0  0  0  0  0
   59.3250   34.1510   47.8760 C   0  0  0  0  0  0  0  0  0  0  0  0
   59.5930   35.1610   47.1710 O   0  0  0  0  0  0  0  0  0  0  0  0
   60.0870   33.8740   49.1120 C   0  0  0  0  0  0  0  0  0  0  0  0
   59.4420   33.5180   50.1370 O   0  0  0  0  0  0  0  0  0  0  0  0
   61.5250   34.0080   49.1860 N   0  0  0  0  0  0  0  0  0  0  0  0
   62.1800   34.2630   50.4790 C   0  0  0  0  0  0  0  0  0  0  0  0
   63.2880   33.2180   50.7520 C   0  0  0  0  0  0  0  0  0  0  0  0
   63.7810   32.5560   49.5130 N   0  0  0  0  0  0  0  0  0  0  0  0
   65.1120   31.9690   49.7310 C   0  0  0  0  0  0  0  0  0  0  0  0
   63.8090   33.4900   48.3700 C   0  0  0  0  0  0  0  0  0  0  0  0
   62.3690   33.8490   47.9880 C   0  0  0  0  0  0  0  0  0  0  0  0
   57.5670   32.9180   45.1330 C   0  0  0  0  0  0  0  0  0  0  0  0
   57.5050   32.1250   43.9850 C   0  0  0  0  0  0  0  0  0  0  0  0
   58.0810   30.8560   43.9820 C   0  0  0  0  0  0  0  0  0  0  0  0
   58.7140   30.3640   45.1320 C   0  0  0  0  0  0  0  0  0  0  0  0
   59.2820   29.0860   45.1090 O   0  0  0  0  0  0  0  0  0  0  0  0
   58.6000   27.9220   45.5050 C   0  0  0  0  0  0  0  0  0  0  0  0
   59.3470   26.7990   45.8680 C   0  0  0  0  0  0  0  0  0  0  0  0
   58.7150   25.6390   46.3240 C   0  0  0  0  0  0  0  0  0  0  0  0
   57.3150   25.5790   46.4270 C   0  0  0  0  0  0  0  0  0  0  0  0
   56.6950   24.3660   47.0090 C   0  0  0  0  0  0  0  0  0  0  0  0
   57.4180   23.4630   47.5100 O   0  0  0  0  0  0  0  0  0  0  0  0
   55.3150   24.2260   47.0620 O   0  0  0  0  0  0  0  0  0  0  0  0
   56.5500   26.6970   46.0050 C   0  0  0  0  0  0  0  0  0  0  0  0
   55.1540   26.6810   45.9640 O   0  0  0  0  0  0  0  0  0  0  0  0
   57.2000   27.8630   45.5760 C   0  0  0  0  0  0  0  0  0  0  0  0
   62.8827   30.5174   46.8713 H   0  0  0  0  0  0  0  0  0  0  0  0
   61.7546   32.0121   47.2222 H   0  0  0  0  0  0  0  0  0  0  0  0
   60.9901   29.0224   47.1087 H   0  0  0  0  0  0  0  0  0  0  0  0
   58.8570   29.8028   47.9642 H   0  0  0  0  0  0  0  0  0  0  0  0
   59.5537   31.4437   48.2724 H   0  0  0  0  0  0  0  0  0  0  0  0
   62.6281   35.2675   50.4639 H   0  0  0  0  0  0  0  0  0  0  0  0
   61.4250   34.1912   51.2758 H   0  0  0  0  0  0  0  0  0  0  0  0
   64.1343   33.7237   51.2398 H   0  0  0  0  0  0  0  0  0  0  0  0
   62.8527   32.4363   51.3919 H   0  0  0  0  0  0  0  0  0  0  0  0
   65.3031   31.8847   50.8110 H   0  0  0  0  0  0  0  0  0  0  0  0
   65.1517   30.9699   49.2725 H   0  0  0  0  0  0  0  0  0  0  0  0
   65.8765   32.6134   49.2725 H   0  0  0  0  0  0  0  0  0  0  0  0
   64.3548   34.4025   48.6519 H   0  0  0  0  0  0  0  0  0  0  0  0
   64.3152   33.0181   47.5150 H   0  0  0  0  0  0  0  0  0  0  0  0
   62.3721   34.7929   47.4231 H   0  0  0  0  0  0  0  0  0  0  0  0
   61.9565   33.0331   47.3764 H   0  0  0  0  0  0  0  0  0  0  0  0
   57.1009   33.9144   45.1326 H   0  0  0  0  0  0  0  0  0  0  0  0
   57.0013   32.5022   43.0828 H   0  0  0  0  0  0  0  0  0  0  0  0
   58.0388   30.2377   43.0732 H   0  0  0  0  0  0  0  0  0  0  0  0
   60.4441   26.8280   45.7942 H   0  0  0  0  0  0  0  0  0  0  0  0
   59.3196   24.7641   46.6051 H   0  0  0  0  0  0  0  0  0  0  0  0
   54.5940   25.9420   46.3700 H   0  0  0  0  0  0  0  0  0  0  0  0
   56.6045   28.7430   45.2914 H   0  0  0  0  0  0  0  0  0  0  0  0
  1  2  2  0
  2  3  1  0
  3  4  1  0
  4  5  2  0
  5  6  1  0
  6  7  1  0
  7  8  2  0
  7  9  1  0
  9 10  2  0
  9 11  1  0
 11 12  1  0
 12 13  1  0
 13 14  1  0
 14 15  1  0
 14 16  1  0
 16 17  1  0
  5 18  1  0
 18 19  2  0
 19 20  1  0
 20 21  2  0
 21 22  1  0
 22 23  1  0
 23 24  2  0
 24 25  1  0
 25 26  2  0
 26 27  1  0
 27 28  2  0
 27 29  1  0
 26 30  1  0
 30 31  1  0
 30 32  2  0
 21  4  1  0
 32 23  1  0
 17 11  1  0
  1 33  1  0
  1 34  1  0
  2 35  1  0
  3 36  1  0
  3 37  1  0
 12 38  1  0
 12 39  1  0
 13 40  1  0
 13 41  1  0
 15 42  1  0
 15 43  1  0
 15 44  1  0
 16 45  1  0
 16 46  1  0
 17 47  1  0
 17 48  1  0
 18 49  1  0
 19 50  1  0
 20 51  1  0
 24 52  1  0
 25 53  1  0
 31 54  1  0
 32 55  1  0
M  CHG  2   6  -1  29  -1
M  END
>  <UniqueID>  (34) 
34

>  <SMILES>  (34) 
C=CCc1c([N-]C(=O)C(=O)N2CCN(C)CC2)cccc1Oc1ccc(C(=O)[O-])c(O)c1

>  <Energy>  (34) 
79.28273656894095

>  <Genealogy>  (34) 
C=CCc1c([N-]C(=O)C(=O)N2CCN(C)CC2)cccc1Oc1ccc(C(=O)[O-])c(O)c1 (protonated)
C=CCc1c([N-]C(=O)C(=O)N2CCN(C)CC2)cccc1Oc1ccc(C(=O)[O-])c(O)c1 (3D coordinates assigned)
C=CCc1c([N-]C(=O)C(=O)N2CCN(C)CC2)cccc1Oc1ccc(C(=O)[O-])c(O)c1 (nonaromatic ring conformer: 79.28273656894095 kcal/mol)

>  <smiles>  (34) 
C=CCc1c(NC(=O)C(=O)N2CCN(C)CC2)cccc1Oc1ccc(C(=O)O)c(O)c1

>  <score_type>  (34) 
oracle

>  <origin>  (34) 
adg

>  <m_score__min__energy>  (34) 
-12.279999999999999

>  <m_primary>  (34) 
energy

$$$$
34:0
     RDKit          3D

 45 48  0  0  0  0  0  0  0  0999 V2000
   57.5763   28.2627   54.5131 H   0  0  0  0  0  0  0  0  0  0  0  0
   56.6190   28.2590   55.0550 C   0  0  0  0  0  0  0  0  0  0  0  0
   56.5080   27.6605   55.9712 H   0  0  0  0  0  0  0  0  0  0  0  0
   55.5860   28.9850   54.5980 C   0  0  0  0  0  0  0  0  0  0  0  0
   54.3760   28.9620   55.3090 C   0  0  0  0  0  0  0  0  0  0  0  0
   54.3073   28.3876   56.2446 H   0  0  0  0  0  0  0  0  0  0  0  0
   53.2590   29.6580   54.8450 C   0  0  0  0  0  0  0  0  0  0  0  0
   52.3201   29.6178   55.4167 H   0  0  0  0  0  0  0  0  0  0  0  0
   53.3150   30.4100   53.6580 C   0  0  0  0  0  0  0  0  0  0  0  0
   52.2040   31.0620   53.2510 C   0  0  0  0  0  0  0  0  0  0  0  0
   51.6027   31.5523   54.0307 H   0  0  0  0  0  0  0  0  0  0  0  0
   51.7170   31.1810   51.8590 C   0  0  0  0  0  0  0  0  0  0  0  0
   51.9170   30.2780   50.8820 N   0  0  0  0  0  0  0  0  0  0  0  0
   51.3930   30.8760   49.7900 C   0  0  0  0  0  0  0  0  0  0  0  0
   51.3800   30.3270   48.6570 O   0  0  0  0  0  0  0  0  0  0  0  0
   50.8920   32.1100   50.0050 N   0  0  0  0  0  0  0  0  0  0  0  0
   51.1160   32.2920   51.3170 C   0  0  0  0  0  0  0  0  0  0  0  0
   50.7800   33.4520   52.0030 O   0  0  0  0  0  0  0  0  0  0  0  0
   54.5260   30.4240   52.9340 C   0  0  0  0  0  0  0  0  0  0  0  0
   54.5811   30.9787   51.9857 H   0  0  0  0  0  0  0  0  0  0  0  0
   55.6630   29.7430   53.4010 C   0  0  0  0  0  0  0  0  0  0  0  0
   56.9080   29.8510   52.6060 C   0  0  0  0  0  0  0  0  0  0  0  0
   57.0880   29.0480   51.6490 O   0  0  0  0  0  0  0  0  0  0  0  0
   57.8960   30.8630   52.8850 N   0  0  0  0  0  0  0  0  0  0  0  0
   59.2730   30.6800   52.4120 C   0  0  0  0  0  0  0  0  0  0  0  0
   59.6001   29.6539   52.6360 H   0  0  0  0  0  0  0  0  0  0  0  0
   59.3047   30.8578   51.3269 H   0  0  0  0  0  0  0  0  0  0  0  0
   60.2120   31.6730   53.1070 C   0  0  0  0  0  0  0  0  0  0  0  0
   60.2377   31.4430   54.1824 H   0  0  0  0  0  0  0  0  0  0  0  0
   61.2082   31.5709   52.6519 H   0  0  0  0  0  0  0  0  0  0  0  0
   59.7710   33.0820   52.9290 N   0  0  0  0  0  0  0  0  0  0  0  0
   60.2930   33.8510   51.7660 C   0  0  0  0  0  0  0  0  0  0  0  0
   60.5838   34.7114   52.3866 H   0  0  0  0  0  0  0  0  0  0  0  0
   60.9020   32.9780   50.6780 C   0  0  0  0  0  0  0  0  0  0  0  0
   61.8452   33.2770   50.1974 H   0  0  0  0  0  0  0  0  0  0  0  0
   61.1992   31.9214   50.6057 H   0  0  0  0  0  0  0  0  0  0  0  0
   59.6230   33.7580   50.3960 C   0  0  0  0  0  0  0  0  0  0  0  0
   59.6433   34.6205   49.7136 H   0  0  0  0  0  0  0  0  0  0  0  0
   58.6158   33.4990   50.0375 H   0  0  0  0  0  0  0  0  0  0  0  0
   58.3010   33.2770   53.0330 C   0  0  0  0  0  0  0  0  0  0  0  0
   58.1121   34.1573   53.6650 H   0  0  0  0  0  0  0  0  0  0  0  0
   57.9221   33.4042   52.0082 H   0  0  0  0  0  0  0  0  0  0  0  0
   57.5570   32.0790   53.6380 C   0  0  0  0  0  0  0  0  0  0  0  0
   57.8552   31.9547   54.6895 H   0  0  0  0  0  0  0  0  0  0  0  0
   56.4724   32.2544   53.5838 H   0  0  0  0  0  0  0  0  0  0  0  0
  1  2  1  0
  2  3  1  0
  2  4  2  0
  4  5  1  0
  5  6  1  0
  5  7  2  0
  7  8  1  0
  7  9  1  0
  9 10  2  0
 10 11  1  0
 10 12  1  0
 12 13  1  0
 13 14  1  0
 14 15  2  0
 14 16  1  0
 16 17  1  0
 17 18  1  0
  9 19  1  0
 19 20  1  0
 19 21  2  0
 21 22  1  0
 22 23  2  0
 22 24  1  0
 24 25  1  0
 25 26  1  0
 25 27  1  0
 25 28  1  0
 28 29  1  0
 28 30  1  0
 28 31  1  0
 31 32  1  0
 32 33  1  0
 32 34  1  0
 34 35  1  0
 34 36  1  0
 34 37  1  0
 37 38  1  0
 37 39  1  0
 31 40  1  0
 40 41  1  0
 40 42  1  0
 40 43  1  0
 43 44  1  0
 43 45  1  0
 21  4  1  0
 43 24  1  0
 17 12  2  0
 37 32  1  0
M  CHG  3  13  -1  16  -1  18  -1
M  END
>  <UniqueID>  (35) 
35

>  <SMILES>  (35) 
C=c1cc/c(=C/c2[n-]c(=O)[n-]c2[O-])cc1C(=O)N1CCN(C2CC2)CC1

>  <Energy>  (35) 
375.6329035954291

>  <Genealogy>  (35) 
C=c1ccc(=Cc2[n-]c(=O)[n-]c2[O-])cc1C(=O)N1CCN(C2CC2)CC1 (protonated)
C=c1cc/c(=C/c2[n-]c(=O)[n-]c2[O-])cc1C(=O)N1CCN(C2CC2)CC1 (cis-trans isomerization)
C=c1cc/c(=C/c2[n-]c(=O)[n-]c2[O-])cc1C(=O)N1CCN(C2CC2)CC1 (3D coordinates assigned)
C=c1cc/c(=C/c2[n-]c(=O)[n-]c2[O-])cc1C(=O)N1CCN(C2CC2)CC1 (nonaromatic ring conformer: 375.6329035954291 kcal/mol)

>  <smiles>  (35) 
C=c1ccc(=Cc2[nH]c(=O)[nH]c2O)cc1C(=O)N1CCN(C2CC2)CC1

>  <score_type>  (35) 
oracle

>  <origin>  (35) 
adg

>  <m_score__min__energy>  (35) 
-17.030000000000001

>  <m_primary>  (35) 
energy

$$$$
35:0
     RDKit          3D

 51 53  0  0  0  0  0  0  0  0999 V2000
   52.8210   28.6980   53.4280 C   0  0  0  0  0  0  0  0  0  0  0  0
   53.9920   29.1910   52.9950 C   0  0  0  0  0  0  0  0  0  0  0  0
   54.2330   30.4850   52.5090 C   0  0  0  0  0  0  0  0  0  0  0  0
   53.3840   31.4620   52.1350 C   0  0  0  0  0  0  0  0  0  0  0  0
   52.3670   31.3550   51.0750 C   0  0  0  0  0  0  0  0  0  0  0  0
   52.3920   30.4530   50.0770 N   0  0  0  0  0  0  0  0  0  0  0  0
   51.3560   30.8250   49.2950 C   0  0  0  0  0  0  0  0  0  0  0  0
   51.0400   30.2030   48.2470 O   0  0  0  0  0  0  0  0  0  0  0  0
   50.6910   31.9210   49.7190 N   0  0  0  0  0  0  0  0  0  0  0  0
   51.3540   32.2510   50.8390 C   0  0  0  0  0  0  0  0  0  0  0  0
   51.0430   33.3530   51.6250 O   0  0  0  0  0  0  0  0  0  0  0  0
   55.6080   30.6260   52.4490 C   0  0  0  0  0  0  0  0  0  0  0  0
   56.1530   29.4180   52.8310 C   0  0  0  0  0  0  0  0  0  0  0  0
   57.6300   29.1340   52.8780 C   0  0  0  0  0  0  0  0  0  0  0  0
   58.4300   30.3590   52.5160 C   0  0  0  0  0  0  0  0  0  0  0  0
   59.1240   30.9190   53.4100 O   0  0  0  0  0  0  0  0  0  0  0  0
   58.4770   30.8630   51.1680 N   0  0  0  0  0  0  0  0  0  0  0  0
   58.2850   32.2680   50.8520 C   0  0  0  0  0  0  0  0  0  0  0  0
   58.6650   32.4160   49.3850 C   0  0  0  0  0  0  0  0  0  0  0  0
   58.5910   31.0030   48.7990 C   0  0  1  0  0  0  0  0  0  0  0  0
   59.6260   30.7710   47.6850 C   0  0  0  0  0  0  0  0  0  0  0  0
   59.1610   31.3080   46.4590 O   0  0  0  0  0  0  0  0  0  0  0  0
   58.5400   30.3110   45.6700 C   0  0  0  0  0  0  0  0  0  0  0  0
   57.2500   30.7230   45.2580 O   0  0  0  0  0  0  0  0  0  0  0  0
   57.2830   31.1290   43.9070 C   0  0  0  0  0  0  0  0  0  0  0  0
   58.7770   30.0610   49.9920 C   0  0  0  0  0  0  0  0  0  0  0  0
   55.1740   28.5320   53.1310 N   0  0  0  0  0  0  0  0  0  0  0  0
   55.3690   27.1730   53.6460 C   0  0  0  0  0  0  0  0  0  0  0  0
   52.7604   27.6601   53.7873 H   0  0  0  0  0  0  0  0  0  0  0  0
   51.9220   29.3319   53.4235 H   0  0  0  0  0  0  0  0  0  0  0  0
   53.4566   32.4221   52.6670 H   0  0  0  0  0  0  0  0  0  0  0  0
   56.1612   31.5295   52.1530 H   0  0  0  0  0  0  0  0  0  0  0  0
   57.9022   28.8147   53.8948 H   0  0  0  0  0  0  0  0  0  0  0  0
   57.8566   28.3411   52.1500 H   0  0  0  0  0  0  0  0  0  0  0  0
   57.2347   32.5560   51.0071 H   0  0  0  0  0  0  0  0  0  0  0  0
   58.8961   32.9164   51.4971 H   0  0  0  0  0  0  0  0  0  0  0  0
   57.9581   33.0833   48.8701 H   0  0  0  0  0  0  0  0  0  0  0  0
   59.6661   32.8558   49.2650 H   0  0  0  0  0  0  0  0  0  0  0  0
   57.6277   30.8239   48.2990 H   0  0  0  0  0  0  0  0  0  0  0  0
   60.5711   31.2619   47.9604 H   0  0  0  0  0  0  0  0  0  0  0  0
   59.7833   29.6891   47.5638 H   0  0  0  0  0  0  0  0  0  0  0  0
   59.1579   30.1191   44.7804 H   0  0  0  0  0  0  0  0  0  0  0  0
   58.4406   29.3968   46.2736 H   0  0  0  0  0  0  0  0  0  0  0  0
   57.3720   32.2242   43.8553 H   0  0  0  0  0  0  0  0  0  0  0  0
   58.1465   30.6669   43.4063 H   0  0  0  0  0  0  0  0  0  0  0  0
   56.3562   30.8124   43.4063 H   0  0  0  0  0  0  0  0  0  0  0  0
   58.0853   29.2086   49.9208 H   0  0  0  0  0  0  0  0  0  0  0  0
   59.7944   29.6445   50.0296 H   0  0  0  0  0  0  0  0  0  0  0  0
   55.3660   27.1937   54.7458 H   0  0  0  0  0  0  0  0  0  0  0  0
   54.5546   26.5253   53.2893 H   0  0  0  0  0  0  0  0  0  0  0  0
   56.3327   26.7805   53.2893 H   0  0  0  0  0  0  0  0  0  0  0  0
  1  2  2  0
  2  3  1  0
  3  4  2  3
  4  5  1  0
  5  6  1  0
  6  7  1  0
  7  8  2  0
  7  9  1  0
  9 10  1  0
 10 11  1  0
  3 12  1  0
 12 13  2  0
 13 14  1  0
 14 15  1  0
 15 16  2  0
 15 17  1  0
 17 18  1  0
 18 19  1  0
 19 20  1  0
 20 21  1  0
 21 22  1  0
 22 23  1  0
 23 24  1  0
 24 25  1  0
 20 26  1  0
 13 27  1  0
 27 28  1  0
 27  2  1  0
 10  5  2  0
 26 17  1  0
  1 29  1  0
  1 30  1  0
  4 31  1  0
 12 32  1  0
 14 33  1  0
 14 34  1  0
 18 35  1  0
 18 36  1  0
 19 37  1  0
 19 38  1  0
 20 39  1  6
 21 40  1  0
 21 41  1  0
 23 42  1  0
 23 43  1  0
 25 44  1  0
 25 45  1  0
 25 46  1  0
 26 47  1  0
 26 48  1  0
 28 49  1  0
 28 50  1  0
 28 51  1  0
M  CHG  3   6  -1   9  -1  11  -1
M  END
>  <UniqueID>  (36) 
36

>  <SMILES>  (36) 
C=c1c(=Cc2[n-]c(=O)[n-]c2[O-])cc(CC(=O)N2CC[C@@H](COCOC)C2)n1C

>  <Energy>  (36) 
122.71673466812156

>  <Genealogy>  (36) 
C=c1c(=Cc2[n-]c(=O)[n-]c2[O-])cc(CC(=O)N2CCC(COCOC)C2)n1C (protonated)
C=c1c(=Cc2[n-]c(=O)[n-]c2[O-])cc(CC(=O)N2CC[C@@H](COCOC)C2)n1C (chirality)
C=c1c(=Cc2[n-]c(=O)[n-]c2[O-])cc(CC(=O)N2CC[C@@H](COCOC)C2)n1C (3D coordinates assigned)
C=c1c(=Cc2[n-]c(=O)[n-]c2[O-])cc(CC(=O)N2CC[C@@H](COCOC)C2)n1C (nonaromatic ring conformer: 122.71673466812156 kcal/mol)

>  <smiles>  (36) 
C=c1c(=Cc2[nH]c(=O)[nH]c2O)cc(CC(=O)N2CCC(COCOC)C2)n1C

>  <score_type>  (36) 
oracle

>  <origin>  (36) 
adg

>  <m_score__min__energy>  (36) 
-16.920000000000002

>  <m_primary>  (36) 
energy

$$$$
36:0
     RDKit          3D

 60 63  0  0  0  0  0  0  0  0999 V2000
   61.4756   29.2925   49.8286 H   0  0  0  0  0  0  0  0  0  0  0  0
   60.7650   28.5250   49.4880 C   0  0  0  0  0  0  0  0  0  0  0  0
   60.6450   27.5936   50.0608 H   0  0  0  0  0  0  0  0  0  0  0  0
   60.0480   28.7240   48.3790 C   0  0  0  0  0  0  0  0  0  0  0  0
   60.0600   29.8580   47.5780 C   0  0  0  0  0  0  0  0  0  0  0  0
   60.8710   31.0850   47.7640 C   0  0  0  0  0  0  0  0  0  0  0  0
   61.7230   31.3600   46.8700 O   0  0  0  0  0  0  0  0  0  0  0  0
   60.6620   32.0000   48.8840 N   0  0  0  0  0  0  0  0  0  0  0  0
   61.1060   31.5600   49.7230 H   0  0  0  0  0  0  0  0  0  0  0  0
   59.2250   32.1900   49.1950 C   0  0  0  0  0  0  0  0  0  0  0  0
   58.7274   31.2095   49.1648 H   0  0  0  0  0  0  0  0  0  0  0  0
   59.1626   32.6521   50.1913 H   0  0  0  0  0  0  0  0  0  0  0  0
   58.5090   33.1380   48.1990 C   0  0  0  0  0  0  0  0  0  0  0  0
   57.6079   32.6368   47.8159 H   0  0  0  0  0  0  0  0  0  0  0  0
   58.2501   34.0633   48.7346 H   0  0  0  0  0  0  0  0  0  0  0  0
   59.3780   33.4960   47.0590 N   0  0  0  0  0  0  0  0  0  0  0  0
   58.7610   34.4000   46.0510 C   0  0  0  0  0  0  0  0  0  0  0  0
   59.0098   35.3213   46.5981 H   0  0  0  0  0  0  0  0  0  0  0  0
   58.8670   33.8150   44.6480 C   0  0  0  0  0  0  0  0  0  0  0  0
   59.1713   34.4564   43.8078 H   0  0  0  0  0  0  0  0  0  0  0  0
   59.4083   32.9684   44.2005 H   0  0  0  0  0  0  0  0  0  0  0  0
   57.4990   33.9950   45.2810 C   0  0  0  0  0  0  0  0  0  0  0  0
   56.8144   34.7677   44.9013 H   0  0  0  0  0  0  0  0  0  0  0  0
   56.6421   33.3355   45.4830 H   0  0  0  0  0  0  0  0  0  0  0  0
   60.6330   34.1150   47.5330 C   0  0  0  0  0  0  0  0  0  0  0  0
   61.3436   34.1577   46.6944 H   0  0  0  0  0  0  0  0  0  0  0  0
   60.3884   35.1196   47.9085 H   0  0  0  0  0  0  0  0  0  0  0  0
   61.2820   33.3270   48.6920 C   0  0  0  0  0  0  0  0  0  0  0  0
   62.3508   33.1895   48.4714 H   0  0  0  0  0  0  0  0  0  0  0  0
   61.1337   33.9047   49.6163 H   0  0  0  0  0  0  0  0  0  0  0  0
   59.1070   29.6490   46.5860 C   0  0  0  0  0  0  0  0  0  0  0  0
   58.7390   30.6370   45.5120 C   0  0  0  0  0  0  0  0  0  0  0  0
   58.3910   31.5712   45.9769 H   0  0  0  0  0  0  0  0  0  0  0  0
   59.6202   30.8444   44.8871 H   0  0  0  0  0  0  0  0  0  0  0  0
   57.9368   30.2174   44.8871 H   0  0  0  0  0  0  0  0  0  0  0  0
   58.5880   28.3640   46.8060 C   0  0  0  0  0  0  0  0  0  0  0  0
   57.6450   27.7040   46.1080 C   0  0  0  0  0  0  0  0  0  0  0  0
   57.1891   28.2212   45.2508 H   0  0  0  0  0  0  0  0  0  0  0  0
   57.1810   26.3440   46.4080 C   0  0  0  0  0  0  0  0  0  0  0  0
   57.9830   25.3400   46.8240 N   0  0  0  0  0  0  0  0  0  0  0  0
   57.1310   24.3030   46.9840 C   0  0  0  0  0  0  0  0  0  0  0  0
   57.5080   23.1650   47.3680 O   0  0  0  0  0  0  0  0  0  0  0  0
   55.8450   24.6050   46.6960 N   0  0  0  0  0  0  0  0  0  0  0  0
   54.6790   23.7140   46.7160 C   0  0  0  0  0  0  0  0  0  0  0  0
   54.9510   22.7895   47.2463 H   0  0  0  0  0  0  0  0  0  0  0  0
   53.8610   24.2465   47.2232 H   0  0  0  0  0  0  0  0  0  0  0  0
   54.1890   23.3450   45.2960 C   0  0  0  0  0  0  0  0  0  0  0  0
   53.9607   22.2694   45.3261 H   0  0  0  0  0  0  0  0  0  0  0  0
   55.2730   23.5650   44.2320 C   0  0  0  0  0  0  0  0  0  0  0  0
   56.2366   23.7606   44.7252 H   0  0  0  0  0  0  0  0  0  0  0  0
   55.3583   22.6659   43.6041 H   0  0  0  0  0  0  0  0  0  0  0  0
   55.0010   24.4263   43.6041 H   0  0  0  0  0  0  0  0  0  0  0  0
   52.9010   24.0860   44.9140 C   0  0  0  0  0  0  0  0  0  0  0  0
   52.3694   24.3919   45.8271 H   0  0  0  0  0  0  0  0  0  0  0  0
   53.1530   24.9772   44.3205 H   0  0  0  0  0  0  0  0  0  0  0  0
   52.2572   23.4202   44.3205 H   0  0  0  0  0  0  0  0  0  0  0  0
   55.8800   25.9020   46.3540 C   0  0  0  0  0  0  0  0  0  0  0  0
   54.7700   26.6600   45.9950 O   0  0  0  0  0  0  0  0  0  0  0  0
   59.1610   27.8280   47.9050 N   0  0  0  0  0  0  0  0  0  0  0  0
   58.9500   26.8920   48.3200 H   0  0  0  0  0  0  0  0  0  0  0  0
  1  2  1  0
  2  3  1  0
  2  4  2  0
  4  5  1  0
  5  6  1  0
  6  7  2  0
  6  8  1  0
  8  9  1  0
  8 10  1  0
 10 11  1  0
 10 12  1  0
 10 13  1  0
 13 14  1  0
 13 15  1  0
 13 16  1  0
 16 17  1  0
 17 18  1  0
 17 19  1  0
 19 20  1  0
 19 21  1  0
 19 22  1  0
 22 23  1  0
 22 24  1  0
 16 25  1  0
 25 26  1  0
 25 27  1  0
 25 28  1  0
 28 29  1  0
 28 30  1  0
  5 31  2  0
 31 32  1  0
 32 33  1  0
 32 34  1  0
 32 35  1  0
 31 36  1  0
 36 37  2  0
 37 38  1  0
 37 39  1  0
 39 40  1  0
 40 41  1  0
 41 42  2  0
 41 43  1  0
 43 44  1  0
 44 45  1  0
 44 46  1  0
 44 47  1  0
 47 48  1  0
 47 49  1  0
 49 50  1  0
 49 51  1  0
 49 52  1  0
 47 53  1  0
 53 54  1  0
 53 55  1  0
 53 56  1  0
 43 57  1  0
 57 58  1  0
 36 59  1  0
 59 60  1  0
 59  4  1  0
 28  8  1  0
 57 39  2  0
 22 17  1  0
M  CHG  3   8   1  40  -1  58  -1
M  END
>  <UniqueID>  (37) 
37

>  <SMILES>  (37) 
C=c1[nH]/c(=C/c2[n-]c(=O)n(CC(C)C)c2[O-])c(C)c1C(=O)[NH+]1CCN(C2CC2)CC1

>  <Energy>  (37) 
415.5600570951812

>  <Genealogy>  (37) 
C=c1[nH]c(=Cc2[n-]c(=O)n(CC(C)C)c2[O-])c(C)c1C(=O)[NH+]1CCN(C2CC2)CC1 (protonated)
C=c1[nH]/c(=C/c2[n-]c(=O)n(CC(C)C)c2[O-])c(C)c1C(=O)[NH+]1CCN(C2CC2)CC1 (cis-trans isomerization)
C=c1[nH]/c(=C/c2[n-]c(=O)n(CC(C)C)c2[O-])c(C)c1C(=O)[NH+]1CCN(C2CC2)CC1 (3D coordinates assigned)
C=c1[nH]/c(=C/c2[n-]c(=O)n(CC(C)C)c2[O-])c(C)c1C(=O)[NH+]1CCN(C2CC2)CC1 (nonaromatic ring conformer: 415.5600570951812 kcal/mol)

>  <smiles>  (37) 
C=c1[nH]c(=Cc2[nH]c(=O)n(CC(C)C)c2O)c(C)c1C(=O)N1CCN(C2CC2)CC1

>  <score_type>  (37) 
oracle

>  <origin>  (37) 
adg

>  <m_score__min__energy>  (37) 
-13.41

>  <m_primary>  (37) 
energy

$$$$
37:0
     RDKit          3D

 59 63  0  0  0  0  0  0  0  0999 V2000
   62.0410   34.5730   49.2060 C   0  0  0  0  0  0  0  0  0  0  0  0
   60.9810   34.2290   48.1540 C   0  0  0  0  0  0  0  0  0  0  0  0
   61.5250   33.2050   47.1320 C   0  0  0  0  0  0  0  0  0  0  0  0
   60.3990   32.4780   46.3730 C   0  0  0  0  0  0  0  0  0  0  0  0
   59.1630   33.2760   46.3970 N   0  0  0  0  0  0  0  0  0  0  0  0
   57.9770   32.5910   45.3130 S   0  0  0  0  0  0  0  0  0  0  0  0
   58.3690   32.8960   43.8930 O   0  0  0  0  0  0  0  0  0  0  0  0
   56.6370   33.2240   45.5710 O   0  0  0  0  0  0  0  0  0  0  0  0
   57.8460   30.8420   45.5150 C   0  0  0  0  0  0  0  0  0  0  0  0
   57.2260   30.0610   44.5310 C   0  0  0  0  0  0  0  0  0  0  0  0
   57.1120   28.6780   44.6980 C   0  0  0  0  0  0  0  0  0  0  0  0
   57.6090   28.0590   45.8580 C   0  0  0  0  0  0  0  0  0  0  0  0
   57.5250   26.6380   46.0460 N   0  0  0  0  0  0  0  0  0  0  0  0
   56.2890   25.9040   46.1030 C   0  0  0  0  0  0  0  0  0  0  0  0
   55.1820   26.5000   46.0060 O   0  0  0  0  0  0  0  0  0  0  0  0
   56.3010   24.4340   46.2570 C   0  0  0  0  0  0  0  0  0  0  0  0
   56.2040   23.9050   47.5510 C   0  0  0  0  0  0  0  0  0  0  0  0
   56.1580   22.5100   47.7470 C   0  0  0  0  0  0  0  0  0  0  0  0
   56.0340   21.8500   49.1060 C   0  0  0  0  0  0  0  0  0  0  0  0
   57.1690   22.0720   50.0970 C   0  0  0  0  0  0  0  0  0  0  0  0
   56.9960   20.7150   49.4250 C   0  0  0  0  0  0  0  0  0  0  0  0
   56.2190   21.6920   46.6640 N   0  0  0  0  0  0  0  0  0  0  0  0
   56.3350   22.1600   45.3950 C   0  0  0  0  0  0  0  0  0  0  0  0
   56.4120   21.2550   44.3290 C   0  0  0  0  0  0  0  0  0  0  0  0
   56.5660   21.7210   43.0220 C   0  0  0  0  0  0  0  0  0  0  0  0
   56.6540   23.0920   42.7730 C   0  0  0  0  0  0  0  0  0  0  0  0
   56.5760   24.0060   43.8280 C   0  0  0  0  0  0  0  0  0  0  0  0
   56.3940   23.5540   45.1530 C   0  0  0  0  0  0  0  0  0  0  0  0
   58.2530   28.8430   46.8270 C   0  0  0  0  0  0  0  0  0  0  0  0
   58.3650   30.2250   46.6600 C   0  0  0  0  0  0  0  0  0  0  0  0
   58.6140   33.3560   47.7670 C   0  0  0  0  0  0  0  0  0  0  0  0
   59.6970   33.6990   48.8160 C   0  0  0  0  0  0  0  0  0  0  0  0
   61.6175   34.4356   50.2118 H   0  0  0  0  0  0  0  0  0  0  0  0
   62.9104   33.9109   49.0806 H   0  0  0  0  0  0  0  0  0  0  0  0
   62.3559   35.6195   49.0806 H   0  0  0  0  0  0  0  0  0  0  0  0
   60.7334   35.1553   47.6148 H   0  0  0  0  0  0  0  0  0  0  0  0
   62.1572   33.7343   46.4039 H   0  0  0  0  0  0  0  0  0  0  0  0
   62.0977   32.4481   47.6880 H   0  0  0  0  0  0  0  0  0  0  0  0
   60.7086   32.3213   45.3292 H   0  0  0  0  0  0  0  0  0  0  0  0
   60.2077   31.5109   46.8609 H   0  0  0  0  0  0  0  0  0  0  0  0
   56.8274   30.5380   43.6235 H   0  0  0  0  0  0  0  0  0  0  0  0
   56.6307   28.0706   43.9173 H   0  0  0  0  0  0  0  0  0  0  0  0
   58.4130   26.1200   46.2350 H   0  0  0  0  0  0  0  0  0  0  0  0
   56.1636   24.5814   48.4175 H   0  0  0  0  0  0  0  0  0  0  0  0
   54.9413   21.9734   49.1331 H   0  0  0  0  0  0  0  0  0  0  0  0
   58.0184   22.7161   49.8256 H   0  0  0  0  0  0  0  0  0  0  0  0
   57.2363   22.4223   51.1376 H   0  0  0  0  0  0  0  0  0  0  0  0
   57.7208   20.3794   48.6687 H   0  0  0  0  0  0  0  0  0  0  0  0
   56.8869   19.6796   49.7799 H   0  0  0  0  0  0  0  0  0  0  0  0
   56.3510   20.1738   44.5221 H   0  0  0  0  0  0  0  0  0  0  0  0
   56.6181   21.0068   42.1870 H   0  0  0  0  0  0  0  0  0  0  0  0
   56.7852   23.4544   41.7427 H   0  0  0  0  0  0  0  0  0  0  0  0
   56.6569   25.0840   43.6244 H   0  0  0  0  0  0  0  0  0  0  0  0
   58.6727   28.3657   47.7248 H   0  0  0  0  0  0  0  0  0  0  0  0
   58.8629   30.8313   47.4310 H   0  0  0  0  0  0  0  0  0  0  0  0
   57.8383   34.1356   47.7919 H   0  0  0  0  0  0  0  0  0  0  0  0
   58.2009   32.3687   48.0214 H   0  0  0  0  0  0  0  0  0  0  0  0
   59.3032   34.4679   49.4970 H   0  0  0  0  0  0  0  0  0  0  0  0
   59.9478   32.7789   49.3642 H   0  0  0  0  0  0  0  0  0  0  0  0
  1  2  1  0
  2  3  1  0
  3  4  1  0
  4  5  1  0
  5  6  1  0
  6  7  2  0
  6  8  2  0
  6  9  1  0
  9 10  2  0
 10 11  1  0
 11 12  2  0
 12 13  1  0
 13 14  1  0
 14 15  2  0
 14 16  1  0
 16 17  2  0
 17 18  1  0
 18 19  1  0
 19 20  1  0
 20 21  1  0
 18 22  2  0
 22 23  1  0
 23 24  2  0
 24 25  1  0
 25 26  2  0
 26 27  1  0
 27 28  2  0
 12 29  1  0
 29 30  2  0
  5 31  1  0
 31 32  1  0
 32  2  1  0
 30  9  1  0
 28 16  1  0
 21 19  1  0
 28 23  1  0
  1 33  1  0
  1 34  1  0
  1 35  1  0
  2 36  1  0
  3 37  1  0
  3 38  1  0
  4 39  1  0
  4 40  1  0
 10 41  1  0
 11 42  1  0
 13 43  1  0
 17 44  1  0
 19 45  1  0
 20 46  1  0
 20 47  1  0
 21 48  1  0
 21 49  1  0
 24 50  1  0
 25 51  1  0
 26 52  1  0
 27 53  1  0
 29 54  1  0
 30 55  1  0
 31 56  1  0
 31 57  1  0
 32 58  1  0
 32 59  1  0
M  END
>  <UniqueID>  (38) 
38

>  <SMILES>  (38) 
CC1CCN(S(=O)(=O)c2ccc(NC(=O)c3cc(C4CC4)nc4ccccc34)cc2)CC1

>  <Energy>  (38) 
345.6838558464209

>  <Genealogy>  (38) 
CC1CCN(S(=O)(=O)c2ccc(NC(=O)c3cc(C4CC4)nc4ccccc34)cc2)CC1 (3D coordinates assigned)
CC1CCN(S(=O)(=O)c2ccc(NC(=O)c3cc(C4CC4)nc4ccccc34)cc2)CC1 (nonaromatic ring conformer: 345.6838558464209 kcal/mol)

>  <smiles>  (38) 
CC1CCN(S(=O)(=O)c2ccc(NC(=O)c3cc(C4CC4)nc4ccccc34)cc2)CC1

>  <score_type>  (38) 
oracle

>  <origin>  (38) 
adg

>  <m_score__min__energy>  (38) 
-9.6300000000000008

>  <m_primary>  (38) 
energy

$$$$
38:0
     RDKit          3D

 51 53  0  0  0  0  0  0  0  0999 V2000
   55.1400   29.2950   44.8260 N   0  0  0  0  0  0  0  0  0  0  0  0
   56.3070   30.0150   44.4280 C   0  0  0  0  0  0  0  0  0  0  0  0
   56.3170   31.2760   44.4910 O   0  0  0  0  0  0  0  0  0  0  0  0
   57.4900   29.2650   43.8890 C   0  0  0  0  0  0  0  0  0  0  0  0
   58.3960   28.7850   44.9950 C   0  0  0  0  0  0  0  0  0  0  0  0
   57.8570   28.3420   46.2110 C   0  0  0  0  0  0  0  0  0  0  0  0
   58.6970   27.8980   47.2360 C   0  0  0  0  0  0  0  0  0  0  0  0
   60.0940   27.8990   47.0590 C   0  0  0  0  0  0  0  0  0  0  0  0
   60.9780   27.4700   48.0590 O   0  0  0  0  0  0  0  0  0  0  0  0
   60.5830   27.1010   49.3790 C   0  0  0  0  0  0  0  0  0  0  0  0
   60.5600   28.3160   50.2750 C   0  0  0  0  0  0  0  0  0  0  0  0
   60.3680   28.1430   51.4700 O   0  0  0  0  0  0  0  0  0  0  0  0
   60.7940   29.6690   49.7880 N   0  0  0  0  0  0  0  0  0  0  0  0
   59.6540   30.5390   50.1410 C   0  0  0  0  0  0  0  0  0  0  0  0
   59.7670   31.9050   49.4400 C   0  0  0  0  0  0  0  0  0  0  0  0
   61.1440   32.1460   48.9700 N   0  0  0  0  0  0  0  0  0  0  0  0
   61.4270   32.6030   47.6250 C   0  0  0  0  0  0  0  0  0  0  0  0
   62.5910   32.4690   47.1500 O   0  0  0  0  0  0  0  0  0  0  0  0
   60.3830   33.1720   46.7460 C   0  0  0  0  0  0  0  0  0  0  0  0
   59.3970   32.3280   46.2080 C   0  0  0  0  0  0  0  0  0  0  0  0
   58.3660   32.8530   45.4220 C   0  0  0  0  0  0  0  0  0  0  0  0
   58.3210   34.2220   45.1570 C   0  0  0  0  0  0  0  0  0  0  0  0
   59.3260   35.0630   45.6480 C   0  0  0  0  0  0  0  0  0  0  0  0
   60.3580   34.5420   46.4340 C   0  0  0  0  0  0  0  0  0  0  0  0
   62.2320   31.7270   49.8660 C   0  0  0  0  0  0  0  0  0  0  0  0
   62.0720   30.2470   50.2730 C   0  0  0  0  0  0  0  0  0  0  0  0
   60.6270   28.3460   45.8480 C   0  0  0  0  0  0  0  0  0  0  0  0
   59.7880   28.7840   44.8190 C   0  0  0  0  0  0  0  0  0  0  0  0
   55.1660   28.6270   45.6290 H   0  0  0  0  0  0  0  0  0  0  0  0
   57.1314   28.3953   43.3190 H   0  0  0  0  0  0  0  0  0  0  0  0
   58.0651   29.9473   43.2458 H   0  0  0  0  0  0  0  0  0  0  0  0
   56.7670   28.3439   46.3592 H   0  0  0  0  0  0  0  0  0  0  0  0
   58.2652   27.5464   48.1846 H   0  0  0  0  0  0  0  0  0  0  0  0
   59.5782   26.6546   49.3462 H   0  0  0  0  0  0  0  0  0  0  0  0
   61.3042   26.3733   49.7793 H   0  0  0  0  0  0  0  0  0  0  0  0
   60.8510   29.6240   48.7430 H   0  0  0  0  0  0  0  0  0  0  0  0
   58.7187   30.0509   49.8298 H   0  0  0  0  0  0  0  0  0  0  0  0
   59.6596   30.7010   51.2290 H   0  0  0  0  0  0  0  0  0  0  0  0
   59.0841   31.9244   48.5778 H   0  0  0  0  0  0  0  0  0  0  0  0
   59.5002   32.6918   50.1609 H   0  0  0  0  0  0  0  0  0  0  0  0
   59.4361   31.2467   46.4063 H   0  0  0  0  0  0  0  0  0  0  0  0
   57.5916   32.1873   45.0133 H   0  0  0  0  0  0  0  0  0  0  0  0
   57.4956   34.6403   44.5622 H   0  0  0  0  0  0  0  0  0  0  0  0
   59.3038   36.1377   45.4147 H   0  0  0  0  0  0  0  0  0  0  0  0
   61.1515   35.2053   46.8087 H   0  0  0  0  0  0  0  0  0  0  0  0
   63.1942   31.8562   49.3488 H   0  0  0  0  0  0  0  0  0  0  0  0
   62.1973   32.3467   50.7742 H   0  0  0  0  0  0  0  0  0  0  0  0
   62.9062   29.6700   49.8474 H   0  0  0  0  0  0  0  0  0  0  0  0
   62.0709   30.1964   51.3718 H   0  0  0  0  0  0  0  0  0  0  0  0
   61.7173   28.3535   45.7024 H   0  0  0  0  0  0  0  0  0  0  0  0
   60.2206   29.1290   43.8683 H   0  0  0  0  0  0  0  0  0  0  0  0
  1  2  1  0
  2  3  2  0
  2  4  1  0
  4  5  1  0
  5  6  2  0
  6  7  1  0
  7  8  2  0
  8  9  1  0
  9 10  1  0
 10 11  1  0
 11 12  2  0
 11 13  1  0
 13 14  1  0
 14 15  1  0
 15 16  1  0
 16 17  1  0
 17 18  2  0
 17 19  1  0
 19 20  2  0
 20 21  1  0
 21 22  2  0
 22 23  1  0
 23 24  2  0
 16 25  1  0
 25 26  1  0
  8 27  1  0
 27 28  2  0
 28  5  1  0
 26 13  1  0
 24 19  1  0
  1 29  1  0
  4 30  1  0
  4 31  1  0
  6 32  1  0
  7 33  1  0
 10 34  1  0
 10 35  1  0
 13 36  1  0
 14 37  1  0
 14 38  1  0
 15 39  1  0
 15 40  1  0
 20 41  1  0
 21 42  1  0
 22 43  1  0
 23 44  1  0
 24 45  1  0
 25 46  1  0
 25 47  1  0
 26 48  1  0
 26 49  1  0
 27 50  1  0
 28 51  1  0
M  CHG  2   1  -1  13   1
M  END
>  <UniqueID>  (39) 
39

>  <SMILES>  (39) 
[NH-]C(=O)Cc1ccc(OCC(=O)[NH+]2CCN(C(=O)c3ccccc3)CC2)cc1

>  <Energy>  (39) 
67.96071809987575

>  <Genealogy>  (39) 
[NH-]C(=O)Cc1ccc(OCC(=O)[NH+]2CCN(C(=O)c3ccccc3)CC2)cc1 (protonated)
[NH-]C(=O)Cc1ccc(OCC(=O)[NH+]2CCN(C(=O)c3ccccc3)CC2)cc1 (3D coordinates assigned)
[NH-]C(=O)Cc1ccc(OCC(=O)[NH+]2CCN(C(=O)c3ccccc3)CC2)cc1 (nonaromatic ring conformer: 67.96071809987575 kcal/mol)

>  <smiles>  (39) 
NC(=O)Cc1ccc(OCC(=O)N2CCN(C(=O)c3ccccc3)CC2)cc1

>  <score_type>  (39) 
oracle

>  <origin>  (39) 
adg

>  <m_score__min__energy>  (39) 
-10.6

>  <m_primary>  (39) 
energy

$$$$
39:0
     RDKit          3D

 41 43  0  0  0  0  0  0  0  0999 V2000
   51.7610   23.8920   44.6770 H   0  0  0  0  0  0  0  0  0  0  0  0
   52.3400   23.0770   44.8400 O   0  0  0  0  0  0  0  0  0  0  0  0
   53.5400   23.1620   45.5410 C   0  0  0  0  0  0  0  0  0  0  0  0
   53.5570   22.9000   46.9140 C   0  0  0  0  0  0  0  0  0  0  0  0
   52.6248   22.6335   47.4336 H   0  0  0  0  0  0  0  0  0  0  0  0
   54.7550   22.9760   47.6270 C   0  0  0  0  0  0  0  0  0  0  0  0
   54.7652   22.7622   48.7060 H   0  0  0  0  0  0  0  0  0  0  0  0
   55.9420   23.3230   46.9740 C   0  0  0  0  0  0  0  0  0  0  0  0
   56.8834   23.3746   47.5406 H   0  0  0  0  0  0  0  0  0  0  0  0
   55.9380   23.6070   45.5930 C   0  0  0  0  0  0  0  0  0  0  0  0
   57.1700   23.9700   44.8470 C   0  0  0  0  0  0  0  0  0  0  0  0
   57.3195   23.5303   43.8498 H   0  0  0  0  0  0  0  0  0  0  0  0
   58.1110   24.8020   45.3170 C   0  0  0  0  0  0  0  0  0  0  0  0
   59.1571   24.6362   45.0201 H   0  0  0  0  0  0  0  0  0  0  0  0
   57.8010   25.9320   46.2170 C   0  0  0  0  0  0  0  0  0  0  0  0
   57.9680   25.7740   47.4560 O   0  0  0  0  0  0  0  0  0  0  0  0
   57.3140   27.2420   45.7270 C   0  0  0  0  0  0  0  0  0  0  0  0
   55.9420   27.5280   45.6200 C   0  0  0  0  0  0  0  0  0  0  0  0
   54.9870   26.5900   45.9940 O   0  0  0  0  0  0  0  0  0  0  0  0
   55.5340   28.7420   45.1660 N   0  0  0  0  0  0  0  0  0  0  0  0
   56.4130   29.7170   44.8150 C   0  0  0  0  0  0  0  0  0  0  0  0
   55.9710   30.8190   44.3950 O   0  0  0  0  0  0  0  0  0  0  0  0
   57.7980   29.4920   44.9280 C   0  0  0  0  0  0  0  0  0  0  0  0
   58.8050   30.5390   44.5180 C   0  0  0  0  0  0  0  0  0  0  0  0
   59.8165   30.1839   44.7644 H   0  0  0  0  0  0  0  0  0  0  0  0
   58.7160   30.7122   43.4354 H   0  0  0  0  0  0  0  0  0  0  0  0
   58.5450   31.8380   45.2420 C   0  0  0  0  0  0  0  0  0  0  0  0
   58.1640   32.9790   44.5150 C   0  0  0  0  0  0  0  0  0  0  0  0
   58.0317   32.9133   43.4250 H   0  0  0  0  0  0  0  0  0  0  0  0
   57.9520   34.1970   45.1680 C   0  0  0  0  0  0  0  0  0  0  0  0
   57.6500   35.0839   44.5917 H   0  0  0  0  0  0  0  0  0  0  0  0
   58.1230   34.2890   46.5500 C   0  0  0  0  0  0  0  0  0  0  0  0
   57.9567   35.2483   47.0619 H   0  0  0  0  0  0  0  0  0  0  0  0
   58.5050   33.1640   47.2830 C   0  0  0  0  0  0  0  0  0  0  0  0
   58.6383   33.2398   48.3723 H   0  0  0  0  0  0  0  0  0  0  0  0
   58.7190   31.9410   46.6390 C   0  0  0  0  0  0  0  0  0  0  0  0
   59.0990   30.8350   47.3910 O   0  0  0  0  0  0  0  0  0  0  0  0
   58.2360   28.2430   45.3950 C   0  0  0  0  0  0  0  0  0  0  0  0
   59.3134   28.0483   45.5013 H   0  0  0  0  0  0  0  0  0  0  0  0
   54.7290   23.5100   44.8840 C   0  0  0  0  0  0  0  0  0  0  0  0
   54.7149   23.7091   43.8023 H   0  0  0  0  0  0  0  0  0  0  0  0
  1  2  1  0
  2  3  1  0
  3  4  2  0
  4  5  1  0
  4  6  1  0
  6  7  1  0
  6  8  2  0
  8  9  1  0
  8 10  1  0
 10 11  1  0
 11 12  1  0
 11 13  2  0
 13 14  1  0
 13 15  1  0
 15 16  2  0
 15 17  1  0
 17 18  2  0
 18 19  1  0
 18 20  1  0
 20 21  1  0
 21 22  2  0
 21 23  1  0
 23 24  1  0
 24 25  1  0
 24 26  1  0
 24 27  1  0
 27 28  2  0
 28 29  1  0
 28 30  1  0
 30 31  1  0
 30 32  2  0
 32 33  1  0
 32 34  1  0
 34 35  1  0
 34 36  2  0
 36 37  1  0
 23 38  2  0
 38 39  1  0
 10 40  2  0
 40 41  1  0
 40  3  1  0
 38 17  1  0
 36 27  1  0
M  CHG  3  19  -1  20  -1  37  -1
M  END
>  <UniqueID>  (40) 
40

>  <SMILES>  (40) 
O=C(/C=C/c1cccc(O)c1)c1cc(Cc2ccccc2[O-])c(=O)[n-]c1[O-]

>  <Energy>  (40) 
53.40652292644752

>  <Genealogy>  (40) 
O=C(C=Cc1cccc(O)c1)c1cc(Cc2ccccc2[O-])c(=O)[n-]c1[O-] (protonated)
O=C(/C=C/c1cccc(O)c1)c1cc(Cc2ccccc2[O-])c(=O)[n-]c1[O-] (cis-trans isomerization)
O=C(/C=C/c1cccc(O)c1)c1cc(Cc2ccccc2[O-])c(=O)[n-]c1[O-] (3D coordinates assigned)
O=C(/C=C/c1cccc(O)c1)c1cc(Cc2ccccc2[O-])c(=O)[n-]c1[O-] (optimized conformer: 53.40652292644752 kcal/mol)

>  <smiles>  (40) 
O=C(C=Cc1cccc(O)c1)c1cc(Cc2ccccc2O)c(=O)[nH]c1O

>  <score_type>  (40) 
oracle

>  <origin>  (40) 
adg

>  <m_score__min__energy>  (40) 
-15.949999999999999

>  <m_primary>  (40) 
energy

$$$$
40:0
     RDKit          3D

 58 61  0  0  0  0  0  0  0  0999 V2000
   52.6830   31.1980   55.4210 C   0  0  0  0  0  0  0  0  0  0  0  0
   53.3730   30.5190   54.4870 C   0  0  0  0  0  0  0  0  0  0  0  0
   52.9310   30.1600   53.2010 C   0  0  0  0  0  0  0  0  0  0  0  0
   51.7090   30.2060   52.6370 C   0  0  0  0  0  0  0  0  0  0  0  0
   51.4050   30.6920   51.2800 C   0  0  0  0  0  0  0  0  0  0  0  0
   51.5010   29.9490   50.1600 N   0  0  0  0  0  0  0  0  0  0  0  0
   51.2390   30.8400   49.1760 C   0  0  0  0  0  0  0  0  0  0  0  0
   51.2150   30.5180   47.9600 O   0  0  0  0  0  0  0  0  0  0  0  0
   51.0130   32.1020   49.5980 N   0  0  0  0  0  0  0  0  0  0  0  0
   51.1370   31.9910   50.9310 C   0  0  0  0  0  0  0  0  0  0  0  0
   51.0140   33.0600   51.8090 O   0  0  0  0  0  0  0  0  0  0  0  0
   54.0460   29.6910   52.5250 C   0  0  0  0  0  0  0  0  0  0  0  0
   55.0980   29.7210   53.4170 C   0  0  0  0  0  0  0  0  0  0  0  0
   56.4710   29.2720   53.1040 C   0  0  0  0  0  0  0  0  0  0  0  0
   56.9670   28.3360   53.7930 O   0  0  0  0  0  0  0  0  0  0  0  0
   57.2450   29.8650   52.0380 N   0  0  0  0  0  0  0  0  0  0  0  0
   58.5850   29.3360   51.7410 C   0  0  0  0  0  0  0  0  0  0  0  0
   58.9600   29.5660   50.2720 C   0  0  0  0  0  0  0  0  0  0  0  0
   58.6910   30.9460   49.8420 N   0  0  0  0  0  0  0  0  0  0  0  0
   59.2850   31.4280   48.6200 C   0  0  0  0  0  0  0  0  0  0  0  0
   60.1790   30.7540   48.0410 O   0  0  0  0  0  0  0  0  0  0  0  0
   58.8600   32.6630   48.0310 N   0  0  0  0  0  0  0  0  0  0  0  0
   57.6120   32.7220   47.2700 C   0  0  0  0  0  0  0  0  0  0  0  0
   57.8370   33.4460   45.9280 C   0  0  0  0  0  0  0  0  0  0  0  0
   58.7880   34.5900   46.0040 N   0  0  0  0  0  0  0  0  0  0  0  0
   60.0080   34.3440   45.2120 C   0  0  0  0  0  0  0  0  0  0  0  0
   59.1060   35.0250   47.3850 C   0  0  0  0  0  0  0  0  0  0  0  0
   59.6640   33.8700   48.2300 C   0  0  0  0  0  0  0  0  0  0  0  0
   57.9690   31.8610   50.7380 C   0  0  0  0  0  0  0  0  0  0  0  0
   56.8090   31.1340   51.4260 C   0  0  0  0  0  0  0  0  0  0  0  0
   54.6910   30.2100   54.6140 N   0  0  0  0  0  0  0  0  0  0  0  0
   55.5410   30.5020   55.7740 C   0  0  0  0  0  0  0  0  0  0  0  0
   53.1449   31.4173   56.3949 H   0  0  0  0  0  0  0  0  0  0  0  0
   51.6569   31.5340   55.2108 H   0  0  0  0  0  0  0  0  0  0  0  0
   50.8632   29.8492   53.2431 H   0  0  0  0  0  0  0  0  0  0  0  0
   54.0849   29.3583   51.4772 H   0  0  0  0  0  0  0  0  0  0  0  0
   59.3209   29.8428   52.3826 H   0  0  0  0  0  0  0  0  0  0  0  0
   58.5821   28.2530   51.9339 H   0  0  0  0  0  0  0  0  0  0  0  0
   60.0322   29.3568   50.1427 H   0  0  0  0  0  0  0  0  0  0  0  0
   58.3450   28.8934   49.6561 H   0  0  0  0  0  0  0  0  0  0  0  0
   57.2570   31.6992   47.0754 H   0  0  0  0  0  0  0  0  0  0  0  0
   56.8627   33.2764   47.8542 H   0  0  0  0  0  0  0  0  0  0  0  0
   58.2311   32.7171   45.2045 H   0  0  0  0  0  0  0  0  0  0  0  0
   56.8646   33.8624   45.6263 H   0  0  0  0  0  0  0  0  0  0  0  0
   60.8570   34.1728   45.8901 H   0  0  0  0  0  0  0  0  0  0  0  0
   59.8608   33.4575   44.5777 H   0  0  0  0  0  0  0  0  0  0  0  0
   60.2159   35.2183   44.5777 H   0  0  0  0  0  0  0  0  0  0  0  0
   59.8550   35.8294   47.3418 H   0  0  0  0  0  0  0  0  0  0  0  0
   58.1765   35.3769   47.8563 H   0  0  0  0  0  0  0  0  0  0  0  0
   60.7026   33.6684   47.9289 H   0  0  0  0  0  0  0  0  0  0  0  0
   59.6289   34.1532   49.2923 H   0  0  0  0  0  0  0  0  0  0  0  0
   58.6625   32.2411   51.5026 H   0  0  0  0  0  0  0  0  0  0  0  0
   57.5648   32.6945   50.1448 H   0  0  0  0  0  0  0  0  0  0  0  0
   56.3962   31.7847   52.2110 H   0  0  0  0  0  0  0  0  0  0  0  0
   56.0496   30.9035   50.6643 H   0  0  0  0  0  0  0  0  0  0  0  0
   54.9780   30.3086   56.6990 H   0  0  0  0  0  0  0  0  0  0  0  0
   56.4329   29.8587   55.7463 H   0  0  0  0  0  0  0  0  0  0  0  0
   55.8493   31.5576   55.7463 H   0  0  0  0  0  0  0  0  0  0  0  0
  1  2  2  0
  2  3  1  0
  3  4  2  3
  4  5  1  0
  5  6  1  0
  6  7  1  0
  7  8  2  0
  7  9  1  0
  9 10  1  0
 10 11  1  0
  3 12  1  0
 12 13  2  0
 13 14  1  0
 14 15  2  0
 14 16  1  0
 16 17  1  0
 17 18  1  0
 18 19  1  0
 19 20  1  0
 20 21  2  0
 20 22  1  0
 22 23  1  0
 23 24  1  0
 24 25  1  0
 25 26  1  0
 25 27  1  0
 27 28  1  0
 19 29  1  0
 29 30  1  0
 13 31  1  0
 31 32  1  0
 31  2  1  0
 10  5  2  0
 30 16  1  0
 28 22  1  0
  1 33  1  0
  1 34  1  0
  4 35  1  0
 12 36  1  0
 17 37  1  0
 17 38  1  0
 18 39  1  0
 18 40  1  0
 23 41  1  0
 23 42  1  0
 24 43  1  0
 24 44  1  0
 26 45  1  0
 26 46  1  0
 26 47  1  0
 27 48  1  0
 27 49  1  0
 28 50  1  0
 28 51  1  0
 29 52  1  0
 29 53  1  0
 30 54  1  0
 30 55  1  0
 32 56  1  0
 32 57  1  0
 32 58  1  0
M  CHG  3   6  -1   9  -1  11  -1
M  END
>  <UniqueID>  (41) 
41

>  <SMILES>  (41) 
C=c1c(=Cc2[n-]c(=O)[n-]c2[O-])cc(C(=O)N2CCN(C(=O)N3CCN(C)CC3)CC2)n1C

>  <Energy>  (41) 
148.22123542936308

>  <Genealogy>  (41) 
C=c1c(=Cc2[n-]c(=O)[n-]c2[O-])cc(C(=O)N2CCN(C(=O)N3CCN(C)CC3)CC2)n1C (protonated)
C=c1c(=Cc2[n-]c(=O)[n-]c2[O-])cc(C(=O)N2CCN(C(=O)N3CCN(C)CC3)CC2)n1C (3D coordinates assigned)
C=c1c(=Cc2[n-]c(=O)[n-]c2[O-])cc(C(=O)N2CCN(C(=O)N3CCN(C)CC3)CC2)n1C (nonaromatic ring conformer: 148.22123542936308 kcal/mol)

>  <smiles>  (41) 
C=c1c(=Cc2[nH]c(=O)[nH]c2O)cc(C(=O)N2CCN(C(=O)N3CCN(C)CC3)CC2)n1C

>  <score_type>  (41) 
oracle

>  <origin>  (41) 
adg

>  <m_score__min__energy>  (41) 
-17.440000000000001

>  <m_primary>  (41) 
energy

$$$$
41:0
     RDKit          3D

 46 48  0  0  0  0  0  0  0  0999 V2000
   56.2300   23.5890   43.1250 C   0  0  0  0  0  0  0  0  0  0  0  0
   56.9590   22.2800   43.4170 C   0  0  0  0  0  0  0  0  0  0  0  0
   57.9260   22.3800   44.6090 C   0  0  0  0  0  0  0  0  0  0  0  0
   57.2180   22.5560   45.9700 C   0  0  0  0  0  0  0  0  0  0  0  0
   57.7670   23.7240   46.8110 C   0  0  0  0  0  0  0  0  0  0  0  0
   57.1950   25.0220   46.3880 N   0  0  0  0  0  0  0  0  0  0  0  0
   55.8350   25.2140   46.3660 C   0  0  0  0  0  0  0  0  0  0  0  0
   55.0440   24.2900   46.6960 O   0  0  0  0  0  0  0  0  0  0  0  0
   55.3180   26.4080   45.9860 N   0  0  0  0  0  0  0  0  0  0  0  0
   56.1100   27.4430   45.6200 C   0  0  0  0  0  0  0  0  0  0  0  0
   55.5230   28.6500   45.2540 O   0  0  0  0  0  0  0  0  0  0  0  0
   57.5010   27.2940   45.6270 C   0  0  0  0  0  0  0  0  0  0  0  0
   58.3790   28.4200   45.2210 C   0  0  0  0  0  0  0  0  0  0  0  0
   59.0890   28.3000   44.1870 O   0  0  0  0  0  0  0  0  0  0  0  0
   58.4020   29.6910   45.9770 C   0  0  0  0  0  0  0  0  0  0  0  0
   58.7210   29.6720   47.1960 O   0  0  0  0  0  0  0  0  0  0  0  0
   58.0730   30.9400   45.3420 N   0  0  0  0  0  0  0  0  0  0  0  0
   57.5760   31.0560   43.9670 C   0  0  0  0  0  0  0  0  0  0  0  0
   57.7670   32.5360   43.5570 C   0  0  0  0  0  0  0  0  0  0  0  0
   58.3180   33.1640   44.7860 C   0  0  0  0  0  0  0  0  0  0  0  0
   58.6340   34.5080   44.9930 C   0  0  0  0  0  0  0  0  0  0  0  0
   59.1180   34.8980   46.2510 C   0  0  0  0  0  0  0  0  0  0  0  0
   59.2670   33.9460   47.2780 C   0  0  0  0  0  0  0  0  0  0  0  0
   58.9410   32.5980   47.0460 C   0  0  0  0  0  0  0  0  0  0  0  0
   58.4820   32.2310   45.7750 C   0  0  0  0  0  0  0  0  0  0  0  0
   58.0290   26.0430   46.0010 C   0  0  0  0  0  0  0  0  0  0  0  0
   59.2780   25.8580   45.9550 O   0  0  0  0  0  0  0  0  0  0  0  0
   55.9584   24.0767   44.0728 H   0  0  0  0  0  0  0  0  0  0  0  0
   56.8878   24.2538   42.5459 H   0  0  0  0  0  0  0  0  0  0  0  0
   55.3185   23.3798   42.5459 H   0  0  0  0  0  0  0  0  0  0  0  0
   56.2108   21.5044   43.6375 H   0  0  0  0  0  0  0  0  0  0  0  0
   57.5586   22.0336   42.5284 H   0  0  0  0  0  0  0  0  0  0  0  0
   58.5270   21.4595   44.6467 H   0  0  0  0  0  0  0  0  0  0  0  0
   58.5419   23.2772   44.4488 H   0  0  0  0  0  0  0  0  0  0  0  0
   56.1488   22.7354   45.7839 H   0  0  0  0  0  0  0  0  0  0  0  0
   57.3971   21.6357   46.5452 H   0  0  0  0  0  0  0  0  0  0  0  0
   57.5150   23.5512   47.8677 H   0  0  0  0  0  0  0  0  0  0  0  0
   58.8566   23.7670   46.6665 H   0  0  0  0  0  0  0  0  0  0  0  0
   58.1507   30.3986   43.2980 H   0  0  0  0  0  0  0  0  0  0  0  0
   56.5199   30.7561   43.8980 H   0  0  0  0  0  0  0  0  0  0  0  0
   58.4737   32.6244   42.7187 H   0  0  0  0  0  0  0  0  0  0  0  0
   56.8363   33.0102   43.2120 H   0  0  0  0  0  0  0  0  0  0  0  0
   58.5063   35.2456   44.1870 H   0  0  0  0  0  0  0  0  0  0  0  0
   59.3817   35.9499   46.4354 H   0  0  0  0  0  0  0  0  0  0  0  0
   59.6396   34.2579   48.2648 H   0  0  0  0  0  0  0  0  0  0  0  0
   59.0442   31.8488   47.8448 H   0  0  0  0  0  0  0  0  0  0  0  0
  1  2  1  0
  2  3  1  0
  3  4  1  0
  4  5  1  0
  5  6  1  0
  6  7  1  0
  7  8  2  0
  7  9  1  0
  9 10  1  0
 10 11  1  0
 10 12  2  0
 12 13  1  0
 13 14  2  0
 13 15  1  0
 15 16  2  0
 15 17  1  0
 17 18  1  0
 18 19  1  0
 19 20  1  0
 20 21  2  0
 21 22  1  0
 22 23  2  0
 23 24  1  0
 24 25  2  0
 12 26  1  0
 26 27  2  0
 26  6  1  0
 25 17  1  0
 25 20  1  0
  1 28  1  0
  1 29  1  0
  1 30  1  0
  2 31  1  0
  2 32  1  0
  3 33  1  0
  3 34  1  0
  4 35  1  0
  4 36  1  0
  5 37  1  0
  5 38  1  0
 18 39  1  0
 18 40  1  0
 19 41  1  0
 19 42  1  0
 21 43  1  0
 22 44  1  0
 23 45  1  0
 24 46  1  0
M  CHG  2   9  -1  11  -1
M  END
>  <UniqueID>  (42) 
42

>  <SMILES>  (42) 
CCCCCn1c(=O)[n-]c([O-])c(C(=O)C(=O)N2CCc3ccccc32)c1=O

>  <Energy>  (42) 
72.06640201280639

>  <Genealogy>  (42) 
CCCCCn1c(=O)[n-]c([O-])c(C(=O)C(=O)N2CCc3ccccc32)c1=O (protonated)
CCCCCn1c(=O)[n-]c([O-])c(C(=O)C(=O)N2CCc3ccccc32)c1=O (3D coordinates assigned)
CCCCCn1c(=O)[n-]c([O-])c(C(=O)C(=O)N2CCc3ccccc32)c1=O (nonaromatic ring conformer: 72.06640201280639 kcal/mol)

>  <smiles>  (42) 
CCCCCn1c(=O)[nH]c(O)c(C(=O)C(=O)N2CCc3ccccc32)c1=O

>  <score_type>  (42) 
oracle

>  <origin>  (42) 
adg

>  <m_score__min__energy>  (42) 
-13.460000000000001

>  <m_primary>  (42) 
energy

$$$$
42:0
     RDKit          3D

 45 47  0  0  0  0  0  0  0  0999 V2000
   54.3340   28.3020   53.4300 C   0  0  0  0  0  0  0  0  0  0  0  0
   54.6770   29.4550   52.8320 C   0  0  0  0  0  0  0  0  0  0  0  0
   53.8040   30.4550   52.3710 C   0  0  0  0  0  0  0  0  0  0  0  0
   52.4630   30.4690   52.2310 C   0  0  0  0  0  0  0  0  0  0  0  0
   51.7300   30.8190   51.0050 C   0  0  0  0  0  0  0  0  0  0  0  0
   51.7020   30.0680   49.8880 N   0  0  0  0  0  0  0  0  0  0  0  0
   51.0500   30.8520   49.0010 C   0  0  0  0  0  0  0  0  0  0  0  0
   50.8100   30.4860   47.8210 O   0  0  0  0  0  0  0  0  0  0  0  0
   50.6890   32.0630   49.4750 N   0  0  0  0  0  0  0  0  0  0  0  0
   51.1410   32.0310   50.7390 C   0  0  0  0  0  0  0  0  0  0  0  0
   51.0210   33.0900   51.6320 O   0  0  0  0  0  0  0  0  0  0  0  0
   54.6010   31.5240   52.0050 C   0  0  0  0  0  0  0  0  0  0  0  0
   55.9100   31.1320   52.1870 C   0  0  0  0  0  0  0  0  0  0  0  0
   57.0740   31.9740   51.8460 C   0  0  0  0  0  0  0  0  0  0  0  0
   57.2340   33.0670   52.4510 O   0  0  0  0  0  0  0  0  0  0  0  0
   57.9990   31.5890   50.8080 N   0  0  0  0  0  0  0  0  0  0  0  0
   58.7320   32.6410   50.0910 C   0  0  0  0  0  0  0  0  0  0  0  0
   59.7120   32.0420   49.0870 C   0  0  0  0  0  0  0  0  0  0  0  0
   60.4360   30.9430   49.7430 N   0  0  0  0  0  0  0  0  0  0  0  0
   61.5980   30.5330   48.9390 C   0  0  0  0  0  0  0  0  0  0  0  0
   59.5470   29.7860   49.9990 C   0  0  0  0  0  0  0  0  0  0  0  0
   58.1000   30.1860   50.3710 C   0  0  0  0  0  0  0  0  0  0  0  0
   55.9640   29.8790   52.6990 N   0  0  0  0  0  0  0  0  0  0  0  0
   57.1880   29.0930   52.9310 C   0  0  0  0  0  0  0  0  0  0  0  0
   57.8890   29.5690   54.1980 C   0  0  0  0  0  0  0  0  0  0  0  0
   55.1137   27.5943   53.7483 H   0  0  0  0  0  0  0  0  0  0  0  0
   53.2735   28.0656   53.6014 H   0  0  0  0  0  0  0  0  0  0  0  0
   51.8642   30.1943   53.1119 H   0  0  0  0  0  0  0  0  0  0  0  0
   54.2559   32.5019   51.6381 H   0  0  0  0  0  0  0  0  0  0  0  0
   58.0131   33.2780   49.5549 H   0  0  0  0  0  0  0  0  0  0  0  0
   59.3008   33.2317   50.8241 H   0  0  0  0  0  0  0  0  0  0  0  0
   59.1620   31.6566   48.2158 H   0  0  0  0  0  0  0  0  0  0  0  0
   60.4210   32.8110   48.7464 H   0  0  0  0  0  0  0  0  0  0  0  0
   62.4220   30.2423   49.6072 H   0  0  0  0  0  0  0  0  0  0  0  0
   61.3215   29.6781   48.3044 H   0  0  0  0  0  0  0  0  0  0  0  0
   61.9192   31.3721   48.3044 H   0  0  0  0  0  0  0  0  0  0  0  0
   59.5137   29.1658   49.0912 H   0  0  0  0  0  0  0  0  0  0  0  0
   59.9633   29.2445   50.8613 H   0  0  0  0  0  0  0  0  0  0  0  0
   57.4567   30.0434   49.4902 H   0  0  0  0  0  0  0  0  0  0  0  0
   57.7819   29.5500   51.2103 H   0  0  0  0  0  0  0  0  0  0  0  0
   56.9223   28.0312   53.0402 H   0  0  0  0  0  0  0  0  0  0  0  0
   57.8662   29.2252   52.0751 H   0  0  0  0  0  0  0  0  0  0  0  0
   57.3444   29.1992   55.0793 H   0  0  0  0  0  0  0  0  0  0  0  0
   58.9188   29.1826   54.2145 H   0  0  0  0  0  0  0  0  0  0  0  0
   57.9097   30.6687   54.2145 H   0  0  0  0  0  0  0  0  0  0  0  0
  1  2  2  0
  2  3  1  0
  3  4  2  3
  4  5  1  0
  5  6  1  0
  6  7  1  0
  7  8  2  0
  7  9  1  0
  9 10  1  0
 10 11  1  0
  3 12  1  0
 12 13  2  0
 13 14  1  0
 14 15  2  0
 14 16  1  0
 16 17  1  0
 17 18  1  0
 18 19  1  0
 19 20  1  0
 19 21  1  0
 21 22  1  0
 13 23  1  0
 23 24  1  0
 24 25  1  0
 23  2  1  0
 10  5  2  0
 22 16  1  0
  1 26  1  0
  1 27  1  0
  4 28  1  0
 12 29  1  0
 17 30  1  0
 17 31  1  0
 18 32  1  0
 18 33  1  0
 20 34  1  0
 20 35  1  0
 20 36  1  0
 21 37  1  0
 21 38  1  0
 22 39  1  0
 22 40  1  0
 24 41  1  0
 24 42  1  0
 25 43  1  0
 25 44  1  0
 25 45  1  0
M  CHG  3   6  -1   9  -1  11  -1
M  END
>  <UniqueID>  (43) 
43

>  <SMILES>  (43) 
C=c1c(=Cc2[n-]c(=O)[n-]c2[O-])cc(C(=O)N2CCN(C)CC2)n1CC

>  <Energy>  (43) 
123.0902347470234

>  <Genealogy>  (43) 
C=c1c(=Cc2[n-]c(=O)[n-]c2[O-])cc(C(=O)N2CCN(C)CC2)n1CC (protonated)
C=c1c(=Cc2[n-]c(=O)[n-]c2[O-])cc(C(=O)N2CCN(C)CC2)n1CC (3D coordinates assigned)
C=c1c(=Cc2[n-]c(=O)[n-]c2[O-])cc(C(=O)N2CCN(C)CC2)n1CC (nonaromatic ring conformer: 123.0902347470234 kcal/mol)

>  <smiles>  (43) 
C=c1c(=Cc2[nH]c(=O)[nH]c2O)cc(C(=O)N2CCN(C)CC2)n1CC

>  <score_type>  (43) 
oracle

>  <origin>  (43) 
adg

>  <m_score__min__energy>  (43) 
-15.83

>  <m_primary>  (43) 
energy

$$$$
43:0
     RDKit          3D

 68 72  0  0  0  0  0  0  0  0999 V2000
   55.3508   31.4138   52.3564 H   0  0  0  0  0  0  0  0  0  0  0  0
   56.4270   31.3540   52.1370 C   0  0  0  0  0  0  0  0  0  0  0  0
   56.8860   30.4430   51.2500 N   0  0  0  0  0  0  0  0  0  0  0  0
   58.2080   30.3160   50.9670 C   0  0  0  0  0  0  0  0  0  0  0  0
   58.5970   29.3300   50.0540 C   0  0  0  0  0  0  0  0  0  0  0  0
   57.8335   28.7127   49.5581 H   0  0  0  0  0  0  0  0  0  0  0  0
   59.9440   29.1250   49.7690 C   0  0  0  0  0  0  0  0  0  0  0  0
   60.4250   27.8830   48.6280 Cl  0  0  0  0  0  0  0  0  0  0  0  0
   60.9090   29.8960   50.4100 C   0  0  0  0  0  0  0  0  0  0  0  0
   61.9744   29.7235   50.1974 H   0  0  0  0  0  0  0  0  0  0  0  0
   60.5360   30.8880   51.3220 C   0  0  0  0  0  0  0  0  0  0  0  0
   61.3160   31.4725   51.8320 H   0  0  0  0  0  0  0  0  0  0  0  0
   59.1740   31.1550   51.6020 C   0  0  0  0  0  0  0  0  0  0  0  0
   58.6890   32.1680   52.5020 C   0  0  0  0  0  0  0  0  0  0  0  0
   59.3920   33.1080   53.0870 N   0  0  0  0  0  0  0  0  0  0  0  0
   60.8120   33.3360   53.3440 C   0  0  0  0  0  0  0  0  0  0  0  0
   61.2556   32.4118   53.7428 H   0  0  0  0  0  0  0  0  0  0  0  0
   60.9030   34.1593   54.0678 H   0  0  0  0  0  0  0  0  0  0  0  0
   61.5600   33.7360   52.0650 C   0  0  0  0  0  0  0  0  0  0  0  0
   62.3334   32.9842   51.8490 H   0  0  0  0  0  0  0  0  0  0  0  0
   62.0197   34.7235   52.2184 H   0  0  0  0  0  0  0  0  0  0  0  0
   60.6400   33.8170   50.9320 N   0  0  0  0  0  0  0  0  0  0  0  0
   59.6860   34.2000   51.1140 H   0  0  0  0  0  0  0  0  0  0  0  0
   61.0230   33.4480   49.5970 C   0  0  0  0  0  0  0  0  0  0  0  0
   62.2200   33.1310   49.3580 O   0  0  0  0  0  0  0  0  0  0  0  0
   60.0370   33.4460   48.4880 C   0  0  0  0  0  0  0  0  0  0  0  0
   59.3630   32.2690   48.1150 C   0  0  0  0  0  0  0  0  0  0  0  0
   59.5615   31.3316   48.6552 H   0  0  0  0  0  0  0  0  0  0  0  0
   58.4430   32.2820   47.0630 C   0  0  0  0  0  0  0  0  0  0  0  0
   57.9215   31.3551   46.7819 H   0  0  0  0  0  0  0  0  0  0  0  0
   58.1800   33.4690   46.3630 C   0  0  0  0  0  0  0  0  0  0  0  0
   57.2230   33.4750   45.1990 C   0  0  0  0  0  0  0  0  0  0  0  0
   56.3933   34.1619   45.4220 H   0  0  0  0  0  0  0  0  0  0  0  0
   57.7715   33.8012   44.3031 H   0  0  0  0  0  0  0  0  0  0  0  0
   56.6520   32.0720   44.9310 C   0  0  0  0  0  0  0  0  0  0  0  0
   57.0027   31.3894   45.7191 H   0  0  0  0  0  0  0  0  0  0  0  0
   55.5545   32.1466   44.9286 H   0  0  0  0  0  0  0  0  0  0  0  0
   57.0780   31.5410   43.6130 N   0  0  0  0  0  0  0  0  0  0  0  0
   58.5150   31.1940   43.5470 C   0  0  0  0  0  0  0  0  0  0  0  0
   58.7759   30.9574   42.5049 H   0  0  0  0  0  0  0  0  0  0  0  0
   59.0904   32.0564   43.9148 H   0  0  0  0  0  0  0  0  0  0  0  0
   58.8550   29.9850   44.4300 C   0  0  0  0  0  0  0  0  0  0  0  0
   59.7929   29.5326   44.0754 H   0  0  0  0  0  0  0  0  0  0  0  0
   58.9626   30.3285   45.4694 H   0  0  0  0  0  0  0  0  0  0  0  0
   57.7880   28.9810   44.3770 N   0  0  0  0  0  0  0  0  0  0  0  0
   57.9250   27.7800   45.1570 C   0  0  0  0  0  0  0  0  0  0  0  0
   59.1880   27.1850   45.3160 C   0  0  0  0  0  0  0  0  0  0  0  0
   60.0692   27.6346   44.8351 H   0  0  0  0  0  0  0  0  0  0  0  0
   59.3300   26.0250   46.0820 C   0  0  0  0  0  0  0  0  0  0  0  0
   60.3217   25.5648   46.2033 H   0  0  0  0  0  0  0  0  0  0  0  0
   58.2140   25.4490   46.6940 C   0  0  0  0  0  0  0  0  0  0  0  0
   58.3282   24.5388   47.3011 H   0  0  0  0  0  0  0  0  0  0  0  0
   56.9530   26.0290   46.5350 C   0  0  0  0  0  0  0  0  0  0  0  0
   56.0755   25.5731   47.0168 H   0  0  0  0  0  0  0  0  0  0  0  0
   56.8020   27.1880   45.7650 C   0  0  0  0  0  0  0  0  0  0  0  0
   55.5360   27.7340   45.5960 O   0  0  0  0  0  0  0  0  0  0  0  0
   56.8160   29.0270   43.2820 C   0  0  0  0  0  0  0  0  0  0  0  0
   57.3203   28.7526   42.3437 H   0  0  0  0  0  0  0  0  0  0  0  0
   56.0041   28.3204   43.5091 H   0  0  0  0  0  0  0  0  0  0  0  0
   56.2060   30.4370   43.1310 C   0  0  0  0  0  0  0  0  0  0  0  0
   55.9937   30.6072   42.0652 H   0  0  0  0  0  0  0  0  0  0  0  0
   55.3023   30.4557   43.7579 H   0  0  0  0  0  0  0  0  0  0  0  0
   58.8630   34.6410   46.7210 C   0  0  0  0  0  0  0  0  0  0  0  0
   58.6733   35.5742   46.1704 H   0  0  0  0  0  0  0  0  0  0  0  0
   59.7830   34.6300   47.7730 C   0  0  0  0  0  0  0  0  0  0  0  0
   60.3128   35.5551   48.0440 H   0  0  0  0  0  0  0  0  0  0  0  0
   57.3130   32.2140   52.7710 C   0  0  0  0  0  0  0  0  0  0  0  0
   56.9291   32.9451   53.4978 H   0  0  0  0  0  0  0  0  0  0  0  0
  1  2  1  0
  2  3  1  0
  3  4  1  0
  4  5  2  0
  5  6  1  0
  5  7  1  0
  7  8  1  0
  7  9  2  0
  9 10  1  0
  9 11  1  0
 11 12  1  0
 11 13  2  0
 13 14  1  0
 14 15  2  0
 15 16  1  0
 16 17  1  0
 16 18  1  0
 16 19  1  0
 19 20  1  0
 19 21  1  0
 19 22  1  0
 22 23  1  0
 22 24  1  0
 24 25  2  0
 24 26  1  0
 26 27  2  0
 27 28  1  0
 27 29  1  0
 29 30  1  0
 29 31  2  0
 31 32  1  0
 32 33  1  0
 32 34  1  0
 32 35  1  0
 35 36  1  0
 35 37  1  0
 35 38  1  0
 38 39  1  0
 39 40  1  0
 39 41  1  0
 39 42  1  0
 42 43  1  0
 42 44  1  0
 42 45  1  0
 45 46  1  0
 46 47  2  0
 47 48  1  0
 47 49  1  0
 49 50  1  0
 49 51  2  0
 51 52  1  0
 51 53  1  0
 53 54  1  0
 53 55  2  0
 55 56  1  0
 45 57  1  0
 57 58  1  0
 57 59  1  0
 57 60  1  0
 60 61  1  0
 60 62  1  0
 31 63  1  0
 63 64  1  0
 63 65  2  0
 65 66  1  0
 14 67  1  0
 67 68  1  0
 67  2  2  0
 13  4  1  0
 65 26  1  0
 60 38  1  0
 55 46  1  0
M  CHG  2   3  -1  56  -1
M  END
>  <UniqueID>  (44) 
44

>  <SMILES>  (44) 
O=C(NCC/N=c1/cc[n-]c2cc(Cl)ccc12)c1ccc(CCN2CCN(c3ccccc3[O-])CC2)cc1

>  <Energy>  (44) 
106.46456962616563

>  <Genealogy>  (44) 
O=C(NCCN=c1cc[n-]c2cc(Cl)ccc12)c1ccc(CCN2CCN(c3ccccc3[O-])CC2)cc1 (protonated)
O=C(NCC/N=c1/cc[n-]c2cc(Cl)ccc12)c1ccc(CCN2CCN(c3ccccc3[O-])CC2)cc1 (cis-trans isomerization)
O=C(NCC/N=c1/cc[n-]c2cc(Cl)ccc12)c1ccc(CCN2CCN(c3ccccc3[O-])CC2)cc1 (3D coordinates assigned)
O=C(NCC/N=c1/cc[n-]c2cc(Cl)ccc12)c1ccc(CCN2CCN(c3ccccc3[O-])CC2)cc1 (nonaromatic ring conformer: 106.46456962616563 kcal/mol)

>  <smiles>  (44) 
O=C(NCCN=c1cc[nH]c2cc(Cl)ccc12)c1ccc(CCN2CCN(c3ccccc3O)CC2)cc1

>  <score_type>  (44) 
oracle

>  <origin>  (44) 
adg

>  <m_score__min__energy>  (44) 
-14.27

>  <m_primary>  (44) 
energy

$$$$
44:0
     RDKit          3D

 64 67  0  0  0  0  0  0  0  0999 V2000
   57.7740   32.1490   51.3860 C   0  0  0  0  0  0  0  0  0  0  0  0
   58.5060   31.7780   50.2220 O   0  0  0  0  0  0  0  0  0  0  0  0
   58.8000   32.6460   49.1580 C   0  0  0  0  0  0  0  0  0  0  0  0
   58.2830   32.4420   47.8650 C   0  0  0  0  0  0  0  0  0  0  0  0
   58.6180   33.3120   46.8130 C   0  0  0  0  0  0  0  0  0  0  0  0
   58.0920   33.0880   45.4460 C   0  0  0  0  0  0  0  0  0  0  0  0
   57.2700   33.9090   44.9590 O   0  0  0  0  0  0  0  0  0  0  0  0
   58.4480   31.9350   44.6700 N   0  0  0  0  0  0  0  0  0  0  0  0
   58.1210   30.5710   44.9740 C   0  0  0  0  0  0  0  0  0  0  0  0
   56.9270   29.9790   44.5270 C   0  0  0  0  0  0  0  0  0  0  0  0
   56.6340   28.6520   44.8530 C   0  0  0  0  0  0  0  0  0  0  0  0
   57.5160   27.9080   45.6490 C   0  0  0  0  0  0  0  0  0  0  0  0
   57.1280   26.2440   46.0930 S   0  0  0  0  0  0  0  0  0  0  0  0
   57.5580   25.9980   47.5120 O   0  0  0  0  0  0  0  0  0  0  0  0
   55.6390   26.0450   46.0150 O   0  0  0  0  0  0  0  0  0  0  0  0
   57.9220   25.0940   45.0400 N   0  0  0  0  0  0  0  0  0  0  0  0
   57.8690   23.7400   45.6230 C   0  0  0  0  0  0  0  0  0  0  0  0
   58.0740   22.6740   44.5350 C   0  0  0  0  0  0  0  0  0  0  0  0
   57.0930   22.7020   43.5040 O   0  0  0  0  0  0  0  0  0  0  0  0
   56.4600   23.9650   43.3500 C   0  0  0  0  0  0  0  0  0  0  0  0
   57.3870   25.1540   43.6620 C   0  0  0  0  0  0  0  0  0  0  0  0
   58.7010   28.5040   46.1060 C   0  0  0  0  0  0  0  0  0  0  0  0
   58.9950   29.8310   45.7770 C   0  0  0  0  0  0  0  0  0  0  0  0
   59.4420   34.4140   47.0760 C   0  0  0  0  0  0  0  0  0  0  0  0
   59.9490   34.6300   48.3590 C   0  0  0  0  0  0  0  0  0  0  0  0
   59.6380   33.7430   49.4080 C   0  0  0  0  0  0  0  0  0  0  0  0
   60.1350   33.9170   50.7110 O   0  0  0  0  0  0  0  0  0  0  0  0
   61.3710   33.4010   51.2030 C   0  0  0  0  0  0  0  0  0  0  0  0
   62.5090   33.7940   50.2980 C   0  0  0  0  0  0  0  0  0  0  0  0
   63.1990   34.8010   50.6140 O   0  0  0  0  0  0  0  0  0  0  0  0
   62.8140   33.0640   49.0880 N   0  0  0  0  0  0  0  0  0  0  0  0
   63.9350   33.5130   48.2500 C   0  0  0  0  0  0  0  0  0  0  0  0
   63.7570   33.0280   46.8090 C   0  0  0  0  0  0  0  0  0  0  0  0
   63.5160   31.6360   46.7770 O   0  0  0  0  0  0  0  0  0  0  0  0
   62.2720   31.3590   47.3870 C   0  0  0  0  0  0  0  0  0  0  0  0
   62.3080   31.6980   48.8810 C   0  0  0  0  0  0  0  0  0  0  0  0
   58.3416   31.8613   52.2833 H   0  0  0  0  0  0  0  0  0  0  0  0
   57.6135   33.2372   51.3869 H   0  0  0  0  0  0  0  0  0  0  0  0
   56.8015   31.6350   51.3869 H   0  0  0  0  0  0  0  0  0  0  0  0
   57.6098   31.5929   47.6757 H   0  0  0  0  0  0  0  0  0  0  0  0
   56.2206   30.5625   43.9183 H   0  0  0  0  0  0  0  0  0  0  0  0
   55.7071   28.1892   44.4833 H   0  0  0  0  0  0  0  0  0  0  0  0
   58.6611   23.6410   46.3798 H   0  0  0  0  0  0  0  0  0  0  0  0
   56.8814   23.5908   46.0839 H   0  0  0  0  0  0  0  0  0  0  0  0
   59.0615   22.8328   44.0771 H   0  0  0  0  0  0  0  0  0  0  0  0
   57.9882   21.6949   45.0290 H   0  0  0  0  0  0  0  0  0  0  0  0
   56.1126   24.0568   42.3103 H   0  0  0  0  0  0  0  0  0  0  0  0
   55.6292   24.0025   44.0700 H   0  0  0  0  0  0  0  0  0  0  0  0
   58.2286   25.1434   42.9537 H   0  0  0  0  0  0  0  0  0  0  0  0
   56.7977   26.0779   43.5666 H   0  0  0  0  0  0  0  0  0  0  0  0
   59.4017   27.9251   46.7256 H   0  0  0  0  0  0  0  0  0  0  0  0
   59.9189   30.2955   46.1519 H   0  0  0  0  0  0  0  0  0  0  0  0
   59.6916   35.1146   46.2655 H   0  0  0  0  0  0  0  0  0  0  0  0
   60.5956   35.4987   48.5518 H   0  0  0  0  0  0  0  0  0  0  0  0
   61.5550   33.8031   52.2102 H   0  0  0  0  0  0  0  0  0  0  0  0
   61.3081   32.3033   51.2364 H   0  0  0  0  0  0  0  0  0  0  0  0
   63.9759   34.6122   48.2592 H   0  0  0  0  0  0  0  0  0  0  0  0
   64.8692   33.0946   48.6527 H   0  0  0  0  0  0  0  0  0  0  0  0
   62.9040   33.5528   46.3541 H   0  0  0  0  0  0  0  0  0  0  0  0
   64.6789   33.2404   46.2478 H   0  0  0  0  0  0  0  0  0  0  0  0
   61.4902   31.9604   46.9000 H   0  0  0  0  0  0  0  0  0  0  0  0
   62.0569   30.2860   47.2752 H   0  0  0  0  0  0  0  0  0  0  0  0
   61.2912   31.6223   49.2939 H   0  0  0  0  0  0  0  0  0  0  0  0
   62.9781   30.9897   49.3902 H   0  0  0  0  0  0  0  0  0  0  0  0
  1  2  1  0
  2  3  1  0
  3  4  2  0
  4  5  1  0
  5  6  1  0
  6  7  2  0
  6  8  1  0
  8  9  1  0
  9 10  2  0
 10 11  1  0
 11 12  2  0
 12 13  1  0
 13 14  2  0
 13 15  2  0
 13 16  1  0
 16 17  1  0
 17 18  1  0
 18 19  1  0
 19 20  1  0
 20 21  1  0
 12 22  1  0
 22 23  2  0
  5 24  2  0
 24 25  1  0
 25 26  2  0
 26 27  1  0
 27 28  1  0
 28 29  1  0
 29 30  2  0
 29 31  1  0
 31 32  1  0
 32 33  1  0
 33 34  1  0
 34 35  1  0
 35 36  1  0
 26  3  1  0
 36 31  1  0
 23  9  1  0
 21 16  1  0
  1 37  1  0
  1 38  1  0
  1 39  1  0
  4 40  1  0
 10 41  1  0
 11 42  1  0
 17 43  1  0
 17 44  1  0
 18 45  1  0
 18 46  1  0
 20 47  1  0
 20 48  1  0
 21 49  1  0
 21 50  1  0
 22 51  1  0
 23 52  1  0
 24 53  1  0
 25 54  1  0
 28 55  1  0
 28 56  1  0
 32 57  1  0
 32 58  1  0
 33 59  1  0
 33 60  1  0
 35 61  1  0
 35 62  1  0
 36 63  1  0
 36 64  1  0
M  CHG  1   8  -1
M  END
>  <UniqueID>  (45) 
45

>  <SMILES>  (45) 
COc1cc(C(=O)[N-]c2ccc(S(=O)(=O)N3CCOCC3)cc2)ccc1OCC(=O)N1CCOCC1

>  <Energy>  (45) 
84.73241268972015

>  <Genealogy>  (45) 
COc1cc(C(=O)[N-]c2ccc(S(=O)(=O)N3CCOCC3)cc2)ccc1OCC(=O)N1CCOCC1 (protonated)
COc1cc(C(=O)[N-]c2ccc(S(=O)(=O)N3CCOCC3)cc2)ccc1OCC(=O)N1CCOCC1 (3D coordinates assigned)
COc1cc(C(=O)[N-]c2ccc(S(=O)(=O)N3CCOCC3)cc2)ccc1OCC(=O)N1CCOCC1 (nonaromatic ring conformer: 84.73241268972015 kcal/mol)

>  <smiles>  (45) 
COc1cc(C(=O)Nc2ccc(S(=O)(=O)N3CCOCC3)cc2)ccc1OCC(=O)N1CCOCC1

>  <score_type>  (45) 
oracle

>  <origin>  (45) 
adg

>  <m_score__min__energy>  (45) 
-11.44

>  <m_primary>  (45) 
energy

$$$$
45:0
     RDKit          3D

 66 70  0  0  0  0  0  0  0  0999 V2000
   62.1370   33.8420   47.8360 C   0  0  0  0  0  0  0  0  0  0  0  0
   60.8830   33.7600   47.4080 C   0  0  0  0  0  0  0  0  0  0  0  0
   60.4800   33.1160   46.2500 O   0  0  0  0  0  0  0  0  0  0  0  0
   59.0900   33.2550   46.1410 C   0  0  0  0  0  0  0  0  0  0  0  0
   58.3490   32.6430   45.0140 C   0  0  0  0  0  0  0  0  0  0  0  0
   57.5160   33.3740   44.4140 O   0  0  0  0  0  0  0  0  0  0  0  0
   58.4320   31.2410   44.6640 N   0  0  0  0  0  0  0  0  0  0  0  0
   57.5680   30.7460   43.5760 C   0  0  0  0  0  0  0  0  0  0  0  0
   57.2320   29.2980   43.7760 C   0  0  0  0  0  0  0  0  0  0  0  0
   58.1500   28.4580   44.2630 C   0  0  0  0  0  0  0  0  0  0  0  0
   57.8600   27.0500   44.3870 N   0  0  0  0  0  0  0  0  0  0  0  0
   57.7690   26.2570   43.1890 C   0  0  0  0  0  0  0  0  0  0  0  0
   58.1410   26.7320   42.0810 O   0  0  0  0  0  0  0  0  0  0  0  0
   57.1500   24.9010   43.2140 C   0  0  0  0  0  0  0  0  0  0  0  0
   57.3180   24.2290   44.5460 C   0  0  0  0  0  0  0  0  0  0  0  0
   57.2470   22.8290   44.6050 C   0  0  0  0  0  0  0  0  0  0  0  0
   57.2760   22.1560   45.8390 C   0  0  0  0  0  0  0  0  0  0  0  0
   57.2260   20.7560   45.9280 O   0  0  0  0  0  0  0  0  0  0  0  0
   58.1070   19.9640   46.7190 C   0  0  0  0  0  0  0  0  0  0  0  0
   57.3420   22.8950   47.0260 C   0  0  0  0  0  0  0  0  0  0  0  0
   57.3470   22.1970   48.2450 O   0  0  0  0  0  0  0  0  0  0  0  0
   56.2470   22.1390   49.1480 C   0  0  0  0  0  0  0  0  0  0  0  0
   57.3940   24.2990   46.9690 C   0  0  0  0  0  0  0  0  0  0  0  0
   57.4230   24.9790   45.7330 C   0  0  0  0  0  0  0  0  0  0  0  0
   57.4600   26.5060   45.7050 C   0  0  1  0  0  0  0  0  0  0  0  0
   58.4020   27.0340   46.7760 C   0  0  0  0  0  0  0  0  0  0  0  0
   59.6070   26.3660   47.0500 C   0  0  0  0  0  0  0  0  0  0  0  0
   60.4770   26.8540   48.0270 C   0  0  0  0  0  0  0  0  0  0  0  0
   60.1520   28.0100   48.7410 C   0  0  0  0  0  0  0  0  0  0  0  0
   58.9480   28.6900   48.4810 C   0  0  0  0  0  0  0  0  0  0  0  0
   58.5770   29.8540   49.1700 O   0  0  0  0  0  0  0  0  0  0  0  0
   59.3810   31.0260   49.2580 C   0  0  0  0  0  0  0  0  0  0  0  0
   58.0800   28.1940   47.5000 C   0  0  0  0  0  0  0  0  0  0  0  0
   59.5240   28.9870   44.5720 C   0  0  0  0  0  0  0  0  0  0  0  0
   59.4340   30.3490   45.2780 C   0  0  0  0  0  0  0  0  0  0  0  0
   58.5850   33.9420   47.1740 C   0  0  0  0  0  0  0  0  0  0  0  0
   59.6990   34.3040   48.0330 C   0  0  0  0  0  0  0  0  0  0  0  0
   59.6380   34.9500   49.1130 O   0  0  0  0  0  0  0  0  0  0  0  0
   62.3654   34.3754   48.7705 H   0  0  0  0  0  0  0  0  0  0  0  0
   62.9476   33.3766   47.2561 H   0  0  0  0  0  0  0  0  0  0  0  0
   56.6376   31.3327   43.5597 H   0  0  0  0  0  0  0  0  0  0  0  0
   58.1067   30.8534   42.6230 H   0  0  0  0  0  0  0  0  0  0  0  0
   56.2283   28.9269   43.5214 H   0  0  0  0  0  0  0  0  0  0  0  0
   56.0757   24.9973   42.9981 H   0  0  0  0  0  0  0  0  0  0  0  0
   57.6551   24.2836   42.4566 H   0  0  0  0  0  0  0  0  0  0  0  0
   57.1676   22.2501   43.6731 H   0  0  0  0  0  0  0  0  0  0  0  0
   57.9055   20.1451   47.7851 H   0  0  0  0  0  0  0  0  0  0  0  0
   57.9475   18.8997   46.4914 H   0  0  0  0  0  0  0  0  0  0  0  0
   59.1484   20.2356   46.4914 H   0  0  0  0  0  0  0  0  0  0  0  0
   56.6204   22.1587   50.1825 H   0  0  0  0  0  0  0  0  0  0  0  0
   55.5883   23.0037   48.9794 H   0  0  0  0  0  0  0  0  0  0  0  0
   55.6828   21.2099   48.9794 H   0  0  0  0  0  0  0  0  0  0  0  0
   57.4124   24.8774   47.9045 H   0  0  0  0  0  0  0  0  0  0  0  0
   56.4325   26.8445   45.9039 H   0  0  0  0  0  0  0  0  0  0  0  0
   59.8664   25.4541   46.4922 H   0  0  0  0  0  0  0  0  0  0  0  0
   61.4200   26.3273   48.2349 H   0  0  0  0  0  0  0  0  0  0  0  0
   60.8405   28.3903   49.5100 H   0  0  0  0  0  0  0  0  0  0  0  0
   59.5518   31.2749   50.3158 H   0  0  0  0  0  0  0  0  0  0  0  0
   60.3468   30.8461   48.7631 H   0  0  0  0  0  0  0  0  0  0  0  0
   58.8655   31.8623   48.7631 H   0  0  0  0  0  0  0  0  0  0  0  0
   57.1354   28.7188   47.2941 H   0  0  0  0  0  0  0  0  0  0  0  0
   60.0467   28.2744   45.2269 H   0  0  0  0  0  0  0  0  0  0  0  0
   60.0756   29.1127   43.6287 H   0  0  0  0  0  0  0  0  0  0  0  0
   59.1601   30.1830   46.3303 H   0  0  0  0  0  0  0  0  0  0  0  0
   60.4154   30.8373   45.1865 H   0  0  0  0  0  0  0  0  0  0  0  0
   57.5255   34.1862   47.3406 H   0  0  0  0  0  0  0  0  0  0  0  0
  1  2  2  0
  2  3  1  0
  3  4  1  0
  4  5  1  0
  5  6  2  0
  5  7  1  0
  7  8  1  0
  8  9  1  0
  9 10  2  0
 10 11  1  0
 11 12  1  0
 12 13  2  0
 12 14  1  0
 14 15  1  0
 15 16  2  0
 16 17  1  0
 17 18  1  0
 18 19  1  0
 17 20  2  0
 20 21  1  0
 21 22  1  0
 20 23  1  0
 23 24  2  0
 24 25  1  0
 25 26  1  0
 26 27  2  0
 27 28  1  0
 28 29  2  0
 29 30  1  0
 30 31  1  0
 31 32  1  0
 30 33  2  0
 10 34  1  0
 34 35  1  0
  4 36  2  0
 36 37  1  0
 37 38  2  0
 37  2  1  0
 35  7  1  0
 25 11  1  0
 33 26  1  0
 24 15  1  0
  1 39  1  0
  1 40  1  0
  8 41  1  0
  8 42  1  0
  9 43  1  0
 14 44  1  0
 14 45  1  0
 16 46  1  0
 19 47  1  0
 19 48  1  0
 19 49  1  0
 22 50  1  0
 22 51  1  0
 22 52  1  0
 23 53  1  0
 25 54  1  1
 27 55  1  0
 28 56  1  0
 29 57  1  0
 32 58  1  0
 32 59  1  0
 32 60  1  0
 33 61  1  0
 34 62  1  0
 34 63  1  0
 35 64  1  0
 35 65  1  0
 36 66  1  0
M  END
>  <UniqueID>  (46) 
46

>  <SMILES>  (46) 
C=C1OC(C(=O)N2CC=C(N3C(=O)Cc4cc(OC)c(OC)cc4[C@H]3c3cccc(OC)c3)CC2)=CC1=O

>  <Energy>  (46) 
112.17403430201973

>  <Genealogy>  (46) 
C=C1OC(C(=O)N2CC=C(N3C(=O)Cc4cc(OC)c(OC)cc4[C@H]3c3cccc(OC)c3)CC2)=CC1=O (chirality)
C=C1OC(C(=O)N2CC=C(N3C(=O)Cc4cc(OC)c(OC)cc4[C@H]3c3cccc(OC)c3)CC2)=CC1=O (3D coordinates assigned)
C=C1OC(C(=O)N2CC=C(N3C(=O)Cc4cc(OC)c(OC)cc4[C@H]3c3cccc(OC)c3)CC2)=CC1=O (nonaromatic ring conformer: 112.17403430201973 kcal/mol)

>  <smiles>  (46) 
C=C1OC(C(=O)N2CC=C(N3C(=O)Cc4cc(OC)c(OC)cc4C3c3cccc(OC)c3)CC2)=CC1=O

>  <score_type>  (46) 
oracle

>  <origin>  (46) 
adg

>  <m_score__min__energy>  (46) 
-8.9399999999999995

>  <m_primary>  (46) 
energy

$$$$
46:0
     RDKit          3D

 43 45  0  0  0  0  0  0  0  0999 V2000
   57.0390   31.1390   42.2360 C   0  0  0  0  0  0  0  0  0  0  0  0
   57.5030   31.8160   43.2820 C   0  0  0  0  0  0  0  0  0  0  0  0
   58.2580   33.0150   43.2000 N   0  0  0  0  0  0  0  0  0  0  0  0
   58.5660   33.3850   44.5490 C   0  0  0  0  0  0  0  0  0  0  0  0
   59.4520   34.5500   44.8600 C   0  0  0  0  0  0  0  0  0  0  0  0
   58.0270   32.5310   45.4390 C   0  0  0  0  0  0  0  0  0  0  0  0
   58.1410   32.5490   46.9160 C   0  0  0  0  0  0  0  0  0  0  0  0
   57.3140   33.2500   47.5640 O   0  0  0  0  0  0  0  0  0  0  0  0
   59.2560   31.9170   47.6020 N   0  0  1  0  0  0  0  0  0  0  0  0
   60.1220   31.1910   46.6410 C   0  0  0  0  0  0  0  0  0  0  0  0
   59.6020   29.8190   46.2550 C   0  0  0  0  0  0  0  0  0  0  0  0
   58.8760   29.0460   47.1780 C   0  0  0  0  0  0  0  0  0  0  0  0
   58.4040   27.7790   46.8200 C   0  0  0  0  0  0  0  0  0  0  0  0
   58.6460   27.2780   45.5380 C   0  0  0  0  0  0  0  0  0  0  0  0
   59.3540   28.0450   44.6110 C   0  0  0  0  0  0  0  0  0  0  0  0
   59.8280   29.3120   44.9650 C   0  0  0  0  0  0  0  0  0  0  0  0
   60.0260   32.8750   48.4330 C   0  0  0  0  0  0  0  0  0  0  0  0
   61.4720   32.9230   48.0300 C   0  0  0  0  0  0  0  0  0  0  0  0
   62.5180   32.2890   48.6880 C   0  0  0  0  0  0  0  0  0  0  0  0
   63.7680   32.5610   48.1230 C   0  0  0  0  0  0  0  0  0  0  0  0
   63.7120   33.4130   47.0270 C   0  0  0  0  0  0  0  0  0  0  0  0
   62.1050   33.8300   46.7640 S   0  0  0  0  0  0  0  0  0  0  0  0
   57.3500   31.4800   44.6820 C   0  0  0  0  0  0  0  0  0  0  0  0
   56.7570   30.4730   45.1530 O   0  0  0  0  0  0  0  0  0  0  0  0
   56.4610   30.2160   42.3907 H   0  0  0  0  0  0  0  0  0  0  0  0
   57.2332   31.5019   41.2159 H   0  0  0  0  0  0  0  0  0  0  0  0
   58.5680   33.5030   42.3300 H   0  0  0  0  0  0  0  0  0  0  0  0
   59.5386   34.6639   45.9507 H   0  0  0  0  0  0  0  0  0  0  0  0
   60.4492   34.3776   44.4290 H   0  0  0  0  0  0  0  0  0  0  0  0
   59.0195   35.4650   44.4290 H   0  0  0  0  0  0  0  0  0  0  0  0
   58.8850   31.1860   48.2470 H   0  0  0  0  0  0  0  0  0  0  0  0
   60.2088   31.7974   45.7274 H   0  0  0  0  0  0  0  0  0  0  0  0
   61.0898   31.0353   47.1401 H   0  0  0  0  0  0  0  0  0  0  0  0
   58.6783   29.4393   48.1861 H   0  0  0  0  0  0  0  0  0  0  0  0
   57.8417   27.1762   47.5483 H   0  0  0  0  0  0  0  0  0  0  0  0
   58.2786   26.2793   45.2594 H   0  0  0  0  0  0  0  0  0  0  0  0
   59.5393   27.6520   43.6004 H   0  0  0  0  0  0  0  0  0  0  0  0
   60.3807   29.9147   44.2293 H   0  0  0  0  0  0  0  0  0  0  0  0
   59.5901   33.8782   48.3167 H   0  0  0  0  0  0  0  0  0  0  0  0
   59.9728   32.5408   49.4796 H   0  0  0  0  0  0  0  0  0  0  0  0
   62.3775   31.6391   49.5643 H   0  0  0  0  0  0  0  0  0  0  0  0
   64.7076   32.1398   48.5101 H   0  0  0  0  0  0  0  0  0  0  0  0
   64.5720   33.7559   46.4331 H   0  0  0  0  0  0  0  0  0  0  0  0
  1  2  2  0
  2  3  1  0
  3  4  1  0
  4  5  1  0
  4  6  2  0
  6  7  1  0
  7  8  2  0
  7  9  1  0
  9 10  1  0
 10 11  1  0
 11 12  2  0
 12 13  1  0
 13 14  2  0
 14 15  1  0
 15 16  2  0
  9 17  1  0
 17 18  1  0
 18 19  2  0
 19 20  1  0
 20 21  2  0
 21 22  1  0
  6 23  1  0
 23 24  2  0
 23  2  1  0
 16 11  1  0
 22 18  1  0
  1 25  1  0
  1 26  1  0
  3 27  1  0
  5 28  1  0
  5 29  1  0
  5 30  1  0
  9 31  1  1
 10 32  1  0
 10 33  1  0
 12 34  1  0
 13 35  1  0
 14 36  1  0
 15 37  1  0
 16 38  1  0
 17 39  1  0
 17 40  1  0
 19 41  1  0
 20 42  1  0
 21 43  1  0
M  CHG  1   9   1
M  END
>  <UniqueID>  (47) 
47

>  <SMILES>  (47) 
C=C1NC(C)=C(C(=O)[N@@H+](Cc2ccccc2)Cc2cccs2)C1=O

>  <Energy>  (47) 
102.81045680312765

>  <Genealogy>  (47) 
C=C1NC(C)=C(C(=O)[NH+](Cc2ccccc2)Cc2cccs2)C1=O (protonated)
C=C1NC(C)=C(C(=O)[N@@H+](Cc2ccccc2)Cc2cccs2)C1=O (chirality)
C=C1NC(C)=C(C(=O)[N@@H+](Cc2ccccc2)Cc2cccs2)C1=O (3D coordinates assigned)
C=C1NC(C)=C(C(=O)[N@@H+](Cc2ccccc2)Cc2cccs2)C1=O (nonaromatic ring conformer: 102.81045680312765 kcal/mol)

>  <smiles>  (47) 
C=C1NC(C)=C(C(=O)N(Cc2ccccc2)Cc2cccs2)C1=O

>  <score_type>  (47) 
oracle

>  <origin>  (47) 
adg

>  <m_score__min__energy>  (47) 
-6.4500000000000002

>  <m_primary>  (47) 
energy

$$$$
47:0
     RDKit          3D

 61 63  0  0  0  0  0  0  0  0999 V2000
   68.2770   37.7100   52.1670 C   0  0  0  0  0  0  0  0  0  0  0  0
   68.0370   36.2590   51.8700 C   0  0  0  0  0  0  0  0  0  0  0  0
   67.0100   35.5650   52.5230 C   0  0  0  0  0  0  0  0  0  0  0  0
   66.7620   34.2220   52.2210 C   0  0  0  0  0  0  0  0  0  0  0  0
   67.5380   33.5530   51.2610 C   0  0  0  0  0  0  0  0  0  0  0  0
   67.2710   32.0960   50.9340 C   0  0  0  0  0  0  0  0  0  0  0  0
   65.9450   31.8510   50.3240 N   0  0  0  0  0  0  0  0  0  0  0  0
   65.3250   33.0550   49.7510 C   0  0  0  0  0  0  0  0  0  0  0  0
   64.2050   32.6240   48.8080 C   0  0  0  0  0  0  0  0  0  0  0  0
   63.3310   31.6270   49.4440 N   0  0  0  0  0  0  0  0  0  0  0  0
   62.1230   31.2210   48.7640 C   0  0  0  0  0  0  0  0  0  0  0  0
   62.0160   31.3430   47.3690 C   0  0  0  0  0  0  0  0  0  0  0  0
   60.8390   30.9720   46.7110 C   0  0  0  0  0  0  0  0  0  0  0  0
   59.7390   30.4820   47.4350 C   0  0  0  0  0  0  0  0  0  0  0  0
   58.4930   30.1030   46.7270 C   0  0  0  0  0  0  0  0  0  0  0  0
   57.7720   31.0080   46.2220 O   0  0  0  0  0  0  0  0  0  0  0  0
   58.0890   28.7250   46.6220 N   0  0  0  0  0  0  0  0  0  0  0  0
   57.0440   28.2680   45.6960 C   0  0  2  0  0  0  0  0  0  0  0  0
   56.5440   26.9000   46.0870 C   0  0  0  0  0  0  0  0  0  0  0  0
   55.1460   26.6240   46.0460 N   0  0  0  0  0  0  0  0  0  0  0  0
   57.3510   25.9860   46.4120 O   0  0  0  0  0  0  0  0  0  0  0  0
   57.5470   28.2850   44.2270 C   0  0  0  0  0  0  0  0  0  0  0  0
   59.0780   28.2050   44.1120 C   0  0  0  0  0  0  0  0  0  0  0  0
   57.0290   29.5230   43.4800 C   0  0  0  0  0  0  0  0  0  0  0  0
   59.8530   30.3420   48.8290 C   0  0  0  0  0  0  0  0  0  0  0  0
   61.0290   30.7130   49.4860 C   0  0  0  0  0  0  0  0  0  0  0  0
   63.5380   31.2690   50.8550 C   0  0  0  0  0  0  0  0  0  0  0  0
   65.0320   31.0660   51.1880 C   0  0  0  0  0  0  0  0  0  0  0  0
   68.5410   34.2640   50.5790 C   0  0  0  0  0  0  0  0  0  0  0  0
   68.7870   35.6070   50.8800 C   0  0  0  0  0  0  0  0  0  0  0  0
   68.3022   37.8621   53.2561 H   0  0  0  0  0  0  0  0  0  0  0  0
   69.2385   38.0193   51.7313 H   0  0  0  0  0  0  0  0  0  0  0  0
   67.4663   38.3124   51.7313 H   0  0  0  0  0  0  0  0  0  0  0  0
   66.3956   36.0789   53.2770 H   0  0  0  0  0  0  0  0  0  0  0  0
   65.9532   33.6861   52.7393 H   0  0  0  0  0  0  0  0  0  0  0  0
   68.0442   31.7515   50.2316 H   0  0  0  0  0  0  0  0  0  0  0  0
   67.2904   31.5465   51.8867 H   0  0  0  0  0  0  0  0  0  0  0  0
   64.9112   33.6783   50.5574 H   0  0  0  0  0  0  0  0  0  0  0  0
   66.0768   33.6388   49.1996 H   0  0  0  0  0  0  0  0  0  0  0  0
   63.6057   33.5053   48.5356 H   0  0  0  0  0  0  0  0  0  0  0  0
   64.6569   32.1718   47.9129 H   0  0  0  0  0  0  0  0  0  0  0  0
   62.8651   31.7337   46.7890 H   0  0  0  0  0  0  0  0  0  0  0  0
   60.7738   31.0646   45.6168 H   0  0  0  0  0  0  0  0  0  0  0  0
   58.5920   28.0100   47.1940 H   0  0  0  0  0  0  0  0  0  0  0  0
   56.1998   28.9699   45.7637 H   0  0  0  0  0  0  0  0  0  0  0  0
   54.4870   27.0890   46.7080 H   0  0  0  0  0  0  0  0  0  0  0  0
   57.1385   27.3781   43.7573 H   0  0  0  0  0  0  0  0  0  0  0  0
   59.5206   28.1819   45.1188 H   0  0  0  0  0  0  0  0  0  0  0  0
   59.3575   27.2910   43.5675 H   0  0  0  0  0  0  0  0  0  0  0  0
   59.4513   29.0849   43.5675 H   0  0  0  0  0  0  0  0  0  0  0  0
   56.7106   30.2839   44.2078 H   0  0  0  0  0  0  0  0  0  0  0  0
   57.8312   29.9326   42.8486 H   0  0  0  0  0  0  0  0  0  0  0  0
   56.1741   29.2392   42.8486 H   0  0  0  0  0  0  0  0  0  0  0  0
   59.0095   29.9371   49.4074 H   0  0  0  0  0  0  0  0  0  0  0  0
   61.0995   30.6066   50.5786 H   0  0  0  0  0  0  0  0  0  0  0  0
   63.1396   32.0756   51.4880 H   0  0  0  0  0  0  0  0  0  0  0  0
   63.0160   30.3194   51.0443 H   0  0  0  0  0  0  0  0  0  0  0  0
   65.1991   31.3657   52.2331 H   0  0  0  0  0  0  0  0  0  0  0  0
   65.2592   30.0036   51.0157 H   0  0  0  0  0  0  0  0  0  0  0  0
   69.1363   33.7602   49.8032 H   0  0  0  0  0  0  0  0  0  0  0  0
   69.5721   36.1547   50.3381 H   0  0  0  0  0  0  0  0  0  0  0  0
  1  2  1  0
  2  3  2  0
  3  4  1  0
  4  5  2  0
  5  6  1  0
  6  7  1  0
  7  8  1  0
  8  9  1  0
  9 10  1  0
 10 11  1  0
 11 12  2  0
 12 13  1  0
 13 14  2  0
 14 15  1  0
 15 16  2  0
 15 17  1  0
 17 18  1  0
 18 19  1  0
 19 20  1  0
 19 21  2  0
 18 22  1  0
 22 23  1  0
 22 24  1  0
 14 25  1  0
 25 26  2  0
 10 27  1  0
 27 28  1  0
  5 29  1  0
 29 30  2  0
 30  2  1  0
 28  7  1  0
 26 11  1  0
  1 31  1  0
  1 32  1  0
  1 33  1  0
  3 34  1  0
  4 35  1  0
  6 36  1  0
  6 37  1  0
  8 38  1  0
  8 39  1  0
  9 40  1  0
  9 41  1  0
 12 42  1  0
 13 43  1  0
 17 44  1  0
 18 45  1  6
 20 46  1  0
 22 47  1  0
 23 48  1  0
 23 49  1  0
 23 50  1  0
 24 51  1  0
 24 52  1  0
 24 53  1  0
 25 54  1  0
 26 55  1  0
 27 56  1  0
 27 57  1  0
 28 58  1  0
 28 59  1  0
 29 60  1  0
 30 61  1  0
M  CHG  1  20  -1
M  END
>  <UniqueID>  (48) 
48

>  <SMILES>  (48) 
Cc1ccc(CN2CCN(c3ccc(C(=O)N[C@H](C([NH-])=O)C(C)C)cc3)CC2)cc1

>  <Energy>  (48) 
70.15224940858421

>  <Genealogy>  (48) 
Cc1ccc(CN2CCN(c3ccc(C(=O)NC(C([NH-])=O)C(C)C)cc3)CC2)cc1 (protonated)
Cc1ccc(CN2CCN(c3ccc(C(=O)N[C@H](C([NH-])=O)C(C)C)cc3)CC2)cc1 (chirality)
Cc1ccc(CN2CCN(c3ccc(C(=O)N[C@H](C([NH-])=O)C(C)C)cc3)CC2)cc1 (3D coordinates assigned)
Cc1ccc(CN2CCN(c3ccc(C(=O)N[C@H](C([NH-])=O)C(C)C)cc3)CC2)cc1 (nonaromatic ring conformer: 70.15224940858421 kcal/mol)

>  <smiles>  (48) 
Cc1ccc(CN2CCN(c3ccc(C(=O)NC(C(N)=O)C(C)C)cc3)CC2)cc1

>  <score_type>  (48) 
oracle

>  <origin>  (48) 
adg

>  <m_score__min__energy>  (48) 
-11.050000000000001

>  <m_primary>  (48) 
energy

$$$$
48:0
     RDKit          3D

 32 33  0  0  0  0  0  0  0  0999 V2000
   55.4770   29.3470   44.9440 N   0  0  0  0  0  0  0  0  0  0  0  0
   57.1940   29.4560   45.1040 S   0  0  0  0  0  0  0  0  0  0  0  0
   57.8520   28.7970   43.9240 O   0  0  0  0  0  0  0  0  0  0  0  0
   57.6250   28.7450   46.3560 O   0  0  0  0  0  0  0  0  0  0  0  0
   57.6700   31.1480   45.1870 C   0  0  0  0  0  0  0  0  0  0  0  0
   57.4010   32.0090   44.1150 C   0  0  0  0  0  0  0  0  0  0  0  0
   57.7690   33.3550   44.1860 C   0  0  0  0  0  0  0  0  0  0  0  0
   58.4060   33.8490   45.3270 C   0  0  0  0  0  0  0  0  0  0  0  0
   58.6840   32.9970   46.4090 C   0  0  0  0  0  0  0  0  0  0  0  0
   59.3770   33.5280   47.6470 C   0  0  0  0  0  0  0  0  0  0  0  0
   60.8480   33.3640   47.6280 N   0  0  0  0  0  0  0  0  0  0  0  0
   61.4400   33.6190   46.3000 C   0  0  0  0  0  0  0  0  0  0  0  0
   62.9530   33.8080   46.4460 C   0  0  0  0  0  0  0  0  0  0  0  0
   63.5490   32.7280   47.2300 N   0  0  0  0  0  0  0  0  0  0  0  0
   62.7810   31.9820   48.1820 C   0  0  0  0  0  0  0  0  0  0  0  0
   63.3610   31.2060   48.9870 O   0  0  0  0  0  0  0  0  0  0  0  0
   61.2840   32.0590   48.1620 C   0  0  0  0  0  0  0  0  0  0  0  0
   58.3000   31.6470   46.3350 C   0  0  0  0  0  0  0  0  0  0  0  0
   55.1540   28.6140   45.6140 H   0  0  0  0  0  0  0  0  0  0  0  0
   56.8988   31.6243   43.2151 H   0  0  0  0  0  0  0  0  0  0  0  0
   57.5567   34.0272   43.3416 H   0  0  0  0  0  0  0  0  0  0  0  0
   58.6913   34.9101   45.3785 H   0  0  0  0  0  0  0  0  0  0  0  0
   59.1492   34.6003   47.7383 H   0  0  0  0  0  0  0  0  0  0  0  0
   59.0015   32.9423   48.4990 H   0  0  0  0  0  0  0  0  0  0  0  0
   61.2390   32.7637   45.6381 H   0  0  0  0  0  0  0  0  0  0  0  0
   60.9959   34.5278   45.8678 H   0  0  0  0  0  0  0  0  0  0  0  0
   63.4109   33.8199   45.4459 H   0  0  0  0  0  0  0  0  0  0  0  0
   63.1357   34.7586   46.9685 H   0  0  0  0  0  0  0  0  0  0  0  0
   64.5890   32.6290   47.2310 H   0  0  0  0  0  0  0  0  0  0  0  0
   60.8873   31.2548   47.5249 H   0  0  0  0  0  0  0  0  0  0  0  0
   60.9050   31.9464   49.1885 H   0  0  0  0  0  0  0  0  0  0  0  0
   58.4956   30.9768   47.1850 H   0  0  0  0  0  0  0  0  0  0  0  0
  1  2  1  0
  2  3  2  0
  2  4  2  0
  2  5  1  0
  5  6  2  0
  6  7  1  0
  7  8  2  0
  8  9  1  0
  9 10  1  0
 10 11  1  0
 11 12  1  0
 12 13  1  0
 13 14  1  0
 14 15  1  0
 15 16  2  0
 15 17  1  0
  9 18  2  0
 18  5  1  0
 17 11  1  0
  1 19  1  0
  6 20  1  0
  7 21  1  0
  8 22  1  0
 10 23  1  0
 10 24  1  0
 12 25  1  0
 12 26  1  0
 13 27  1  0
 13 28  1  0
 14 29  1  0
 17 30  1  0
 17 31  1  0
 18 32  1  0
M  CHG  1   1  -1
M  END
>  <UniqueID>  (49) 
49

>  <SMILES>  (49) 
[NH-]S(=O)(=O)c1cccc(CN2CCNC(=O)C2)c1

>  <Energy>  (49) 
33.37018326439671

>  <Genealogy>  (49) 
[NH-]S(=O)(=O)c1cccc(CN2CCNC(=O)C2)c1 (protonated)
[NH-]S(=O)(=O)c1cccc(CN2CCNC(=O)C2)c1 (3D coordinates assigned)
[NH-]S(=O)(=O)c1cccc(CN2CCNC(=O)C2)c1 (nonaromatic ring conformer: 33.37018326439671 kcal/mol)

>  <smiles>  (49) 
NS(=O)(=O)c1cccc(CN2CCNC(=O)C2)c1

>  <score_type>  (49) 
oracle

>  <origin>  (49) 
adg

>  <m_score__min__energy>  (49) 
-10.24

>  <m_primary>  (49) 
energy

$$$$
49:0
     RDKit          3D

 51 53  0  0  0  0  0  0  0  0999 V2000
   50.7890   32.0010   53.1030 C   0  0  0  0  0  0  0  0  0  0  0  0
   51.6280   32.0090   51.4890 S   0  0  0  0  0  0  0  0  0  0  0  0
   52.9360   30.9060   52.0270 C   0  0  0  0  0  0  0  0  0  0  0  0
   52.6390   29.8250   52.8650 C   0  0  0  0  0  0  0  0  0  0  0  0
   53.6600   28.9770   53.2990 C   0  0  0  0  0  0  0  0  0  0  0  0
   54.9770   29.1980   52.8870 C   0  0  0  0  0  0  0  0  0  0  0  0
   55.2830   30.2590   52.0260 C   0  0  0  0  0  0  0  0  0  0  0  0
   56.6510   30.4600   51.6410 N   0  0  0  0  0  0  0  0  0  0  0  0
   57.2640   31.7070   51.2990 C   0  0  0  0  0  0  0  0  0  0  0  0
   57.2520   32.6710   52.1110 O   0  0  0  0  0  0  0  0  0  0  0  0
   57.8420   31.8590   49.9970 N   0  0  0  0  0  0  0  0  0  0  0  0
   58.8080   30.9530   49.3680 C   0  0  2  0  0  0  0  0  0  0  0  0
   58.8580   29.5970   50.0930 C   0  0  0  0  0  0  0  0  0  0  0  0
   59.7720   28.5940   49.3580 C   0  0  0  0  0  0  0  0  0  0  0  0
   60.9560   29.2530   48.6100 C   0  0  1  0  0  0  0  0  0  0  0  0
   60.5830   29.4730   47.2450 O   0  0  0  0  0  0  0  0  0  0  0  0
   59.3190   29.2270   46.6850 C   0  0  0  0  0  0  0  0  0  0  0  0
   58.6410   30.3030   46.1000 C   0  0  0  0  0  0  0  0  0  0  0  0
   57.3810   30.1210   45.5290 C   0  0  0  0  0  0  0  0  0  0  0  0
   56.7810   28.8590   45.5340 C   0  0  0  0  0  0  0  0  0  0  0  0
   55.5220   28.7020   44.9650 O   0  0  0  0  0  0  0  0  0  0  0  0
   57.4470   27.7660   46.1130 C   0  0  0  0  0  0  0  0  0  0  0  0
   56.6970   26.1690   46.1300 S   0  0  0  0  0  0  0  0  0  0  0  0
   57.2040   25.2700   47.5180 N   0  0  0  0  0  0  0  0  0  0  0  0
   55.2020   26.3230   46.1640 O   0  0  0  0  0  0  0  0  0  0  0  0
   57.0950   25.4100   44.8950 O   0  0  0  0  0  0  0  0  0  0  0  0
   58.7090   27.9570   46.6980 C   0  0  0  0  0  0  0  0  0  0  0  0
   61.3570   30.5820   49.2770 C   0  0  0  0  0  0  0  0  0  0  0  0
   60.2070   31.6080   49.2530 C   0  0  0  0  0  0  0  0  0  0  0  0
   54.2550   31.1260   51.6100 C   0  0  0  0  0  0  0  0  0  0  0  0
   51.5400   32.0082   53.9067 H   0  0  0  0  0  0  0  0  0  0  0  0
   50.1513   32.8931   53.1892 H   0  0  0  0  0  0  0  0  0  0  0  0
   50.1684   31.0969   53.1892 H   0  0  0  0  0  0  0  0  0  0  0  0
   51.6013   29.6434   53.1817 H   0  0  0  0  0  0  0  0  0  0  0  0
   53.4273   28.1339   53.9661 H   0  0  0  0  0  0  0  0  0  0  0  0
   55.7789   28.5338   53.2416 H   0  0  0  0  0  0  0  0  0  0  0  0
   58.4642   30.7550   48.3420 H   0  0  0  0  0  0  0  0  0  0  0  0
   59.2431   29.7508   51.1118 H   0  0  0  0  0  0  0  0  0  0  0  0
   57.8398   29.1815   50.1168 H   0  0  0  0  0  0  0  0  0  0  0  0
   60.1794   27.8902   50.0987 H   0  0  0  0  0  0  0  0  0  0  0  0
   59.1522   28.0966   48.5975 H   0  0  0  0  0  0  0  0  0  0  0  0
   61.8260   28.5812   48.6519 H   0  0  0  0  0  0  0  0  0  0  0  0
   59.1054   31.3001   46.0904 H   0  0  0  0  0  0  0  0  0  0  0  0
   56.8578   30.9744   45.0730 H   0  0  0  0  0  0  0  0  0  0  0  0
   56.3610   24.7730   47.8850 H   0  0  0  0  0  0  0  0  0  0  0  0
   59.2256   27.1084   47.1702 H   0  0  0  0  0  0  0  0  0  0  0  0
   61.6359   30.3850   50.3227 H   0  0  0  0  0  0  0  0  0  0  0  0
   62.2021   31.0044   48.7136 H   0  0  0  0  0  0  0  0  0  0  0  0
   60.3392   32.3023   50.0959 H   0  0  0  0  0  0  0  0  0  0  0  0
   60.2488   32.1259   48.2835 H   0  0  0  0  0  0  0  0  0  0  0  0
   54.4882   31.9788   50.9555 H   0  0  0  0  0  0  0  0  0  0  0  0
  1  2  1  0
  2  3  1  0
  3  4  2  0
  4  5  1  0
  5  6  2  0
  6  7  1  0
  7  8  1  0
  8  9  1  0
  9 10  2  0
  9 11  1  0
 11 12  1  0
 12 13  1  0
 13 14  1  0
 14 15  1  0
 15 16  1  0
 16 17  1  0
 17 18  2  0
 18 19  1  0
 19 20  2  0
 20 21  1  0
 20 22  1  0
 22 23  1  0
 23 24  1  0
 23 25  2  0
 23 26  2  0
 22 27  2  0
 15 28  1  0
 28 29  1  0
  7 30  2  0
 30  3  1  0
 29 12  1  0
 27 17  1  0
  1 31  1  0
  1 32  1  0
  1 33  1  0
  4 34  1  0
  5 35  1  0
  6 36  1  0
 12 37  1  6
 13 38  1  0
 13 39  1  0
 14 40  1  0
 14 41  1  0
 15 42  1  6
 18 43  1  0
 19 44  1  0
 24 45  1  0
 27 46  1  0
 28 47  1  0
 28 48  1  0
 29 49  1  0
 29 50  1  0
 30 51  1  0
M  CHG  4   8  -1  11  -1  21  -1  24  -1
M  END
>  <UniqueID>  (50) 
50

>  <SMILES>  (50) 
CSc1cccc([N-]C(=O)[N-]C2CCC(Oc3ccc([O-])c(S([NH-])(=O)=O)c3)CC2)c1

>  <Energy>  (50) 
54.93332972596883

>  <Genealogy>  (50) 
CSc1cccc([N-]C(=O)[N-]C2CCC(Oc3ccc([O-])c(S([NH-])(=O)=O)c3)CC2)c1 (protonated)
CSc1cccc([N-]C(=O)[N-]C2CCC(Oc3ccc([O-])c(S([NH-])(=O)=O)c3)CC2)c1 (3D coordinates assigned)
CSc1cccc([N-]C(=O)[N-]C2CCC(Oc3ccc([O-])c(S([NH-])(=O)=O)c3)CC2)c1 (nonaromatic ring conformer: 54.93332972596883 kcal/mol)

>  <smiles>  (50) 
CSc1cccc(NC(=O)NC2CCC(Oc3ccc(O)c(S(N)(=O)=O)c3)CC2)c1

>  <score_type>  (50) 
oracle

>  <origin>  (50) 
adg

>  <m_score__min__energy>  (50) 
-16.120000000000001

>  <m_primary>  (50) 
energy

$$$$
50:0
     RDKit          3D

 30 31  0  0  0  0  0  0  0  0999 V2000
   60.3040   28.6860   47.5060 C   0  0  0  0  0  0  0  0  0  0  0  0
   59.5780   29.7480   47.0990 C   0  0  0  0  0  0  0  0  0  0  0  0
   59.7830   30.9300   47.7580 N   0  0  0  0  0  0  0  0  0  0  0  0
   59.0720   32.0500   47.4940 C   0  0  0  0  0  0  0  0  0  0  0  0
   58.1020   32.0580   46.4960 C   0  0  0  0  0  0  0  0  0  0  0  0
   57.3110   33.3200   46.2400 C   0  0  0  0  0  0  0  0  0  0  0  0
   57.8030   34.0180   44.9770 C   0  0  0  0  0  0  0  0  0  0  0  0
   57.8600   30.8800   45.7720 C   0  0  0  0  0  0  0  0  0  0  0  0
   57.0120   30.9220   44.8390 O   0  0  0  0  0  0  0  0  0  0  0  0
   58.5860   29.6830   46.0580 C   0  0  0  0  0  0  0  0  0  0  0  0
   58.3770   28.5360   45.3420 C   0  0  0  0  0  0  0  0  0  0  0  0
   57.5490   27.3850   45.7650 C   0  0  0  0  0  0  0  0  0  0  0  0
   56.1520   27.4370   45.6540 C   0  0  0  0  0  0  0  0  0  0  0  0
   55.5210   28.5880   45.1940 O   0  0  0  0  0  0  0  0  0  0  0  0
   55.4030   26.3590   46.0040 N   0  0  0  0  0  0  0  0  0  0  0  0
   55.9830   25.2160   46.4500 C   0  0  0  0  0  0  0  0  0  0  0  0
   55.2690   24.2330   46.7720 O   0  0  0  0  0  0  0  0  0  0  0  0
   57.3360   25.1320   46.5430 N   0  0  0  0  0  0  0  0  0  0  0  0
   58.1290   26.1810   46.2050 C   0  0  0  0  0  0  0  0  0  0  0  0
   59.3810   26.0610   46.2840 O   0  0  0  0  0  0  0  0  0  0  0  0
   60.1787   27.7118   47.0108 H   0  0  0  0  0  0  0  0  0  0  0  0
   61.0212   28.7944   48.3330 H   0  0  0  0  0  0  0  0  0  0  0  0
   60.4980   30.9960   48.5200 H   0  0  0  0  0  0  0  0  0  0  0  0
   59.2626   32.9647   48.0746 H   0  0  0  0  0  0  0  0  0  0  0  0
   56.2485   33.0619   46.1193 H   0  0  0  0  0  0  0  0  0  0  0  0
   57.4441   34.0000   47.0943 H   0  0  0  0  0  0  0  0  0  0  0  0
   58.4163   34.8881   45.2542 H   0  0  0  0  0  0  0  0  0  0  0  0
   58.4079   33.3173   44.3828 H   0  0  0  0  0  0  0  0  0  0  0  0
   56.9397   34.3522   44.3828 H   0  0  0  0  0  0  0  0  0  0  0  0
   58.8700   28.4628   44.3614 H   0  0  0  0  0  0  0  0  0  0  0  0
  1  2  2  0
  2  3  1  0
  3  4  1  0
  4  5  2  0
  5  6  1  0
  6  7  1  0
  5  8  1  0
  8  9  2  0
  8 10  1  0
 10 11  2  3
 11 12  1  0
 12 13  2  0
 13 14  1  0
 13 15  1  0
 15 16  1  0
 16 17  2  0
 16 18  1  0
 18 19  1  0
 19 20  2  0
 10  2  1  0
 19 12  1  0
  1 21  1  0
  1 22  1  0
  3 23  1  0
  4 24  1  0
  6 25  1  0
  6 26  1  0
  7 27  1  0
  7 28  1  0
  7 29  1  0
 11 30  1  0
M  CHG  3  14  -1  15  -1  18  -1
M  END
>  <UniqueID>  (51) 
51

>  <SMILES>  (51) 
C=c1[nH]cc(CC)c(=O)c1=Cc1c([O-])[n-]c(=O)[n-]c1=O

>  <Energy>  (51) 
53.8647660246303

>  <Genealogy>  (51) 
C=c1[nH]cc(CC)c(=O)c1=Cc1c([O-])[n-]c(=O)[n-]c1=O (protonated)
C=c1[nH]cc(CC)c(=O)c1=Cc1c([O-])[n-]c(=O)[n-]c1=O (3D coordinates assigned)
C=c1[nH]cc(CC)c(=O)c1=Cc1c([O-])[n-]c(=O)[n-]c1=O (optimized conformer: 53.8647660246303 kcal/mol)

>  <smiles>  (51) 
C=c1[nH]cc(CC)c(=O)c1=Cc1c(O)[nH]c(=O)[nH]c1=O

>  <score_type>  (51) 
oracle

>  <origin>  (51) 
adg

>  <m_score__min__energy>  (51) 
-14.33

>  <m_primary>  (51) 
energy

$$$$
51:0
     RDKit          3D

 68 72  0  0  0  0  0  0  0  0999 V2000
   58.5244   26.9918   44.4159 H   0  0  0  0  0  0  0  0  0  0  0  0
   58.8640   27.7720   45.1130 C   0  0  0  0  0  0  0  0  0  0  0  0
   59.8690   29.0540   44.7350 S   0  0  0  0  0  0  0  0  0  0  0  0
   59.8490   29.6930   46.2840 C   0  0  0  0  0  0  0  0  0  0  0  0
   60.4720   30.8080   46.5570 N   0  0  0  0  0  0  0  0  0  0  0  0
   60.0390   32.1600   46.3850 C   0  0  0  0  0  0  0  0  0  0  0  0
   58.7460   32.4210   45.9110 C   0  0  0  0  0  0  0  0  0  0  0  0
   58.0918   31.5883   45.6132 H   0  0  0  0  0  0  0  0  0  0  0  0
   58.2860   33.7390   45.8160 C   0  0  0  0  0  0  0  0  0  0  0  0
   57.2794   33.9429   45.4220 H   0  0  0  0  0  0  0  0  0  0  0  0
   59.1060   34.7980   46.2220 C   0  0  0  0  0  0  0  0  0  0  0  0
   58.7443   35.8340   46.1451 H   0  0  0  0  0  0  0  0  0  0  0  0
   60.3840   34.5400   46.7250 C   0  0  0  0  0  0  0  0  0  0  0  0
   61.0270   35.3729   47.0456 H   0  0  0  0  0  0  0  0  0  0  0  0
   60.8460   33.2230   46.8210 C   0  0  0  0  0  0  0  0  0  0  0  0
   61.8431   33.0199   47.2387 H   0  0  0  0  0  0  0  0  0  0  0  0
   59.1080   28.9150   47.1380 N   0  0  0  0  0  0  0  0  0  0  0  0
   58.9770   29.0850   48.5980 C   0  0  0  0  0  0  0  0  0  0  0  0
   57.9897   28.7159   48.9126 H   0  0  0  0  0  0  0  0  0  0  0  0
   59.7837   28.5159   49.0830 H   0  0  0  0  0  0  0  0  0  0  0  0
   59.1110   30.5310   49.0060 C   0  0  0  0  0  0  0  0  0  0  0  0
   58.1990   31.3420   48.6780 O   0  0  0  0  0  0  0  0  0  0  0  0
   60.2440   31.0090   49.7670 N   0  0  0  0  0  0  0  0  0  0  0  0
   60.3730   32.4580   49.9930 C   0  0  0  0  0  0  0  0  0  0  0  0
   60.5437   32.9532   49.0257 H   0  0  0  0  0  0  0  0  0  0  0  0
   59.4437   32.8094   50.4652 H   0  0  0  0  0  0  0  0  0  0  0  0
   61.5350   32.7980   50.9330 C   0  0  0  0  0  0  0  0  0  0  0  0
   61.7493   33.8750   50.8683 H   0  0  0  0  0  0  0  0  0  0  0  0
   61.2509   32.5282   51.9608 H   0  0  0  0  0  0  0  0  0  0  0  0
   62.7380   32.0430   50.5600 N   0  0  0  0  0  0  0  0  0  0  0  0
   64.0430   32.6420   50.7000 C   0  0  0  0  0  0  0  0  0  0  0  0
   64.2280   33.7670   51.5270 C   0  0  0  0  0  0  0  0  0  0  0  0
   63.3723   34.1905   52.0732 H   0  0  0  0  0  0  0  0  0  0  0  0
   65.4930   34.3490   51.6580 C   0  0  0  0  0  0  0  0  0  0  0  0
   65.6294   35.2255   52.3085 H   0  0  0  0  0  0  0  0  0  0  0  0
   66.5840   33.8190   50.9640 C   0  0  0  0  0  0  0  0  0  0  0  0
   67.5781   34.2780   51.0688 H   0  0  0  0  0  0  0  0  0  0  0  0
   66.4120   32.7060   50.1370 C   0  0  0  0  0  0  0  0  0  0  0  0
   67.2707   32.2908   49.5891 H   0  0  0  0  0  0  0  0  0  0  0  0
   65.1490   32.1190   50.0050 C   0  0  0  0  0  0  0  0  0  0  0  0
   65.0197   31.2424   49.3533 H   0  0  0  0  0  0  0  0  0  0  0  0
   62.6320   30.6170   50.2120 C   0  0  0  0  0  0  0  0  0  0  0  0
   62.9229   30.4840   49.1595 H   0  0  0  0  0  0  0  0  0  0  0  0
   63.2982   30.0500   50.8788 H   0  0  0  0  0  0  0  0  0  0  0  0
   61.2060   30.0940   50.4030 C   0  0  0  0  0  0  0  0  0  0  0  0
   61.1190   29.0979   49.9445 H   0  0  0  0  0  0  0  0  0  0  0  0
   60.9862   30.0303   51.4789 H   0  0  0  0  0  0  0  0  0  0  0  0
   58.5310   27.8620   46.4620 C   0  0  0  0  0  0  0  0  0  0  0  0
   57.6240   26.8360   47.1000 C   0  0  0  0  0  0  0  0  0  0  0  0
   57.4234   27.1357   48.1392 H   0  0  0  0  0  0  0  0  0  0  0  0
   58.1308   25.8605   47.0597 H   0  0  0  0  0  0  0  0  0  0  0  0
   56.3190   26.7130   46.3700 C   0  0  0  0  0  0  0  0  0  0  0  0
   55.9160   27.6430   45.6170 O   0  0  0  0  0  0  0  0  0  0  0  0
   55.5690   25.5020   46.4820 N   0  0  0  0  0  0  0  0  0  0  0  0
   54.9820   24.8260   45.3330 C   0  0  0  0  0  0  0  0  0  0  0  0
   54.0783   24.2837   45.6479 H   0  0  0  0  0  0  0  0  0  0  0  0
   54.7134   25.5678   44.5665 H   0  0  0  0  0  0  0  0  0  0  0  0
   55.9770   23.8560   44.7670 C   0  0  0  0  0  0  0  0  0  0  0  0
   57.1310   23.5190   45.4940 C   0  0  0  0  0  0  0  0  0  0  0  0
   57.3220   23.9911   46.4690 H   0  0  0  0  0  0  0  0  0  0  0  0
   58.0380   22.5850   44.9820 C   0  0  0  0  0  0  0  0  0  0  0  0
   58.9440   22.3302   45.5515 H   0  0  0  0  0  0  0  0  0  0  0  0
   57.7950   21.9750   43.7480 C   0  0  0  0  0  0  0  0  0  0  0  0
   58.5120   21.2448   43.3446 H   0  0  0  0  0  0  0  0  0  0  0  0
   56.6410   22.2930   43.0270 C   0  0  0  0  0  0  0  0  0  0  0  0
   56.4478   21.8093   42.0582 H   0  0  0  0  0  0  0  0  0  0  0  0
   55.7310   23.2260   43.5360 C   0  0  0  0  0  0  0  0  0  0  0  0
   54.8192   23.4671   42.9698 H   0  0  0  0  0  0  0  0  0  0  0  0
  1  2  1  0
  2  3  1  0
  3  4  1  0
  4  5  2  0
  5  6  1  0
  6  7  2  0
  7  8  1  0
  7  9  1  0
  9 10  1  0
  9 11  2  0
 11 12  1  0
 11 13  1  0
 13 14  1  0
 13 15  2  0
 15 16  1  0
  4 17  1  0
 17 18  1  0
 18 19  1  0
 18 20  1  0
 18 21  1  0
 21 22  2  0
 21 23  1  0
 23 24  1  0
 24 25  1  0
 24 26  1  0
 24 27  1  0
 27 28  1  0
 27 29  1  0
 27 30  1  0
 30 31  1  0
 31 32  2  0
 32 33  1  0
 32 34  1  0
 34 35  1  0
 34 36  2  0
 36 37  1  0
 36 38  1  0
 38 39  1  0
 38 40  2  0
 40 41  1  0
 30 42  1  0
 42 43  1  0
 42 44  1  0
 42 45  1  0
 45 46  1  0
 45 47  1  0
 17 48  1  0
 48 49  1  0
 49 50  1  0
 49 51  1  0
 49 52  1  0
 52 53  2  0
 52 54  1  0
 54 55  1  0
 55 56  1  0
 55 57  1  0
 55 58  1  0
 58 59  2  0
 59 60  1  0
 59 61  1  0
 61 62  1  0
 61 63  2  0
 63 64  1  0
 63 65  1  0
 65 66  1  0
 65 67  2  0
 67 68  1  0
 48  2  2  0
 67 58  1  0
 15  6  1  0
 45 23  1  0
 40 31  1  0
M  CHG  1  54  -1
M  END
>  <UniqueID>  (52) 
52

>  <SMILES>  (52) 
O=C(Cc1cs/c(=N/c2ccccc2)n1CC(=O)N1CCN(c2ccccc2)CC1)[N-]Cc1ccccc1

>  <Energy>  (52) 
117.96177428206579

>  <Genealogy>  (52) 
O=C(Cc1csc(=Nc2ccccc2)n1CC(=O)N1CCN(c2ccccc2)CC1)[N-]Cc1ccccc1 (protonated)
O=C(Cc1cs/c(=N/c2ccccc2)n1CC(=O)N1CCN(c2ccccc2)CC1)[N-]Cc1ccccc1 (cis-trans isomerization)
O=C(Cc1cs/c(=N/c2ccccc2)n1CC(=O)N1CCN(c2ccccc2)CC1)[N-]Cc1ccccc1 (3D coordinates assigned)
O=C(Cc1cs/c(=N/c2ccccc2)n1CC(=O)N1CCN(c2ccccc2)CC1)[N-]Cc1ccccc1 (nonaromatic ring conformer: 117.96177428206579 kcal/mol)

>  <smiles>  (52) 
O=C(Cc1csc(=Nc2ccccc2)n1CC(=O)N1CCN(c2ccccc2)CC1)NCc1ccccc1

>  <score_type>  (52) 
oracle

>  <origin>  (52) 
adg

>  <m_score__min__energy>  (52) 
-11.609999999999999

>  <m_primary>  (52) 
energy

$$$$
52:0
     RDKit          3D

 47 49  0  0  0  0  0  0  0  0999 V2000
   59.2440   26.5340   47.3280 O   0  0  0  0  0  0  0  0  0  0  0  0
   59.1260   27.5170   46.5450 C   0  0  0  0  0  0  0  0  0  0  0  0
   58.8860   27.2920   45.1520 N   0  0  0  0  0  0  0  0  0  0  0  0
   57.8830   28.0130   44.3780 C   0  0  0  0  0  0  0  0  0  0  0  0
   56.6470   28.3180   45.2260 C   0  0  0  0  0  0  0  0  0  0  0  0
   56.0510   29.5550   44.8280 O   0  0  0  0  0  0  0  0  0  0  0  0
   56.6990   30.5930   44.1330 C   0  0  0  0  0  0  0  0  0  0  0  0
   56.8560   30.5950   42.7320 C   0  0  0  0  0  0  0  0  0  0  0  0
   57.5240   31.6490   42.1010 C   0  0  0  0  0  0  0  0  0  0  0  0
   58.0270   32.7150   42.8520 C   0  0  0  0  0  0  0  0  0  0  0  0
   57.8610   32.7290   44.2400 C   0  0  0  0  0  0  0  0  0  0  0  0
   58.5210   34.2000   45.2670 Br  0  0  0  0  0  0  0  0  0  0  0  0
   57.1980   31.6720   44.8750 C   0  0  0  0  0  0  0  0  0  0  0  0
   59.2640   28.9000   47.0610 C   0  0  0  0  0  0  0  0  0  0  0  0
   59.7300   29.9250   46.2250 C   0  0  0  0  0  0  0  0  0  0  0  0
   59.8290   31.2330   46.6980 C   0  0  0  0  0  0  0  0  0  0  0  0
   59.4790   31.5450   48.0160 C   0  0  0  0  0  0  0  0  0  0  0  0
   59.6430   33.2550   48.5550 S   0  0  0  0  0  0  0  0  0  0  0  0
   61.3880   33.3390   48.1410 C   0  0  0  0  0  0  0  0  0  0  0  0
   61.7850   33.7700   46.8660 C   0  0  0  0  0  0  0  0  0  0  0  0
   63.1420   33.8360   46.5370 C   0  0  0  0  0  0  0  0  0  0  0  0
   64.1080   33.4830   47.4840 C   0  0  0  0  0  0  0  0  0  0  0  0
   63.7180   33.0690   48.7620 C   0  0  0  0  0  0  0  0  0  0  0  0
   62.3590   33.0000   49.0930 C   0  0  0  0  0  0  0  0  0  0  0  0
   58.9980   30.5270   48.8700 C   0  0  0  0  0  0  0  0  0  0  0  0
   58.4920   30.8210   50.2620 C   0  0  0  0  0  0  0  0  0  0  0  0
   57.8370   29.6990   50.7850 O   0  0  0  0  0  0  0  0  0  0  0  0
   58.8890   29.2140   48.3800 C   0  0  0  0  0  0  0  0  0  0  0  0
   58.3163   28.9591   44.0213 H   0  0  0  0  0  0  0  0  0  0  0  0
   57.5776   27.3832   43.5294 H   0  0  0  0  0  0  0  0  0  0  0  0
   55.9141   27.5075   45.0998 H   0  0  0  0  0  0  0  0  0  0  0  0
   56.9530   28.3969   46.2796 H   0  0  0  0  0  0  0  0  0  0  0  0
   56.4519   29.7652   42.1336 H   0  0  0  0  0  0  0  0  0  0  0  0
   57.6542   31.6391   41.0088 H   0  0  0  0  0  0  0  0  0  0  0  0
   58.5527   33.5417   42.3517 H   0  0  0  0  0  0  0  0  0  0  0  0
   57.0675   31.6886   45.9671 H   0  0  0  0  0  0  0  0  0  0  0  0
   60.0195   29.6956   45.1889 H   0  0  0  0  0  0  0  0  0  0  0  0
   60.1863   32.0283   46.0273 H   0  0  0  0  0  0  0  0  0  0  0  0
   61.0261   34.0568   46.1232 H   0  0  0  0  0  0  0  0  0  0  0  0
   63.4496   34.1655   45.5336 H   0  0  0  0  0  0  0  0  0  0  0  0
   65.1757   33.5309   47.2239 H   0  0  0  0  0  0  0  0  0  0  0  0
   64.4796   32.7974   49.5078 H   0  0  0  0  0  0  0  0  0  0  0  0
   62.0537   32.6798   50.1001 H   0  0  0  0  0  0  0  0  0  0  0  0
   59.3418   31.0808   50.9103 H   0  0  0  0  0  0  0  0  0  0  0  0
   57.7839   31.6616   50.2167 H   0  0  0  0  0  0  0  0  0  0  0  0
   58.5440   29.0910   51.1210 H   0  0  0  0  0  0  0  0  0  0  0  0
   58.5048   28.4203   49.0376 H   0  0  0  0  0  0  0  0  0  0  0  0
  1  2  2  0
  2  3  1  0
  3  4  1  0
  4  5  1  0
  5  6  1  0
  6  7  1  0
  7  8  2  0
  8  9  1  0
  9 10  2  0
 10 11  1  0
 11 12  1  0
 11 13  2  0
  2 14  1  0
 14 15  2  0
 15 16  1  0
 16 17  2  0
 17 18  1  0
 18 19  1  0
 19 20  2  0
 20 21  1  0
 21 22  2  0
 22 23  1  0
 23 24  2  0
 17 25  1  0
 25 26  1  0
 26 27  1  0
 25 28  2  0
 13  7  1  0
 28 14  1  0
 24 19  1  0
  4 29  1  0
  4 30  1  0
  5 31  1  0
  5 32  1  0
  8 33  1  0
  9 34  1  0
 10 35  1  0
 13 36  1  0
 15 37  1  0
 16 38  1  0
 20 39  1  0
 21 40  1  0
 22 41  1  0
 23 42  1  0
 24 43  1  0
 26 44  1  0
 26 45  1  0
 27 46  1  0
 28 47  1  0
M  CHG  1   3  -1
M  END
>  <UniqueID>  (53) 
53

>  <SMILES>  (53) 
O=C([N-]CCOc1cccc(Br)c1)c1ccc(Sc2ccccc2)c(CO)c1

>  <Energy>  (53) 
41.886535074976194

>  <Genealogy>  (53) 
O=C([N-]CCOc1cccc(Br)c1)c1ccc(Sc2ccccc2)c(CO)c1 (protonated)
O=C([N-]CCOc1cccc(Br)c1)c1ccc(Sc2ccccc2)c(CO)c1 (3D coordinates assigned)
O=C([N-]CCOc1cccc(Br)c1)c1ccc(Sc2ccccc2)c(CO)c1 (optimized conformer: 41.886535074976194 kcal/mol)

>  <smiles>  (53) 
O=C(NCCOc1cccc(Br)c1)c1ccc(Sc2ccccc2)c(CO)c1

>  <score_type>  (53) 
oracle

>  <origin>  (53) 
adg

>  <m_score__min__energy>  (53) 
-10.52

>  <m_primary>  (53) 
energy

$$$$
53:0
     RDKit          3D

 58 60  0  0  0  0  0  0  0  0999 V2000
   56.7090   23.4570   47.7170 C   0  0  0  0  0  0  0  0  0  0  0  0
   57.0300   24.8080   48.0330 O   0  0  0  0  0  0  0  0  0  0  0  0
   57.4740   25.7600   47.1030 C   0  0  0  0  0  0  0  0  0  0  0  0
   58.8200   26.1600   47.0340 C   0  0  0  0  0  0  0  0  0  0  0  0
   59.2240   27.1260   46.1100 C   0  0  0  0  0  0  0  0  0  0  0  0
   58.2960   27.6900   45.2250 C   0  0  0  0  0  0  0  0  0  0  0  0
   58.7360   28.7720   44.3140 C   0  0  0  0  0  0  0  0  0  0  0  0
   58.0060   29.8480   43.9850 C   0  0  0  0  0  0  0  0  0  0  0  0
   57.0050   30.4940   44.8610 C   0  0  0  0  0  0  0  0  0  0  0  0
   55.8080   30.1040   44.8440 O   0  0  0  0  0  0  0  0  0  0  0  0
   57.3360   31.6720   45.6060 N   0  0  0  0  0  0  0  0  0  0  0  0
   58.6590   32.0560   45.9980 C   0  0  0  0  0  0  0  0  0  0  0  0
   59.0510   33.3940   45.8670 C   0  0  0  0  0  0  0  0  0  0  0  0
   60.3420   33.7900   46.2290 C   0  0  0  0  0  0  0  0  0  0  0  0
   61.2430   32.8550   46.7570 C   0  0  0  0  0  0  0  0  0  0  0  0
   62.8870   33.3430   47.1760 S   0  0  0  0  0  0  0  0  0  0  0  0
   63.3880   34.2900   46.1150 O   0  0  0  0  0  0  0  0  0  0  0  0
   63.7670   32.1240   47.1470 O   0  0  0  0  0  0  0  0  0  0  0  0
   63.0000   34.0710   48.7770 N   0  0  0  0  0  0  0  0  0  0  0  0
   64.0280   33.4540   49.6430 C   0  0  0  0  0  0  0  0  0  0  0  0
   63.5680   32.1310   50.2960 C   0  0  0  0  0  0  0  0  0  0  0  0
   62.2500   31.7160   49.7900 N   0  0  0  0  0  0  0  0  0  0  0  0
   61.8380   30.4500   50.4160 C   0  0  0  0  0  0  0  0  0  0  0  0
   61.2520   32.7670   50.0540 C   0  0  0  0  0  0  0  0  0  0  0  0
   61.6840   34.1250   49.4490 C   0  0  0  0  0  0  0  0  0  0  0  0
   60.8360   31.5270   46.9340 C   0  0  0  0  0  0  0  0  0  0  0  0
   59.5540   31.1280   46.5530 C   0  0  0  0  0  0  0  0  0  0  0  0
   56.9480   27.3020   45.3000 C   0  0  0  0  0  0  0  0  0  0  0  0
   56.5340   26.3300   46.2280 C   0  0  0  0  0  0  0  0  0  0  0  0
   55.1970   25.9090   46.3200 O   0  0  0  0  0  0  0  0  0  0  0  0
   54.6470   24.8140   45.5960 C   0  0  0  0  0  0  0  0  0  0  0  0
   56.5732   22.8853   48.6469 H   0  0  0  0  0  0  0  0  0  0  0  0
   55.7791   23.4287   47.1300 H   0  0  0  0  0  0  0  0  0  0  0  0
   57.5268   23.0135   47.1300 H   0  0  0  0  0  0  0  0  0  0  0  0
   59.5596   25.7092   47.7121 H   0  0  0  0  0  0  0  0  0  0  0  0
   60.2760   27.4456   46.0769 H   0  0  0  0  0  0  0  0  0  0  0  0
   59.7400   28.6863   43.8728 H   0  0  0  0  0  0  0  0  0  0  0  0
   58.1640   30.2832   42.9872 H   0  0  0  0  0  0  0  0  0  0  0  0
   58.3396   34.1371   45.4774 H   0  0  0  0  0  0  0  0  0  0  0  0
   60.6514   34.8376   46.0992 H   0  0  0  0  0  0  0  0  0  0  0  0
   63.3000   35.0630   48.6160 H   0  0  0  0  0  0  0  0  0  0  0  0
   64.9205   33.2499   49.0333 H   0  0  0  0  0  0  0  0  0  0  0  0
   64.2340   34.1635   50.4579 H   0  0  0  0  0  0  0  0  0  0  0  0
   64.3030   31.3447   50.0690 H   0  0  0  0  0  0  0  0  0  0  0  0
   63.4897   32.2882   51.3819 H   0  0  0  0  0  0  0  0  0  0  0  0
   61.8719   30.5541   51.5105 H   0  0  0  0  0  0  0  0  0  0  0  0
   60.8130   30.2026   50.1028 H   0  0  0  0  0  0  0  0  0  0  0  0
   62.5211   29.6467   50.1028 H   0  0  0  0  0  0  0  0  0  0  0  0
   60.2913   32.4673   49.6098 H   0  0  0  0  0  0  0  0  0  0  0  0
   61.1590   32.8886   51.1433 H   0  0  0  0  0  0  0  0  0  0  0  0
   60.9281   34.4361   48.7129 H   0  0  0  0  0  0  0  0  0  0  0  0
   61.7704   34.8404   50.2801 H   0  0  0  0  0  0  0  0  0  0  0  0
   61.5292   30.7955   47.3749 H   0  0  0  0  0  0  0  0  0  0  0  0
   59.2435   30.0814   46.6883 H   0  0  0  0  0  0  0  0  0  0  0  0
   56.2098   27.7625   44.6269 H   0  0  0  0  0  0  0  0  0  0  0  0
   54.2685   24.0605   46.3024 H   0  0  0  0  0  0  0  0  0  0  0  0
   53.8211   25.1707   44.9630 H   0  0  0  0  0  0  0  0  0  0  0  0
   55.4263   24.3645   44.9630 H   0  0  0  0  0  0  0  0  0  0  0  0
  1  2  1  0
  2  3  1  0
  3  4  2  0
  4  5  1  0
  5  6  2  0
  6  7  1  0
  7  8  2  3
  8  9  1  0
  9 10  2  0
  9 11  1  0
 11 12  1  0
 12 13  2  0
 13 14  1  0
 14 15  2  0
 15 16  1  0
 16 17  2  0
 16 18  2  0
 16 19  1  0
 19 20  1  0
 20 21  1  0
 21 22  1  0
 22 23  1  0
 22 24  1  0
 24 25  1  0
 15 26  1  0
 26 27  2  0
  6 28  1  0
 28 29  2  0
 29 30  1  0
 30 31  1  0
 29  3  1  0
 27 12  1  0
 25 19  1  0
  1 32  1  0
  1 33  1  0
  1 34  1  0
  4 35  1  0
  5 36  1  0
  7 37  1  0
  8 38  1  0
 13 39  1  0
 14 40  1  0
 19 41  1  0
 20 42  1  0
 20 43  1  0
 21 44  1  0
 21 45  1  0
 23 46  1  0
 23 47  1  0
 23 48  1  0
 24 49  1  0
 24 50  1  0
 25 51  1  0
 25 52  1  0
 26 53  1  0
 27 54  1  0
 28 55  1  0
 31 56  1  0
 31 57  1  0
 31 58  1  0
M  CHG  2  11  -1  19   1
M  END
>  <UniqueID>  (54) 
54

>  <SMILES>  (54) 
COc1ccc(C=CC(=O)[N-]c2ccc(S(=O)(=O)[NH+]3CCN(C)CC3)cc2)cc1OC

>  <Energy>  (54) 
80.2141062427227

>  <Genealogy>  (54) 
COc1ccc(C=CC(=O)[N-]c2ccc(S(=O)(=O)[NH+]3CCN(C)CC3)cc2)cc1OC (protonated)
COc1ccc(C=CC(=O)[N-]c2ccc(S(=O)(=O)[NH+]3CCN(C)CC3)cc2)cc1OC (3D coordinates assigned)
COc1ccc(C=CC(=O)[N-]c2ccc(S(=O)(=O)[NH+]3CCN(C)CC3)cc2)cc1OC (nonaromatic ring conformer: 80.2141062427227 kcal/mol)

>  <smiles>  (54) 
COc1ccc(C=CC(=O)Nc2ccc(S(=O)(=O)N3CCN(C)CC3)cc2)cc1OC

>  <score_type>  (54) 
oracle

>  <origin>  (54) 
adg

>  <m_score__min__energy>  (54) 
-9.1999999999999993

>  <m_primary>  (54) 
energy

$$$$
54:0
     RDKit          3D

 36 36  0  0  0  0  0  0  0  0999 V2000
   57.2980   31.1640   42.9100 C   0  0  0  0  0  0  0  0  0  0  0  0
   56.4750   29.8730   43.0470 C   0  0  0  0  0  0  0  0  0  0  0  0
   55.5420   29.9420   44.2670 C   0  0  0  0  0  0  0  0  0  0  0  0
   57.3270   28.6630   43.0590 N   0  0  0  0  0  0  0  0  0  0  0  0
   57.9260   28.4010   44.3440 C   0  0  0  0  0  0  0  0  0  0  0  0
   58.9040   29.1000   44.7280 O   0  0  0  0  0  0  0  0  0  0  0  0
   57.4140   27.3450   45.1740 N   0  0  0  0  0  0  0  0  0  0  0  0
   57.9260   27.0290   46.4780 C   0  0  0  0  0  0  0  0  0  0  0  0
   58.7890   27.7670   47.0280 O   0  0  0  0  0  0  0  0  0  0  0  0
   57.4120   25.8290   47.2160 C   0  0  0  0  0  0  0  0  0  0  0  0
   56.6600   24.9530   46.3240 N   0  0  0  0  0  0  0  0  0  0  0  0
   55.3270   25.1840   45.8430 C   0  0  0  0  0  0  0  0  0  0  0  0
   54.8290   26.3320   45.9760 O   0  0  0  0  0  0  0  0  0  0  0  0
   54.5160   24.1120   45.1680 C   0  0  0  0  0  0  0  0  0  0  0  0
   55.3900   23.1720   44.3940 C   0  0  0  0  0  0  0  0  0  0  0  0
   55.7800   23.3370   43.0710 C   0  0  0  0  0  0  0  0  0  0  0  0
   56.6530   22.3380   42.6250 C   0  0  0  0  0  0  0  0  0  0  0  0
   56.9670   21.3960   43.5970 C   0  0  0  0  0  0  0  0  0  0  0  0
   56.1610   21.8100   45.0120 S   0  0  0  0  0  0  0  0  0  0  0  0
   57.5440   31.5499   43.9103 H   0  0  0  0  0  0  0  0  0  0  0  0
   58.2268   30.9502   42.3608 H   0  0  0  0  0  0  0  0  0  0  0  0
   56.7121   31.9158   42.3608 H   0  0  0  0  0  0  0  0  0  0  0  0
   55.8414   29.7886   42.1518 H   0  0  0  0  0  0  0  0  0  0  0  0
   56.1402   29.8978   45.1890 H   0  0  0  0  0  0  0  0  0  0  0  0
   54.9754   30.8845   44.2424 H   0  0  0  0  0  0  0  0  0  0  0  0
   54.8429   29.0931   44.2424 H   0  0  0  0  0  0  0  0  0  0  0  0
   58.0860   28.7700   42.3460 H   0  0  0  0  0  0  0  0  0  0  0  0
   56.7570   27.8340   42.7700 H   0  0  0  0  0  0  0  0  0  0  0  0
   56.6310   26.7650   44.7990 H   0  0  0  0  0  0  0  0  0  0  0  0
   58.2629   25.2719   47.6350 H   0  0  0  0  0  0  0  0  0  0  0  0
   56.7434   26.1702   48.0201 H   0  0  0  0  0  0  0  0  0  0  0  0
   53.9674   23.5429   45.9330 H   0  0  0  0  0  0  0  0  0  0  0  0
   53.8193   24.5944   44.4666 H   0  0  0  0  0  0  0  0  0  0  0  0
   55.4374   24.1687   42.4379 H   0  0  0  0  0  0  0  0  0  0  0  0
   57.0530   22.3020   41.6010 H   0  0  0  0  0  0  0  0  0  0  0  0
   57.6295   20.5282   43.4631 H   0  0  0  0  0  0  0  0  0  0  0  0
  1  2  1  0
  2  3  1  0
  2  4  1  0
  4  5  1  0
  5  6  2  0
  5  7  1  0
  7  8  1  0
  8  9  2  0
  8 10  1  0
 10 11  1  0
 11 12  1  0
 12 13  2  0
 12 14  1  0
 14 15  1  0
 15 16  2  0
 16 17  1  0
 17 18  2  0
 18 19  1  0
 19 15  1  0
  1 20  1  0
  1 21  1  0
  1 22  1  0
  2 23  1  0
  3 24  1  0
  3 25  1  0
  3 26  1  0
  4 27  1  0
  4 28  1  0
  7 29  1  0
 10 30  1  0
 10 31  1  0
 14 32  1  0
 14 33  1  0
 16 34  1  0
 17 35  1  0
 18 36  1  0
M  CHG  2   4   1  11  -1
M  END
>  <UniqueID>  (55) 
55

>  <SMILES>  (55) 
CC(C)[NH2+]C(=O)NC(=O)C[N-]C(=O)Cc1cccs1

>  <Energy>  (55) 
52.3875382862912

>  <Genealogy>  (55) 
CC(C)[NH2+]C(=O)NC(=O)C[N-]C(=O)Cc1cccs1 (protonated)
CC(C)[NH2+]C(=O)NC(=O)C[N-]C(=O)Cc1cccs1 (3D coordinates assigned)
CC(C)[NH2+]C(=O)NC(=O)C[N-]C(=O)Cc1cccs1 (optimized conformer: 52.3875382862912 kcal/mol)

>  <smiles>  (55) 
CC(C)NC(=O)NC(=O)CNC(=O)Cc1cccs1

>  <score_type>  (55) 
oracle

>  <origin>  (55) 
adg

>  <m_score__min__energy>  (55) 
-6.9900000000000002

>  <m_primary>  (55) 
energy

$$$$
55:0
     RDKit          3D

 53 56  0  0  0  0  0  0  0  0999 V2000
   58.9090   35.6500   47.1270 O   0  0  0  0  0  0  0  0  0  0  0  0
   59.5970   34.8130   46.4800 C   0  0  0  0  0  0  0  0  0  0  0  0
   59.2260   34.4850   45.0500 C   0  0  0  0  0  0  0  0  0  0  0  0
   57.8030   33.9270   44.8730 C   0  0  0  0  0  0  0  0  0  0  0  0
   57.7640   32.1350   44.8690 S   0  0  0  0  0  0  0  0  0  0  0  0
   58.5000   31.6080   43.6690 O   0  0  0  0  0  0  0  0  0  0  0  0
   56.3380   31.6680   44.8090 O   0  0  0  0  0  0  0  0  0  0  0  0
   58.5080   31.5070   46.3290 C   0  0  0  0  0  0  0  0  0  0  0  0
   58.3000   32.0070   47.6130 C   0  0  0  0  0  0  0  0  0  0  0  0
   59.0560   31.3240   48.5700 C   0  0  0  0  0  0  0  0  0  0  0  0
   59.0770   31.5850   49.9430 C   0  0  0  0  0  0  0  0  0  0  0  0
   59.9010   30.8000   50.7670 C   0  0  0  0  0  0  0  0  0  0  0  0
   60.6890   29.7680   50.2170 C   0  0  0  0  0  0  0  0  0  0  0  0
   61.7090   28.7950   51.2600 Cl  0  0  0  0  0  0  0  0  0  0  0  0
   60.6600   29.5160   48.8350 C   0  0  0  0  0  0  0  0  0  0  0  0
   59.8380   30.3080   48.0380 C   0  0  0  0  0  0  0  0  0  0  0  0
   59.6180   30.2340   46.3750 S   0  0  0  0  0  0  0  0  0  0  0  0
   60.7160   34.1670   47.1310 N   0  0  0  0  0  0  0  0  0  0  0  0
   60.8530   34.2840   48.5880 C   0  0  0  0  0  0  0  0  0  0  0  0
   61.8590   33.2670   49.1310 C   0  0  0  0  0  0  0  0  0  0  0  0
   63.1580   33.3900   48.4380 N   0  0  0  0  0  0  0  0  0  0  0  0
   64.1540   32.4250   48.9720 C   0  0  0  0  0  0  0  0  0  0  0  0
   63.5230   31.3930   49.9210 C   0  0  0  0  0  0  0  0  0  0  0  0
   64.2430   31.5330   51.2560 C   0  0  0  0  0  0  0  0  0  0  0  0
   65.5700   32.2020   50.9470 C   0  0  0  0  0  0  0  0  0  0  0  0
   65.3140   33.0860   49.7370 C   0  0  0  0  0  0  0  0  0  0  0  0
   63.0710   33.4530   46.9510 C   0  0  0  0  0  0  0  0  0  0  0  0
   61.6450   33.2930   46.3990 C   0  0  0  0  0  0  0  0  0  0  0  0
   59.3112   35.4050   44.4531 H   0  0  0  0  0  0  0  0  0  0  0  0
   59.9159   33.6940   44.7209 H   0  0  0  0  0  0  0  0  0  0  0  0
   57.1757   34.2917   45.6998 H   0  0  0  0  0  0  0  0  0  0  0  0
   57.4277   34.2717   43.8981 H   0  0  0  0  0  0  0  0  0  0  0  0
   57.6211   32.8406   47.8459 H   0  0  0  0  0  0  0  0  0  0  0  0
   58.4603   32.3895   50.3702 H   0  0  0  0  0  0  0  0  0  0  0  0
   59.9316   30.9920   51.8497 H   0  0  0  0  0  0  0  0  0  0  0  0
   61.2707   28.7141   48.3944 H   0  0  0  0  0  0  0  0  0  0  0  0
   61.1986   35.2985   48.8359 H   0  0  0  0  0  0  0  0  0  0  0  0
   59.8735   34.0856   49.0477 H   0  0  0  0  0  0  0  0  0  0  0  0
   62.0062   33.4447   50.2065 H   0  0  0  0  0  0  0  0  0  0  0  0
   61.4634   32.2550   48.9599 H   0  0  0  0  0  0  0  0  0  0  0  0
   64.5455   31.9366   48.0675 H   0  0  0  0  0  0  0  0  0  0  0  0
   62.4495   31.5981   50.0453 H   0  0  0  0  0  0  0  0  0  0  0  0
   63.6227   30.3731   49.5213 H   0  0  0  0  0  0  0  0  0  0  0  0
   63.6528   32.1547   51.9453 H   0  0  0  0  0  0  0  0  0  0  0  0
   64.3873   30.5561   51.7406 H   0  0  0  0  0  0  0  0  0  0  0  0
   65.9016   32.8092   51.8022 H   0  0  0  0  0  0  0  0  0  0  0  0
   66.3606   31.4631   50.7496 H   0  0  0  0  0  0  0  0  0  0  0  0
   65.0332   34.1005   50.0564 H   0  0  0  0  0  0  0  0  0  0  0  0
   66.2115   33.1808   49.1081 H   0  0  0  0  0  0  0  0  0  0  0  0
   63.4612   34.4278   46.6230 H   0  0  0  0  0  0  0  0  0  0  0  0
   63.6585   32.6081   46.5625 H   0  0  0  0  0  0  0  0  0  0  0  0
   61.6355   33.5643   45.3330 H   0  0  0  0  0  0  0  0  0  0  0  0
   61.3273   32.2472   46.5233 H   0  0  0  0  0  0  0  0  0  0  0  0
  1  2  2  0
  2  3  1  0
  3  4  1  0
  4  5  1  0
  5  6  2  0
  5  7  2  0
  5  8  1  0
  8  9  2  0
  9 10  1  0
 10 11  2  0
 11 12  1  0
 12 13  2  0
 13 14  1  0
 13 15  1  0
 15 16  2  0
 16 17  1  0
  2 18  1  0
 18 19  1  0
 19 20  1  0
 20 21  1  0
 21 22  1  0
 22 23  1  0
 23 24  1  0
 24 25  1  0
 25 26  1  0
 21 27  1  0
 27 28  1  0
 17  8  1  0
 28 18  1  0
 16 10  1  0
 26 22  1  0
  3 29  1  0
  3 30  1  0
  4 31  1  0
  4 32  1  0
  9 33  1  0
 11 34  1  0
 12 35  1  0
 15 36  1  0
 19 37  1  0
 19 38  1  0
 20 39  1  0
 20 40  1  0
 22 41  1  0
 23 42  1  0
 23 43  1  0
 24 44  1  0
 24 45  1  0
 25 46  1  0
 25 47  1  0
 26 48  1  0
 26 49  1  0
 27 50  1  0
 27 51  1  0
 28 52  1  0
 28 53  1  0
M  END
>  <UniqueID>  (56) 
56

>  <SMILES>  (56) 
O=C(CCS(=O)(=O)c1cc2ccc(Cl)cc2s1)N1CCN(C2CCCC2)CC1

>  <Energy>  (56) 
94.43291670462403

>  <Genealogy>  (56) 
O=C(CCS(=O)(=O)c1cc2ccc(Cl)cc2s1)N1CCN(C2CCCC2)CC1 (3D coordinates assigned)
O=C(CCS(=O)(=O)c1cc2ccc(Cl)cc2s1)N1CCN(C2CCCC2)CC1 (nonaromatic ring conformer: 94.43291670462403 kcal/mol)

>  <smiles>  (56) 
O=C(CCS(=O)(=O)c1cc2ccc(Cl)cc2s1)N1CCN(C2CCCC2)CC1

>  <score_type>  (56) 
oracle

>  <origin>  (56) 
adg

>  <m_score__min__energy>  (56) 
-8.9900000000000002

>  <m_primary>  (56) 
energy

$$$$
56:0
     RDKit          3D

 42 44  0  0  0  0  0  0  0  0999 V2000
   54.7310   26.3140   45.8050 N   0  0  0  0  0  0  0  0  0  0  0  0
   55.9910   25.9910   46.3910 C   0  0  0  0  0  0  0  0  0  0  0  0
   56.0530   25.0270   47.1990 O   0  0  0  0  0  0  0  0  0  0  0  0
   57.2090   26.7710   46.0320 C   0  0  0  0  0  0  0  0  0  0  0  0
   58.4770   26.2080   46.2760 C   0  0  0  0  0  0  0  0  0  0  0  0
   59.6430   26.9200   45.9940 C   0  0  0  0  0  0  0  0  0  0  0  0
   59.5640   28.2100   45.4760 C   0  0  0  0  0  0  0  0  0  0  0  0
   58.3210   28.7840   45.2130 C   0  0  0  0  0  0  0  0  0  0  0  0
   57.1340   28.0680   45.4570 C   0  0  0  0  0  0  0  0  0  0  0  0
   55.8520   28.6510   45.1710 N   0  0  0  0  0  0  0  0  0  0  0  0
   55.5020   29.5150   44.0800 C   0  0  0  0  0  0  0  0  0  0  0  0
   54.4210   29.3610   43.4520 O   0  0  0  0  0  0  0  0  0  0  0  0
   56.3810   30.6840   43.7510 C   0  0  0  0  0  0  0  0  0  0  0  0
   56.4700   31.5740   44.8620 O   0  0  0  0  0  0  0  0  0  0  0  0
   57.4870   32.5240   44.9980 C   0  0  0  0  0  0  0  0  0  0  0  0
   58.6790   32.2340   44.7040 O   0  0  0  0  0  0  0  0  0  0  0  0
   57.1380   33.8780   45.5310 C   0  0  0  0  0  0  0  0  0  0  0  0
   58.0430   34.2500   46.6190 N   0  0  0  0  0  0  0  0  0  0  0  0
   59.5910   34.7100   45.9810 S   0  0  0  0  0  0  0  0  0  0  0  0
   59.5650   34.5950   44.4830 O   0  0  0  0  0  0  0  0  0  0  0  0
   59.8830   36.1380   46.3560 O   0  0  0  0  0  0  0  0  0  0  0  0
   60.8370   33.6350   46.6220 C   0  0  0  0  0  0  0  0  0  0  0  0
   62.1970   33.9740   46.5150 C   0  0  0  0  0  0  0  0  0  0  0  0
   63.1920   33.1210   47.0160 C   0  0  0  0  0  0  0  0  0  0  0  0
   62.8500   31.9080   47.6270 C   0  0  0  0  0  0  0  0  0  0  0  0
   61.5060   31.5600   47.7430 C   0  0  0  0  0  0  0  0  0  0  0  0
   61.0950   30.4060   48.3270 N   0  0  0  0  0  0  0  0  0  0  0  0
   59.4580   30.5680   48.1750 S   0  0  0  0  0  0  0  0  0  0  0  0
   59.2090   32.0100   47.4060 N   0  0  0  0  0  0  0  0  0  0  0  0
   60.4910   32.4260   47.2440 C   0  0  0  0  0  0  0  0  0  0  0  0
   53.9600   26.7220   46.3790 H   0  0  0  0  0  0  0  0  0  0  0  0
   58.5487   25.1933   46.6945 H   0  0  0  0  0  0  0  0  0  0  0  0
   60.6255   26.4620   46.1810 H   0  0  0  0  0  0  0  0  0  0  0  0
   60.4844   28.7775   45.2738 H   0  0  0  0  0  0  0  0  0  0  0  0
   58.2674   29.8065   44.8109 H   0  0  0  0  0  0  0  0  0  0  0  0
   57.3876   30.3195   43.4983 H   0  0  0  0  0  0  0  0  0  0  0  0
   55.9466   31.2250   42.8974 H   0  0  0  0  0  0  0  0  0  0  0  0
   57.2217   34.6181   44.7216 H   0  0  0  0  0  0  0  0  0  0  0  0
   56.1085   33.8533   45.9177 H   0  0  0  0  0  0  0  0  0  0  0  0
   62.4847   34.9197   46.0325 H   0  0  0  0  0  0  0  0  0  0  0  0
   64.2504   33.4076   46.9281 H   0  0  0  0  0  0  0  0  0  0  0  0
   63.6334   31.2379   48.0108 H   0  0  0  0  0  0  0  0  0  0  0  0
  1  2  1  0
  2  3  2  0
  2  4  1  0
  4  5  2  0
  5  6  1  0
  6  7  2  0
  7  8  1  0
  8  9  2  0
  9 10  1  0
 10 11  1  0
 11 12  2  0
 11 13  1  0
 13 14  1  0
 14 15  1  0
 15 16  2  0
 15 17  1  0
 17 18  1  0
 18 19  1  0
 19 20  2  0
 19 21  2  0
 19 22  1  0
 22 23  2  0
 23 24  1  0
 24 25  2  0
 25 26  1  0
 26 27  2  0
 27 28  1  0
 28 29  1  0
 29 30  2  0
  9  4  1  0
 30 22  1  0
 30 26  1  0
  1 31  1  0
  5 32  1  0
  6 33  1  0
  7 34  1  0
  8 35  1  0
 13 36  1  0
 13 37  1  0
 17 38  1  0
 17 39  1  0
 23 40  1  0
 24 41  1  0
 25 42  1  0
M  CHG  3   1  -1  10  -1  18  -1
M  END
>  <UniqueID>  (57) 
57

>  <SMILES>  (57) 
[NH-]C(=O)c1ccccc1[N-]C(=O)COC(=O)C[N-]S(=O)(=O)c1cccc2nsnc12

>  <Energy>  (57) 
79.50164508512024

>  <Genealogy>  (57) 
[NH-]C(=O)c1ccccc1[N-]C(=O)COC(=O)C[N-]S(=O)(=O)c1cccc2nsnc12 (protonated)
[NH-]C(=O)c1ccccc1[N-]C(=O)COC(=O)C[N-]S(=O)(=O)c1cccc2nsnc12 (3D coordinates assigned)
[NH-]C(=O)c1ccccc1[N-]C(=O)COC(=O)C[N-]S(=O)(=O)c1cccc2nsnc12 (optimized conformer: 79.50164508512024 kcal/mol)

>  <smiles>  (57) 
NC(=O)c1ccccc1NC(=O)COC(=O)CNS(=O)(=O)c1cccc2nsnc12

>  <score_type>  (57) 
oracle

>  <origin>  (57) 
adg

>  <m_score__min__energy>  (57) 
-16.109999999999999

>  <m_primary>  (57) 
energy

$$$$
57:0
     RDKit          3D

 55 58  0  0  0  0  0  0  0  0999 V2000
   53.0380   23.6770   45.0680 C   0  0  0  0  0  0  0  0  0  0  0  0
   54.1340   24.5250   45.6190 C   0  0  0  0  0  0  0  0  0  0  0  0
   55.3040   24.0750   46.1940 C   0  0  0  0  0  0  0  0  0  0  0  0
   55.9300   25.2430   46.5660 C   0  0  0  0  0  0  0  0  0  0  0  0
   57.0890   25.3010   47.1510 N   0  0  0  0  0  0  0  0  0  0  0  0
   58.2130   26.0930   46.7290 C   0  0  0  0  0  0  0  0  0  0  0  0
   59.3160   26.0140   47.3390 O   0  0  0  0  0  0  0  0  0  0  0  0
   58.0820   26.9960   45.5620 C   0  0  0  0  0  0  0  0  0  0  0  0
   58.1170   26.4800   44.2540 C   0  0  0  0  0  0  0  0  0  0  0  0
   57.9640   27.3270   43.1540 C   0  0  0  0  0  0  0  0  0  0  0  0
   57.7720   28.6960   43.3460 C   0  0  0  0  0  0  0  0  0  0  0  0
   57.7300   29.2280   44.6410 C   0  0  0  0  0  0  0  0  0  0  0  0
   57.4340   30.9510   44.8840 S   0  0  0  0  0  0  0  0  0  0  0  0
   55.9790   31.2300   44.6260 O   0  0  0  0  0  0  0  0  0  0  0  0
   58.2350   31.7320   43.8780 O   0  0  0  0  0  0  0  0  0  0  0  0
   57.8300   31.4900   46.5030 N   0  0  0  0  0  0  0  0  0  0  0  0
   59.1440   31.0100   46.9840 C   0  0  0  0  0  0  0  0  0  0  0  0
   60.1350   32.1460   47.2880 C   0  0  0  0  0  0  0  0  0  0  0  0
   60.0360   33.2010   46.2620 N   0  0  0  0  0  0  0  0  0  0  0  0
   61.1170   34.2060   46.4150 C   0  0  0  0  0  0  0  0  0  0  0  0
   62.0700   33.8340   47.5270 C   0  0  0  0  0  0  0  0  0  0  0  0
   61.8070   34.2490   48.8420 C   0  0  0  0  0  0  0  0  0  0  0  0
   62.7020   33.9430   49.8720 C   0  0  0  0  0  0  0  0  0  0  0  0
   63.8660   33.2220   49.5950 C   0  0  0  0  0  0  0  0  0  0  0  0
   64.7320   32.9260   50.5950 F   0  0  0  0  0  0  0  0  0  0  0  0
   64.1360   32.8060   48.2880 C   0  0  0  0  0  0  0  0  0  0  0  0
   63.2430   33.1100   47.2560 C   0  0  0  0  0  0  0  0  0  0  0  0
   58.7090   33.8590   46.3100 C   0  0  0  0  0  0  0  0  0  0  0  0
   57.5590   32.9190   46.7410 C   0  0  0  0  0  0  0  0  0  0  0  0
   57.9030   28.3800   45.7430 C   0  0  0  0  0  0  0  0  0  0  0  0
   55.1750   26.3120   46.2390 N   0  0  0  0  0  0  0  0  0  0  0  0
   54.1020   25.8390   45.6730 O   0  0  0  0  0  0  0  0  0  0  0  0
   52.4655   23.2340   45.8962 H   0  0  0  0  0  0  0  0  0  0  0  0
   52.3704   24.2961   44.4507 H   0  0  0  0  0  0  0  0  0  0  0  0
   53.4697   22.8754   44.4507 H   0  0  0  0  0  0  0  0  0  0  0  0
   55.6510   23.0392   46.3233 H   0  0  0  0  0  0  0  0  0  0  0  0
   58.2659   25.4016   44.0962 H   0  0  0  0  0  0  0  0  0  0  0  0
   57.9949   26.9144   42.1348 H   0  0  0  0  0  0  0  0  0  0  0  0
   57.6532   29.3598   42.4769 H   0  0  0  0  0  0  0  0  0  0  0  0
   58.9872   30.4284   47.9044 H   0  0  0  0  0  0  0  0  0  0  0  0
   59.5829   30.4030   46.1784 H   0  0  0  0  0  0  0  0  0  0  0  0
   59.9030   32.5757   48.2737 H   0  0  0  0  0  0  0  0  0  0  0  0
   61.1570   31.7392   47.2849 H   0  0  0  0  0  0  0  0  0  0  0  0
   60.1440   32.7580   45.3230 H   0  0  0  0  0  0  0  0  0  0  0  0
   61.6783   34.2727   45.4714 H   0  0  0  0  0  0  0  0  0  0  0  0
   60.6551   35.1720   46.6669 H   0  0  0  0  0  0  0  0  0  0  0  0
   60.8920   34.8180   49.0634 H   0  0  0  0  0  0  0  0  0  0  0  0
   62.4894   34.2701   50.9005 H   0  0  0  0  0  0  0  0  0  0  0  0
   65.0529   32.2383   48.0710 H   0  0  0  0  0  0  0  0  0  0  0  0
   63.4596   32.7813   46.2288 H   0  0  0  0  0  0  0  0  0  0  0  0
   58.7615   34.6928   47.0255 H   0  0  0  0  0  0  0  0  0  0  0  0
   58.4814   34.1941   45.2873 H   0  0  0  0  0  0  0  0  0  0  0  0
   57.3802   33.0624   47.8169 H   0  0  0  0  0  0  0  0  0  0  0  0
   56.6856   33.1833   46.1268 H   0  0  0  0  0  0  0  0  0  0  0  0
   57.8988   28.8003   46.7595 H   0  0  0  0  0  0  0  0  0  0  0  0
  1  2  1  0
  2  3  2  0
  3  4  1  0
  4  5  2  3
  5  6  1  0
  6  7  2  0
  6  8  1  0
  8  9  2  0
  9 10  1  0
 10 11  2  0
 11 12  1  0
 12 13  1  0
 13 14  2  0
 13 15  2  0
 13 16  1  0
 16 17  1  0
 17 18  1  0
 18 19  1  0
 19 20  1  0
 20 21  1  0
 21 22  2  0
 22 23  1  0
 23 24  2  0
 24 25  1  0
 24 26  1  0
 26 27  2  0
 19 28  1  0
 28 29  1  0
 12 30  2  0
  4 31  1  0
 31 32  1  0
 32  2  1  0
 30  8  1  0
 29 16  1  0
 27 21  1  0
  1 33  1  0
  1 34  1  0
  1 35  1  0
  3 36  1  0
  9 37  1  0
 10 38  1  0
 11 39  1  0
 17 40  1  0
 17 41  1  0
 18 42  1  0
 18 43  1  0
 19 44  1  0
 20 45  1  0
 20 46  1  0
 22 47  1  0
 23 48  1  0
 26 49  1  0
 27 50  1  0
 28 51  1  0
 28 52  1  0
 29 53  1  0
 29 54  1  0
 30 55  1  0
M  CHG  2  19   1  31  -1
M  END
>  <UniqueID>  (58) 
58

>  <SMILES>  (58) 
Cc1cc(=NC(=O)c2cccc(S(=O)(=O)N3CC[NH+](Cc4ccc(F)cc4)CC3)c2)[n-]o1

>  <Energy>  (58) 
101.40442109777621

>  <Genealogy>  (58) 
Cc1cc(=NC(=O)c2cccc(S(=O)(=O)N3CC[NH+](Cc4ccc(F)cc4)CC3)c2)[n-]o1 (protonated)
Cc1cc(=NC(=O)c2cccc(S(=O)(=O)N3CC[NH+](Cc4ccc(F)cc4)CC3)c2)[n-]o1 (3D coordinates assigned)
Cc1cc(=NC(=O)c2cccc(S(=O)(=O)N3CC[NH+](Cc4ccc(F)cc4)CC3)c2)[n-]o1 (nonaromatic ring conformer: 101.40442109777621 kcal/mol)

>  <smiles>  (58) 
Cc1cc(=NC(=O)c2cccc(S(=O)(=O)N3CCN(Cc4ccc(F)cc4)CC3)c2)[nH]o1

>  <score_type>  (58) 
oracle

>  <origin>  (58) 
adg

>  <m_score__min__energy>  (58) 
-11.56

>  <m_primary>  (58) 
energy

$$$$
58:0
     RDKit          3D

 62 65  0  0  0  0  0  0  0  0999 V2000
   58.4430   32.7250   42.1030 O   0  0  0  0  0  0  0  0  0  0  0  0
   57.6400   32.0650   42.8160 C   0  0  0  0  0  0  0  0  0  0  0  0
   56.9070   30.9230   42.2480 C   0  0  0  0  0  0  0  0  0  0  0  0
   56.4130   29.9110   42.9770 C   0  0  0  0  0  0  0  0  0  0  0  0
   57.1450   29.2110   44.0570 C   0  0  0  0  0  0  0  0  0  0  0  0
   57.0650   29.7000   45.3700 C   0  0  0  0  0  0  0  0  0  0  0  0
   57.7920   29.0920   46.3980 C   0  0  0  0  0  0  0  0  0  0  0  0
   58.6220   27.9960   46.1200 C   0  0  0  0  0  0  0  0  0  0  0  0
   59.6150   27.2710   47.3830 S   0  0  0  0  0  0  0  0  0  0  0  0
   61.0040   27.0720   46.8480 O   0  0  0  0  0  0  0  0  0  0  0  0
   59.0560   25.9430   47.8100 O   0  0  0  0  0  0  0  0  0  0  0  0
   59.6670   28.3360   48.7520 N   0  0  0  0  0  0  0  0  0  0  0  0
   60.5720   29.4470   48.8110 C   0  0  0  0  0  0  0  0  0  0  0  0
   60.7680   30.2860   47.7000 C   0  0  0  0  0  0  0  0  0  0  0  0
   61.7230   31.3030   47.7440 C   0  0  0  0  0  0  0  0  0  0  0  0
   62.4970   31.4960   48.8950 C   0  0  0  0  0  0  0  0  0  0  0  0
   63.7790   32.7060   48.9040 S   0  0  0  0  0  0  0  0  0  0  0  0
   64.0650   33.1370   47.4930 O   0  0  0  0  0  0  0  0  0  0  0  0
   65.0310   32.0830   49.4560 O   0  0  0  0  0  0  0  0  0  0  0  0
   63.3600   34.1130   49.8610 N   0  0  0  0  0  0  0  0  0  0  0  0
   61.9130   34.2030   50.1300 C   0  0  0  0  0  0  0  0  0  0  0  0
   61.4610   33.3350   51.3300 C   0  0  0  0  0  0  0  0  0  0  0  0
   62.5400   32.7970   52.0690 O   0  0  0  0  0  0  0  0  0  0  0  0
   63.4720   33.8130   52.3570 C   0  0  0  0  0  0  0  0  0  0  0  0
   64.1960   34.2530   51.0740 C   0  0  0  0  0  0  0  0  0  0  0  0
   62.2670   30.6970   50.0220 C   0  0  0  0  0  0  0  0  0  0  0  0
   61.3060   29.6820   49.9820 C   0  0  0  0  0  0  0  0  0  0  0  0
   58.7200   27.5180   44.8090 C   0  0  0  0  0  0  0  0  0  0  0  0
   57.9970   28.1270   43.7820 C   0  0  0  0  0  0  0  0  0  0  0  0
   57.4320   32.4200   44.1840 N   0  0  0  0  0  0  0  0  0  0  0  0
   57.6530   33.7700   44.6880 C   0  0  0  0  0  0  0  0  0  0  0  0
   58.3210   33.7050   46.0350 C   0  0  0  0  0  0  0  0  0  0  0  0
   57.9010   32.7720   46.9970 C   0  0  0  0  0  0  0  0  0  0  0  0
   58.4890   32.7800   48.2640 C   0  0  0  0  0  0  0  0  0  0  0  0
   59.4600   33.6830   48.5630 N   0  0  0  0  0  0  0  0  0  0  0  0
   59.8810   34.6010   47.6530 C   0  0  0  0  0  0  0  0  0  0  0  0
   59.3150   34.6320   46.3760 C   0  0  0  0  0  0  0  0  0  0  0  0
   56.7547   30.8973   41.1589 H   0  0  0  0  0  0  0  0  0  0  0  0
   55.3886   29.5766   42.7561 H   0  0  0  0  0  0  0  0  0  0  0  0
   56.4260   30.5675   45.5919 H   0  0  0  0  0  0  0  0  0  0  0  0
   57.7129   29.4739   47.4266 H   0  0  0  0  0  0  0  0  0  0  0  0
   59.2120   28.0050   49.6320 H   0  0  0  0  0  0  0  0  0  0  0  0
   60.1655   30.1402   46.7913 H   0  0  0  0  0  0  0  0  0  0  0  0
   61.8683   31.9558   46.8707 H   0  0  0  0  0  0  0  0  0  0  0  0
   61.6615   35.2524   50.3431 H   0  0  0  0  0  0  0  0  0  0  0  0
   61.3905   33.8260   49.2384 H   0  0  0  0  0  0  0  0  0  0  0  0
   60.8535   33.9584   52.0026 H   0  0  0  0  0  0  0  0  0  0  0  0
   60.8905   32.4874   50.9225 H   0  0  0  0  0  0  0  0  0  0  0  0
   62.9455   34.6760   52.7906 H   0  0  0  0  0  0  0  0  0  0  0  0
   64.2136   33.4260   53.0713 H   0  0  0  0  0  0  0  0  0  0  0  0
   64.4861   35.3088   51.1798 H   0  0  0  0  0  0  0  0  0  0  0  0
   65.0703   33.5974   50.9484 H   0  0  0  0  0  0  0  0  0  0  0  0
   62.8446   30.8686   50.9423 H   0  0  0  0  0  0  0  0  0  0  0  0
   61.1250   29.0646   50.8742 H   0  0  0  0  0  0  0  0  0  0  0  0
   59.3696   26.6586   44.5865 H   0  0  0  0  0  0  0  0  0  0  0  0
   58.0945   27.7564   42.7509 H   0  0  0  0  0  0  0  0  0  0  0  0
   58.2967   34.3214   43.9868 H   0  0  0  0  0  0  0  0  0  0  0  0
   56.6862   34.2856   44.7851 H   0  0  0  0  0  0  0  0  0  0  0  0
   57.1155   32.0410   46.7547 H   0  0  0  0  0  0  0  0  0  0  0  0
   58.1650   32.0526   49.0229 H   0  0  0  0  0  0  0  0  0  0  0  0
   60.6683   35.3204   47.9224 H   0  0  0  0  0  0  0  0  0  0  0  0
   59.6480   35.3804   45.6419 H   0  0  0  0  0  0  0  0  0  0  0  0
  1  2  2  0
  2  3  1  0
  3  4  2  3
  4  5  1  0
  5  6  2  0
  6  7  1  0
  7  8  2  0
  8  9  1  0
  9 10  2  0
  9 11  2  0
  9 12  1  0
 12 13  1  0
 13 14  2  0
 14 15  1  0
 15 16  2  0
 16 17  1  0
 17 18  2  0
 17 19  2  0
 17 20  1  0
 20 21  1  0
 21 22  1  0
 22 23  1  0
 23 24  1  0
 24 25  1  0
 16 26  1  0
 26 27  2  0
  8 28  1  0
 28 29  2  0
  2 30  1  0
 30 31  1  0
 31 32  1  0
 32 33  2  0
 33 34  1  0
 34 35  2  0
 35 36  1  0
 36 37  2  0
 29  5  1  0
 37 32  1  0
 27 13  1  0
 25 20  1  0
  3 38  1  0
  4 39  1  0
  6 40  1  0
  7 41  1  0
 12 42  1  0
 14 43  1  0
 15 44  1  0
 21 45  1  0
 21 46  1  0
 22 47  1  0
 22 48  1  0
 24 49  1  0
 24 50  1  0
 25 51  1  0
 25 52  1  0
 26 53  1  0
 27 54  1  0
 28 55  1  0
 29 56  1  0
 31 57  1  0
 31 58  1  0
 33 59  1  0
 34 60  1  0
 36 61  1  0
 37 62  1  0
M  CHG  1  30  -1
M  END
>  <UniqueID>  (59) 
59

>  <SMILES>  (59) 
O=C(C=Cc1ccc(S(=O)(=O)Nc2ccc(S(=O)(=O)N3CCOCC3)cc2)cc1)[N-]Cc1ccncc1

>  <Energy>  (59) 
79.66366106819534

>  <Genealogy>  (59) 
O=C(C=Cc1ccc(S(=O)(=O)Nc2ccc(S(=O)(=O)N3CCOCC3)cc2)cc1)[N-]Cc1ccncc1 (protonated)
O=C(C=Cc1ccc(S(=O)(=O)Nc2ccc(S(=O)(=O)N3CCOCC3)cc2)cc1)[N-]Cc1ccncc1 (3D coordinates assigned)
O=C(C=Cc1ccc(S(=O)(=O)Nc2ccc(S(=O)(=O)N3CCOCC3)cc2)cc1)[N-]Cc1ccncc1 (nonaromatic ring conformer: 79.66366106819534 kcal/mol)

>  <smiles>  (59) 
O=C(C=Cc1ccc(S(=O)(=O)Nc2ccc(S(=O)(=O)N3CCOCC3)cc2)cc1)NCc1ccncc1

>  <score_type>  (59) 
oracle

>  <origin>  (59) 
adg

>  <m_score__min__energy>  (59) 
-11.83

>  <m_primary>  (59) 
energy

$$$$
59:0
     RDKit          3D

 51 54  0  0  0  0  0  0  0  0999 V2000
   64.4850   33.0800   49.0410 C   0  0  0  0  0  0  0  0  0  0  0  0
   63.3460   33.4570   48.1540 C   0  0  0  0  0  0  0  0  0  0  0  0
   63.3630   33.4400   46.7730 C   0  0  0  0  0  0  0  0  0  0  0  0
   62.1040   33.8400   46.3800 C   0  0  0  0  0  0  0  0  0  0  0  0
   61.4050   34.0780   47.5490 C   0  0  0  0  0  0  0  0  0  0  0  0
   59.9790   34.5070   47.6400 C   0  0  0  0  0  0  0  0  0  0  0  0
   59.4670   34.7650   46.3000 N   0  0  0  0  0  0  0  0  0  0  0  0
   58.7360   33.8190   45.5120 C   0  0  0  0  0  0  0  0  0  0  0  0
   59.2090   33.4670   44.3980 O   0  0  0  0  0  0  0  0  0  0  0  0
   57.3860   33.3020   45.9370 C   0  0  0  0  0  0  0  0  0  0  0  0
   57.1830   31.9220   45.4850 N   0  0  0  0  0  0  0  0  0  0  0  0
   56.2760   31.5870   44.5740 N   0  0  0  0  0  0  0  0  0  0  0  0
   56.3580   30.2560   44.3960 C   0  0  0  0  0  0  0  0  0  0  0  0
   55.6670   29.6270   43.5540 O   0  0  0  0  0  0  0  0  0  0  0  0
   57.3320   29.7260   45.2180 C   0  0  0  0  0  0  0  0  0  0  0  0
   57.8430   28.3870   45.2630 N   0  0  0  0  0  0  0  0  0  0  0  0
   57.3380   27.3110   46.0610 C   0  0  0  0  0  0  0  0  0  0  0  0
   56.1160   27.0040   46.0230 O   0  0  0  0  0  0  0  0  0  0  0  0
   58.2840   26.5120   46.9180 C   0  0  0  0  0  0  0  0  0  0  0  0
   59.1810   27.3590   47.8220 C   0  0  0  0  0  0  0  0  0  0  0  0
   60.4120   26.8330   47.0970 C   0  0  0  0  0  0  0  0  0  0  0  0
   59.5240   26.0050   46.1800 C   0  0  0  0  0  0  0  0  0  0  0  0
   57.8690   30.8170   45.8730 C   0  0  0  0  0  0  0  0  0  0  0  0
   59.0240   30.7830   46.7960 C   0  0  0  0  0  0  0  0  0  0  0  0
   58.8620   31.1020   48.1550 C   0  0  0  0  0  0  0  0  0  0  0  0
   59.9630   31.0920   49.0160 C   0  0  0  0  0  0  0  0  0  0  0  0
   61.2330   30.7740   48.5270 C   0  0  0  0  0  0  0  0  0  0  0  0
   61.4060   30.4710   47.1740 C   0  0  0  0  0  0  0  0  0  0  0  0
   60.3060   30.4800   46.3090 C   0  0  0  0  0  0  0  0  0  0  0  0
   62.1670   33.8360   48.5900 O   0  0  0  0  0  0  0  0  0  0  0  0
   64.1796   33.1811   50.0929 H   0  0  0  0  0  0  0  0  0  0  0  0
   64.7753   32.0378   48.8420 H   0  0  0  0  0  0  0  0  0  0  0  0
   65.3398   33.7431   48.8420 H   0  0  0  0  0  0  0  0  0  0  0  0
   64.2060   33.1645   46.1222 H   0  0  0  0  0  0  0  0  0  0  0  0
   61.7324   33.9476   45.3503 H   0  0  0  0  0  0  0  0  0  0  0  0
   59.3853   33.7110   48.1132 H   0  0  0  0  0  0  0  0  0  0  0  0
   59.9078   35.4233   48.2444 H   0  0  0  0  0  0  0  0  0  0  0  0
   57.3182   33.3342   47.0344 H   0  0  0  0  0  0  0  0  0  0  0  0
   56.6103   33.9361   45.4829 H   0  0  0  0  0  0  0  0  0  0  0  0
   57.5614   25.8045   47.3508 H   0  0  0  0  0  0  0  0  0  0  0  0
   59.0277   28.4432   47.7174 H   0  0  0  0  0  0  0  0  0  0  0  0
   59.1031   27.2777   48.9162 H   0  0  0  0  0  0  0  0  0  0  0  0
   60.9925   27.6097   46.5776 H   0  0  0  0  0  0  0  0  0  0  0  0
   61.2265   26.3550   47.6610 H   0  0  0  0  0  0  0  0  0  0  0  0
   59.5697   26.3031   45.1222 H   0  0  0  0  0  0  0  0  0  0  0  0
   59.6987   24.9252   46.0637 H   0  0  0  0  0  0  0  0  0  0  0  0
   57.8654   31.3604   48.5424 H   0  0  0  0  0  0  0  0  0  0  0  0
   59.8296   31.3349   50.0805 H   0  0  0  0  0  0  0  0  0  0  0  0
   62.0970   30.7622   49.2077 H   0  0  0  0  0  0  0  0  0  0  0  0
   62.4067   30.2254   46.7889 H   0  0  0  0  0  0  0  0  0  0  0  0
   60.4461   30.2487   45.2428 H   0  0  0  0  0  0  0  0  0  0  0  0
  1  2  1  0
  2  3  2  0
  3  4  1  0
  4  5  2  0
  5  6  1  0
  6  7  1  0
  7  8  1  0
  8  9  2  0
  8 10  1  0
 10 11  1  0
 11 12  1  0
 12 13  1  0
 13 14  2  0
 13 15  1  0
 15 16  1  0
 16 17  1  0
 17 18  2  0
 17 19  1  0
 19 20  1  0
 20 21  1  0
 21 22  1  0
 15 23  2  0
 23 24  1  0
 24 25  2  0
 25 26  1  0
 26 27  2  0
 27 28  1  0
 28 29  2  0
  5 30  1  0
 30  2  1  0
 23 11  1  0
 29 24  1  0
 22 19  1  0
  1 31  1  0
  1 32  1  0
  1 33  1  0
  3 34  1  0
  4 35  1  0
  6 36  1  0
  6 37  1  0
 10 38  1  0
 10 39  1  0
 19 40  1  0
 20 41  1  0
 20 42  1  0
 21 43  1  0
 21 44  1  0
 22 45  1  0
 22 46  1  0
 25 47  1  0
 26 48  1  0
 27 49  1  0
 28 50  1  0
 29 51  1  0
M  CHG  3   7  -1  12  -1  16  -1
M  END
>  <UniqueID>  (60) 
60

>  <SMILES>  (60) 
Cc1ccc(C[N-]C(=O)Cn2[n-]c(=O)c([N-]C(=O)C3CCC3)c2-c2ccccc2)o1

>  <Energy>  (60) 
177.4347702833396

>  <Genealogy>  (60) 
Cc1ccc(C[N-]C(=O)Cn2[n-]c(=O)c([N-]C(=O)C3CCC3)c2-c2ccccc2)o1 (protonated)
Cc1ccc(C[N-]C(=O)Cn2[n-]c(=O)c([N-]C(=O)C3CCC3)c2-c2ccccc2)o1 (3D coordinates assigned)
Cc1ccc(C[N-]C(=O)Cn2[n-]c(=O)c([N-]C(=O)C3CCC3)c2-c2ccccc2)o1 (nonaromatic ring conformer: 177.4347702833396 kcal/mol)

>  <smiles>  (60) 
Cc1ccc(CNC(=O)Cn2[nH]c(=O)c(NC(=O)C3CCC3)c2-c2ccccc2)o1

>  <score_type>  (60) 
oracle

>  <origin>  (60) 
adg

>  <m_score__min__energy>  (60) 
-13.609999999999999

>  <m_primary>  (60) 
energy

$$$$
60:0
     RDKit          3D

 37 39  0  0  0  0  0  0  0  0999 V2000
   54.0210   26.3330   46.3700 H   0  0  0  0  0  0  0  0  0  0  0  0
   54.9410   26.4300   45.9540 O   0  0  0  0  0  0  0  0  0  0  0  0
   55.9770   25.5800   46.3230 C   0  0  0  0  0  0  0  0  0  0  0  0
   55.8100   24.4670   47.0570 N   0  0  0  0  0  0  0  0  0  0  0  0
   57.0640   23.9770   47.1410 C   0  0  0  0  0  0  0  0  0  0  0  0
   57.3390   22.9160   47.7590 O   0  0  0  0  0  0  0  0  0  0  0  0
   58.0010   24.7110   46.5030 N   0  0  0  0  0  0  0  0  0  0  0  0
   57.3040   25.7440   45.9970 C   0  0  0  0  0  0  0  0  0  0  0  0
   57.8470   26.8100   45.1270 C   0  0  0  0  0  0  0  0  0  0  0  0
   58.0479   26.5483   44.0776 H   0  0  0  0  0  0  0  0  0  0  0  0
   58.1180   28.0790   45.5100 C   0  0  0  0  0  0  0  0  0  0  0  0
   58.9750   28.4230   46.5810 C   0  0  0  0  0  0  0  0  0  0  0  0
   59.5079   27.6751   47.1866 H   0  0  0  0  0  0  0  0  0  0  0  0
   59.0830   29.7890   46.7990 C   0  0  0  0  0  0  0  0  0  0  0  0
   59.8440   30.4400   47.9130 C   0  0  0  0  0  0  0  0  0  0  0  0
   60.3090   29.6620   48.5364 H   0  0  0  0  0  0  0  0  0  0  0  0
   60.6167   31.0930   47.4810 H   0  0  0  0  0  0  0  0  0  0  0  0
   58.9280   31.2700   48.7620 C   0  0  0  0  0  0  0  0  0  0  0  0
   58.2844   30.7755   49.5044 H   0  0  0  0  0  0  0  0  0  0  0  0
   58.8790   32.6030   48.6330 C   0  0  0  0  0  0  0  0  0  0  0  0
   58.9491   33.2133   49.5455 H   0  0  0  0  0  0  0  0  0  0  0  0
   58.7360   33.3050   47.3350 C   0  0  0  0  0  0  0  0  0  0  0  0
   57.4480   33.4550   46.7910 C   0  0  0  0  0  0  0  0  0  0  0  0
   56.5767   33.0615   47.3350 H   0  0  0  0  0  0  0  0  0  0  0  0
   57.2660   34.1010   45.5630 C   0  0  0  0  0  0  0  0  0  0  0  0
   56.2536   34.2198   45.1495 H   0  0  0  0  0  0  0  0  0  0  0  0
   58.3680   34.5950   44.8620 C   0  0  0  0  0  0  0  0  0  0  0  0
   58.2231   35.1070   43.8993 H   0  0  0  0  0  0  0  0  0  0  0  0
   59.6530   34.4390   45.3830 C   0  0  0  0  0  0  0  0  0  0  0  0
   60.5204   34.8245   44.8271 H   0  0  0  0  0  0  0  0  0  0  0  0
   59.8420   33.7940   46.6100 C   0  0  0  0  0  0  0  0  0  0  0  0
   60.8585   33.6677   47.0111 H   0  0  0  0  0  0  0  0  0  0  0  0
   58.1010   30.5970   45.7070 S   0  0  0  0  0  0  0  0  0  0  0  0
   57.5400   29.2220   44.9160 C   0  0  0  0  0  0  0  0  0  0  0  0
   56.6880   29.2800   43.8870 C   0  0  0  0  0  0  0  0  0  0  0  0
   56.3487   28.3534   43.4010 H   0  0  0  0  0  0  0  0  0  0  0  0
   56.3264   30.2543   43.5266 H   0  0  0  0  0  0  0  0  0  0  0  0
  1  2  1  0
  2  3  1  0
  3  4  1  0
  4  5  1  0
  5  6  2  0
  5  7  1  0
  7  8  1  0
  8  9  1  0
  9 10  1  0
  9 11  2  3
 11 12  1  0
 12 13  1  0
 12 14  2  0
 14 15  1  0
 15 16  1  0
 15 17  1  0
 15 18  1  0
 18 19  1  0
 18 20  2  0
 20 21  1  0
 20 22  1  0
 22 23  2  0
 23 24  1  0
 23 25  1  0
 25 26  1  0
 25 27  2  0
 27 28  1  0
 27 29  1  0
 29 30  1  0
 29 31  2  0
 31 32  1  0
 14 33  1  0
 33 34  1  0
 34 35  2  0
 35 36  1  0
 35 37  1  0
  8  3  2  0
 34 11  1  0
 31 22  1  0
M  CHG  2   4  -1   7  -1
M  END
>  <UniqueID>  (61) 
61

>  <SMILES>  (61) 
C=c1sc(C/C=C/c2ccccc2)cc1=Cc1[n-]c(=O)[n-]c1O

>  <Energy>  (61) 
99.96909853580146

>  <Genealogy>  (61) 
C=c1sc(CC=Cc2ccccc2)cc1=Cc1[n-]c(=O)[n-]c1O (protonated)
C=c1sc(C/C=C/c2ccccc2)cc1=Cc1[n-]c(=O)[n-]c1O (cis-trans isomerization)
C=c1sc(C/C=C/c2ccccc2)cc1=Cc1[n-]c(=O)[n-]c1O (3D coordinates assigned)
C=c1sc(C/C=C/c2ccccc2)cc1=Cc1[n-]c(=O)[n-]c1O (optimized conformer: 99.96909853580146 kcal/mol)

>  <smiles>  (61) 
C=c1sc(CC=Cc2ccccc2)cc1=Cc1[nH]c(=O)[nH]c1O

>  <score_type>  (61) 
oracle

>  <origin>  (61) 
adg

>  <m_score__min__energy>  (61) 
-12.890000000000001

>  <m_primary>  (61) 
energy

$$$$
61:0
     RDKit          3D

 57 60  0  0  0  0  0  0  0  0999 V2000
   58.4660   34.5830   52.4740 C   0  0  0  0  0  0  0  0  0  0  0  0
   58.9100   33.7540   53.4230 C   0  0  0  0  0  0  0  0  0  0  0  0
   58.7840   32.2490   53.2930 C   0  0  0  0  0  0  0  0  0  0  0  0
   59.6370   31.6770   52.2220 N   0  0  2  0  0  0  0  0  0  0  0  0
   60.9180   32.4350   52.0440 C   0  0  0  0  0  0  0  0  0  0  0  0
   61.1110   33.0210   50.6350 C   0  0  0  0  0  0  0  0  0  0  0  0
   60.8720   31.9450   49.5940 C   0  0  0  0  0  0  0  0  0  0  0  0
   59.7690   31.1200   49.8100 C   0  0  0  0  0  0  0  0  0  0  0  0
   59.4980   30.0920   48.9020 C   0  0  0  0  0  0  0  0  0  0  0  0
   58.4970   29.3460   49.0890 O   0  0  0  0  0  0  0  0  0  0  0  0
   60.3210   29.8930   47.8260 N   0  0  0  0  0  0  0  0  0  0  0  0
   60.0420   28.7970   46.8720 C   0  0  0  0  0  0  0  0  0  0  0  0
   58.8600   29.1380   45.9990 C   0  0  0  0  0  0  0  0  0  0  0  0
   58.8690   30.3010   45.2110 C   0  0  0  0  0  0  0  0  0  0  0  0
   57.7680   30.6190   44.4110 C   0  0  0  0  0  0  0  0  0  0  0  0
   56.6480   29.7800   44.3940 C   0  0  0  0  0  0  0  0  0  0  0  0
   55.5830   30.0880   43.6140 F   0  0  0  0  0  0  0  0  0  0  0  0
   56.6260   28.6280   45.1830 C   0  0  0  0  0  0  0  0  0  0  0  0
   57.7260   28.3070   45.9840 C   0  0  0  0  0  0  0  0  0  0  0  0
   61.3820   30.7380   47.6080 C   0  0  0  0  0  0  0  0  0  0  0  0
   62.1270   30.5510   46.6030 O   0  0  0  0  0  0  0  0  0  0  0  0
   61.6470   31.7810   48.4670 N   0  0  0  0  0  0  0  0  0  0  0  0
   62.7780   32.6870   48.1690 C   0  0  0  0  0  0  0  0  0  0  0  0
   62.3230   33.8320   47.3180 C   0  0  0  0  0  0  0  0  0  0  0  0
   63.0500   34.2280   46.3650 O   0  0  0  0  0  0  0  0  0  0  0  0
   61.0510   34.4430   47.5870 N   0  0  0  0  0  0  0  0  0  0  0  0
   59.9070   34.1430   47.0400 C   0  0  0  0  0  0  0  0  0  0  0  0
   59.6450   34.5600   45.7270 C   0  0  0  0  0  0  0  0  0  0  0  0
   58.4150   34.2570   45.1410 C   0  0  0  0  0  0  0  0  0  0  0  0
   57.4570   33.5470   45.8650 C   0  0  0  0  0  0  0  0  0  0  0  0
   57.7500   33.1420   47.1690 C   0  0  0  0  0  0  0  0  0  0  0  0
   58.9540   33.4460   47.7230 N   0  0  0  0  0  0  0  0  0  0  0  0
   58.8610   31.4350   50.9780 C   0  0  0  0  0  0  0  0  0  0  0  0
   58.5730   35.6705   52.5997 H   0  0  0  0  0  0  0  0  0  0  0  0
   57.9934   34.1780   51.5670 H   0  0  0  0  0  0  0  0  0  0  0  0
   59.3801   34.1753   54.3238 H   0  0  0  0  0  0  0  0  0  0  0  0
   59.0724   31.7909   54.2506 H   0  0  0  0  0  0  0  0  0  0  0  0
   57.7390   32.0322   53.0267 H   0  0  0  0  0  0  0  0  0  0  0  0
   59.9090   30.7230   52.5670 H   0  0  0  0  0  0  0  0  0  0  0  0
   60.9325   33.2634   52.7675 H   0  0  0  0  0  0  0  0  0  0  0  0
   61.7359   31.7170   52.2034 H   0  0  0  0  0  0  0  0  0  0  0  0
   60.3970   33.8435   50.4806 H   0  0  0  0  0  0  0  0  0  0  0  0
   62.1392   33.3993   50.5368 H   0  0  0  0  0  0  0  0  0  0  0  0
   60.9258   28.6373   46.2369 H   0  0  0  0  0  0  0  0  0  0  0  0
   59.8103   27.8840   47.4401 H   0  0  0  0  0  0  0  0  0  0  0  0
   59.7464   30.9643   45.2237 H   0  0  0  0  0  0  0  0  0  0  0  0
   57.7818   31.5296   43.7941 H   0  0  0  0  0  0  0  0  0  0  0  0
   55.7426   27.9727   45.1743 H   0  0  0  0  0  0  0  0  0  0  0  0
   57.7041   27.3997   46.6056 H   0  0  0  0  0  0  0  0  0  0  0  0
   63.1872   33.0775   49.1124 H   0  0  0  0  0  0  0  0  0  0  0  0
   63.5505   32.1242   47.6245 H   0  0  0  0  0  0  0  0  0  0  0  0
   60.4037   35.1221   45.1627 H   0  0  0  0  0  0  0  0  0  0  0  0
   58.2015   34.5773   44.1106 H   0  0  0  0  0  0  0  0  0  0  0  0
   56.4823   33.3090   45.4141 H   0  0  0  0  0  0  0  0  0  0  0  0
   57.0058   32.5763   47.7487 H   0  0  0  0  0  0  0  0  0  0  0  0
   58.2744   32.3351   50.7420 H   0  0  0  0  0  0  0  0  0  0  0  0
   58.2019   30.5704   51.1454 H   0  0  0  0  0  0  0  0  0  0  0  0
  1  2  2  0
  2  3  1  0
  3  4  1  0
  4  5  1  0
  5  6  1  0
  6  7  1  0
  7  8  2  0
  8  9  1  0
  9 10  2  0
  9 11  1  0
 11 12  1  0
 12 13  1  0
 13 14  2  0
 14 15  1  0
 15 16  2  0
 16 17  1  0
 16 18  1  0
 18 19  2  0
 11 20  1  0
 20 21  2  0
 20 22  1  0
 22 23  1  0
 23 24  1  0
 24 25  2  0
 24 26  1  0
 26 27  2  3
 27 28  1  0
 28 29  2  0
 29 30  1  0
 30 31  2  0
 31 32  1  0
  8 33  1  0
 33  4  1  0
 22  7  1  0
 32 27  1  0
 19 13  1  0
  1 34  1  0
  1 35  1  0
  2 36  1  0
  3 37  1  0
  3 38  1  0
  4 39  1  1
  5 40  1  0
  5 41  1  0
  6 42  1  0
  6 43  1  0
 12 44  1  0
 12 45  1  0
 14 46  1  0
 15 47  1  0
 18 48  1  0
 19 49  1  0
 23 50  1  0
 23 51  1  0
 28 52  1  0
 29 53  1  0
 30 54  1  0
 31 55  1  0
 33 56  1  0
 33 57  1  0
M  CHG  2   4   1  32  -1
M  END
>  <UniqueID>  (62) 
62

>  <SMILES>  (62) 
C=CC[N@@H+]1CCc2c(c(=O)n(Cc3ccc(F)cc3)c(=O)n2CC(=O)N=c2cccc[n-]2)C1

>  <Energy>  (62) 
85.62305420953066

>  <Genealogy>  (62) 
C=CC[NH+]1CCc2c(c(=O)n(Cc3ccc(F)cc3)c(=O)n2CC(=O)N=c2cccc[n-]2)C1 (protonated)
C=CC[N@@H+]1CCc2c(c(=O)n(Cc3ccc(F)cc3)c(=O)n2CC(=O)N=c2cccc[n-]2)C1 (chirality)
C=CC[N@@H+]1CCc2c(c(=O)n(Cc3ccc(F)cc3)c(=O)n2CC(=O)N=c2cccc[n-]2)C1 (3D coordinates assigned)
C=CC[N@@H+]1CCc2c(c(=O)n(Cc3ccc(F)cc3)c(=O)n2CC(=O)N=c2cccc[n-]2)C1 (nonaromatic ring conformer: 85.62305420953066 kcal/mol)

>  <smiles>  (62) 
C=CCN1CCc2c(c(=O)n(Cc3ccc(F)cc3)c(=O)n2CC(=O)N=c2cccc[nH]2)C1

>  <score_type>  (62) 
oracle

>  <origin>  (62) 
adg

>  <m_score__min__energy>  (62) 
-8.7899999999999991

>  <m_primary>  (62) 
energy

$$$$
62:0
     RDKit          3D

 44 46  0  0  0  0  0  0  0  0999 V2000
   56.5880   30.1880   42.9560 C   0  0  0  0  0  0  0  0  0  0  0  0
   57.3030   29.4060   43.9610 N   0  0  0  0  0  0  0  0  0  0  0  0
   57.3930   28.0870   43.9240 N   0  0  0  0  0  0  0  0  0  0  0  0
   58.0700   27.6710   45.0110 C   0  0  0  0  0  0  0  0  0  0  0  0
   58.4450   26.2480   45.2810 C   0  0  0  0  0  0  0  0  0  0  0  0
   57.2600   25.3530   45.0470 C   0  0  0  0  0  0  0  0  0  0  0  0
   56.1080   25.4810   45.8420 C   0  0  0  0  0  0  0  0  0  0  0  0
   55.0240   24.6200   45.6500 C   0  0  0  0  0  0  0  0  0  0  0  0
   55.0840   23.6220   44.6750 C   0  0  0  0  0  0  0  0  0  0  0  0
   56.2320   23.4780   43.8900 C   0  0  0  0  0  0  0  0  0  0  0  0
   56.3120   22.2160   42.6750 Cl  0  0  0  0  0  0  0  0  0  0  0  0
   57.3200   24.3390   44.0770 C   0  0  0  0  0  0  0  0  0  0  0  0
   58.4460   28.7690   45.7640 C   0  0  0  0  0  0  0  0  0  0  0  0
   57.9530   29.8550   45.0610 C   0  0  0  0  0  0  0  0  0  0  0  0
   58.0970   31.2620   45.4790 C   0  0  0  0  0  0  0  0  0  0  0  0
   57.1370   32.0510   45.2700 O   0  0  0  0  0  0  0  0  0  0  0  0
   59.2860   31.7430   46.1410 N   0  0  0  0  0  0  0  0  0  0  0  0
   59.6510   33.1620   45.9960 C   0  0  0  0  0  0  0  0  0  0  0  0
   60.7080   33.5930   47.0200 C   0  0  0  0  0  0  0  0  0  0  0  0
   61.7880   32.6020   47.0880 N   0  0  0  0  0  0  0  0  0  0  0  0
   63.1590   33.0060   47.2420 C   0  0  0  0  0  0  0  0  0  0  0  0
   63.4740   34.2230   47.3170 O   0  0  0  0  0  0  0  0  0  0  0  0
   61.4810   31.1670   47.1150 C   0  0  0  0  0  0  0  0  0  0  0  0
   59.9690   30.9080   47.1400 C   0  0  0  0  0  0  0  0  0  0  0  0
   55.9269   30.9111   43.4561 H   0  0  0  0  0  0  0  0  0  0  0  0
   57.3121   30.7270   42.3274 H   0  0  0  0  0  0  0  0  0  0  0  0
   55.9864   29.5149   42.3274 H   0  0  0  0  0  0  0  0  0  0  0  0
   56.9990   27.4800   43.1690 H   0  0  0  0  0  0  0  0  0  0  0  0
   59.2636   25.9526   44.6082 H   0  0  0  0  0  0  0  0  0  0  0  0
   58.7704   26.1517   46.3273 H   0  0  0  0  0  0  0  0  0  0  0  0
   56.0595   26.2603   46.6168 H   0  0  0  0  0  0  0  0  0  0  0  0
   54.1210   24.7287   46.2686 H   0  0  0  0  0  0  0  0  0  0  0  0
   54.2273   22.9486   44.5245 H   0  0  0  0  0  0  0  0  0  0  0  0
   58.2246   24.2210   43.4624 H   0  0  0  0  0  0  0  0  0  0  0  0
   59.0097   28.7773   46.7085 H   0  0  0  0  0  0  0  0  0  0  0  0
   60.0507   33.3239   44.9840 H   0  0  0  0  0  0  0  0  0  0  0  0
   58.7466   33.7639   46.1687 H   0  0  0  0  0  0  0  0  0  0  0  0
   61.1266   34.5654   46.7214 H   0  0  0  0  0  0  0  0  0  0  0  0
   60.2344   33.6732   48.0096 H   0  0  0  0  0  0  0  0  0  0  0  0
   63.9460   32.2394   47.2952 H   0  0  0  0  0  0  0  0  0  0  0  0
   61.9084   30.6946   46.2182 H   0  0  0  0  0  0  0  0  0  0  0  0
   61.9159   30.7416   48.0315 H   0  0  0  0  0  0  0  0  0  0  0  0
   59.7798   29.8479   46.9158 H   0  0  0  0  0  0  0  0  0  0  0  0
   59.5818   31.1599   48.1383 H   0  0  0  0  0  0  0  0  0  0  0  0
  1  2  1  0
  2  3  1  0
  3  4  2  0
  4  5  1  0
  5  6  1  0
  6  7  2  0
  7  8  1  0
  8  9  2  0
  9 10  1  0
 10 11  1  0
 10 12  2  0
  4 13  1  0
 13 14  2  0
 14 15  1  0
 15 16  2  0
 15 17  1  0
 17 18  1  0
 18 19  1  0
 19 20  1  0
 20 21  1  0
 21 22  2  0
 20 23  1  0
 23 24  1  0
 14  2  1  0
 24 17  1  0
 12  6  1  0
  1 25  1  0
  1 26  1  0
  1 27  1  0
  3 28  1  0
  5 29  1  0
  5 30  1  0
  7 31  1  0
  8 32  1  0
  9 33  1  0
 12 34  1  0
 13 35  1  0
 18 36  1  0
 18 37  1  0
 19 38  1  0
 19 39  1  0
 21 40  1  0
 23 41  1  0
 23 42  1  0
 24 43  1  0
 24 44  1  0
M  CHG  1   3   1
M  END
>  <UniqueID>  (63) 
63

>  <SMILES>  (63) 
Cn1[nH+]c(Cc2cccc(Cl)c2)cc1C(=O)N1CCN(C=O)CC1

>  <Energy>  (63) 
76.95056062332525

>  <Genealogy>  (63) 
Cn1[nH+]c(Cc2cccc(Cl)c2)cc1C(=O)N1CCN(C=O)CC1 (protonated)
Cn1[nH+]c(Cc2cccc(Cl)c2)cc1C(=O)N1CCN(C=O)CC1 (3D coordinates assigned)
Cn1[nH+]c(Cc2cccc(Cl)c2)cc1C(=O)N1CCN(C=O)CC1 (nonaromatic ring conformer: 76.95056062332525 kcal/mol)

>  <smiles>  (63) 
Cn1nc(Cc2cccc(Cl)c2)cc1C(=O)N1CCN(C=O)CC1

>  <score_type>  (63) 
oracle

>  <origin>  (63) 
adg

>  <m_score__min__energy>  (63) 
-7.1600000000000001

>  <m_primary>  (63) 
energy

$$$$
63:0
     RDKit          3D

 54 56  0  0  1  0  0  0  0  0999 V2000
   55.6750   30.0570   44.0680 C   0  0  0  0  0  0  0  0  0  0  0  0
   56.6030   30.3560   42.9340 C   0  0  0  0  0  0  0  0  0  0  0  0
   57.6740   31.3820   43.3230 C   0  0  1  0  0  0  0  0  0  0  0  0
   57.8030   32.3350   42.1810 C   0  0  0  0  0  0  0  0  0  0  0  0
   58.8820   33.2910   48.5610 N   0  0  0  0  0  0  0  0  0  0  0  0
   58.6100   32.4180   47.6630 C   0  0  0  0  0  0  0  0  0  0  0  0
   58.0950   30.5190   45.8650 N   0  0  0  0  0  0  0  0  0  0  0  0
   58.7190   30.1900   47.0110 C   0  0  0  0  0  0  0  0  0  0  0  0
   57.1420   32.0300   44.5080 N   0  0  0  0  0  0  0  0  0  0  0  0
   57.7300   31.8000   45.6220 C   0  0  0  0  0  0  0  0  0  0  0  0
   57.9000   26.7510   47.1020 C   0  0  0  0  0  0  0  0  0  0  0  0
   57.2690   26.1310   46.0530 C   0  0  0  0  0  0  0  0  0  0  0  0
   56.5500   24.8250   46.0450 C   0  0  0  0  0  0  0  0  0  0  0  0
   57.3910   26.9050   44.9610 N   0  0  0  0  0  0  0  0  0  0  0  0
   58.0850   27.9940   45.3050 N   0  0  0  0  0  0  0  0  0  0  0  0
   58.9730   31.1470   47.9070 N   0  0  0  0  0  0  0  0  0  0  0  0
   58.4070   27.9300   46.5980 C   0  0  0  0  0  0  0  0  0  0  0  0
   59.0780   28.8390   47.2160 N   0  0  0  0  0  0  0  0  0  0  0  0
   59.6890   34.4360   48.3180 C   0  0  0  0  0  0  0  0  0  0  0  0
   61.1150   34.0630   48.0150 C   0  0  0  0  0  0  0  0  0  0  0  0
   61.5640   33.8680   46.7290 C   0  0  0  0  0  0  0  0  0  0  0  0
   62.8850   33.5200   46.4530 C   0  0  0  0  0  0  0  0  0  0  0  0
   63.7860   33.3630   47.4810 C   0  0  0  0  0  0  0  0  0  0  0  0
   63.3640   33.5520   48.7780 C   0  0  0  0  0  0  0  0  0  0  0  0
   64.1960   33.4160   49.8780 O   0  0  0  0  0  0  0  0  0  0  0  0
   65.4080   32.7250   49.9070 C   0  0  0  0  0  0  0  0  0  0  0  0
   62.0510   33.8950   49.0260 C   0  0  0  0  0  0  0  0  0  0  0  0
   57.9880   32.7540   46.5220 N   0  0  0  0  0  0  0  0  0  0  0  0
   56.1960   30.2249   45.0222 H   0  0  0  0  0  0  0  0  0  0  0  0
   54.7978   30.7180   44.0080 H   0  0  0  0  0  0  0  0  0  0  0  0
   55.3487   29.0082   44.0080 H   0  0  0  0  0  0  0  0  0  0  0  0
   57.0994   29.4239   42.6262 H   0  0  0  0  0  0  0  0  0  0  0  0
   56.0086   30.7808   42.1117 H   0  0  0  0  0  0  0  0  0  0  0  0
   58.6686   30.9596   43.5286 H   0  0  0  0  0  0  0  0  0  0  0  0
   57.9411   33.3552   42.5686 H   0  0  0  0  0  0  0  0  0  0  0  0
   58.6715   32.0555   41.5665 H   0  0  0  0  0  0  0  0  0  0  0  0
   56.8914   32.2965   41.5665 H   0  0  0  0  0  0  0  0  0  0  0  0
   57.9842   26.3824   48.1350 H   0  0  0  0  0  0  0  0  0  0  0  0
   56.3705   24.4989   47.0801 H   0  0  0  0  0  0  0  0  0  0  0  0
   55.5877   24.9394   45.5245 H   0  0  0  0  0  0  0  0  0  0  0  0
   57.1613   24.0731   45.5245 H   0  0  0  0  0  0  0  0  0  0  0  0
   57.0250   26.7250   43.9920 H   0  0  0  0  0  0  0  0  0  0  0  0
   58.3150   28.7610   44.6180 H   0  0  0  0  0  0  0  0  0  0  0  0
   59.4560   30.9040   48.7990 H   0  0  0  0  0  0  0  0  0  0  0  0
   59.2756   34.9870   47.4604 H   0  0  0  0  0  0  0  0  0  0  0  0
   59.6843   35.0557   49.2269 H   0  0  0  0  0  0  0  0  0  0  0  0
   60.8590   33.9905   45.8936 H   0  0  0  0  0  0  0  0  0  0  0  0
   63.2077   33.3707   45.4121 H   0  0  0  0  0  0  0  0  0  0  0  0
   64.8303   33.0899   47.2694 H   0  0  0  0  0  0  0  0  0  0  0  0
   65.7077   32.5541   50.9515 H   0  0  0  0  0  0  0  0  0  0  0  0
   65.2910   31.7578   49.3962 H   0  0  0  0  0  0  0  0  0  0  0  0
   66.1807   33.3183   49.3962 H   0  0  0  0  0  0  0  0  0  0  0  0
   61.7325   34.0415   50.0686 H   0  0  0  0  0  0  0  0  0  0  0  0
   57.7230   33.7270   46.3620 H   0  0  0  0  0  0  0  0  0  0  0  0
  1  2  1  0
  2  3  1  0
  3  4  1  0
  3  5  1  0
  5  6  2  0
  6  7  1  0
  7  8  2  0
  8  9  1  0
  9 10  2  0
 10 11  1  0
 11 12  2  0
 12 13  1  0
 12 14  1  0
 14 15  1  0
  8 16  1  0
 16 17  1  0
 17 18  2  0
 18 19  1  0
 19 20  1  0
 20 21  2  0
 21 22  1  0
 22 23  2  0
 23 24  1  0
 24 25  1  0
 25 26  1  0
 24 27  2  0
 17 28  1  0
 28  6  1  0
 15 10  1  0
 27 20  1  0
  1 29  1  0
  1 30  1  0
  1 31  1  0
  2 32  1  0
  2 33  1  0
  3 34  1  6
  4 35  1  0
  4 36  1  0
  4 37  1  0
 11 38  1  0
 13 39  1  0
 13 40  1  0
 13 41  1  0
 14 42  1  0
 15 43  1  0
 16 44  1  0
 19 45  1  0
 19 46  1  0
 21 47  1  0
 22 48  1  0
 23 49  1  0
 26 50  1  0
 26 51  1  0
 26 52  1  0
 27 53  1  0
 28 54  1  0
M  END
>  <smiles>  (64) 
CCC(C)N=c1nc(N=c2cc(C)[nH][nH]2)[nH]c(=NCc2cccc(OC)c2)[nH]1

>  <score_type>  (64) 
oracle

>  <origin>  (64) 
adg

>  <m_score__min__energy>  (64) 
-8.0800000000000001

>  <m_primary>  (64) 
energy

$$$$
64:0
     RDKit          3D

 54 58  0  0  0  0  0  0  0  0999 V2000
   59.3560   30.8260   47.0830 C   0  0  0  0  0  0  0  0  0  0  0  0
   59.4780   29.6430   47.7050 C   0  0  0  0  0  0  0  0  0  0  0  0
   59.7690   29.4080   49.0570 C   0  0  0  0  0  0  0  0  0  0  0  0
   59.7660   30.2530   50.1050 C   0  0  0  0  0  0  0  0  0  0  0  0
   58.5660   30.7980   50.7640 C   0  0  0  0  0  0  0  0  0  0  0  0
   57.4420   30.0890   50.9970 N   0  0  0  0  0  0  0  0  0  0  0  0
   56.6350   30.9080   51.7070 C   0  0  0  0  0  0  0  0  0  0  0  0
   55.2850   30.5200   52.1480 C   0  0  0  0  0  0  0  0  0  0  0  0
   55.0050   29.5840   53.1270 C   0  0  0  0  0  0  0  0  0  0  0  0
   53.6290   29.5210   53.2170 C   0  0  0  0  0  0  0  0  0  0  0  0
   53.1300   30.4190   52.2940 C   0  0  0  0  0  0  0  0  0  0  0  0
   54.1410   31.0260   51.6440 N   0  0  0  0  0  0  0  0  0  0  0  0
   57.2470   32.1250   51.9580 C   0  0  0  0  0  0  0  0  0  0  0  0
   58.4820   32.0330   51.3640 C   0  0  0  0  0  0  0  0  0  0  0  0
   59.4670   33.0130   51.3760 O   0  0  0  0  0  0  0  0  0  0  0  0
   60.0580   28.1000   49.2220 N   0  0  0  0  0  0  0  0  0  0  0  0
   59.8860   27.5600   48.0020 C   0  0  0  0  0  0  0  0  0  0  0  0
   60.0760   26.3380   47.7710 O   0  0  0  0  0  0  0  0  0  0  0  0
   59.5160   28.4520   47.0580 N   0  0  0  0  0  0  0  0  0  0  0  0
   59.2420   28.1690   45.6430 C   0  0  0  0  0  0  0  0  0  0  0  0
   57.8260   28.5460   45.3010 C   0  0  0  0  0  0  0  0  0  0  0  0
   57.5170   29.7260   44.7330 N   0  0  0  0  0  0  0  0  0  0  0  0
   56.1710   29.7320   44.7140 C   0  0  0  0  0  0  0  0  0  0  0  0
   55.5020   30.6900   44.2470 O   0  0  0  0  0  0  0  0  0  0  0  0
   55.5990   28.6350   45.2450 N   0  0  0  0  0  0  0  0  0  0  0  0
   56.6480   27.8770   45.6210 C   0  0  0  0  0  0  0  0  0  0  0  0
   56.4710   26.5580   46.2540 C   0  0  0  0  0  0  0  0  0  0  0  0
   57.3610   26.1370   47.0400 O   0  0  0  0  0  0  0  0  0  0  0  0
   55.2960   25.7780   46.0080 N   0  0  0  0  0  0  0  0  0  0  0  0
   55.2280   24.3690   45.6070 C   0  0  0  0  0  0  0  0  0  0  0  0
   54.8530   23.4580   46.7970 C   0  0  0  0  0  0  0  0  0  0  0  0
   56.0680   22.9010   47.5850 C   0  0  0  0  0  0  0  0  0  0  0  0
   57.3160   22.9940   46.9130 O   0  0  0  0  0  0  0  0  0  0  0  0
   57.1720   22.7240   45.5360 C   0  0  0  0  0  0  0  0  0  0  0  0
   56.5000   23.9160   44.8510 C   0  0  0  0  0  0  0  0  0  0  0  0
   59.1231   30.8610   46.0085 H   0  0  0  0  0  0  0  0  0  0  0  0
   59.4890   31.7606   47.6477 H   0  0  0  0  0  0  0  0  0  0  0  0
   60.7432   30.5632   50.5036 H   0  0  0  0  0  0  0  0  0  0  0  0
   55.7326   29.0060   53.7156 H   0  0  0  0  0  0  0  0  0  0  0  0
   53.0436   28.8800   53.8927 H   0  0  0  0  0  0  0  0  0  0  0  0
   52.0616   30.6106   52.1157 H   0  0  0  0  0  0  0  0  0  0  0  0
   54.0440   31.7460   50.8960 H   0  0  0  0  0  0  0  0  0  0  0  0
   56.8335   32.9800   52.5129 H   0  0  0  0  0  0  0  0  0  0  0  0
   59.9341   28.7502   45.0159 H   0  0  0  0  0  0  0  0  0  0  0  0
   59.3808   27.0934   45.4593 H   0  0  0  0  0  0  0  0  0  0  0  0
   54.4088   24.2664   44.8800 H   0  0  0  0  0  0  0  0  0  0  0  0
   54.2292   24.0392   47.4921 H   0  0  0  0  0  0  0  0  0  0  0  0
   54.3278   22.5890   46.3740 H   0  0  0  0  0  0  0  0  0  0  0  0
   56.1469   23.4598   48.5292 H   0  0  0  0  0  0  0  0  0  0  0  0
   55.8754   21.8272   47.7261 H   0  0  0  0  0  0  0  0  0  0  0  0
   58.1631   22.5553   45.0896 H   0  0  0  0  0  0  0  0  0  0  0  0
   56.5518   21.8256   45.4010 H   0  0  0  0  0  0  0  0  0  0  0  0
   57.2113   24.7544   44.8160 H   0  0  0  0  0  0  0  0  0  0  0  0
   56.2044   23.6068   43.8376 H   0  0  0  0  0  0  0  0  0  0  0  0
  1  2  2  0
  2  3  1  0
  3  4  2  3
  4  5  1  0
  5  6  1  0
  6  7  1  0
  7  8  1  0
  8  9  2  0
  9 10  1  0
 10 11  2  0
 11 12  1  0
  7 13  2  0
 13 14  1  0
 14 15  1  0
  3 16  1  0
 16 17  1  0
 17 18  2  0
 17 19  1  0
 19 20  1  0
 20 21  1  0
 21 22  1  0
 22 23  1  0
 23 24  2  0
 23 25  1  0
 25 26  1  0
 26 27  1  0
 27 28  2  0
 27 29  1  0
 29 30  1  0
 30 31  1  0
 31 32  1  0
 32 33  1  0
 33 34  1  0
 34 35  1  0
 19  2  1  0
 26 21  2  0
 35 30  1  0
 14  5  2  0
 12  8  1  0
  1 36  1  0
  1 37  1  0
  4 38  1  0
  9 39  1  0
 10 40  1  0
 11 41  1  0
 12 42  1  0
 13 43  1  0
 20 44  1  0
 20 45  1  0
 30 46  1  0
 31 47  1  0
 31 48  1  0
 32 49  1  0
 32 50  1  0
 34 51  1  0
 34 52  1  0
 35 53  1  0
 35 54  1  0
M  CHG  6   6  -1  15  -1  16  -1  22  -1  25  -1  29  -1
M  END
>  <UniqueID>  (65) 
64

>  <SMILES>  (65) 
C=c1c(=Cc2[n-]c(-c3ccc[nH]3)cc2[O-])[n-]c(=O)n1Cc1[n-]c(=O)[n-]c1C(=O)[N-]C1CCOCC1

>  <Energy>  (65) 
191.63215314275138

>  <Genealogy>  (65) 
C=c1c(=Cc2[n-]c(-c3ccc[nH]3)cc2[O-])[n-]c(=O)n1Cc1[n-]c(=O)[n-]c1C(=O)[N-]C1CCOCC1 (protonated)
C=c1c(=Cc2[n-]c(-c3ccc[nH]3)cc2[O-])[n-]c(=O)n1Cc1[n-]c(=O)[n-]c1C(=O)[N-]C1CCOCC1 (3D coordinates assigned)
C=c1c(=Cc2[n-]c(-c3ccc[nH]3)cc2[O-])[n-]c(=O)n1Cc1[n-]c(=O)[n-]c1C(=O)[N-]C1CCOCC1 (nonaromatic ring conformer: 191.63215314275138 kcal/mol)

>  <smiles>  (65) 
C=c1c(=Cc2[nH]c(-c3ccc[nH]3)cc2O)[nH]c(=O)n1Cc1[nH]c(=O)[nH]c1C(=O)NC1CCOCC1

>  <score_type>  (65) 
oracle

>  <origin>  (65) 
adg

>  <m_score__min__energy>  (65) 
-17.329999999999998

>  <m_primary>  (65) 
energy

$$$$
65:0
     RDKit          3D

 73 76  0  0  0  0  0  0  0  0999 V2000
   60.1110   35.4030   54.7240 C   0  0  0  0  0  0  0  0  0  0  0  0
   59.2540   34.3130   54.1510 C   0  0  0  0  0  0  0  0  0  0  0  0
   58.6000   34.5030   52.9250 C   0  0  0  0  0  0  0  0  0  0  0  0
   57.7550   33.5160   52.4150 C   0  0  0  0  0  0  0  0  0  0  0  0
   57.5570   32.3110   53.1160 C   0  0  0  0  0  0  0  0  0  0  0  0
   56.6370   31.2190   52.5890 C   0  0  1  0  0  0  0  0  0  0  0  0
   57.3410   30.3830   51.4950 C   0  0  0  0  0  0  0  0  0  0  0  0
   58.7380   30.8480   51.1760 C   0  0  0  0  0  0  0  0  0  0  0  0
   59.6910   30.5550   51.9550 O   0  0  0  0  0  0  0  0  0  0  0  0
   58.9860   31.6630   50.0190 N   0  0  0  0  0  0  0  0  0  0  0  0
   60.3520   32.0810   49.6760 C   0  0  0  0  0  0  0  0  0  0  0  0
   60.4730   32.9670   48.3790 C   0  0  0  0  0  0  0  0  0  0  0  0
   59.1320   33.1670   47.7130 N   0  0  0  0  0  0  0  0  0  0  0  0
   58.4340   32.0290   47.0630 C   0  0  0  0  0  0  0  0  0  0  0  0
   58.7820   31.9120   45.5710 C   0  0  0  0  0  0  0  0  0  0  0  0
   58.6920   33.2600   44.8290 C   0  0  0  0  0  0  0  0  0  0  0  0
   58.1340   34.3790   45.7070 C   0  0  0  0  0  0  0  0  0  0  0  0
   58.9250   34.4770   47.0220 C   0  0  0  0  0  0  0  0  0  0  0  0
   61.5340   32.3500   47.3830 C   0  0  0  0  0  0  0  0  0  0  0  0
   62.7400   33.2570   47.1000 C   0  0  0  0  0  0  0  0  0  0  0  0
   63.3910   33.6880   48.4150 C   0  0  0  0  0  0  0  0  0  0  0  0
   62.4190   34.4530   49.3330 C   0  0  0  0  0  0  0  0  0  0  0  0
   60.9460   34.3810   48.8790 C   0  0  0  0  0  0  0  0  0  0  0  0
   56.1640   30.3470   53.6740 N   0  0  0  0  0  0  0  0  0  0  0  0
   54.7150   29.4900   53.2240 S   0  0  0  0  0  0  0  0  0  0  0  0
   55.0070   28.6520   52.0090 O   0  0  0  0  0  0  0  0  0  0  0  0
   54.3220   28.5720   54.3470 O   0  0  0  0  0  0  0  0  0  0  0  0
   53.3720   30.5890   52.8830 C   0  0  0  0  0  0  0  0  0  0  0  0
   52.4010   30.8550   53.8590 C   0  0  0  0  0  0  0  0  0  0  0  0
   51.3210   31.6970   53.5700 C   0  0  0  0  0  0  0  0  0  0  0  0
   51.1920   32.2570   52.2950 C   0  0  0  0  0  0  0  0  0  0  0  0
   50.1060   33.0760   51.9970 O   0  0  0  0  0  0  0  0  0  0  0  0
   52.1610   32.0000   51.3190 C   0  0  0  0  0  0  0  0  0  0  0  0
   53.2630   31.1900   51.6170 C   0  0  0  0  0  0  0  0  0  0  0  0
   58.1970   32.1370   54.3550 C   0  0  0  0  0  0  0  0  0  0  0  0
   59.0350   33.1310   54.8720 C   0  0  0  0  0  0  0  0  0  0  0  0
   60.0756   35.3580   55.8225 H   0  0  0  0  0  0  0  0  0  0  0  0
   61.1489   35.2700   54.3848 H   0  0  0  0  0  0  0  0  0  0  0  0
   59.7368   36.3802   54.3848 H   0  0  0  0  0  0  0  0  0  0  0  0
   58.7539   35.4354   52.3620 H   0  0  0  0  0  0  0  0  0  0  0  0
   57.2394   33.6809   51.4574 H   0  0  0  0  0  0  0  0  0  0  0  0
   55.7616   31.7128   52.1420 H   0  0  0  0  0  0  0  0  0  0  0  0
   57.3931   29.3388   51.8369 H   0  0  0  0  0  0  0  0  0  0  0  0
   56.7486   30.4971   50.5752 H   0  0  0  0  0  0  0  0  0  0  0  0
   58.1650   31.9890   49.4620 H   0  0  0  0  0  0  0  0  0  0  0  0
   60.7545   32.6579   50.5217 H   0  0  0  0  0  0  0  0  0  0  0  0
   60.9128   31.1574   49.4699 H   0  0  0  0  0  0  0  0  0  0  0  0
   58.7270   31.0975   47.5694 H   0  0  0  0  0  0  0  0  0  0  0  0
   57.3513   32.2050   47.1449 H   0  0  0  0  0  0  0  0  0  0  0  0
   59.8086   31.5279   45.4787 H   0  0  0  0  0  0  0  0  0  0  0  0
   58.0490   31.2320   45.1124 H   0  0  0  0  0  0  0  0  0  0  0  0
   59.7000   33.5452   44.4934 H   0  0  0  0  0  0  0  0  0  0  0  0
   58.0038   33.1278   43.9811 H   0  0  0  0  0  0  0  0  0  0  0  0
   58.2094   35.3344   45.1671 H   0  0  0  0  0  0  0  0  0  0  0  0
   57.0821   34.1572   45.9402 H   0  0  0  0  0  0  0  0  0  0  0  0
   59.9118   34.9091   46.7994 H   0  0  0  0  0  0  0  0  0  0  0  0
   58.3291   35.1024   47.7030 H   0  0  0  0  0  0  0  0  0  0  0  0
   61.9051   31.4089   47.8151 H   0  0  0  0  0  0  0  0  0  0  0  0
   61.0170   32.2062   46.4228 H   0  0  0  0  0  0  0  0  0  0  0  0
   63.4745   32.7074   46.4930 H   0  0  0  0  0  0  0  0  0  0  0  0
   62.3998   34.1504   46.5559 H   0  0  0  0  0  0  0  0  0  0  0  0
   63.7435   32.7906   48.9446 H   0  0  0  0  0  0  0  0  0  0  0  0
   64.2217   34.3661   48.1696 H   0  0  0  0  0  0  0  0  0  0  0  0
   62.4910   34.0282   50.3451 H   0  0  0  0  0  0  0  0  0  0  0  0
   62.7132   35.5124   49.2989 H   0  0  0  0  0  0  0  0  0  0  0  0
   60.3121   34.6717   49.7297 H   0  0  0  0  0  0  0  0  0  0  0  0
   60.8567   35.0578   48.0164 H   0  0  0  0  0  0  0  0  0  0  0  0
   52.4885   30.3997   54.8565 H   0  0  0  0  0  0  0  0  0  0  0  0
   50.5734   31.9184   54.3460 H   0  0  0  0  0  0  0  0  0  0  0  0
   52.0565   32.4358   50.3144 H   0  0  0  0  0  0  0  0  0  0  0  0
   54.0439   31.0237   50.8603 H   0  0  0  0  0  0  0  0  0  0  0  0
   58.0374   31.2095   54.9244 H   0  0  0  0  0  0  0  0  0  0  0  0
   59.5232   32.9846   55.8468 H   0  0  0  0  0  0  0  0  0  0  0  0
  1  2  1  0
  2  3  2  0
  3  4  1  0
  4  5  2  0
  5  6  1  0
  6  7  1  0
  7  8  1  0
  8  9  2  0
  8 10  1  0
 10 11  1  0
 11 12  1  0
 12 13  1  0
 13 14  1  0
 14 15  1  0
 15 16  1  0
 16 17  1  0
 17 18  1  0
 12 19  1  0
 19 20  1  0
 20 21  1  0
 21 22  1  0
 22 23  1  0
  6 24  1  0
 24 25  1  0
 25 26  2  0
 25 27  2  0
 25 28  1  0
 28 29  2  0
 29 30  1  0
 30 31  2  0
 31 32  1  0
 31 33  1  0
 33 34  2  0
  5 35  1  0
 35 36  2  0
 36  2  1  0
 23 12  1  0
 34 28  1  0
 18 13  1  0
  1 37  1  0
  1 38  1  0
  1 39  1  0
  3 40  1  0
  4 41  1  0
  6 42  1  6
  7 43  1  0
  7 44  1  0
 10 45  1  0
 11 46  1  0
 11 47  1  0
 14 48  1  0
 14 49  1  0
 15 50  1  0
 15 51  1  0
 16 52  1  0
 16 53  1  0
 17 54  1  0
 17 55  1  0
 18 56  1  0
 18 57  1  0
 19 58  1  0
 19 59  1  0
 20 60  1  0
 20 61  1  0
 21 62  1  0
 21 63  1  0
 22 64  1  0
 22 65  1  0
 23 66  1  0
 23 67  1  0
 29 68  1  0
 30 69  1  0
 33 70  1  0
 34 71  1  0
 35 72  1  0
 36 73  1  0
M  CHG  2  24  -1  32  -1
M  END
>  <UniqueID>  (66) 
65

>  <SMILES>  (66) 
Cc1ccc([C@@H](CC(=O)NCC2(N3CCCCC3)CCCCC2)[N-]S(=O)(=O)c2ccc([O-])cc2)cc1

>  <Energy>  (66) 
101.43145668793086

>  <Genealogy>  (66) 
Cc1ccc(C(CC(=O)NCC2(N3CCCCC3)CCCCC2)[N-]S(=O)(=O)c2ccc([O-])cc2)cc1 (protonated)
Cc1ccc([C@@H](CC(=O)NCC2(N3CCCCC3)CCCCC2)[N-]S(=O)(=O)c2ccc([O-])cc2)cc1 (chirality)
Cc1ccc([C@@H](CC(=O)NCC2(N3CCCCC3)CCCCC2)[N-]S(=O)(=O)c2ccc([O-])cc2)cc1 (3D coordinates assigned)
Cc1ccc([C@@H](CC(=O)NCC2(N3CCCCC3)CCCCC2)[N-]S(=O)(=O)c2ccc([O-])cc2)cc1 (nonaromatic ring conformer: 101.43145668793086 kcal/mol)

>  <smiles>  (66) 
Cc1ccc(C(CC(=O)NCC2(N3CCCCC3)CCCCC2)NS(=O)(=O)c2ccc(O)cc2)cc1

>  <score_type>  (66) 
oracle

>  <origin>  (66) 
adg

>  <m_score__min__energy>  (66) 
-15.140000000000001

>  <m_primary>  (66) 
energy

$$$$
66:0
     RDKit          3D

 52 55  0  0  0  0  0  0  0  0999 V2000
   55.2720   25.5790   46.0110 O   0  0  0  0  0  0  0  0  0  0  0  0
   56.5280   25.4920   46.0310 C   0  0  0  0  0  0  0  0  0  0  0  0
   57.2750   26.5170   46.7030 N   0  0  0  0  0  0  0  0  0  0  0  0
   57.4270   27.8770   46.2720 C   0  0  0  0  0  0  0  0  0  0  0  0
   58.3480   28.6990   46.9300 C   0  0  0  0  0  0  0  0  0  0  0  0
   58.5530   30.0150   46.5020 C   0  0  0  0  0  0  0  0  0  0  0  0
   57.8340   30.5220   45.4090 C   0  0  0  0  0  0  0  0  0  0  0  0
   58.0960   31.8870   44.9160 C   0  0  0  0  0  0  0  0  0  0  0  0
   57.7330   32.1960   43.7480 O   0  0  0  0  0  0  0  0  0  0  0  0
   58.7330   32.8740   45.7530 N   0  0  0  0  0  0  0  0  0  0  0  0
   58.4600   32.8790   47.1960 C   0  0  0  0  0  0  0  0  0  0  0  0
   58.9590   34.1720   47.8510 C   0  0  0  0  0  0  0  0  0  0  0  0
   60.3460   34.4880   47.4510 N   0  0  0  0  0  0  0  0  0  0  0  0
   61.3550   33.8060   48.3090 C   0  0  0  0  0  0  0  0  0  0  0  0
   61.3510   32.2760   48.2770 C   0  0  0  0  0  0  0  0  0  0  0  0
   62.7730   32.2940   47.7240 C   0  0  0  0  0  0  0  0  0  0  0  0
   62.7730   33.8210   47.7400 C   0  0  0  0  0  0  0  0  0  0  0  0
   60.5880   34.4900   45.9800 C   0  0  0  0  0  0  0  0  0  0  0  0
   59.3760   34.0430   45.1430 C   0  0  0  0  0  0  0  0  0  0  0  0
   56.8560   29.7220   44.7990 C   0  0  0  0  0  0  0  0  0  0  0  0
   56.6460   28.4120   45.2330 C   0  0  0  0  0  0  0  0  0  0  0  0
   57.1870   24.3090   45.4290 C   0  0  0  0  0  0  0  0  0  0  0  0
   58.5180   23.9880   45.7390 C   0  0  0  0  0  0  0  0  0  0  0  0
   59.1050   22.8620   45.1590 C   0  0  0  0  0  0  0  0  0  0  0  0
   58.3720   22.0670   44.2760 C   0  0  0  0  0  0  0  0  0  0  0  0
   57.0480   22.4160   43.9750 C   0  0  0  0  0  0  0  0  0  0  0  0
   56.2620   21.6210   43.0780 N   0  0  0  0  0  0  0  0  0  0  0  0
   56.2570   20.3770   43.1880 O   0  0  0  0  0  0  0  0  0  0  0  0
   55.5310   22.2080   42.0690 O   0  0  0  0  0  0  0  0  0  0  0  0
   56.5040   23.5250   44.5500 N   0  0  0  0  0  0  0  0  0  0  0  0
   58.9141   28.3085   47.7885 H   0  0  0  0  0  0  0  0  0  0  0  0
   59.2802   30.6543   47.0240 H   0  0  0  0  0  0  0  0  0  0  0  0
   57.3752   32.7913   47.3561 H   0  0  0  0  0  0  0  0  0  0  0  0
   58.9898   32.0304   47.6533 H   0  0  0  0  0  0  0  0  0  0  0  0
   58.3030   35.0013   47.5478 H   0  0  0  0  0  0  0  0  0  0  0  0
   58.9403   34.0328   48.9420 H   0  0  0  0  0  0  0  0  0  0  0  0
   61.1142   34.3226   49.2498 H   0  0  0  0  0  0  0  0  0  0  0  0
   61.2584   31.8049   49.2667 H   0  0  0  0  0  0  0  0  0  0  0  0
   60.5533   31.7288   47.7533 H   0  0  0  0  0  0  0  0  0  0  0  0
   63.5188   31.8397   48.3929 H   0  0  0  0  0  0  0  0  0  0  0  0
   63.0127   31.7510   46.7979 H   0  0  0  0  0  0  0  0  0  0  0  0
   63.5231   34.2644   48.4114 H   0  0  0  0  0  0  0  0  0  0  0  0
   63.0040   34.3903   46.8276 H   0  0  0  0  0  0  0  0  0  0  0  0
   60.8598   35.5116   45.6760 H   0  0  0  0  0  0  0  0  0  0  0  0
   61.3906   33.7623   45.7896 H   0  0  0  0  0  0  0  0  0  0  0  0
   58.6502   34.8677   45.0880 H   0  0  0  0  0  0  0  0  0  0  0  0
   59.7208   33.7731   44.1339 H   0  0  0  0  0  0  0  0  0  0  0  0
   56.2518   30.1291   43.9748 H   0  0  0  0  0  0  0  0  0  0  0  0
   55.8666   27.7963   44.7603 H   0  0  0  0  0  0  0  0  0  0  0  0
   59.0935   24.6183   46.4330 H   0  0  0  0  0  0  0  0  0  0  0  0
   60.1465   22.6008   45.3980 H   0  0  0  0  0  0  0  0  0  0  0  0
   58.8287   21.1757   43.8210 H   0  0  0  0  0  0  0  0  0  0  0  0
  1  2  2  0
  2  3  1  0
  3  4  1  0
  4  5  2  0
  5  6  1  0
  6  7  2  0
  7  8  1  0
  8  9  2  0
  8 10  1  0
 10 11  1  0
 11 12  1  0
 12 13  1  0
 13 14  1  0
 14 15  1  0
 15 16  1  0
 16 17  1  0
 13 18  1  0
 18 19  1  0
  7 20  1  0
 20 21  2  0
  2 22  1  0
 22 23  2  0
 23 24  1  0
 24 25  2  0
 25 26  1  0
 26 27  1  0
 27 28  2  0
 27 29  1  0
 26 30  2  0
 21  4  1  0
 30 22  1  0
 19 10  1  0
 17 14  1  0
  5 31  1  0
  6 32  1  0
 11 33  1  0
 11 34  1  0
 12 35  1  0
 12 36  1  0
 14 37  1  0
 15 38  1  0
 15 39  1  0
 16 40  1  0
 16 41  1  0
 17 42  1  0
 17 43  1  0
 18 44  1  0
 18 45  1  0
 19 46  1  0
 19 47  1  0
 20 48  1  0
 21 49  1  0
 23 50  1  0
 24 51  1  0
 25 52  1  0
M  CHG  3   3  -1  27   1  29  -1
M  END
>  <UniqueID>  (67) 
66

>  <SMILES>  (67) 
O=C([N-]c1ccc(C(=O)N2CCN(C3CCC3)CC2)cc1)c1cccc([N+](=O)[O-])n1

>  <Energy>  (67) 
137.41569258223376

>  <Genealogy>  (67) 
O=C([N-]c1ccc(C(=O)N2CCN(C3CCC3)CC2)cc1)c1cccc([N+](=O)[O-])n1 (protonated)
O=C([N-]c1ccc(C(=O)N2CCN(C3CCC3)CC2)cc1)c1cccc([N+](=O)[O-])n1 (3D coordinates assigned)
O=C([N-]c1ccc(C(=O)N2CCN(C3CCC3)CC2)cc1)c1cccc([N+](=O)[O-])n1 (nonaromatic ring conformer: 137.41569258223376 kcal/mol)

>  <smiles>  (67) 
O=C(Nc1ccc(C(=O)N2CCN(C3CCC3)CC2)cc1)c1cccc([N+](=O)[O-])n1

>  <score_type>  (67) 
oracle

>  <origin>  (67) 
adg

>  <m_score__min__energy>  (67) 
-11.56

>  <m_primary>  (67) 
energy

$$$$
67:0
     RDKit          3D

 51 53  0  0  1  0  0  0  0  0999 V2000
   59.5120   29.1580   48.5850 C   0  0  0  0  0  0  0  0  0  0  0  0
   60.4830   29.1330   47.4040 C   0  0  0  0  0  0  0  0  0  0  0  0
   60.0280   28.2060   46.4170 N   0  0  0  0  0  0  0  0  0  0  0  0
   58.8010   28.0610   46.1360 C   0  0  0  0  0  0  0  0  0  0  0  0
   58.2170   26.8260   46.3250 C   0  0  0  0  0  0  0  0  0  0  0  0
   56.8720   26.6440   46.0170 C   0  0  0  0  0  0  0  0  0  0  0  0
   56.3500   25.3450   46.2400 N   0  0  0  0  0  0  0  0  0  0  0  0
   56.9880   24.1480   46.7360 C   0  0  0  0  0  0  0  0  0  0  0  0
   56.1200   23.0190   46.2230 C   0  0  0  0  0  0  0  0  0  0  0  0
   54.8390   23.6240   46.2530 O   0  0  0  0  0  0  0  0  0  0  0  0
   54.9940   24.9720   45.9940 C   0  0  0  0  0  0  0  0  0  0  0  0
   54.0940   25.7610   45.6030 O   0  0  0  0  0  0  0  0  0  0  0  0
   56.1350   27.6640   45.5350 N   0  0  0  0  0  0  0  0  0  0  0  0
   56.7310   28.8620   45.3590 C   0  0  0  0  0  0  0  0  0  0  0  0
   56.0710   29.8500   44.8940 N   0  0  0  0  0  0  0  0  0  0  0  0
   56.5280   30.6450   43.8080 C   0  0  0  0  0  0  0  0  0  0  0  0
   56.2010   30.2690   42.6490 O   0  0  0  0  0  0  0  0  0  0  0  0
   57.3500   31.8490   44.0780 C   0  0  0  0  0  0  0  0  0  0  0  0
   57.6590   32.0380   45.4540 N   0  0  0  0  0  0  0  0  0  0  0  0
   59.0620   32.0440   45.7140 C   0  0  0  0  0  0  0  0  0  0  0  0
   59.3140   32.3280   47.1890 C   0  0  0  0  0  0  0  0  0  0  0  0
   58.9320   33.6890   47.4580 N   0  0  0  0  0  0  0  0  0  0  0  0
   60.1270   34.5120   47.5090 C   0  0  0  0  0  0  0  0  0  0  0  0
   57.9360   34.2080   46.5810 C   0  0  0  0  0  0  0  0  0  0  0  0
   56.9950   33.1890   45.9980 C   0  0  0  0  0  0  0  0  0  0  0  0
   58.0350   29.0490   45.6550 N   0  0  0  0  0  0  0  0  0  0  0  0
   60.0799   29.1434   49.5270 H   0  0  0  0  0  0  0  0  0  0  0  0
   58.9019   30.0722   48.5388 H   0  0  0  0  0  0  0  0  0  0  0  0
   58.8557   28.2765   48.5388 H   0  0  0  0  0  0  0  0  0  0  0  0
   60.5426   30.1377   46.9601 H   0  0  0  0  0  0  0  0  0  0  0  0
   61.4765   28.8228   47.7599 H   0  0  0  0  0  0  0  0  0  0  0  0
   58.8119   25.9882   46.7176 H   0  0  0  0  0  0  0  0  0  0  0  0
   58.0118   24.0613   46.3433 H   0  0  0  0  0  0  0  0  0  0  0  0
   57.0771   24.1437   47.8324 H   0  0  0  0  0  0  0  0  0  0  0  0
   56.4032   22.7243   45.2017 H   0  0  0  0  0  0  0  0  0  0  0  0
   56.1951   22.0896   46.8067 H   0  0  0  0  0  0  0  0  0  0  0  0
   55.1440   27.5200   45.3130 H   0  0  0  0  0  0  0  0  0  0  0  0
   58.2937   31.7566   43.5204 H   0  0  0  0  0  0  0  0  0  0  0  0
   56.7564   32.7192   43.7610 H   0  0  0  0  0  0  0  0  0  0  0  0
   59.4855   31.0627   45.4539 H   0  0  0  0  0  0  0  0  0  0  0  0
   59.5397   32.8274   45.1073 H   0  0  0  0  0  0  0  0  0  0  0  0
   58.7142   31.6440   47.8074 H   0  0  0  0  0  0  0  0  0  0  0  0
   60.3772   32.1782   47.4279 H   0  0  0  0  0  0  0  0  0  0  0  0
   60.3988   34.6992   48.5583 H   0  0  0  0  0  0  0  0  0  0  0  0
   60.9532   33.9905   47.0037 H   0  0  0  0  0  0  0  0  0  0  0  0
   59.9344   35.4699   47.0037 H   0  0  0  0  0  0  0  0  0  0  0  0
   57.3375   34.9404   47.1427 H   0  0  0  0  0  0  0  0  0  0  0  0
   58.4791   34.6417   45.7284 H   0  0  0  0  0  0  0  0  0  0  0  0
   56.3111   32.8532   46.7914 H   0  0  0  0  0  0  0  0  0  0  0  0
   56.4646   33.6778   45.1675 H   0  0  0  0  0  0  0  0  0  0  0  0
   58.4470   29.9730   45.5110 H   0  0  0  0  0  0  0  0  0  0  0  0
  1  2  1  0
  2  3  1  0
  3  4  2  0
  4  5  1  0
  5  6  2  0
  6  7  1  0
  7  8  1  0
  8  9  1  0
  9 10  1  0
 10 11  1  0
 11 12  2  0
  6 13  1  0
 13 14  1  0
 14 15  2  0
 15 16  1  0
 16 17  2  0
 16 18  1  0
 18 19  1  0
 19 20  1  0
 20 21  1  0
 21 22  1  0
 22 23  1  0
 22 24  1  0
 24 25  1  0
 14 26  1  0
 26  4  1  0
 11  7  1  0
 25 19  1  0
  1 27  1  0
  1 28  1  0
  1 29  1  0
  2 30  1  0
  2 31  1  0
  5 32  1  0
  8 33  1  0
  8 34  1  0
  9 35  1  0
  9 36  1  0
 13 37  1  0
 18 38  1  0
 18 39  1  0
 20 40  1  0
 20 41  1  0
 21 42  1  0
 21 43  1  0
 23 44  1  0
 23 45  1  0
 23 46  1  0
 24 47  1  0
 24 48  1  0
 25 49  1  0
 25 50  1  0
 26 51  1  0
M  END
>  <smiles>  (68) 
CCN=c1cc(N2CCOC2=O)[nH]c(=NC(=O)CN2CCN(C)CC2)[nH]1

>  <score_type>  (68) 
oracle

>  <origin>  (68) 
adg

>  <m_score__min__energy>  (68) 
-7.9100000000000001

>  <m_primary>  (68) 
energy

$$$$
68:0
     RDKit          3D

 41 43  0  0  0  0  0  0  0  0999 V2000
   57.9330   32.7620   43.4460 C   0  0  0  0  0  0  0  0  0  0  0  0
   58.0420   31.6470   44.1880 C   0  0  0  0  0  0  0  0  0  0  0  0
   58.1100   30.4410   43.5460 N   0  0  0  0  0  0  0  0  0  0  0  0
   58.2360   29.2660   44.2140 C   0  0  0  0  0  0  0  0  0  0  0  0
   58.3160   29.2400   45.6130 C   0  0  0  0  0  0  0  0  0  0  0  0
   58.4530   28.0550   46.2460 C   0  0  0  0  0  0  0  0  0  0  0  0
   57.4030   27.0240   46.3490 C   0  0  0  0  0  0  0  0  0  0  0  0
   57.5590   25.8730   47.0260 N   0  0  0  0  0  0  0  0  0  0  0  0
   56.3440   25.2900   46.9380 C   0  0  0  0  0  0  0  0  0  0  0  0
   56.0920   24.1680   47.4490 O   0  0  0  0  0  0  0  0  0  0  0  0
   55.4170   26.0100   46.2710 N   0  0  0  0  0  0  0  0  0  0  0  0
   56.0990   27.1100   45.9150 C   0  0  0  0  0  0  0  0  0  0  0  0
   55.5280   28.1860   45.2470 O   0  0  0  0  0  0  0  0  0  0  0  0
   58.2120   30.4610   46.3000 C   0  0  0  0  0  0  0  0  0  0  0  0
   58.0820   31.6780   45.6100 C   0  0  0  0  0  0  0  0  0  0  0  0
   58.0150   32.9560   46.4250 C   0  0  0  0  0  0  0  0  0  0  0  0
   58.8820   32.8660   47.6570 C   0  0  0  0  0  0  0  0  0  0  0  0
   58.3320   32.9100   48.7910 O   0  0  0  0  0  0  0  0  0  0  0  0
   60.3090   32.6690   47.5740 N   0  0  0  0  0  0  0  0  0  0  0  0
   60.9630   31.7200   48.4890 C   0  0  0  0  0  0  0  0  0  0  0  0
   62.2420   32.3270   49.0710 C   0  0  0  0  0  0  0  0  0  0  0  0
   63.0680   32.9280   47.9710 C   0  0  0  0  0  0  0  0  0  0  0  0
   64.2730   32.7380   47.9250 O   0  0  0  0  0  0  0  0  0  0  0  0
   62.4030   33.8410   46.9810 C   0  0  0  0  0  0  0  0  0  0  0  0
   61.1050   33.2120   46.4620 C   0  0  0  0  0  0  0  0  0  0  0  0
   57.8764   33.7453   43.9358 H   0  0  0  0  0  0  0  0  0  0  0  0
   57.9004   32.6915   42.3487 H   0  0  0  0  0  0  0  0  0  0  0  0
   58.0700   30.3970   42.5020 H   0  0  0  0  0  0  0  0  0  0  0  0
   58.2758   28.3223   43.6502 H   0  0  0  0  0  0  0  0  0  0  0  0
   59.4219   27.8422   46.7213 H   0  0  0  0  0  0  0  0  0  0  0  0
   58.2328   30.4643   47.3998 H   0  0  0  0  0  0  0  0  0  0  0  0
   58.3606   33.7956   45.8041 H   0  0  0  0  0  0  0  0  0  0  0  0
   56.9736   33.1108   46.7435 H   0  0  0  0  0  0  0  0  0  0  0  0
   60.2729   31.4754   49.3099 H   0  0  0  0  0  0  0  0  0  0  0  0
   61.2253   30.8105   47.9286 H   0  0  0  0  0  0  0  0  0  0  0  0
   61.9768   33.1094   49.7973 H   0  0  0  0  0  0  0  0  0  0  0  0
   62.8229   31.5378   49.5706 H   0  0  0  0  0  0  0  0  0  0  0  0
   62.1714   34.7987   47.4700 H   0  0  0  0  0  0  0  0  0  0  0  0
   63.0842   34.0045   46.1329 H   0  0  0  0  0  0  0  0  0  0  0  0
   60.5165   33.9793   45.9376 H   0  0  0  0  0  0  0  0  0  0  0  0
   61.3598   32.3910   45.7757 H   0  0  0  0  0  0  0  0  0  0  0  0
  1  2  2  0
  2  3  1  0
  3  4  2  0
  4  5  1  0
  5  6  2  3
  6  7  1  0
  7  8  1  0
  8  9  1  0
  9 10  2  0
  9 11  1  0
 11 12  1  0
 12 13  1  0
  5 14  1  0
 14 15  2  0
 15 16  1  0
 16 17  1  0
 17 18  2  0
 17 19  1  0
 19 20  1  0
 20 21  1  0
 21 22  1  0
 22 23  2  0
 22 24  1  0
 24 25  1  0
 15  2  1  0
 25 19  1  0
 12  7  2  0
  1 26  1  0
  1 27  1  0
  3 28  1  0
  4 29  1  0
  6 30  1  0
 14 31  1  0
 16 32  1  0
 16 33  1  0
 20 34  1  0
 20 35  1  0
 21 36  1  0
 21 37  1  0
 24 38  1  0
 24 39  1  0
 25 40  1  0
 25 41  1  0
M  CHG  4   3   1   8  -1  11  -1  13  -1
M  END
>  <UniqueID>  (69) 
67

>  <SMILES>  (69) 
C=c1[nH+]cc(=Cc2[n-]c(=O)[n-]c2[O-])cc1CC(=O)N1CCC(=O)CC1

>  <Energy>  (69) 
84.71070012684083

>  <Genealogy>  (69) 
C=c1[nH+]cc(=Cc2[n-]c(=O)[n-]c2[O-])cc1CC(=O)N1CCC(=O)CC1 (protonated)
C=c1[nH+]cc(=Cc2[n-]c(=O)[n-]c2[O-])cc1CC(=O)N1CCC(=O)CC1 (3D coordinates assigned)
C=c1[nH+]cc(=Cc2[n-]c(=O)[n-]c2[O-])cc1CC(=O)N1CCC(=O)CC1 (nonaromatic ring conformer: 84.71070012684083 kcal/mol)

>  <smiles>  (69) 
C=c1ncc(=Cc2[nH]c(=O)[nH]c2O)cc1CC(=O)N1CCC(=O)CC1

>  <score_type>  (69) 
oracle

>  <origin>  (69) 
adg

>  <m_score__min__energy>  (69) 
-16.039999999999999

>  <m_primary>  (69) 
energy

$$$$
69:0
     RDKit          3D

 68 71  0  0  0  0  0  0  0  0999 V2000
   63.5070   32.4060   48.4440 C   0  0  0  0  0  0  0  0  0  0  0  0
   62.6550   32.3680   49.6300 N   0  0  0  0  0  0  0  0  0  0  0  0
   61.5420   33.7030   49.5960 S   0  0  0  0  0  0  0  0  0  0  0  0
   60.8870   33.8360   50.9430 O   0  0  0  0  0  0  0  0  0  0  0  0
   62.2940   34.9690   49.3010 O   0  0  0  0  0  0  0  0  0  0  0  0
   60.3210   33.4620   48.3450 C   0  0  0  0  0  0  0  0  0  0  0  0
   60.4650   34.0480   47.0800 C   0  0  0  0  0  0  0  0  0  0  0  0
   59.4780   33.8710   46.1060 C   0  0  0  0  0  0  0  0  0  0  0  0
   58.3340   33.1080   46.3870 C   0  0  0  0  0  0  0  0  0  0  0  0
   57.2590   32.9490   45.3420 C   0  0  0  0  0  0  0  0  0  0  0  0
   57.5320   31.7710   44.4910 N   0  0  0  0  0  0  0  0  0  0  0  0
   58.8340   31.1360   44.8220 C   0  0  0  0  0  0  0  0  0  0  0  0
   58.6930   29.9680   45.8090 C   0  0  0  0  0  0  0  0  0  0  0  0
   57.7280   28.9800   45.3140 N   0  0  0  0  0  0  0  0  0  0  0  0
   57.6160   27.7060   45.9810 C   0  0  0  0  0  0  0  0  0  0  0  0
   57.9910   27.6010   47.1810 O   0  0  0  0  0  0  0  0  0  0  0  0
   57.0830   26.5080   45.2920 C   0  0  0  0  0  0  0  0  0  0  0  0
   55.9290   25.8740   45.7800 C   0  0  0  0  0  0  0  0  0  0  0  0
   55.4370   24.7230   45.1570 C   0  0  0  0  0  0  0  0  0  0  0  0
   56.0940   24.1860   44.0390 C   0  0  0  0  0  0  0  0  0  0  0  0
   55.5940   22.9180   43.4030 C   0  0  0  0  0  0  0  0  0  0  0  0
   56.7000   21.5650   43.7650 S   0  0  0  0  0  0  0  0  0  0  0  0
   57.7590   21.4790   42.7010 O   0  0  0  0  0  0  0  0  0  0  0  0
   55.9240   20.2780   43.8030 O   0  0  0  0  0  0  0  0  0  0  0  0
   57.4690   21.8470   45.3490 C   0  0  0  0  0  0  0  0  0  0  0  0
   56.4250   22.0420   46.4130 C   0  0  0  0  0  0  0  0  0  0  0  0
   56.7300   22.7610   47.5810 C   0  0  0  0  0  0  0  0  0  0  0  0
   55.7490   22.9650   48.5570 C   0  0  0  0  0  0  0  0  0  0  0  0
   54.4580   22.4650   48.3690 C   0  0  0  0  0  0  0  0  0  0  0  0
   54.1440   21.7570   47.2040 C   0  0  0  0  0  0  0  0  0  0  0  0
   52.5220   21.1320   46.9700 Cl  0  0  0  0  0  0  0  0  0  0  0  0
   55.1230   21.5490   46.2260 C   0  0  0  0  0  0  0  0  0  0  0  0
   57.2590   24.8070   43.5630 C   0  0  0  0  0  0  0  0  0  0  0  0
   57.7490   25.9600   44.1850 C   0  0  0  0  0  0  0  0  0  0  0  0
   56.7820   29.3830   44.2660 C   0  0  0  0  0  0  0  0  0  0  0  0
   56.3730   30.8410   44.4930 C   0  0  0  0  0  0  0  0  0  0  0  0
   58.1980   32.5120   47.6510 C   0  0  0  0  0  0  0  0  0  0  0  0
   59.1870   32.6870   48.6220 C   0  0  0  0  0  0  0  0  0  0  0  0
   64.5620   32.4531   48.7518 H   0  0  0  0  0  0  0  0  0  0  0  0
   63.3403   31.4995   47.8436 H   0  0  0  0  0  0  0  0  0  0  0  0
   63.2603   33.2940   47.8436 H   0  0  0  0  0  0  0  0  0  0  0  0
   63.2670   32.4950   50.4690 H   0  0  0  0  0  0  0  0  0  0  0  0
   61.3577   34.6492   46.8528 H   0  0  0  0  0  0  0  0  0  0  0  0
   59.5985   34.3319   45.1145 H   0  0  0  0  0  0  0  0  0  0  0  0
   56.2870   32.8180   45.8400 H   0  0  0  0  0  0  0  0  0  0  0  0
   57.2434   33.8484   44.7089 H   0  0  0  0  0  0  0  0  0  0  0  0
   59.2870   30.7586   43.8934 H   0  0  0  0  0  0  0  0  0  0  0  0
   59.4628   31.9006   45.3016 H   0  0  0  0  0  0  0  0  0  0  0  0
   59.6722   29.4832   45.9360 H   0  0  0  0  0  0  0  0  0  0  0  0
   58.3323   30.3613   46.7709 H   0  0  0  0  0  0  0  0  0  0  0  0
   55.4089   26.2853   46.6577 H   0  0  0  0  0  0  0  0  0  0  0  0
   54.5303   24.2358   45.5451 H   0  0  0  0  0  0  0  0  0  0  0  0
   54.5939   22.6844   43.7970 H   0  0  0  0  0  0  0  0  0  0  0  0
   55.5464   23.0592   42.3131 H   0  0  0  0  0  0  0  0  0  0  0  0
   58.0927   20.9789   45.6084 H   0  0  0  0  0  0  0  0  0  0  0  0
   58.0886   22.7538   45.2876 H   0  0  0  0  0  0  0  0  0  0  0  0
   57.7427   23.1644   47.7282 H   0  0  0  0  0  0  0  0  0  0  0  0
   55.9944   23.5202   49.4744 H   0  0  0  0  0  0  0  0  0  0  0  0
   53.6880   22.6281   49.1375 H   0  0  0  0  0  0  0  0  0  0  0  0
   54.8722   20.9976   45.3078 H   0  0  0  0  0  0  0  0  0  0  0  0
   57.7893   24.3850   42.6966 H   0  0  0  0  0  0  0  0  0  0  0  0
   58.6623   26.4403   43.8040 H   0  0  0  0  0  0  0  0  0  0  0  0
   57.2602   29.2839   43.2804 H   0  0  0  0  0  0  0  0  0  0  0  0
   55.8914   28.7385   44.3033 H   0  0  0  0  0  0  0  0  0  0  0  0
   55.6806   31.1405   43.6925 H   0  0  0  0  0  0  0  0  0  0  0  0
   55.9010   30.9021   45.4847 H   0  0  0  0  0  0  0  0  0  0  0  0
   57.3092   31.9049   47.8776 H   0  0  0  0  0  0  0  0  0  0  0  0
   59.0750   32.2141   49.6088 H   0  0  0  0  0  0  0  0  0  0  0  0
  1  2  1  0
  2  3  1  0
  3  4  2  0
  3  5  2  0
  3  6  1  0
  6  7  2  0
  7  8  1  0
  8  9  2  0
  9 10  1  0
 10 11  1  0
 11 12  1  0
 12 13  1  0
 13 14  1  0
 14 15  1  0
 15 16  2  0
 15 17  1  0
 17 18  2  0
 18 19  1  0
 19 20  2  0
 20 21  1  0
 21 22  1  0
 22 23  2  0
 22 24  2  0
 22 25  1  0
 25 26  1  0
 26 27  2  0
 27 28  1  0
 28 29  2  0
 29 30  1  0
 30 31  1  0
 30 32  2  0
 20 33  1  0
 33 34  2  0
 14 35  1  0
 35 36  1  0
  9 37  1  0
 37 38  2  0
 38  6  1  0
 36 11  1  0
 34 17  1  0
 32 26  1  0
  1 39  1  0
  1 40  1  0
  1 41  1  0
  2 42  1  0
  7 43  1  0
  8 44  1  0
 10 45  1  0
 10 46  1  0
 12 47  1  0
 12 48  1  0
 13 49  1  0
 13 50  1  0
 18 51  1  0
 19 52  1  0
 21 53  1  0
 21 54  1  0
 25 55  1  0
 25 56  1  0
 27 57  1  0
 28 58  1  0
 29 59  1  0
 32 60  1  0
 33 61  1  0
 34 62  1  0
 35 63  1  0
 35 64  1  0
 36 65  1  0
 36 66  1  0
 37 67  1  0
 38 68  1  0
M  END
>  <UniqueID>  (70) 
68

>  <SMILES>  (70) 
CNS(=O)(=O)c1ccc(CN2CCN(C(=O)c3ccc(CS(=O)(=O)Cc4cccc(Cl)c4)cc3)CC2)cc1

>  <Energy>  (70) 
71.45752078773002

>  <Genealogy>  (70) 
CNS(=O)(=O)c1ccc(CN2CCN(C(=O)c3ccc(CS(=O)(=O)Cc4cccc(Cl)c4)cc3)CC2)cc1 (3D coordinates assigned)
CNS(=O)(=O)c1ccc(CN2CCN(C(=O)c3ccc(CS(=O)(=O)Cc4cccc(Cl)c4)cc3)CC2)cc1 (nonaromatic ring conformer: 71.45752078773002 kcal/mol)

>  <smiles>  (70) 
CNS(=O)(=O)c1ccc(CN2CCN(C(=O)c3ccc(CS(=O)(=O)Cc4cccc(Cl)c4)cc3)CC2)cc1

>  <score_type>  (70) 
oracle

>  <origin>  (70) 
adg

>  <m_score__min__energy>  (70) 
-10.039999999999999

>  <m_primary>  (70) 
energy

$$$$
70:0
     RDKit          3D

 31 34  0  0  0  0  0  0  0  0999 V2000
   56.9010   21.5890   46.6570 C   0  0  0  0  0  0  0  0  0  0  0  0
   56.2000   22.6410   46.1890 C   0  0  0  0  0  0  0  0  0  0  0  0
   56.7530   23.9540   45.9930 C   0  0  0  0  0  0  0  0  0  0  0  0
   58.1540   24.1940   45.9000 C   0  0  0  0  0  0  0  0  0  0  0  0
   59.0200   23.1190   45.6680 O   0  0  0  0  0  0  0  0  0  0  0  0
   58.6550   25.5180   45.9450 C   0  0  0  0  0  0  0  0  0  0  0  0
   60.0380   25.7840   46.0710 C   0  0  0  0  0  0  0  0  0  0  0  0
   60.5140   27.0970   46.0910 C   0  0  0  0  0  0  0  0  0  0  0  0
   59.6280   28.1640   45.9920 C   0  0  0  0  0  0  0  0  0  0  0  0
   58.2590   27.9280   45.8880 C   0  0  0  0  0  0  0  0  0  0  0  0
   57.7560   26.6100   45.8720 C   0  0  0  0  0  0  0  0  0  0  0  0
   56.3770   26.3790   45.7650 C   0  0  0  0  0  0  0  0  0  0  0  0
   55.5200   27.4710   45.6270 O   0  0  0  0  0  0  0  0  0  0  0  0
   55.8600   25.0630   45.8110 C   0  0  0  0  0  0  0  0  0  0  0  0
   54.4670   24.8140   45.6670 C   0  0  0  0  0  0  0  0  0  0  0  0
   53.6530   25.7590   45.4860 O   0  0  0  0  0  0  0  0  0  0  0  0
   54.0230   23.5300   45.7220 N   0  0  0  0  0  0  0  0  0  0  0  0
   52.7930   22.9660   45.6250 C   0  0  0  0  0  0  0  0  0  0  0  0
   51.6440   23.5970   45.3680 C   0  0  0  0  0  0  0  0  0  0  0  0
   52.8580   21.6330   45.8210 N   0  0  0  0  0  0  0  0  0  0  0  0
   54.1290   21.3310   46.0480 N   0  0  0  0  0  0  0  0  0  0  0  0
   54.8230   22.4860   45.9780 C   0  0  0  0  0  0  0  0  0  0  0  0
   56.4102   20.6124   46.7812 H   0  0  0  0  0  0  0  0  0  0  0  0
   57.9638   21.7071   46.9147 H   0  0  0  0  0  0  0  0  0  0  0  0
   58.9330   22.4700   44.8990 H   0  0  0  0  0  0  0  0  0  0  0  0
   60.7472   24.9473   46.1542 H   0  0  0  0  0  0  0  0  0  0  0  0
   61.5933   27.2875   46.1854 H   0  0  0  0  0  0  0  0  0  0  0  0
   60.0086   29.1960   45.9958 H   0  0  0  0  0  0  0  0  0  0  0  0
   57.5636   28.7774   45.8177 H   0  0  0  0  0  0  0  0  0  0  0  0
   50.7042   23.0279   45.3137 H   0  0  0  0  0  0  0  0  0  0  0  0
   51.6376   24.6857   45.2106 H   0  0  0  0  0  0  0  0  0  0  0  0
  1  2  2  0
  2  3  1  0
  3  4  2  0
  4  5  1  0
  4  6  1  0
  6  7  2  0
  7  8  1  0
  8  9  2  0
  9 10  1  0
 10 11  2  0
 11 12  1  0
 12 13  1  0
 12 14  2  0
 14 15  1  0
 15 16  2  0
 15 17  1  0
 17 18  1  0
 18 19  2  0
 18 20  1  0
 20 21  1  0
 21 22  2  0
 22  2  1  0
 14  3  1  0
 22 17  1  0
 11  6  1  0
  1 23  1  0
  1 24  1  0
  5 25  1  0
  7 26  1  0
  8 27  1  0
  9 28  1  0
 10 29  1  0
 19 30  1  0
 19 31  1  0
M  CHG  2  13  -1  20  -1
M  END
>  <UniqueID>  (71) 
69

>  <SMILES>  (71) 
C=c1c2c(O)c3ccccc3c([O-])c2c(=O)n2c(=C)[n-]nc12

>  <Energy>  (71) 
108.24738414660168

>  <Genealogy>  (71) 
C=c1c2c(O)c3ccccc3c([O-])c2c(=O)n2c(=C)[n-]nc12 (protonated)
C=c1c2c(O)c3ccccc3c([O-])c2c(=O)n2c(=C)[n-]nc12 (3D coordinates assigned)
C=c1c2c(O)c3ccccc3c([O-])c2c(=O)n2c(=C)[n-]nc12 (optimized conformer: 108.24738414660168 kcal/mol)

>  <smiles>  (71) 
C=c1c2c(O)c3ccccc3c(O)c2c(=O)n2c(=C)[nH]nc12

>  <score_type>  (71) 
oracle

>  <origin>  (71) 
adg

>  <m_score__min__energy>  (71) 
-11.18

>  <m_primary>  (71) 
energy

$$$$
71:0
     RDKit          3D

 61 63  0  0  1  0  0  0  0  0999 V2000
   55.9340   21.5240   44.8240 C   0  0  0  0  0  0  0  0  0  0  0  0
   56.1200   21.6740   43.3890 N   0  0  0  0  0  0  0  0  0  0  0  0
   57.4140   21.1760   43.0080 C   0  0  0  0  0  0  0  0  0  0  0  0
   55.8980   23.0360   43.0130 C   0  0  0  0  0  0  0  0  0  0  0  0
   55.4520   23.8750   44.1910 C   0  0  0  0  0  0  0  0  0  0  0  0
   56.5940   24.5560   44.7650 N   0  0  0  0  0  0  0  0  0  0  0  0
   56.6910   24.8080   46.1590 C   0  0  0  0  0  0  0  0  0  0  0  0
   55.7950   24.4560   46.9870 O   0  0  0  0  0  0  0  0  0  0  0  0
   57.8690   25.5130   46.7630 C   0  0  0  0  0  0  0  0  0  0  0  0
   58.5600   26.1370   45.6980 O   0  0  0  0  0  0  0  0  0  0  0  0
   58.2280   27.4260   45.3680 C   0  0  0  0  0  0  0  0  0  0  0  0
   56.9560   27.9430   45.5290 C   0  0  0  0  0  0  0  0  0  0  0  0
   58.9300   29.5810   44.4930 C   0  0  0  0  0  0  0  0  0  0  0  0
   59.9330   32.7910   48.7720 C   0  0  0  0  0  0  0  0  0  0  0  0
   57.3880   31.4430   44.2900 N   0  0  0  0  0  0  0  0  0  0  0  0
   58.0210   32.3900   44.8820 C   0  0  0  0  0  0  0  0  0  0  0  0
   57.7890   33.6600   44.5050 N   0  0  0  0  0  0  0  0  0  0  0  0
   58.4160   34.7130   45.0790 C   0  0  0  0  0  0  0  0  0  0  0  0
   59.3230   34.4440   46.0890 C   0  0  0  0  0  0  0  0  0  0  0  0
   59.9820   35.4740   46.7020 F   0  0  0  0  0  0  0  0  0  0  0  0
   59.5790   33.1450   46.4960 C   0  0  0  0  0  0  0  0  0  0  0  0
   60.4340   32.9320   47.4450 N   0  0  0  0  0  0  0  0  0  0  0  0
   57.6570   30.0950   44.6550 C   0  0  0  0  0  0  0  0  0  0  0  0
   56.6940   29.2590   45.1720 C   0  0  0  0  0  0  0  0  0  0  0  0
   59.2800   33.7950   50.8780 C   0  0  0  0  0  0  0  0  0  0  0  0
   58.9450   32.5430   51.3930 C   0  0  0  0  0  0  0  0  0  0  0  0
   59.1210   31.4450   50.5620 C   0  0  0  0  0  0  0  0  0  0  0  0
   59.6030   31.5510   49.2780 C   0  0  0  0  0  0  0  0  0  0  0  0
   59.8200   30.1700   48.2430 S   0  0  0  0  0  0  0  0  0  0  0  0
   60.9800   30.4750   47.0050 N   0  0  0  0  0  0  0  0  0  0  0  0
   60.2110   28.9880   49.0590 O   0  0  0  0  0  0  0  0  0  0  0  0
   58.5120   29.9010   47.5530 O   0  0  0  0  0  0  0  0  0  0  0  0
   58.9170   32.1440   45.8790 N   0  0  0  0  0  0  0  0  0  0  0  0
   59.7600   33.8840   49.5920 C   0  0  0  0  0  0  0  0  0  0  0  0
   59.2110   28.2720   44.8420 C   0  0  0  0  0  0  0  0  0  0  0  0
   56.6834   22.1284   45.3560 H   0  0  0  0  0  0  0  0  0  0  0  0
   54.9251   21.8642   45.1005 H   0  0  0  0  0  0  0  0  0  0  0  0
   56.0528   20.4660   45.1005 H   0  0  0  0  0  0  0  0  0  0  0  0
   58.0004   20.9503   43.9109 H   0  0  0  0  0  0  0  0  0  0  0  0
   57.2932   20.2601   42.4108 H   0  0  0  0  0  0  0  0  0  0  0  0
   57.9383   21.9366   42.4108 H   0  0  0  0  0  0  0  0  0  0  0  0
   56.8339   23.4526   42.6124 H   0  0  0  0  0  0  0  0  0  0  0  0
   55.1013   23.0575   42.2548 H   0  0  0  0  0  0  0  0  0  0  0  0
   54.7151   24.6183   43.8525 H   0  0  0  0  0  0  0  0  0  0  0  0
   54.9965   23.2232   44.9510 H   0  0  0  0  0  0  0  0  0  0  0  0
   57.3710   24.8730   44.1280 H   0  0  0  0  0  0  0  0  0  0  0  0
   57.5285   26.2674   47.4875 H   0  0  0  0  0  0  0  0  0  0  0  0
   58.5212   24.8066   47.2974 H   0  0  0  0  0  0  0  0  0  0  0  0
   56.1530   27.3130   45.9392 H   0  0  0  0  0  0  0  0  0  0  0  0
   59.7270   30.2186   44.0828 H   0  0  0  0  0  0  0  0  0  0  0  0
   57.1090   33.8650   43.7450 H   0  0  0  0  0  0  0  0  0  0  0  0
   58.2123   35.7442   44.7548 H   0  0  0  0  0  0  0  0  0  0  0  0
   55.6746   29.6494   45.3081 H   0  0  0  0  0  0  0  0  0  0  0  0
   59.1619   34.6998   51.4923 H   0  0  0  0  0  0  0  0  0  0  0  0
   58.5571   32.4301   52.4161 H   0  0  0  0  0  0  0  0  0  0  0  0
   58.8639   30.4471   50.9469 H   0  0  0  0  0  0  0  0  0  0  0  0
   60.5130   30.9760   46.2230 H   0  0  0  0  0  0  0  0  0  0  0  0
   61.7190   31.1110   47.3800 H   0  0  0  0  0  0  0  0  0  0  0  0
   59.0840   31.1550   46.1580 H   0  0  0  0  0  0  0  0  0  0  0  0
   60.0187   34.8782   49.1987 H   0  0  0  0  0  0  0  0  0  0  0  0
   60.2319   27.8868   44.7026 H   0  0  0  0  0  0  0  0  0  0  0  0
  1  2  1  0
  2  3  1  0
  2  4  1  0
  4  5  1  0
  5  6  1  0
  6  7  1  0
  7  8  2  0
  7  9  1  0
  9 10  1  0
 10 11  1  0
 11 12  2  0
 12 13  1  0
 13 14  2  0
 14 15  1  0
 15 16  2  0
 16 17  1  0
 17 18  1  0
 18 19  2  0
 19 20  1  0
 19 21  1  0
 21 22  2  0
 22 23  1  0
 23 24  2  0
 24 25  1  0
 25 26  2  0
 26 27  1  0
 27 28  2  0
 28 29  1  0
 29 30  1  0
 29 31  2  0
 29 32  2  0
 21 33  1  0
 14 34  1  0
 34 35  2  0
 35 11  1  0
 33 16  1  0
 28 23  1  0
  1 36  1  0
  1 37  1  0
  1 38  1  0
  3 39  1  0
  3 40  1  0
  3 41  1  0
  4 42  1  0
  4 43  1  0
  5 44  1  0
  5 45  1  0
  6 46  1  0
  9 47  1  0
  9 48  1  0
 12 49  1  0
 13 50  1  0
 17 51  1  0
 18 52  1  0
 24 53  1  0
 25 54  1  0
 26 55  1  0
 27 56  1  0
 30 57  1  0
 30 58  1  0
 33 59  1  0
 34 60  1  0
 35 61  1  0
M  END
>  <smiles>  (72) 
CN(C)CCNC(=O)COc1ccc(N=c2[nH]cc(F)c(=Nc3ccccc3S(N)(=O)=O)[nH]2)cc1

>  <score_type>  (72) 
oracle

>  <origin>  (72) 
adg

>  <m_score__min__energy>  (72) 
-8.3200000000000003

>  <m_primary>  (72) 
energy

$$$$
72:0
     RDKit          3D

 73 77  0  0  0  0  0  0  0  0999 V2000
   60.2720   35.2343   47.9561 H   0  0  0  0  0  0  0  0  0  0  0  0
   60.6020   34.2180   47.6950 C   0  0  0  0  0  0  0  0  0  0  0  0
   59.7440   33.5220   46.9080 C   0  0  0  0  0  0  0  0  0  0  0  0
   58.5230   34.0490   46.5310 C   0  0  0  0  0  0  0  0  0  0  0  0
   58.1040   35.0034   46.8824 H   0  0  0  0  0  0  0  0  0  0  0  0
   57.9310   33.2100   45.6680 N   0  0  0  0  0  0  0  0  0  0  0  0
   57.0090   33.3760   45.2130 H   0  0  0  0  0  0  0  0  0  0  0  0
   58.7710   32.1610   45.5400 C   0  0  0  0  0  0  0  0  0  0  0  0
   58.5280   31.0960   44.7430 C   0  0  0  0  0  0  0  0  0  0  0  0
   59.3445   30.7467   44.0940 H   0  0  0  0  0  0  0  0  0  0  0  0
   57.2220   30.3560   44.6810 C   0  0  0  0  0  0  0  0  0  0  0  0
   56.5458   30.7450   45.4566 H   0  0  0  0  0  0  0  0  0  0  0  0
   56.7725   30.4999   43.6874 H   0  0  0  0  0  0  0  0  0  0  0  0
   57.4510   28.8870   44.9110 C   0  0  0  0  0  0  0  0  0  0  0  0
   57.4060   28.3540   46.2080 C   0  0  0  0  0  0  0  0  0  0  0  0
   57.1647   29.0071   47.0596 H   0  0  0  0  0  0  0  0  0  0  0  0
   57.6660   26.9980   46.4240 C   0  0  0  0  0  0  0  0  0  0  0  0
   57.6366   26.5912   47.4456 H   0  0  0  0  0  0  0  0  0  0  0  0
   57.9640   26.1540   45.3460 C   0  0  0  0  0  0  0  0  0  0  0  0
   58.3050   24.4470   45.6200 S   0  0  0  0  0  0  0  0  0  0  0  0
   57.7750   24.0370   46.9660 O   0  0  0  0  0  0  0  0  0  0  0  0
   59.7940   24.2420   45.6150 O   0  0  0  0  0  0  0  0  0  0  0  0
   57.5750   23.4840   44.3590 N   0  0  0  0  0  0  0  0  0  0  0  0
   56.2100   23.9640   44.0840 C   0  0  0  0  0  0  0  0  0  0  0  0
   55.6321   23.9662   45.0200 H   0  0  0  0  0  0  0  0  0  0  0  0
   56.2684   24.9817   43.6706 H   0  0  0  0  0  0  0  0  0  0  0  0
   55.5090   23.0490   43.0570 C   0  0  0  0  0  0  0  0  0  0  0  0
   54.6016   22.6289   43.5155 H   0  0  0  0  0  0  0  0  0  0  0  0
   55.2613   23.6546   42.1727 H   0  0  0  0  0  0  0  0  0  0  0  0
   56.3460   21.9870   42.6420 O   0  0  0  0  0  0  0  0  0  0  0  0
   56.7300   21.2240   43.7700 C   0  0  0  0  0  0  0  0  0  0  0  0
   55.8266   20.8507   44.2745 H   0  0  0  0  0  0  0  0  0  0  0  0
   57.3575   20.3884   43.4265 H   0  0  0  0  0  0  0  0  0  0  0  0
   57.5490   22.0700   44.7670 C   0  0  0  0  0  0  0  0  0  0  0  0
   57.0934   21.9915   45.7651 H   0  0  0  0  0  0  0  0  0  0  0  0
   58.5813   21.6904   44.7848 H   0  0  0  0  0  0  0  0  0  0  0  0
   58.0120   26.6830   44.0490 C   0  0  0  0  0  0  0  0  0  0  0  0
   58.2435   26.0257   43.1979 H   0  0  0  0  0  0  0  0  0  0  0  0
   57.7670   28.0420   43.8320 C   0  0  0  0  0  0  0  0  0  0  0  0
   57.8216   28.4523   42.8129 H   0  0  0  0  0  0  0  0  0  0  0  0
   59.8940   32.3040   46.3070 N   0  0  0  0  0  0  0  0  0  0  0  0
   60.7530   31.1850   46.7300 C   0  0  0  0  0  0  0  0  0  0  0  0
   61.7428   31.5862   46.9931 H   0  0  0  0  0  0  0  0  0  0  0  0
   60.7993   30.4773   45.8892 H   0  0  0  0  0  0  0  0  0  0  0  0
   60.2130   30.4260   47.9200 C   0  0  0  0  0  0  0  0  0  0  0  0
   60.7190   29.1440   48.1880 C   0  0  0  0  0  0  0  0  0  0  0  0
   61.4704   28.7024   47.5169 H   0  0  0  0  0  0  0  0  0  0  0  0
   60.2760   28.4260   49.2990 C   0  0  0  0  0  0  0  0  0  0  0  0
   60.6754   27.4202   49.4959 H   0  0  0  0  0  0  0  0  0  0  0  0
   59.3290   28.9780   50.1610 C   0  0  0  0  0  0  0  0  0  0  0  0
   58.9663   28.3954   51.0207 H   0  0  0  0  0  0  0  0  0  0  0  0
   58.8350   30.2760   49.9370 C   0  0  0  0  0  0  0  0  0  0  0  0
   57.8240   30.8610   50.8460 C   0  0  0  0  0  0  0  0  0  0  0  0
   57.0330   30.1200   51.4880 O   0  0  0  0  0  0  0  0  0  0  0  0
   57.7320   32.2390   51.0020 O   0  0  0  0  0  0  0  0  0  0  0  0
   59.2910   30.9970   48.8200 C   0  0  0  0  0  0  0  0  0  0  0  0
   58.9238   32.0192   48.6462 H   0  0  0  0  0  0  0  0  0  0  0  0
   61.9500   33.8120   48.2730 C   0  0  2  0  0  0  0  0  0  0  0  0
   62.3784   34.7358   48.6890 H   0  0  0  0  0  0  0  0  0  0  0  0
   62.9440   33.3750   47.2270 C   0  0  0  0  0  0  0  0  0  0  0  0
   63.3430   32.1810   47.1960 O   0  0  0  0  0  0  0  0  0  0  0  0
   63.3210   34.2370   46.2050 O   0  0  0  0  0  0  0  0  0  0  0  0
   61.8440   32.8630   49.4920 C   0  0  0  0  0  0  0  0  0  0  0  0
   61.3062   33.3812   50.2996 H   0  0  0  0  0  0  0  0  0  0  0  0
   61.3064   31.9582   49.1720 H   0  0  0  0  0  0  0  0  0  0  0  0
   63.1930   32.4450   49.9990 C   0  0  0  0  0  0  0  0  0  0  0  0
   64.5360   33.4510   50.1380 S   0  0  0  0  0  0  0  0  0  0  0  0
   65.5730   32.2820   50.7630 C   0  0  0  0  0  0  0  0  0  0  0  0
   66.6270   32.4368   51.0370 H   0  0  0  0  0  0  0  0  0  0  0  0
   64.8710   31.0880   50.8740 C   0  0  0  0  0  0  0  0  0  0  0  0
   65.3176   30.1615   51.2639 H   0  0  0  0  0  0  0  0  0  0  0  0
   63.5420   31.1750   50.4430 C   0  0  0  0  0  0  0  0  0  0  0  0
   62.8446   30.3245   50.4545 H   0  0  0  0  0  0  0  0  0  0  0  0
  1  2  1  0
  2  3  2  0
  3  4  1  0
  4  5  1  0
  4  6  2  0
  6  7  1  0
  6  8  1  0
  8  9  2  0
  9 10  1  0
  9 11  1  0
 11 12  1  0
 11 13  1  0
 11 14  1  0
 14 15  2  0
 15 16  1  0
 15 17  1  0
 17 18  1  0
 17 19  2  0
 19 20  1  0
 20 21  2  0
 20 22  2  0
 20 23  1  0
 23 24  1  0
 24 25  1  0
 24 26  1  0
 24 27  1  0
 27 28  1  0
 27 29  1  0
 27 30  1  0
 30 31  1  0
 31 32  1  0
 31 33  1  0
 31 34  1  0
 34 35  1  0
 34 36  1  0
 19 37  1  0
 37 38  1  0
 37 39  2  0
 39 40  1  0
  8 41  1  0
 41 42  1  0
 42 43  1  0
 42 44  1  0
 42 45  1  0
 45 46  2  0
 46 47  1  0
 46 48  1  0
 48 49  1  0
 48 50  2  0
 50 51  1  0
 50 52  1  0
 52 53  1  0
 53 54  2  0
 53 55  1  0
 52 56  2  0
 56 57  1  0
  2 58  1  0
 58 59  1  1
 58 60  1  0
 60 61  2  0
 60 62  1  0
 58 63  1  0
 63 64  1  0
 63 65  1  0
 63 66  1  0
 66 67  1  0
 67 68  1  0
 68 69  1  0
 68 70  2  0
 70 71  1  0
 70 72  1  0
 72 73  1  0
 41  3  1  0
 56 45  1  0
 72 66  2  0
 39 14  1  0
 34 23  1  0
M  CHG  3   6   1  55  -1  62  -1
M  END
>  <UniqueID>  (73) 
70

>  <SMILES>  (73) 
O=C([O-])c1cccc(Cn2/c(=C\[C@@H](Cc3cccs3)C(=O)[O-])c[nH+]/c2=C\Cc2ccc(S(=O)(=O)N3CCOCC3)cc2)c1

>  <Energy>  (73) 
162.44759950556502

>  <Genealogy>  (73) 
O=C([O-])c1cccc(Cn2c(=CC(Cc3cccs3)C(=O)[O-])c[nH+]c2=CCc2ccc(S(=O)(=O)N3CCOCC3)cc2)c1 (protonated)
O=C([O-])c1cccc(Cn2c(=C[C@@H](Cc3cccs3)C(=O)[O-])c[nH+]c2=CCc2ccc(S(=O)(=O)N3CCOCC3)cc2)c1 (chirality)
O=C([O-])c1cccc(Cn2/c(=C\[C@@H](Cc3cccs3)C(=O)[O-])c[nH+]/c2=C\Cc2ccc(S(=O)(=O)N3CCOCC3)cc2)c1 (cis-trans isomerization)
O=C([O-])c1cccc(Cn2/c(=C\[C@@H](Cc3cccs3)C(=O)[O-])c[nH+]/c2=C\Cc2ccc(S(=O)(=O)N3CCOCC3)cc2)c1 (3D coordinates assigned)
O=C([O-])c1cccc(Cn2/c(=C\[C@@H](Cc3cccs3)C(=O)[O-])c[nH+]/c2=C\Cc2ccc(S(=O)(=O)N3CCOCC3)cc2)c1 (nonaromatic ring conformer: 162.44759950556502 kcal/mol)

>  <smiles>  (73) 
O=C(O)c1cccc(Cn2c(=CC(Cc3cccs3)C(=O)O)cnc2=CCc2ccc(S(=O)(=O)N3CCOCC3)cc2)c1

>  <score_type>  (73) 
oracle

>  <origin>  (73) 
adg

>  <m_score__min__energy>  (73) 
-13

>  <m_primary>  (73) 
energy

$$$$
73:0
     RDKit          3D

 56 59  0  0  0  0  0  0  0  0999 V2000
   55.5950   27.0340   45.9720 O   0  0  0  0  0  0  0  0  0  0  0  0
   56.1000   25.9420   46.3640 C   0  0  0  0  0  0  0  0  0  0  0  0
   57.3360   25.9840   47.2160 C   0  0  0  0  0  0  0  0  0  0  0  0
   57.7720   27.3490   47.5340 N   0  0  0  0  0  0  0  0  0  0  0  0
   59.0910   27.5950   48.0660 C   0  0  0  0  0  0  0  0  0  0  0  0
   59.7990   26.6150   48.4460 O   0  0  0  0  0  0  0  0  0  0  0  0
   59.7070   28.9410   48.0270 C   0  0  0  0  0  0  0  0  0  0  0  0
   60.7100   29.2400   48.9660 C   0  0  0  0  0  0  0  0  0  0  0  0
   61.3530   30.4730   48.9610 C   0  0  0  0  0  0  0  0  0  0  0  0
   60.9810   31.4250   48.0150 C   0  0  0  0  0  0  0  0  0  0  0  0
   59.9840   31.1520   47.1380 N   0  0  0  0  0  0  0  0  0  0  0  0
   59.3140   29.9640   47.1160 C   0  0  0  0  0  0  0  0  0  0  0  0
   58.2540   29.7540   46.2060 O   0  0  0  0  0  0  0  0  0  0  0  0
   58.2300   28.8500   45.1130 C   0  0  0  0  0  0  0  0  0  0  0  0
   58.9920   27.6590   45.0790 C   0  0  0  0  0  0  0  0  0  0  0  0
   58.9000   26.7790   43.9970 C   0  0  0  0  0  0  0  0  0  0  0  0
   58.0880   27.0910   42.9060 C   0  0  0  0  0  0  0  0  0  0  0  0
   57.3720   28.2910   42.8910 C   0  0  0  0  0  0  0  0  0  0  0  0
   57.4400   29.1710   43.9790 C   0  0  0  0  0  0  0  0  0  0  0  0
   56.5210   30.6710   43.9360 S   0  0  0  0  0  0  0  0  0  0  0  0
   55.1470   30.4060   44.4810 O   0  0  0  0  0  0  0  0  0  0  0  0
   56.4170   31.1790   42.5200 O   0  0  0  0  0  0  0  0  0  0  0  0
   57.3330   31.8540   44.8960 N   0  0  0  0  0  0  0  0  0  0  0  0
   58.0400   32.9170   45.5270 C   0  0  0  0  0  0  0  0  0  0  0  0
   58.8890   33.7470   44.7780 C   0  0  0  0  0  0  0  0  0  0  0  0
   59.5980   34.7710   45.4170 C   0  0  0  0  0  0  0  0  0  0  0  0
   59.4470   34.9900   46.7880 C   0  0  0  0  0  0  0  0  0  0  0  0
   58.5880   34.1700   47.5310 C   0  0  0  0  0  0  0  0  0  0  0  0
   57.8900   33.1400   46.9010 C   0  0  0  0  0  0  0  0  0  0  0  0
   55.3830   24.7160   46.1830 N   0  0  0  0  0  0  0  0  0  0  0  0
   55.1180   24.1080   44.8760 C   0  0  0  0  0  0  0  0  0  0  0  0
   56.2680   23.2510   44.4680 C   0  0  0  0  0  0  0  0  0  0  0  0
   57.3990   22.9900   45.2260 C   0  0  0  0  0  0  0  0  0  0  0  0
   58.2600   22.0700   44.6220 C   0  0  0  0  0  0  0  0  0  0  0  0
   57.8020   21.5940   43.3990 C   0  0  0  0  0  0  0  0  0  0  0  0
   56.3340   22.3280   43.0690 S   0  0  0  0  0  0  0  0  0  0  0  0
   57.1298   25.4544   48.1578 H   0  0  0  0  0  0  0  0  0  0  0  0
   58.1449   25.5073   46.6429 H   0  0  0  0  0  0  0  0  0  0  0  0
   57.1900   28.1620   47.2390 H   0  0  0  0  0  0  0  0  0  0  0  0
   60.9905   28.4864   49.7166 H   0  0  0  0  0  0  0  0  0  0  0  0
   62.1437   30.6931   49.6933 H   0  0  0  0  0  0  0  0  0  0  0  0
   61.4953   32.3967   47.9795 H   0  0  0  0  0  0  0  0  0  0  0  0
   59.6661   27.4221   45.9153 H   0  0  0  0  0  0  0  0  0  0  0  0
   59.4693   25.8378   44.0056 H   0  0  0  0  0  0  0  0  0  0  0  0
   58.0116   26.3934   42.0589 H   0  0  0  0  0  0  0  0  0  0  0  0
   56.7512   28.5462   42.0195 H   0  0  0  0  0  0  0  0  0  0  0  0
   58.9966   33.5934   43.6941 H   0  0  0  0  0  0  0  0  0  0  0  0
   60.2796   35.4083   44.8345 H   0  0  0  0  0  0  0  0  0  0  0  0
   59.9999   35.8025   47.2821 H   0  0  0  0  0  0  0  0  0  0  0  0
   58.4641   34.3384   48.6109 H   0  0  0  0  0  0  0  0  0  0  0  0
   57.2166   32.4981   47.4880 H   0  0  0  0  0  0  0  0  0  0  0  0
   54.2090   23.4917   44.9388 H   0  0  0  0  0  0  0  0  0  0  0  0
   54.9791   24.9040   44.1297 H   0  0  0  0  0  0  0  0  0  0  0  0
   57.5979   23.4583   46.2013 H   0  0  0  0  0  0  0  0  0  0  0  0
   59.2118   21.7520   45.0725 H   0  0  0  0  0  0  0  0  0  0  0  0
   58.3154   20.8616   42.7587 H   0  0  0  0  0  0  0  0  0  0  0  0
  1  2  2  0
  2  3  1  0
  3  4  1  0
  4  5  1  0
  5  6  2  0
  5  7  1  0
  7  8  2  0
  8  9  1  0
  9 10  2  0
 10 11  1  0
 11 12  2  0
 12 13  1  0
 13 14  1  0
 14 15  2  0
 15 16  1  0
 16 17  2  0
 17 18  1  0
 18 19  2  0
 19 20  1  0
 20 21  2  0
 20 22  2  0
 20 23  1  0
 23 24  1  0
 24 25  2  0
 25 26  1  0
 26 27  2  0
 27 28  1  0
 28 29  2  0
  2 30  1  0
 30 31  1  0
 31 32  1  0
 32 33  2  0
 33 34  1  0
 34 35  2  0
 35 36  1  0
 12  7  1  0
 19 14  1  0
 29 24  1  0
 36 32  1  0
  3 37  1  0
  3 38  1  0
  4 39  1  0
  8 40  1  0
  9 41  1  0
 10 42  1  0
 15 43  1  0
 16 44  1  0
 17 45  1  0
 18 46  1  0
 25 47  1  0
 26 48  1  0
 27 49  1  0
 28 50  1  0
 29 51  1  0
 31 52  1  0
 31 53  1  0
 33 54  1  0
 34 55  1  0
 35 56  1  0
M  CHG  2  23  -1  30  -1
M  END
>  <UniqueID>  (74) 
71

>  <SMILES>  (74) 
O=C(CNC(=O)c1cccnc1Oc1ccccc1S(=O)(=O)[N-]c1ccccc1)[N-]Cc1cccs1

>  <Energy>  (74) 
137.47160402000213

>  <Genealogy>  (74) 
O=C(CNC(=O)c1cccnc1Oc1ccccc1S(=O)(=O)[N-]c1ccccc1)[N-]Cc1cccs1 (protonated)
O=C(CNC(=O)c1cccnc1Oc1ccccc1S(=O)(=O)[N-]c1ccccc1)[N-]Cc1cccs1 (3D coordinates assigned)
O=C(CNC(=O)c1cccnc1Oc1ccccc1S(=O)(=O)[N-]c1ccccc1)[N-]Cc1cccs1 (optimized conformer: 137.47160402000213 kcal/mol)

>  <smiles>  (74) 
O=C(CNC(=O)c1cccnc1Oc1ccccc1S(=O)(=O)Nc1ccccc1)NCc1cccs1

>  <score_type>  (74) 
oracle

>  <origin>  (74) 
adg

>  <m_score__min__energy>  (74) 
-12.06

>  <m_primary>  (74) 
energy

$$$$
74:0
     RDKit          3D

 22 23  0  0  0  0  0  0  0  0999 V2000
   53.6331   21.8930   46.7927 H   0  0  0  0  0  0  0  0  0  0  0  0
   52.9900   22.3010   45.9990 C   0  0  0  0  0  0  0  0  0  0  0  0
   51.7460   21.8790   45.7090 N   0  0  0  0  0  0  0  0  0  0  0  0
   51.3750   22.6760   44.6870 C   0  0  0  0  0  0  0  0  0  0  0  0
   50.2500   22.5860   44.1300 O   0  0  0  0  0  0  0  0  0  0  0  0
   52.3030   23.5790   44.3120 N   0  0  0  0  0  0  0  0  0  0  0  0
   53.3300   23.3260   45.1430 C   0  0  0  0  0  0  0  0  0  0  0  0
   54.5990   24.0800   45.1590 C   0  0  0  0  0  0  0  0  0  0  0  0
   55.3970   23.9530   44.1930 O   0  0  0  0  0  0  0  0  0  0  0  0
   54.9880   24.9060   46.2670 N   0  0  0  0  0  0  0  0  0  0  0  0
   55.9650   25.7630   46.2740 C   0  0  0  0  0  0  0  0  0  0  0  0
   55.8560   27.0430   45.8570 N   0  0  0  0  0  0  0  0  0  0  0  0
   57.0490   27.6930   45.9300 C   0  0  0  0  0  0  0  0  0  0  0  0
   57.1960   29.0790   45.6080 N   0  0  0  0  0  0  0  0  0  0  0  0
   56.2820   29.8640   44.8320 C   0  0  0  0  0  0  0  0  0  0  0  0
   56.6270   31.0180   44.4660 O   0  0  0  0  0  0  0  0  0  0  0  0
   55.0080   29.3540   44.4280 N   0  0  0  0  0  0  0  0  0  0  0  0
   54.3320   29.9770   43.9340 H   0  0  0  0  0  0  0  0  0  0  0  0
   54.7760   28.3410   44.5050 H   0  0  0  0  0  0  0  0  0  0  0  0
   58.1100   26.9330   46.4110 C   0  0  0  0  0  0  0  0  0  0  0  0
   59.1436   27.2816   46.5528 H   0  0  0  0  0  0  0  0  0  0  0  0
   57.5330   25.3850   46.7380 S   0  0  0  0  0  0  0  0  0  0  0  0
  1  2  1  0
  2  3  1  0
  3  4  1  0
  4  5  2  0
  4  6  1  0
  6  7  1  0
  7  8  1  0
  8  9  2  0
  8 10  1  0
 10 11  2  0
 11 12  1  0
 12 13  1  0
 13 14  1  0
 14 15  1  0
 15 16  2  0
 15 17  1  0
 17 18  1  0
 17 19  1  0
 13 20  2  0
 20 21  1  0
 20 22  1  0
  7  2  2  0
 22 11  1  0
M  CHG  4   3  -1   6  -1  12  -1  14  -1
M  END
>  <UniqueID>  (75) 
72

>  <SMILES>  (75) 
NC(=O)[N-]c1cs/c(=N/C(=O)c2c[n-]c(=O)[n-]2)[n-]1

>  <Energy>  (75) 
85.88093866168921

>  <Genealogy>  (75) 
NC(=O)[N-]c1csc(=NC(=O)c2c[n-]c(=O)[n-]2)[n-]1 (protonated)
NC(=O)[N-]c1cs/c(=N/C(=O)c2c[n-]c(=O)[n-]2)[n-]1 (cis-trans isomerization)
NC(=O)[N-]c1cs/c(=N/C(=O)c2c[n-]c(=O)[n-]2)[n-]1 (3D coordinates assigned)
NC(=O)[N-]c1cs/c(=N/C(=O)c2c[n-]c(=O)[n-]2)[n-]1 (optimized conformer: 85.88093866168921 kcal/mol)

>  <smiles>  (75) 
NC(=O)Nc1csc(=NC(=O)c2c[nH]c(=O)[nH]2)[nH]1

>  <score_type>  (75) 
oracle

>  <origin>  (75) 
adg

>  <m_score__min__energy>  (75) 
-12.630000000000001

>  <m_primary>  (75) 
energy

$$$$
75:0
     RDKit          3D

 55 58  0  0  0  0  0  0  0  0999 V2000
   51.9050   24.8700   43.3380 H   0  0  0  0  0  0  0  0  0  0  0  0
   51.3790   24.3250   44.0110 O   0  0  0  0  0  0  0  0  0  0  0  0
   52.0110   23.6480   45.0530 C   0  0  0  0  0  0  0  0  0  0  0  0
   51.2840   23.2650   46.1880 C   0  0  0  0  0  0  0  0  0  0  0  0
   50.2130   23.5053   46.2599 H   0  0  0  0  0  0  0  0  0  0  0  0
   51.9140   22.5800   47.2270 C   0  0  0  0  0  0  0  0  0  0  0  0
   51.3418   22.2971   48.1228 H   0  0  0  0  0  0  0  0  0  0  0  0
   53.2760   22.2500   47.1340 C   0  0  0  0  0  0  0  0  0  0  0  0
   53.9640   21.5380   48.2300 C   0  0  0  0  0  0  0  0  0  0  0  0
   53.3652   21.2705   49.1131 H   0  0  0  0  0  0  0  0  0  0  0  0
   55.2600   21.1910   48.2360 C   0  0  0  0  0  0  0  0  0  0  0  0
   55.5078   20.1712   47.9066 H   0  0  0  0  0  0  0  0  0  0  0  0
   56.3830   22.0580   48.6460 C   0  0  0  0  0  0  0  0  0  0  0  0
   57.3530   21.5990   49.3090 O   0  0  0  0  0  0  0  0  0  0  0  0
   56.3840   23.4260   48.2300 N   0  0  0  0  0  0  0  0  0  0  0  0
   57.4960   24.0540   47.5170 C   0  0  0  0  0  0  0  0  0  0  0  0
   57.9099   24.8607   48.1398 H   0  0  0  0  0  0  0  0  0  0  0  0
   58.2563   23.2847   47.3169 H   0  0  0  0  0  0  0  0  0  0  0  0
   57.0420   24.6430   46.1750 C   0  0  0  0  0  0  0  0  0  0  0  0
   57.5379   24.0952   45.3601 H   0  0  0  0  0  0  0  0  0  0  0  0
   55.9484   24.5435   46.1113 H   0  0  0  0  0  0  0  0  0  0  0  0
   57.3880   26.1150   46.0580 C   0  0  0  0  0  0  0  0  0  0  0  0
   56.3690   27.0820   45.9780 C   0  0  0  0  0  0  0  0  0  0  0  0
   55.0300   26.7090   45.9980 O   0  0  0  0  0  0  0  0  0  0  0  0
   56.6840   28.3960   45.8670 N   0  0  0  0  0  0  0  0  0  0  0  0
   57.9730   28.8150   45.8300 C   0  0  0  0  0  0  0  0  0  0  0  0
   58.2770   30.2120   45.7000 N   0  0  0  0  0  0  0  0  0  0  0  0
   59.3960   30.9130   46.2570 C   0  0  0  0  0  0  0  0  0  0  0  0
   60.3380   30.3710   46.8920 O   0  0  0  0  0  0  0  0  0  0  0  0
   59.2650   32.3420   45.9920 C   0  0  0  0  0  0  0  0  0  0  0  0
   60.0830   33.4110   46.3540 C   0  0  0  0  0  0  0  0  0  0  0  0
   61.0116   33.2473   46.9204 H   0  0  0  0  0  0  0  0  0  0  0  0
   59.6850   34.7060   45.9730 C   0  0  0  0  0  0  0  0  0  0  0  0
   60.3091   35.5707   46.2426 H   0  0  0  0  0  0  0  0  0  0  0  0
   58.4900   34.9030   45.2470 C   0  0  0  0  0  0  0  0  0  0  0  0
   58.1918   35.9197   44.9514 H   0  0  0  0  0  0  0  0  0  0  0  0
   57.6780   33.8080   44.8990 C   0  0  0  0  0  0  0  0  0  0  0  0
   56.7442   33.9513   44.3356 H   0  0  0  0  0  0  0  0  0  0  0  0
   58.0930   32.5360   45.2900 C   0  0  0  0  0  0  0  0  0  0  0  0
   57.4710   31.2300   45.1020 C   0  0  0  0  0  0  0  0  0  0  0  0
   56.3820   31.0180   44.5030 O   0  0  0  0  0  0  0  0  0  0  0  0
   58.9760   27.9020   45.9050 N   0  0  0  0  0  0  0  0  0  0  0  0
   58.7260   26.5720   46.0270 C   0  0  0  0  0  0  0  0  0  0  0  0
   59.8960   25.6330   46.0660 C   0  0  0  0  0  0  0  0  0  0  0  0
   60.1608   25.4204   47.1123 H   0  0  0  0  0  0  0  0  0  0  0  0
   59.6302   24.6947   45.5572 H   0  0  0  0  0  0  0  0  0  0  0  0
   60.7545   26.0956   45.5572 H   0  0  0  0  0  0  0  0  0  0  0  0
   54.0110   22.6700   46.0170 C   0  0  0  0  0  0  0  0  0  0  0  0
   55.0898   22.4616   45.9637 H   0  0  0  0  0  0  0  0  0  0  0  0
   53.3790   23.3570   44.9620 C   0  0  0  0  0  0  0  0  0  0  0  0
   54.0730   23.7650   43.8120 O   0  0  0  0  0  0  0  0  0  0  0  0
   55.4720   23.5910   43.6100 C   0  0  0  0  0  0  0  0  0  0  0  0
   55.9782   23.5280   44.5846 H   0  0  0  0  0  0  0  0  0  0  0  0
   55.6483   22.6640   43.0447 H   0  0  0  0  0  0  0  0  0  0  0  0
   55.8701   24.4466   43.0447 H   0  0  0  0  0  0  0  0  0  0  0  0
  1  2  1  0
  2  3  1  0
  3  4  2  0
  4  5  1  0
  4  6  1  0
  6  7  1  0
  6  8  2  0
  8  9  1  0
  9 10  1  0
  9 11  2  0
 11 12  1  0
 11 13  1  0
 13 14  2  0
 13 15  1  0
 15 16  1  0
 16 17  1  0
 16 18  1  0
 16 19  1  0
 19 20  1  0
 19 21  1  0
 19 22  1  0
 22 23  2  0
 23 24  1  0
 23 25  1  0
 25 26  2  0
 26 27  1  0
 27 28  1  0
 28 29  2  0
 28 30  1  0
 30 31  2  0
 31 32  1  0
 31 33  1  0
 33 34  1  0
 33 35  2  0
 35 36  1  0
 35 37  1  0
 37 38  1  0
 37 39  2  0
 39 40  1  0
 40 41  2  0
 26 42  1  0
 42 43  2  0
 43 44  1  0
 44 45  1  0
 44 46  1  0
 44 47  1  0
  8 48  1  0
 48 49  1  0
 48 50  2  0
 50 51  1  0
 51 52  1  0
 52 53  1  0
 52 54  1  0
 52 55  1  0
 50  3  1  0
 43 22  1  0
 40 27  1  0
 39 30  1  0
M  CHG  2  15  -1  24  -1
M  END
>  <UniqueID>  (76) 
73

>  <SMILES>  (76) 
COc1cc(/C=C\C(=O)[N-]CCc2c(C)nc(N3C(=O)c4ccccc4C3=O)nc2[O-])ccc1O

>  <Energy>  (76) 
97.55138537678455

>  <Genealogy>  (76) 
COc1cc(C=CC(=O)[N-]CCc2c(C)nc(N3C(=O)c4ccccc4C3=O)nc2[O-])ccc1O (protonated)
COc1cc(/C=C\C(=O)[N-]CCc2c(C)nc(N3C(=O)c4ccccc4C3=O)nc2[O-])ccc1O (cis-trans isomerization)
COc1cc(/C=C\C(=O)[N-]CCc2c(C)nc(N3C(=O)c4ccccc4C3=O)nc2[O-])ccc1O (3D coordinates assigned)
COc1cc(/C=C\C(=O)[N-]CCc2c(C)nc(N3C(=O)c4ccccc4C3=O)nc2[O-])ccc1O (nonaromatic ring conformer: 97.55138537678455 kcal/mol)

>  <smiles>  (76) 
COc1cc(C=CC(=O)NCCc2c(C)nc(N3C(=O)c4ccccc4C3=O)nc2O)ccc1O

>  <score_type>  (76) 
oracle

>  <origin>  (76) 
adg

>  <m_score__min__energy>  (76) 
-13.48

>  <m_primary>  (76) 
energy

$$$$
76:0
     RDKit          3D

 68 70  0  0  0  0  0  0  0  0999 V2000
   52.8400   24.1060   45.0420 C   0  0  0  0  0  0  0  0  0  0  0  0
   53.8840   23.7240   46.0810 C   0  0  0  0  0  0  0  0  0  0  0  0
   55.0350   24.5450   45.9240 O   0  0  0  0  0  0  0  0  0  0  0  0
   56.0610   24.2440   45.0190 C   0  0  0  0  0  0  0  0  0  0  0  0
   55.7860   23.7680   43.8840 O   0  0  0  0  0  0  0  0  0  0  0  0
   57.4660   24.4900   45.3960 C   0  0  0  0  0  0  0  0  0  0  0  0
   58.4980   23.5590   45.3840 C   0  0  0  0  0  0  0  0  0  0  0  0
   58.4020   22.1290   44.9520 C   0  0  0  0  0  0  0  0  0  0  0  0
   59.6520   24.1400   45.7620 N   0  0  0  0  0  0  0  0  0  0  0  0
   59.3820   25.4350   46.0210 C   0  0  0  0  0  0  0  0  0  0  0  0
   60.4360   26.4300   46.3990 C   0  0  0  0  0  0  0  0  0  0  0  0
   58.0350   25.6960   45.7980 C   0  0  0  0  0  0  0  0  0  0  0  0
   57.2360   27.2720   45.8470 S   0  0  0  0  0  0  0  0  0  0  0  0
   55.7510   27.0900   45.9810 O   0  0  0  0  0  0  0  0  0  0  0  0
   57.7220   28.0080   47.0680 O   0  0  0  0  0  0  0  0  0  0  0  0
   57.6330   28.1530   44.3830 N   0  0  0  0  0  0  0  0  0  0  0  0
   56.5920   29.1400   43.9950 C   0  0  0  0  0  0  0  0  0  0  0  0
   57.0090   30.6140   44.2060 C   0  0  0  0  0  0  0  0  0  0  0  0
   57.8820   30.7670   45.4610 C   0  0  0  0  0  0  0  0  0  0  0  0
   58.2480   32.2170   45.7100 C   0  0  0  0  0  0  0  0  0  0  0  0
   57.5640   33.1200   45.1550 O   0  0  0  0  0  0  0  0  0  0  0  0
   59.4040   32.5860   46.4950 N   0  0  0  0  0  0  0  0  0  0  0  0
   60.0020   33.9160   46.3180 C   0  0  0  0  0  0  0  0  0  0  0  0
   61.5200   33.8640   46.5330 C   0  0  0  0  0  0  0  0  0  0  0  0
   61.8780   33.1270   47.7540 N   0  0  0  0  0  0  0  0  0  0  0  0
   63.2440   33.1360   48.2130 C   0  0  0  0  0  0  0  0  0  0  0  0
   64.1400   33.6920   47.5200 O   0  0  0  0  0  0  0  0  0  0  0  0
   63.5820   32.5170   49.4220 O   0  0  0  0  0  0  0  0  0  0  0  0
   64.4710   33.1010   50.3700 C   0  0  0  0  0  0  0  0  0  0  0  0
   65.8970   32.6660   50.0610 C   0  0  0  0  0  0  0  0  0  0  0  0
   60.8370   32.4390   48.5270 C   0  0  0  0  0  0  0  0  0  0  0  0
   59.8730   31.7120   47.5840 C   0  0  0  0  0  0  0  0  0  0  0  0
   59.1560   29.8950   45.3680 C   0  0  0  0  0  0  0  0  0  0  0  0
   59.0010   28.7030   44.4010 C   0  0  0  0  0  0  0  0  0  0  0  0
   51.9234   24.4414   45.5493 H   0  0  0  0  0  0  0  0  0  0  0  0
   53.2296   24.9198   44.4128 H   0  0  0  0  0  0  0  0  0  0  0  0
   52.6123   23.2329   44.4128 H   0  0  0  0  0  0  0  0  0  0  0  0
   53.4670   23.8668   47.0888 H   0  0  0  0  0  0  0  0  0  0  0  0
   54.1659   22.6694   45.9456 H   0  0  0  0  0  0  0  0  0  0  0  0
   58.3584   21.4801   45.8391 H   0  0  0  0  0  0  0  0  0  0  0  0
   57.4924   21.9882   44.3497 H   0  0  0  0  0  0  0  0  0  0  0  0
   59.2846   21.8679   44.3497 H   0  0  0  0  0  0  0  0  0  0  0  0
   60.5900   23.6820   45.8150 H   0  0  0  0  0  0  0  0  0  0  0  0
   60.5037   26.4939   47.4951 H   0  0  0  0  0  0  0  0  0  0  0  0
   61.4057   26.1103   45.9898 H   0  0  0  0  0  0  0  0  0  0  0  0
   60.1726   27.4165   45.9898 H   0  0  0  0  0  0  0  0  0  0  0  0
   56.3596   28.9960   42.9295 H   0  0  0  0  0  0  0  0  0  0  0  0
   55.7250   28.9593   44.6474 H   0  0  0  0  0  0  0  0  0  0  0  0
   57.5779   30.9557   43.3287 H   0  0  0  0  0  0  0  0  0  0  0  0
   56.0998   31.2193   44.3366 H   0  0  0  0  0  0  0  0  0  0  0  0
   57.2859   30.4155   46.3160 H   0  0  0  0  0  0  0  0  0  0  0  0
   59.7942   34.2719   45.2981 H   0  0  0  0  0  0  0  0  0  0  0  0
   59.5643   34.6008   47.0593 H   0  0  0  0  0  0  0  0  0  0  0  0
   61.9843   33.3665   45.6688 H   0  0  0  0  0  0  0  0  0  0  0  0
   61.8838   34.8966   46.6402 H   0  0  0  0  0  0  0  0  0  0  0  0
   64.4010   34.1972   50.3119 H   0  0  0  0  0  0  0  0  0  0  0  0
   64.1973   32.7701   51.3827 H   0  0  0  0  0  0  0  0  0  0  0  0
   66.4417   32.4998   51.0021 H   0  0  0  0  0  0  0  0  0  0  0  0
   65.8777   31.7329   49.4788 H   0  0  0  0  0  0  0  0  0  0  0  0
   66.4018   33.4510   49.4788 H   0  0  0  0  0  0  0  0  0  0  0  0
   61.3078   31.7076   49.2003 H   0  0  0  0  0  0  0  0  0  0  0  0
   60.2751   33.1810   49.1133 H   0  0  0  0  0  0  0  0  0  0  0  0
   60.3900   30.8453   47.1464 H   0  0  0  0  0  0  0  0  0  0  0  0
   58.9964   31.3977   48.1696 H   0  0  0  0  0  0  0  0  0  0  0  0
   59.9871   30.5248   45.0178 H   0  0  0  0  0  0  0  0  0  0  0  0
   59.3469   29.4833   46.3700 H   0  0  0  0  0  0  0  0  0  0  0  0
   59.2576   29.0391   43.3855 H   0  0  0  0  0  0  0  0  0  0  0  0
   59.6730   27.9052   44.7501 H   0  0  0  0  0  0  0  0  0  0  0  0
  1  2  1  0
  2  3  1  0
  3  4  1  0
  4  5  2  0
  4  6  1  0
  6  7  2  0
  7  8  1  0
  7  9  1  0
  9 10  1  0
 10 11  1  0
 10 12  2  0
 12 13  1  0
 13 14  2  0
 13 15  2  0
 13 16  1  0
 16 17  1  0
 17 18  1  0
 18 19  1  0
 19 20  1  0
 20 21  2  0
 20 22  1  0
 22 23  1  0
 23 24  1  0
 24 25  1  0
 25 26  1  0
 26 27  2  0
 26 28  1  0
 28 29  1  0
 29 30  1  0
 25 31  1  0
 31 32  1  0
 19 33  1  0
 33 34  1  0
 12  6  1  0
 34 16  1  0
 32 22  1  0
  1 35  1  0
  1 36  1  0
  1 37  1  0
  2 38  1  0
  2 39  1  0
  8 40  1  0
  8 41  1  0
  8 42  1  0
  9 43  1  0
 11 44  1  0
 11 45  1  0
 11 46  1  0
 17 47  1  0
 17 48  1  0
 18 49  1  0
 18 50  1  0
 19 51  1  0
 23 52  1  0
 23 53  1  0
 24 54  1  0
 24 55  1  0
 29 56  1  0
 29 57  1  0
 30 58  1  0
 30 59  1  0
 30 60  1  0
 31 61  1  0
 31 62  1  0
 32 63  1  0
 32 64  1  0
 33 65  1  0
 33 66  1  0
 34 67  1  0
 34 68  1  0
M  END
>  <UniqueID>  (77) 
74

>  <SMILES>  (77) 
CCOC(=O)c1c(C)[nH]c(C)c1S(=O)(=O)N1CCC(C(=O)N2CCN(C(=O)OCC)CC2)CC1

>  <Energy>  (77) 
93.25325708365366

>  <Genealogy>  (77) 
CCOC(=O)c1c(C)[nH]c(C)c1S(=O)(=O)N1CCC(C(=O)N2CCN(C(=O)OCC)CC2)CC1 (3D coordinates assigned)
CCOC(=O)c1c(C)[nH]c(C)c1S(=O)(=O)N1CCC(C(=O)N2CCN(C(=O)OCC)CC2)CC1 (nonaromatic ring conformer: 93.25325708365366 kcal/mol)

>  <smiles>  (77) 
CCOC(=O)c1c(C)[nH]c(C)c1S(=O)(=O)N1CCC(C(=O)N2CCN(C(=O)OCC)CC2)CC1

>  <score_type>  (77) 
oracle

>  <origin>  (77) 
adg

>  <m_score__min__energy>  (77) 
-9.25

>  <m_primary>  (77) 
energy

$$$$
77:0
     RDKit          3D

 63 67  0  0  0  0  0  0  0  0999 V2000
   56.6390   32.8860   45.7360 O   0  0  0  0  0  0  0  0  0  0  0  0
   57.6960   32.7380   45.0630 C   0  0  0  0  0  0  0  0  0  0  0  0
   57.7850   31.6330   44.0510 C   0  0  0  0  0  0  0  0  0  0  0  0
   57.5690   30.3270   44.6820 N   0  0  0  0  0  0  0  0  0  0  0  0
   56.2670   29.7140   44.6930 C   0  0  0  0  0  0  0  0  0  0  0  0
   55.2820   30.3250   44.2000 O   0  0  0  0  0  0  0  0  0  0  0  0
   56.0560   28.4090   45.2460 N   0  0  0  0  0  0  0  0  0  0  0  0
   57.0350   27.5680   45.8660 C   0  0  0  0  0  0  0  0  0  0  0  0
   56.6360   26.3100   46.3370 C   0  0  0  0  0  0  0  0  0  0  0  0
   57.5570   25.4580   46.9570 C   0  0  0  0  0  0  0  0  0  0  0  0
   58.8850   25.8610   47.1100 C   0  0  0  0  0  0  0  0  0  0  0  0
   59.2930   27.1140   46.6390 C   0  0  0  0  0  0  0  0  0  0  0  0
   58.3730   27.9680   46.0170 C   0  0  0  0  0  0  0  0  0  0  0  0
   58.9040   29.5290   45.4360 S   0  0  0  0  0  0  0  0  0  0  0  0
   59.3930   30.3550   46.5930 O   0  0  0  0  0  0  0  0  0  0  0  0
   60.0050   29.3400   44.4330 O   0  0  0  0  0  0  0  0  0  0  0  0
   58.7860   33.6570   45.2150 N   0  0  0  0  0  0  0  0  0  0  0  0
   58.9290   34.5170   46.3870 C   0  0  0  0  0  0  0  0  0  0  0  0
   60.2170   34.1960   47.0910 C   0  0  0  0  0  0  0  0  0  0  0  0
   61.3600   33.8500   46.3570 C   0  0  0  0  0  0  0  0  0  0  0  0
   62.5440   33.5040   47.0130 C   0  0  0  0  0  0  0  0  0  0  0  0
   62.5960   33.4740   48.4170 C   0  0  0  0  0  0  0  0  0  0  0  0
   63.8580   33.1190   49.1030 C   0  0  0  0  0  0  0  0  0  0  0  0
   64.9530   33.4500   48.5760 O   0  0  0  0  0  0  0  0  0  0  0  0
   63.8650   32.3880   50.3450 N   0  0  0  0  0  0  0  0  0  0  0  0
   62.9630   31.2340   50.5170 C   0  0  0  0  0  0  0  0  0  0  0  0
   63.4320   30.3200   51.6550 C   0  0  0  0  0  0  0  0  0  0  0  0
   64.8920   30.1430   51.5790 N   0  0  0  0  0  0  0  0  0  0  0  0
   65.5030   28.8390   51.6460 C   0  0  0  0  0  0  0  0  0  0  0  0
   66.8490   28.6450   51.2890 C   0  0  0  0  0  0  0  0  0  0  0  0
   67.4170   27.3750   51.4080 C   0  0  0  0  0  0  0  0  0  0  0  0
   66.6490   26.3110   51.8860 C   0  0  0  0  0  0  0  0  0  0  0  0
   65.3170   26.5370   52.2390 C   0  0  0  0  0  0  0  0  0  0  0  0
   64.7810   27.7810   52.1160 N   0  0  0  0  0  0  0  0  0  0  0  0
   65.7610   31.3280   51.4900 C   0  0  0  0  0  0  0  0  0  0  0  0
   64.9410   32.6120   51.3210 C   0  0  0  0  0  0  0  0  0  0  0  0
   61.4520   33.8250   49.1510 C   0  0  0  0  0  0  0  0  0  0  0  0
   60.2680   34.1740   48.4930 C   0  0  0  0  0  0  0  0  0  0  0  0
   57.0189   31.7904   43.2775 H   0  0  0  0  0  0  0  0  0  0  0  0
   58.7901   31.6456   43.6043 H   0  0  0  0  0  0  0  0  0  0  0  0
   55.5904   25.9896   46.2184 H   0  0  0  0  0  0  0  0  0  0  0  0
   57.2350   24.4720   47.3233 H   0  0  0  0  0  0  0  0  0  0  0  0
   59.6097   25.1943   47.6002 H   0  0  0  0  0  0  0  0  0  0  0  0
   60.3401   27.4296   46.7576 H   0  0  0  0  0  0  0  0  0  0  0  0
   59.5980   33.5860   44.5590 H   0  0  0  0  0  0  0  0  0  0  0  0
   58.9373   35.5703   46.0699 H   0  0  0  0  0  0  0  0  0  0  0  0
   58.0851   34.3463   47.0716 H   0  0  0  0  0  0  0  0  0  0  0  0
   61.3245   33.8509   45.2576 H   0  0  0  0  0  0  0  0  0  0  0  0
   63.4407   33.2536   46.4271 H   0  0  0  0  0  0  0  0  0  0  0  0
   61.9521   31.6015   50.7471 H   0  0  0  0  0  0  0  0  0  0  0  0
   62.9647   30.6521   49.5835 H   0  0  0  0  0  0  0  0  0  0  0  0
   63.1685   30.7745   52.6214 H   0  0  0  0  0  0  0  0  0  0  0  0
   62.9407   29.3403   51.5617 H   0  0  0  0  0  0  0  0  0  0  0  0
   67.4506   29.4881   50.9184 H   0  0  0  0  0  0  0  0  0  0  0  0
   68.4677   27.2128   51.1257 H   0  0  0  0  0  0  0  0  0  0  0  0
   67.0880   25.3071   51.9832 H   0  0  0  0  0  0  0  0  0  0  0  0
   64.7006   25.7081   52.6170 H   0  0  0  0  0  0  0  0  0  0  0  0
   66.3584   31.4035   52.4105 H   0  0  0  0  0  0  0  0  0  0  0  0
   66.4116   31.2147   50.6103 H   0  0  0  0  0  0  0  0  0  0  0  0
   64.5031   32.8962   52.2892 H   0  0  0  0  0  0  0  0  0  0  0  0
   65.5970   33.4184   50.9612 H   0  0  0  0  0  0  0  0  0  0  0  0
   61.4869   33.8256   50.2504 H   0  0  0  0  0  0  0  0  0  0  0  0
   59.3727   34.4324   49.0775 H   0  0  0  0  0  0  0  0  0  0  0  0
  1  2  2  0
  2  3  1  0
  3  4  1  0
  4  5  1  0
  5  6  2  0
  5  7  1  0
  7  8  1  0
  8  9  2  0
  9 10  1  0
 10 11  2  0
 11 12  1  0
 12 13  2  0
 13 14  1  0
 14 15  2  0
 14 16  2  0
  2 17  1  0
 17 18  1  0
 18 19  1  0
 19 20  2  0
 20 21  1  0
 21 22  2  0
 22 23  1  0
 23 24  2  0
 23 25  1  0
 25 26  1  0
 26 27  1  0
 27 28  1  0
 28 29  1  0
 29 30  2  0
 30 31  1  0
 31 32  2  0
 32 33  1  0
 33 34  2  0
 28 35  1  0
 35 36  1  0
 22 37  1  0
 37 38  2  0
 14  4  1  0
 38 19  1  0
 13  8  1  0
 36 25  1  0
 34 29  1  0
  3 39  1  0
  3 40  1  0
  9 41  1  0
 10 42  1  0
 11 43  1  0
 12 44  1  0
 17 45  1  0
 18 46  1  0
 18 47  1  0
 20 48  1  0
 21 49  1  0
 26 50  1  0
 26 51  1  0
 27 52  1  0
 27 53  1  0
 30 54  1  0
 31 55  1  0
 32 56  1  0
 33 57  1  0
 35 58  1  0
 35 59  1  0
 36 60  1  0
 36 61  1  0
 37 62  1  0
 38 63  1  0
M  CHG  1   7  -1
M  END
>  <UniqueID>  (78) 
75

>  <SMILES>  (78) 
O=C(CN1C(=O)[N-]c2ccccc2S1(=O)=O)NCc1ccc(C(=O)N2CCN(c3ccccn3)CC2)cc1

>  <Energy>  (78) 
77.92718747604327

>  <Genealogy>  (78) 
O=C(CN1C(=O)[N-]c2ccccc2S1(=O)=O)NCc1ccc(C(=O)N2CCN(c3ccccn3)CC2)cc1 (protonated)
O=C(CN1C(=O)[N-]c2ccccc2S1(=O)=O)NCc1ccc(C(=O)N2CCN(c3ccccn3)CC2)cc1 (3D coordinates assigned)
O=C(CN1C(=O)[N-]c2ccccc2S1(=O)=O)NCc1ccc(C(=O)N2CCN(c3ccccn3)CC2)cc1 (nonaromatic ring conformer: 77.92718747604327 kcal/mol)

>  <smiles>  (78) 
O=C(CN1C(=O)Nc2ccccc2S1(=O)=O)NCc1ccc(C(=O)N2CCN(c3ccccn3)CC2)cc1

>  <score_type>  (78) 
oracle

>  <origin>  (78) 
adg

>  <m_score__min__energy>  (78) 
-11.93

>  <m_primary>  (78) 
energy

$$$$
78:0
     RDKit          3D

 54 57  0  0  0  0  0  0  0  0999 V2000
   60.6490   29.4990   47.8860 C   0  0  0  0  0  0  0  0  0  0  0  0
   61.0020   30.7260   47.1010 C   0  0  0  0  0  0  0  0  0  0  0  0
   60.3680   30.9580   46.0360 O   0  0  0  0  0  0  0  0  0  0  0  0
   62.0720   31.6640   47.5410 C   0  0  0  0  0  0  0  0  0  0  0  0
   62.4000   32.7780   46.7470 C   0  0  0  0  0  0  0  0  0  0  0  0
   63.4150   33.6550   47.1370 C   0  0  0  0  0  0  0  0  0  0  0  0
   64.1080   33.4390   48.3290 C   0  0  0  0  0  0  0  0  0  0  0  0
   63.7840   32.3550   49.1500 C   0  0  0  0  0  0  0  0  0  0  0  0
   64.5340   32.1650   50.3590 N   0  0  0  0  0  0  0  0  0  0  0  0
   64.0860   32.4240   51.6970 C   0  0  0  0  0  0  0  0  0  0  0  0
   64.7400   31.9980   52.6850 O   0  0  0  0  0  0  0  0  0  0  0  0
   62.8890   33.1740   51.9300 N   0  0  0  0  0  0  0  0  0  0  0  0
   61.7180   33.1860   51.1010 C   0  0  0  0  0  0  0  0  0  0  0  0
   61.4760   34.2110   50.1700 C   0  0  0  0  0  0  0  0  0  0  0  0
   60.3340   34.1750   49.3640 C   0  0  0  0  0  0  0  0  0  0  0  0
   59.4370   33.1060   49.4510 C   0  0  0  0  0  0  0  0  0  0  0  0
   58.2950   33.1150   48.6370 O   0  0  0  0  0  0  0  0  0  0  0  0
   58.2890   33.2870   47.2450 C   0  0  0  0  0  0  0  0  0  0  0  0
   58.8810   34.4320   46.7060 C   0  0  0  0  0  0  0  0  0  0  0  0
   58.8950   34.6140   45.3230 C   0  0  0  0  0  0  0  0  0  0  0  0
   58.3510   33.6740   44.5060 N   0  0  0  0  0  0  0  0  0  0  0  0
   57.7890   32.5320   44.9930 C   0  0  0  0  0  0  0  0  0  0  0  0
   57.2640   31.6400   44.2020 N   0  0  0  0  0  0  0  0  0  0  0  0
   56.8650   30.2940   44.5200 C   0  0  0  0  0  0  0  0  0  0  0  0
   55.6530   30.0860   44.7970 O   0  0  0  0  0  0  0  0  0  0  0  0
   57.8410   29.1430   44.5340 C   0  0  0  0  0  0  0  0  0  0  0  0
   57.2980   27.9520   45.2830 C   0  0  0  0  0  0  0  0  0  0  0  0
   55.9530   27.7760   45.3720 N   0  0  0  0  0  0  0  0  0  0  0  0
   55.4330   26.7230   46.0030 N   0  0  0  0  0  0  0  0  0  0  0  0
   56.2360   25.7860   46.5710 C   0  0  0  0  0  0  0  0  0  0  0  0
   55.7310   24.7990   47.1640 O   0  0  0  0  0  0  0  0  0  0  0  0
   57.5820   25.9200   46.4920 N   0  0  0  0  0  0  0  0  0  0  0  0
   58.1360   26.9830   45.8570 C   0  0  0  0  0  0  0  0  0  0  0  0
   59.3900   27.0860   45.7880 O   0  0  0  0  0  0  0  0  0  0  0  0
   57.7480   32.3230   46.3780 C   0  0  0  0  0  0  0  0  0  0  0  0
   59.6820   32.0770   50.3770 C   0  0  0  0  0  0  0  0  0  0  0  0
   60.8230   32.1130   51.1840 C   0  0  0  0  0  0  0  0  0  0  0  0
   62.7810   31.4560   48.7430 C   0  0  0  0  0  0  0  0  0  0  0  0
   60.7128   29.7208   48.9615 H   0  0  0  0  0  0  0  0  0  0  0  0
   59.6244   29.1861   47.6363 H   0  0  0  0  0  0  0  0  0  0  0  0
   61.3507   28.6895   47.6363 H   0  0  0  0  0  0  0  0  0  0  0  0
   61.8523   32.9601   45.8106 H   0  0  0  0  0  0  0  0  0  0  0  0
   63.6686   34.5176   46.5033 H   0  0  0  0  0  0  0  0  0  0  0  0
   64.9145   34.1263   48.6244 H   0  0  0  0  0  0  0  0  0  0  0  0
   62.1876   35.0444   50.0752 H   0  0  0  0  0  0  0  0  0  0  0  0
   60.1398   34.9941   48.6559 H   0  0  0  0  0  0  0  0  0  0  0  0
   59.3332   35.1852   47.3680 H   0  0  0  0  0  0  0  0  0  0  0  0
   59.3471   35.5199   44.8930 H   0  0  0  0  0  0  0  0  0  0  0  0
   58.0527   28.8441   43.4968 H   0  0  0  0  0  0  0  0  0  0  0  0
   58.7552   29.4785   45.0455 H   0  0  0  0  0  0  0  0  0  0  0  0
   57.2939   31.4075   46.7849 H   0  0  0  0  0  0  0  0  0  0  0  0
   58.9734   31.2405   50.4669 H   0  0  0  0  0  0  0  0  0  0  0  0
   61.0189   31.2920   51.8894 H   0  0  0  0  0  0  0  0  0  0  0  0
   62.5472   30.5819   49.3685 H   0  0  0  0  0  0  0  0  0  0  0  0
  1  2  1  0
  2  3  2  0
  2  4  1  0
  4  5  2  0
  5  6  1  0
  6  7  2  0
  7  8  1  0
  8  9  1  0
  9 10  1  0
 10 11  2  0
 10 12  1  0
 12 13  1  0
 13 14  2  0
 14 15  1  0
 15 16  2  0
 16 17  1  0
 17 18  1  0
 18 19  1  0
 19 20  2  0
 20 21  1  0
 21 22  1  0
 22 23  2  3
 23 24  1  0
 24 25  2  0
 24 26  1  0
 26 27  1  0
 27 28  2  0
 28 29  1  0
 29 30  1  0
 30 31  2  0
 30 32  1  0
 32 33  1  0
 33 34  2  0
 22 35  1  0
 16 36  1  0
 36 37  2  0
  8 38  2  0
 38  4  1  0
 37 13  1  0
 35 18  2  0
 33 27  1  0
  1 39  1  0
  1 40  1  0
  1 41  1  0
  5 42  1  0
  6 43  1  0
  7 44  1  0
 14 45  1  0
 15 46  1  0
 19 47  1  0
 20 48  1  0
 26 49  1  0
 26 50  1  0
 35 51  1  0
 36 52  1  0
 37 53  1  0
 38 54  1  0
M  CHG  5   9  -1  12  -1  21  -1  29  -1  32  -1
M  END
>  <UniqueID>  (79) 
76

>  <SMILES>  (79) 
CC(=O)c1cccc([N-]C(=O)[N-]c2ccc(Oc3cc[n-]c(=NC(=O)Cc4n[n-]c(=O)[n-]c4=O)c3)cc2)c1

>  <Energy>  (79) 
80.91222500353369

>  <Genealogy>  (79) 
CC(=O)c1cccc([N-]C(=O)[N-]c2ccc(Oc3cc[n-]c(=NC(=O)Cc4n[n-]c(=O)[n-]c4=O)c3)cc2)c1 (protonated)
CC(=O)c1cccc([N-]C(=O)[N-]c2ccc(Oc3cc[n-]c(=NC(=O)Cc4n[n-]c(=O)[n-]c4=O)c3)cc2)c1 (3D coordinates assigned)
CC(=O)c1cccc([N-]C(=O)[N-]c2ccc(Oc3cc[n-]c(=NC(=O)Cc4n[n-]c(=O)[n-]c4=O)c3)cc2)c1 (optimized conformer: 80.91222500353369 kcal/mol)

>  <smiles>  (79) 
CC(=O)c1cccc(NC(=O)Nc2ccc(Oc3cc[nH]c(=NC(=O)Cc4n[nH]c(=O)[nH]c4=O)c3)cc2)c1

>  <score_type>  (79) 
oracle

>  <origin>  (79) 
adg

>  <m_score__min__energy>  (79) 
-18.43

>  <m_primary>  (79) 
energy

$$$$
79:0
     RDKit          3D

 43 45  0  0  0  0  0  0  0  0999 V2000
   57.4960   34.5350   44.8710 C   0  0  0  0  0  0  0  0  0  0  0  0
   58.7290   34.2990   46.1370 S   0  0  0  0  0  0  0  0  0  0  0  0
   59.6170   35.5100   46.2470 O   0  0  0  0  0  0  0  0  0  0  0  0
   58.0140   34.1010   47.4470 O   0  0  0  0  0  0  0  0  0  0  0  0
   59.6790   32.8850   45.8180 N   0  0  0  0  0  0  0  0  0  0  0  0
   60.1000   31.8930   46.7670 C   0  0  0  0  0  0  0  0  0  0  0  0
   60.0440   30.5510   46.3660 C   0  0  0  0  0  0  0  0  0  0  0  0
   60.4790   29.5200   47.2250 C   0  0  0  0  0  0  0  0  0  0  0  0
   60.4270   28.1310   46.8490 N   0  0  0  0  0  0  0  0  0  0  0  0
   59.3880   27.4700   46.4270 C   0  0  0  0  0  0  0  0  0  0  0  0
   59.2470   26.9760   45.1790 N   0  0  0  0  0  0  0  0  0  0  0  0
   58.0570   26.3390   45.0070 C   0  0  0  0  0  0  0  0  0  0  0  0
   57.7220   25.7240   43.6720 C   0  0  0  0  0  0  0  0  0  0  0  0
   57.5040   24.2340   43.7840 C   0  0  0  0  0  0  0  0  0  0  0  0
   58.2040   23.4810   44.7430 C   0  0  0  0  0  0  0  0  0  0  0  0
   57.9700   22.1070   44.8760 C   0  0  0  0  0  0  0  0  0  0  0  0
   57.0270   21.4730   44.0600 C   0  0  0  0  0  0  0  0  0  0  0  0
   56.3110   22.2150   43.1160 C   0  0  0  0  0  0  0  0  0  0  0  0
   56.5460   23.5890   42.9770 C   0  0  0  0  0  0  0  0  0  0  0  0
   57.2440   26.3060   46.1560 C   0  0  0  0  0  0  0  0  0  0  0  0
   55.9120   25.6950   46.3370 C   0  0  0  0  0  0  0  0  0  0  0  0
   54.7420   26.2780   45.7710 N   0  0  0  0  0  0  0  0  0  0  0  0
   55.8020   24.6440   47.0260 O   0  0  0  0  0  0  0  0  0  0  0  0
   58.0690   27.1090   47.3910 S   0  0  0  0  0  0  0  0  0  0  0  0
   60.8990   29.8450   48.5200 C   0  0  0  0  0  0  0  0  0  0  0  0
   60.9200   31.1730   48.9470 C   0  0  0  0  0  0  0  0  0  0  0  0
   60.5170   32.2030   48.0840 C   0  0  0  0  0  0  0  0  0  0  0  0
   60.5050   33.5140   48.5520 O   0  0  0  0  0  0  0  0  0  0  0  0
   56.5191   34.7220   45.3409 H   0  0  0  0  0  0  0  0  0  0  0  0
   57.7729   35.3964   44.2455 H   0  0  0  0  0  0  0  0  0  0  0  0
   57.4352   33.6322   44.2455 H   0  0  0  0  0  0  0  0  0  0  0  0
   59.6557   30.2985   45.3683 H   0  0  0  0  0  0  0  0  0  0  0  0
   56.8044   26.1907   43.2844 H   0  0  0  0  0  0  0  0  0  0  0  0
   58.5690   25.8971   42.9918 H   0  0  0  0  0  0  0  0  0  0  0  0
   58.9408   23.9749   45.3935 H   0  0  0  0  0  0  0  0  0  0  0  0
   58.5288   21.5249   45.6236 H   0  0  0  0  0  0  0  0  0  0  0  0
   56.8492   20.3922   44.1610 H   0  0  0  0  0  0  0  0  0  0  0  0
   55.5618   21.7191   42.4813 H   0  0  0  0  0  0  0  0  0  0  0  0
   55.9790   24.1680   42.2331 H   0  0  0  0  0  0  0  0  0  0  0  0
   54.0080   26.7120   46.3750 H   0  0  0  0  0  0  0  0  0  0  0  0
   61.2153   29.0463   49.2071 H   0  0  0  0  0  0  0  0  0  0  0  0
   61.2547   31.4140   49.9668 H   0  0  0  0  0  0  0  0  0  0  0  0
   60.0950   34.2710   48.0130 H   0  0  0  0  0  0  0  0  0  0  0  0
  1  2  1  0
  2  3  2  0
  2  4  2  0
  2  5  1  0
  5  6  1  0
  6  7  2  0
  7  8  1  0
  8  9  1  0
  9 10  2  3
 10 11  1  0
 11 12  1  0
 12 13  1  0
 13 14  1  0
 14 15  2  0
 15 16  1  0
 16 17  2  0
 17 18  1  0
 18 19  2  0
 12 20  2  0
 20 21  1  0
 21 22  1  0
 21 23  2  0
 20 24  1  0
  8 25  2  0
 25 26  1  0
 26 27  2  0
 27 28  1  0
 27  6  1  0
 24 10  1  0
 19 14  1  0
  1 29  1  0
  1 30  1  0
  1 31  1  0
  7 32  1  0
 13 33  1  0
 13 34  1  0
 15 35  1  0
 16 36  1  0
 17 37  1  0
 18 38  1  0
 19 39  1  0
 22 40  1  0
 25 41  1  0
 26 42  1  0
 28 43  1  0
M  CHG  3   5  -1  11  -1  22  -1
M  END
>  <UniqueID>  (80) 
77

>  <SMILES>  (80) 
CS(=O)(=O)[N-]c1cc(N=c2[n-]c(Cc3ccccc3)c(C([NH-])=O)s2)ccc1O

>  <Energy>  (80) 
83.90749101923758

>  <Genealogy>  (80) 
CS(=O)(=O)[N-]c1cc(N=c2[n-]c(Cc3ccccc3)c(C([NH-])=O)s2)ccc1O (protonated)
CS(=O)(=O)[N-]c1cc(N=c2[n-]c(Cc3ccccc3)c(C([NH-])=O)s2)ccc1O (3D coordinates assigned)
CS(=O)(=O)[N-]c1cc(N=c2[n-]c(Cc3ccccc3)c(C([NH-])=O)s2)ccc1O (optimized conformer: 83.90749101923758 kcal/mol)

>  <smiles>  (80) 
CS(=O)(=O)Nc1cc(N=c2[nH]c(Cc3ccccc3)c(C(N)=O)s2)ccc1O

>  <score_type>  (80) 
oracle

>  <origin>  (80) 
adg

>  <m_score__min__energy>  (80) 
-12.49

>  <m_primary>  (80) 
energy

$$$$
80:0
     RDKit          3D

 25 26  0  0  0  0  0  0  0  0999 V2000
   61.5756   34.8593   49.3812 H   0  0  0  0  0  0  0  0  0  0  0  0
   60.7370   34.2130   49.0830 C   0  0  0  0  0  0  0  0  0  0  0  0
   59.7084   34.4809   49.3662 H   0  0  0  0  0  0  0  0  0  0  0  0
   60.9670   33.1060   48.3790 C   0  0  0  0  0  0  0  0  0  0  0  0
   59.7760   32.0370   47.8630 S   0  0  0  0  0  0  0  0  0  0  0  0
   60.8640   30.9920   47.1020 C   0  0  0  0  0  0  0  0  0  0  0  0
   60.4850   29.8810   46.4480 C   0  0  0  0  0  0  0  0  0  0  0  0
   61.2540   29.1205   46.2474 H   0  0  0  0  0  0  0  0  0  0  0  0
   59.1130   29.6060   45.9790 C   0  0  0  0  0  0  0  0  0  0  0  0
   58.4030   30.6080   45.3110 C   0  0  0  0  0  0  0  0  0  0  0  0
   58.8822   31.5771   45.1081 H   0  0  0  0  0  0  0  0  0  0  0  0
   57.0890   30.3830   44.9010 C   0  0  0  0  0  0  0  0  0  0  0  0
   56.5436   31.1706   44.3604 H   0  0  0  0  0  0  0  0  0  0  0  0
   56.4590   29.1630   45.1720 C   0  0  0  0  0  0  0  0  0  0  0  0
   55.1500   28.9800   44.7400 O   0  0  0  0  0  0  0  0  0  0  0  0
   57.1490   28.1500   45.8740 C   0  0  0  0  0  0  0  0  0  0  0  0
   56.5080   26.8480   46.1940 C   0  0  0  0  0  0  0  0  0  0  0  0
   57.1950   25.8940   46.6480 O   0  0  0  0  0  0  0  0  0  0  0  0
   55.1470   26.6520   45.9980 O   0  0  0  0  0  0  0  0  0  0  0  0
   58.4760   28.3920   46.2830 C   0  0  0  0  0  0  0  0  0  0  0  0
   59.0195   27.6201   46.8475 H   0  0  0  0  0  0  0  0  0  0  0  0
   62.1480   31.5350   47.2610 C   0  0  0  0  0  0  0  0  0  0  0  0
   63.1910   31.0320   46.7620 O   0  0  0  0  0  0  0  0  0  0  0  0
   62.1900   32.6920   47.9740 N   0  0  0  0  0  0  0  0  0  0  0  0
   63.3580   33.3760   48.2300 O   0  0  0  0  0  0  0  0  0  0  0  0
  1  2  1  0
  2  3  1  0
  2  4  2  0
  4  5  1  0
  5  6  1  0
  6  7  2  0
  7  8  1  0
  7  9  1  0
  9 10  2  0
 10 11  1  0
 10 12  1  0
 12 13  1  0
 12 14  2  0
 14 15  1  0
 14 16  1  0
 16 17  1  0
 17 18  2  0
 17 19  1  0
 16 20  2  0
 20 21  1  0
  6 22  1  0
 22 23  2  0
 22 24  1  0
 24 25  1  0
 24  4  1  0
 20  9  1  0
M  CHG  3  15  -1  19  -1  25  -1
M  END
>  <UniqueID>  (81) 
78

>  <SMILES>  (81) 
C=c1s/c(=C/c2ccc([O-])c(C(=O)[O-])c2)c(=O)n1[O-]

>  <Energy>  (81) 
67.70741254795742

>  <Genealogy>  (81) 
C=c1sc(=Cc2ccc([O-])c(C(=O)[O-])c2)c(=O)n1[O-] (protonated)
C=c1s/c(=C/c2ccc([O-])c(C(=O)[O-])c2)c(=O)n1[O-] (cis-trans isomerization)
C=c1s/c(=C/c2ccc([O-])c(C(=O)[O-])c2)c(=O)n1[O-] (3D coordinates assigned)
C=c1s/c(=C/c2ccc([O-])c(C(=O)[O-])c2)c(=O)n1[O-] (optimized conformer: 67.70741254795742 kcal/mol)

>  <smiles>  (81) 
C=c1sc(=Cc2ccc(O)c(C(=O)O)c2)c(=O)n1O

>  <score_type>  (81) 
oracle

>  <origin>  (81) 
adg

>  <m_score__min__energy>  (81) 
-14.859999999999999

>  <m_primary>  (81) 
energy

$$$$
81:0
     RDKit          3D

 75 79  0  0  0  0  0  0  0  0999 V2000
   57.8560   28.4140   43.3970 O   0  0  0  0  0  0  0  0  0  0  0  0
   57.2920   29.2470   44.1590 C   0  0  0  0  0  0  0  0  0  0  0  0
   56.9950   30.6280   43.6490 C   0  0  0  0  0  0  0  0  0  0  0  0
   56.6770   31.5440   44.7470 N   0  0  0  0  0  0  0  0  0  0  0  0
   57.5850   32.5610   45.2090 C   0  0  0  0  0  0  0  0  0  0  0  0
   57.9370   33.6620   44.4030 C   0  0  0  0  0  0  0  0  0  0  0  0
   58.8140   34.6380   44.8850 C   0  0  0  0  0  0  0  0  0  0  0  0
   59.3540   34.5260   46.1680 C   0  0  0  0  0  0  0  0  0  0  0  0
   59.0180   33.4350   46.9800 C   0  0  0  0  0  0  0  0  0  0  0  0
   59.7200   33.2660   48.5890 S   0  0  0  0  0  0  0  0  0  0  0  0
   59.6870   34.5890   49.3050 O   0  0  0  0  0  0  0  0  0  0  0  0
   58.9010   32.2780   49.3720 O   0  0  0  0  0  0  0  0  0  0  0  0
   61.3670   32.6990   48.4560 N   0  0  0  0  0  0  0  0  0  0  0  0
   61.8200   32.6870   47.0440 C   0  0  0  0  0  0  0  0  0  0  0  0
   62.8330   33.8060   46.7460 C   0  0  0  0  0  0  0  0  0  0  0  0
   63.9890   33.7340   47.5690 O   0  0  0  0  0  0  0  0  0  0  0  0
   63.7150   33.3510   48.9110 C   0  0  0  0  0  0  0  0  0  0  0  0
   62.2430   33.4980   49.3330 C   0  0  0  0  0  0  0  0  0  0  0  0
   58.1360   32.4580   46.4980 C   0  0  0  0  0  0  0  0  0  0  0  0
   56.9170   28.8740   45.4940 N   0  0  0  0  0  0  0  0  0  0  0  0
   57.1030   27.5500   46.0170 C   0  0  0  0  0  0  0  0  0  0  0  0
   56.1020   26.5930   45.7930 C   0  0  0  0  0  0  0  0  0  0  0  0
   56.2170   25.3020   46.3160 C   0  0  0  0  0  0  0  0  0  0  0  0
   54.9280   24.1320   46.0450 S   0  0  0  0  0  0  0  0  0  0  0  0
   53.6550   24.8470   45.6800 O   0  0  0  0  0  0  0  0  0  0  0  0
   54.6980   23.3640   47.3160 O   0  0  0  0  0  0  0  0  0  0  0  0
   55.3890   23.0360   44.7680 N   0  0  0  0  0  0  0  0  0  0  0  0
   56.1640   21.9120   45.3220 C   0  0  0  0  0  0  0  0  0  0  0  0
   56.8400   21.1020   44.1980 C   0  0  0  0  0  0  0  0  0  0  0  0
   56.2970   21.4350   42.9360 O   0  0  0  0  0  0  0  0  0  0  0  0
   56.5970   22.7860   42.6280 C   0  0  0  0  0  0  0  0  0  0  0  0
   56.1800   23.7530   43.7560 C   0  0  0  0  0  0  0  0  0  0  0  0
   57.3420   24.9600   47.0740 C   0  0  0  0  0  0  0  0  0  0  0  0
   58.3590   25.8940   47.2810 C   0  0  0  0  0  0  0  0  0  0  0  0
   58.2630   27.1880   46.7410 C   0  0  0  0  0  0  0  0  0  0  0  0
   59.3700   28.0950   46.8780 N   0  0  0  0  0  0  0  0  0  0  0  0
   59.9320   28.8440   45.7660 C   0  0  0  0  0  0  0  0  0  0  0  0
   61.0750   29.6490   46.3640 C   0  0  0  0  0  0  0  0  0  0  0  0
   60.7730   29.7350   47.8580 C   0  0  0  0  0  0  0  0  0  0  0  0
   59.8760   28.5420   48.1650 C   0  0  0  0  0  0  0  0  0  0  0  0
   57.8751   31.0076   43.1092 H   0  0  0  0  0  0  0  0  0  0  0  0
   56.1231   30.5712   42.9807 H   0  0  0  0  0  0  0  0  0  0  0  0
   55.7620   31.4430   45.2430 H   0  0  0  0  0  0  0  0  0  0  0  0
   57.5196   33.7539   43.3894 H   0  0  0  0  0  0  0  0  0  0  0  0
   59.0797   35.4972   44.2515 H   0  0  0  0  0  0  0  0  0  0  0  0
   60.0447   35.2962   46.5418 H   0  0  0  0  0  0  0  0  0  0  0  0
   62.2926   31.7165   46.8324 H   0  0  0  0  0  0  0  0  0  0  0  0
   60.9389   32.8524   46.4066 H   0  0  0  0  0  0  0  0  0  0  0  0
   63.1447   33.7272   45.6940 H   0  0  0  0  0  0  0  0  0  0  0  0
   62.3375   34.7659   46.9532 H   0  0  0  0  0  0  0  0  0  0  0  0
   64.0025   32.2961   49.0319 H   0  0  0  0  0  0  0  0  0  0  0  0
   64.2921   34.0328   49.5529 H   0  0  0  0  0  0  0  0  0  0  0  0
   62.1285   33.1512   50.3706 H   0  0  0  0  0  0  0  0  0  0  0  0
   61.9555   34.5565   49.2505 H   0  0  0  0  0  0  0  0  0  0  0  0
   57.8721   31.6013   47.1355 H   0  0  0  0  0  0  0  0  0  0  0  0
   56.6740   29.6330   46.1690 H   0  0  0  0  0  0  0  0  0  0  0  0
   55.2162   26.8618   45.1988 H   0  0  0  0  0  0  0  0  0  0  0  0
   56.9379   22.3064   45.9970 H   0  0  0  0  0  0  0  0  0  0  0  0
   55.4782   21.2485   45.8692 H   0  0  0  0  0  0  0  0  0  0  0  0
   57.9179   21.3214   44.1949 H   0  0  0  0  0  0  0  0  0  0  0  0
   56.6648   20.0320   44.3834 H   0  0  0  0  0  0  0  0  0  0  0  0
   57.6810   22.8790   42.4657 H   0  0  0  0  0  0  0  0  0  0  0  0
   56.0296   23.0583   41.7259 H   0  0  0  0  0  0  0  0  0  0  0  0
   57.0810   24.1721   44.2279 H   0  0  0  0  0  0  0  0  0  0  0  0
   55.5704   24.5632   43.3294 H   0  0  0  0  0  0  0  0  0  0  0  0
   57.4256   23.9527   47.5080 H   0  0  0  0  0  0  0  0  0  0  0  0
   59.2435   25.6145   47.8722 H   0  0  0  0  0  0  0  0  0  0  0  0
   60.3066   28.1599   44.9903 H   0  0  0  0  0  0  0  0  0  0  0  0
   59.1825   29.4895   45.2848 H   0  0  0  0  0  0  0  0  0  0  0  0
   62.0348   29.1391   46.1942 H   0  0  0  0  0  0  0  0  0  0  0  0
   61.1569   30.6455   45.9055 H   0  0  0  0  0  0  0  0  0  0  0  0
   61.7035   29.6759   48.4417 H   0  0  0  0  0  0  0  0  0  0  0  0
   60.2880   30.6867   48.1207 H   0  0  0  0  0  0  0  0  0  0  0  0
   60.4538   27.7414   48.6500 H   0  0  0  0  0  0  0  0  0  0  0  0
   59.0608   28.8108   48.8529 H   0  0  0  0  0  0  0  0  0  0  0  0
  1  2  2  0
  2  3  1  0
  3  4  1  0
  4  5  1  0
  5  6  2  0
  6  7  1  0
  7  8  2  0
  8  9  1  0
  9 10  1  0
 10 11  2  0
 10 12  2  0
 10 13  1  0
 13 14  1  0
 14 15  1  0
 15 16  1  0
 16 17  1  0
 17 18  1  0
  9 19  2  0
  2 20  1  0
 20 21  1  0
 21 22  2  0
 22 23  1  0
 23 24  1  0
 24 25  2  0
 24 26  2  0
 24 27  1  0
 27 28  1  0
 28 29  1  0
 29 30  1  0
 30 31  1  0
 31 32  1  0
 23 33  2  0
 33 34  1  0
 34 35  2  0
 35 36  1  0
 36 37  1  0
 37 38  1  0
 38 39  1  0
 39 40  1  0
 19  5  1  0
 35 21  1  0
 40 36  1  0
 18 13  1  0
 32 27  1  0
  3 41  1  0
  3 42  1  0
  4 43  1  0
  6 44  1  0
  7 45  1  0
  8 46  1  0
 14 47  1  0
 14 48  1  0
 15 49  1  0
 15 50  1  0
 17 51  1  0
 17 52  1  0
 18 53  1  0
 18 54  1  0
 19 55  1  0
 20 56  1  0
 22 57  1  0
 28 58  1  0
 28 59  1  0
 29 60  1  0
 29 61  1  0
 31 62  1  0
 31 63  1  0
 32 64  1  0
 32 65  1  0
 33 66  1  0
 34 67  1  0
 37 68  1  0
 37 69  1  0
 38 70  1  0
 38 71  1  0
 39 72  1  0
 39 73  1  0
 40 74  1  0
 40 75  1  0
M  END
>  <UniqueID>  (82) 
79

>  <SMILES>  (82) 
O=C(CNc1cccc(S(=O)(=O)N2CCOCC2)c1)Nc1cc(S(=O)(=O)N2CCOCC2)ccc1N1CCCC1

>  <Energy>  (82) 
105.5124595940525

>  <Genealogy>  (82) 
O=C(CNc1cccc(S(=O)(=O)N2CCOCC2)c1)Nc1cc(S(=O)(=O)N2CCOCC2)ccc1N1CCCC1 (3D coordinates assigned)
O=C(CNc1cccc(S(=O)(=O)N2CCOCC2)c1)Nc1cc(S(=O)(=O)N2CCOCC2)ccc1N1CCCC1 (nonaromatic ring conformer: 105.5124595940525 kcal/mol)

>  <smiles>  (82) 
O=C(CNc1cccc(S(=O)(=O)N2CCOCC2)c1)Nc1cc(S(=O)(=O)N2CCOCC2)ccc1N1CCCC1

>  <score_type>  (82) 
oracle

>  <origin>  (82) 
adg

>  <m_score__min__energy>  (82) 
-11.19

>  <m_primary>  (82) 
energy

$$$$
82:0
     RDKit          3D

 31 33  0  0  0  0  0  0  0  0999 V2000
   55.2160   24.0160   45.8870 O   0  0  0  0  0  0  0  0  0  0  0  0
   56.2350   24.7560   45.9340 C   0  0  0  0  0  0  0  0  0  0  0  0
   57.5090   24.1850   45.9280 C   0  0  0  0  0  0  0  0  0  0  0  0
   58.6290   25.0140   45.9790 C   0  0  0  0  0  0  0  0  0  0  0  0
   58.4750   26.3630   46.0330 N   0  0  0  0  0  0  0  0  0  0  0  0
   57.2490   26.9580   46.0460 C   0  0  0  0  0  0  0  0  0  0  0  0
   57.1870   28.4750   46.0750 C   0  0  1  0  0  0  0  0  0  0  0  0
   58.4670   29.0310   46.6770 C   0  0  0  0  0  0  0  0  0  0  0  0
   58.8620   28.7340   47.9970 C   0  0  0  0  0  0  0  0  0  0  0  0
   60.0240   29.2980   48.5340 C   0  0  0  0  0  0  0  0  0  0  0  0
   60.7970   30.1730   47.7680 C   0  0  0  0  0  0  0  0  0  0  0  0
   61.9220   30.7200   48.2920 F   0  0  0  0  0  0  0  0  0  0  0  0
   60.4080   30.4890   46.4650 C   0  0  0  0  0  0  0  0  0  0  0  0
   59.2480   29.9270   45.9230 C   0  0  0  0  0  0  0  0  0  0  0  0
   56.8680   29.0610   44.7600 N   0  0  0  0  0  0  0  0  0  0  0  0
   57.3420   28.6860   43.5550 C   0  0  0  0  0  0  0  0  0  0  0  0
   56.6220   29.3410   42.5830 C   0  0  0  0  0  0  0  0  0  0  0  0
   55.6670   30.0950   43.1610 N   0  0  0  0  0  0  0  0  0  0  0  0
   55.8340   29.8870   44.4830 C   0  0  0  0  0  0  0  0  0  0  0  0
   56.0930   26.1480   45.9910 C   0  0  0  0  0  0  0  0  0  0  0  0
   54.8210   26.7100   46.0040 O   0  0  0  0  0  0  0  0  0  0  0  0
   57.6280   23.0924   45.8835 H   0  0  0  0  0  0  0  0  0  0  0  0
   59.6379   24.5757   45.9755 H   0  0  0  0  0  0  0  0  0  0  0  0
   56.3486   28.7715   46.7224 H   0  0  0  0  0  0  0  0  0  0  0  0
   58.2520   28.0537   48.6094 H   0  0  0  0  0  0  0  0  0  0  0  0
   60.3294   29.0518   49.5617 H   0  0  0  0  0  0  0  0  0  0  0  0
   61.0152   31.1815   45.8635 H   0  0  0  0  0  0  0  0  0  0  0  0
   58.9432   30.1873   44.8986 H   0  0  0  0  0  0  0  0  0  0  0  0
   58.1644   27.9770   43.3790 H   0  0  0  0  0  0  0  0  0  0  0  0
   56.7989   29.2613   41.5002 H   0  0  0  0  0  0  0  0  0  0  0  0
   55.1959   30.3417   45.2550 H   0  0  0  0  0  0  0  0  0  0  0  0
  1  2  2  0
  2  3  1  0
  3  4  2  0
  4  5  1  0
  5  6  1  0
  6  7  1  0
  7  8  1  0
  8  9  2  0
  9 10  1  0
 10 11  2  0
 11 12  1  0
 11 13  1  0
 13 14  2  0
  7 15  1  0
 15 16  1  0
 16 17  2  0
 17 18  1  0
 18 19  2  0
  6 20  2  0
 20 21  1  0
 20  2  1  0
 14  8  1  0
 19 15  1  0
  3 22  1  0
  4 23  1  0
  7 24  1  1
  9 25  1  0
 10 26  1  0
 13 27  1  0
 14 28  1  0
 16 29  1  0
 17 30  1  0
 19 31  1  0
M  CHG  2   5  -1  21  -1
M  END
>  <UniqueID>  (83) 
80

>  <SMILES>  (83) 
O=c1cc[n-]c([C@@H](c2ccc(F)cc2)n2ccnc2)c1[O-]

>  <Energy>  (83) 
69.14744772811778

>  <Genealogy>  (83) 
O=c1cc[n-]c(C(c2ccc(F)cc2)n2ccnc2)c1[O-] (protonated)
O=c1cc[n-]c([C@@H](c2ccc(F)cc2)n2ccnc2)c1[O-] (chirality)
O=c1cc[n-]c([C@@H](c2ccc(F)cc2)n2ccnc2)c1[O-] (3D coordinates assigned)
O=c1cc[n-]c([C@@H](c2ccc(F)cc2)n2ccnc2)c1[O-] (optimized conformer: 69.14744772811778 kcal/mol)

>  <smiles>  (83) 
O=c1cc[nH]c(C(c2ccc(F)cc2)n2ccnc2)c1O

>  <score_type>  (83) 
oracle

>  <origin>  (83) 
adg

>  <m_score__min__energy>  (83) 
-11.69

>  <m_primary>  (83) 
energy

$$$$
83:0
     RDKit          3D

 46 48  0  0  0  0  0  0  0  0999 V2000
   57.4650   31.9600   41.9010 C   0  0  0  0  0  0  0  0  0  0  0  0
   57.7760   31.6360   43.3010 N   0  0  1  0  0  0  0  0  0  0  0  0
   57.4080   32.7760   44.1710 C   0  0  0  0  0  0  0  0  0  0  0  0
   58.1570   32.7710   45.4720 C   0  0  0  0  0  0  0  0  0  0  0  0
   59.4050   32.2780   45.6200 N   0  0  0  0  0  0  0  0  0  0  0  0
   59.8730   32.4250   46.8900 C   0  0  0  0  0  0  0  0  0  0  0  0
   61.1910   31.9050   47.3300 C   0  0  0  0  0  0  0  0  0  0  0  0
   61.4370   30.6810   47.1450 O   0  0  0  0  0  0  0  0  0  0  0  0
   62.2020   32.7440   47.9370 N   0  0  0  0  0  0  0  0  0  0  0  0
   63.6180   32.3500   47.8850 C   0  0  0  0  0  0  0  0  0  0  0  0
   64.2380   32.3390   49.2970 C   0  0  0  0  0  0  0  0  0  0  0  0
   63.5440   33.2300   50.2480 N   0  0  0  0  0  0  0  0  0  0  0  0
   62.9890   34.4130   49.5860 C   0  0  0  0  0  0  0  0  0  0  0  0
   61.8540   33.9820   48.6500 C   0  0  0  0  0  0  0  0  0  0  0  0
   58.9870   33.0610   47.7610 C   0  0  0  0  0  0  0  0  0  0  0  0
   57.5910   33.4410   46.9040 S   0  0  0  0  0  0  0  0  0  0  0  0
   56.9270   30.1710   43.7610 S   0  0  0  0  0  0  0  0  0  0  0  0
   56.5670   29.3700   42.5400 O   0  0  0  0  0  0  0  0  0  0  0  0
   55.6600   30.5170   44.4930 O   0  0  0  0  0  0  0  0  0  0  0  0
   57.9620   29.1700   44.7780 C   0  0  0  0  0  0  0  0  0  0  0  0
   59.3400   29.1220   44.5250 C   0  0  0  0  0  0  0  0  0  0  0  0
   60.1810   28.3730   45.3520 C   0  0  0  0  0  0  0  0  0  0  0  0
   59.6520   27.6710   46.4400 C   0  0  0  0  0  0  0  0  0  0  0  0
   60.7120   26.7540   47.4930 Cl  0  0  0  0  0  0  0  0  0  0  0  0
   58.2760   27.7080   46.6900 C   0  0  0  0  0  0  0  0  0  0  0  0
   57.4320   28.4530   45.8610 C   0  0  0  0  0  0  0  0  0  0  0  0
   56.7036   32.7532   41.8687 H   0  0  0  0  0  0  0  0  0  0  0  0
   58.3773   32.3065   41.3935 H   0  0  0  0  0  0  0  0  0  0  0  0
   57.0814   31.0626   41.3935 H   0  0  0  0  0  0  0  0  0  0  0  0
   58.8060   31.4610   43.3680 H   0  0  0  0  0  0  0  0  0  0  0  0
   57.6314   33.7124   43.6389 H   0  0  0  0  0  0  0  0  0  0  0  0
   56.3361   32.6881   44.4019 H   0  0  0  0  0  0  0  0  0  0  0  0
   63.6959   31.3429   47.4495 H   0  0  0  0  0  0  0  0  0  0  0  0
   64.1633   33.0787   47.2672 H   0  0  0  0  0  0  0  0  0  0  0  0
   64.1971   31.3117   49.6880 H   0  0  0  0  0  0  0  0  0  0  0  0
   65.2705   32.7062   49.2016 H   0  0  0  0  0  0  0  0  0  0  0  0
   64.2370   33.5500   50.9640 H   0  0  0  0  0  0  0  0  0  0  0  0
   62.5973   35.1083   50.3431 H   0  0  0  0  0  0  0  0  0  0  0  0
   63.7768   34.9144   49.0046 H   0  0  0  0  0  0  0  0  0  0  0  0
   60.9433   33.8120   49.2431 H   0  0  0  0  0  0  0  0  0  0  0  0
   61.6879   34.7785   47.9098 H   0  0  0  0  0  0  0  0  0  0  0  0
   59.1702   33.2764   48.8240 H   0  0  0  0  0  0  0  0  0  0  0  0
   59.7605   29.6758   43.6727 H   0  0  0  0  0  0  0  0  0  0  0  0
   61.2611   28.3353   45.1471 H   0  0  0  0  0  0  0  0  0  0  0  0
   57.8574   27.1499   47.5404 H   0  0  0  0  0  0  0  0  0  0  0  0
   56.3501   28.4770   46.0584 H   0  0  0  0  0  0  0  0  0  0  0  0
  1  2  1  0
  2  3  1  0
  3  4  1  0
  4  5  2  0
  5  6  1  0
  6  7  1  0
  7  8  2  0
  7  9  1  0
  9 10  1  0
 10 11  1  0
 11 12  1  0
 12 13  1  0
 13 14  1  0
  6 15  2  0
 15 16  1  0
  2 17  1  0
 17 18  2  0
 17 19  2  0
 17 20  1  0
 20 21  2  0
 21 22  1  0
 22 23  2  0
 23 24  1  0
 23 25  1  0
 25 26  2  0
 16  4  1  0
 26 20  1  0
 14  9  1  0
  1 27  1  0
  1 28  1  0
  1 29  1  0
  2 30  1  6
  3 31  1  0
  3 32  1  0
 10 33  1  0
 10 34  1  0
 11 35  1  0
 11 36  1  0
 12 37  1  0
 13 38  1  0
 13 39  1  0
 14 40  1  0
 14 41  1  0
 15 42  1  0
 21 43  1  0
 22 44  1  0
 25 45  1  0
 26 46  1  0
M  CHG  1   2   1
M  END
>  <UniqueID>  (84) 
81

>  <SMILES>  (84) 
C[N@@H+](Cc1nc(C(=O)N2CCNCC2)cs1)S(=O)(=O)c1ccc(Cl)cc1

>  <Energy>  (84) 
75.68095695171648

>  <Genealogy>  (84) 
C[NH+](Cc1nc(C(=O)N2CCNCC2)cs1)S(=O)(=O)c1ccc(Cl)cc1 (protonated)
C[N@@H+](Cc1nc(C(=O)N2CCNCC2)cs1)S(=O)(=O)c1ccc(Cl)cc1 (chirality)
C[N@@H+](Cc1nc(C(=O)N2CCNCC2)cs1)S(=O)(=O)c1ccc(Cl)cc1 (3D coordinates assigned)
C[N@@H+](Cc1nc(C(=O)N2CCNCC2)cs1)S(=O)(=O)c1ccc(Cl)cc1 (nonaromatic ring conformer: 75.68095695171648 kcal/mol)

>  <smiles>  (84) 
CN(Cc1nc(C(=O)N2CCNCC2)cs1)S(=O)(=O)c1ccc(Cl)cc1

>  <score_type>  (84) 
oracle

>  <origin>  (84) 
adg

>  <m_score__min__energy>  (84) 
-7.0199999999999996

>  <m_primary>  (84) 
energy

$$$$
