0:0
     RDKit          3D

 41 42  0  0  0  0  0  0  0  0999 V2000
   52.8340   23.9670   45.1570 C   0  0  0  0  0  0  0  0  0  0  0  0
   54.0760   23.2410   45.6660 C   0  0  0  0  0  0  0  0  0  0  0  0
   55.3210   24.0320   45.3710 C   0  0  0  0  0  0  0  0  0  0  0  0
   55.5350   25.2280   45.9870 N   0  0  0  0  0  0  0  0  0  0  0  0
   56.7520   25.7370   45.7000 C   0  0  0  0  0  0  0  0  0  0  0  0
   57.3620   27.2800   46.3730 S   0  0  0  0  0  0  0  0  0  0  0  0
   57.3170   28.1950   44.7900 C   0  0  0  0  0  0  0  0  0  0  0  0
   56.4070   29.3890   44.8670 C   0  0  0  0  0  0  0  0  0  0  0  0
   55.1620   29.2020   44.8630 O   0  0  0  0  0  0  0  0  0  0  0  0
   56.8930   30.7370   44.9570 N   0  0  0  0  0  0  0  0  0  0  0  0
   57.8720   31.3830   44.0840 C   0  0  0  0  0  0  0  0  0  0  0  0
   57.7320   32.9100   44.1070 C   0  0  0  0  0  0  0  0  0  0  0  0
   58.3620   33.5070   45.3390 C   0  0  0  0  0  0  0  0  0  0  0  0
   59.2290   34.6070   45.2270 C   0  0  0  0  0  0  0  0  0  0  0  0
   59.8380   35.1430   46.3670 C   0  0  0  0  0  0  0  0  0  0  0  0
   59.5920   34.5800   47.6220 C   0  0  0  0  0  0  0  0  0  0  0  0
   58.7390   33.4800   47.7420 C   0  0  0  0  0  0  0  0  0  0  0  0
   58.1280   32.9410   46.6050 C   0  0  0  0  0  0  0  0  0  0  0  0
   57.6410   24.7120   44.7120 S   0  0  0  0  0  0  0  0  0  0  0  0
   56.4000   23.5790   44.5950 C   0  0  0  0  0  0  0  0  0  0  0  0
   56.5220   22.3120   43.8560 C   0  0  0  0  0  0  0  0  0  0  0  0
   57.2750   21.2190   44.3820 N   0  0  0  0  0  0  0  0  0  0  0  0
   55.9090   22.1720   42.7640 O   0  0  0  0  0  0  0  0  0  0  0  0
   52.2369   24.3160   46.0124 H   0  0  0  0  0  0  0  0  0  0  0  0
   53.1381   24.8295   44.5458 H   0  0  0  0  0  0  0  0  0  0  0  0
   52.2316   23.2788   44.5458 H   0  0  0  0  0  0  0  0  0  0  0  0
   53.9893   23.0987   46.7533 H   0  0  0  0  0  0  0  0  0  0  0  0
   54.1484   22.2696   45.1550 H   0  0  0  0  0  0  0  0  0  0  0  0
   58.3338   28.5362   44.5458 H   0  0  0  0  0  0  0  0  0  0  0  0
   56.9324   27.5187   44.0124 H   0  0  0  0  0  0  0  0  0  0  0  0
   58.8835   31.1126   44.4212 H   0  0  0  0  0  0  0  0  0  0  0  0
   57.6942   31.0378   43.0548 H   0  0  0  0  0  0  0  0  0  0  0  0
   58.2249   33.3270   43.2164 H   0  0  0  0  0  0  0  0  0  0  0  0
   56.6601   33.1569   44.1150 H   0  0  0  0  0  0  0  0  0  0  0  0
   59.4297   35.0483   44.2396 H   0  0  0  0  0  0  0  0  0  0  0  0
   60.5110   36.0083   46.2752 H   0  0  0  0  0  0  0  0  0  0  0  0
   60.0708   35.0036   48.5171 H   0  0  0  0  0  0  0  0  0  0  0  0
   58.5479   33.0377   48.7309 H   0  0  0  0  0  0  0  0  0  0  0  0
   57.4618   32.0710   46.7015 H   0  0  0  0  0  0  0  0  0  0  0  0
   57.4210   20.3590   43.8060 H   0  0  0  0  0  0  0  0  0  0  0  0
   57.5710   21.2040   45.3820 H   0  0  0  0  0  0  0  0  0  0  0  0
  1  2  1  0
  2  3  1  0
  3  4  1  0
  4  5  2  0
  5  6  1  0
  6  7  1  0
  7  8  1  0
  8  9  2  0
  8 10  1  0
 10 11  1  0
 11 12  1  0
 12 13  1  0
 13 14  2  0
 14 15  1  0
 15 16  2  0
 16 17  1  0
 17 18  2  0
  5 19  1  0
 19 20  1  0
 20 21  1  0
 21 22  1  0
 21 23  2  0
 20  3  2  0
 18 13  1  0
  1 24  1  0
  1 25  1  0
  1 26  1  0
  2 27  1  0
  2 28  1  0
  7 29  1  0
  7 30  1  0
 11 31  1  0
 11 32  1  0
 12 33  1  0
 12 34  1  0
 14 35  1  0
 15 36  1  0
 16 37  1  0
 17 38  1  0
 18 39  1  0
 22 40  1  0
 22 41  1  0
M  CHG  1  10  -1
M  END
>  <UniqueID>  (1) 
1

>  <SMILES>  (1) 
CCc1nc(SCC(=O)[N-]CCc2ccccc2)sc1C(N)=O

>  <Energy>  (1) 
62.86840933441615

>  <Genealogy>  (1) 
CCc1nc(SCC(=O)[N-]CCc2ccccc2)sc1C(N)=O (protonated)
CCc1nc(SCC(=O)[N-]CCc2ccccc2)sc1C(N)=O (3D coordinates assigned)
CCc1nc(SCC(=O)[N-]CCc2ccccc2)sc1C(N)=O (optimized conformer: 62.86840933441615 kcal/mol)

>  <smiles>  (1) 
CCc1nc(SCC(=O)NCCc2ccccc2)sc1C(N)=O

>  <score_type>  (1) 
oracle

>  <origin>  (1) 
adg

>  <m_score__min__energy>  (1) 
-10.630000000000001

>  <m_primary>  (1) 
energy

$$$$
1:0
     RDKit          3D

 62 66  0  0  0  0  0  0  0  0999 V2000
   60.9330   27.4170   45.6540 C   0  0  0  0  0  0  0  0  0  0  0  0
   59.9480   27.0470   46.7690 C   0  0  1  0  0  0  0  0  0  0  0  0
   60.1730   27.9000   47.9620 C   0  0  0  0  0  0  0  0  0  0  0  0
   61.2290   27.8860   48.6460 O   0  0  0  0  0  0  0  0  0  0  0  0
   59.0640   28.7310   48.2600 N   0  0  0  0  0  0  0  0  0  0  0  0
   58.8060   29.3330   49.5710 C   0  0  0  0  0  0  0  0  0  0  0  0
   58.7860   30.8640   49.4830 C   0  0  0  0  0  0  0  0  0  0  0  0
   59.9940   31.4620   48.7360 C   0  0  0  0  0  0  0  0  0  0  0  0
   59.9360   32.9910   48.5710 C   0  0  0  0  0  0  0  0  0  0  0  0
   59.2050   33.3990   47.3160 C   0  0  0  0  0  0  0  0  0  0  0  0
   57.8090   33.2620   47.2280 C   0  0  0  0  0  0  0  0  0  0  0  0
   57.1400   33.6030   46.0480 C   0  0  0  0  0  0  0  0  0  0  0  0
   57.8610   34.0810   44.9490 C   0  0  0  0  0  0  0  0  0  0  0  0
   59.2490   34.2220   45.0290 C   0  0  0  0  0  0  0  0  0  0  0  0
   59.9210   33.8800   46.2080 C   0  0  0  0  0  0  0  0  0  0  0  0
   58.0490   28.5550   47.2300 C   0  0  1  0  0  0  0  0  0  0  0  0
   58.2900   29.5260   46.0750 C   0  0  0  0  0  0  0  0  0  0  0  0
   58.5250   30.7130   46.2460 O   0  0  0  0  0  0  0  0  0  0  0  0
   58.2960   28.9210   44.7520 N   0  0  2  0  0  0  0  0  0  0  0  0
   57.4240   29.6520   43.7940 C   0  0  0  0  0  0  0  0  0  0  0  0
   56.0480   29.9970   44.3100 C   0  0  0  0  0  0  0  0  0  0  0  0
   55.7050   31.2000   44.4830 O   0  0  0  0  0  0  0  0  0  0  0  0
   55.1410   28.9800   44.5870 O   0  0  0  0  0  0  0  0  0  0  0  0
   57.8260   27.5810   45.1210 C   0  0  1  0  0  0  0  0  0  0  0  0
   58.1040   26.4000   44.3100 N   0  0  0  0  0  0  0  0  0  0  0  0
   57.7810   26.2770   42.8930 C   0  0  0  0  0  0  0  0  0  0  0  0
   57.7920   25.3890   45.2980 C   0  0  0  0  0  0  0  0  0  0  0  0
   57.4380   24.0570   45.0610 C   0  0  0  0  0  0  0  0  0  0  0  0
   57.1110   23.2460   46.1630 C   0  0  0  0  0  0  0  0  0  0  0  0
   57.1380   23.7660   47.4740 C   0  0  0  0  0  0  0  0  0  0  0  0
   57.4900   25.1060   47.7010 C   0  0  0  0  0  0  0  0  0  0  0  0
   57.7720   25.9040   46.5970 C   0  0  0  0  0  0  0  0  0  0  0  0
   58.3950   27.2530   46.5060 C   0  0  1  0  0  0  0  0  0  0  0  0
   61.8747   27.7707   46.0991 H   0  0  0  0  0  0  0  0  0  0  0  0
   61.1314   26.5321   45.0314 H   0  0  0  0  0  0  0  0  0  0  0  0
   60.4997   28.2137   45.0314 H   0  0  0  0  0  0  0  0  0  0  0  0
   60.1566   25.9717   46.8700 H   0  0  0  0  0  0  0  0  0  0  0  0
   57.8316   28.9820   49.9417 H   0  0  0  0  0  0  0  0  0  0  0  0
   59.6122   29.0336   50.2569 H   0  0  0  0  0  0  0  0  0  0  0  0
   57.8686   31.1689   48.9582 H   0  0  0  0  0  0  0  0  0  0  0  0
   58.8283   31.2438   50.5145 H   0  0  0  0  0  0  0  0  0  0  0  0
   60.9063   31.2093   49.2962 H   0  0  0  0  0  0  0  0  0  0  0  0
   59.9851   31.0329   47.7232 H   0  0  0  0  0  0  0  0  0  0  0  0
   59.4170   33.4221   49.4398 H   0  0  0  0  0  0  0  0  0  0  0  0
   60.9685   33.3632   48.4978 H   0  0  0  0  0  0  0  0  0  0  0  0
   57.2402   32.8850   48.0908 H   0  0  0  0  0  0  0  0  0  0  0  0
   56.0471   33.4953   45.9843 H   0  0  0  0  0  0  0  0  0  0  0  0
   57.3347   34.3464   44.0203 H   0  0  0  0  0  0  0  0  0  0  0  0
   59.8137   34.6020   44.1648 H   0  0  0  0  0  0  0  0  0  0  0  0
   61.0141   33.9884   46.2669 H   0  0  0  0  0  0  0  0  0  0  0  0
   57.0617   28.6418   47.7071 H   0  0  0  0  0  0  0  0  0  0  0  0
   59.2600   28.8970   44.3580 H   0  0  0  0  0  0  0  0  0  0  0  0
   57.9299   30.5899   43.5211 H   0  0  0  0  0  0  0  0  0  0  0  0
   57.2688   28.9721   42.9433 H   0  0  0  0  0  0  0  0  0  0  0  0
   56.7408   27.7162   45.0025 H   0  0  0  0  0  0  0  0  0  0  0  0
   56.7582   25.8875   42.7825 H   0  0  0  0  0  0  0  0  0  0  0  0
   57.8510   27.2647   42.4139 H   0  0  0  0  0  0  0  0  0  0  0  0
   58.4902   25.5860   42.4139 H   0  0  0  0  0  0  0  0  0  0  0  0
   57.4158   23.6533   44.0380 H   0  0  0  0  0  0  0  0  0  0  0  0
   56.8311   22.1947   46.0006 H   0  0  0  0  0  0  0  0  0  0  0  0
   56.8815   23.1171   48.3244 H   0  0  0  0  0  0  0  0  0  0  0  0
   57.5413   25.5129   48.7217 H   0  0  0  0  0  0  0  0  0  0  0  0
  1  2  1  0
  2  3  1  0
  3  4  2  0
  3  5  1  0
  5  6  1  0
  6  7  1  0
  7  8  1  0
  8  9  1  0
  9 10  1  0
 10 11  2  0
 11 12  1  0
 12 13  2  0
 13 14  1  0
 14 15  2  0
  5 16  1  0
 16 17  1  0
 17 18  2  0
 17 19  1  0
 19 20  1  0
 20 21  1  0
 21 22  2  0
 21 23  1  0
 19 24  1  0
 24 25  1  0
 25 26  1  0
 25 27  1  0
 27 28  2  0
 28 29  1  0
 29 30  2  0
 30 31  1  0
 31 32  2  0
 33 32  1  1
 33  2  1  0
 15 10  1  0
 33 16  1  0
 33 24  1  0
 32 27  1  0
  1 34  1  0
  1 35  1  0
  1 36  1  0
  2 37  1  1
  6 38  1  0
  6 39  1  0
  7 40  1  0
  7 41  1  0
  8 42  1  0
  8 43  1  0
  9 44  1  0
  9 45  1  0
 11 46  1  0
 12 47  1  0
 13 48  1  0
 14 49  1  0
 15 50  1  0
 16 51  1  1
 19 52  1  6
 20 53  1  0
 20 54  1  0
 24 55  1  1
 26 56  1  0
 26 57  1  0
 26 58  1  0
 28 59  1  0
 29 60  1  0
 30 61  1  0
 31 62  1  0
M  CHG  2  19   1  23  -1
M  END
>  <UniqueID>  (2) 
2

>  <SMILES>  (2) 
C[C@H]1C(=O)N(CCCCc2ccccc2)[C@H]2C(=O)[NH+](CC(=O)[O-])C3N(C)c4ccccc4C321

>  <Energy>  (2) 
154.6533762031295

>  <Genealogy>  (2) 
CC1C(=O)N(CCCCc2ccccc2)C2C(=O)[NH+](CC(=O)[O-])C3N(C)c4ccccc4C123 (protonated)
C[C@H]1C(=O)N(CCCCc2ccccc2)[C@H]2C(=O)[NH+](CC(=O)[O-])C3N(C)c4ccccc4C321 (chirality)
C[C@H]1C(=O)N(CCCCc2ccccc2)[C@H]2C(=O)[NH+](CC(=O)[O-])C3N(C)c4ccccc4C321 (3D coordinates assigned)
C[C@H]1C(=O)N(CCCCc2ccccc2)[C@H]2C(=O)[NH+](CC(=O)[O-])C3N(C)c4ccccc4C321 (nonaromatic ring conformer: 154.6533762031295 kcal/mol)

>  <smiles>  (2) 
CC1C(=O)N(CCCCc2ccccc2)C2C(=O)N(CC(=O)O)C3N(C)c4ccccc4C123

>  <score_type>  (2) 
oracle

>  <origin>  (2) 
adg

>  <m_score__min__energy>  (2) 
-9.4199999999999999

>  <m_primary>  (2) 
energy

$$$$
2:0
     RDKit          3D

 27 28  0  0  0  0  0  0  0  0999 V2000
   57.0430   28.8490   53.0920 C   0  0  0  0  0  0  0  0  0  0  0  0
   57.5120   30.1780   52.5530 C   0  0  0  0  0  0  0  0  0  0  0  0
   58.8200   30.3040   52.0340 C   0  0  0  0  0  0  0  0  0  0  0  0
   59.9410   28.9440   52.0040 Cl  0  0  0  0  0  0  0  0  0  0  0  0
   59.2560   31.5280   51.5180 C   0  0  0  0  0  0  0  0  0  0  0  0
   58.4060   32.6320   51.5090 C   0  0  0  0  0  0  0  0  0  0  0  0
   57.1060   32.5150   52.0000 C   0  0  0  0  0  0  0  0  0  0  0  0
   56.6370   31.2870   52.4940 C   0  0  0  0  0  0  0  0  0  0  0  0
   55.3000   31.1820   53.0060 N   0  0  0  0  0  0  0  0  0  0  0  0
   54.1780   30.5900   52.3370 C   0  0  0  0  0  0  0  0  0  0  0  0
   54.3940   29.7280   51.4450 O   0  0  0  0  0  0  0  0  0  0  0  0
   52.7690   31.0640   52.5730 C   0  0  0  0  0  0  0  0  0  0  0  0
   52.0260   31.2170   51.2800 C   0  0  0  0  0  0  0  0  0  0  0  0
   52.0290   30.3050   50.2900 N   0  0  0  0  0  0  0  0  0  0  0  0
   51.2610   30.8770   49.3380 C   0  0  0  0  0  0  0  0  0  0  0  0
   51.0190   30.3180   48.2370 O   0  0  0  0  0  0  0  0  0  0  0  0
   50.7710   32.0940   49.6580 N   0  0  0  0  0  0  0  0  0  0  0  0
   51.2670   32.2950   50.8900 C   0  0  0  0  0  0  0  0  0  0  0  0
   51.0300   33.4390   51.6410 O   0  0  0  0  0  0  0  0  0  0  0  0
   57.0523   28.8754   54.1916 H   0  0  0  0  0  0  0  0  0  0  0  0
   56.0204   28.6503   52.7386 H   0  0  0  0  0  0  0  0  0  0  0  0
   57.7143   28.0525   52.7386 H   0  0  0  0  0  0  0  0  0  0  0  0
   60.2761   31.6200   51.1168 H   0  0  0  0  0  0  0  0  0  0  0  0
   58.7603   33.5958   51.1146 H   0  0  0  0  0  0  0  0  0  0  0  0
   56.4422   33.3922   52.0003 H   0  0  0  0  0  0  0  0  0  0  0  0
   52.2446   30.3312   53.2039 H   0  0  0  0  0  0  0  0  0  0  0  0
   52.8094   32.0444   53.0702 H   0  0  0  0  0  0  0  0  0  0  0  0
  1  2  1  0
  2  3  2  0
  3  4  1  0
  3  5  1  0
  5  6  2  0
  6  7  1  0
  7  8  2  0
  8  9  1  0
  9 10  1  0
 10 11  2  0
 10 12  1  0
 12 13  1  0
 13 14  1  0
 14 15  1  0
 15 16  2  0
 15 17  1  0
 17 18  1  0
 18 19  1  0
  8  2  1  0
 18 13  2  0
  1 20  1  0
  1 21  1  0
  1 22  1  0
  5 23  1  0
  6 24  1  0
  7 25  1  0
 12 26  1  0
 12 27  1  0
M  CHG  4   9  -1  14  -1  17  -1  19  -1
M  END
>  <UniqueID>  (3) 
3

>  <SMILES>  (3) 
Cc1c(Cl)cccc1[N-]C(=O)Cc1[n-]c(=O)[n-]c1[O-]

>  <Energy>  (3) 
62.55024476815135

>  <Genealogy>  (3) 
Cc1c(Cl)cccc1[N-]C(=O)Cc1[n-]c(=O)[n-]c1[O-] (protonated)
Cc1c(Cl)cccc1[N-]C(=O)Cc1[n-]c(=O)[n-]c1[O-] (3D coordinates assigned)
Cc1c(Cl)cccc1[N-]C(=O)Cc1[n-]c(=O)[n-]c1[O-] (optimized conformer: 62.55024476815135 kcal/mol)

>  <smiles>  (3) 
Cc1c(Cl)cccc1NC(=O)Cc1[nH]c(=O)[nH]c1O

>  <score_type>  (3) 
oracle

>  <origin>  (3) 
adg

>  <m_score__min__energy>  (3) 
-15.92

>  <m_primary>  (3) 
energy

$$$$
3:0
     RDKit          3D

 41 42  0  0  0  0  0  0  0  0999 V2000
   55.3885   30.0760   54.6156 H   0  0  0  0  0  0  0  0  0  0  0  0
   55.0020   29.9110   53.5990 C   0  0  0  0  0  0  0  0  0  0  0  0
   55.9960   29.7610   52.5180 C   0  0  0  0  0  0  0  0  0  0  0  0
   56.6420   28.6830   52.4320 O   0  0  0  0  0  0  0  0  0  0  0  0
   56.1820   30.7870   51.5390 N   0  0  0  0  0  0  0  0  0  0  0  0
   56.9680   31.9960   51.7560 C   0  0  0  0  0  0  0  0  0  0  0  0
   56.9831   32.2250   52.8318 H   0  0  0  0  0  0  0  0  0  0  0  0
   56.5047   32.8170   51.1891 H   0  0  0  0  0  0  0  0  0  0  0  0
   58.4110   31.8210   51.2620 C   0  0  0  0  0  0  0  0  0  0  0  0
   58.5689   30.7608   51.0149 H   0  0  0  0  0  0  0  0  0  0  0  0
   59.0747   32.1627   52.0699 H   0  0  0  0  0  0  0  0  0  0  0  0
   58.7370   32.6650   50.0190 C   0  0  0  0  0  0  0  0  0  0  0  0
   59.7145   33.1485   50.1633 H   0  0  0  0  0  0  0  0  0  0  0  0
   57.9402   33.4132   49.8952 H   0  0  0  0  0  0  0  0  0  0  0  0
   58.7870   31.8470   48.8030 N   0  0  0  0  0  0  0  0  0  0  0  0
   58.5520   32.2210   47.5240 C   0  0  0  0  0  0  0  0  0  0  0  0
   58.0770   33.5800   47.0960 C   0  0  0  0  0  0  0  0  0  0  0  0
   57.3843   33.9760   47.8532 H   0  0  0  0  0  0  0  0  0  0  0  0
   57.5675   33.4884   46.1254 H   0  0  0  0  0  0  0  0  0  0  0  0
   59.2540   34.5360   46.9450 C   0  0  0  0  0  0  0  0  0  0  0  0
   59.6170   34.8308   47.9407 H   0  0  0  0  0  0  0  0  0  0  0  0
   60.0636   34.0365   46.3927 H   0  0  0  0  0  0  0  0  0  0  0  0
   58.9311   35.4308   46.3927 H   0  0  0  0  0  0  0  0  0  0  0  0
   58.6780   31.1950   46.6550 N   0  0  0  0  0  0  0  0  0  0  0  0
   59.0210   30.1440   47.4250 C   0  0  0  0  0  0  0  0  0  0  0  0
   59.2203   29.1268   47.0568 H   0  0  0  0  0  0  0  0  0  0  0  0
   59.0840   30.5370   48.7420 C   0  0  0  0  0  0  0  0  0  0  0  0
   59.3340   29.8915   49.5969 H   0  0  0  0  0  0  0  0  0  0  0  0
   53.6680   29.8640   53.4520 C   0  0  0  0  0  0  0  0  0  0  0  0
   53.1027   29.2550   54.1728 H   0  0  0  0  0  0  0  0  0  0  0  0
   52.8960   30.5620   52.4030 C   0  0  0  0  0  0  0  0  0  0  0  0
   52.8570   30.0260   51.1070 C   0  0  0  0  0  0  0  0  0  0  0  0
   53.4137   29.1054   50.8776 H   0  0  0  0  0  0  0  0  0  0  0  0
   52.1130   30.6580   50.1060 C   0  0  0  0  0  0  0  0  0  0  0  0
   52.1045   30.2457   49.0862 H   0  0  0  0  0  0  0  0  0  0  0  0
   51.3800   31.8120   50.3970 C   0  0  0  0  0  0  0  0  0  0  0  0
   50.6460   32.4360   49.3940 O   0  0  0  0  0  0  0  0  0  0  0  0
   51.3830   32.3310   51.6970 C   0  0  0  0  0  0  0  0  0  0  0  0
   50.6430   33.4700   51.9960 O   0  0  0  0  0  0  0  0  0  0  0  0
   52.1270   31.7010   52.7000 C   0  0  0  0  0  0  0  0  0  0  0  0
   52.1104   32.0984   53.7256 H   0  0  0  0  0  0  0  0  0  0  0  0
  1  2  1  0
  2  3  1  0
  3  4  2  0
  3  5  1  0
  5  6  1  0
  6  7  1  0
  6  8  1  0
  6  9  1  0
  9 10  1  0
  9 11  1  0
  9 12  1  0
 12 13  1  0
 12 14  1  0
 12 15  1  0
 15 16  1  0
 16 17  1  0
 17 18  1  0
 17 19  1  0
 17 20  1  0
 20 21  1  0
 20 22  1  0
 20 23  1  0
 16 24  2  0
 24 25  1  0
 25 26  1  0
 25 27  2  0
 27 28  1  0
  2 29  2  0
 29 30  1  0
 29 31  1  0
 31 32  2  0
 32 33  1  0
 32 34  1  0
 34 35  1  0
 34 36  2  0
 36 37  1  0
 36 38  1  0
 38 39  1  0
 38 40  2  0
 40 41  1  0
 27 15  1  0
 40 31  1  0
M  CHG  3   5  -1  37  -1  39  -1
M  END
>  <UniqueID>  (4) 
4

>  <SMILES>  (4) 
CCc1nccn1CCC[N-]C(=O)/C=C\c1ccc([O-])c([O-])c1

>  <Energy>  (4) 
65.31063774847178

>  <Genealogy>  (4) 
CCc1nccn1CCC[N-]C(=O)C=Cc1ccc([O-])c([O-])c1 (protonated)
CCc1nccn1CCC[N-]C(=O)/C=C\c1ccc([O-])c([O-])c1 (cis-trans isomerization)
CCc1nccn1CCC[N-]C(=O)/C=C\c1ccc([O-])c([O-])c1 (3D coordinates assigned)
CCc1nccn1CCC[N-]C(=O)/C=C\c1ccc([O-])c([O-])c1 (optimized conformer: 65.31063774847178 kcal/mol)

>  <smiles>  (4) 
CCc1nccn1CCCNC(=O)C=Cc1ccc(O)c(O)c1

>  <score_type>  (4) 
oracle

>  <origin>  (4) 
adg

>  <m_score__min__energy>  (4) 
-16.59

>  <m_primary>  (4) 
energy

$$$$
4:0
     RDKit          3D

 59 62  0  0  0  0  0  0  0  0999 V2000
   58.8120   21.8380   44.2300 C   0  0  0  0  0  0  0  0  0  0  0  0
   57.5860   22.6860   44.3000 C   0  0  0  0  0  0  0  0  0  0  0  0
   56.6460   22.8450   43.2880 C   0  0  0  0  0  0  0  0  0  0  0  0
   55.5800   23.6750   43.6530 C   0  0  0  0  0  0  0  0  0  0  0  0
   55.6830   24.1630   44.9530 C   0  0  0  0  0  0  0  0  0  0  0  0
   54.7250   25.0540   45.6180 C   0  0  0  0  0  0  0  0  0  0  0  0
   53.5510   24.6510   45.8520 O   0  0  0  0  0  0  0  0  0  0  0  0
   55.1270   26.3780   45.9930 N   0  0  0  0  0  0  0  0  0  0  0  0
   56.4710   26.7130   46.4460 C   0  0  0  0  0  0  0  0  0  0  0  0
   57.1690   27.5740   45.4320 C   0  0  0  0  0  0  0  0  0  0  0  0
   58.3520   27.2940   45.0980 O   0  0  0  0  0  0  0  0  0  0  0  0
   56.5300   28.7130   44.8410 N   0  0  0  0  0  0  0  0  0  0  0  0
   56.8290   29.2250   43.5080 C   0  0  0  0  0  0  0  0  0  0  0  0
   56.2680   30.6400   43.3450 C   0  0  0  0  0  0  0  0  0  0  0  0
   57.1730   31.6620   43.9690 C   0  0  0  0  0  0  0  0  0  0  0  0
   57.8250   32.6490   43.2310 C   0  0  0  0  0  0  0  0  0  0  0  0
   58.7120   33.5850   44.3060 S   0  0  0  0  0  0  0  0  0  0  0  0
   58.2330   32.7020   45.6640 C   0  0  0  0  0  0  0  0  0  0  0  0
   58.6630   32.9610   47.0580 C   0  0  0  0  0  0  0  0  0  0  0  0
   59.2730   34.1810   47.3970 C   0  0  0  0  0  0  0  0  0  0  0  0
   59.6740   34.4310   48.7140 C   0  0  0  0  0  0  0  0  0  0  0  0
   59.4900   33.4600   49.7080 C   0  0  0  0  0  0  0  0  0  0  0  0
   59.9070   33.7340   51.0960 C   0  0  0  0  0  0  0  0  0  0  0  0
   59.0730   34.2250   51.9020 O   0  0  0  0  0  0  0  0  0  0  0  0
   61.2410   33.4810   51.5540 N   0  0  0  0  0  0  0  0  0  0  0  0
   62.4390   34.0650   50.9630 C   0  0  0  0  0  0  0  0  0  0  0  0
   62.6910   33.4350   49.6230 C   0  0  0  0  0  0  0  0  0  0  0  0
   63.1680   34.2110   48.5520 C   0  0  0  0  0  0  0  0  0  0  0  0
   63.4270   33.6170   47.3130 C   0  0  0  0  0  0  0  0  0  0  0  0
   63.2220   32.2440   47.1380 C   0  0  0  0  0  0  0  0  0  0  0  0
   62.7640   31.4610   48.2040 C   0  0  0  0  0  0  0  0  0  0  0  0
   62.5040   32.0520   49.4450 C   0  0  0  0  0  0  0  0  0  0  0  0
   58.8670   32.2500   49.3780 C   0  0  0  0  0  0  0  0  0  0  0  0
   58.4630   31.9980   48.0640 C   0  0  0  0  0  0  0  0  0  0  0  0
   57.3980   31.6980   45.3110 N   0  0  0  0  0  0  0  0  0  0  0  0
   57.0970   23.5660   45.6480 S   0  0  0  0  0  0  0  0  0  0  0  0
   59.1532   21.6020   45.2488 H   0  0  0  0  0  0  0  0  0  0  0  0
   58.5823   20.9048   43.6948 H   0  0  0  0  0  0  0  0  0  0  0  0
   59.6041   22.3821   43.6948 H   0  0  0  0  0  0  0  0  0  0  0  0
   56.7315   22.3671   42.3009 H   0  0  0  0  0  0  0  0  0  0  0  0
   54.7443   23.9176   42.9802 H   0  0  0  0  0  0  0  0  0  0  0  0
   56.4063   27.2572   47.3998 H   0  0  0  0  0  0  0  0  0  0  0  0
   57.0439   25.7833   46.5778 H   0  0  0  0  0  0  0  0  0  0  0  0
   57.9193   29.2480   43.3641 H   0  0  0  0  0  0  0  0  0  0  0  0
   56.3642   28.5670   42.7590 H   0  0  0  0  0  0  0  0  0  0  0  0
   56.1625   30.8621   42.2728 H   0  0  0  0  0  0  0  0  0  0  0  0
   55.2921   30.6864   43.8505 H   0  0  0  0  0  0  0  0  0  0  0  0
   57.7685   32.7891   42.1414 H   0  0  0  0  0  0  0  0  0  0  0  0
   59.4362   34.9443   46.6219 H   0  0  0  0  0  0  0  0  0  0  0  0
   60.1365   35.3954   48.9709 H   0  0  0  0  0  0  0  0  0  0  0  0
   62.2961   35.1485   50.8383 H   0  0  0  0  0  0  0  0  0  0  0  0
   63.3004   33.8837   51.6226 H   0  0  0  0  0  0  0  0  0  0  0  0
   63.3380   35.2891   48.6893 H   0  0  0  0  0  0  0  0  0  0  0  0
   63.7921   34.2294   46.4754 H   0  0  0  0  0  0  0  0  0  0  0  0
   63.4211   31.7792   46.1611 H   0  0  0  0  0  0  0  0  0  0  0  0
   62.6085   30.3808   48.0659 H   0  0  0  0  0  0  0  0  0  0  0  0
   62.1524   31.4336   50.2840 H   0  0  0  0  0  0  0  0  0  0  0  0
   58.6946   31.4934   50.1576 H   0  0  0  0  0  0  0  0  0  0  0  0
   57.9849   31.0393   47.8144 H   0  0  0  0  0  0  0  0  0  0  0  0
  1  2  1  0
  2  3  2  0
  3  4  1  0
  4  5  2  0
  5  6  1  0
  6  7  2  0
  6  8  1  0
  8  9  1  0
  9 10  1  0
 10 11  2  0
 10 12  1  0
 12 13  1  0
 13 14  1  0
 14 15  1  0
 15 16  2  0
 16 17  1  0
 17 18  1  0
 18 19  1  0
 19 20  2  0
 20 21  1  0
 21 22  2  0
 22 23  1  0
 23 24  2  0
 23 25  1  0
 25 26  1  0
 26 27  1  0
 27 28  2  0
 28 29  1  0
 29 30  2  0
 30 31  1  0
 31 32  2  0
 22 33  1  0
 33 34  2  0
 18 35  2  0
  5 36  1  0
 36  2  1  0
 35 15  1  0
 34 19  1  0
 32 27  1  0
  1 37  1  0
  1 38  1  0
  1 39  1  0
  3 40  1  0
  4 41  1  0
  9 42  1  0
  9 43  1  0
 13 44  1  0
 13 45  1  0
 14 46  1  0
 14 47  1  0
 16 48  1  0
 20 49  1  0
 21 50  1  0
 26 51  1  0
 26 52  1  0
 28 53  1  0
 29 54  1  0
 30 55  1  0
 31 56  1  0
 32 57  1  0
 33 58  1  0
 34 59  1  0
M  CHG  3   8  -1  12  -1  25  -1
M  END
>  <UniqueID>  (5) 
5

>  <SMILES>  (5) 
Cc1ccc(C(=O)[N-]CC(=O)[N-]CCc2csc(-c3ccc(C(=O)[N-]Cc4ccccc4)cc3)n2)s1

>  <Energy>  (5) 
113.40984031696769

>  <Genealogy>  (5) 
Cc1ccc(C(=O)[N-]CC(=O)[N-]CCc2csc(-c3ccc(C(=O)[N-]Cc4ccccc4)cc3)n2)s1 (protonated)
Cc1ccc(C(=O)[N-]CC(=O)[N-]CCc2csc(-c3ccc(C(=O)[N-]Cc4ccccc4)cc3)n2)s1 (3D coordinates assigned)
Cc1ccc(C(=O)[N-]CC(=O)[N-]CCc2csc(-c3ccc(C(=O)[N-]Cc4ccccc4)cc3)n2)s1 (optimized conformer: 113.40984031696769 kcal/mol)

>  <smiles>  (5) 
Cc1ccc(C(=O)NCC(=O)NCCc2csc(-c3ccc(C(=O)NCc4ccccc4)cc3)n2)s1

>  <score_type>  (5) 
oracle

>  <origin>  (5) 
adg

>  <m_score__min__energy>  (5) 
-15.74

>  <m_primary>  (5) 
energy

$$$$
5:0
     RDKit          3D

 49 51  0  0  0  0  0  0  0  0999 V2000
   58.8890   29.0230   49.9380 O   0  0  0  0  0  0  0  0  0  0  0  0
   60.1390   28.9640   49.7950 C   0  0  0  0  0  0  0  0  0  0  0  0
   60.7730   27.6660   49.3770 C   0  0  0  0  0  0  0  0  0  0  0  0
   60.6760   27.4790   47.9650 O   0  0  0  0  0  0  0  0  0  0  0  0
   59.6700   28.0190   47.1460 C   0  0  0  0  0  0  0  0  0  0  0  0
   59.9600   29.1790   46.4190 C   0  0  0  0  0  0  0  0  0  0  0  0
   58.9960   29.7570   45.5880 C   0  0  0  0  0  0  0  0  0  0  0  0
   57.7240   29.1780   45.4770 C   0  0  0  0  0  0  0  0  0  0  0  0
   56.4880   29.9080   44.4530 S   0  0  0  0  0  0  0  0  0  0  0  0
   56.7430   29.5730   43.0090 O   0  0  0  0  0  0  0  0  0  0  0  0
   55.1510   29.3430   44.8410 O   0  0  0  0  0  0  0  0  0  0  0  0
   56.4510   31.6370   44.6510 N   0  0  0  0  0  0  0  0  0  0  0  0
   57.6960   32.2590   44.1900 C   0  0  0  0  0  0  0  0  0  0  0  0
   58.3140   33.1070   45.2690 C   0  0  0  0  0  0  0  0  0  0  0  0
   58.1260   32.7850   46.6240 C   0  0  0  0  0  0  0  0  0  0  0  0
   58.7150   33.5690   47.6220 C   0  0  0  0  0  0  0  0  0  0  0  0
   59.4910   34.6780   47.2750 C   0  0  0  0  0  0  0  0  0  0  0  0
   59.6790   35.0070   45.9300 C   0  0  0  0  0  0  0  0  0  0  0  0
   59.0920   34.2260   44.9290 C   0  0  0  0  0  0  0  0  0  0  0  0
   57.4270   28.0190   46.2030 C   0  0  0  0  0  0  0  0  0  0  0  0
   58.3900   27.4400   47.0330 C   0  0  0  0  0  0  0  0  0  0  0  0
   60.9200   30.1290   50.0960 N   0  0  0  0  0  0  0  0  0  0  0  0
   60.5840   31.4980   49.7160 C   0  0  0  0  0  0  0  0  0  0  0  0
   61.6850   32.1090   48.8910 C   0  0  0  0  0  0  0  0  0  0  0  0
   62.3380   31.3440   47.9110 C   0  0  0  0  0  0  0  0  0  0  0  0
   63.3600   31.9090   47.1410 C   0  0  0  0  0  0  0  0  0  0  0  0
   63.7400   33.2380   47.3470 C   0  0  0  0  0  0  0  0  0  0  0  0
   63.1000   34.0040   48.3250 C   0  0  0  0  0  0  0  0  0  0  0  0
   62.0780   33.4430   49.0980 C   0  0  0  0  0  0  0  0  0  0  0  0
   61.8342   27.6747   49.6664 H   0  0  0  0  0  0  0  0  0  0  0  0
   60.2434   26.8412   49.8763 H   0  0  0  0  0  0  0  0  0  0  0  0
   60.9553   29.6400   46.5022 H   0  0  0  0  0  0  0  0  0  0  0  0
   59.2359   30.6680   45.0200 H   0  0  0  0  0  0  0  0  0  0  0  0
   58.4064   31.4697   43.9032 H   0  0  0  0  0  0  0  0  0  0  0  0
   57.4647   32.9045   43.3299 H   0  0  0  0  0  0  0  0  0  0  0  0
   57.5139   31.9139   46.9008 H   0  0  0  0  0  0  0  0  0  0  0  0
   58.5670   33.3120   48.6813 H   0  0  0  0  0  0  0  0  0  0  0  0
   59.9542   35.2924   48.0611 H   0  0  0  0  0  0  0  0  0  0  0  0
   60.2892   35.8810   45.6582 H   0  0  0  0  0  0  0  0  0  0  0  0
   59.2402   34.4892   43.8713 H   0  0  0  0  0  0  0  0  0  0  0  0
   56.4301   27.5616   46.1196 H   0  0  0  0  0  0  0  0  0  0  0  0
   58.1485   26.5291   47.6003 H   0  0  0  0  0  0  0  0  0  0  0  0
   59.6542   31.4913   49.1283 H   0  0  0  0  0  0  0  0  0  0  0  0
   60.4547   32.0961   50.6301 H   0  0  0  0  0  0  0  0  0  0  0  0
   62.0447   30.2964   47.7482 H   0  0  0  0  0  0  0  0  0  0  0  0
   63.8654   31.3063   46.3721 H   0  0  0  0  0  0  0  0  0  0  0  0
   64.5428   33.6811   46.7394 H   0  0  0  0  0  0  0  0  0  0  0  0
   63.4003   35.0497   48.4872 H   0  0  0  0  0  0  0  0  0  0  0  0
   61.5801   34.0476   49.8704 H   0  0  0  0  0  0  0  0  0  0  0  0
  1  2  2  0
  2  3  1  0
  3  4  1  0
  4  5  1  0
  5  6  2  0
  6  7  1  0
  7  8  2  0
  8  9  1  0
  9 10  2  0
  9 11  2  0
  9 12  1  0
 12 13  1  0
 13 14  1  0
 14 15  2  0
 15 16  1  0
 16 17  2  0
 17 18  1  0
 18 19  2  0
  8 20  1  0
 20 21  2  0
  2 22  1  0
 22 23  1  0
 23 24  1  0
 24 25  2  0
 25 26  1  0
 26 27  2  0
 27 28  1  0
 28 29  2  0
 21  5  1  0
 29 24  1  0
 19 14  1  0
  3 30  1  0
  3 31  1  0
  6 32  1  0
  7 33  1  0
 13 34  1  0
 13 35  1  0
 15 36  1  0
 16 37  1  0
 17 38  1  0
 18 39  1  0
 19 40  1  0
 20 41  1  0
 21 42  1  0
 23 43  1  0
 23 44  1  0
 25 45  1  0
 26 46  1  0
 27 47  1  0
 28 48  1  0
 29 49  1  0
M  CHG  2  12  -1  22  -1
M  END
>  <UniqueID>  (6) 
6

>  <SMILES>  (6) 
O=C(COc1ccc(S(=O)(=O)[N-]Cc2ccccc2)cc1)[N-]Cc1ccccc1

>  <Energy>  (6) 
47.46766919231665

>  <Genealogy>  (6) 
O=C(COc1ccc(S(=O)(=O)[N-]Cc2ccccc2)cc1)[N-]Cc1ccccc1 (protonated)
O=C(COc1ccc(S(=O)(=O)[N-]Cc2ccccc2)cc1)[N-]Cc1ccccc1 (3D coordinates assigned)
O=C(COc1ccc(S(=O)(=O)[N-]Cc2ccccc2)cc1)[N-]Cc1ccccc1 (optimized conformer: 47.46766919231665 kcal/mol)

>  <smiles>  (6) 
O=C(COc1ccc(S(=O)(=O)NCc2ccccc2)cc1)NCc1ccccc1

>  <score_type>  (6) 
oracle

>  <origin>  (6) 
adg

>  <m_score__min__energy>  (6) 
-11.470000000000001

>  <m_primary>  (6) 
energy

$$$$
6:0
     RDKit          3D

 54 57  0  0  0  0  0  0  0  0999 V2000
   55.8000   29.7050   45.9980 H   0  0  0  0  0  0  0  0  0  0  0  0
   55.7540   28.9880   45.2850 O   0  0  0  0  0  0  0  0  0  0  0  0
   56.2690   27.7150   45.5140 C   0  0  0  0  0  0  0  0  0  0  0  0
   55.4570   26.7370   45.9960 N   0  0  0  0  0  0  0  0  0  0  0  0
   55.9330   25.4930   46.2560 C   0  0  0  0  0  0  0  0  0  0  0  0
   55.1600   24.6040   46.6980 O   0  0  0  0  0  0  0  0  0  0  0  0
   57.2430   25.2100   46.0460 N   0  0  0  0  0  0  0  0  0  0  0  0
   58.0970   26.1500   45.5640 C   0  0  0  0  0  0  0  0  0  0  0  0
   59.3080   25.8520   45.3850 O   0  0  0  0  0  0  0  0  0  0  0  0
   57.6230   27.4370   45.2620 C   0  0  0  0  0  0  0  0  0  0  0  0
   58.5490   28.4860   44.7710 C   0  0  0  0  0  0  0  0  0  0  0  0
   59.0442   28.3167   43.8035 H   0  0  0  0  0  0  0  0  0  0  0  0
   58.8310   29.6430   45.4300 C   0  0  0  0  0  0  0  0  0  0  0  0
   59.6580   29.6070   46.5780 C   0  0  0  0  0  0  0  0  0  0  0  0
   60.0859   28.6466   46.9013 H   0  0  0  0  0  0  0  0  0  0  0  0
   59.9430   30.7580   47.3080 C   0  0  0  0  0  0  0  0  0  0  0  0
   60.5885   30.6933   48.1964 H   0  0  0  0  0  0  0  0  0  0  0  0
   59.4180   31.9930   46.9240 C   0  0  0  0  0  0  0  0  0  0  0  0
   59.7080   33.2140   47.7130 C   0  0  0  0  0  0  0  0  0  0  0  0
   58.7550   33.8450   48.2440 O   0  0  0  0  0  0  0  0  0  0  0  0
   61.0560   33.6800   47.9080 N   0  0  0  0  0  0  0  0  0  0  0  0
   61.9810   33.8010   46.7770 C   0  0  0  0  0  0  0  0  0  0  0  0
   61.6145   33.1824   45.9445 H   0  0  0  0  0  0  0  0  0  0  0  0
   62.0324   34.8581   46.4772 H   0  0  0  0  0  0  0  0  0  0  0  0
   63.3980   33.3310   47.1700 C   0  0  0  0  0  0  0  0  0  0  0  0
   63.5002   32.2719   46.8908 H   0  0  0  0  0  0  0  0  0  0  0  0
   64.1066   33.9820   46.6370 H   0  0  0  0  0  0  0  0  0  0  0  0
   63.7030   33.4630   48.6200 N   0  0  0  0  0  0  0  0  0  0  0  0
   63.5900   32.1700   49.3330 C   0  0  0  0  0  0  0  0  0  0  0  0
   62.7206   32.2061   50.0059 H   0  0  0  0  0  0  0  0  0  0  0  0
   63.4702   31.3702   48.5873 H   0  0  0  0  0  0  0  0  0  0  0  0
   64.8280   31.8850   50.1440 C   0  0  0  0  0  0  0  0  0  0  0  0
   64.8590   30.8070   51.0450 C   0  0  0  0  0  0  0  0  0  0  0  0
   63.9790   30.1556   51.1514 H   0  0  0  0  0  0  0  0  0  0  0  0
   66.0060   30.5600   51.8070 C   0  0  0  0  0  0  0  0  0  0  0  0
   66.0264   29.7150   52.5109 H   0  0  0  0  0  0  0  0  0  0  0  0
   67.1250   31.3850   51.6750 C   0  0  0  0  0  0  0  0  0  0  0  0
   68.0267   31.1880   52.2734 H   0  0  0  0  0  0  0  0  0  0  0  0
   67.1000   32.4610   50.7830 C   0  0  0  0  0  0  0  0  0  0  0  0
   67.9816   33.1109   50.6814 H   0  0  0  0  0  0  0  0  0  0  0  0
   65.9560   32.7120   50.0200 C   0  0  0  0  0  0  0  0  0  0  0  0
   65.9393   33.5603   49.3200 H   0  0  0  0  0  0  0  0  0  0  0  0
   62.9340   34.5560   49.2580 C   0  0  0  0  0  0  0  0  0  0  0  0
   63.2301   34.6298   50.3148 H   0  0  0  0  0  0  0  0  0  0  0  0
   63.1551   35.4891   48.7191 H   0  0  0  0  0  0  0  0  0  0  0  0
   61.4170   34.3080   49.1820 C   0  0  0  0  0  0  0  0  0  0  0  0
   61.1179   33.6460   50.0080 H   0  0  0  0  0  0  0  0  0  0  0  0
   60.8973   35.2744   49.2587 H   0  0  0  0  0  0  0  0  0  0  0  0
   58.5840   32.0580   45.8020 C   0  0  0  0  0  0  0  0  0  0  0  0
   58.1501   33.0261   45.5113 H   0  0  0  0  0  0  0  0  0  0  0  0
   58.2860   30.9110   45.0340 C   0  0  0  0  0  0  0  0  0  0  0  0
   57.5180   31.0900   43.9400 C   0  0  0  0  0  0  0  0  0  0  0  0
   57.2553   30.2305   43.3058 H   0  0  0  0  0  0  0  0  0  0  0  0
   57.1543   32.0955   43.6819 H   0  0  0  0  0  0  0  0  0  0  0  0
  1  2  1  0
  2  3  1  0
  3  4  1  0
  4  5  1  0
  5  6  2  0
  5  7  1  0
  7  8  1  0
  8  9  2  0
  8 10  1  0
 10 11  1  0
 11 12  1  0
 11 13  2  0
 13 14  1  0
 14 15  1  0
 14 16  2  0
 16 17  1  0
 16 18  1  0
 18 19  1  0
 19 20  2  0
 19 21  1  0
 21 22  1  0
 22 23  1  0
 22 24  1  0
 22 25  1  0
 25 26  1  0
 25 27  1  0
 25 28  1  0
 28 29  1  0
 29 30  1  0
 29 31  1  0
 29 32  1  0
 32 33  2  0
 33 34  1  0
 33 35  1  0
 35 36  1  0
 35 37  2  0
 37 38  1  0
 37 39  1  0
 39 40  1  0
 39 41  2  0
 41 42  1  0
 28 43  1  0
 43 44  1  0
 43 45  1  0
 43 46  1  0
 46 47  1  0
 46 48  1  0
 18 49  2  0
 49 50  1  0
 49 51  1  0
 51 52  2  0
 52 53  1  0
 52 54  1  0
 10  3  2  0
 51 13  1  0
 46 21  1  0
 41 32  1  0
M  CHG  2   4  -1   7  -1
M  END
>  <UniqueID>  (7) 
7

>  <SMILES>  (7) 
C=c1cc(C(=O)N2CCN(Cc3ccccc3)CC2)cc/c1=C\c1c(O)[n-]c(=O)[n-]c1=O

>  <Energy>  (7) 
89.65264200986314

>  <Genealogy>  (7) 
C=c1cc(C(=O)N2CCN(Cc3ccccc3)CC2)ccc1=Cc1c(O)[n-]c(=O)[n-]c1=O (protonated)
C=c1cc(C(=O)N2CCN(Cc3ccccc3)CC2)cc/c1=C\c1c(O)[n-]c(=O)[n-]c1=O (cis-trans isomerization)
C=c1cc(C(=O)N2CCN(Cc3ccccc3)CC2)cc/c1=C\c1c(O)[n-]c(=O)[n-]c1=O (3D coordinates assigned)
C=c1cc(C(=O)N2CCN(Cc3ccccc3)CC2)cc/c1=C\c1c(O)[n-]c(=O)[n-]c1=O (nonaromatic ring conformer: 89.65264200986314 kcal/mol)

>  <smiles>  (7) 
C=c1cc(C(=O)N2CCN(Cc3ccccc3)CC2)ccc1=Cc1c(O)[nH]c(=O)[nH]c1=O

>  <score_type>  (7) 
oracle

>  <origin>  (7) 
adg

>  <m_score__min__energy>  (7) 
-14.279999999999999

>  <m_primary>  (7) 
energy

$$$$
7:0
     RDKit          3D

 70 73  0  0  0  0  0  0  0  0999 V2000
   58.6640   23.3240   45.8100 C   0  0  0  0  0  0  0  0  0  0  0  0
   58.4000   24.5940   45.4680 C   0  0  0  0  0  0  0  0  0  0  0  0
   57.4090   25.0280   44.5730 C   0  0  0  0  0  0  0  0  0  0  0  0
   56.3610   24.3750   44.0380 C   0  0  0  0  0  0  0  0  0  0  0  0
   55.0740   24.1360   44.7120 C   0  0  0  0  0  0  0  0  0  0  0  0
   54.2770   23.0880   44.4430 N   0  0  0  0  0  0  0  0  0  0  0  0
   53.1710   23.3400   45.1760 C   0  0  0  0  0  0  0  0  0  0  0  0
   52.1840   22.5560   45.2070 O   0  0  0  0  0  0  0  0  0  0  0  0
   53.2000   24.4970   45.8690 N   0  0  0  0  0  0  0  0  0  0  0  0
   54.4060   24.9990   45.5540 C   0  0  0  0  0  0  0  0  0  0  0  0
   54.8750   26.2320   45.9980 O   0  0  0  0  0  0  0  0  0  0  0  0
   57.6810   26.3560   44.3090 C   0  0  0  0  0  0  0  0  0  0  0  0
   58.7540   26.7130   45.1030 C   0  0  0  0  0  0  0  0  0  0  0  0
   59.3870   28.0490   45.0820 C   0  0  0  0  0  0  0  0  0  0  0  0
   60.1330   28.3650   44.1180 O   0  0  0  0  0  0  0  0  0  0  0  0
   59.1370   29.0050   46.1320 N   0  0  0  0  0  0  0  0  0  0  0  0
   58.9390   30.4200   45.8050 C   0  0  0  0  0  0  0  0  0  0  0  0
   59.8650   31.3050   46.6520 C   0  0  0  0  0  0  0  0  0  0  0  0
   59.9410   30.8820   48.1500 C   0  0  0  0  0  0  0  0  0  0  0  0
   59.7640   32.0930   49.0610 C   0  0  0  0  0  0  0  0  0  0  0  0
   58.9450   32.0200   50.0220 O   0  0  0  0  0  0  0  0  0  0  0  0
   60.4940   33.3310   48.8340 N   0  0  0  0  0  0  0  0  0  0  0  0
   59.7200   34.5250   48.4190 C   0  0  0  0  0  0  0  0  0  0  0  0
   59.0330   34.2900   47.0950 C   0  0  0  0  0  0  0  0  0  0  0  0
   57.7540   33.7090   47.0540 C   0  0  0  0  0  0  0  0  0  0  0  0
   57.1210   33.4840   45.8290 C   0  0  0  0  0  0  0  0  0  0  0  0
   57.7540   33.8450   44.6340 C   0  0  0  0  0  0  0  0  0  0  0  0
   59.0110   34.4530   44.6680 C   0  0  0  0  0  0  0  0  0  0  0  0
   59.6480   34.6770   45.8910 C   0  0  0  0  0  0  0  0  0  0  0  0
   61.9950   33.3190   48.8380 C   0  0  0  0  0  0  0  0  0  0  0  0
   62.5080   32.0420   49.5460 C   0  0  0  0  0  0  0  0  0  0  0  0
   62.6010   34.5260   49.6030 C   0  0  0  0  0  0  0  0  0  0  0  0
   62.5350   33.3680   47.3860 C   0  0  0  0  0  0  0  0  0  0  0  0
   58.9450   29.7520   48.4930 C   0  0  0  0  0  0  0  0  0  0  0  0
   59.1120   28.5660   47.5380 C   0  0  0  0  0  0  0  0  0  0  0  0
   59.1810   25.6470   45.8240 N   0  0  0  0  0  0  0  0  0  0  0  0
   60.3380   25.6240   46.7280 C   0  0  0  0  0  0  0  0  0  0  0  0
   59.4696   23.1032   46.5257 H   0  0  0  0  0  0  0  0  0  0  0  0
   58.0749   22.5034   45.3747 H   0  0  0  0  0  0  0  0  0  0  0  0
   56.4751   23.9886   43.0144 H   0  0  0  0  0  0  0  0  0  0  0  0
   55.1280   26.3670   46.9690 H   0  0  0  0  0  0  0  0  0  0  0  0
   57.1454   27.0059   43.6013 H   0  0  0  0  0  0  0  0  0  0  0  0
   59.1616   30.5794   44.7396 H   0  0  0  0  0  0  0  0  0  0  0  0
   57.8949   30.6910   46.0202 H   0  0  0  0  0  0  0  0  0  0  0  0
   60.8778   31.2553   46.2257 H   0  0  0  0  0  0  0  0  0  0  0  0
   59.4475   32.3224   46.6269 H   0  0  0  0  0  0  0  0  0  0  0  0
   60.9449   30.4682   48.3262 H   0  0  0  0  0  0  0  0  0  0  0  0
   58.9611   34.7457   49.1841 H   0  0  0  0  0  0  0  0  0  0  0  0
   60.4134   35.3719   48.3091 H   0  0  0  0  0  0  0  0  0  0  0  0
   57.2490   33.4301   47.9906 H   0  0  0  0  0  0  0  0  0  0  0  0
   56.1230   33.0221   45.8036 H   0  0  0  0  0  0  0  0  0  0  0  0
   57.2623   33.6502   43.6695 H   0  0  0  0  0  0  0  0  0  0  0  0
   59.5001   34.7559   43.7304 H   0  0  0  0  0  0  0  0  0  0  0  0
   60.6366   35.1590   45.9123 H   0  0  0  0  0  0  0  0  0  0  0  0
   62.4527   32.1797   50.6359 H   0  0  0  0  0  0  0  0  0  0  0  0
   61.8846   31.1845   49.2526 H   0  0  0  0  0  0  0  0  0  0  0  0
   63.5514   31.8541   49.2526 H   0  0  0  0  0  0  0  0  0  0  0  0
   62.5148   34.3543   50.6861 H   0  0  0  0  0  0  0  0  0  0  0  0
   63.6615   34.6365   49.3325 H   0  0  0  0  0  0  0  0  0  0  0  0
   62.0562   35.4425   49.3325 H   0  0  0  0  0  0  0  0  0  0  0  0
   63.6303   33.4674   47.4053 H   0  0  0  0  0  0  0  0  0  0  0  0
   62.2601   32.4412   46.8611 H   0  0  0  0  0  0  0  0  0  0  0  0
   62.0978   34.2302   46.8611 H   0  0  0  0  0  0  0  0  0  0  0  0
   59.1266   29.4127   49.5235 H   0  0  0  0  0  0  0  0  0  0  0  0
   57.9219   30.1431   48.3913 H   0  0  0  0  0  0  0  0  0  0  0  0
   60.0564   28.0514   47.7687 H   0  0  0  0  0  0  0  0  0  0  0  0
   58.2548   27.8901   47.6736 H   0  0  0  0  0  0  0  0  0  0  0  0
   59.9886   25.6309   47.7710 H   0  0  0  0  0  0  0  0  0  0  0  0
   60.9282   24.7139   46.5451 H   0  0  0  0  0  0  0  0  0  0  0  0
   60.9639   26.5099   46.5451 H   0  0  0  0  0  0  0  0  0  0  0  0
  1  2  2  0
  2  3  1  0
  3  4  2  3
  4  5  1  0
  5  6  1  0
  6  7  1  0
  7  8  2  0
  7  9  1  0
  9 10  1  0
 10 11  1  0
  3 12  1  0
 12 13  2  0
 13 14  1  0
 14 15  2  0
 14 16  1  0
 16 17  1  0
 17 18  1  0
 18 19  1  0
 19 20  1  0
 20 21  2  0
 20 22  1  0
 22 23  1  0
 23 24  1  0
 24 25  2  0
 25 26  1  0
 26 27  2  0
 27 28  1  0
 28 29  2  0
 22 30  1  0
 30 31  1  0
 30 32  1  0
 30 33  1  0
 19 34  1  0
 34 35  1  0
 13 36  1  0
 36 37  1  0
 36  2  1  0
 10  5  2  0
 35 16  1  0
 29 24  1  0
  1 38  1  0
  1 39  1  0
  4 40  1  0
 11 41  1  0
 12 42  1  0
 17 43  1  0
 17 44  1  0
 18 45  1  0
 18 46  1  0
 19 47  1  0
 23 48  1  0
 23 49  1  0
 25 50  1  0
 26 51  1  0
 27 52  1  0
 28 53  1  0
 29 54  1  0
 31 55  1  0
 31 56  1  0
 31 57  1  0
 32 58  1  0
 32 59  1  0
 32 60  1  0
 33 61  1  0
 33 62  1  0
 33 63  1  0
 34 64  1  0
 34 65  1  0
 35 66  1  0
 35 67  1  0
 37 68  1  0
 37 69  1  0
 37 70  1  0
M  CHG  2   6  -1   9  -1
M  END
>  <UniqueID>  (8) 
8

>  <SMILES>  (8) 
C=c1c(=Cc2[n-]c(=O)[n-]c2O)cc(C(=O)N2CCC(C(=O)N(Cc3ccccc3)C(C)(C)C)CC2)n1C

>  <Energy>  (8) 
155.6099058486422

>  <Genealogy>  (8) 
C=c1c(=Cc2[n-]c(=O)[n-]c2O)cc(C(=O)N2CCC(C(=O)N(Cc3ccccc3)C(C)(C)C)CC2)n1C (protonated)
C=c1c(=Cc2[n-]c(=O)[n-]c2O)cc(C(=O)N2CCC(C(=O)N(Cc3ccccc3)C(C)(C)C)CC2)n1C (3D coordinates assigned)
C=c1c(=Cc2[n-]c(=O)[n-]c2O)cc(C(=O)N2CCC(C(=O)N(Cc3ccccc3)C(C)(C)C)CC2)n1C (nonaromatic ring conformer: 155.6099058486422 kcal/mol)

>  <smiles>  (8) 
C=c1c(=Cc2[nH]c(=O)[nH]c2O)cc(C(=O)N2CCC(C(=O)N(Cc3ccccc3)C(C)(C)C)CC2)n1C

>  <score_type>  (8) 
oracle

>  <origin>  (8) 
adg

>  <m_score__min__energy>  (8) 
-15.24

>  <m_primary>  (8) 
energy

$$$$
8:0
     RDKit          3D

 44 46  0  0  0  0  0  0  0  0999 V2000
   59.0270   30.0730   49.4110 N   0  0  0  0  0  0  0  0  0  0  0  0
   60.1910   29.7970   48.5730 C   0  0  0  0  0  0  0  0  0  0  0  0
   59.7710   29.3090   47.2090 C   0  0  0  0  0  0  0  0  0  0  0  0
   60.6730   29.3540   46.1340 C   0  0  0  0  0  0  0  0  0  0  0  0
   60.2720   28.9370   44.8630 C   0  0  0  0  0  0  0  0  0  0  0  0
   58.9700   28.4790   44.6510 C   0  0  0  0  0  0  0  0  0  0  0  0
   58.0570   28.4250   45.7180 C   0  0  0  0  0  0  0  0  0  0  0  0
   56.6510   27.9400   45.4900 C   0  0  0  0  0  0  0  0  0  0  0  0
   55.7320   29.0520   45.2460 N   0  0  0  0  0  0  0  0  0  0  0  0
   55.6900   29.8810   44.0740 C   0  0  0  0  0  0  0  0  0  0  0  0
   54.8630   29.6020   43.1670 O   0  0  0  0  0  0  0  0  0  0  0  0
   56.6090   31.0560   43.8850 C   0  0  0  0  0  0  0  0  0  0  0  0
   57.2220   31.4530   45.1500 N   0  0  0  0  0  0  0  0  0  0  0  0
   58.0510   32.6210   45.2440 C   0  0  0  0  0  0  0  0  0  0  0  0
   58.0900   33.4400   44.2870 O   0  0  0  0  0  0  0  0  0  0  0  0
   58.8730   32.8750   46.4410 C   0  0  0  0  0  0  0  0  0  0  0  0
   60.2440   33.1400   46.4520 C   0  0  0  0  0  0  0  0  0  0  0  0
   60.5570   33.3410   47.7780 C   0  0  0  0  0  0  0  0  0  0  0  0
   61.7740   33.6460   48.3850 C   0  0  0  0  0  0  0  0  0  0  0  0
   61.7880   33.8040   49.7840 C   0  0  0  0  0  0  0  0  0  0  0  0
   63.2910   34.1880   50.6030 Cl  0  0  0  0  0  0  0  0  0  0  0  0
   60.5970   33.6580   50.5310 C   0  0  0  0  0  0  0  0  0  0  0  0
   59.3840   33.3510   49.8860 C   0  0  0  0  0  0  0  0  0  0  0  0
   59.4030   33.1990   48.5010 C   0  0  0  0  0  0  0  0  0  0  0  0
   58.3660   32.9170   47.6970 N   0  0  0  0  0  0  0  0  0  0  0  0
   58.4590   28.8600   46.9910 C   0  0  0  0  0  0  0  0  0  0  0  0
   58.3670   30.6870   48.8810 H   0  0  0  0  0  0  0  0  0  0  0  0
   59.3390   30.6000   50.2600 H   0  0  0  0  0  0  0  0  0  0  0  0
   60.7796   30.7194   48.4597 H   0  0  0  0  0  0  0  0  0  0  0  0
   60.7928   29.0130   49.0559 H   0  0  0  0  0  0  0  0  0  0  0  0
   61.6985   29.7188   46.2934 H   0  0  0  0  0  0  0  0  0  0  0  0
   60.9845   28.9694   44.0256 H   0  0  0  0  0  0  0  0  0  0  0  0
   58.6580   28.1595   43.6457 H   0  0  0  0  0  0  0  0  0  0  0  0
   56.6412   27.2704   44.6173 H   0  0  0  0  0  0  0  0  0  0  0  0
   56.3183   27.4101   46.3947 H   0  0  0  0  0  0  0  0  0  0  0  0
   57.4009   30.7817   43.1725 H   0  0  0  0  0  0  0  0  0  0  0  0
   56.0199   31.9021   43.5015 H   0  0  0  0  0  0  0  0  0  0  0  0
   57.0190   30.8970   46.0110 H   0  0  0  0  0  0  0  0  0  0  0  0
   60.9255   33.1796   45.5895 H   0  0  0  0  0  0  0  0  0  0  0  0
   62.6928   33.7595   47.7909 H   0  0  0  0  0  0  0  0  0  0  0  0
   60.6181   33.7851   51.6234 H   0  0  0  0  0  0  0  0  0  0  0  0
   58.4510   33.2348   50.4570 H   0  0  0  0  0  0  0  0  0  0  0  0
   57.3720   32.7670   47.9860 H   0  0  0  0  0  0  0  0  0  0  0  0
   57.7404   28.8489   47.8238 H   0  0  0  0  0  0  0  0  0  0  0  0
  1  2  1  0
  2  3  1  0
  3  4  2  0
  4  5  1  0
  5  6  2  0
  6  7  1  0
  7  8  1  0
  8  9  1  0
  9 10  1  0
 10 11  2  0
 10 12  1  0
 12 13  1  0
 13 14  1  0
 14 15  2  0
 14 16  1  0
 16 17  2  0
 17 18  1  0
 18 19  2  0
 19 20  1  0
 20 21  1  0
 20 22  2  0
 22 23  1  0
 23 24  2  0
 24 25  1  0
  7 26  2  0
 26  3  1  0
 25 16  1  0
 24 18  1  0
  1 27  1  0
  1 28  1  0
  2 29  1  0
  2 30  1  0
  4 31  1  0
  5 32  1  0
  6 33  1  0
  8 34  1  0
  8 35  1  0
 12 36  1  0
 12 37  1  0
 13 38  1  0
 17 39  1  0
 19 40  1  0
 22 41  1  0
 23 42  1  0
 25 43  1  0
 26 44  1  0
M  CHG  1   9  -1
M  END
>  <UniqueID>  (9) 
9

>  <SMILES>  (9) 
NCc1cccc(C[N-]C(=O)CNC(=O)c2cc3cc(Cl)ccc3[nH]2)c1

>  <Energy>  (9) 
71.74920228701644

>  <Genealogy>  (9) 
NCc1cccc(C[N-]C(=O)CNC(=O)c2cc3cc(Cl)ccc3[nH]2)c1 (protonated)
NCc1cccc(C[N-]C(=O)CNC(=O)c2cc3cc(Cl)ccc3[nH]2)c1 (3D coordinates assigned)
NCc1cccc(C[N-]C(=O)CNC(=O)c2cc3cc(Cl)ccc3[nH]2)c1 (optimized conformer: 71.74920228701644 kcal/mol)

>  <smiles>  (9) 
NCc1cccc(CNC(=O)CNC(=O)c2cc3cc(Cl)ccc3[nH]2)c1

>  <score_type>  (9) 
oracle

>  <origin>  (9) 
adg

>  <m_score__min__energy>  (9) 
-10.369999999999999

>  <m_primary>  (9) 
energy

$$$$
9:0
     RDKit          3D

 61 64  0  0  0  0  0  0  0  0999 V2000
   67.8530   33.4470   50.7320 C   0  0  0  0  0  0  0  0  0  0  0  0
   66.7430   32.9440   50.1890 C   0  0  0  0  0  0  0  0  0  0  0  0
   66.2570   31.5570   50.5140 C   0  0  0  0  0  0  0  0  0  0  0  0
   65.0770   31.6160   51.3730 N   0  0  0  0  0  0  0  0  0  0  0  0
   64.1850   32.7320   51.4950 C   0  0  0  0  0  0  0  0  0  0  0  0
   64.3910   33.5780   52.4070 O   0  0  0  0  0  0  0  0  0  0  0  0
   63.0680   32.9480   50.5570 C   0  0  0  0  0  0  0  0  0  0  0  0
   61.8650   33.5230   50.9860 C   0  0  0  0  0  0  0  0  0  0  0  0
   60.8130   33.6940   50.0870 C   0  0  0  0  0  0  0  0  0  0  0  0
   60.9700   33.2890   48.7510 C   0  0  0  0  0  0  0  0  0  0  0  0
   59.9050   33.4400   47.7910 N   0  0  0  0  0  0  0  0  0  0  0  0
   60.2210   34.0050   46.4720 C   0  0  0  0  0  0  0  0  0  0  0  0
   59.0060   33.9730   45.5370 C   0  0  0  0  0  0  0  0  0  0  0  0
   58.2870   32.5960   45.5830 C   0  0  0  0  0  0  0  0  0  0  0  0
   57.0530   32.6600   44.6430 C   0  0  0  0  0  0  0  0  0  0  0  0
   56.3330   31.3010   44.4850 C   0  0  0  0  0  0  0  0  0  0  0  0
   57.1380   30.1810   45.0150 N   0  0  0  0  0  0  0  0  0  0  0  0
   56.4930   28.8610   44.8380 C   0  0  0  0  0  0  0  0  0  0  0  0
   57.0830   27.7600   45.7040 C   0  0  0  0  0  0  0  0  0  0  0  0
   58.4700   27.7260   45.9400 C   0  0  0  0  0  0  0  0  0  0  0  0
   59.0320   26.7180   46.7320 C   0  0  0  0  0  0  0  0  0  0  0  0
   60.7620   26.6900   47.0250 Cl  0  0  0  0  0  0  0  0  0  0  0  0
   58.2140   25.7300   47.2880 C   0  0  0  0  0  0  0  0  0  0  0  0
   56.8390   25.7420   47.0450 C   0  0  0  0  0  0  0  0  0  0  0  0
   56.2700   26.7420   46.2480 C   0  0  0  0  0  0  0  0  0  0  0  0
   54.9020   26.7070   45.9950 O   0  0  0  0  0  0  0  0  0  0  0  0
   58.5240   30.2310   44.5230 C   0  0  0  0  0  0  0  0  0  0  0  0
   59.2510   31.4850   45.0540 C   0  0  0  0  0  0  0  0  0  0  0  0
   57.8340   32.2780   47.0540 C   0  0  0  0  0  0  0  0  0  0  0  0
   58.5100   33.1360   48.1400 C   0  0  0  0  0  0  0  0  0  0  0  0
   62.1630   32.7700   48.3530 N   0  0  0  0  0  0  0  0  0  0  0  0
   63.2030   32.5970   49.2100 C   0  0  0  0  0  0  0  0  0  0  0  0
   68.1798   34.4647   50.4725 H   0  0  0  0  0  0  0  0  0  0  0  0
   68.4413   32.8440   51.4392 H   0  0  0  0  0  0  0  0  0  0  0  0
   66.1665   33.5605   49.4836 H   0  0  0  0  0  0  0  0  0  0  0  0
   65.9992   31.0358   49.5802 H   0  0  0  0  0  0  0  0  0  0  0  0
   67.0551   31.0155   51.0430 H   0  0  0  0  0  0  0  0  0  0  0  0
   61.7501   33.8399   52.0331 H   0  0  0  0  0  0  0  0  0  0  0  0
   59.8663   34.1431   50.4217 H   0  0  0  0  0  0  0  0  0  0  0  0
   60.5458   35.0482   46.5993 H   0  0  0  0  0  0  0  0  0  0  0  0
   61.0185   33.3970   46.0199 H   0  0  0  0  0  0  0  0  0  0  0  0
   58.2977   34.7564   45.8446 H   0  0  0  0  0  0  0  0  0  0  0  0
   59.3576   34.1442   44.5088 H   0  0  0  0  0  0  0  0  0  0  0  0
   56.3382   33.3880   45.0543 H   0  0  0  0  0  0  0  0  0  0  0  0
   57.4170   32.9534   43.6473 H   0  0  0  0  0  0  0  0  0  0  0  0
   55.3779   31.3401   45.0293 H   0  0  0  0  0  0  0  0  0  0  0  0
   56.1732   31.1250   43.4110 H   0  0  0  0  0  0  0  0  0  0  0  0
   55.4263   28.9618   45.0869 H   0  0  0  0  0  0  0  0  0  0  0  0
   56.6595   28.5647   43.7918 H   0  0  0  0  0  0  0  0  0  0  0  0
   59.1176   28.4978   45.4985 H   0  0  0  0  0  0  0  0  0  0  0  0
   58.6539   24.9425   47.9175 H   0  0  0  0  0  0  0  0  0  0  0  0
   56.1995   24.9612   47.4824 H   0  0  0  0  0  0  0  0  0  0  0  0
   59.0598   29.3326   44.8634 H   0  0  0  0  0  0  0  0  0  0  0  0
   58.5060   30.2736   43.4240 H   0  0  0  0  0  0  0  0  0  0  0  0
   59.9132   31.1794   45.8775 H   0  0  0  0  0  0  0  0  0  0  0  0
   59.8044   31.9173   44.2073 H   0  0  0  0  0  0  0  0  0  0  0  0
   56.7476   32.4378   47.1192 H   0  0  0  0  0  0  0  0  0  0  0  0
   58.1335   31.2381   47.2513 H   0  0  0  0  0  0  0  0  0  0  0  0
   57.9544   34.0791   48.2485 H   0  0  0  0  0  0  0  0  0  0  0  0
   58.5042   32.5693   49.0828 H   0  0  0  0  0  0  0  0  0  0  0  0
   64.1528   32.1802   48.8437 H   0  0  0  0  0  0  0  0  0  0  0  0
  1  2  2  0
  2  3  1  0
  3  4  1  0
  4  5  1  0
  5  6  2  0
  5  7  1  0
  7  8  2  0
  8  9  1  0
  9 10  2  0
 10 11  1  0
 11 12  1  0
 12 13  1  0
 13 14  1  0
 14 15  1  0
 15 16  1  0
 16 17  1  0
 17 18  1  0
 18 19  1  0
 19 20  2  0
 20 21  1  0
 21 22  1  0
 21 23  2  0
 23 24  1  0
 24 25  2  0
 25 26  1  0
 17 27  1  0
 27 28  1  0
 14 29  1  0
 29 30  1  0
 10 31  1  0
 31 32  2  0
 32  7  1  0
 30 11  1  0
 28 14  1  0
 25 19  1  0
  1 33  1  0
  1 34  1  0
  2 35  1  0
  3 36  1  0
  3 37  1  0
  8 38  1  0
  9 39  1  0
 12 40  1  0
 12 41  1  0
 13 42  1  0
 13 43  1  0
 15 44  1  0
 15 45  1  0
 16 46  1  0
 16 47  1  0
 18 48  1  0
 18 49  1  0
 20 50  1  0
 23 51  1  0
 24 52  1  0
 27 53  1  0
 27 54  1  0
 28 55  1  0
 28 56  1  0
 29 57  1  0
 29 58  1  0
 30 59  1  0
 30 60  1  0
 32 61  1  0
M  CHG  2   4  -1  26  -1
M  END
>  <UniqueID>  (10) 
10

>  <SMILES>  (10) 
C=CC[N-]C(=O)c1ccc(N2CCC3(CCN(Cc4cc(Cl)ccc4[O-])CC3)CC2)nc1

>  <Energy>  (10) 
84.04404932436006

>  <Genealogy>  (10) 
C=CC[N-]C(=O)c1ccc(N2CCC3(CCN(Cc4cc(Cl)ccc4[O-])CC3)CC2)nc1 (protonated)
C=CC[N-]C(=O)c1ccc(N2CCC3(CCN(Cc4cc(Cl)ccc4[O-])CC3)CC2)nc1 (3D coordinates assigned)
C=CC[N-]C(=O)c1ccc(N2CCC3(CCN(Cc4cc(Cl)ccc4[O-])CC3)CC2)nc1 (nonaromatic ring conformer: 84.04404932436006 kcal/mol)

>  <smiles>  (10) 
C=CCNC(=O)c1ccc(N2CCC3(CCN(Cc4cc(Cl)ccc4O)CC3)CC2)nc1

>  <score_type>  (10) 
oracle

>  <origin>  (10) 
adg

>  <m_score__min__energy>  (10) 
-12.69

>  <m_primary>  (10) 
energy

$$$$
10:0
     RDKit          3D

 56 59  0  0  0  0  0  0  0  0999 V2000
   57.9310   21.1200   44.3270 C   0  0  0  0  0  0  0  0  0  0  0  0
   57.0620   22.2720   44.0850 N   0  0  0  0  0  0  0  0  0  0  0  0
   56.3040   22.3520   42.8350 C   0  0  0  0  0  0  0  0  0  0  0  0
   56.9690   23.3070   45.0820 C   0  0  0  0  0  0  0  0  0  0  0  0
   57.0740   22.9990   46.3010 O   0  0  0  0  0  0  0  0  0  0  0  0
   56.7870   24.6880   44.7120 N   0  0  0  0  0  0  0  0  0  0  0  0
   57.4870   25.2340   43.5370 C   0  0  0  0  0  0  0  0  0  0  0  0
   57.7740   26.7360   43.6990 C   0  0  0  0  0  0  0  0  0  0  0  0
   58.1990   27.0450   45.1450 C   0  0  0  0  0  0  0  0  0  0  0  0
   58.5420   28.4650   45.2660 N   0  0  0  0  0  0  0  0  0  0  0  0
   58.9420   29.0600   46.5120 C   0  0  0  0  0  0  0  0  0  0  0  0
   58.9590   28.3630   47.5630 O   0  0  0  0  0  0  0  0  0  0  0  0
   59.3350   30.4850   46.5720 C   0  0  0  0  0  0  0  0  0  0  0  0
   60.3310   30.9250   47.4560 C   0  0  0  0  0  0  0  0  0  0  0  0
   60.6930   32.2780   47.4920 C   0  0  0  0  0  0  0  0  0  0  0  0
   61.7610   32.6980   48.4260 C   0  0  0  0  0  0  0  0  0  0  0  0
   63.1030   32.5120   48.0620 C   0  0  0  0  0  0  0  0  0  0  0  0
   64.1290   32.9020   48.9270 C   0  0  0  0  0  0  0  0  0  0  0  0
   63.8240   33.4850   50.1590 C   0  0  0  0  0  0  0  0  0  0  0  0
   65.1140   33.9730   51.2430 Cl  0  0  0  0  0  0  0  0  0  0  0  0
   62.4890   33.6840   50.5260 C   0  0  0  0  0  0  0  0  0  0  0  0
   61.4540   33.2970   49.6660 C   0  0  0  0  0  0  0  0  0  0  0  0
   59.7890   33.5930   50.1570 Cl  0  0  0  0  0  0  0  0  0  0  0  0
   60.0330   33.1950   46.6440 C   0  0  0  0  0  0  0  0  0  0  0  0
   60.3220   34.5760   46.6480 C   0  0  0  0  0  0  0  0  0  0  0  0
   59.6440   35.4410   45.7850 C   0  0  0  0  0  0  0  0  0  0  0  0
   58.6680   34.9470   44.9150 C   0  0  0  0  0  0  0  0  0  0  0  0
   58.3640   33.5840   44.9060 C   0  0  0  0  0  0  0  0  0  0  0  0
   59.0360   32.7080   45.7660 C   0  0  0  0  0  0  0  0  0  0  0  0
   58.7230   31.3860   45.7570 N   0  0  0  0  0  0  0  0  0  0  0  0
   57.0960   26.6640   46.1660 C   0  0  0  0  0  0  0  0  0  0  0  0
   56.1080   25.6130   45.6280 C   0  0  0  0  0  0  0  0  0  0  0  0
   58.0455   20.9683   45.4105 H   0  0  0  0  0  0  0  0  0  0  0  0
   57.4834   20.2220   43.8762 H   0  0  0  0  0  0  0  0  0  0  0  0
   58.9174   21.3037   43.8762 H   0  0  0  0  0  0  0  0  0  0  0  0
   55.2336   22.4650   43.0619 H   0  0  0  0  0  0  0  0  0  0  0  0
   56.6487   23.2188   42.2520 H   0  0  0  0  0  0  0  0  0  0  0  0
   56.4602   21.4324   42.2520 H   0  0  0  0  0  0  0  0  0  0  0  0
   58.4400   24.6999   43.4087 H   0  0  0  0  0  0  0  0  0  0  0  0
   56.8408   25.0993   42.6571 H   0  0  0  0  0  0  0  0  0  0  0  0
   58.5830   27.0270   43.0128 H   0  0  0  0  0  0  0  0  0  0  0  0
   56.8603   27.3023   43.4656 H   0  0  0  0  0  0  0  0  0  0  0  0
   59.0826   26.4327   45.3782 H   0  0  0  0  0  0  0  0  0  0  0  0
   58.6610   29.0160   44.3860 H   0  0  0  0  0  0  0  0  0  0  0  0
   60.8293   30.2059   48.1228 H   0  0  0  0  0  0  0  0  0  0  0  0
   63.3488   32.0570   47.0911 H   0  0  0  0  0  0  0  0  0  0  0  0
   65.1790   32.7495   48.6369 H   0  0  0  0  0  0  0  0  0  0  0  0
   62.2510   34.1468   51.4951 H   0  0  0  0  0  0  0  0  0  0  0  0
   61.0847   34.9737   47.3337 H   0  0  0  0  0  0  0  0  0  0  0  0
   59.8795   36.5155   45.7904 H   0  0  0  0  0  0  0  0  0  0  0  0
   58.1388   35.6325   44.2367 H   0  0  0  0  0  0  0  0  0  0  0  0
   57.5945   33.1980   44.2213 H   0  0  0  0  0  0  0  0  0  0  0  0
   57.5791   26.2602   47.0680 H   0  0  0  0  0  0  0  0  0  0  0  0
   56.5190   27.5759   46.3791 H   0  0  0  0  0  0  0  0  0  0  0  0
   55.6897   25.0445   46.4717 H   0  0  0  0  0  0  0  0  0  0  0  0
   55.3045   26.1282   45.0812 H   0  0  0  0  0  0  0  0  0  0  0  0
  1  2  1  0
  2  3  1  0
  2  4  1  0
  4  5  2  0
  4  6  1  0
  6  7  1  0
  7  8  1  0
  8  9  1  0
  9 10  1  0
 10 11  1  0
 11 12  2  0
 11 13  1  0
 13 14  2  0
 14 15  1  0
 15 16  1  0
 16 17  2  0
 17 18  1  0
 18 19  2  0
 19 20  1  0
 19 21  1  0
 21 22  2  0
 22 23  1  0
 15 24  2  0
 24 25  1  0
 25 26  2  0
 26 27  1  0
 27 28  2  0
 28 29  1  0
 29 30  2  0
  9 31  1  0
 31 32  1  0
 32  6  1  0
 30 13  1  0
 22 16  1  0
 29 24  1  0
  1 33  1  0
  1 34  1  0
  1 35  1  0
  3 36  1  0
  3 37  1  0
  3 38  1  0
  7 39  1  0
  7 40  1  0
  8 41  1  0
  8 42  1  0
  9 43  1  0
 10 44  1  0
 14 45  1  0
 17 46  1  0
 18 47  1  0
 21 48  1  0
 25 49  1  0
 26 50  1  0
 27 51  1  0
 28 52  1  0
 31 53  1  0
 31 54  1  0
 32 55  1  0
 32 56  1  0
M  END
>  <UniqueID>  (11) 
11

>  <SMILES>  (11) 
CN(C)C(=O)N1CCC(NC(=O)c2cc(-c3ccc(Cl)cc3Cl)c3ccccc3n2)CC1

>  <Energy>  (11) 
74.9905340882261

>  <Genealogy>  (11) 
CN(C)C(=O)N1CCC(NC(=O)c2cc(-c3ccc(Cl)cc3Cl)c3ccccc3n2)CC1 (3D coordinates assigned)
CN(C)C(=O)N1CCC(NC(=O)c2cc(-c3ccc(Cl)cc3Cl)c3ccccc3n2)CC1 (nonaromatic ring conformer: 74.9905340882261 kcal/mol)

>  <smiles>  (11) 
CN(C)C(=O)N1CCC(NC(=O)c2cc(-c3ccc(Cl)cc3Cl)c3ccccc3n2)CC1

>  <score_type>  (11) 
oracle

>  <origin>  (11) 
adg

>  <m_score__min__energy>  (11) 
-9.4900000000000002

>  <m_primary>  (11) 
energy

$$$$
11:0
     RDKit          3D

 38 40  0  0  0  0  0  0  0  0999 V2000
   54.8350   24.8700   45.9870 C   0  0  0  0  0  0  0  0  0  0  0  0
   55.9590   25.7830   45.6180 C   0  0  0  0  0  0  0  0  0  0  0  0
   55.9020   27.0870   45.7660 O   0  0  0  0  0  0  0  0  0  0  0  0
   57.0260   27.6170   45.3310 C   0  0  0  0  0  0  0  0  0  0  0  0
   57.2990   29.0730   45.3450 C   0  0  0  0  0  0  0  0  0  0  0  0
   58.0800   29.6660   46.3550 C   0  0  0  0  0  0  0  0  0  0  0  0
   58.3220   31.0440   46.3460 C   0  0  0  0  0  0  0  0  0  0  0  0
   57.7940   31.8480   45.3290 C   0  0  0  0  0  0  0  0  0  0  0  0
   58.0850   33.5840   45.3300 S   0  0  0  0  0  0  0  0  0  0  0  0
   58.9210   34.0410   46.8310 C   0  0  0  0  0  0  0  0  0  0  0  0
   56.7770   34.3190   45.2380 O   0  0  0  0  0  0  0  0  0  0  0  0
   58.9330   33.9580   44.1480 O   0  0  0  0  0  0  0  0  0  0  0  0
   57.0080   31.2660   44.3270 C   0  0  0  0  0  0  0  0  0  0  0  0
   56.7650   29.8890   44.3330 C   0  0  0  0  0  0  0  0  0  0  0  0
   57.8680   26.6150   44.8730 C   0  0  0  0  0  0  0  0  0  0  0  0
   57.1860   25.4300   45.0770 C   0  0  0  0  0  0  0  0  0  0  0  0
   57.6770   24.0790   44.7300 C   0  0  0  0  0  0  0  0  0  0  0  0
   58.7990   23.6110   45.3010 C   0  0  0  0  0  0  0  0  0  0  0  0
   59.3150   22.2710   44.9600 C   0  0  0  0  0  0  0  0  0  0  0  0
   60.3700   21.8450   45.4970 O   0  0  0  0  0  0  0  0  0  0  0  0
   58.5940   21.4380   43.9830 C   0  0  0  0  0  0  0  0  0  0  0  0
   57.4660   21.8820   43.4250 C   0  0  0  0  0  0  0  0  0  0  0  0
   56.9280   23.2090   43.7850 C   0  0  0  0  0  0  0  0  0  0  0  0
   55.8180   23.5730   43.3150 O   0  0  0  0  0  0  0  0  0  0  0  0
   54.7580   24.8074   47.0825 H   0  0  0  0  0  0  0  0  0  0  0  0
   53.8935   25.2624   45.5751 H   0  0  0  0  0  0  0  0  0  0  0  0
   55.0261   23.8681   45.5751 H   0  0  0  0  0  0  0  0  0  0  0  0
   58.5027   29.0421   47.1563 H   0  0  0  0  0  0  0  0  0  0  0  0
   58.9303   31.4979   47.1422 H   0  0  0  0  0  0  0  0  0  0  0  0
   58.3251   33.7153   47.6963 H   0  0  0  0  0  0  0  0  0  0  0  0
   59.9084   33.5572   46.8627 H   0  0  0  0  0  0  0  0  0  0  0  0
   59.0468   35.1333   46.8627 H   0  0  0  0  0  0  0  0  0  0  0  0
   56.5800   31.8944   43.5321 H   0  0  0  0  0  0  0  0  0  0  0  0
   56.1504   29.4404   43.5386 H   0  0  0  0  0  0  0  0  0  0  0  0
   58.8707   26.7376   44.4376 H   0  0  0  0  0  0  0  0  0  0  0  0
   59.3389   24.2328   46.0303 H   0  0  0  0  0  0  0  0  0  0  0  0
   58.9864   20.4467   43.7123 H   0  0  0  0  0  0  0  0  0  0  0  0
   56.9343   21.2562   42.6931 H   0  0  0  0  0  0  0  0  0  0  0  0
  1  2  1  0
  2  3  1  0
  3  4  1  0
  4  5  1  0
  5  6  2  0
  6  7  1  0
  7  8  2  0
  8  9  1  0
  9 10  1  0
  9 11  2  0
  9 12  2  0
  8 13  1  0
 13 14  2  0
  4 15  2  0
 15 16  1  0
 16 17  1  0
 17 18  2  0
 18 19  1  0
 19 20  2  0
 19 21  1  0
 21 22  2  0
 22 23  1  0
 23 24  2  0
 16  2  2  0
 23 17  1  0
 14  5  1  0
  1 25  1  0
  1 26  1  0
  1 27  1  0
  6 28  1  0
  7 29  1  0
 10 30  1  0
 10 31  1  0
 10 32  1  0
 13 33  1  0
 14 34  1  0
 15 35  1  0
 18 36  1  0
 21 37  1  0
 22 38  1  0
M  END
>  <UniqueID>  (12) 
12

>  <SMILES>  (12) 
Cc1oc(-c2ccc(S(C)(=O)=O)cc2)cc1C1=CC(=O)C=CC1=O

>  <Energy>  (12) 
67.60368435542254

>  <Genealogy>  (12) 
Cc1oc(-c2ccc(S(C)(=O)=O)cc2)cc1C1=CC(=O)C=CC1=O (3D coordinates assigned)
Cc1oc(-c2ccc(S(C)(=O)=O)cc2)cc1C1=CC(=O)C=CC1=O (nonaromatic ring conformer: 67.60368435542254 kcal/mol)

>  <smiles>  (12) 
Cc1oc(-c2ccc(S(C)(=O)=O)cc2)cc1C1=CC(=O)C=CC1=O

>  <score_type>  (12) 
oracle

>  <origin>  (12) 
adg

>  <m_score__min__energy>  (12) 
-8.9600000000000009

>  <m_primary>  (12) 
energy

$$$$
12:0
     RDKit          3D

 46 49  0  0  0  0  0  0  0  0999 V2000
   55.1750   29.4510   44.6590 O   0  0  0  0  0  0  0  0  0  0  0  0
   56.3420   29.8540   44.3990 C   0  0  0  0  0  0  0  0  0  0  0  0
   57.3030   28.9420   43.7050 C   0  0  0  0  0  0  0  0  0  0  0  0
   58.2620   28.3680   44.7110 C   0  0  0  0  0  0  0  0  0  0  0  0
   59.2350   29.1770   45.2080 N   0  0  0  0  0  0  0  0  0  0  0  0
   60.1710   28.7440   46.0570 N   0  0  0  0  0  0  0  0  0  0  0  0
   61.1490   29.7120   46.5610 C   0  0  0  0  0  0  0  0  0  0  0  0
   60.5560   30.4980   47.6850 C   0  0  0  0  0  0  0  0  0  0  0  0
   59.5030   30.0610   48.4190 N   0  0  0  0  0  0  0  0  0  0  0  0
   59.2060   30.9380   49.4110 C   0  0  0  0  0  0  0  0  0  0  0  0
   58.1720   30.7660   50.3310 C   0  0  0  0  0  0  0  0  0  0  0  0
   57.9710   31.7470   51.3200 C   0  0  0  0  0  0  0  0  0  0  0  0
   56.6640   31.5280   52.4750 Cl  0  0  0  0  0  0  0  0  0  0  0  0
   58.8110   32.8870   51.3740 C   0  0  0  0  0  0  0  0  0  0  0  0
   58.5830   34.1260   52.6000 Cl  0  0  0  0  0  0  0  0  0  0  0  0
   59.8500   33.0420   50.4410 C   0  0  0  0  0  0  0  0  0  0  0  0
   60.0220   32.0560   49.4750 C   0  0  0  0  0  0  0  0  0  0  0  0
   61.1700   31.9710   48.2550 S   0  0  0  0  0  0  0  0  0  0  0  0
   60.1800   27.4390   46.4690 C   0  0  0  0  0  0  0  0  0  0  0  0
   61.0480   27.0210   47.2840 O   0  0  0  0  0  0  0  0  0  0  0  0
   59.2160   26.5570   45.9850 C   0  0  0  0  0  0  0  0  0  0  0  0
   58.2470   27.0110   45.0950 C   0  0  0  0  0  0  0  0  0  0  0  0
   57.2990   26.0990   44.6240 O   0  0  0  0  0  0  0  0  0  0  0  0
   56.7820   31.1390   44.8470 N   0  0  0  0  0  0  0  0  0  0  0  0
   57.7170   31.3190   45.9500 C   0  0  0  0  0  0  0  0  0  0  0  0
   58.3590   32.6760   45.8510 C   0  0  0  0  0  0  0  0  0  0  0  0
   58.7380   33.2010   44.6030 C   0  0  0  0  0  0  0  0  0  0  0  0
   59.2800   34.4870   44.5170 C   0  0  0  0  0  0  0  0  0  0  0  0
   59.4390   35.2600   45.6690 C   0  0  0  0  0  0  0  0  0  0  0  0
   59.0590   34.7480   46.9130 C   0  0  0  0  0  0  0  0  0  0  0  0
   58.5190   33.4620   47.0050 C   0  0  0  0  0  0  0  0  0  0  0  0
   56.7485   28.1256   43.2192 H   0  0  0  0  0  0  0  0  0  0  0  0
   57.8624   29.5072   42.9450 H   0  0  0  0  0  0  0  0  0  0  0  0
   62.0398   29.1763   46.9210 H   0  0  0  0  0  0  0  0  0  0  0  0
   61.4300   30.3984   45.7486 H   0  0  0  0  0  0  0  0  0  0  0  0
   57.5242   29.8782   50.2844 H   0  0  0  0  0  0  0  0  0  0  0  0
   60.5107   33.9208   50.4736 H   0  0  0  0  0  0  0  0  0  0  0  0
   59.2208   25.5047   46.3054 H   0  0  0  0  0  0  0  0  0  0  0  0
   56.6530   26.3030   43.8740 H   0  0  0  0  0  0  0  0  0  0  0  0
   57.1767   31.2384   46.9048 H   0  0  0  0  0  0  0  0  0  0  0  0
   58.4945   30.5425   45.9002 H   0  0  0  0  0  0  0  0  0  0  0  0
   58.6078   32.5985   43.6919 H   0  0  0  0  0  0  0  0  0  0  0  0
   59.5819   34.8908   43.5394 H   0  0  0  0  0  0  0  0  0  0  0  0
   59.8635   36.2723   45.5975 H   0  0  0  0  0  0  0  0  0  0  0  0
   59.1850   35.3575   47.8200 H   0  0  0  0  0  0  0  0  0  0  0  0
   58.2179   33.0634   47.9850 H   0  0  0  0  0  0  0  0  0  0  0  0
  1  2  2  0
  2  3  1  0
  3  4  1  0
  4  5  2  0
  5  6  1  0
  6  7  1  0
  7  8  1  0
  8  9  2  0
  9 10  1  0
 10 11  2  0
 11 12  1  0
 12 13  1  0
 12 14  2  0
 14 15  1  0
 14 16  1  0
 16 17  2  0
 17 18  1  0
  6 19  1  0
 19 20  2  0
 19 21  1  0
 21 22  2  0
 22 23  1  0
  2 24  1  0
 24 25  1  0
 25 26  1  0
 26 27  2  0
 27 28  1  0
 28 29  2  0
 29 30  1  0
 30 31  2  0
 22  4  1  0
 31 26  1  0
 18  8  1  0
 17 10  1  0
  3 32  1  0
  3 33  1  0
  7 34  1  0
  7 35  1  0
 11 36  1  0
 16 37  1  0
 21 38  1  0
 23 39  1  0
 25 40  1  0
 25 41  1  0
 27 42  1  0
 28 43  1  0
 29 44  1  0
 30 45  1  0
 31 46  1  0
M  CHG  1  24  -1
M  END
>  <UniqueID>  (13) 
13

>  <SMILES>  (13) 
O=C(Cc1nn(Cc2nc3cc(Cl)c(Cl)cc3s2)c(=O)cc1O)[N-]Cc1ccccc1

>  <Energy>  (13) 
81.4477243722545

>  <Genealogy>  (13) 
O=C(Cc1nn(Cc2nc3cc(Cl)c(Cl)cc3s2)c(=O)cc1O)[N-]Cc1ccccc1 (protonated)
O=C(Cc1nn(Cc2nc3cc(Cl)c(Cl)cc3s2)c(=O)cc1O)[N-]Cc1ccccc1 (3D coordinates assigned)
O=C(Cc1nn(Cc2nc3cc(Cl)c(Cl)cc3s2)c(=O)cc1O)[N-]Cc1ccccc1 (optimized conformer: 81.4477243722545 kcal/mol)

>  <smiles>  (13) 
O=C(Cc1nn(Cc2nc3cc(Cl)c(Cl)cc3s2)c(=O)cc1O)NCc1ccccc1

>  <score_type>  (13) 
oracle

>  <origin>  (13) 
adg

>  <m_score__min__energy>  (13) 
-10.99

>  <m_primary>  (13) 
energy

$$$$
13:0
     RDKit          3D

 43 45  0  0  0  0  0  0  0  0999 V2000
   59.9930   30.7430   45.9440 O   0  0  0  0  0  0  0  0  0  0  0  0
   59.3380   29.8190   45.3370 C   0  0  0  0  0  0  0  0  0  0  0  0
   59.8210   28.4500   45.5510 C   0  0  0  0  0  0  0  0  0  0  0  0
   59.3110   27.6670   47.0700 S   0  0  0  0  0  0  0  0  0  0  0  0
   60.2080   28.4710   48.4150 C   0  0  0  0  0  0  0  0  0  0  0  0
   60.5040   27.6840   49.4700 N   0  0  0  0  0  0  0  0  0  0  0  0
   61.1730   28.2640   50.4830 C   0  0  0  0  0  0  0  0  0  0  0  0
   61.4550   27.5340   51.4780 O   0  0  0  0  0  0  0  0  0  0  0  0
   61.5430   29.6140   50.4450 C   0  0  0  0  0  0  0  0  0  0  0  0
   61.2230   30.4080   49.3370 C   0  0  0  0  0  0  0  0  0  0  0  0
   61.5950   31.8170   49.3020 C   0  0  0  0  0  0  0  0  0  0  0  0
   60.8960   32.6710   48.3510 C   0  0  0  0  0  0  0  0  0  0  0  0
   59.5550   32.9700   48.3580 C   0  0  0  0  0  0  0  0  0  0  0  0
   58.5240   32.3170   49.5870 Cl  0  0  0  0  0  0  0  0  0  0  0  0
   58.9630   33.8010   47.4050 C   0  0  0  0  0  0  0  0  0  0  0  0
   59.7150   34.3650   46.4010 C   0  0  0  0  0  0  0  0  0  0  0  0
   61.0540   34.0800   46.3760 C   0  0  0  0  0  0  0  0  0  0  0  0
   61.6520   33.2490   47.3260 C   0  0  0  0  0  0  0  0  0  0  0  0
   63.3670   32.9930   47.1650 Cl  0  0  0  0  0  0  0  0  0  0  0  0
   60.5520   29.7710   48.3540 N   0  0  0  0  0  0  0  0  0  0  0  0
   58.2350   30.1920   44.5340 N   0  0  0  0  0  0  0  0  0  0  0  0
   57.4070   29.2640   43.7930 C   0  0  0  0  0  0  0  0  0  0  0  0
   56.3470   30.1390   43.1020 C   0  0  0  0  0  0  0  0  0  0  0  0
   56.9830   31.0280   42.2440 O   0  0  0  0  0  0  0  0  0  0  0  0
   57.7610   31.9360   42.9550 C   0  0  0  0  0  0  0  0  0  0  0  0
   57.8780   31.6070   44.4240 C   0  0  0  0  0  0  0  0  0  0  0  0
   59.4594   27.8316   44.7162 H   0  0  0  0  0  0  0  0  0  0  0  0
   60.9164   28.5292   45.6125 H   0  0  0  0  0  0  0  0  0  0  0  0
   62.0893   30.0541   51.2922 H   0  0  0  0  0  0  0  0  0  0  0  0
   61.4202   32.2296   50.3066 H   0  0  0  0  0  0  0  0  0  0  0  0
   62.6432   31.8232   48.9684 H   0  0  0  0  0  0  0  0  0  0  0  0
   57.8837   34.0068   47.4577 H   0  0  0  0  0  0  0  0  0  0  0  0
   59.2575   35.0210   45.6458 H   0  0  0  0  0  0  0  0  0  0  0  0
   61.6778   34.5190   45.5834 H   0  0  0  0  0  0  0  0  0  0  0  0
   60.2610   30.2810   47.4940 H   0  0  0  0  0  0  0  0  0  0  0  0
   58.0066   28.7218   43.0470 H   0  0  0  0  0  0  0  0  0  0  0  0
   56.9531   28.5038   44.4457 H   0  0  0  0  0  0  0  0  0  0  0  0
   55.6592   29.5007   42.5280 H   0  0  0  0  0  0  0  0  0  0  0  0
   55.7756   30.6971   43.8583 H   0  0  0  0  0  0  0  0  0  0  0  0
   58.7708   31.9460   42.5188 H   0  0  0  0  0  0  0  0  0  0  0  0
   57.2652   32.9151   42.8808 H   0  0  0  0  0  0  0  0  0  0  0  0
   58.6595   32.2280   44.8863 H   0  0  0  0  0  0  0  0  0  0  0  0
   56.9280   31.8069   44.9413 H   0  0  0  0  0  0  0  0  0  0  0  0
  1  2  2  0
  2  3  1  0
  3  4  1  0
  4  5  1  0
  5  6  2  0
  6  7  1  0
  7  8  2  0
  7  9  1  0
  9 10  2  0
 10 11  1  0
 11 12  1  0
 12 13  2  0
 13 14  1  0
 13 15  1  0
 15 16  2  0
 16 17  1  0
 17 18  2  0
 18 19  1  0
 10 20  1  0
  2 21  1  0
 21 22  1  0
 22 23  1  0
 23 24  1  0
 24 25  1  0
 25 26  1  0
 20  5  1  0
 26 21  1  0
 18 12  1  0
  3 27  1  0
  3 28  1  0
  9 29  1  0
 11 30  1  0
 11 31  1  0
 15 32  1  0
 16 33  1  0
 17 34  1  0
 20 35  1  0
 22 36  1  0
 22 37  1  0
 23 38  1  0
 23 39  1  0
 25 40  1  0
 25 41  1  0
 26 42  1  0
 26 43  1  0
M  END
>  <smiles>  (14) 
O=C(CSc1nc(=O)cc(Cc2c(Cl)cccc2Cl)[nH]1)N1CCOCC1

>  <score_type>  (14) 
oracle

>  <origin>  (14) 
adg

>  <m_score__min__energy>  (14) 
-8.5500000000000007

>  <m_primary>  (14) 
energy

$$$$
14:0
     RDKit          3D

 52 55  0  0  0  0  0  0  0  0999 V2000
   55.2300   29.4620   44.4840 O   0  0  0  0  0  0  0  0  0  0  0  0
   56.2810   30.0850   44.7900 C   0  0  0  0  0  0  0  0  0  0  0  0
   56.2480   31.5180   44.8220 N   0  0  0  0  0  0  0  0  0  0  0  0
   57.3510   32.3900   45.1140 C   0  0  0  0  0  0  0  0  0  0  0  0
   57.8180   33.3290   44.1780 C   0  0  0  0  0  0  0  0  0  0  0  0
   58.8930   34.1600   44.4960 C   0  0  0  0  0  0  0  0  0  0  0  0
   59.4910   34.0870   45.7550 C   0  0  0  0  0  0  0  0  0  0  0  0
   59.0060   33.1870   46.7190 C   0  0  0  0  0  0  0  0  0  0  0  0
   59.6400   33.1180   48.0560 C   0  0  0  0  0  0  0  0  0  0  0  0
   58.9110   33.0190   49.0820 O   0  0  0  0  0  0  0  0  0  0  0  0
   61.0710   33.1770   48.2080 N   0  0  0  0  0  0  0  0  0  0  0  0
   61.6340   33.7900   49.4120 C   0  0  0  0  0  0  0  0  0  0  0  0
   63.0690   34.2420   49.1330 C   0  0  0  0  0  0  0  0  0  0  0  0
   63.8400   33.1700   48.6230 O   0  0  0  0  0  0  0  0  0  0  0  0
   63.3410   32.7820   47.3580 C   0  0  0  0  0  0  0  0  0  0  0  0
   61.9170   32.2280   47.4740 C   0  0  0  0  0  0  0  0  0  0  0  0
   57.9360   32.3400   46.3840 C   0  0  0  0  0  0  0  0  0  0  0  0
   57.4970   29.3130   45.1210 C   0  0  0  0  0  0  0  0  0  0  0  0
   58.7410   29.6210   44.5490 C   0  0  0  0  0  0  0  0  0  0  0  0
   59.8550   28.8470   44.8760 C   0  0  0  0  0  0  0  0  0  0  0  0
   59.7280   27.7860   45.7720 C   0  0  0  0  0  0  0  0  0  0  0  0
   58.4760   27.5100   46.3440 C   0  0  0  0  0  0  0  0  0  0  0  0
   58.2900   26.3860   47.2790 C   0  0  0  0  0  0  0  0  0  0  0  0
   59.2650   25.9900   47.9720 O   0  0  0  0  0  0  0  0  0  0  0  0
   57.0230   25.7200   47.3710 N   0  0  0  0  0  0  0  0  0  0  0  0
   56.4560   24.8560   46.3740 C   0  0  0  0  0  0  0  0  0  0  0  0
   57.1700   23.7100   46.0000 C   0  0  0  0  0  0  0  0  0  0  0  0
   56.6660   22.8490   45.0220 C   0  0  0  0  0  0  0  0  0  0  0  0
   55.4490   23.1340   44.3990 C   0  0  0  0  0  0  0  0  0  0  0  0
   54.7420   24.2890   44.7430 C   0  0  0  0  0  0  0  0  0  0  0  0
   55.2450   25.1600   45.7160 C   0  0  0  0  0  0  0  0  0  0  0  0
   54.5510   26.3320   45.9940 O   0  0  0  0  0  0  0  0  0  0  0  0
   57.4050   28.2820   46.0060 N   0  0  0  0  0  0  0  0  0  0  0  0
   57.3351   33.4089   43.1929 H   0  0  0  0  0  0  0  0  0  0  0  0
   59.2708   34.8758   43.7511 H   0  0  0  0  0  0  0  0  0  0  0  0
   60.3458   34.7369   45.9937 H   0  0  0  0  0  0  0  0  0  0  0  0
   61.0251   34.6600   49.6991 H   0  0  0  0  0  0  0  0  0  0  0  0
   61.6344   33.0554   50.2307 H   0  0  0  0  0  0  0  0  0  0  0  0
   63.0538   35.0586   48.3962 H   0  0  0  0  0  0  0  0  0  0  0  0
   63.5211   34.5867   50.0747 H   0  0  0  0  0  0  0  0  0  0  0  0
   63.3332   33.6567   46.6910 H   0  0  0  0  0  0  0  0  0  0  0  0
   63.9913   31.9930   46.9525 H   0  0  0  0  0  0  0  0  0  0  0  0
   61.5026   32.0730   46.4669 H   0  0  0  0  0  0  0  0  0  0  0  0
   61.9432   31.2712   48.0161 H   0  0  0  0  0  0  0  0  0  0  0  0
   57.5532   31.6282   47.1302 H   0  0  0  0  0  0  0  0  0  0  0  0
   58.8369   30.4645   43.8495 H   0  0  0  0  0  0  0  0  0  0  0  0
   60.8333   29.0737   44.4271 H   0  0  0  0  0  0  0  0  0  0  0  0
   60.6024   27.1699   46.0287 H   0  0  0  0  0  0  0  0  0  0  0  0
   58.1343   23.4866   46.4798 H   0  0  0  0  0  0  0  0  0  0  0  0
   57.2282   21.9458   44.7424 H   0  0  0  0  0  0  0  0  0  0  0  0
   55.0471   22.4493   43.6376 H   0  0  0  0  0  0  0  0  0  0  0  0
   53.7864   24.5145   44.2471 H   0  0  0  0  0  0  0  0  0  0  0  0
  1  2  2  0
  2  3  1  0
  3  4  1  0
  4  5  2  0
  5  6  1  0
  6  7  2  0
  7  8  1  0
  8  9  1  0
  9 10  2  0
  9 11  1  0
 11 12  1  0
 12 13  1  0
 13 14  1  0
 14 15  1  0
 15 16  1  0
  8 17  2  0
  2 18  1  0
 18 19  2  0
 19 20  1  0
 20 21  2  0
 21 22  1  0
 22 23  1  0
 23 24  2  0
 23 25  1  0
 25 26  1  0
 26 27  2  0
 27 28  1  0
 28 29  2  0
 29 30  1  0
 30 31  2  0
 31 32  1  0
 22 33  2  0
 17  4  1  0
 33 18  1  0
 16 11  1  0
 31 26  1  0
  5 34  1  0
  6 35  1  0
  7 36  1  0
 12 37  1  0
 12 38  1  0
 13 39  1  0
 13 40  1  0
 15 41  1  0
 15 42  1  0
 16 43  1  0
 16 44  1  0
 17 45  1  0
 19 46  1  0
 20 47  1  0
 21 48  1  0
 27 49  1  0
 28 50  1  0
 29 51  1  0
 30 52  1  0
M  CHG  3   3  -1  25  -1  32  -1
M  END
>  <UniqueID>  (15) 
14

>  <SMILES>  (15) 
O=C([N-]c1cccc(C(=O)N2CCOCC2)c1)c1cccc(C(=O)[N-]c2ccccc2[O-])n1

>  <Energy>  (15) 
74.04797830747978

>  <Genealogy>  (15) 
O=C([N-]c1cccc(C(=O)N2CCOCC2)c1)c1cccc(C(=O)[N-]c2ccccc2[O-])n1 (protonated)
O=C([N-]c1cccc(C(=O)N2CCOCC2)c1)c1cccc(C(=O)[N-]c2ccccc2[O-])n1 (3D coordinates assigned)
O=C([N-]c1cccc(C(=O)N2CCOCC2)c1)c1cccc(C(=O)[N-]c2ccccc2[O-])n1 (nonaromatic ring conformer: 74.04797830747978 kcal/mol)

>  <smiles>  (15) 
O=C(Nc1cccc(C(=O)N2CCOCC2)c1)c1cccc(C(=O)Nc2ccccc2O)n1

>  <score_type>  (15) 
oracle

>  <origin>  (15) 
adg

>  <m_score__min__energy>  (15) 
-17.079999999999998

>  <m_primary>  (15) 
energy

$$$$
15:0
     RDKit          3D

 55 57  0  0  0  0  0  0  0  0999 V2000
   59.6160   33.5710   49.7430 C   0  0  0  0  0  0  0  0  0  0  0  0
   60.1410   34.5900   48.7300 C   0  0  1  0  0  0  0  0  0  0  0  0
   61.5620   34.3510   48.4860 N   0  0  0  0  0  0  0  0  0  0  0  0
   62.0470   33.2370   47.7250 C   0  0  0  0  0  0  0  0  0  0  0  0
   62.7650   33.4290   46.7060 O   0  0  0  0  0  0  0  0  0  0  0  0
   61.7690   31.8410   48.2010 C   0  0  0  0  0  0  0  0  0  0  0  0
   60.8170   31.1520   47.3030 N   0  0  0  0  0  0  0  0  0  0  0  0
   61.3830   29.8860   46.8000 C   0  0  0  0  0  0  0  0  0  0  0  0
   60.5450   29.4180   45.6080 C   0  0  0  0  0  0  0  0  0  0  0  0
   59.1220   29.6970   45.8390 N   0  0  0  0  0  0  0  0  0  0  0  0
   58.2590   29.9390   44.7180 C   0  0  0  0  0  0  0  0  0  0  0  0
   58.0530   31.2540   44.2800 C   0  0  0  0  0  0  0  0  0  0  0  0
   57.2560   31.5100   43.1620 C   0  0  0  0  0  0  0  0  0  0  0  0
   56.6580   30.4550   42.4750 C   0  0  0  0  0  0  0  0  0  0  0  0
   56.8470   29.1420   42.9100 C   0  0  0  0  0  0  0  0  0  0  0  0
   57.6370   28.8760   44.0380 C   0  0  0  0  0  0  0  0  0  0  0  0
   57.8310   27.1760   44.5920 S   0  0  0  0  0  0  0  0  0  0  0  0
   56.8720   27.3930   46.1320 C   0  0  0  0  0  0  0  0  0  0  0  0
   55.9310   26.2500   46.3300 C   0  0  0  0  0  0  0  0  0  0  0  0
   54.6170   26.3080   45.7870 N   0  0  0  0  0  0  0  0  0  0  0  0
   56.3050   25.2240   46.9610 O   0  0  0  0  0  0  0  0  0  0  0  0
   58.6290   29.9000   47.2050 C   0  0  0  0  0  0  0  0  0  0  0  0
   59.5110   30.9170   47.9680 C   0  0  0  0  0  0  0  0  0  0  0  0
   59.3630   34.5010   47.4340 C   0  0  0  0  0  0  0  0  0  0  0  0
   58.1380   33.8110   47.3860 C   0  0  0  0  0  0  0  0  0  0  0  0
   57.4300   33.7070   46.1870 C   0  0  0  0  0  0  0  0  0  0  0  0
   57.9390   34.2870   45.0220 C   0  0  0  0  0  0  0  0  0  0  0  0
   59.1600   34.9690   45.0540 C   0  0  0  0  0  0  0  0  0  0  0  0
   59.8720   35.0730   46.2520 C   0  0  0  0  0  0  0  0  0  0  0  0
   59.8047   33.9373   50.7629 H   0  0  0  0  0  0  0  0  0  0  0  0
   58.5345   33.4329   49.5972 H   0  0  0  0  0  0  0  0  0  0  0  0
   60.1313   32.6102   49.5972 H   0  0  0  0  0  0  0  0  0  0  0  0
   60.0097   35.6019   49.1408 H   0  0  0  0  0  0  0  0  0  0  0  0
   62.7122   31.2756   48.2266 H   0  0  0  0  0  0  0  0  0  0  0  0
   61.3242   31.8964   49.2055 H   0  0  0  0  0  0  0  0  0  0  0  0
   62.4238   30.0456   46.4818 H   0  0  0  0  0  0  0  0  0  0  0  0
   61.3667   29.1246   47.5938 H   0  0  0  0  0  0  0  0  0  0  0  0
   60.8756   29.9481   44.7026 H   0  0  0  0  0  0  0  0  0  0  0  0
   60.6792   28.3335   45.4825 H   0  0  0  0  0  0  0  0  0  0  0  0
   58.5219   32.0898   44.8200 H   0  0  0  0  0  0  0  0  0  0  0  0
   57.1001   32.5449   42.8234 H   0  0  0  0  0  0  0  0  0  0  0  0
   56.0370   30.6570   41.5898 H   0  0  0  0  0  0  0  0  0  0  0  0
   56.3739   28.3117   42.3653 H   0  0  0  0  0  0  0  0  0  0  0  0
   57.5645   27.4433   46.9852 H   0  0  0  0  0  0  0  0  0  0  0  0
   56.2899   28.3235   46.0595 H   0  0  0  0  0  0  0  0  0  0  0  0
   53.8090   26.6150   46.3700 H   0  0  0  0  0  0  0  0  0  0  0  0
   57.5974   30.2795   47.1623 H   0  0  0  0  0  0  0  0  0  0  0  0
   58.6642   28.9377   47.7367 H   0  0  0  0  0  0  0  0  0  0  0  0
   58.9711   31.8733   48.0319 H   0  0  0  0  0  0  0  0  0  0  0  0
   59.7152   30.4989   48.9647 H   0  0  0  0  0  0  0  0  0  0  0  0
   57.7349   33.3500   48.2998 H   0  0  0  0  0  0  0  0  0  0  0  0
   56.4713   33.1684   46.1595 H   0  0  0  0  0  0  0  0  0  0  0  0
   57.3789   34.2072   44.0786 H   0  0  0  0  0  0  0  0  0  0  0  0
   59.5599   35.4237   44.1357 H   0  0  0  0  0  0  0  0  0  0  0  0
   60.8349   35.6044   46.2719 H   0  0  0  0  0  0  0  0  0  0  0  0
  1  2  1  0
  2  3  1  0
  3  4  1  0
  4  5  2  0
  4  6  1  0
  6  7  1  0
  7  8  1  0
  8  9  1  0
  9 10  1  0
 10 11  1  0
 11 12  2  0
 12 13  1  0
 13 14  2  0
 14 15  1  0
 15 16  2  0
 16 17  1  0
 17 18  1  0
 18 19  1  0
 19 20  1  0
 19 21  2  0
 10 22  1  0
 22 23  1  0
  2 24  1  0
 24 25  2  0
 25 26  1  0
 26 27  2  0
 27 28  1  0
 28 29  2  0
 23  7  1  0
 29 24  1  0
 16 11  1  0
  1 30  1  0
  1 31  1  0
  1 32  1  0
  2 33  1  1
  6 34  1  0
  6 35  1  0
  8 36  1  0
  8 37  1  0
  9 38  1  0
  9 39  1  0
 12 40  1  0
 13 41  1  0
 14 42  1  0
 15 43  1  0
 18 44  1  0
 18 45  1  0
 20 46  1  0
 22 47  1  0
 22 48  1  0
 23 49  1  0
 23 50  1  0
 25 51  1  0
 26 52  1  0
 27 53  1  0
 28 54  1  0
 29 55  1  0
M  CHG  2   3  -1  20  -1
M  END
>  <UniqueID>  (16) 
15

>  <SMILES>  (16) 
C[C@@H]([N-]C(=O)CN1CCN(c2ccccc2SCC([NH-])=O)CC1)c1ccccc1

>  <Energy>  (16) 
57.61737382232955

>  <Genealogy>  (16) 
CC([N-]C(=O)CN1CCN(c2ccccc2SCC([NH-])=O)CC1)c1ccccc1 (protonated)
C[C@@H]([N-]C(=O)CN1CCN(c2ccccc2SCC([NH-])=O)CC1)c1ccccc1 (chirality)
C[C@@H]([N-]C(=O)CN1CCN(c2ccccc2SCC([NH-])=O)CC1)c1ccccc1 (3D coordinates assigned)
C[C@@H]([N-]C(=O)CN1CCN(c2ccccc2SCC([NH-])=O)CC1)c1ccccc1 (nonaromatic ring conformer: 57.61737382232955 kcal/mol)

>  <smiles>  (16) 
CC(NC(=O)CN1CCN(c2ccccc2SCC(N)=O)CC1)c1ccccc1

>  <score_type>  (16) 
oracle

>  <origin>  (16) 
adg

>  <m_score__min__energy>  (16) 
-13.289999999999999

>  <m_primary>  (16) 
energy

$$$$
16:0
     RDKit          3D

 60 63  0  0  0  0  0  0  0  0999 V2000
   55.7130   23.9170   44.2890 C   0  0  0  0  0  0  0  0  0  0  0  0
   54.6820   24.0360   45.4270 C   0  0  0  0  0  0  0  0  0  0  0  0
   53.2810   23.7700   44.8550 C   0  0  0  0  0  0  0  0  0  0  0  0
   54.9720   23.0010   46.5320 C   0  0  0  0  0  0  0  0  0  0  0  0
   54.6750   25.3650   45.9680 O   0  0  0  0  0  0  0  0  0  0  0  0
   55.7990   26.1520   46.2530 C   0  0  0  0  0  0  0  0  0  0  0  0
   56.6700   25.7650   47.0770 O   0  0  0  0  0  0  0  0  0  0  0  0
   55.9150   27.4330   45.6250 N   0  0  0  0  0  0  0  0  0  0  0  0
   57.1290   28.1650   45.3970 C   0  0  0  0  0  0  0  0  0  0  0  0
   58.2360   27.5880   44.7490 C   0  0  0  0  0  0  0  0  0  0  0  0
   59.3860   28.3460   44.5170 C   0  0  0  0  0  0  0  0  0  0  0  0
   59.4420   29.6810   44.9220 C   0  0  0  0  0  0  0  0  0  0  0  0
   58.3440   30.2730   45.5670 C   0  0  0  0  0  0  0  0  0  0  0  0
   58.3850   31.6940   45.9800 C   0  0  0  0  0  0  0  0  0  0  0  0
   57.3480   32.3990   45.8380 O   0  0  0  0  0  0  0  0  0  0  0  0
   59.5740   32.2920   46.5370 N   0  0  0  0  0  0  0  0  0  0  0  0
   59.8620   33.7180   46.3190 C   0  0  0  0  0  0  0  0  0  0  0  0
   61.3470   33.9220   46.0370 C   0  0  0  0  0  0  0  0  0  0  0  0
   62.1640   33.3300   47.1470 C   0  0  0  0  0  0  0  0  0  0  0  0
   63.3820   33.9140   47.5180 C   0  0  0  0  0  0  0  0  0  0  0  0
   64.1570   33.3480   48.5310 C   0  0  0  0  0  0  0  0  0  0  0  0
   63.7290   32.1840   49.1910 C   0  0  0  0  0  0  0  0  0  0  0  0
   64.5410   31.5930   50.2250 N   0  0  0  0  0  0  0  0  0  0  0  0
   64.0790   30.5800   51.1630 C   0  0  0  0  0  0  0  0  0  0  0  0
   65.1930   30.4360   52.2170 C   0  0  0  0  0  0  0  0  0  0  0  0
   66.4270   31.1680   51.6720 C   0  0  0  0  0  0  0  0  0  0  0  0
   65.9030   31.8860   50.4930 C   0  0  0  0  0  0  0  0  0  0  0  0
   66.6120   32.6240   49.7600 O   0  0  0  0  0  0  0  0  0  0  0  0
   62.5200   31.5840   48.7960 C   0  0  0  0  0  0  0  0  0  0  0  0
   61.7310   32.1530   47.7860 C   0  0  0  0  0  0  0  0  0  0  0  0
   60.4690   31.4460   47.3460 C   0  0  0  0  0  0  0  0  0  0  0  0
   57.1820   29.5120   45.7790 C   0  0  0  0  0  0  0  0  0  0  0  0
   56.7197   23.8008   44.7169 H   0  0  0  0  0  0  0  0  0  0  0  0
   55.4749   23.0404   43.6687 H   0  0  0  0  0  0  0  0  0  0  0  0
   55.6808   24.8248   43.6687 H   0  0  0  0  0  0  0  0  0  0  0  0
   52.5674   23.6345   45.6810 H   0  0  0  0  0  0  0  0  0  0  0  0
   52.9688   24.6249   44.2372 H   0  0  0  0  0  0  0  0  0  0  0  0
   53.3038   22.8601   44.2372 H   0  0  0  0  0  0  0  0  0  0  0  0
   54.8404   23.4707   47.5180 H   0  0  0  0  0  0  0  0  0  0  0  0
   54.2764   22.1546   46.4333 H   0  0  0  0  0  0  0  0  0  0  0  0
   56.0061   22.6392   46.4333 H   0  0  0  0  0  0  0  0  0  0  0  0
   58.1960   26.5378   44.4243 H   0  0  0  0  0  0  0  0  0  0  0  0
   60.2508   27.8895   44.0133 H   0  0  0  0  0  0  0  0  0  0  0  0
   60.3507   30.2720   44.7349 H   0  0  0  0  0  0  0  0  0  0  0  0
   59.2768   34.0791   45.4604 H   0  0  0  0  0  0  0  0  0  0  0  0
   59.5896   34.2801   47.2244 H   0  0  0  0  0  0  0  0  0  0  0  0
   61.6091   33.4298   45.0888 H   0  0  0  0  0  0  0  0  0  0  0  0
   61.5575   34.9994   45.9676 H   0  0  0  0  0  0  0  0  0  0  0  0
   63.7296   34.8243   47.0077 H   0  0  0  0  0  0  0  0  0  0  0  0
   65.1106   33.8169   48.8150 H   0  0  0  0  0  0  0  0  0  0  0  0
   63.1410   30.9004   51.6399 H   0  0  0  0  0  0  0  0  0  0  0  0
   63.8782   29.6244   50.6566 H   0  0  0  0  0  0  0  0  0  0  0  0
   64.8744   30.8894   53.1672 H   0  0  0  0  0  0  0  0  0  0  0  0
   65.4183   29.3761   52.4063 H   0  0  0  0  0  0  0  0  0  0  0  0
   66.8280   31.8720   52.4160 H   0  0  0  0  0  0  0  0  0  0  0  0
   67.2575   30.4891   51.4284 H   0  0  0  0  0  0  0  0  0  0  0  0
   62.1890   30.6563   49.2857 H   0  0  0  0  0  0  0  0  0  0  0  0
   60.7524   30.5673   46.7481 H   0  0  0  0  0  0  0  0  0  0  0  0
   59.9179   31.1699   48.2571 H   0  0  0  0  0  0  0  0  0  0  0  0
   56.3044   29.9788   46.2500 H   0  0  0  0  0  0  0  0  0  0  0  0
  1  2  1  0
  2  3  1  0
  2  4  1  0
  2  5  1  0
  5  6  1  0
  6  7  2  0
  6  8  1  0
  8  9  1  0
  9 10  2  0
 10 11  1  0
 11 12  2  0
 12 13  1  0
 13 14  1  0
 14 15  2  0
 14 16  1  0
 16 17  1  0
 17 18  1  0
 18 19  1  0
 19 20  2  0
 20 21  1  0
 21 22  2  0
 22 23  1  0
 23 24  1  0
 24 25  1  0
 25 26  1  0
 26 27  1  0
 27 28  2  0
 22 29  1  0
 29 30  2  0
 30 31  1  0
 13 32  2  0
 32  9  1  0
 31 16  1  0
 30 19  1  0
 27 23  1  0
  1 33  1  0
  1 34  1  0
  1 35  1  0
  3 36  1  0
  3 37  1  0
  3 38  1  0
  4 39  1  0
  4 40  1  0
  4 41  1  0
 10 42  1  0
 11 43  1  0
 12 44  1  0
 17 45  1  0
 17 46  1  0
 18 47  1  0
 18 48  1  0
 20 49  1  0
 21 50  1  0
 24 51  1  0
 24 52  1  0
 25 53  1  0
 25 54  1  0
 26 55  1  0
 26 56  1  0
 29 57  1  0
 31 58  1  0
 31 59  1  0
 32 60  1  0
M  CHG  1   8  -1
M  END
>  <UniqueID>  (17) 
16

>  <SMILES>  (17) 
CC(C)(C)OC(=O)[N-]c1cccc(C(=O)N2CCc3ccc(N4CCCC4=O)cc3C2)c1

>  <Energy>  (17) 
78.56608968452528

>  <Genealogy>  (17) 
CC(C)(C)OC(=O)[N-]c1cccc(C(=O)N2CCc3ccc(N4CCCC4=O)cc3C2)c1 (protonated)
CC(C)(C)OC(=O)[N-]c1cccc(C(=O)N2CCc3ccc(N4CCCC4=O)cc3C2)c1 (3D coordinates assigned)
CC(C)(C)OC(=O)[N-]c1cccc(C(=O)N2CCc3ccc(N4CCCC4=O)cc3C2)c1 (nonaromatic ring conformer: 78.56608968452528 kcal/mol)

>  <smiles>  (17) 
CC(C)(C)OC(=O)Nc1cccc(C(=O)N2CCc3ccc(N4CCCC4=O)cc3C2)c1

>  <score_type>  (17) 
oracle

>  <origin>  (17) 
adg

>  <m_score__min__energy>  (17) 
-11.23

>  <m_primary>  (17) 
energy

$$$$
17:0
     RDKit          3D

 43 45  0  0  0  0  0  0  0  0999 V2000
   58.7920   28.5220   47.5230 C   0  0  0  0  0  0  0  0  0  0  0  0
   58.3390   28.9830   46.3510 C   0  0  0  0  0  0  0  0  0  0  0  0
   58.2400   30.3060   46.0970 N   0  0  0  0  0  0  0  0  0  0  0  0
   57.8830   30.4360   44.8070 C   0  0  0  0  0  0  0  0  0  0  0  0
   57.6230   31.7530   44.1400 C   0  0  0  0  0  0  0  0  0  0  0  0
   57.6280   32.8630   45.1570 C   0  0  0  0  0  0  0  0  0  0  0  0
   57.1530   32.6420   46.3040 O   0  0  0  0  0  0  0  0  0  0  0  0
   58.1290   34.1730   44.8610 N   0  0  0  0  0  0  0  0  0  0  0  0
   59.4590   34.6620   45.2100 C   0  0  0  0  0  0  0  0  0  0  0  0
   59.7070   34.4940   46.7110 C   0  0  0  0  0  0  0  0  0  0  0  0
   60.7940   33.4850   46.9790 C   0  0  0  0  0  0  0  0  0  0  0  0
   62.1480   33.8430   46.8530 C   0  0  0  0  0  0  0  0  0  0  0  0
   63.1510   32.9100   47.1350 C   0  0  0  0  0  0  0  0  0  0  0  0
   62.8120   31.6190   47.5510 C   0  0  0  0  0  0  0  0  0  0  0  0
   61.4680   31.2590   47.6900 C   0  0  0  0  0  0  0  0  0  0  0  0
   60.4620   32.1890   47.4090 C   0  0  0  0  0  0  0  0  0  0  0  0
   57.7290   29.1960   44.2180 C   0  0  0  0  0  0  0  0  0  0  0  0
   58.0010   28.2550   45.1990 C   0  0  0  0  0  0  0  0  0  0  0  0
   57.9110   26.9270   44.9820 C   0  0  0  0  0  0  0  0  0  0  0  0
   57.3510   25.9430   45.9190 C   0  0  0  0  0  0  0  0  0  0  0  0
   58.0390   24.8870   46.3860 N   0  0  0  0  0  0  0  0  0  0  0  0
   57.1160   24.2010   47.0970 C   0  0  0  0  0  0  0  0  0  0  0  0
   57.3860   23.1340   47.7080 O   0  0  0  0  0  0  0  0  0  0  0  0
   55.8800   24.7400   47.0880 N   0  0  0  0  0  0  0  0  0  0  0  0
   56.0370   25.8370   46.3270 C   0  0  0  0  0  0  0  0  0  0  0  0
   54.9950   26.7000   46.0020 O   0  0  0  0  0  0  0  0  0  0  0  0
   58.8605   27.4382   47.6983 H   0  0  0  0  0  0  0  0  0  0  0  0
   59.0959   29.2269   48.3109 H   0  0  0  0  0  0  0  0  0  0  0  0
   58.4360   31.0890   46.7640 H   0  0  0  0  0  0  0  0  0  0  0  0
   58.4072   31.9423   43.3922 H   0  0  0  0  0  0  0  0  0  0  0  0
   56.6378   31.7189   43.6520 H   0  0  0  0  0  0  0  0  0  0  0  0
   60.2145   34.0907   44.6507 H   0  0  0  0  0  0  0  0  0  0  0  0
   59.5282   35.7291   44.9520 H   0  0  0  0  0  0  0  0  0  0  0  0
   60.0064   35.4638   47.1351 H   0  0  0  0  0  0  0  0  0  0  0  0
   58.7780   34.1343   47.1773 H   0  0  0  0  0  0  0  0  0  0  0  0
   62.4190   34.8595   46.5318 H   0  0  0  0  0  0  0  0  0  0  0  0
   64.2088   33.1925   47.0293 H   0  0  0  0  0  0  0  0  0  0  0  0
   63.6029   30.8862   47.7690 H   0  0  0  0  0  0  0  0  0  0  0  0
   61.2019   30.2441   48.0204 H   0  0  0  0  0  0  0  0  0  0  0  0
   59.4058   31.9046   47.5251 H   0  0  0  0  0  0  0  0  0  0  0  0
   57.4458   28.9946   43.1743 H   0  0  0  0  0  0  0  0  0  0  0  0
   58.2892   26.5478   44.0212 H   0  0  0  0  0  0  0  0  0  0  0  0
   55.1420   27.5040   45.4030 H   0  0  0  0  0  0  0  0  0  0  0  0
  1  2  2  0
  2  3  1  0
  3  4  1  0
  4  5  1  0
  5  6  1  0
  6  7  2  0
  6  8  1  0
  8  9  1  0
  9 10  1  0
 10 11  1  0
 11 12  2  0
 12 13  1  0
 13 14  2  0
 14 15  1  0
 15 16  2  0
  4 17  2  0
 17 18  1  0
 18 19  2  3
 19 20  1  0
 20 21  1  0
 21 22  1  0
 22 23  2  0
 22 24  1  0
 24 25  1  0
 25 26  1  0
 18  2  1  0
 25 20  2  0
 16 11  1  0
  1 27  1  0
  1 28  1  0
  3 29  1  0
  5 30  1  0
  5 31  1  0
  9 32  1  0
  9 33  1  0
 10 34  1  0
 10 35  1  0
 12 36  1  0
 13 37  1  0
 14 38  1  0
 15 39  1  0
 16 40  1  0
 17 41  1  0
 19 42  1  0
 26 43  1  0
M  CHG  3   8  -1  21  -1  24  -1
M  END
>  <UniqueID>  (18) 
17

>  <SMILES>  (18) 
C=c1[nH]c(CC(=O)[N-]CCc2ccccc2)cc1=Cc1[n-]c(=O)[n-]c1O

>  <Energy>  (18) 
106.64843823836956

>  <Genealogy>  (18) 
C=c1[nH]c(CC(=O)[N-]CCc2ccccc2)cc1=Cc1[n-]c(=O)[n-]c1O (protonated)
C=c1[nH]c(CC(=O)[N-]CCc2ccccc2)cc1=Cc1[n-]c(=O)[n-]c1O (3D coordinates assigned)
C=c1[nH]c(CC(=O)[N-]CCc2ccccc2)cc1=Cc1[n-]c(=O)[n-]c1O (optimized conformer: 106.64843823836956 kcal/mol)

>  <smiles>  (18) 
C=c1[nH]c(CC(=O)NCCc2ccccc2)cc1=Cc1[nH]c(=O)[nH]c1O

>  <score_type>  (18) 
oracle

>  <origin>  (18) 
adg

>  <m_score__min__energy>  (18) 
-14.65

>  <m_primary>  (18) 
energy

$$$$
18:0
     RDKit          3D

 60 62  0  0  0  0  0  0  0  0999 V2000
   59.5490   33.5040   49.1100 C   0  0  0  0  0  0  0  0  0  0  0  0
   59.9320   34.3310   47.8800 C   0  0  0  0  0  0  0  0  0  0  0  0
   58.8260   34.5100   46.9120 N   0  0  0  0  0  0  0  0  0  0  0  0
   57.7080   33.5460   46.9770 C   0  0  0  0  0  0  0  0  0  0  0  0
   57.7890   32.4530   45.9000 C   0  0  0  0  0  0  0  0  0  0  0  0
   57.9760   33.0630   44.5050 C   0  0  0  0  0  0  0  0  0  0  0  0
   58.0290   31.9440   43.4420 C   0  0  0  0  0  0  0  0  0  0  0  0
   57.1260   30.4710   43.9270 S   0  0  0  0  0  0  0  0  0  0  0  0
   56.9150   29.6180   42.7040 O   0  0  0  0  0  0  0  0  0  0  0  0
   55.7840   30.8400   44.5040 O   0  0  0  0  0  0  0  0  0  0  0  0
   58.0650   29.5900   45.1090 N   0  0  0  0  0  0  0  0  0  0  0  0
   57.4000   28.3180   45.4360 C   0  0  0  0  0  0  0  0  0  0  0  0
   58.0620   27.6760   46.6690 C   0  0  0  0  0  0  0  0  0  0  0  0
   59.5710   28.0150   46.7950 C   0  0  0  0  0  0  0  0  0  0  0  0
   59.8020   29.2020   47.7550 C   0  0  0  0  0  0  0  0  0  0  0  0
   61.1420   29.7460   47.5780 N   0  0  0  0  0  0  0  0  0  0  0  0
   61.4030   31.1510   47.4790 C   0  0  0  0  0  0  0  0  0  0  0  0
   60.7390   31.8490   46.6640 O   0  0  0  0  0  0  0  0  0  0  0  0
   62.4680   31.7660   48.3130 C   0  0  0  0  0  0  0  0  0  0  0  0
   62.7530   31.2030   49.5720 C   0  0  0  0  0  0  0  0  0  0  0  0
   63.7570   31.7380   50.3830 C   0  0  0  0  0  0  0  0  0  0  0  0
   64.4890   32.8450   49.9530 C   0  0  0  0  0  0  0  0  0  0  0  0
   65.7230   33.5400   50.9940 Cl  0  0  0  0  0  0  0  0  0  0  0  0
   64.2110   33.4280   48.7140 C   0  0  0  0  0  0  0  0  0  0  0  0
   63.2080   32.9000   47.8890 C   0  0  0  0  0  0  0  0  0  0  0  0
   62.8860   33.7410   46.3740 Cl  0  0  0  0  0  0  0  0  0  0  0  0
   60.1880   28.2680   45.4020 C   0  0  0  0  0  0  0  0  0  0  0  0
   59.4320   29.3540   44.5990 C   0  0  0  0  0  0  0  0  0  0  0  0
   59.2550   33.9160   44.5040 C   0  0  0  0  0  0  0  0  0  0  0  0
   59.1820   35.0190   45.5710 C   0  0  0  0  0  0  0  0  0  0  0  0
   59.8074   34.0620   50.0220 H   0  0  0  0  0  0  0  0  0  0  0  0
   58.4672   33.3053   49.0959 H   0  0  0  0  0  0  0  0  0  0  0  0
   60.0972   32.5504   49.0959 H   0  0  0  0  0  0  0  0  0  0  0  0
   60.2605   35.3246   48.2188 H   0  0  0  0  0  0  0  0  0  0  0  0
   60.7281   33.7794   47.3584 H   0  0  0  0  0  0  0  0  0  0  0  0
   57.7186   33.0642   47.9658 H   0  0  0  0  0  0  0  0  0  0  0  0
   56.7795   34.1094   46.8024 H   0  0  0  0  0  0  0  0  0  0  0  0
   58.6415   31.7939   46.1208 H   0  0  0  0  0  0  0  0  0  0  0  0
   56.8474   31.8844   45.9086 H   0  0  0  0  0  0  0  0  0  0  0  0
   57.1245   33.7121   44.2528 H   0  0  0  0  0  0  0  0  0  0  0  0
   57.5958   32.3284   42.5068 H   0  0  0  0  0  0  0  0  0  0  0  0
   59.0838   31.6572   43.3192 H   0  0  0  0  0  0  0  0  0  0  0  0
   56.3379   28.5075   45.6507 H   0  0  0  0  0  0  0  0  0  0  0  0
   57.4927   27.6331   44.5803 H   0  0  0  0  0  0  0  0  0  0  0  0
   57.5457   28.0362   47.5710 H   0  0  0  0  0  0  0  0  0  0  0  0
   57.9791   26.5850   46.5552 H   0  0  0  0  0  0  0  0  0  0  0  0
   60.0853   27.1474   47.2341 H   0  0  0  0  0  0  0  0  0  0  0  0
   59.0613   29.9876   47.5446 H   0  0  0  0  0  0  0  0  0  0  0  0
   59.6947   28.8486   48.7911 H   0  0  0  0  0  0  0  0  0  0  0  0
   62.1786   30.3321   49.9208 H   0  0  0  0  0  0  0  0  0  0  0  0
   63.9707   31.2854   51.3625 H   0  0  0  0  0  0  0  0  0  0  0  0
   64.7832   34.3075   48.3836 H   0  0  0  0  0  0  0  0  0  0  0  0
   61.2314   28.5906   45.5332 H   0  0  0  0  0  0  0  0  0  0  0  0
   60.1194   27.3285   44.8340 H   0  0  0  0  0  0  0  0  0  0  0  0
   59.9981   30.2952   44.6600 H   0  0  0  0  0  0  0  0  0  0  0  0
   59.3438   28.9999   43.5613 H   0  0  0  0  0  0  0  0  0  0  0  0
   60.1192   33.2688   44.7143 H   0  0  0  0  0  0  0  0  0  0  0  0
   59.3595   34.3898   43.5168 H   0  0  0  0  0  0  0  0  0  0  0  0
   60.1640   35.5107   45.6332 H   0  0  0  0  0  0  0  0  0  0  0  0
   58.3887   35.7170   45.2654 H   0  0  0  0  0  0  0  0  0  0  0  0
  1  2  1  0
  2  3  1  0
  3  4  1  0
  4  5  1  0
  5  6  1  0
  6  7  1  0
  7  8  1  0
  8  9  2  0
  8 10  2  0
  8 11  1  0
 11 12  1  0
 12 13  1  0
 13 14  1  0
 14 15  1  0
 15 16  1  0
 16 17  1  0
 17 18  2  0
 17 19  1  0
 19 20  2  0
 20 21  1  0
 21 22  2  0
 22 23  1  0
 22 24  1  0
 24 25  2  0
 25 26  1  0
 14 27  1  0
 27 28  1  0
  6 29  1  0
 29 30  1  0
 30  3  1  0
 28 11  1  0
 25 19  1  0
  1 31  1  0
  1 32  1  0
  1 33  1  0
  2 34  1  0
  2 35  1  0
  4 36  1  0
  4 37  1  0
  5 38  1  0
  5 39  1  0
  6 40  1  0
  7 41  1  0
  7 42  1  0
 12 43  1  0
 12 44  1  0
 13 45  1  0
 13 46  1  0
 14 47  1  0
 15 48  1  0
 15 49  1  0
 20 50  1  0
 21 51  1  0
 24 52  1  0
 27 53  1  0
 27 54  1  0
 28 55  1  0
 28 56  1  0
 29 57  1  0
 29 58  1  0
 30 59  1  0
 30 60  1  0
M  CHG  1  16  -1
M  END
>  <UniqueID>  (19) 
18

>  <SMILES>  (19) 
CCN1CCC(CS(=O)(=O)N2CCC(C[N-]C(=O)c3ccc(Cl)cc3Cl)CC2)CC1

>  <Energy>  (19) 
66.57711656548858

>  <Genealogy>  (19) 
CCN1CCC(CS(=O)(=O)N2CCC(C[N-]C(=O)c3ccc(Cl)cc3Cl)CC2)CC1 (protonated)
CCN1CCC(CS(=O)(=O)N2CCC(C[N-]C(=O)c3ccc(Cl)cc3Cl)CC2)CC1 (3D coordinates assigned)
CCN1CCC(CS(=O)(=O)N2CCC(C[N-]C(=O)c3ccc(Cl)cc3Cl)CC2)CC1 (nonaromatic ring conformer: 66.57711656548858 kcal/mol)

>  <smiles>  (19) 
CCN1CCC(CS(=O)(=O)N2CCC(CNC(=O)c3ccc(Cl)cc3Cl)CC2)CC1

>  <score_type>  (19) 
oracle

>  <origin>  (19) 
adg

>  <m_score__min__energy>  (19) 
-12.42

>  <m_primary>  (19) 
energy

$$$$
19:0
     RDKit          3D

 50 52  0  0  0  0  0  0  0  0999 V2000
   61.0500   28.6220   44.7750 O   0  0  0  0  0  0  0  0  0  0  0  0
   60.0050   29.1480   45.2460 C   0  0  0  0  0  0  0  0  0  0  0  0
   60.1500   30.0430   46.4190 C   0  0  0  0  0  0  0  0  0  0  0  0
   60.5860   29.6370   47.6210 C   0  0  0  0  0  0  0  0  0  0  0  0
   59.9120   29.9770   48.8960 C   0  0  0  0  0  0  0  0  0  0  0  0
   58.5830   29.7420   49.2150 C   0  0  0  0  0  0  0  0  0  0  0  0
   58.4050   30.1830   50.5110 C   0  0  0  0  0  0  0  0  0  0  0  0
   59.6220   30.6680   50.9370 C   0  0  0  0  0  0  0  0  0  0  0  0
   60.5360   30.5510   49.9540 N   0  0  0  0  0  0  0  0  0  0  0  0
   61.9480   30.9350   50.0660 C   0  0  0  0  0  0  0  0  0  0  0  0
   62.3240   31.8960   48.9690 C   0  0  0  0  0  0  0  0  0  0  0  0
   61.6190   33.1030   48.8200 C   0  0  0  0  0  0  0  0  0  0  0  0
   61.9700   34.0050   47.8120 C   0  0  0  0  0  0  0  0  0  0  0  0
   63.0240   33.7070   46.9410 C   0  0  0  0  0  0  0  0  0  0  0  0
   63.3640   34.5830   45.9610 F   0  0  0  0  0  0  0  0  0  0  0  0
   63.7240   32.5040   47.0760 C   0  0  0  0  0  0  0  0  0  0  0  0
   63.3750   31.5980   48.0800 C   0  0  0  0  0  0  0  0  0  0  0  0
   58.7000   28.9660   44.4980 C   0  0  0  0  0  0  0  0  0  0  0  0
   57.5150   29.7350   45.1350 C   0  0  1  0  0  0  0  0  0  0  0  0
   57.2100   31.0990   44.4650 C   0  0  0  0  0  0  0  0  0  0  0  0
   57.8520   32.2890   45.1440 C   0  0  0  0  0  0  0  0  0  0  0  0
   57.8610   32.3950   46.5460 C   0  0  0  0  0  0  0  0  0  0  0  0
   58.4250   33.5160   47.1650 C   0  0  0  0  0  0  0  0  0  0  0  0
   59.0050   34.5270   46.3910 C   0  0  0  0  0  0  0  0  0  0  0  0
   59.0240   34.4160   44.9970 C   0  0  0  0  0  0  0  0  0  0  0  0
   58.4510   33.3030   44.3750 C   0  0  0  0  0  0  0  0  0  0  0  0
   56.2800   28.8720   45.1960 C   0  0  0  0  0  0  0  0  0  0  0  0
   55.1520   29.3270   44.8640 O   0  0  0  0  0  0  0  0  0  0  0  0
   56.3800   27.5650   45.6520 O   0  0  0  0  0  0  0  0  0  0  0  0
   59.8842   31.1033   46.2964 H   0  0  0  0  0  0  0  0  0  0  0  0
   61.4940   29.0175   47.6623 H   0  0  0  0  0  0  0  0  0  0  0  0
   57.8199   29.2922   48.5629 H   0  0  0  0  0  0  0  0  0  0  0  0
   57.4712   30.1529   51.0917 H   0  0  0  0  0  0  0  0  0  0  0  0
   59.8188   31.0892   51.9339 H   0  0  0  0  0  0  0  0  0  0  0  0
   62.1158   31.4157   51.0411 H   0  0  0  0  0  0  0  0  0  0  0  0
   62.5696   30.0320   49.9753 H   0  0  0  0  0  0  0  0  0  0  0  0
   60.7871   33.3386   49.5001 H   0  0  0  0  0  0  0  0  0  0  0  0
   61.4174   34.9499   47.7031 H   0  0  0  0  0  0  0  0  0  0  0  0
   64.5515   32.2707   46.3898 H   0  0  0  0  0  0  0  0  0  0  0  0
   63.9226   30.6489   48.1767 H   0  0  0  0  0  0  0  0  0  0  0  0
   58.8355   29.3254   43.4672 H   0  0  0  0  0  0  0  0  0  0  0  0
   58.4505   27.8953   44.5347 H   0  0  0  0  0  0  0  0  0  0  0  0
   57.8354   29.9756   46.1594 H   0  0  0  0  0  0  0  0  0  0  0  0
   57.5708   31.0600   43.4266 H   0  0  0  0  0  0  0  0  0  0  0  0
   56.1224   31.2468   44.5372 H   0  0  0  0  0  0  0  0  0  0  0  0
   57.4229   31.5934   47.1587 H   0  0  0  0  0  0  0  0  0  0  0  0
   58.4124   33.6025   48.2615 H   0  0  0  0  0  0  0  0  0  0  0  0
   59.4459   35.4089   46.8788 H   0  0  0  0  0  0  0  0  0  0  0  0
   59.4904   35.2055   44.3893 H   0  0  0  0  0  0  0  0  0  0  0  0
   58.4686   33.2197   43.2783 H   0  0  0  0  0  0  0  0  0  0  0  0
  1  2  2  0
  2  3  1  0
  3  4  2  3
  4  5  1  0
  5  6  2  0
  6  7  1  0
  7  8  2  0
  8  9  1  0
  9 10  1  0
 10 11  1  0
 11 12  2  0
 12 13  1  0
 13 14  2  0
 14 15  1  0
 14 16  1  0
 16 17  2  0
  2 18  1  0
 18 19  1  0
 19 20  1  0
 20 21  1  0
 21 22  2  0
 22 23  1  0
 23 24  2  0
 24 25  1  0
 25 26  2  0
 19 27  1  0
 27 28  2  0
 27 29  1  0
  9  5  1  0
 17 11  1  0
 26 21  1  0
  3 30  1  0
  4 31  1  0
  6 32  1  0
  7 33  1  0
  8 34  1  0
 10 35  1  0
 10 36  1  0
 12 37  1  0
 13 38  1  0
 16 39  1  0
 17 40  1  0
 18 41  1  0
 18 42  1  0
 19 43  1  1
 20 44  1  0
 20 45  1  0
 22 46  1  0
 23 47  1  0
 24 48  1  0
 25 49  1  0
 26 50  1  0
M  CHG  1  29  -1
M  END
>  <UniqueID>  (20) 
19

>  <SMILES>  (20) 
O=C(C=Cc1cccn1Cc1ccc(F)cc1)C[C@@H](Cc1ccccc1)C(=O)[O-]

>  <Energy>  (20) 
74.61772557381528

>  <Genealogy>  (20) 
O=C(C=Cc1cccn1Cc1ccc(F)cc1)CC(Cc1ccccc1)C(=O)[O-] (protonated)
O=C(C=Cc1cccn1Cc1ccc(F)cc1)C[C@@H](Cc1ccccc1)C(=O)[O-] (chirality)
O=C(C=Cc1cccn1Cc1ccc(F)cc1)C[C@@H](Cc1ccccc1)C(=O)[O-] (3D coordinates assigned)
O=C(C=Cc1cccn1Cc1ccc(F)cc1)C[C@@H](Cc1ccccc1)C(=O)[O-] (optimized conformer: 74.61772557381528 kcal/mol)

>  <smiles>  (20) 
O=C(C=Cc1cccn1Cc1ccc(F)cc1)CC(Cc1ccccc1)C(=O)O

>  <score_type>  (20) 
oracle

>  <origin>  (20) 
adg

>  <m_score__min__energy>  (20) 
-12.01

>  <m_primary>  (20) 
energy

$$$$
20:0
     RDKit          3D

 34 36  0  0  1  0  0  0  0  0999 V2000
   59.6660   34.6260   45.5950 C   0  0  0  0  0  0  0  0  0  0  0  0
   59.2540   33.9340   46.6120 C   0  0  0  0  0  0  0  0  0  0  0  0
   58.1590   33.1500   46.7860 C   0  0  0  0  0  0  0  0  0  0  0  0
   57.2300   32.9120   45.9080 C   0  0  0  0  0  0  0  0  0  0  0  0
   57.4190   32.2900   44.6080 C   0  0  0  0  0  0  0  0  0  0  0  0
   57.8580   32.8720   43.4570 N   0  0  0  0  0  0  0  0  0  0  0  0
   57.8330   31.9230   42.5100 C   0  0  0  0  0  0  0  0  0  0  0  0
   58.1900   32.1600   41.3140 O   0  0  0  0  0  0  0  0  0  0  0  0
   57.3940   30.7770   43.0500 N   0  0  0  0  0  0  0  0  0  0  0  0
   57.1190   30.9590   44.3720 C   0  0  0  0  0  0  0  0  0  0  0  0
   56.6470   30.0000   45.2460 O   0  0  0  0  0  0  0  0  0  0  0  0
   58.1450   32.6060   48.0690 C   0  0  0  0  0  0  0  0  0  0  0  0
   59.2790   33.0940   48.6680 C   0  0  0  0  0  0  0  0  0  0  0  0
   59.7030   32.7830   50.0740 C   0  0  0  0  0  0  0  0  0  0  0  0
   59.9270   33.8780   47.7960 N   0  0  0  0  0  0  0  0  0  0  0  0
   61.1300   34.5250   48.1240 N   0  0  0  0  0  0  0  0  0  0  0  0
   62.2590   33.9180   48.0830 C   0  0  0  0  0  0  0  0  0  0  0  0
   62.9060   33.3960   49.1650 N   0  0  0  0  0  0  0  0  0  0  0  0
   64.0560   32.8420   48.6970 C   0  0  0  0  0  0  0  0  0  0  0  0
   64.0940   33.0330   47.3450 N   0  0  0  0  0  0  0  0  0  0  0  0
   62.9990   33.6870   46.9740 N   0  0  0  0  0  0  0  0  0  0  0  0
   60.5996   35.2035   45.6646 H   0  0  0  0  0  0  0  0  0  0  0  0
   59.0817   34.6353   44.6630 H   0  0  0  0  0  0  0  0  0  0  0  0
   56.2049   33.2093   46.1740 H   0  0  0  0  0  0  0  0  0  0  0  0
   58.1440   33.8810   43.3970 H   0  0  0  0  0  0  0  0  0  0  0  0
   57.2950   29.9000   42.4870 H   0  0  0  0  0  0  0  0  0  0  0  0
   55.7250   30.0900   45.6770 H   0  0  0  0  0  0  0  0  0  0  0  0
   57.3913   31.9339   48.5052 H   0  0  0  0  0  0  0  0  0  0  0  0
   59.0233   33.2816   50.7807 H   0  0  0  0  0  0  0  0  0  0  0  0
   59.6670   31.6956   50.2358 H   0  0  0  0  0  0  0  0  0  0  0  0
   60.7294   33.1440   50.2358 H   0  0  0  0  0  0  0  0  0  0  0  0
   64.8205   32.3305   49.3003 H   0  0  0  0  0  0  0  0  0  0  0  0
   64.8840   32.6960   46.7490 H   0  0  0  0  0  0  0  0  0  0  0  0
   62.7420   33.9780   46.0070 H   0  0  0  0  0  0  0  0  0  0  0  0
  1  2  2  0
  2  3  1  0
  3  4  2  0
  4  5  1  0
  5  6  1  0
  6  7  1  0
  7  8  2  0
  7  9  1  0
  9 10  1  0
 10 11  1  0
  3 12  1  0
 12 13  2  0
 13 14  1  0
 13 15  1  0
 15 16  1  0
 16 17  2  0
 17 18  1  0
 18 19  2  0
 19 20  1  0
 20 21  1  0
 15  2  1  0
 21 17  1  0
 10  5  2  0
  1 22  1  0
  1 23  1  0
  4 24  1  0
  6 25  1  0
  9 26  1  0
 11 27  1  0
 12 28  1  0
 14 29  1  0
 14 30  1  0
 14 31  1  0
 19 32  1  0
 20 33  1  0
 21 34  1  0
M  END
>  <smiles>  (21) 
C=c1c(=Cc2[nH]c(=O)[nH]c2O)cc(C)n1N=c1nc[nH][nH]1

>  <score_type>  (21) 
oracle

>  <origin>  (21) 
adg

>  <m_score__min__energy>  (21) 
-7.9400000000000004

>  <m_primary>  (21) 
energy

$$$$
21:0
     RDKit          3D

 44 47  0  0  0  0  0  0  0  0999 V2000
   59.9660   27.9980   45.9470 C   0  0  0  0  0  0  0  0  0  0  0  0
   59.2380   29.0860   45.6550 C   0  0  0  0  0  0  0  0  0  0  0  0
   59.7190   30.2740   46.1110 N   0  0  0  0  0  0  0  0  0  0  0  0
   59.0110   31.4320   46.0780 C   0  0  0  0  0  0  0  0  0  0  0  0
   59.6100   32.6440   46.5800 N   0  0  0  0  0  0  0  0  0  0  0  0
   60.8730   32.7050   47.2980 C   0  0  0  0  0  0  0  0  0  0  0  0
   61.0030   34.1440   47.7790 C   0  0  0  0  0  0  0  0  0  0  0  0
   60.0010   34.9520   46.9590 C   0  0  0  0  0  0  0  0  0  0  0  0
   58.9850   33.9480   46.4350 C   0  0  0  0  0  0  0  0  0  0  0  0
   57.6970   31.4080   45.6050 C   0  0  0  0  0  0  0  0  0  0  0  0
   57.1650   30.2270   45.0880 C   0  0  0  0  0  0  0  0  0  0  0  0
   55.9830   30.2490   44.6450 O   0  0  0  0  0  0  0  0  0  0  0  0
   57.9500   29.0460   45.0250 C   0  0  0  0  0  0  0  0  0  0  0  0
   57.4480   27.9710   44.3570 C   0  0  0  0  0  0  0  0  0  0  0  0
   57.3440   26.5940   44.8760 C   0  0  0  0  0  0  0  0  0  0  0  0
   58.3430   25.6930   44.7920 N   0  0  0  0  0  0  0  0  0  0  0  0
   57.8750   24.6150   45.4600 C   0  0  0  0  0  0  0  0  0  0  0  0
   58.7850   23.2710   45.6940 S   0  0  0  0  0  0  0  0  0  0  0  0
   56.6410   24.8070   45.9870 N   0  0  0  0  0  0  0  0  0  0  0  0
   55.8500   23.9060   46.7830 C   0  0  0  0  0  0  0  0  0  0  0  0
   54.5540   23.5470   46.3760 C   0  0  0  0  0  0  0  0  0  0  0  0
   53.7850   22.6810   47.1590 C   0  0  0  0  0  0  0  0  0  0  0  0
   54.3010   22.1690   48.3520 C   0  0  0  0  0  0  0  0  0  0  0  0
   55.5870   22.5260   48.7670 C   0  0  0  0  0  0  0  0  0  0  0  0
   56.3590   23.3940   47.9890 C   0  0  0  0  0  0  0  0  0  0  0  0
   56.3190   26.0630   45.6320 C   0  0  0  0  0  0  0  0  0  0  0  0
   55.1430   26.7110   45.9950 O   0  0  0  0  0  0  0  0  0  0  0  0
   59.6329   27.0060   45.6078 H   0  0  0  0  0  0  0  0  0  0  0  0
   60.8962   28.0977   46.5256 H   0  0  0  0  0  0  0  0  0  0  0  0
   60.8617   32.0139   48.1537 H   0  0  0  0  0  0  0  0  0  0  0  0
   61.7187   32.4122   46.6585 H   0  0  0  0  0  0  0  0  0  0  0  0
   60.7637   34.2122   48.8505 H   0  0  0  0  0  0  0  0  0  0  0  0
   62.0280   34.5217   47.6498 H   0  0  0  0  0  0  0  0  0  0  0  0
   59.5055   35.7028   47.5921 H   0  0  0  0  0  0  0  0  0  0  0  0
   60.4941   35.4933   46.1382 H   0  0  0  0  0  0  0  0  0  0  0  0
   58.0580   33.9968   47.0252 H   0  0  0  0  0  0  0  0  0  0  0  0
   58.7129   34.1538   45.3892 H   0  0  0  0  0  0  0  0  0  0  0  0
   57.0824   32.3196   45.6402 H   0  0  0  0  0  0  0  0  0  0  0  0
   57.0856   28.1459   43.3332 H   0  0  0  0  0  0  0  0  0  0  0  0
   54.1430   23.9487   45.4381 H   0  0  0  0  0  0  0  0  0  0  0  0
   52.7714   22.4021   46.8350 H   0  0  0  0  0  0  0  0  0  0  0  0
   53.6953   21.4850   48.9646 H   0  0  0  0  0  0  0  0  0  0  0  0
   55.9923   22.1235   49.7071 H   0  0  0  0  0  0  0  0  0  0  0  0
   57.3684   23.6773   48.3219 H   0  0  0  0  0  0  0  0  0  0  0  0
  1  2  2  0
  2  3  1  0
  3  4  1  0
  4  5  1  0
  5  6  1  0
  6  7  1  0
  7  8  1  0
  8  9  1  0
  4 10  2  0
 10 11  1  0
 11 12  2  0
 11 13  1  0
 13 14  2  3
 14 15  1  0
 15 16  1  0
 16 17  1  0
 17 18  2  0
 17 19  1  0
 19 20  1  0
 20 21  2  0
 21 22  1  0
 22 23  2  0
 23 24  1  0
 24 25  2  0
 19 26  1  0
 26 27  1  0
 13  2  1  0
 26 15  2  0
  9  5  1  0
 25 20  1  0
  1 28  1  0
  1 29  1  0
  6 30  1  0
  6 31  1  0
  7 32  1  0
  7 33  1  0
  8 34  1  0
  8 35  1  0
  9 36  1  0
  9 37  1  0
 10 38  1  0
 14 39  1  0
 21 40  1  0
 22 41  1  0
 23 42  1  0
 24 43  1  0
 25 44  1  0
M  CHG  3   3  -1  16  -1  27  -1
M  END
>  <UniqueID>  (22) 
20

>  <SMILES>  (22) 
C=c1[n-]c(N2CCCC2)cc(=O)c1=Cc1[n-]c(=S)n(-c2ccccc2)c1[O-]

>  <Energy>  (22) 
108.62119748079093

>  <Genealogy>  (22) 
C=c1[n-]c(N2CCCC2)cc(=O)c1=Cc1[n-]c(=S)n(-c2ccccc2)c1[O-] (protonated)
C=c1[n-]c(N2CCCC2)cc(=O)c1=Cc1[n-]c(=S)n(-c2ccccc2)c1[O-] (3D coordinates assigned)
C=c1[n-]c(N2CCCC2)cc(=O)c1=Cc1[n-]c(=S)n(-c2ccccc2)c1[O-] (nonaromatic ring conformer: 108.62119748079093 kcal/mol)

>  <smiles>  (22) 
C=c1[nH]c(N2CCCC2)cc(=O)c1=Cc1[nH]c(=S)n(-c2ccccc2)c1O

>  <score_type>  (22) 
oracle

>  <origin>  (22) 
adg

>  <m_score__min__energy>  (22) 
-13.66

>  <m_primary>  (22) 
energy

$$$$
22:0
     RDKit          3D

 40 42  0  0  0  0  0  0  0  0999 V2000
   56.6260   29.5770   42.7190 C   0  0  0  0  0  0  0  0  0  0  0  0
   57.3180   29.9260   44.0030 C   0  0  0  0  0  0  0  0  0  0  0  0
   57.5270   29.0750   45.0780 C   0  0  0  0  0  0  0  0  0  0  0  0
   57.0820   27.7150   45.1970 N   0  0  0  0  0  0  0  0  0  0  0  0
   57.7770   26.7270   45.9760 C   0  0  0  0  0  0  0  0  0  0  0  0
   59.0030   26.8760   46.2270 O   0  0  0  0  0  0  0  0  0  0  0  0
   57.1020   25.5000   46.4450 C   0  0  0  0  0  0  0  0  0  0  0  0
   57.7560   24.5250   47.0960 C   0  0  0  0  0  0  0  0  0  0  0  0
   57.0520   23.4090   47.5670 O   0  0  0  0  0  0  0  0  0  0  0  0
   55.6250   23.3850   47.6050 C   0  0  0  0  0  0  0  0  0  0  0  0
   55.0680   24.0910   46.3690 C   0  0  0  0  0  0  0  0  0  0  0  0
   55.7320   25.3440   46.1900 O   0  0  0  0  0  0  0  0  0  0  0  0
   58.1330   29.8610   46.0390 C   0  0  0  0  0  0  0  0  0  0  0  0
   58.4670   29.4930   47.1980 O   0  0  0  0  0  0  0  0  0  0  0  0
   58.2940   31.1110   45.5610 N   0  0  0  0  0  0  0  0  0  0  0  0
   58.9100   32.2070   46.2620 C   0  0  0  0  0  0  0  0  0  0  0  0
   60.2260   32.0920   46.7370 C   0  0  0  0  0  0  0  0  0  0  0  0
   60.8280   33.1600   47.4090 C   0  0  0  0  0  0  0  0  0  0  0  0
   60.1220   34.3510   47.6060 C   0  0  0  0  0  0  0  0  0  0  0  0
   58.8150   34.4760   47.1270 C   0  0  0  0  0  0  0  0  0  0  0  0
   58.2100   33.4090   46.4540 C   0  0  0  0  0  0  0  0  0  0  0  0
   57.7790   31.1590   44.3340 N   0  0  0  0  0  0  0  0  0  0  0  0
   57.7040   32.3570   43.4920 C   0  0  0  0  0  0  0  0  0  0  0  0
   55.6641   29.0919   42.9410 H   0  0  0  0  0  0  0  0  0  0  0  0
   56.4488   30.4935   42.1371 H   0  0  0  0  0  0  0  0  0  0  0  0
   57.2576   28.8897   42.1371 H   0  0  0  0  0  0  0  0  0  0  0  0
   56.2690   27.4130   44.6170 H   0  0  0  0  0  0  0  0  0  0  0  0
   58.8411   24.6020   47.2591 H   0  0  0  0  0  0  0  0  0  0  0  0
   55.2765   22.3418   47.6190 H   0  0  0  0  0  0  0  0  0  0  0  0
   55.2746   23.9021   48.5104 H   0  0  0  0  0  0  0  0  0  0  0  0
   55.2319   23.4604   45.4827 H   0  0  0  0  0  0  0  0  0  0  0  0
   53.9904   24.2657   46.5038 H   0  0  0  0  0  0  0  0  0  0  0  0
   60.7856   31.1581   46.5799 H   0  0  0  0  0  0  0  0  0  0  0  0
   61.8579   33.0634   47.7831 H   0  0  0  0  0  0  0  0  0  0  0  0
   60.5954   35.1894   48.1380 H   0  0  0  0  0  0  0  0  0  0  0  0
   58.2614   35.4143   47.2793 H   0  0  0  0  0  0  0  0  0  0  0  0
   57.1828   33.5120   46.0741 H   0  0  0  0  0  0  0  0  0  0  0  0
   57.6480   33.2510   44.1305 H   0  0  0  0  0  0  0  0  0  0  0  0
   58.6002   32.4155   42.8569 H   0  0  0  0  0  0  0  0  0  0  0  0
   56.8075   32.3033   42.8569 H   0  0  0  0  0  0  0  0  0  0  0  0
  1  2  1  0
  2  3  2  0
  3  4  1  0
  4  5  1  0
  5  6  2  0
  5  7  1  0
  7  8  2  0
  8  9  1  0
  9 10  1  0
 10 11  1  0
 11 12  1  0
  3 13  1  0
 13 14  2  0
 13 15  1  0
 15 16  1  0
 16 17  2  0
 17 18  1  0
 18 19  2  0
 19 20  1  0
 20 21  2  0
 15 22  1  0
 22 23  1  0
 22  2  1  0
 12  7  1  0
 21 16  1  0
  1 24  1  0
  1 25  1  0
  1 26  1  0
  4 27  1  0
  8 28  1  0
 10 29  1  0
 10 30  1  0
 11 31  1  0
 11 32  1  0
 17 33  1  0
 18 34  1  0
 19 35  1  0
 20 36  1  0
 21 37  1  0
 23 38  1  0
 23 39  1  0
 23 40  1  0
M  END
>  <UniqueID>  (23) 
21

>  <SMILES>  (23) 
Cc1c(NC(=O)C2=COCCO2)c(=O)n(-c2ccccc2)n1C

>  <Energy>  (23) 
86.26135385054623

>  <Genealogy>  (23) 
Cc1c(NC(=O)C2=COCCO2)c(=O)n(-c2ccccc2)n1C (3D coordinates assigned)
Cc1c(NC(=O)C2=COCCO2)c(=O)n(-c2ccccc2)n1C (nonaromatic ring conformer: 86.26135385054623 kcal/mol)

>  <smiles>  (23) 
Cc1c(NC(=O)C2=COCCO2)c(=O)n(-c2ccccc2)n1C

>  <score_type>  (23) 
oracle

>  <origin>  (23) 
adg

>  <m_score__min__energy>  (23) 
-7.6799999999999997

>  <m_primary>  (23) 
energy

$$$$
23:0
     RDKit          3D

 37 38  0  0  0  0  0  0  0  0999 V2000
   56.1450   26.8930   45.7580 O   0  0  0  0  0  0  0  0  0  0  0  0
   56.5180   28.0580   45.4560 C   0  0  0  0  0  0  0  0  0  0  0  0
   57.9570   28.4380   45.6740 C   0  0  0  0  0  0  0  0  0  0  0  0
   58.0680   29.5300   46.6370 N   0  0  0  0  0  0  0  0  0  0  0  0
   59.0370   29.5330   47.6950 C   0  0  0  0  0  0  0  0  0  0  0  0
   59.8550   28.5800   47.8120 O   0  0  0  0  0  0  0  0  0  0  0  0
   59.1140   30.6920   48.6390 C   0  0  0  0  0  0  0  0  0  0  0  0
   59.4250   31.9540   47.8830 C   0  0  0  0  0  0  0  0  0  0  0  0
   58.6180   33.0930   48.0460 C   0  0  0  0  0  0  0  0  0  0  0  0
   58.9260   34.2780   47.3700 C   0  0  0  0  0  0  0  0  0  0  0  0
   60.0450   34.3360   46.5340 C   0  0  0  0  0  0  0  0  0  0  0  0
   60.8590   33.2120   46.3760 C   0  0  0  0  0  0  0  0  0  0  0  0
   60.5540   32.0250   47.0510 C   0  0  0  0  0  0  0  0  0  0  0  0
   55.5530   28.9690   44.9130 N   0  0  0  0  0  0  0  0  0  0  0  0
   55.6380   29.6500   43.6230 C   0  0  0  0  0  0  0  0  0  0  0  0
   56.5540   30.8360   43.6950 C   0  0  0  0  0  0  0  0  0  0  0  0
   57.2680   31.2600   42.5650 C   0  0  0  0  0  0  0  0  0  0  0  0
   58.1090   32.3700   42.6630 C   0  0  0  0  0  0  0  0  0  0  0  0
   58.2250   33.0480   43.8780 C   0  0  0  0  0  0  0  0  0  0  0  0
   57.4930   32.6040   44.9810 C   0  0  0  0  0  0  0  0  0  0  0  0
   56.6790   31.5200   44.8660 N   0  0  0  0  0  0  0  0  0  0  0  0
   58.5063   27.5645   46.0553 H   0  0  0  0  0  0  0  0  0  0  0  0
   58.3815   28.7707   44.7153 H   0  0  0  0  0  0  0  0  0  0  0  0
   57.4460   30.3620   46.5180 H   0  0  0  0  0  0  0  0  0  0  0  0
   58.1494   30.8055   49.1553 H   0  0  0  0  0  0  0  0  0  0  0  0
   59.9117   30.5061   49.3732 H   0  0  0  0  0  0  0  0  0  0  0  0
   57.7405   33.0523   48.7080 H   0  0  0  0  0  0  0  0  0  0  0  0
   58.2875   35.1648   47.4962 H   0  0  0  0  0  0  0  0  0  0  0  0
   60.2846   35.2675   46.0002 H   0  0  0  0  0  0  0  0  0  0  0  0
   61.7408   33.2601   45.7202 H   0  0  0  0  0  0  0  0  0  0  0  0
   61.2012   31.1439   46.9295 H   0  0  0  0  0  0  0  0  0  0  0  0
   56.0214   28.9457   42.8700 H   0  0  0  0  0  0  0  0  0  0  0  0
   54.6328   30.0023   43.3482 H   0  0  0  0  0  0  0  0  0  0  0  0
   57.1664   30.7230   41.6104 H   0  0  0  0  0  0  0  0  0  0  0  0
   58.6787   32.7095   41.7854 H   0  0  0  0  0  0  0  0  0  0  0  0
   58.8861   33.9228   43.9654 H   0  0  0  0  0  0  0  0  0  0  0  0
   57.5745   33.1308   45.9432 H   0  0  0  0  0  0  0  0  0  0  0  0
  1  2  2  0
  2  3  1  0
  3  4  1  0
  4  5  1  0
  5  6  2  0
  5  7  1  0
  7  8  1  0
  8  9  2  0
  9 10  1  0
 10 11  2  0
 11 12  1  0
 12 13  2  0
  2 14  1  0
 14 15  1  0
 15 16  1  0
 16 17  2  0
 17 18  1  0
 18 19  2  0
 19 20  1  0
 20 21  2  0
 13  8  1  0
 21 16  1  0
  3 22  1  0
  3 23  1  0
  4 24  1  0
  7 25  1  0
  7 26  1  0
  9 27  1  0
 10 28  1  0
 11 29  1  0
 12 30  1  0
 13 31  1  0
 15 32  1  0
 15 33  1  0
 17 34  1  0
 18 35  1  0
 19 36  1  0
 20 37  1  0
M  CHG  1  14  -1
M  END
>  <UniqueID>  (24) 
22

>  <SMILES>  (24) 
O=C(CNC(=O)Cc1ccccc1)[N-]Cc1ccccn1

>  <Energy>  (24) 
30.45273540285103

>  <Genealogy>  (24) 
O=C(CNC(=O)Cc1ccccc1)[N-]Cc1ccccn1 (protonated)
O=C(CNC(=O)Cc1ccccc1)[N-]Cc1ccccn1 (3D coordinates assigned)
O=C(CNC(=O)Cc1ccccc1)[N-]Cc1ccccn1 (optimized conformer: 30.45273540285103 kcal/mol)

>  <smiles>  (24) 
O=C(CNC(=O)Cc1ccccc1)NCc1ccccn1

>  <score_type>  (24) 
oracle

>  <origin>  (24) 
adg

>  <m_score__min__energy>  (24) 
-9.0099999999999998

>  <m_primary>  (24) 
energy

$$$$
24:0
     RDKit          3D

 33 34  0  0  0  0  0  0  0  0999 V2000
   57.3588   34.6242   44.2319 H   0  0  0  0  0  0  0  0  0  0  0  0
   57.6720   33.7320   44.7940 C   0  0  0  0  0  0  0  0  0  0  0  0
   57.4630   32.4150   44.1520 C   0  0  0  0  0  0  0  0  0  0  0  0
   57.8500   32.2190   42.9710 O   0  0  0  0  0  0  0  0  0  0  0  0
   56.8840   31.3230   44.8740 N   0  0  0  0  0  0  0  0  0  0  0  0
   57.5190   30.0200   45.0420 C   0  0  0  0  0  0  0  0  0  0  0  0
   58.1764   29.8229   44.1823 H   0  0  0  0  0  0  0  0  0  0  0  0
   58.1069   30.0250   45.9717 H   0  0  0  0  0  0  0  0  0  0  0  0
   56.4580   28.9210   45.1290 C   0  0  0  0  0  0  0  0  0  0  0  0
   55.6346   29.2690   45.7700 H   0  0  0  0  0  0  0  0  0  0  0  0
   56.0986   28.7068   44.1117 H   0  0  0  0  0  0  0  0  0  0  0  0
   57.0260   27.6490   45.7080 C   0  0  0  0  0  0  0  0  0  0  0  0
   56.1820   26.6040   46.1280 C   0  0  0  0  0  0  0  0  0  0  0  0
   54.8010   26.7030   45.9960 O   0  0  0  0  0  0  0  0  0  0  0  0
   56.7410   25.4510   46.6860 C   0  0  0  0  0  0  0  0  0  0  0  0
   56.0890   24.6258   47.0085 H   0  0  0  0  0  0  0  0  0  0  0  0
   58.0880   25.3470   46.8310 N   0  0  0  0  0  0  0  0  0  0  0  0
   58.9280   26.3430   46.4440 C   0  0  0  0  0  0  0  0  0  0  0  0
   60.1690   26.2100   46.5990 O   0  0  0  0  0  0  0  0  0  0  0  0
   58.4120   27.5140   45.8800 C   0  0  0  0  0  0  0  0  0  0  0  0
   59.0890   28.3248   45.5729 H   0  0  0  0  0  0  0  0  0  0  0  0
   58.2130   33.9250   46.0070 C   0  0  0  0  0  0  0  0  0  0  0  0
   57.6351   34.5279   46.7229 H   0  0  0  0  0  0  0  0  0  0  0  0
   59.5130   33.4010   46.4660 C   0  0  0  0  0  0  0  0  0  0  0  0
   60.6060   34.1290   46.4970 O   0  0  0  0  0  0  0  0  0  0  0  0
   61.5940   33.3670   46.9020 C   0  0  0  0  0  0  0  0  0  0  0  0
   62.9370   33.8300   47.0590 N   0  0  0  0  0  0  0  0  0  0  0  0
   63.4000   34.0630   48.1950 O   0  0  0  0  0  0  0  0  0  0  0  0
   63.7290   34.0230   45.9520 O   0  0  0  0  0  0  0  0  0  0  0  0
   61.1500   32.0820   47.1410 C   0  0  0  0  0  0  0  0  0  0  0  0
   61.7451   31.2248   47.4890 H   0  0  0  0  0  0  0  0  0  0  0  0
   59.8030   32.1010   46.8510 C   0  0  0  0  0  0  0  0  0  0  0  0
   59.1007   31.2566   46.9125 H   0  0  0  0  0  0  0  0  0  0  0  0
  1  2  1  0
  2  3  1  0
  3  4  2  0
  3  5  1  0
  5  6  1  0
  6  7  1  0
  6  8  1  0
  6  9  1  0
  9 10  1  0
  9 11  1  0
  9 12  1  0
 12 13  1  0
 13 14  1  0
 13 15  2  0
 15 16  1  0
 15 17  1  0
 17 18  1  0
 18 19  2  0
 18 20  1  0
 20 21  1  0
  2 22  2  0
 22 23  1  0
 22 24  1  0
 24 25  1  0
 25 26  1  0
 26 27  1  0
 27 28  2  0
 27 29  1  0
 26 30  2  0
 30 31  1  0
 30 32  1  0
 32 33  1  0
 20 12  2  0
 32 24  2  0
M  CHG  5   5  -1  14  -1  17  -1  27   1  29  -1
M  END
>  <UniqueID>  (25) 
23

>  <SMILES>  (25) 
O=C(/C=C\c1ccc([N+](=O)[O-])o1)[N-]CCc1cc(=O)[n-]cc1[O-]

>  <Energy>  (25) 
63.539953355343215

>  <Genealogy>  (25) 
O=C(C=Cc1ccc([N+](=O)[O-])o1)[N-]CCc1cc(=O)[n-]cc1[O-] (protonated)
O=C(/C=C\c1ccc([N+](=O)[O-])o1)[N-]CCc1cc(=O)[n-]cc1[O-] (cis-trans isomerization)
O=C(/C=C\c1ccc([N+](=O)[O-])o1)[N-]CCc1cc(=O)[n-]cc1[O-] (3D coordinates assigned)
O=C(/C=C\c1ccc([N+](=O)[O-])o1)[N-]CCc1cc(=O)[n-]cc1[O-] (optimized conformer: 63.539953355343215 kcal/mol)

>  <smiles>  (25) 
O=C(C=Cc1ccc([N+](=O)[O-])o1)NCCc1cc(=O)[nH]cc1O

>  <score_type>  (25) 
oracle

>  <origin>  (25) 
adg

>  <m_score__min__energy>  (25) 
-13.82

>  <m_primary>  (25) 
energy

$$$$
25:0
     RDKit          3D

 38 40  0  0  0  0  0  0  0  0999 V2000
   57.9010   30.4850   50.4030 H   0  0  0  0  0  0  0  0  0  0  0  0
   58.4490   29.7700   49.9410 O   0  0  0  0  0  0  0  0  0  0  0  0
   59.5370   29.1870   50.5810 C   0  0  0  0  0  0  0  0  0  0  0  0
   60.7160   28.9510   49.9760 N   0  0  0  0  0  0  0  0  0  0  0  0
   61.4980   28.4010   50.9300 C   0  0  0  0  0  0  0  0  0  0  0  0
   62.5389   28.0820   50.7728 H   0  0  0  0  0  0  0  0  0  0  0  0
   60.8200   28.2910   52.1300 C   0  0  0  0  0  0  0  0  0  0  0  0
   61.2109   27.8897   53.0767 H   0  0  0  0  0  0  0  0  0  0  0  0
   59.5560   28.7860   51.8990 C   0  0  0  0  0  0  0  0  0  0  0  0
   58.4600   28.9490   52.9130 C   0  0  0  0  0  0  0  0  0  0  0  0
   58.8265   28.6076   53.8923 H   0  0  0  0  0  0  0  0  0  0  0  0
   57.5972   28.3506   52.5851 H   0  0  0  0  0  0  0  0  0  0  0  0
   58.0110   30.4120   53.0320 C   0  0  0  0  0  0  0  0  0  0  0  0
   58.6947   31.0418   52.4439 H   0  0  0  0  0  0  0  0  0  0  0  0
   58.0315   30.6871   54.0969 H   0  0  0  0  0  0  0  0  0  0  0  0
   56.6040   30.6170   52.5260 C   0  0  0  0  0  0  0  0  0  0  0  0
   56.4600   31.1110   51.3750 O   0  0  0  0  0  0  0  0  0  0  0  0
   55.3950   30.3000   53.3410 C   0  0  0  0  0  0  0  0  0  0  0  0
   55.5080   29.4270   54.4320 C   0  0  0  0  0  0  0  0  0  0  0  0
   56.4777   28.9580   54.6551 H   0  0  0  0  0  0  0  0  0  0  0  0
   54.4070   29.1470   55.2360 C   0  0  0  0  0  0  0  0  0  0  0  0
   54.5223   28.4680   56.0937 H   0  0  0  0  0  0  0  0  0  0  0  0
   53.1490   29.7180   54.9700 C   0  0  0  0  0  0  0  0  0  0  0  0
   52.2130   29.6190   55.9310 C   0  0  0  0  0  0  0  0  0  0  0  0
   51.2133   30.0493   55.7715 H   0  0  0  0  0  0  0  0  0  0  0  0
   52.4473   29.1077   56.8764 H   0  0  0  0  0  0  0  0  0  0  0  0
   52.9770   30.4860   53.7750 C   0  0  0  0  0  0  0  0  0  0  0  0
   51.7830   30.8960   53.2750 C   0  0  0  0  0  0  0  0  0  0  0  0
   50.9725   31.0713   53.9977 H   0  0  0  0  0  0  0  0  0  0  0  0
   51.4730   31.1280   51.8510 C   0  0  0  0  0  0  0  0  0  0  0  0
   51.6940   30.2440   50.8590 N   0  0  0  0  0  0  0  0  0  0  0  0
   51.3690   30.9360   49.7450 C   0  0  0  0  0  0  0  0  0  0  0  0
   51.4350   30.4340   48.5930 O   0  0  0  0  0  0  0  0  0  0  0  0
   50.9800   32.2100   49.9630 N   0  0  0  0  0  0  0  0  0  0  0  0
   51.0630   32.3180   51.2990 C   0  0  0  0  0  0  0  0  0  0  0  0
   50.7740   33.4820   52.0000 O   0  0  0  0  0  0  0  0  0  0  0  0
   54.1300   30.8320   53.0320 C   0  0  0  0  0  0  0  0  0  0  0  0
   54.0349   31.5349   52.1913 H   0  0  0  0  0  0  0  0  0  0  0  0
  1  2  1  0
  2  3  1  0
  3  4  1  0
  4  5  1  0
  5  6  1  0
  5  7  2  0
  7  8  1  0
  7  9  1  0
  9 10  1  0
 10 11  1  0
 10 12  1  0
 10 13  1  0
 13 14  1  0
 13 15  1  0
 13 16  1  0
 16 17  2  0
 16 18  1  0
 18 19  1  0
 19 20  1  0
 19 21  2  0
 21 22  1  0
 21 23  1  0
 23 24  2  0
 24 25  1  0
 24 26  1  0
 23 27  1  0
 27 28  2  0
 28 29  1  0
 28 30  1  0
 30 31  1  0
 31 32  1  0
 32 33  2  0
 32 34  1  0
 34 35  1  0
 35 36  1  0
 27 37  1  0
 37 38  1  0
  9  3  2  0
 37 18  2  0
 35 30  2  0
M  CHG  4   4  -1  31  -1  34  -1  36  -1
M  END
>  <UniqueID>  (26) 
24

>  <SMILES>  (26) 
C=c1ccc(C(=O)CCc2cc[n-]c2O)c/c1=C/c1[n-]c(=O)[n-]c1[O-]

>  <Energy>  (26) 
112.94018284889233

>  <Genealogy>  (26) 
C=c1ccc(C(=O)CCc2cc[n-]c2O)cc1=Cc1[n-]c(=O)[n-]c1[O-] (protonated)
C=c1ccc(C(=O)CCc2cc[n-]c2O)c/c1=C/c1[n-]c(=O)[n-]c1[O-] (cis-trans isomerization)
C=c1ccc(C(=O)CCc2cc[n-]c2O)c/c1=C/c1[n-]c(=O)[n-]c1[O-] (3D coordinates assigned)
C=c1ccc(C(=O)CCc2cc[n-]c2O)c/c1=C/c1[n-]c(=O)[n-]c1[O-] (optimized conformer: 112.94018284889233 kcal/mol)

>  <smiles>  (26) 
C=c1ccc(C(=O)CCc2cc[nH]c2O)cc1=Cc1[nH]c(=O)[nH]c1O

>  <score_type>  (26) 
oracle

>  <origin>  (26) 
adg

>  <m_score__min__energy>  (26) 
-16.420000000000002

>  <m_primary>  (26) 
energy

$$$$
26:0
     RDKit          3D

 57 60  0  0  0  0  0  0  0  0999 V2000
   55.3040   31.0400   51.6590 C   0  0  0  0  0  0  0  0  0  0  0  0
   54.8650   30.2180   52.6240 C   0  0  0  0  0  0  0  0  0  0  0  0
   53.6350   30.2630   53.2800 C   0  0  0  0  0  0  0  0  0  0  0  0
   52.6140   31.1040   53.0320 C   0  0  0  0  0  0  0  0  0  0  0  0
   51.9370   31.2130   51.7260 C   0  0  0  0  0  0  0  0  0  0  0  0
   52.1630   30.3560   50.7140 N   0  0  0  0  0  0  0  0  0  0  0  0
   51.4080   30.8470   49.7070 C   0  0  0  0  0  0  0  0  0  0  0  0
   51.3480   30.2990   48.5760 O   0  0  0  0  0  0  0  0  0  0  0  0
   50.7330   31.9760   50.0050 N   0  0  0  0  0  0  0  0  0  0  0  0
   51.0830   32.2030   51.2820 C   0  0  0  0  0  0  0  0  0  0  0  0
   50.6690   33.3170   52.0020 O   0  0  0  0  0  0  0  0  0  0  0  0
   53.5890   29.2810   54.2060 N   0  0  0  0  0  0  0  0  0  0  0  0
   54.7840   28.6690   54.0990 C   0  0  0  0  0  0  0  0  0  0  0  0
   55.1180   27.6960   54.8270 O   0  0  0  0  0  0  0  0  0  0  0  0
   55.5820   29.1970   53.1480 N   0  0  0  0  0  0  0  0  0  0  0  0
   56.9500   28.7800   52.8200 C   0  0  0  0  0  0  0  0  0  0  0  0
   57.9420   29.8240   53.2540 C   0  0  0  0  0  0  0  0  0  0  0  0
   58.4580   29.7400   54.4030 O   0  0  0  0  0  0  0  0  0  0  0  0
   58.3260   30.8990   52.3760 N   0  0  0  0  0  0  0  0  0  0  0  0
   58.5720   30.6410   50.9480 C   0  0  0  0  0  0  0  0  0  0  0  0
   58.1690   31.8570   50.1100 C   0  0  0  0  0  0  0  0  0  0  0  0
   58.7640   33.0640   50.6920 N   0  0  0  0  0  0  0  0  0  0  0  0
   59.8160   33.7790   50.0190 C   0  0  0  0  0  0  0  0  0  0  0  0
   60.8240   34.1650   50.6700 O   0  0  0  0  0  0  0  0  0  0  0  0
   59.7400   34.0560   48.5430 C   0  0  0  0  0  0  0  0  0  0  0  0
   59.8830   32.7800   47.7490 C   0  0  0  0  0  0  0  0  0  0  0  0
   58.8150   32.3280   46.9560 C   0  0  0  0  0  0  0  0  0  0  0  0
   58.9240   31.1370   46.2360 C   0  0  0  0  0  0  0  0  0  0  0  0
   60.0960   30.3840   46.3040 C   0  0  0  0  0  0  0  0  0  0  0  0
   61.1630   30.8140   47.0970 C   0  0  0  0  0  0  0  0  0  0  0  0
   61.0660   32.0140   47.8310 C   0  0  0  0  0  0  0  0  0  0  0  0
   62.1150   32.4690   48.6490 O   0  0  0  0  0  0  0  0  0  0  0  0
   62.7400   31.6930   49.6670 C   0  0  0  0  0  0  0  0  0  0  0  0
   58.4580   33.3400   52.0980 C   0  0  0  0  0  0  0  0  0  0  0  0
   58.8640   32.1400   52.9540 C   0  0  0  0  0  0  0  0  0  0  0  0
   56.3031   30.8923   51.2231 H   0  0  0  0  0  0  0  0  0  0  0  0
   54.6649   31.8617   51.3036 H   0  0  0  0  0  0  0  0  0  0  0  0
   52.2636   31.7483   53.8518 H   0  0  0  0  0  0  0  0  0  0  0  0
   57.1726   27.8340   53.3353 H   0  0  0  0  0  0  0  0  0  0  0  0
   57.0283   28.6486   51.7307 H   0  0  0  0  0  0  0  0  0  0  0  0
   59.6416   30.4341   50.7959 H   0  0  0  0  0  0  0  0  0  0  0  0
   57.9715   29.7750   50.6328 H   0  0  0  0  0  0  0  0  0  0  0  0
   58.5307   31.7292   49.0791 H   0  0  0  0  0  0  0  0  0  0  0  0
   57.0732   31.9528   50.1021 H   0  0  0  0  0  0  0  0  0  0  0  0
   58.7683   34.5171   48.3124 H   0  0  0  0  0  0  0  0  0  0  0  0
   60.5611   34.7349   48.2694 H   0  0  0  0  0  0  0  0  0  0  0  0
   57.8871   32.9163   46.9021 H   0  0  0  0  0  0  0  0  0  0  0  0
   58.0846   30.7920   45.6143 H   0  0  0  0  0  0  0  0  0  0  0  0
   60.1806   29.4486   45.7315 H   0  0  0  0  0  0  0  0  0  0  0  0
   62.0831   30.2135   47.1489 H   0  0  0  0  0  0  0  0  0  0  0  0
   62.4360   32.0705   50.6545 H   0  0  0  0  0  0  0  0  0  0  0  0
   62.4338   30.6413   49.5663 H   0  0  0  0  0  0  0  0  0  0  0  0
   63.8328   31.7680   49.5663 H   0  0  0  0  0  0  0  0  0  0  0  0
   59.0151   34.2298   52.4265 H   0  0  0  0  0  0  0  0  0  0  0  0
   57.3787   33.5209   52.2093 H   0  0  0  0  0  0  0  0  0  0  0  0
   59.9615   32.0765   52.9936 H   0  0  0  0  0  0  0  0  0  0  0  0
   58.4586   32.2689   53.9684 H   0  0  0  0  0  0  0  0  0  0  0  0
  1  2  2  0
  2  3  1  0
  3  4  2  3
  4  5  1  0
  5  6  1  0
  6  7  1  0
  7  8  2  0
  7  9  1  0
  9 10  1  0
 10 11  1  0
  3 12  1  0
 12 13  1  0
 13 14  2  0
 13 15  1  0
 15 16  1  0
 16 17  1  0
 17 18  2  0
 17 19  1  0
 19 20  1  0
 20 21  1  0
 21 22  1  0
 22 23  1  0
 23 24  2  0
 23 25  1  0
 25 26  1  0
 26 27  2  0
 27 28  1  0
 28 29  2  0
 29 30  1  0
 30 31  2  0
 31 32  1  0
 32 33  1  0
 22 34  1  0
 34 35  1  0
 15  2  1  0
 35 19  1  0
 10  5  2  0
 31 26  1  0
  1 36  1  0
  1 37  1  0
  4 38  1  0
 16 39  1  0
 16 40  1  0
 20 41  1  0
 20 42  1  0
 21 43  1  0
 21 44  1  0
 25 45  1  0
 25 46  1  0
 27 47  1  0
 28 48  1  0
 29 49  1  0
 30 50  1  0
 33 51  1  0
 33 52  1  0
 33 53  1  0
 34 54  1  0
 34 55  1  0
 35 56  1  0
 35 57  1  0
M  CHG  4   6  -1   9  -1  11  -1  12  -1
M  END
>  <UniqueID>  (27) 
25

>  <SMILES>  (27) 
C=c1c(=Cc2[n-]c(=O)[n-]c2[O-])[n-]c(=O)n1CC(=O)N1CCN(C(=O)Cc2ccccc2OC)CC1

>  <Energy>  (27) 
129.73087690218108

>  <Genealogy>  (27) 
C=c1c(=Cc2[n-]c(=O)[n-]c2[O-])[n-]c(=O)n1CC(=O)N1CCN(C(=O)Cc2ccccc2OC)CC1 (protonated)
C=c1c(=Cc2[n-]c(=O)[n-]c2[O-])[n-]c(=O)n1CC(=O)N1CCN(C(=O)Cc2ccccc2OC)CC1 (3D coordinates assigned)
C=c1c(=Cc2[n-]c(=O)[n-]c2[O-])[n-]c(=O)n1CC(=O)N1CCN(C(=O)Cc2ccccc2OC)CC1 (nonaromatic ring conformer: 129.73087690218108 kcal/mol)

>  <smiles>  (27) 
C=c1c(=Cc2[nH]c(=O)[nH]c2O)[nH]c(=O)n1CC(=O)N1CCN(C(=O)Cc2ccccc2OC)CC1

>  <score_type>  (27) 
oracle

>  <origin>  (27) 
adg

>  <m_score__min__energy>  (27) 
-19.039999999999999

>  <m_primary>  (27) 
energy

$$$$
27:0
     RDKit          3D

 64 67  0  0  0  0  0  0  0  0999 V2000
   54.0660   20.7480   46.3390 C   0  0  0  0  0  0  0  0  0  0  0  0
   54.9760   19.7160   45.6780 C   0  0  0  0  0  0  0  0  0  0  0  0
   56.2380   20.2940   45.3420 O   0  0  0  0  0  0  0  0  0  0  0  0
   56.5700   21.6270   45.6230 C   0  0  0  0  0  0  0  0  0  0  0  0
   56.4690   22.6120   44.6200 C   0  0  0  0  0  0  0  0  0  0  0  0
   55.9770   22.3140   43.2570 C   0  0  0  0  0  0  0  0  0  0  0  0
   56.2730   21.0530   42.6600 N   0  0  0  0  0  0  0  0  0  0  0  0
   55.3050   23.1580   42.6070 O   0  0  0  0  0  0  0  0  0  0  0  0
   56.8570   23.8840   44.9000 N   0  0  0  0  0  0  0  0  0  0  0  0
   57.3280   24.2410   46.1230 C   0  0  0  0  0  0  0  0  0  0  0  0
   57.7340   25.6410   46.3920 C   0  0  0  0  0  0  0  0  0  0  0  0
   58.9290   25.9200   47.0850 C   0  0  0  0  0  0  0  0  0  0  0  0
   59.3120   27.2410   47.3380 C   0  0  0  0  0  0  0  0  0  0  0  0
   58.4970   28.3050   46.9310 C   0  0  0  0  0  0  0  0  0  0  0  0
   58.9270   29.6560   47.1680 N   0  0  0  0  0  0  0  0  0  0  0  0
   58.8380   30.7280   46.2120 C   0  0  0  0  0  0  0  0  0  0  0  0
   57.8360   30.6090   44.9100 S   0  0  0  0  0  0  0  0  0  0  0  0
   59.6170   31.9150   46.4350 N   0  0  0  0  0  0  0  0  0  0  0  0
   59.2860   33.2250   45.9450 C   0  0  0  0  0  0  0  0  0  0  0  0
   58.1200   33.4790   45.5340 O   0  0  0  0  0  0  0  0  0  0  0  0
   60.3000   34.3300   46.0290 C   0  0  0  0  0  0  0  0  0  0  0  0
   61.4390   33.9590   46.9490 C   0  0  0  0  0  0  0  0  0  0  0  0
   62.6960   33.6500   46.3970 C   0  0  0  0  0  0  0  0  0  0  0  0
   63.7570   33.2680   47.2220 C   0  0  0  0  0  0  0  0  0  0  0  0
   63.5760   33.1810   48.6030 C   0  0  0  0  0  0  0  0  0  0  0  0
   62.3290   33.4750   49.1640 C   0  0  0  0  0  0  0  0  0  0  0  0
   61.2570   33.8580   48.3470 C   0  0  0  0  0  0  0  0  0  0  0  0
   59.7020   34.1870   49.1040 Cl  0  0  0  0  0  0  0  0  0  0  0  0
   57.3150   28.0340   46.2220 C   0  0  0  0  0  0  0  0  0  0  0  0
   56.9340   26.7150   45.9600 C   0  0  0  0  0  0  0  0  0  0  0  0
   57.3930   23.3070   47.1090 N   0  0  0  0  0  0  0  0  0  0  0  0
   57.0180   22.0190   46.9000 C   0  0  0  0  0  0  0  0  0  0  0  0
   57.0070   21.1130   48.0150 N   0  0  0  0  0  0  0  0  0  0  0  0
   57.4890   19.7380   47.8490 C   0  0  0  0  0  0  0  0  0  0  0  0
   58.5460   19.3900   48.9250 C   0  0  0  0  0  0  0  0  0  0  0  0
   58.6290   20.3350   49.9820 O   0  0  0  0  0  0  0  0  0  0  0  0
   57.3370   20.7050   50.4170 C   0  0  0  0  0  0  0  0  0  0  0  0
   56.6850   21.6030   49.3620 C   0  0  0  0  0  0  0  0  0  0  0  0
   54.1444   20.6591   47.4326 H   0  0  0  0  0  0  0  0  0  0  0  0
   54.3726   21.7583   46.0304 H   0  0  0  0  0  0  0  0  0  0  0  0
   53.0252   20.5703   46.0304 H   0  0  0  0  0  0  0  0  0  0  0  0
   55.1364   18.8788   46.3732 H   0  0  0  0  0  0  0  0  0  0  0  0
   54.4941   19.3605   44.7553 H   0  0  0  0  0  0  0  0  0  0  0  0
   56.6300   20.2560   43.2340 H   0  0  0  0  0  0  0  0  0  0  0  0
   59.5657   25.0919   47.4297 H   0  0  0  0  0  0  0  0  0  0  0  0
   60.2586   27.4456   47.8596 H   0  0  0  0  0  0  0  0  0  0  0  0
   59.2770   29.8930   48.1250 H   0  0  0  0  0  0  0  0  0  0  0  0
   60.4590   31.8240   47.0470 H   0  0  0  0  0  0  0  0  0  0  0  0
   60.7006   34.5263   45.0235 H   0  0  0  0  0  0  0  0  0  0  0  0
   59.8053   35.2261   46.4318 H   0  0  0  0  0  0  0  0  0  0  0  0
   62.8443   33.7096   45.3087 H   0  0  0  0  0  0  0  0  0  0  0  0
   64.7378   33.0352   46.7817 H   0  0  0  0  0  0  0  0  0  0  0  0
   64.4136   32.8814   49.2500 H   0  0  0  0  0  0  0  0  0  0  0  0
   62.1890   33.4052   50.2528 H   0  0  0  0  0  0  0  0  0  0  0  0
   56.6854   28.8649   45.8709 H   0  0  0  0  0  0  0  0  0  0  0  0
   56.0015   26.5149   45.4118 H   0  0  0  0  0  0  0  0  0  0  0  0
   56.6397   19.0450   47.9409 H   0  0  0  0  0  0  0  0  0  0  0  0
   57.9541   19.6458   46.8564 H   0  0  0  0  0  0  0  0  0  0  0  0
   58.2909   18.4107   49.3561 H   0  0  0  0  0  0  0  0  0  0  0  0
   59.5239   19.3901   48.4213 H   0  0  0  0  0  0  0  0  0  0  0  0
   56.7250   19.8022   50.5599 H   0  0  0  0  0  0  0  0  0  0  0  0
   57.4112   21.2501   51.3695 H   0  0  0  0  0  0  0  0  0  0  0  0
   55.5939   21.5950   49.5011 H   0  0  0  0  0  0  0  0  0  0  0  0
   57.0685   22.6279   49.4741 H   0  0  0  0  0  0  0  0  0  0  0  0
  1  2  1  0
  2  3  1  0
  3  4  1  0
  4  5  2  0
  5  6  1  0
  6  7  1  0
  6  8  2  0
  5  9  1  0
  9 10  2  0
 10 11  1  0
 11 12  2  0
 12 13  1  0
 13 14  2  0
 14 15  1  0
 15 16  1  0
 16 17  2  0
 16 18  1  0
 18 19  1  0
 19 20  2  0
 19 21  1  0
 21 22  1  0
 22 23  2  0
 23 24  1  0
 24 25  2  0
 25 26  1  0
 26 27  2  0
 27 28  1  0
 14 29  1  0
 29 30  2  0
 10 31  1  0
 31 32  2  0
 32 33  1  0
 33 34  1  0
 34 35  1  0
 35 36  1  0
 36 37  1  0
 37 38  1  0
 32  4  1  0
 38 33  1  0
 30 11  1  0
 27 22  1  0
  1 39  1  0
  1 40  1  0
  1 41  1  0
  2 42  1  0
  2 43  1  0
  7 44  1  0
 12 45  1  0
 13 46  1  0
 15 47  1  0
 18 48  1  0
 21 49  1  0
 21 50  1  0
 23 51  1  0
 24 52  1  0
 25 53  1  0
 26 54  1  0
 29 55  1  0
 30 56  1  0
 34 57  1  0
 34 58  1  0
 35 59  1  0
 35 60  1  0
 37 61  1  0
 37 62  1  0
 38 63  1  0
 38 64  1  0
M  CHG  1   7  -1
M  END
>  <UniqueID>  (28) 
26

>  <SMILES>  (28) 
CCOc1c(C([NH-])=O)nc(-c2ccc(NC(=S)NC(=O)Cc3ccccc3Cl)cc2)nc1N1CCOCC1

>  <Energy>  (28) 
91.53853329603768

>  <Genealogy>  (28) 
CCOc1c(C([NH-])=O)nc(-c2ccc(NC(=S)NC(=O)Cc3ccccc3Cl)cc2)nc1N1CCOCC1 (protonated)
CCOc1c(C([NH-])=O)nc(-c2ccc(NC(=S)NC(=O)Cc3ccccc3Cl)cc2)nc1N1CCOCC1 (3D coordinates assigned)
CCOc1c(C([NH-])=O)nc(-c2ccc(NC(=S)NC(=O)Cc3ccccc3Cl)cc2)nc1N1CCOCC1 (nonaromatic ring conformer: 91.53853329603768 kcal/mol)

>  <smiles>  (28) 
CCOc1c(C(N)=O)nc(-c2ccc(NC(=S)NC(=O)Cc3ccccc3Cl)cc2)nc1N1CCOCC1

>  <score_type>  (28) 
oracle

>  <origin>  (28) 
adg

>  <m_score__min__energy>  (28) 
-9.2799999999999994

>  <m_primary>  (28) 
energy

$$$$
28:0
     RDKit          3D

 50 53  0  0  0  0  0  0  0  0999 V2000
   60.2990   29.3390   44.8860 C   0  0  0  0  0  0  0  0  0  0  0  0
   59.7390   29.2210   46.1010 C   0  0  0  0  0  0  0  0  0  0  0  0
   58.8420   28.2270   46.5150 C   0  0  0  0  0  0  0  0  0  0  0  0
   58.4040   27.1780   45.7840 C   0  0  0  0  0  0  0  0  0  0  0  0
   57.0940   26.5040   45.9300 C   0  0  0  0  0  0  0  0  0  0  0  0
   56.8940   25.2410   46.3460 N   0  0  0  0  0  0  0  0  0  0  0  0
   55.5510   25.1090   46.3290 C   0  0  0  0  0  0  0  0  0  0  0  0
   54.9690   24.0430   46.6590 O   0  0  0  0  0  0  0  0  0  0  0  0
   54.8790   26.2110   45.9320 N   0  0  0  0  0  0  0  0  0  0  0  0
   55.8700   27.0840   45.6860 C   0  0  0  0  0  0  0  0  0  0  0  0
   55.6590   28.3860   45.2490 O   0  0  0  0  0  0  0  0  0  0  0  0
   58.5070   28.5370   47.8310 C   0  0  0  0  0  0  0  0  0  0  0  0
   59.2080   29.6790   48.1620 C   0  0  0  0  0  0  0  0  0  0  0  0
   59.1540   30.3610   49.4950 C   0  0  0  0  0  0  0  0  0  0  0  0
   59.9550   30.0940   47.1160 N   0  0  0  0  0  0  0  0  0  0  0  0
   60.8170   31.2440   47.1100 C   0  0  0  0  0  0  0  0  0  0  0  0
   62.1760   31.0860   47.4220 C   0  0  0  0  0  0  0  0  0  0  0  0
   63.0270   32.1920   47.4580 C   0  0  0  0  0  0  0  0  0  0  0  0
   62.5270   33.4660   47.1850 C   0  0  0  0  0  0  0  0  0  0  0  0
   61.1780   33.6370   46.8700 C   0  0  0  0  0  0  0  0  0  0  0  0
   60.3120   32.5310   46.8230 C   0  0  0  0  0  0  0  0  0  0  0  0
   58.9330   32.7250   46.4590 N   0  0  0  0  0  0  0  0  0  0  0  0
   58.1680   31.6260   45.8610 C   0  0  0  0  0  0  0  0  0  0  0  0
   57.0130   32.1730   45.0050 C   0  0  0  0  0  0  0  0  0  0  0  0
   57.4120   33.3800   44.2500 N   0  0  0  0  0  0  0  0  0  0  0  0
   58.3980   33.0700   43.2010 C   0  0  0  0  0  0  0  0  0  0  0  0
   57.8610   34.5000   45.1200 C   0  0  0  0  0  0  0  0  0  0  0  0
   58.3300   34.0570   46.5190 C   0  0  0  0  0  0  0  0  0  0  0  0
   60.9928   30.1669   44.6782 H   0  0  0  0  0  0  0  0  0  0  0  0
   60.0638   28.6077   44.0986 H   0  0  0  0  0  0  0  0  0  0  0  0
   59.0826   26.7897   45.0102 H   0  0  0  0  0  0  0  0  0  0  0  0
   57.8169   27.9793   48.4811 H   0  0  0  0  0  0  0  0  0  0  0  0
   59.2136   29.6081   50.2947 H   0  0  0  0  0  0  0  0  0  0  0  0
   59.9997   31.0587   49.5844 H   0  0  0  0  0  0  0  0  0  0  0  0
   58.2090   30.9169   49.5844 H   0  0  0  0  0  0  0  0  0  0  0  0
   62.5735   30.0837   47.6397 H   0  0  0  0  0  0  0  0  0  0  0  0
   64.0915   32.0594   47.7015 H   0  0  0  0  0  0  0  0  0  0  0  0
   63.1975   34.3374   47.2181 H   0  0  0  0  0  0  0  0  0  0  0  0
   60.7901   34.6441   46.6571 H   0  0  0  0  0  0  0  0  0  0  0  0
   58.8353   31.0247   45.2260 H   0  0  0  0  0  0  0  0  0  0  0  0
   57.7490   31.0059   46.6672 H   0  0  0  0  0  0  0  0  0  0  0  0
   56.6985   31.3957   44.2931 H   0  0  0  0  0  0  0  0  0  0  0  0
   56.1889   32.4488   45.6794 H   0  0  0  0  0  0  0  0  0  0  0  0
   59.3482   32.7712   43.6677 H   0  0  0  0  0  0  0  0  0  0  0  0
   58.0218   32.2468   42.5759 H   0  0  0  0  0  0  0  0  0  0  0  0
   58.5605   33.9604   42.5759 H   0  0  0  0  0  0  0  0  0  0  0  0
   58.6969   35.0121   44.6209 H   0  0  0  0  0  0  0  0  0  0  0  0
   56.9908   35.1562   45.2689 H   0  0  0  0  0  0  0  0  0  0  0  0
   59.0739   34.7746   46.8956 H   0  0  0  0  0  0  0  0  0  0  0  0
   57.4605   34.0241   47.1920 H   0  0  0  0  0  0  0  0  0  0  0  0
  1  2  2  0
  2  3  1  0
  3  4  2  3
  4  5  1  0
  5  6  1  0
  6  7  1  0
  7  8  2  0
  7  9  1  0
  9 10  1  0
 10 11  1  0
  3 12  1  0
 12 13  2  0
 13 14  1  0
 13 15  1  0
 15 16  1  0
 16 17  2  0
 17 18  1  0
 18 19  2  0
 19 20  1  0
 20 21  2  0
 21 22  1  0
 22 23  1  0
 23 24  1  0
 24 25  1  0
 25 26  1  0
 25 27  1  0
 27 28  1  0
 15  2  1  0
 21 16  1  0
 28 22  1  0
 10  5  2  0
  1 29  1  0
  1 30  1  0
  4 31  1  0
 12 32  1  0
 14 33  1  0
 14 34  1  0
 14 35  1  0
 17 36  1  0
 18 37  1  0
 19 38  1  0
 20 39  1  0
 23 40  1  0
 23 41  1  0
 24 42  1  0
 24 43  1  0
 26 44  1  0
 26 45  1  0
 26 46  1  0
 27 47  1  0
 27 48  1  0
 28 49  1  0
 28 50  1  0
M  CHG  3   6  -1   9  -1  11  -1
M  END
>  <UniqueID>  (29) 
27

>  <SMILES>  (29) 
C=c1c(=Cc2[n-]c(=O)[n-]c2[O-])cc(C)n1-c1ccccc1N1CCN(C)CC1

>  <Energy>  (29) 
131.57429393566022

>  <Genealogy>  (29) 
C=c1c(=Cc2[n-]c(=O)[n-]c2[O-])cc(C)n1-c1ccccc1N1CCN(C)CC1 (protonated)
C=c1c(=Cc2[n-]c(=O)[n-]c2[O-])cc(C)n1-c1ccccc1N1CCN(C)CC1 (3D coordinates assigned)
C=c1c(=Cc2[n-]c(=O)[n-]c2[O-])cc(C)n1-c1ccccc1N1CCN(C)CC1 (nonaromatic ring conformer: 131.57429393566022 kcal/mol)

>  <smiles>  (29) 
C=c1c(=Cc2[nH]c(=O)[nH]c2O)cc(C)n1-c1ccccc1N1CCN(C)CC1

>  <score_type>  (29) 
oracle

>  <origin>  (29) 
adg

>  <m_score__min__energy>  (29) 
-16.07

>  <m_primary>  (29) 
energy

$$$$
29:0
     RDKit          3D

 43 46  0  0  0  0  0  0  0  0999 V2000
   52.1147   32.5538   52.9574 H   0  0  0  0  0  0  0  0  0  0  0  0
   52.0220   31.9420   52.0480 C   0  0  0  0  0  0  0  0  0  0  0  0
   51.1920   32.3410   51.0470 N   0  0  0  0  0  0  0  0  0  0  0  0
   51.0480   31.6180   49.9060 C   0  0  0  0  0  0  0  0  0  0  0  0
   50.2680   32.0220   49.0030 O   0  0  0  0  0  0  0  0  0  0  0  0
   51.7600   30.4290   49.7380 C   0  0  0  0  0  0  0  0  0  0  0  0
   51.6456   29.8383   48.8171 H   0  0  0  0  0  0  0  0  0  0  0  0
   52.6190   29.9970   50.7510 C   0  0  0  0  0  0  0  0  0  0  0  0
   53.1856   29.0622   50.6277 H   0  0  0  0  0  0  0  0  0  0  0  0
   52.7620   30.7530   51.9280 C   0  0  0  0  0  0  0  0  0  0  0  0
   53.6630   30.3040   53.0150 C   0  0  0  0  0  0  0  0  0  0  0  0
   53.3110   30.4570   54.2170 O   0  0  0  0  0  0  0  0  0  0  0  0
   54.9320   29.7100   52.6920 N   0  0  0  0  0  0  0  0  0  0  0  0
   56.0040   30.3080   52.2610 C   0  0  0  0  0  0  0  0  0  0  0  0
   57.0180   29.6260   51.6870 N   0  0  0  0  0  0  0  0  0  0  0  0
   58.0360   30.4490   51.3150 C   0  0  0  0  0  0  0  0  0  0  0  0
   59.2790   29.9200   50.6670 C   0  0  0  0  0  0  0  0  0  0  0  0
   59.6294   29.0383   51.2236 H   0  0  0  0  0  0  0  0  0  0  0  0
   60.0468   30.7077   50.6781 H   0  0  0  0  0  0  0  0  0  0  0  0
   59.0220   29.5480   49.3130 O   0  0  0  0  0  0  0  0  0  0  0  0
   58.9180   30.4400   48.2320 C   0  0  0  0  0  0  0  0  0  0  0  0
   58.4420   29.9450   47.0150 C   0  0  0  0  0  0  0  0  0  0  0  0
   58.1670   28.8833   46.9307 H   0  0  0  0  0  0  0  0  0  0  0  0
   58.3110   30.7820   45.9040 C   0  0  0  0  0  0  0  0  0  0  0  0
   57.9356   30.3735   44.9541 H   0  0  0  0  0  0  0  0  0  0  0  0
   58.6560   32.1450   45.9910 C   0  0  0  0  0  0  0  0  0  0  0  0
   58.5350   33.0270   44.8900 C   0  0  0  0  0  0  0  0  0  0  0  0
   58.0270   32.5650   43.5480 C   0  0  0  0  0  0  0  0  0  0  0  0
   57.2204   31.8314   43.6940 H   0  0  0  0  0  0  0  0  0  0  0  0
   57.6407   33.4277   42.9854 H   0  0  0  0  0  0  0  0  0  0  0  0
   58.8492   32.0988   42.9854 H   0  0  0  0  0  0  0  0  0  0  0  0
   58.9000   34.3720   45.0520 C   0  0  0  0  0  0  0  0  0  0  0  0
   58.8156   35.0697   44.2058 H   0  0  0  0  0  0  0  0  0  0  0  0
   59.3700   34.8260   46.2850 C   0  0  0  0  0  0  0  0  0  0  0  0
   59.6930   36.0360   46.4230 O   0  0  0  0  0  0  0  0  0  0  0  0
   59.4810   33.9690   47.3350 N   0  0  0  0  0  0  0  0  0  0  0  0
   59.8360   34.3390   48.2470 H   0  0  0  0  0  0  0  0  0  0  0  0
   59.1420   32.6520   47.2240 C   0  0  0  0  0  0  0  0  0  0  0  0
   59.2710   31.7980   48.3300 C   0  0  0  0  0  0  0  0  0  0  0  0
   59.6519   32.1944   49.2828 H   0  0  0  0  0  0  0  0  0  0  0  0
   57.8450   31.7980   51.6080 C   0  0  0  0  0  0  0  0  0  0  0  0
   58.5535   32.6129   51.3981 H   0  0  0  0  0  0  0  0  0  0  0  0
   56.3400   31.9590   52.3390 S   0  0  0  0  0  0  0  0  0  0  0  0
  1  2  1  0
  2  3  1  0
  3  4  1  0
  4  5  2  0
  4  6  1  0
  6  7  1  0
  6  8  2  0
  8  9  1  0
  8 10  1  0
 10 11  1  0
 11 12  2  0
 11 13  1  0
 13 14  2  0
 14 15  1  0
 15 16  1  0
 16 17  1  0
 17 18  1  0
 17 19  1  0
 17 20  1  0
 20 21  1  0
 21 22  2  0
 22 23  1  0
 22 24  1  0
 24 25  1  0
 24 26  2  0
 26 27  1  0
 27 28  1  0
 28 29  1  0
 28 30  1  0
 28 31  1  0
 27 32  2  0
 32 33  1  0
 32 34  1  0
 34 35  2  0
 34 36  1  0
 36 37  1  0
 36 38  1  0
 38 39  2  0
 39 40  1  0
 16 41  2  0
 41 42  1  0
 41 43  1  0
 10  2  2  0
 43 14  1  0
 39 21  1  0
 38 26  1  0
M  CHG  2   3  -1  15  -1
M  END
>  <UniqueID>  (30) 
28

>  <SMILES>  (30) 
Cc1cc(=O)[nH]c2cc(OCc3cs/c(=N\C(=O)c4ccc(=O)[n-]c4)[n-]3)ccc12

>  <Energy>  (30) 
87.03454030487379

>  <Genealogy>  (30) 
Cc1cc(=O)[nH]c2cc(OCc3csc(=NC(=O)c4ccc(=O)[n-]c4)[n-]3)ccc12 (protonated)
Cc1cc(=O)[nH]c2cc(OCc3cs/c(=N\C(=O)c4ccc(=O)[n-]c4)[n-]3)ccc12 (cis-trans isomerization)
Cc1cc(=O)[nH]c2cc(OCc3cs/c(=N\C(=O)c4ccc(=O)[n-]c4)[n-]3)ccc12 (3D coordinates assigned)
Cc1cc(=O)[nH]c2cc(OCc3cs/c(=N\C(=O)c4ccc(=O)[n-]c4)[n-]3)ccc12 (optimized conformer: 87.03454030487379 kcal/mol)

>  <smiles>  (30) 
Cc1cc(=O)[nH]c2cc(OCc3csc(=NC(=O)c4ccc(=O)[nH]c4)[nH]3)ccc12

>  <score_type>  (30) 
oracle

>  <origin>  (30) 
adg

>  <m_score__min__energy>  (30) 
-12.890000000000001

>  <m_primary>  (30) 
energy

$$$$
30:0
     RDKit          3D

 49 52  0  0  0  0  0  0  0  0999 V2000
   57.7220   25.7700   42.9340 C   0  0  0  0  0  0  0  0  0  0  0  0
   57.8750   25.8970   44.2650 C   0  0  0  0  0  0  0  0  0  0  0  0
   57.3490   25.0320   45.2330 C   0  0  0  0  0  0  0  0  0  0  0  0
   56.5550   23.9610   45.0300 C   0  0  0  0  0  0  0  0  0  0  0  0
   55.0840   24.0050   45.0970 C   0  0  0  0  0  0  0  0  0  0  0  0
   54.3010   22.9400   44.8560 N   0  0  0  0  0  0  0  0  0  0  0  0
   53.0560   23.4010   45.1080 C   0  0  0  0  0  0  0  0  0  0  0  0
   52.0290   22.6870   44.9800 O   0  0  0  0  0  0  0  0  0  0  0  0
   52.9990   24.6850   45.5220 N   0  0  0  0  0  0  0  0  0  0  0  0
   54.2940   25.0500   45.5220 C   0  0  0  0  0  0  0  0  0  0  0  0
   54.7430   26.2950   45.9500 O   0  0  0  0  0  0  0  0  0  0  0  0
   57.7630   25.5240   46.4630 C   0  0  0  0  0  0  0  0  0  0  0  0
   58.5240   26.6470   46.2060 C   0  0  0  0  0  0  0  0  0  0  0  0
   59.1490   27.5040   47.2640 C   0  0  0  0  0  0  0  0  0  0  0  0
   58.5940   26.8810   44.8730 N   0  0  0  0  0  0  0  0  0  0  0  0
   59.3570   27.9740   44.2460 C   0  0  0  0  0  0  0  0  0  0  0  0
   58.8550   29.3130   44.7220 C   0  0  0  0  0  0  0  0  0  0  0  0
   59.5550   30.0260   45.7070 C   0  0  0  0  0  0  0  0  0  0  0  0
   59.1100   31.2860   46.1190 C   0  0  0  0  0  0  0  0  0  0  0  0
   57.9610   31.8560   45.5480 C   0  0  0  0  0  0  0  0  0  0  0  0
   57.5110   33.2040   45.9710 C   0  0  0  0  0  0  0  0  0  0  0  0
   56.6120   33.7880   45.3120 O   0  0  0  0  0  0  0  0  0  0  0  0
   58.1010   33.8930   47.0870 N   0  0  0  0  0  0  0  0  0  0  0  0
   59.3610   33.8840   47.4200 C   0  0  0  0  0  0  0  0  0  0  0  0
   59.7110   33.8390   48.7750 C   0  0  0  0  0  0  0  0  0  0  0  0
   61.0600   33.8210   49.1350 C   0  0  0  0  0  0  0  0  0  0  0  0
   62.0440   33.8410   48.1450 C   0  0  0  0  0  0  0  0  0  0  0  0
   61.6610   33.8720   46.8030 C   0  0  0  0  0  0  0  0  0  0  0  0
   60.3430   33.8890   46.4730 N   0  0  0  0  0  0  0  0  0  0  0  0
   57.2350   31.1210   44.5950 C   0  0  0  0  0  0  0  0  0  0  0  0
   57.6840   29.8650   44.1800 C   0  0  0  0  0  0  0  0  0  0  0  0
   58.1772   26.5063   42.2553 H   0  0  0  0  0  0  0  0  0  0  0  0
   57.1417   24.9299   42.5248 H   0  0  0  0  0  0  0  0  0  0  0  0
   57.0340   22.9977   44.8009 H   0  0  0  0  0  0  0  0  0  0  0  0
   54.3890   26.7070   46.8040 H   0  0  0  0  0  0  0  0  0  0  0  0
   57.5299   25.1011   47.4513 H   0  0  0  0  0  0  0  0  0  0  0  0
   58.8704   27.1220   48.2572 H   0  0  0  0  0  0  0  0  0  0  0  0
   60.2434   27.4804   47.1558 H   0  0  0  0  0  0  0  0  0  0  0  0
   58.7921   28.5388   47.1558 H   0  0  0  0  0  0  0  0  0  0  0  0
   60.4196   27.8714   44.5111 H   0  0  0  0  0  0  0  0  0  0  0  0
   59.2293   27.9150   43.1550 H   0  0  0  0  0  0  0  0  0  0  0  0
   60.4593   29.5912   46.1578 H   0  0  0  0  0  0  0  0  0  0  0  0
   59.6638   31.8341   46.8955 H   0  0  0  0  0  0  0  0  0  0  0  0
   58.9299   33.8180   49.5493 H   0  0  0  0  0  0  0  0  0  0  0  0
   61.3468   33.7911   50.1965 H   0  0  0  0  0  0  0  0  0  0  0  0
   63.1092   33.8324   48.4193 H   0  0  0  0  0  0  0  0  0  0  0  0
   62.4261   33.8827   46.0127 H   0  0  0  0  0  0  0  0  0  0  0  0
   56.3081   31.5371   44.1736 H   0  0  0  0  0  0  0  0  0  0  0  0
   57.1157   29.3046   43.4230 H   0  0  0  0  0  0  0  0  0  0  0  0
  1  2  2  0
  2  3  1  0
  3  4  2  3
  4  5  1  0
  5  6  1  0
  6  7  1  0
  7  8  2  0
  7  9  1  0
  9 10  1  0
 10 11  1  0
  3 12  1  0
 12 13  2  0
 13 14  1  0
 13 15  1  0
 15 16  1  0
 16 17  1  0
 17 18  2  0
 18 19  1  0
 19 20  2  0
 20 21  1  0
 21 22  2  0
 21 23  1  0
 23 24  2  3
 24 25  1  0
 25 26  2  0
 26 27  1  0
 27 28  2  0
 28 29  1  0
 20 30  1  0
 30 31  2  0
 15  2  1  0
 31 17  1  0
 10  5  2  0
 29 24  1  0
  1 32  1  0
  1 33  1  0
  4 34  1  0
 11 35  1  0
 12 36  1  0
 14 37  1  0
 14 38  1  0
 14 39  1  0
 16 40  1  0
 16 41  1  0
 18 42  1  0
 19 43  1  0
 25 44  1  0
 26 45  1  0
 27 46  1  0
 28 47  1  0
 30 48  1  0
 31 49  1  0
M  CHG  3   6  -1   9  -1  29  -1
M  END
>  <UniqueID>  (31) 
29

>  <SMILES>  (31) 
C=c1c(=Cc2[n-]c(=O)[n-]c2O)cc(C)n1Cc1ccc(C(=O)N=c2cccc[n-]2)cc1

>  <Energy>  (31) 
125.26548561663378

>  <Genealogy>  (31) 
C=c1c(=Cc2[n-]c(=O)[n-]c2O)cc(C)n1Cc1ccc(C(=O)N=c2cccc[n-]2)cc1 (protonated)
C=c1c(=Cc2[n-]c(=O)[n-]c2O)cc(C)n1Cc1ccc(C(=O)N=c2cccc[n-]2)cc1 (3D coordinates assigned)
C=c1c(=Cc2[n-]c(=O)[n-]c2O)cc(C)n1Cc1ccc(C(=O)N=c2cccc[n-]2)cc1 (optimized conformer: 125.26548561663378 kcal/mol)

>  <smiles>  (31) 
C=c1c(=Cc2[nH]c(=O)[nH]c2O)cc(C)n1Cc1ccc(C(=O)N=c2cccc[nH]2)cc1

>  <score_type>  (31) 
oracle

>  <origin>  (31) 
adg

>  <m_score__min__energy>  (31) 
-14.59

>  <m_primary>  (31) 
energy

$$$$
31:0
     RDKit          3D

 29 30  0  0  0  0  0  0  0  0999 V2000
   59.2710   21.9310   44.1320 C   0  0  0  0  0  0  0  0  0  0  0  0
   58.0530   21.8990   45.0650 C   0  0  1  0  0  0  0  0  0  0  0  0
   58.0130   23.1420   45.9160 C   0  0  0  0  0  0  0  0  0  0  0  0
   57.4250   24.2740   45.4920 C   0  0  0  0  0  0  0  0  0  0  0  0
   57.4710   25.4860   46.3460 C   0  0  0  0  0  0  0  0  0  0  0  0
   57.7560   25.3670   47.5690 O   0  0  0  0  0  0  0  0  0  0  0  0
   57.2100   26.8390   45.8050 C   0  0  0  0  0  0  0  0  0  0  0  0
   58.2870   27.6780   45.4830 C   0  0  0  0  0  0  0  0  0  0  0  0
   58.0540   28.9580   44.9770 C   0  0  0  0  0  0  0  0  0  0  0  0
   56.7390   29.3980   44.8090 C   0  0  0  0  0  0  0  0  0  0  0  0
   56.5100   30.5470   44.3510 O   0  0  0  0  0  0  0  0  0  0  0  0
   55.7040   28.5850   45.1460 N   0  0  0  0  0  0  0  0  0  0  0  0
   55.9010   27.3340   45.6410 C   0  0  0  0  0  0  0  0  0  0  0  0
   54.7980   26.5650   45.9970 O   0  0  0  0  0  0  0  0  0  0  0  0
   56.8250   24.3520   44.1010 C   0  0  0  0  0  0  0  0  0  0  0  0
   56.3150   23.0170   43.6170 C   0  0  0  0  0  0  0  0  0  0  0  0
   55.5440   22.9770   42.6710 O   0  0  0  0  0  0  0  0  0  0  0  0
   56.7370   21.7310   44.2810 C   0  0  0  0  0  0  0  0  0  0  0  0
   60.1923   21.9552   44.7325 H   0  0  0  0  0  0  0  0  0  0  0  0
   59.2705   21.0325   43.4974 H   0  0  0  0  0  0  0  0  0  0  0  0
   59.2233   22.8282   43.4974 H   0  0  0  0  0  0  0  0  0  0  0  0
   58.1563   21.0226   45.7217 H   0  0  0  0  0  0  0  0  0  0  0  0
   58.4782   23.1224   46.9126 H   0  0  0  0  0  0  0  0  0  0  0  0
   59.3188   27.3261   45.6297 H   0  0  0  0  0  0  0  0  0  0  0  0
   58.8972   29.6133   44.7133 H   0  0  0  0  0  0  0  0  0  0  0  0
   55.9875   25.0649   44.1174 H   0  0  0  0  0  0  0  0  0  0  0  0
   57.6186   24.6768   43.4120 H   0  0  0  0  0  0  0  0  0  0  0  0
   55.9462   21.4126   44.9761 H   0  0  0  0  0  0  0  0  0  0  0  0
   56.8993   20.9774   43.4964 H   0  0  0  0  0  0  0  0  0  0  0  0
  1  2  1  0
  2  3  1  0
  3  4  2  0
  4  5  1  0
  5  6  2  0
  5  7  1  0
  7  8  1  0
  8  9  2  0
  9 10  1  0
 10 11  2  0
 10 12  1  0
 12 13  1  0
 13 14  1  0
  4 15  1  0
 15 16  1  0
 16 17  2  0
 16 18  1  0
 18  2  1  0
 13  7  2  0
  1 19  1  0
  1 20  1  0
  1 21  1  0
  2 22  1  1
  3 23  1  0
  8 24  1  0
  9 25  1  0
 15 26  1  0
 15 27  1  0
 18 28  1  0
 18 29  1  0
M  CHG  2  12  -1  14  -1
M  END
>  <UniqueID>  (32) 
30

>  <SMILES>  (32) 
C[C@H]1C=C(C(=O)c2ccc(=O)[n-]c2[O-])CC(=O)C1

>  <Energy>  (32) 
35.590207833161074

>  <Genealogy>  (32) 
CC1C=C(C(=O)c2ccc(=O)[n-]c2[O-])CC(=O)C1 (protonated)
C[C@H]1C=C(C(=O)c2ccc(=O)[n-]c2[O-])CC(=O)C1 (chirality)
C[C@H]1C=C(C(=O)c2ccc(=O)[n-]c2[O-])CC(=O)C1 (3D coordinates assigned)
C[C@H]1C=C(C(=O)c2ccc(=O)[n-]c2[O-])CC(=O)C1 (nonaromatic ring conformer: 35.590207833161074 kcal/mol)

>  <smiles>  (32) 
CC1C=C(C(=O)c2ccc(=O)[nH]c2O)CC(=O)C1

>  <score_type>  (32) 
oracle

>  <origin>  (32) 
adg

>  <m_score__min__energy>  (32) 
-13.65

>  <m_primary>  (32) 
energy

$$$$
32:0
     RDKit          3D

 55 58  0  0  0  0  0  0  0  0999 V2000
   57.3850   22.6620   46.8000 O   0  0  0  0  0  0  0  0  0  0  0  0
   57.2800   23.1170   45.3700 S   0  0  0  0  0  0  0  0  0  0  0  0
   58.3850   22.4820   44.5760 O   0  0  0  0  0  0  0  0  0  0  0  0
   55.7500   22.6080   44.7210 N   0  0  0  0  0  0  0  0  0  0  0  0
   54.5900   22.6980   45.3050 C   0  0  0  0  0  0  0  0  0  0  0  0
   54.3390   22.1560   46.5830 C   0  0  0  0  0  0  0  0  0  0  0  0
   53.0700   22.2950   47.1510 C   0  0  0  0  0  0  0  0  0  0  0  0
   52.0660   22.9650   46.4530 C   0  0  0  0  0  0  0  0  0  0  0  0
   52.3440   23.4860   45.1890 C   0  0  0  0  0  0  0  0  0  0  0  0
   53.5850   23.3430   44.6530 N   0  0  0  0  0  0  0  0  0  0  0  0
   57.4350   24.8680   45.2580 C   0  0  0  0  0  0  0  0  0  0  0  0
   57.7650   25.4760   44.0410 C   0  0  0  0  0  0  0  0  0  0  0  0
   57.8960   26.8660   43.9620 C   0  0  0  0  0  0  0  0  0  0  0  0
   57.6950   27.6680   45.1010 C   0  0  0  0  0  0  0  0  0  0  0  0
   57.8280   29.1010   45.0220 N   0  0  0  0  0  0  0  0  0  0  0  0
   59.1090   29.7450   45.3360 C   0  0  0  0  0  0  0  0  0  0  0  0
   58.8950   31.1170   46.0080 C   0  0  0  0  0  0  0  0  0  0  0  0
   57.6840   31.8420   45.5500 N   0  0  0  0  0  0  0  0  0  0  0  0
   57.9780   33.5660   45.4570 S   0  0  0  0  0  0  0  0  0  0  0  0
   56.6840   34.2780   45.1780 O   0  0  0  0  0  0  0  0  0  0  0  0
   58.9400   33.8670   44.3410 O   0  0  0  0  0  0  0  0  0  0  0  0
   58.6090   34.2050   47.0100 C   0  0  0  0  0  0  0  0  0  0  0  0
   60.0390   33.8050   47.2560 C   0  0  0  0  0  0  0  0  0  0  0  0
   60.3810   33.0390   48.3840 C   0  0  0  0  0  0  0  0  0  0  0  0
   61.7090   32.6620   48.6040 C   0  0  0  0  0  0  0  0  0  0  0  0
   62.7070   33.0550   47.7080 C   0  0  0  0  0  0  0  0  0  0  0  0
   62.3790   33.8320   46.5930 C   0  0  0  0  0  0  0  0  0  0  0  0
   61.0510   34.2100   46.3680 C   0  0  0  0  0  0  0  0  0  0  0  0
   57.1750   31.3570   44.2590 C   0  0  0  0  0  0  0  0  0  0  0  0
   56.7590   29.8920   44.3980 C   0  0  0  0  0  0  0  0  0  0  0  0
   57.3550   27.0490   46.3170 C   0  0  0  0  0  0  0  0  0  0  0  0
   57.2280   25.6590   46.3940 C   0  0  0  0  0  0  0  0  0  0  0  0
   55.1357   21.6283   47.1278 H   0  0  0  0  0  0  0  0  0  0  0  0
   52.8634   21.8766   48.1471 H   0  0  0  0  0  0  0  0  0  0  0  0
   51.0652   23.0816   46.8943 H   0  0  0  0  0  0  0  0  0  0  0  0
   51.5591   24.0124   44.6262 H   0  0  0  0  0  0  0  0  0  0  0  0
   57.9217   24.8586   43.1442 H   0  0  0  0  0  0  0  0  0  0  0  0
   58.1581   27.3360   43.0026 H   0  0  0  0  0  0  0  0  0  0  0  0
   59.6787   29.0966   46.0180 H   0  0  0  0  0  0  0  0  0  0  0  0
   59.6599   29.8999   44.3966 H   0  0  0  0  0  0  0  0  0  0  0  0
   58.8115   30.9591   47.0934 H   0  0  0  0  0  0  0  0  0  0  0  0
   59.7577   31.7404   45.7303 H   0  0  0  0  0  0  0  0  0  0  0  0
   58.5475   35.3031   46.9913 H   0  0  0  0  0  0  0  0  0  0  0  0
   57.9978   33.7810   47.8204 H   0  0  0  0  0  0  0  0  0  0  0  0
   59.6002   32.7349   49.0967 H   0  0  0  0  0  0  0  0  0  0  0  0
   61.9689   32.0550   49.4838 H   0  0  0  0  0  0  0  0  0  0  0  0
   63.7506   32.7529   47.8801 H   0  0  0  0  0  0  0  0  0  0  0  0
   63.1660   34.1465   45.8918 H   0  0  0  0  0  0  0  0  0  0  0  0
   60.7976   34.8265   45.4929 H   0  0  0  0  0  0  0  0  0  0  0  0
   56.3051   31.9590   43.9574 H   0  0  0  0  0  0  0  0  0  0  0  0
   57.9621   31.4458   43.4957 H   0  0  0  0  0  0  0  0  0  0  0  0
   55.8552   29.8318   45.0221 H   0  0  0  0  0  0  0  0  0  0  0  0
   56.5608   29.4860   43.3951 H   0  0  0  0  0  0  0  0  0  0  0  0
   57.1877   27.6631   47.2142 H   0  0  0  0  0  0  0  0  0  0  0  0
   56.9644   25.1851   47.3510 H   0  0  0  0  0  0  0  0  0  0  0  0
  1  2  2  0
  2  3  2  0
  2  4  1  0
  4  5  2  3
  5  6  1  0
  6  7  2  0
  7  8  1  0
  8  9  2  0
  9 10  1  0
  2 11  1  0
 11 12  2  0
 12 13  1  0
 13 14  2  0
 14 15  1  0
 15 16  1  0
 16 17  1  0
 17 18  1  0
 18 19  1  0
 19 20  2  0
 19 21  2  0
 19 22  1  0
 22 23  1  0
 23 24  2  0
 24 25  1  0
 25 26  2  0
 26 27  1  0
 27 28  2  0
 18 29  1  0
 29 30  1  0
 14 31  1  0
 31 32  2  0
 10  5  1  0
 32 11  1  0
 30 15  1  0
 28 23  1  0
  6 33  1  0
  7 34  1  0
  8 35  1  0
  9 36  1  0
 12 37  1  0
 13 38  1  0
 16 39  1  0
 16 40  1  0
 17 41  1  0
 17 42  1  0
 22 43  1  0
 22 44  1  0
 24 45  1  0
 25 46  1  0
 26 47  1  0
 27 48  1  0
 28 49  1  0
 29 50  1  0
 29 51  1  0
 30 52  1  0
 30 53  1  0
 31 54  1  0
 32 55  1  0
M  CHG  1  10  -1
M  END
>  <UniqueID>  (33) 
31

>  <SMILES>  (33) 
O=S(=O)(N=c1cccc[n-]1)c1ccc(N2CCN(S(=O)(=O)Cc3ccccc3)CC2)cc1

>  <Energy>  (33) 
68.24708729423412

>  <Genealogy>  (33) 
O=S(=O)(N=c1cccc[n-]1)c1ccc(N2CCN(S(=O)(=O)Cc3ccccc3)CC2)cc1 (protonated)
O=S(=O)(N=c1cccc[n-]1)c1ccc(N2CCN(S(=O)(=O)Cc3ccccc3)CC2)cc1 (3D coordinates assigned)
O=S(=O)(N=c1cccc[n-]1)c1ccc(N2CCN(S(=O)(=O)Cc3ccccc3)CC2)cc1 (nonaromatic ring conformer: 68.24708729423412 kcal/mol)

>  <smiles>  (33) 
O=S(=O)(N=c1cccc[nH]1)c1ccc(N2CCN(S(=O)(=O)Cc3ccccc3)CC2)cc1

>  <score_type>  (33) 
oracle

>  <origin>  (33) 
adg

>  <m_score__min__energy>  (33) 
-10.960000000000001

>  <m_primary>  (33) 
energy

$$$$
33:0
     RDKit          3D

 38 40  0  0  0  0  0  0  0  0999 V2000
   59.0270   28.6110   45.9290 O   0  0  0  0  0  0  0  0  0  0  0  0
   57.7670   28.5380   45.8970 C   0  0  0  0  0  0  0  0  0  0  0  0
   56.9850   29.7280   45.6950 N   0  0  0  0  0  0  0  0  0  0  0  0
   57.5230   30.9710   45.2120 C   0  0  0  0  0  0  0  0  0  0  0  0
   57.3900   31.3530   43.8650 C   0  0  0  0  0  0  0  0  0  0  0  0
   57.9100   32.5720   43.4240 C   0  0  0  0  0  0  0  0  0  0  0  0
   58.5460   33.4320   44.3230 C   0  0  0  0  0  0  0  0  0  0  0  0
   58.6480   33.0860   45.6790 C   0  0  0  0  0  0  0  0  0  0  0  0
   59.3280   33.9830   46.6350 C   0  0  0  0  0  0  0  0  0  0  0  0
   58.8570   35.1370   46.8270 O   0  0  0  0  0  0  0  0  0  0  0  0
   60.5160   33.5740   47.3390 N   0  0  0  0  0  0  0  0  0  0  0  0
   61.0060   34.2720   48.5150 C   0  0  0  0  0  0  0  0  0  0  0  0
   62.4440   33.8060   48.7070 C   0  0  0  0  0  0  0  0  0  0  0  0
   62.6010   32.5600   47.8390 C   0  0  0  0  0  0  0  0  0  0  0  0
   61.4770   32.6160   46.8160 C   0  0  0  0  0  0  0  0  0  0  0  0
   58.1430   31.8500   46.1140 C   0  0  0  0  0  0  0  0  0  0  0  0
   57.1030   27.2340   46.1090 C   0  0  0  0  0  0  0  0  0  0  0  0
   57.8050   26.1380   46.6310 C   0  0  0  0  0  0  0  0  0  0  0  0
   57.1270   24.9300   46.8040 C   0  0  0  0  0  0  0  0  0  0  0  0
   57.7290   23.9280   47.2720 O   0  0  0  0  0  0  0  0  0  0  0  0
   55.8150   24.8340   46.4690 N   0  0  0  0  0  0  0  0  0  0  0  0
   55.1460   25.9020   45.9620 C   0  0  0  0  0  0  0  0  0  0  0  0
   53.9310   25.7960   45.6560 O   0  0  0  0  0  0  0  0  0  0  0  0
   55.7880   27.0860   45.7870 N   0  0  0  0  0  0  0  0  0  0  0  0
   55.9850   29.7190   46.0010 H   0  0  0  0  0  0  0  0  0  0  0  0
   56.8743   30.6889   43.1558 H   0  0  0  0  0  0  0  0  0  0  0  0
   57.8185   32.8560   42.3652 H   0  0  0  0  0  0  0  0  0  0  0  0
   58.9681   34.3832   43.9666 H   0  0  0  0  0  0  0  0  0  0  0  0
   60.9742   35.3599   48.3554 H   0  0  0  0  0  0  0  0  0  0  0  0
   60.3893   34.0556   49.3998 H   0  0  0  0  0  0  0  0  0  0  0  0
   63.1460   34.5885   48.3832 H   0  0  0  0  0  0  0  0  0  0  0  0
   62.6606   33.5912   49.7638 H   0  0  0  0  0  0  0  0  0  0  0  0
   63.5781   32.5670   47.3338 H   0  0  0  0  0  0  0  0  0  0  0  0
   62.5514   31.6410   48.4415 H   0  0  0  0  0  0  0  0  0  0  0  0
   61.8616   32.9516   45.8416 H   0  0  0  0  0  0  0  0  0  0  0  0
   61.0207   31.6274   46.6598 H   0  0  0  0  0  0  0  0  0  0  0  0
   58.2343   31.5675   47.1732 H   0  0  0  0  0  0  0  0  0  0  0  0
   58.8681   26.2283   46.8987 H   0  0  0  0  0  0  0  0  0  0  0  0
  1  2  2  0
  2  3  1  0
  3  4  1  0
  4  5  2  0
  5  6  1  0
  6  7  2  0
  7  8  1  0
  8  9  1  0
  9 10  2  0
  9 11  1  0
 11 12  1  0
 12 13  1  0
 13 14  1  0
 14 15  1  0
  8 16  2  0
  2 17  1  0
 17 18  2  0
 18 19  1  0
 19 20  2  0
 19 21  1  0
 21 22  1  0
 22 23  2  0
 22 24  1  0
 16  4  1  0
 24 17  1  0
 15 11  1  0
  3 25  1  0
  5 26  1  0
  6 27  1  0
  7 28  1  0
 12 29  1  0
 12 30  1  0
 13 31  1  0
 13 32  1  0
 14 33  1  0
 14 34  1  0
 15 35  1  0
 15 36  1  0
 16 37  1  0
 18 38  1  0
M  CHG  2  21  -1  24  -1
M  END
>  <UniqueID>  (34) 
32

>  <SMILES>  (34) 
O=C(Nc1cccc(C(=O)N2CCCC2)c1)c1cc(=O)[n-]c(=O)[n-]1

>  <Energy>  (34) 
49.14779050144245

>  <Genealogy>  (34) 
O=C(Nc1cccc(C(=O)N2CCCC2)c1)c1cc(=O)[n-]c(=O)[n-]1 (protonated)
O=C(Nc1cccc(C(=O)N2CCCC2)c1)c1cc(=O)[n-]c(=O)[n-]1 (3D coordinates assigned)
O=C(Nc1cccc(C(=O)N2CCCC2)c1)c1cc(=O)[n-]c(=O)[n-]1 (nonaromatic ring conformer: 49.14779050144245 kcal/mol)

>  <smiles>  (34) 
O=C(Nc1cccc(C(=O)N2CCCC2)c1)c1cc(=O)[nH]c(=O)[nH]1

>  <score_type>  (34) 
oracle

>  <origin>  (34) 
adg

>  <m_score__min__energy>  (34) 
-13.08

>  <m_primary>  (34) 
energy

$$$$
34:0
     RDKit          3D

 38 40  0  0  0  0  0  0  0  0999 V2000
   55.9220   28.2070   45.2990 O   0  0  0  0  0  0  0  0  0  0  0  0
   56.2650   27.0880   45.7680 C   0  0  0  0  0  0  0  0  0  0  0  0
   55.3370   26.0990   45.8710 N   0  0  0  0  0  0  0  0  0  0  0  0
   55.6510   24.8670   46.3500 C   0  0  0  0  0  0  0  0  0  0  0  0
   56.9580   24.5850   46.7500 C   0  0  0  0  0  0  0  0  0  0  0  0
   57.9310   25.5800   46.6570 C   0  0  0  0  0  0  0  0  0  0  0  0
   57.5970   26.8510   46.1670 C   0  0  0  0  0  0  0  0  0  0  0  0
   58.6400   27.9010   46.0780 C   0  0  0  0  0  0  0  0  0  0  0  0
   59.5080   27.9030   45.0530 C   0  0  0  0  0  0  0  0  0  0  0  0
   60.5450   28.9740   44.8690 C   0  0  0  0  0  0  0  0  0  0  0  0
   60.7310   29.8450   46.1220 C   0  0  0  0  0  0  0  0  0  0  0  0
   59.4490   30.1480   46.7990 N   0  0  1  0  0  0  0  0  0  0  0  0
   58.5350   30.9970   45.9910 C   0  0  0  0  0  0  0  0  0  0  0  0
   58.9370   32.4530   46.0190 C   0  0  0  0  0  0  0  0  0  0  0  0
   58.5700   33.3080   44.9650 C   0  0  0  0  0  0  0  0  0  0  0  0
   58.9260   34.6600   44.9980 C   0  0  0  0  0  0  0  0  0  0  0  0
   59.6470   35.1690   46.0820 C   0  0  0  0  0  0  0  0  0  0  0  0
   60.0150   34.3260   47.1340 C   0  0  0  0  0  0  0  0  0  0  0  0
   59.6620   32.9740   47.1050 C   0  0  0  0  0  0  0  0  0  0  0  0
   58.7870   28.8920   47.2150 C   0  0  0  0  0  0  0  0  0  0  0  0
   54.8745   24.0912   46.4226 H   0  0  0  0  0  0  0  0  0  0  0  0
   57.2182   23.5879   47.1348 H   0  0  0  0  0  0  0  0  0  0  0  0
   58.9641   25.3671   46.9691 H   0  0  0  0  0  0  0  0  0  0  0  0
   59.4574   27.0864   44.3178 H   0  0  0  0  0  0  0  0  0  0  0  0
   61.5056   28.4953   44.6280 H   0  0  0  0  0  0  0  0  0  0  0  0
   60.2014   29.6315   44.0568 H   0  0  0  0  0  0  0  0  0  0  0  0
   61.3851   29.3121   46.8278 H   0  0  0  0  0  0  0  0  0  0  0  0
   61.1732   30.8000   45.8019 H   0  0  0  0  0  0  0  0  0  0  0  0
   59.6770   30.6710   47.6780 H   0  0  0  0  0  0  0  0  0  0  0  0
   58.5521   30.6445   44.9492 H   0  0  0  0  0  0  0  0  0  0  0  0
   57.5270   30.9160   46.4238 H   0  0  0  0  0  0  0  0  0  0  0  0
   58.0007   32.9120   44.1111 H   0  0  0  0  0  0  0  0  0  0  0  0
   58.6382   35.3240   44.1696 H   0  0  0  0  0  0  0  0  0  0  0  0
   59.9247   36.2331   46.1069 H   0  0  0  0  0  0  0  0  0  0  0  0
   60.5833   34.7271   47.9861 H   0  0  0  0  0  0  0  0  0  0  0  0
   59.9528   32.3144   47.9359 H   0  0  0  0  0  0  0  0  0  0  0  0
   59.3856   28.4264   48.0118 H   0  0  0  0  0  0  0  0  0  0  0  0
   57.7756   29.1500   47.5622 H   0  0  0  0  0  0  0  0  0  0  0  0
  1  2  2  0
  2  3  1  0
  3  4  1  0
  4  5  2  0
  5  6  1  0
  6  7  2  0
  7  8  1  0
  8  9  2  0
  9 10  1  0
 10 11  1  0
 11 12  1  0
 12 13  1  0
 13 14  1  0
 14 15  2  0
 15 16  1  0
 16 17  2  0
 17 18  1  0
 18 19  2  0
 12 20  1  0
  7  2  1  0
 20  8  1  0
 19 14  1  0
  4 21  1  0
  5 22  1  0
  6 23  1  0
  9 24  1  0
 10 25  1  0
 10 26  1  0
 11 27  1  0
 11 28  1  0
 12 29  1  1
 13 30  1  0
 13 31  1  0
 15 32  1  0
 16 33  1  0
 17 34  1  0
 18 35  1  0
 19 36  1  0
 20 37  1  0
 20 38  1  0
M  CHG  2   3  -1  12   1
M  END
>  <UniqueID>  (35) 
33

>  <SMILES>  (35) 
O=c1[n-]cccc1C1=CCC[N@@H+](Cc2ccccc2)C1

>  <Energy>  (35) 
52.609502421619474

>  <Genealogy>  (35) 
O=c1[n-]cccc1C1=CCC[NH+](Cc2ccccc2)C1 (protonated)
O=c1[n-]cccc1C1=CCC[N@@H+](Cc2ccccc2)C1 (chirality)
O=c1[n-]cccc1C1=CCC[N@@H+](Cc2ccccc2)C1 (3D coordinates assigned)
O=c1[n-]cccc1C1=CCC[N@@H+](Cc2ccccc2)C1 (nonaromatic ring conformer: 52.609502421619474 kcal/mol)

>  <smiles>  (35) 
O=c1[nH]cccc1C1=CCCN(Cc2ccccc2)C1

>  <score_type>  (35) 
oracle

>  <origin>  (35) 
adg

>  <m_score__min__energy>  (35) 
-8.3699999999999992

>  <m_primary>  (35) 
energy

$$$$
35:0
     RDKit          3D

 38 40  0  0  0  0  0  0  0  0999 V2000
   54.1330   28.1320   53.4520 C   0  0  0  0  0  0  0  0  0  0  0  0
   54.5860   29.1970   52.7710 C   0  0  0  0  0  0  0  0  0  0  0  0
   53.8330   30.2920   52.3210 C   0  0  0  0  0  0  0  0  0  0  0  0
   52.5000   30.4740   52.2350 C   0  0  0  0  0  0  0  0  0  0  0  0
   51.7580   30.8120   51.0100 C   0  0  0  0  0  0  0  0  0  0  0  0
   51.7290   30.0550   49.8970 N   0  0  0  0  0  0  0  0  0  0  0  0
   51.0550   30.8250   49.0150 C   0  0  0  0  0  0  0  0  0  0  0  0
   50.8060   30.4490   47.8400 O   0  0  0  0  0  0  0  0  0  0  0  0
   50.6780   32.0320   49.4880 N   0  0  0  0  0  0  0  0  0  0  0  0
   51.1440   32.0110   50.7470 C   0  0  0  0  0  0  0  0  0  0  0  0
   51.0140   33.0700   51.6370 O   0  0  0  0  0  0  0  0  0  0  0  0
   54.7450   31.2580   51.9360 C   0  0  0  0  0  0  0  0  0  0  0  0
   55.9990   30.7070   52.0920 C   0  0  0  0  0  0  0  0  0  0  0  0
   57.2590   31.4230   51.8310 C   0  0  0  0  0  0  0  0  0  0  0  0
   57.8780   31.9500   52.7910 O   0  0  0  0  0  0  0  0  0  0  0  0
   57.7900   31.5490   50.5050 N   0  0  0  0  0  0  0  0  0  0  0  0
   59.1490   31.9790   50.1850 C   0  0  0  0  0  0  0  0  0  0  0  0
   59.1580   32.8590   48.9620 C   0  0  0  0  0  0  0  0  0  0  0  0
   58.1900   32.6960   47.9610 C   0  0  0  0  0  0  0  0  0  0  0  0
   58.2260   33.4950   46.8160 C   0  0  0  0  0  0  0  0  0  0  0  0
   59.2310   34.4570   46.6850 C   0  0  0  0  0  0  0  0  0  0  0  0
   59.2810   35.1820   45.6580 O   0  0  0  0  0  0  0  0  0  0  0  0
   60.1570   34.6110   47.6680 N   0  0  0  0  0  0  0  0  0  0  0  0
   60.1420   33.8460   48.7920 C   0  0  0  0  0  0  0  0  0  0  0  0
   55.9080   29.4460   52.5770 N   0  0  0  0  0  0  0  0  0  0  0  0
   57.0300   28.6090   53.0150 C   0  0  0  0  0  0  0  0  0  0  0  0
   54.8283   27.3334   53.7502 H   0  0  0  0  0  0  0  0  0  0  0  0
   53.0666   28.0581   53.7117 H   0  0  0  0  0  0  0  0  0  0  0  0
   51.9166   30.3600   53.1605 H   0  0  0  0  0  0  0  0  0  0  0  0
   54.5141   32.2710   51.5748 H   0  0  0  0  0  0  0  0  0  0  0  0
   59.5593   32.5412   51.0368 H   0  0  0  0  0  0  0  0  0  0  0  0
   59.7621   31.0884   49.9829 H   0  0  0  0  0  0  0  0  0  0  0  0
   57.4014   31.9381   48.0775 H   0  0  0  0  0  0  0  0  0  0  0  0
   57.4713   33.3683   46.0258 H   0  0  0  0  0  0  0  0  0  0  0  0
   60.9033   34.0009   49.5707 H   0  0  0  0  0  0  0  0  0  0  0  0
   57.0622   28.5849   54.1143 H   0  0  0  0  0  0  0  0  0  0  0  0
   56.8976   27.5873   52.6296 H   0  0  0  0  0  0  0  0  0  0  0  0
   57.9716   29.0271   52.6296 H   0  0  0  0  0  0  0  0  0  0  0  0
  1  2  2  0
  2  3  1  0
  3  4  2  3
  4  5  1  0
  5  6  1  0
  6  7  1  0
  7  8  2  0
  7  9  1  0
  9 10  1  0
 10 11  1  0
  3 12  1  0
 12 13  2  0
 13 14  1  0
 14 15  2  0
 14 16  1  0
 16 17  1  0
 17 18  1  0
 18 19  1  0
 19 20  2  0
 20 21  1  0
 21 22  2  0
 21 23  1  0
 23 24  1  0
 13 25  1  0
 25 26  1  0
 25  2  1  0
 10  5  2  0
 24 18  2  0
  1 27  1  0
  1 28  1  0
  4 29  1  0
 12 30  1  0
 17 31  1  0
 17 32  1  0
 19 33  1  0
 20 34  1  0
 24 35  1  0
 26 36  1  0
 26 37  1  0
 26 38  1  0
M  CHG  5   6  -1   9  -1  11  -1  16  -1  23  -1
M  END
>  <UniqueID>  (36) 
34

>  <SMILES>  (36) 
C=c1c(=Cc2[n-]c(=O)[n-]c2[O-])cc(C(=O)[N-]Cc2ccc(=O)[n-]c2)n1C

>  <Energy>  (36) 
111.83674347861188

>  <Genealogy>  (36) 
C=c1c(=Cc2[n-]c(=O)[n-]c2[O-])cc(C(=O)[N-]Cc2ccc(=O)[n-]c2)n1C (protonated)
C=c1c(=Cc2[n-]c(=O)[n-]c2[O-])cc(C(=O)[N-]Cc2ccc(=O)[n-]c2)n1C (3D coordinates assigned)
C=c1c(=Cc2[n-]c(=O)[n-]c2[O-])cc(C(=O)[N-]Cc2ccc(=O)[n-]c2)n1C (optimized conformer: 111.83674347861188 kcal/mol)

>  <smiles>  (36) 
C=c1c(=Cc2[nH]c(=O)[nH]c2O)cc(C(=O)NCc2ccc(=O)[nH]c2)n1C

>  <score_type>  (36) 
oracle

>  <origin>  (36) 
adg

>  <m_score__min__energy>  (36) 
-18.379999999999999

>  <m_primary>  (36) 
energy

$$$$
36:0
     RDKit          3D

 52 55  0  0  0  0  0  0  0  0999 V2000
   59.6670   26.9170   49.4560 H   0  0  0  0  0  0  0  0  0  0  0  0
   60.0390   26.8260   48.4840 N   0  0  0  0  0  0  0  0  0  0  0  0
   59.5860   27.5340   47.4970 C   0  0  0  0  0  0  0  0  0  0  0  0
   60.3110   28.5920   47.0480 N   0  0  0  0  0  0  0  0  0  0  0  0
   59.8830   29.3710   46.0210 C   0  0  0  0  0  0  0  0  0  0  0  0
   60.5026   30.2125   45.6776 H   0  0  0  0  0  0  0  0  0  0  0  0
   58.6590   29.1090   45.3980 C   0  0  0  0  0  0  0  0  0  0  0  0
   58.2330   29.9510   44.3200 N   0  0  0  0  0  0  0  0  0  0  0  0
   57.1540   30.8920   44.3960 C   0  0  0  0  0  0  0  0  0  0  0  0
   55.9790   30.4510   44.5130 O   0  0  0  0  0  0  0  0  0  0  0  0
   57.3840   32.3730   44.2170 C   0  0  0  0  0  0  0  0  0  0  0  0
   57.9778   32.5331   43.3050 H   0  0  0  0  0  0  0  0  0  0  0  0
   56.4025   32.8641   44.1422 H   0  0  0  0  0  0  0  0  0  0  0  0
   58.1190   32.9730   45.3890 C   0  0  0  0  0  0  0  0  0  0  0  0
   58.4570   34.3340   45.3890 C   0  0  0  0  0  0  0  0  0  0  0  0
   58.2098   34.9604   44.5192 H   0  0  0  0  0  0  0  0  0  0  0  0
   59.1060   34.8960   46.4890 C   0  0  0  0  0  0  0  0  0  0  0  0
   59.3702   35.9638   46.4832 H   0  0  0  0  0  0  0  0  0  0  0  0
   59.4210   34.1070   47.5970 C   0  0  0  0  0  0  0  0  0  0  0  0
   59.9337   34.5583   48.4592 H   0  0  0  0  0  0  0  0  0  0  0  0
   59.0890   32.7410   47.6210 C   0  0  0  0  0  0  0  0  0  0  0  0
   59.4190   31.9240   48.8180 C   0  0  0  0  0  0  0  0  0  0  0  0
   58.6650   32.0010   49.8310 O   0  0  0  0  0  0  0  0  0  0  0  0
   60.5630   31.0320   48.8410 N   0  0  1  0  0  0  0  0  0  0  0  0
   60.4380   30.2390   48.1710 H   0  0  0  0  0  0  0  0  0  0  0  0
   61.7430   31.7440   48.4520 C   0  0  0  0  0  0  0  0  0  0  0  0
   62.0060   32.2340   47.1660 C   0  0  0  0  0  0  0  0  0  0  0  0
   61.2818   32.0860   46.3514 H   0  0  0  0  0  0  0  0  0  0  0  0
   63.2100   32.9170   46.9360 C   0  0  0  0  0  0  0  0  0  0  0  0
   63.4342   33.3119   45.9341 H   0  0  0  0  0  0  0  0  0  0  0  0
   64.1320   33.0980   47.9850 C   0  0  0  0  0  0  0  0  0  0  0  0
   65.0736   33.6363   47.8014 H   0  0  0  0  0  0  0  0  0  0  0  0
   63.8520   32.5930   49.2640 C   0  0  0  0  0  0  0  0  0  0  0  0
   64.5646   32.7289   50.0909 H   0  0  0  0  0  0  0  0  0  0  0  0
   62.6480   31.9140   49.4630 C   0  0  0  0  0  0  0  0  0  0  0  0
   62.1500   31.3000   50.7060 C   0  0  0  0  0  0  0  0  0  0  0  0
   62.8796   30.5867   51.1169 H   0  0  0  0  0  0  0  0  0  0  0  0
   61.9713   32.0264   51.5124 H   0  0  0  0  0  0  0  0  0  0  0  0
   60.8620   30.5740   50.2310 C   0  0  2  0  0  0  0  0  0  0  0  0
   60.0182   30.8179   50.8932 H   0  0  0  0  0  0  0  0  0  0  0  0
   61.0520   29.0500   50.2830 C   0  0  0  0  0  0  0  0  0  0  0  0
   61.0930   28.7212   51.3319 H   0  0  0  0  0  0  0  0  0  0  0  0
   60.2083   28.5578   49.7772 H   0  0  0  0  0  0  0  0  0  0  0  0
   61.9908   28.7801   49.7772 H   0  0  0  0  0  0  0  0  0  0  0  0
   58.4240   32.1840   46.5100 C   0  0  0  0  0  0  0  0  0  0  0  0
   58.1412   31.1210   46.5211 H   0  0  0  0  0  0  0  0  0  0  0  0
   57.9000   28.0000   45.8190 C   0  0  0  0  0  0  0  0  0  0  0  0
   56.6780   27.6410   45.1610 N   0  0  0  0  0  0  0  0  0  0  0  0
   56.2100   28.2860   44.4870 H   0  0  0  0  0  0  0  0  0  0  0  0
   56.2500   26.7020   45.3140 H   0  0  0  0  0  0  0  0  0  0  0  0
   58.3640   27.2180   46.8850 C   0  0  0  0  0  0  0  0  0  0  0  0
   57.7731   26.3608   47.2401 H   0  0  0  0  0  0  0  0  0  0  0  0
  1  2  1  0
  2  3  2  0
  3  4  1  0
  4  5  1  0
  5  6  1  0
  5  7  2  0
  7  8  1  0
  8  9  1  0
  9 10  2  0
  9 11  1  0
 11 12  1  0
 11 13  1  0
 11 14  1  0
 14 15  2  0
 15 16  1  0
 15 17  1  0
 17 18  1  0
 17 19  2  0
 19 20  1  0
 19 21  1  0
 21 22  1  0
 22 23  2  0
 22 24  1  0
 24 25  1  6
 24 26  1  0
 26 27  2  0
 27 28  1  0
 27 29  1  0
 29 30  1  0
 29 31  2  0
 31 32  1  0
 31 33  1  0
 33 34  1  0
 33 35  2  0
 35 36  1  0
 36 37  1  0
 36 38  1  0
 36 39  1  0
 39 40  1  1
 39 41  1  0
 41 42  1  0
 41 43  1  0
 41 44  1  0
 21 45  2  0
 45 46  1  0
  7 47  1  0
 47 48  1  0
 48 49  1  0
 48 50  1  0
 47 51  2  0
 51 52  1  0
 51  3  1  0
 45 14  1  0
 39 24  1  0
 35 26  1  0
M  CHG  3   4  -1   8  -1  24   1
M  END
>  <UniqueID>  (37) 
35

>  <SMILES>  (37) 
[H]/N=c1\cc(N)c([N-]C(=O)Cc2cccc(C(=O)[N@H+]3c4ccccc4C[C@@H]3C)c2)c[n-]1

>  <Energy>  (37) 
77.97078364402714

>  <Genealogy>  (37) 
CC1Cc2ccccc2[NH+]1C(=O)c1cccc(CC(=O)[N-]c2c[n-]c(=N)cc2N)c1 (protonated)
C[C@H]1Cc2ccccc2[N@@H+]1C(=O)c1cccc(CC(=O)[N-]c2c[n-]c(=N)cc2N)c1 (chirality)
[H]/N=c1\cc(N)c([N-]C(=O)Cc2cccc(C(=O)[N@H+]3c4ccccc4C[C@@H]3C)c2)c[n-]1 (cis-trans isomerization)
[H]/N=c1\cc(N)c([N-]C(=O)Cc2cccc(C(=O)[N@H+]3c4ccccc4C[C@@H]3C)c2)c[n-]1 (3D coordinates assigned)
[H]/N=c1\cc(N)c([N-]C(=O)Cc2cccc(C(=O)[N@H+]3c4ccccc4C[C@@H]3C)c2)c[n-]1 (nonaromatic ring conformer: 77.97078364402714 kcal/mol)

>  <smiles>  (37) 
CC1Cc2ccccc2N1C(=O)c1cccc(CC(=O)Nc2c[nH]c(=N)cc2N)c1

>  <score_type>  (37) 
oracle

>  <origin>  (37) 
adg

>  <m_score__min__energy>  (37) 
-11.359999999999999

>  <m_primary>  (37) 
energy

$$$$
37:0
     RDKit          3D

 29 30  0  0  0  0  0  0  0  0999 V2000
   57.7010   24.8650   45.0870 C   0  0  0  0  0  0  0  0  0  0  0  0
   57.9340   26.0830   45.9290 C   0  0  0  0  0  0  0  0  0  0  0  0
   58.6070   25.9600   46.9890 O   0  0  0  0  0  0  0  0  0  0  0  0
   57.4110   27.4220   45.5400 C   0  0  0  0  0  0  0  0  0  0  0  0
   56.0360   27.6870   45.6060 C   0  0  0  0  0  0  0  0  0  0  0  0
   55.1360   26.7120   46.0220 O   0  0  0  0  0  0  0  0  0  0  0  0
   55.5650   28.9030   45.2440 N   0  0  0  0  0  0  0  0  0  0  0  0
   56.3880   29.8890   44.8150 C   0  0  0  0  0  0  0  0  0  0  0  0
   55.8850   30.9980   44.4860 O   0  0  0  0  0  0  0  0  0  0  0  0
   57.7420   29.6810   44.7440 N   0  0  0  0  0  0  0  0  0  0  0  0
   58.6350   30.7480   44.2450 C   0  0  0  0  0  0  0  0  0  0  0  0
   58.7310   31.8660   45.2510 C   0  0  0  0  0  0  0  0  0  0  0  0
   59.0750   31.5930   46.5850 C   0  0  0  0  0  0  0  0  0  0  0  0
   59.1320   32.6260   47.5250 C   0  0  0  0  0  0  0  0  0  0  0  0
   58.8410   33.9390   47.1430 C   0  0  0  0  0  0  0  0  0  0  0  0
   58.8960   34.9390   48.0560 F   0  0  0  0  0  0  0  0  0  0  0  0
   58.4930   34.2190   45.8190 C   0  0  0  0  0  0  0  0  0  0  0  0
   58.4350   33.1880   44.8750 C   0  0  0  0  0  0  0  0  0  0  0  0
   58.2610   28.4610   45.1050 C   0  0  0  0  0  0  0  0  0  0  0  0
   59.5080   28.2740   45.0720 O   0  0  0  0  0  0  0  0  0  0  0  0
   57.5345   23.9949   45.7390 H   0  0  0  0  0  0  0  0  0  0  0  0
   56.8166   25.0219   44.4520 H   0  0  0  0  0  0  0  0  0  0  0  0
   58.5809   24.6844   44.4520 H   0  0  0  0  0  0  0  0  0  0  0  0
   59.6374   30.3298   44.0711 H   0  0  0  0  0  0  0  0  0  0  0  0
   58.2239   31.1472   43.3061 H   0  0  0  0  0  0  0  0  0  0  0  0
   59.3007   30.5610   46.8917 H   0  0  0  0  0  0  0  0  0  0  0  0
   59.4063   32.4054   48.5672 H   0  0  0  0  0  0  0  0  0  0  0  0
   58.2642   35.2521   45.5183 H   0  0  0  0  0  0  0  0  0  0  0  0
   58.1568   33.4126   43.8347 H   0  0  0  0  0  0  0  0  0  0  0  0
  1  2  1  0
  2  3  2  0
  2  4  1  0
  4  5  2  0
  5  6  1  0
  5  7  1  0
  7  8  1  0
  8  9  2  0
  8 10  1  0
 10 11  1  0
 11 12  1  0
 12 13  2  0
 13 14  1  0
 14 15  2  0
 15 16  1  0
 15 17  1  0
 17 18  2  0
 10 19  1  0
 19 20  2  0
 19  4  1  0
 18 12  1  0
  1 21  1  0
  1 22  1  0
  1 23  1  0
 11 24  1  0
 11 25  1  0
 13 26  1  0
 14 27  1  0
 17 28  1  0
 18 29  1  0
M  CHG  2   6  -1   7  -1
M  END
>  <UniqueID>  (38) 
36

>  <SMILES>  (38) 
CC(=O)c1c([O-])[n-]c(=O)n(Cc2ccc(F)cc2)c1=O

>  <Energy>  (38) 
38.29851819638969

>  <Genealogy>  (38) 
CC(=O)c1c([O-])[n-]c(=O)n(Cc2ccc(F)cc2)c1=O (protonated)
CC(=O)c1c([O-])[n-]c(=O)n(Cc2ccc(F)cc2)c1=O (3D coordinates assigned)
CC(=O)c1c([O-])[n-]c(=O)n(Cc2ccc(F)cc2)c1=O (optimized conformer: 38.29851819638969 kcal/mol)

>  <smiles>  (38) 
CC(=O)c1c(O)[nH]c(=O)n(Cc2ccc(F)cc2)c1=O

>  <score_type>  (38) 
oracle

>  <origin>  (38) 
adg

>  <m_score__min__energy>  (38) 
-11.630000000000001

>  <m_primary>  (38) 
energy

$$$$
38:0
     RDKit          3D

 25 26  0  0  0  0  0  0  0  0999 V2000
   59.0570   31.9910   52.9500 O   0  0  0  0  0  0  0  0  0  0  0  0
   58.7400   30.8600   52.4960 C   0  0  0  0  0  0  0  0  0  0  0  0
   59.7380   30.0240   52.0090 O   0  0  0  0  0  0  0  0  0  0  0  0
   57.3250   30.4260   52.4790 C   0  0  0  0  0  0  0  0  0  0  0  0
   56.3510   31.2050   51.8300 C   0  0  0  0  0  0  0  0  0  0  0  0
   55.0150   30.7980   51.8120 C   0  0  0  0  0  0  0  0  0  0  0  0
   54.6220   29.6090   52.4490 C   0  0  0  0  0  0  0  0  0  0  0  0
   53.2500   29.1740   52.4020 N   0  0  0  0  0  0  0  0  0  0  0  0
   52.4610   30.1540   51.7050 C   0  0  0  0  0  0  0  0  0  0  0  0
   52.0710   31.3430   52.3390 C   0  0  0  0  0  0  0  0  0  0  0  0
   51.3340   32.2770   51.6080 C   0  0  0  0  0  0  0  0  0  0  0  0
   50.9640   33.3520   52.1470 O   0  0  0  0  0  0  0  0  0  0  0  0
   51.0170   32.0260   50.3110 N   0  0  0  0  0  0  0  0  0  0  0  0
   51.4090   30.8740   49.7080 C   0  0  0  0  0  0  0  0  0  0  0  0
   51.1090   30.6610   48.5050 O   0  0  0  0  0  0  0  0  0  0  0  0
   52.1270   29.9520   50.4010 N   0  0  0  0  0  0  0  0  0  0  0  0
   55.5970   28.8250   53.0880 C   0  0  0  0  0  0  0  0  0  0  0  0
   56.9340   29.2310   53.1080 C   0  0  0  0  0  0  0  0  0  0  0  0
   56.6432   32.1417   51.3328 H   0  0  0  0  0  0  0  0  0  0  0  0
   54.2643   31.4135   51.2948 H   0  0  0  0  0  0  0  0  0  0  0  0
   52.8780   29.0300   53.3700 H   0  0  0  0  0  0  0  0  0  0  0  0
   53.1830   28.2550   51.9060 H   0  0  0  0  0  0  0  0  0  0  0  0
   52.3397   31.5353   53.3882 H   0  0  0  0  0  0  0  0  0  0  0  0
   55.3055   27.8836   53.5767 H   0  0  0  0  0  0  0  0  0  0  0  0
   57.6855   28.6115   53.6193 H   0  0  0  0  0  0  0  0  0  0  0  0
  1  2  2  0
  2  3  1  0
  2  4  1  0
  4  5  2  0
  5  6  1  0
  6  7  2  0
  7  8  1  0
  8  9  1  0
  9 10  2  0
 10 11  1  0
 11 12  2  0
 11 13  1  0
 13 14  1  0
 14 15  2  0
 14 16  1  0
  7 17  1  0
 17 18  2  0
 18  4  1  0
 16  9  1  0
  5 19  1  0
  6 20  1  0
  8 21  1  0
  8 22  1  0
 10 23  1  0
 17 24  1  0
 18 25  1  0
M  CHG  4   3  -1   8   1  13  -1  16  -1
M  END
>  <UniqueID>  (39) 
37

>  <SMILES>  (39) 
O=C([O-])c1ccc([NH2+]c2cc(=O)[n-]c(=O)[n-]2)cc1

>  <Energy>  (39) 
29.20928396011607

>  <Genealogy>  (39) 
O=C([O-])c1ccc([NH2+]c2cc(=O)[n-]c(=O)[n-]2)cc1 (protonated)
O=C([O-])c1ccc([NH2+]c2cc(=O)[n-]c(=O)[n-]2)cc1 (3D coordinates assigned)
O=C([O-])c1ccc([NH2+]c2cc(=O)[n-]c(=O)[n-]2)cc1 (optimized conformer: 29.20928396011607 kcal/mol)

>  <smiles>  (39) 
O=C(O)c1ccc(Nc2cc(=O)[nH]c(=O)[nH]2)cc1

>  <score_type>  (39) 
oracle

>  <origin>  (39) 
adg

>  <m_score__min__energy>  (39) 
-10.52

>  <m_primary>  (39) 
energy

$$$$
39:0
     RDKit          3D

 37 39  0  0  0  0  0  0  0  0999 V2000
   54.7720   26.3320   45.7910 N   0  0  0  0  0  0  0  0  0  0  0  0
   56.0860   26.2120   46.3330 C   0  0  0  0  0  0  0  0  0  0  0  0
   56.3370   25.2950   47.1600 O   0  0  0  0  0  0  0  0  0  0  0  0
   57.1370   27.1580   45.9290 C   0  0  0  0  0  0  0  0  0  0  0  0
   57.3950   27.5270   44.6770 C   0  0  0  0  0  0  0  0  0  0  0  0
   58.5230   28.5070   44.6610 C   0  0  1  0  0  0  0  0  0  0  0  0
   58.1990   29.9230   44.1220 C   0  0  0  0  0  0  0  0  0  0  0  0
   58.6230   30.8500   45.1750 N   0  0  0  0  0  0  0  0  0  0  0  0
   58.5180   32.3050   45.0860 C   0  0  0  0  0  0  0  0  0  0  0  0
   57.3710   32.8120   45.9750 C   0  0  0  0  0  0  0  0  0  0  0  0
   57.8070   33.8550   46.9170 N   0  0  0  0  0  0  0  0  0  0  0  0
   58.8960   34.6740   46.3730 C   0  0  0  0  0  0  0  0  0  0  0  0
   60.1810   34.2960   47.0360 C   0  0  0  0  0  0  0  0  0  0  0  0
   61.3270   33.8500   46.3870 C   0  0  0  0  0  0  0  0  0  0  0  0
   62.3560   33.4950   47.2680 C   0  0  0  0  0  0  0  0  0  0  0  0
   62.0050   33.6520   48.6010 C   0  0  0  0  0  0  0  0  0  0  0  0
   62.8030   33.3720   49.6590 F   0  0  0  0  0  0  0  0  0  0  0  0
   60.4280   34.2240   48.7010 S   0  0  0  0  0  0  0  0  0  0  0  0
   58.9100   30.1200   46.3580 C   0  0  0  0  0  0  0  0  0  0  0  0
   59.1760   30.6470   47.4710 O   0  0  0  0  0  0  0  0  0  0  0  0
   58.7460   28.7120   46.1160 C   0  0  0  0  0  0  0  0  0  0  0  0
   57.9740   27.9240   46.8480 C   0  0  0  0  0  0  0  0  0  0  0  0
   53.9900   26.7180   46.3640 H   0  0  0  0  0  0  0  0  0  0  0  0
   56.8586   27.1651   43.7874 H   0  0  0  0  0  0  0  0  0  0  0  0
   59.3299   28.1144   44.0247 H   0  0  0  0  0  0  0  0  0  0  0  0
   58.7547   30.1169   43.1927 H   0  0  0  0  0  0  0  0  0  0  0  0
   57.1304   30.0349   43.8861 H   0  0  0  0  0  0  0  0  0  0  0  0
   59.4632   32.7582   45.4195 H   0  0  0  0  0  0  0  0  0  0  0  0
   58.3132   32.5860   44.0424 H   0  0  0  0  0  0  0  0  0  0  0  0
   56.5818   33.2264   45.3304 H   0  0  0  0  0  0  0  0  0  0  0  0
   57.0045   31.9598   46.5661 H   0  0  0  0  0  0  0  0  0  0  0  0
   56.9940   34.4750   47.1500 H   0  0  0  0  0  0  0  0  0  0  0  0
   58.9779   34.5027   45.2895 H   0  0  0  0  0  0  0  0  0  0  0  0
   58.6849   35.7371   46.5606 H   0  0  0  0  0  0  0  0  0  0  0  0
   61.4162   33.7828   45.2927 H   0  0  0  0  0  0  0  0  0  0  0  0
   63.3397   33.1299   46.9377 H   0  0  0  0  0  0  0  0  0  0  0  0
   57.9648   27.8585   47.9460 H   0  0  0  0  0  0  0  0  0  0  0  0
  1  2  1  0
  2  3  2  0
  2  4  1  0
  4  5  2  0
  5  6  1  0
  6  7  1  0
  7  8  1  0
  8  9  1  0
  9 10  1  0
 10 11  1  0
 11 12  1  0
 12 13  1  0
 13 14  2  0
 14 15  1  0
 15 16  2  0
 16 17  1  0
 16 18  1  0
  8 19  1  0
 19 20  2  0
 19 21  1  0
 21 22  2  0
 22  4  1  0
 21  6  1  0
 18 13  1  0
  1 23  1  0
  5 24  1  0
  6 25  1  6
  7 26  1  0
  7 27  1  0
  9 28  1  0
  9 29  1  0
 10 30  1  0
 10 31  1  0
 11 32  1  0
 12 33  1  0
 12 34  1  0
 14 35  1  0
 15 36  1  0
 22 37  1  0
M  CHG  1   1  -1
M  END
>  <UniqueID>  (40) 
38

>  <SMILES>  (40) 
[NH-]C(=O)C1=C[C@H]2CN(CCNCc3ccc(F)s3)C(=O)C2=C1

>  <Energy>  (40) 
101.07623098890615

>  <Genealogy>  (40) 
[NH-]C(=O)C1=CC2CN(CCNCc3ccc(F)s3)C(=O)C2=C1 (protonated)
[NH-]C(=O)C1=C[C@H]2CN(CCNCc3ccc(F)s3)C(=O)C2=C1 (chirality)
[NH-]C(=O)C1=C[C@H]2CN(CCNCc3ccc(F)s3)C(=O)C2=C1 (3D coordinates assigned)
[NH-]C(=O)C1=C[C@H]2CN(CCNCc3ccc(F)s3)C(=O)C2=C1 (nonaromatic ring conformer: 101.07623098890615 kcal/mol)

>  <smiles>  (40) 
NC(=O)C1=CC2CN(CCNCc3ccc(F)s3)C(=O)C2=C1

>  <score_type>  (40) 
oracle

>  <origin>  (40) 
adg

>  <m_score__min__energy>  (40) 
-10.65

>  <m_primary>  (40) 
energy

$$$$
40:0
     RDKit          3D

 39 40  0  0  0  0  0  0  0  0999 V2000
   59.6960   34.9450   46.2790 C   0  0  0  0  0  0  0  0  0  0  0  0
   58.5520   34.1960   45.8820 O   0  0  0  0  0  0  0  0  0  0  0  0
   58.5100   32.7960   45.7970 C   0  0  0  0  0  0  0  0  0  0  0  0
   59.6150   32.0730   46.2510 C   0  0  0  0  0  0  0  0  0  0  0  0
   59.6250   30.6790   46.1910 C   0  0  0  0  0  0  0  0  0  0  0  0
   58.5180   29.9800   45.6820 C   0  0  0  0  0  0  0  0  0  0  0  0
   58.5590   28.4790   45.6000 C   0  0  0  0  0  0  0  0  0  0  0  0
   57.8950   27.9130   46.7670 N   0  0  0  0  0  0  0  0  0  0  0  0
   57.8920   26.5180   47.0950 C   0  0  0  0  0  0  0  0  0  0  0  0
   58.8660   26.0400   47.7340 O   0  0  0  0  0  0  0  0  0  0  0  0
   56.7820   25.6300   46.7010 C   0  0  0  0  0  0  0  0  0  0  0  0
   56.8410   24.2660   47.0200 C   0  0  0  0  0  0  0  0  0  0  0  0
   55.8090   23.4010   46.6370 C   0  0  0  0  0  0  0  0  0  0  0  0
   55.8880   21.9350   46.9620 C   0  0  0  0  0  0  0  0  0  0  0  0
   54.7350   23.9210   45.8970 C   0  0  0  0  0  0  0  0  0  0  0  0
   53.7980   23.1700   45.5110 O   0  0  0  0  0  0  0  0  0  0  0  0
   54.6970   25.2440   45.5910 N   0  0  0  0  0  0  0  0  0  0  0  0
   55.6750   26.1080   45.9690 C   0  0  0  0  0  0  0  0  0  0  0  0
   55.5420   27.4550   45.6300 O   0  0  0  0  0  0  0  0  0  0  0  0
   57.4030   30.6950   45.2040 C   0  0  0  0  0  0  0  0  0  0  0  0
   56.3170   29.9790   44.6710 O   0  0  0  0  0  0  0  0  0  0  0  0
   56.1100   29.7370   43.2830 C   0  0  0  0  0  0  0  0  0  0  0  0
   57.4030   32.1040   45.2710 C   0  0  0  0  0  0  0  0  0  0  0  0
   59.7487   34.9795   47.3772 H   0  0  0  0  0  0  0  0  0  0  0  0
   60.6035   34.4657   45.8833 H   0  0  0  0  0  0  0  0  0  0  0  0
   59.6196   35.9685   45.8833 H   0  0  0  0  0  0  0  0  0  0  0  0
   60.4854   32.6072   46.6596 H   0  0  0  0  0  0  0  0  0  0  0  0
   60.5060   30.1235   46.5448 H   0  0  0  0  0  0  0  0  0  0  0  0
   58.0431   28.1470   44.6870 H   0  0  0  0  0  0  0  0  0  0  0  0
   59.6053   28.1407   45.5720 H   0  0  0  0  0  0  0  0  0  0  0  0
   57.7050   23.8724   47.5756 H   0  0  0  0  0  0  0  0  0  0  0  0
   55.8952   21.8014   48.0538 H   0  0  0  0  0  0  0  0  0  0  0  0
   55.0165   21.4173   46.5350 H   0  0  0  0  0  0  0  0  0  0  0  0
   56.8101   21.5139   46.5350 H   0  0  0  0  0  0  0  0  0  0  0  0
   56.2600   28.1430   45.8170 H   0  0  0  0  0  0  0  0  0  0  0  0
   55.3996   28.9065   43.1575 H   0  0  0  0  0  0  0  0  0  0  0  0
   55.7027   30.6426   42.8097 H   0  0  0  0  0  0  0  0  0  0  0  0
   57.0677   29.4750   42.8097 H   0  0  0  0  0  0  0  0  0  0  0  0
   56.5301   32.6669   44.9089 H   0  0  0  0  0  0  0  0  0  0  0  0
  1  2  1  0
  2  3  1  0
  3  4  2  0
  4  5  1  0
  5  6  2  0
  6  7  1  0
  7  8  1  0
  8  9  1  0
  9 10  2  0
  9 11  1  0
 11 12  1  0
 12 13  2  0
 13 14  1  0
 13 15  1  0
 15 16  2  0
 15 17  1  0
 17 18  1  0
 18 19  1  0
  6 20  1  0
 20 21  1  0
 21 22  1  0
 20 23  2  0
 23  3  1  0
 18 11  2  0
  1 24  1  0
  1 25  1  0
  1 26  1  0
  4 27  1  0
  5 28  1  0
  7 29  1  0
  7 30  1  0
 12 31  1  0
 14 32  1  0
 14 33  1  0
 14 34  1  0
 19 35  1  0
 22 36  1  0
 22 37  1  0
 22 38  1  0
 23 39  1  0
M  CHG  2   8  -1  17  -1
M  END
>  <UniqueID>  (41) 
39

>  <SMILES>  (41) 
COc1ccc(C[N-]C(=O)c2cc(C)c(=O)[n-]c2O)c(OC)c1

>  <Energy>  (41) 
44.05943738322735

>  <Genealogy>  (41) 
COc1ccc(C[N-]C(=O)c2cc(C)c(=O)[n-]c2O)c(OC)c1 (protonated)
COc1ccc(C[N-]C(=O)c2cc(C)c(=O)[n-]c2O)c(OC)c1 (3D coordinates assigned)
COc1ccc(C[N-]C(=O)c2cc(C)c(=O)[n-]c2O)c(OC)c1 (optimized conformer: 44.05943738322735 kcal/mol)

>  <smiles>  (41) 
COc1ccc(CNC(=O)c2cc(C)c(=O)[nH]c2O)c(OC)c1

>  <score_type>  (41) 
oracle

>  <origin>  (41) 
adg

>  <m_score__min__energy>  (41) 
-10.85

>  <m_primary>  (41) 
energy

$$$$
41:0
     RDKit          3D

 34 36  0  0  0  0  0  0  0  0999 V2000
   58.2260   27.2650   43.8330 O   0  0  0  0  0  0  0  0  0  0  0  0
   57.4960   27.3830   44.8540 C   0  0  0  0  0  0  0  0  0  0  0  0
   56.8240   28.6270   45.1130 N   0  0  0  0  0  0  0  0  0  0  0  0
   57.1560   29.8550   44.4420 C   0  0  0  0  0  0  0  0  0  0  0  0
   56.6300   30.1220   43.1660 C   0  0  0  0  0  0  0  0  0  0  0  0
   57.0050   31.2720   42.4690 C   0  0  0  0  0  0  0  0  0  0  0  0
   57.9190   32.1630   43.0300 C   0  0  0  0  0  0  0  0  0  0  0  0
   58.4580   31.9110   44.2920 C   0  0  0  0  0  0  0  0  0  0  0  0
   58.0830   30.7620   45.0140 C   0  0  0  0  0  0  0  0  0  0  0  0
   58.6440   30.5510   46.3700 C   0  0  0  0  0  0  0  0  0  0  0  0
   59.2780   29.3390   46.7000 C   0  0  0  0  0  0  0  0  0  0  0  0
   59.7970   29.1410   47.9820 C   0  0  0  0  0  0  0  0  0  0  0  0
   59.6820   30.1450   48.9480 C   0  0  0  0  0  0  0  0  0  0  0  0
   59.0440   31.3470   48.6320 C   0  0  0  0  0  0  0  0  0  0  0  0
   58.5230   31.5500   47.3510 C   0  0  0  0  0  0  0  0  0  0  0  0
   57.2990   26.2190   45.7520 C   0  0  0  0  0  0  0  0  0  0  0  0
   56.0280   25.9180   46.2770 C   0  0  0  0  0  0  0  0  0  0  0  0
   54.9270   26.7150   45.9820 O   0  0  0  0  0  0  0  0  0  0  0  0
   55.8650   24.8480   47.0970 N   0  0  0  0  0  0  0  0  0  0  0  0
   56.9110   24.0490   47.4250 C   0  0  0  0  0  0  0  0  0  0  0  0
   56.7360   23.0660   48.1890 O   0  0  0  0  0  0  0  0  0  0  0  0
   58.1460   24.3090   46.9270 N   0  0  0  0  0  0  0  0  0  0  0  0
   58.3640   25.3650   46.1000 C   0  0  0  0  0  0  0  0  0  0  0  0
   59.5210   25.5500   45.6370 O   0  0  0  0  0  0  0  0  0  0  0  0
   55.9930   28.6150   45.7460 H   0  0  0  0  0  0  0  0  0  0  0  0
   55.9164   29.4183   42.7126 H   0  0  0  0  0  0  0  0  0  0  0  0
   56.5787   31.4755   41.4756 H   0  0  0  0  0  0  0  0  0  0  0  0
   58.2157   33.0662   42.4767 H   0  0  0  0  0  0  0  0  0  0  0  0
   59.1820   32.6160   44.7265 H   0  0  0  0  0  0  0  0  0  0  0  0
   59.3654   28.5437   45.9451 H   0  0  0  0  0  0  0  0  0  0  0  0
   60.2970   28.1935   48.2317 H   0  0  0  0  0  0  0  0  0  0  0  0
   60.0935   29.9887   49.9561 H   0  0  0  0  0  0  0  0  0  0  0  0
   58.9514   32.1356   49.3932 H   0  0  0  0  0  0  0  0  0  0  0  0
   58.0160   32.4959   47.1096 H   0  0  0  0  0  0  0  0  0  0  0  0
  1  2  2  0
  2  3  1  0
  3  4  1  0
  4  5  2  0
  5  6  1  0
  6  7  2  0
  7  8  1  0
  8  9  2  0
  9 10  1  0
 10 11  2  0
 11 12  1  0
 12 13  2  0
 13 14  1  0
 14 15  2  0
  2 16  1  0
 16 17  2  0
 17 18  1  0
 17 19  1  0
 19 20  1  0
 20 21  2  0
 20 22  1  0
 22 23  1  0
 23 24  2  0
  9  4  1  0
 15 10  1  0
 23 16  1  0
  3 25  1  0
  5 26  1  0
  6 27  1  0
  7 28  1  0
  8 29  1  0
 11 30  1  0
 12 31  1  0
 13 32  1  0
 14 33  1  0
 15 34  1  0
M  CHG  3  18  -1  19  -1  22  -1
M  END
>  <UniqueID>  (42) 
40

>  <SMILES>  (42) 
O=C(Nc1ccccc1-c1ccccc1)c1c([O-])[n-]c(=O)[n-]c1=O

>  <Energy>  (42) 
54.06777819717393

>  <Genealogy>  (42) 
O=C(Nc1ccccc1-c1ccccc1)c1c([O-])[n-]c(=O)[n-]c1=O (protonated)
O=C(Nc1ccccc1-c1ccccc1)c1c([O-])[n-]c(=O)[n-]c1=O (3D coordinates assigned)
O=C(Nc1ccccc1-c1ccccc1)c1c([O-])[n-]c(=O)[n-]c1=O (optimized conformer: 54.06777819717393 kcal/mol)

>  <smiles>  (42) 
O=C(Nc1ccccc1-c1ccccc1)c1c(O)[nH]c(=O)[nH]c1=O

>  <score_type>  (42) 
oracle

>  <origin>  (42) 
adg

>  <m_score__min__energy>  (42) 
-15.24

>  <m_primary>  (42) 
energy

$$$$
42:0
     RDKit          3D

 52 56  0  0  0  0  0  0  0  0999 V2000
   63.3600   33.7780   47.1050 C   0  0  0  0  0  0  0  0  0  0  0  0
   63.3460   32.2760   48.1370 S   0  0  0  0  0  0  0  0  0  0  0  0
   63.9840   33.1280   49.5900 C   0  0  0  0  0  0  0  0  0  0  0  0
   65.3270   33.1110   49.8000 N   0  0  0  0  0  0  0  0  0  0  0  0
   65.8970   33.6770   50.8950 C   0  0  0  0  0  0  0  0  0  0  0  0
   65.0990   34.2930   51.8560 C   0  0  0  0  0  0  0  0  0  0  0  0
   63.7180   34.3260   51.6770 C   0  0  0  0  0  0  0  0  0  0  0  0
   63.1390   33.7600   50.5300 C   0  0  0  0  0  0  0  0  0  0  0  0
   61.6710   33.7860   50.3880 C   0  0  0  0  0  0  0  0  0  0  0  0
   61.1520   34.5400   49.5180 O   0  0  0  0  0  0  0  0  0  0  0  0
   60.8320   32.9610   51.2120 N   0  0  0  0  0  0  0  0  0  0  0  0
   59.3910   33.1820   51.3040 C   0  0  0  0  0  0  0  0  0  0  0  0
   58.6570   31.9590   50.8030 C   0  0  0  0  0  0  0  0  0  0  0  0
   58.3120   31.0090   51.6960 N   0  0  0  0  0  0  0  0  0  0  0  0
   58.2390   29.8640   51.0460 N   0  0  0  0  0  0  0  0  0  0  0  0
   58.5210   30.1210   49.7580 C   0  0  0  0  0  0  0  0  0  0  0  0
   58.7170   31.4440   49.5370 N   0  0  0  0  0  0  0  0  0  0  0  0
   59.0100   32.0970   48.2690 C   0  0  0  0  0  0  0  0  0  0  0  0
   58.9710   33.5040   48.1640 C   0  0  0  0  0  0  0  0  0  0  0  0
   59.5420   34.1590   47.0730 C   0  0  0  0  0  0  0  0  0  0  0  0
   60.0830   33.4200   46.0290 C   0  0  0  0  0  0  0  0  0  0  0  0
   59.8940   32.0400   45.9940 C   0  0  0  0  0  0  0  0  0  0  0  0
   59.2550   31.3750   47.0620 C   0  0  0  0  0  0  0  0  0  0  0  0
   58.5590   30.0900   46.7350 C   0  0  0  0  0  0  0  0  0  0  0  0
   57.9060   29.9260   45.4180 C   0  0  0  0  0  0  0  0  0  0  0  0
   57.1480   30.9890   44.8960 C   0  0  0  0  0  0  0  0  0  0  0  0
   56.5080   30.8610   43.6620 C   0  0  0  0  0  0  0  0  0  0  0  0
   56.6210   29.6730   42.9350 C   0  0  0  0  0  0  0  0  0  0  0  0
   57.3770   28.6120   43.4390 C   0  0  0  0  0  0  0  0  0  0  0  0
   58.0220   28.7300   44.6760 C   0  0  0  0  0  0  0  0  0  0  0  0
   59.0100   27.3830   45.2330 Cl  0  0  0  0  0  0  0  0  0  0  0  0
   58.4610   29.1000   47.5670 N   0  0  0  0  0  0  0  0  0  0  0  0
   59.0640   29.0480   48.8790 C   0  0  0  0  0  0  0  0  0  0  0  0
   63.3683   34.6675   47.7521 H   0  0  0  0  0  0  0  0  0  0  0  0
   64.2582   33.7782   46.4700 H   0  0  0  0  0  0  0  0  0  0  0  0
   62.4620   33.7949   46.4700 H   0  0  0  0  0  0  0  0  0  0  0  0
   66.9892   33.6489   51.0230 H   0  0  0  0  0  0  0  0  0  0  0  0
   65.5547   34.7489   52.7474 H   0  0  0  0  0  0  0  0  0  0  0  0
   63.0783   34.7975   52.4376 H   0  0  0  0  0  0  0  0  0  0  0  0
   61.2570   32.1910   51.7720 H   0  0  0  0  0  0  0  0  0  0  0  0
   59.1158   33.3702   52.3522 H   0  0  0  0  0  0  0  0  0  0  0  0
   59.1149   34.0511   50.6888 H   0  0  0  0  0  0  0  0  0  0  0  0
   58.4829   34.0929   48.9546 H   0  0  0  0  0  0  0  0  0  0  0  0
   59.5638   35.2583   47.0396 H   0  0  0  0  0  0  0  0  0  0  0  0
   60.6568   33.9207   45.2352 H   0  0  0  0  0  0  0  0  0  0  0  0
   60.2462   31.4636   45.1258 H   0  0  0  0  0  0  0  0  0  0  0  0
   57.0588   31.9271   45.4634 H   0  0  0  0  0  0  0  0  0  0  0  0
   55.9143   31.6960   43.2616 H   0  0  0  0  0  0  0  0  0  0  0  0
   56.1137   29.5731   41.9641 H   0  0  0  0  0  0  0  0  0  0  0  0
   57.4659   27.6800   42.8616 H   0  0  0  0  0  0  0  0  0  0  0  0
   58.8526   28.0689   49.3337 H   0  0  0  0  0  0  0  0  0  0  0  0
   60.1487   29.1969   48.7727 H   0  0  0  0  0  0  0  0  0  0  0  0
  1  2  1  0
  2  3  1  0
  3  4  2  0
  4  5  1  0
  5  6  2  0
  6  7  1  0
  7  8  2  0
  8  9  1  0
  9 10  2  0
  9 11  1  0
 11 12  1  0
 12 13  1  0
 13 14  2  0
 14 15  1  0
 15 16  2  0
 16 17  1  0
 17 18  1  0
 18 19  2  0
 19 20  1  0
 20 21  2  0
 21 22  1  0
 22 23  2  0
 23 24  1  0
 24 25  1  0
 25 26  2  0
 26 27  1  0
 27 28  2  0
 28 29  1  0
 29 30  2  0
 30 31  1  0
 24 32  2  0
 32 33  1  0
  8  3  1  0
 17 13  1  0
 23 18  1  0
 30 25  1  0
 33 16  1  0
  1 34  1  0
  1 35  1  0
  1 36  1  0
  5 37  1  0
  6 38  1  0
  7 39  1  0
 11 40  1  0
 12 41  1  0
 12 42  1  0
 19 43  1  0
 20 44  1  0
 21 45  1  0
 22 46  1  0
 26 47  1  0
 27 48  1  0
 28 49  1  0
 29 50  1  0
 33 51  1  0
 33 52  1  0
M  END
>  <UniqueID>  (43) 
41

>  <SMILES>  (43) 
CSc1ncccc1C(=O)NCc1nnc2n1-c1ccccc1C(c1ccccc1Cl)=NC2

>  <Energy>  (43) 
136.82451835368803

>  <Genealogy>  (43) 
CSc1ncccc1C(=O)NCc1nnc2n1-c1ccccc1C(c1ccccc1Cl)=NC2 (3D coordinates assigned)
CSc1ncccc1C(=O)NCc1nnc2n1-c1ccccc1C(c1ccccc1Cl)=NC2 (nonaromatic ring conformer: 136.82451835368803 kcal/mol)

>  <smiles>  (43) 
CSc1ncccc1C(=O)NCc1nnc2n1-c1ccccc1C(c1ccccc1Cl)=NC2

>  <score_type>  (43) 
oracle

>  <origin>  (43) 
adg

>  <m_score__min__energy>  (43) 
-9.0800000000000001

>  <m_primary>  (43) 
energy

$$$$
43:0
     RDKit          3D

 44 47  0  0  0  0  0  0  0  0999 V2000
   63.6210   33.2680   47.2480 C   0  0  0  0  0  0  0  0  0  0  0  0
   62.6240   34.0580   48.0430 C   0  0  0  0  0  0  0  0  0  0  0  0
   62.9990   34.5850   49.1250 O   0  0  0  0  0  0  0  0  0  0  0  0
   61.2590   34.2420   47.6310 N   0  0  0  0  0  0  0  0  0  0  0  0
   60.4830   33.4040   47.0030 C   0  0  0  0  0  0  0  0  0  0  0  0
   59.7850   33.7060   45.8870 N   0  0  0  0  0  0  0  0  0  0  0  0
   59.1060   32.5770   45.6060 C   0  0  0  0  0  0  0  0  0  0  0  0
   59.4060   31.6110   46.5440 C   0  0  0  0  0  0  0  0  0  0  0  0
   58.8200   30.2540   46.5810 C   0  0  0  0  0  0  0  0  0  0  0  0
   59.1910   29.3300   47.5700 C   0  0  0  0  0  0  0  0  0  0  0  0
   58.6460   28.0440   47.5790 C   0  0  0  0  0  0  0  0  0  0  0  0
   57.7350   27.6460   46.5860 C   0  0  0  0  0  0  0  0  0  0  0  0
   57.1670   26.2770   46.6200 C   0  0  0  0  0  0  0  0  0  0  0  0
   57.8960   25.1780   46.8970 N   0  0  0  0  0  0  0  0  0  0  0  0
   57.0040   24.1700   46.8100 C   0  0  0  0  0  0  0  0  0  0  0  0
   57.3160   22.9680   47.0110 O   0  0  0  0  0  0  0  0  0  0  0  0
   55.7520   24.5510   46.4860 N   0  0  0  0  0  0  0  0  0  0  0  0
   55.8670   25.8830   46.3640 C   0  0  0  0  0  0  0  0  0  0  0  0
   54.8120   26.7070   45.9950 O   0  0  0  0  0  0  0  0  0  0  0  0
   57.3690   28.5710   45.5920 C   0  0  0  0  0  0  0  0  0  0  0  0
   57.9140   29.8580   45.5850 C   0  0  0  0  0  0  0  0  0  0  0  0
   60.2820   32.1370   47.4310 N   0  0  0  0  0  0  0  0  0  0  0  0
   60.7910   31.5500   48.6780 C   0  0  0  0  0  0  0  0  0  0  0  0
   59.8790   31.8580   49.8430 C   0  0  0  0  0  0  0  0  0  0  0  0
   59.8960   33.1350   50.4260 C   0  0  0  0  0  0  0  0  0  0  0  0
   59.0360   33.4410   51.4860 C   0  0  0  0  0  0  0  0  0  0  0  0
   58.1440   32.4770   51.9640 C   0  0  0  0  0  0  0  0  0  0  0  0
   57.2910   32.7820   53.0180 O   0  0  0  0  0  0  0  0  0  0  0  0
   58.1080   31.2080   51.3810 C   0  0  0  0  0  0  0  0  0  0  0  0
   58.9670   30.8990   50.3220 C   0  0  0  0  0  0  0  0  0  0  0  0
   64.2955   32.7335   47.9331 H   0  0  0  0  0  0  0  0  0  0  0  0
   63.0915   32.5416   46.6139 H   0  0  0  0  0  0  0  0  0  0  0  0
   64.2071   33.9495   46.6139 H   0  0  0  0  0  0  0  0  0  0  0  0
   58.4176   32.4455   44.7582 H   0  0  0  0  0  0  0  0  0  0  0  0
   59.9165   29.6208   48.3440 H   0  0  0  0  0  0  0  0  0  0  0  0
   58.9326   27.3362   48.3708 H   0  0  0  0  0  0  0  0  0  0  0  0
   56.6482   28.2794   44.8139 H   0  0  0  0  0  0  0  0  0  0  0  0
   57.6306   30.5662   44.7925 H   0  0  0  0  0  0  0  0  0  0  0  0
   60.8621   30.4589   48.5574 H   0  0  0  0  0  0  0  0  0  0  0  0
   61.7799   31.9840   48.8874 H   0  0  0  0  0  0  0  0  0  0  0  0
   60.5899   33.8997   50.0469 H   0  0  0  0  0  0  0  0  0  0  0  0
   59.0618   34.4410   51.9436 H   0  0  0  0  0  0  0  0  0  0  0  0
   57.4031   30.4511   51.7555 H   0  0  0  0  0  0  0  0  0  0  0  0
   58.9298   29.9011   49.8607 H   0  0  0  0  0  0  0  0  0  0  0  0
  1  2  1  0
  2  3  2  0
  2  4  1  0
  4  5  2  3
  5  6  1  0
  6  7  1  0
  7  8  2  0
  8  9  1  0
  9 10  2  0
 10 11  1  0
 11 12  2  0
 12 13  1  0
 13 14  1  0
 14 15  1  0
 15 16  2  0
 15 17  1  0
 17 18  1  0
 18 19  1  0
 12 20  1  0
 20 21  2  0
  8 22  1  0
 22 23  1  0
 23 24  1  0
 24 25  2  0
 25 26  1  0
 26 27  2  0
 27 28  1  0
 27 29  1  0
 29 30  2  0
 22  5  1  0
 30 24  1  0
 21  9  1  0
 18 13  2  0
  1 31  1  0
  1 32  1  0
  1 33  1  0
  7 34  1  0
 10 35  1  0
 11 36  1  0
 20 37  1  0
 21 38  1  0
 23 39  1  0
 23 40  1  0
 25 41  1  0
 26 42  1  0
 29 43  1  0
 30 44  1  0
M  CHG  5   6  -1  14  -1  17  -1  19  -1  28  -1
M  END
>  <UniqueID>  (44) 
42

>  <SMILES>  (44) 
CC(=O)N=c1[n-]cc(-c2ccc(-c3[n-]c(=O)[n-]c3[O-])cc2)n1Cc1ccc([O-])cc1

>  <Energy>  (44) 
119.29589138378118

>  <Genealogy>  (44) 
CC(=O)N=c1[n-]cc(-c2ccc(-c3[n-]c(=O)[n-]c3[O-])cc2)n1Cc1ccc([O-])cc1 (protonated)
CC(=O)N=c1[n-]cc(-c2ccc(-c3[n-]c(=O)[n-]c3[O-])cc2)n1Cc1ccc([O-])cc1 (3D coordinates assigned)
CC(=O)N=c1[n-]cc(-c2ccc(-c3[n-]c(=O)[n-]c3[O-])cc2)n1Cc1ccc([O-])cc1 (optimized conformer: 119.29589138378118 kcal/mol)

>  <smiles>  (44) 
CC(=O)N=c1[nH]cc(-c2ccc(-c3[nH]c(=O)[nH]c3O)cc2)n1Cc1ccc(O)cc1

>  <score_type>  (44) 
oracle

>  <origin>  (44) 
adg

>  <m_score__min__energy>  (44) 
-16.550000000000001

>  <m_primary>  (44) 
energy

$$$$
44:0
     RDKit          3D

 47 50  0  0  0  0  0  0  0  0999 V2000
   57.3800   25.2850   44.6080 C   0  0  0  0  0  0  0  0  0  0  0  0
   56.7390   26.2090   45.9860 S   0  0  0  0  0  0  0  0  0  0  0  0
   55.2390   26.1110   45.9950 O   0  0  0  0  0  0  0  0  0  0  0  0
   57.2680   25.6350   47.2700 O   0  0  0  0  0  0  0  0  0  0  0  0
   57.2360   27.8910   45.8430 C   0  0  0  0  0  0  0  0  0  0  0  0
   56.6660   28.7050   44.8570 C   0  0  0  0  0  0  0  0  0  0  0  0
   57.0440   30.0450   44.7440 C   0  0  0  0  0  0  0  0  0  0  0  0
   58.0000   30.5940   45.6180 C   0  0  0  0  0  0  0  0  0  0  0  0
   58.4040   32.0180   45.4990 C   0  0  0  0  0  0  0  0  0  0  0  0
   58.4760   32.6380   44.2390 C   0  0  0  0  0  0  0  0  0  0  0  0
   58.8560   33.9770   44.1290 C   0  0  0  0  0  0  0  0  0  0  0  0
   59.1730   34.7140   45.2730 C   0  0  0  0  0  0  0  0  0  0  0  0
   59.1110   34.1140   46.5400 C   0  0  0  0  0  0  0  0  0  0  0  0
   59.4750   34.8950   47.7750 C   0  0  0  0  0  0  0  0  0  0  0  0
   60.4770   34.1390   48.6020 C   0  0  0  0  0  0  0  0  0  0  0  0
   60.1880   33.8420   49.9020 N   0  0  0  0  0  0  0  0  0  0  0  0
   61.0300   33.1440   50.6740 N   0  0  0  0  0  0  0  0  0  0  0  0
   62.2210   32.6900   50.1900 C   0  0  0  0  0  0  0  0  0  0  0  0
   63.0020   32.0300   50.9280 O   0  0  0  0  0  0  0  0  0  0  0  0
   62.5520   32.9690   48.8660 C   0  0  0  0  0  0  0  0  0  0  0  0
   61.6910   33.6800   48.0760 C   0  0  0  0  0  0  0  0  0  0  0  0
   62.2150   33.8390   46.6960 C   0  0  0  0  0  0  0  0  0  0  0  0
   63.6220   33.2160   46.7550 C   0  0  0  0  0  0  0  0  0  0  0  0
   63.7760   32.5570   48.1370 C   0  0  0  0  0  0  0  0  0  0  0  0
   58.7250   32.7680   46.6470 C   0  0  0  0  0  0  0  0  0  0  0  0
   58.5650   29.7720   46.6110 C   0  0  0  0  0  0  0  0  0  0  0  0
   58.1820   28.4320   46.7230 C   0  0  0  0  0  0  0  0  0  0  0  0
   57.9701   24.4343   44.9796 H   0  0  0  0  0  0  0  0  0  0  0  0
   56.5452   24.9127   43.9961 H   0  0  0  0  0  0  0  0  0  0  0  0
   58.0211   25.9365   43.9961 H   0  0  0  0  0  0  0  0  0  0  0  0
   55.9170   28.2875   44.1680 H   0  0  0  0  0  0  0  0  0  0  0  0
   56.5905   30.6760   43.9654 H   0  0  0  0  0  0  0  0  0  0  0  0
   58.2311   32.0638   43.3333 H   0  0  0  0  0  0  0  0  0  0  0  0
   58.9060   34.4532   43.1387 H   0  0  0  0  0  0  0  0  0  0  0  0
   59.4723   35.7684   45.1801 H   0  0  0  0  0  0  0  0  0  0  0  0
   59.9075   35.8616   47.4772 H   0  0  0  0  0  0  0  0  0  0  0  0
   58.5669   35.0536   48.3751 H   0  0  0  0  0  0  0  0  0  0  0  0
   60.7600   32.9430   51.6620 H   0  0  0  0  0  0  0  0  0  0  0  0
   61.5810   33.3042   45.9735 H   0  0  0  0  0  0  0  0  0  0  0  0
   62.2314   34.8891   46.3688 H   0  0  0  0  0  0  0  0  0  0  0  0
   63.7319   32.4599   45.9636 H   0  0  0  0  0  0  0  0  0  0  0  0
   64.3939   33.9849   46.6032 H   0  0  0  0  0  0  0  0  0  0  0  0
   63.8271   31.4620   48.0451 H   0  0  0  0  0  0  0  0  0  0  0  0
   64.6994   32.8610   48.6518 H   0  0  0  0  0  0  0  0  0  0  0  0
   58.6728   32.2943   47.6384 H   0  0  0  0  0  0  0  0  0  0  0  0
   59.3126   30.1864   47.3033 H   0  0  0  0  0  0  0  0  0  0  0  0
   58.6257   27.7995   47.5060 H   0  0  0  0  0  0  0  0  0  0  0  0
  1  2  1  0
  2  3  2  0
  2  4  2  0
  2  5  1  0
  5  6  2  0
  6  7  1  0
  7  8  2  0
  8  9  1  0
  9 10  2  0
 10 11  1  0
 11 12  2  0
 12 13  1  0
 13 14  1  0
 14 15  1  0
 15 16  2  0
 16 17  1  0
 17 18  1  0
 18 19  2  0
 18 20  1  0
 20 21  2  0
 21 22  1  0
 22 23  1  0
 23 24  1  0
 13 25  2  0
  8 26  1  0
 26 27  2  0
 27  5  1  0
 25  9  1  0
 21 15  1  0
 24 20  1  0
  1 28  1  0
  1 29  1  0
  1 30  1  0
  6 31  1  0
  7 32  1  0
 10 33  1  0
 11 34  1  0
 12 35  1  0
 14 36  1  0
 14 37  1  0
 17 38  1  0
 22 39  1  0
 22 40  1  0
 23 41  1  0
 23 42  1  0
 24 43  1  0
 24 44  1  0
 25 45  1  0
 26 46  1  0
 27 47  1  0
M  END
>  <UniqueID>  (45) 
43

>  <SMILES>  (45) 
CS(=O)(=O)c1ccc(-c2cccc(Cc3n[nH]c(=O)c4c3CCC4)c2)cc1

>  <Energy>  (45) 
60.31698170853321

>  <Genealogy>  (45) 
CS(=O)(=O)c1ccc(-c2cccc(Cc3n[nH]c(=O)c4c3CCC4)c2)cc1 (3D coordinates assigned)
CS(=O)(=O)c1ccc(-c2cccc(Cc3n[nH]c(=O)c4c3CCC4)c2)cc1 (nonaromatic ring conformer: 60.31698170853321 kcal/mol)

>  <smiles>  (45) 
CS(=O)(=O)c1ccc(-c2cccc(Cc3n[nH]c(=O)c4c3CCC4)c2)cc1

>  <score_type>  (45) 
oracle

>  <origin>  (45) 
adg

>  <m_score__min__energy>  (45) 
-10.199999999999999

>  <m_primary>  (45) 
energy

$$$$
45:0
     RDKit          3D

 50 53  0  0  0  0  0  0  0  0999 V2000
   54.2600   29.2380   54.5460 C   0  0  0  0  0  0  0  0  0  0  0  0
   54.8150   29.7840   53.4520 C   0  0  0  0  0  0  0  0  0  0  0  0
   54.2500   30.7560   52.6120 C   0  0  0  0  0  0  0  0  0  0  0  0
   52.9930   31.2330   52.5300 C   0  0  0  0  0  0  0  0  0  0  0  0
   52.1550   31.2390   51.3190 C   0  0  0  0  0  0  0  0  0  0  0  0
   52.2280   30.3290   50.3310 N   0  0  0  0  0  0  0  0  0  0  0  0
   51.3900   30.8210   49.3920 C   0  0  0  0  0  0  0  0  0  0  0  0
   51.1730   30.2310   48.3020 O   0  0  0  0  0  0  0  0  0  0  0  0
   50.8110   31.9990   49.7100 N   0  0  0  0  0  0  0  0  0  0  0  0
   51.3180   32.2550   50.9260 C   0  0  0  0  0  0  0  0  0  0  0  0
   51.0270   33.3980   51.6600 O   0  0  0  0  0  0  0  0  0  0  0  0
   55.2690   31.1830   51.7770 C   0  0  0  0  0  0  0  0  0  0  0  0
   56.3860   30.4400   52.0930 C   0  0  0  0  0  0  0  0  0  0  0  0
   57.6860   30.5810   51.4060 C   0  0  0  0  0  0  0  0  0  0  0  0
   57.9150   29.8500   50.4040 O   0  0  0  0  0  0  0  0  0  0  0  0
   58.6740   31.5420   51.8330 N   0  0  0  0  0  0  0  0  0  0  0  0
   60.0890   31.2960   51.5130 C   0  0  0  0  0  0  0  0  0  0  0  0
   60.9540   32.5450   51.7220 C   0  0  0  0  0  0  0  0  0  0  0  0
   60.6520   33.1820   53.0120 N   0  0  0  0  0  0  0  0  0  0  0  0
   61.6940   33.8550   53.7530 C   0  0  0  0  0  0  0  0  0  0  0  0
   61.4170   34.4570   54.9950 C   0  0  0  0  0  0  0  0  0  0  0  0
   62.4300   35.1010   55.7120 C   0  0  0  0  0  0  0  0  0  0  0  0
   63.7300   35.1530   55.2030 C   0  0  0  0  0  0  0  0  0  0  0  0
   64.7290   35.7990   55.9290 O   0  0  0  0  0  0  0  0  0  0  0  0
   64.0170   34.5540   53.9700 C   0  0  0  0  0  0  0  0  0  0  0  0
   63.0070   33.9080   53.2510 C   0  0  0  0  0  0  0  0  0  0  0  0
   59.2590   33.2820   53.4740 C   0  0  0  0  0  0  0  0  0  0  0  0
   58.2700   32.8410   52.3910 C   0  0  0  0  0  0  0  0  0  0  0  0
   56.1060   29.5660   53.0880 N   0  0  0  0  0  0  0  0  0  0  0  0
   57.0190   28.5760   53.6700 C   0  0  0  0  0  0  0  0  0  0  0  0
   54.8109   28.4801   55.1223 H   0  0  0  0  0  0  0  0  0  0  0  0
   53.2544   29.5486   54.8659 H   0  0  0  0  0  0  0  0  0  0  0  0
   52.5546   31.6544   53.4466 H   0  0  0  0  0  0  0  0  0  0  0  0
   55.2000   31.9663   51.0078 H   0  0  0  0  0  0  0  0  0  0  0  0
   60.4648   30.4917   52.1625 H   0  0  0  0  0  0  0  0  0  0  0  0
   60.1519   31.0145   50.4515 H   0  0  0  0  0  0  0  0  0  0  0  0
   62.0151   32.2556   51.7028 H   0  0  0  0  0  0  0  0  0  0  0  0
   60.7368   33.2619   50.9165 H   0  0  0  0  0  0  0  0  0  0  0  0
   60.3966   34.4205   55.4042 H   0  0  0  0  0  0  0  0  0  0  0  0
   62.2024   35.5688   56.6812 H   0  0  0  0  0  0  0  0  0  0  0  0
   64.7500   36.8070   56.0200 H   0  0  0  0  0  0  0  0  0  0  0  0
   65.0396   34.5919   53.5664 H   0  0  0  0  0  0  0  0  0  0  0  0
   63.2410   33.4373   52.2847 H   0  0  0  0  0  0  0  0  0  0  0  0
   59.1296   32.6400   54.3578 H   0  0  0  0  0  0  0  0  0  0  0  0
   59.0534   34.3347   53.7180 H   0  0  0  0  0  0  0  0  0  0  0  0
   57.2658   32.7510   52.8309 H   0  0  0  0  0  0  0  0  0  0  0  0
   58.2616   33.5905   51.5859 H   0  0  0  0  0  0  0  0  0  0  0  0
   56.9683   28.6310   54.7674 H   0  0  0  0  0  0  0  0  0  0  0  0
   56.7264   27.5685   53.3395 H   0  0  0  0  0  0  0  0  0  0  0  0
   58.0469   28.7862   53.3395 H   0  0  0  0  0  0  0  0  0  0  0  0
  1  2  2  0
  2  3  1  0
  3  4  2  3
  4  5  1  0
  5  6  1  0
  6  7  1  0
  7  8  2  0
  7  9  1  0
  9 10  1  0
 10 11  1  0
  3 12  1  0
 12 13  2  0
 13 14  1  0
 14 15  2  0
 14 16  1  0
 16 17  1  0
 17 18  1  0
 18 19  1  0
 19 20  1  0
 20 21  2  0
 21 22  1  0
 22 23  2  0
 23 24  1  0
 23 25  1  0
 25 26  2  0
 19 27  1  0
 27 28  1  0
 13 29  1  0
 29 30  1  0
 29  2  1  0
 10  5  2  0
 28 16  1  0
 26 20  1  0
  1 31  1  0
  1 32  1  0
  4 33  1  0
 12 34  1  0
 17 35  1  0
 17 36  1  0
 18 37  1  0
 18 38  1  0
 21 39  1  0
 22 40  1  0
 24 41  1  0
 25 42  1  0
 26 43  1  0
 27 44  1  0
 27 45  1  0
 28 46  1  0
 28 47  1  0
 30 48  1  0
 30 49  1  0
 30 50  1  0
M  CHG  3   6  -1   9  -1  11  -1
M  END
>  <UniqueID>  (46) 
44

>  <SMILES>  (46) 
C=c1c(=Cc2[n-]c(=O)[n-]c2[O-])cc(C(=O)N2CCN(c3ccc(O)cc3)CC2)n1C

>  <Energy>  (46) 
131.2410032845943

>  <Genealogy>  (46) 
C=c1c(=Cc2[n-]c(=O)[n-]c2[O-])cc(C(=O)N2CCN(c3ccc(O)cc3)CC2)n1C (protonated)
C=c1c(=Cc2[n-]c(=O)[n-]c2[O-])cc(C(=O)N2CCN(c3ccc(O)cc3)CC2)n1C (3D coordinates assigned)
C=c1c(=Cc2[n-]c(=O)[n-]c2[O-])cc(C(=O)N2CCN(c3ccc(O)cc3)CC2)n1C (nonaromatic ring conformer: 131.2410032845943 kcal/mol)

>  <smiles>  (46) 
C=c1c(=Cc2[nH]c(=O)[nH]c2O)cc(C(=O)N2CCN(c3ccc(O)cc3)CC2)n1C

>  <score_type>  (46) 
oracle

>  <origin>  (46) 
adg

>  <m_score__min__energy>  (46) 
-16.379999999999999

>  <m_primary>  (46) 
energy

$$$$
46:0
     RDKit          3D

 65 68  0  0  0  0  0  0  0  0999 V2000
   56.3050   22.5480   47.9250 C   0  0  0  0  0  0  0  0  0  0  0  0
   56.5320   22.5140   46.4370 C   0  0  0  0  0  0  0  0  0  0  0  0
   56.4090   21.3000   45.7450 C   0  0  0  0  0  0  0  0  0  0  0  0
   56.6330   21.2480   44.3700 C   0  0  0  0  0  0  0  0  0  0  0  0
   56.9650   22.4060   43.6680 C   0  0  0  0  0  0  0  0  0  0  0  0
   57.0830   23.6350   44.3340 C   0  0  0  0  0  0  0  0  0  0  0  0
   57.3810   24.8670   43.5200 C   0  0  0  0  0  0  0  0  0  0  0  0
   56.9150   23.6810   45.7420 C   0  0  0  0  0  0  0  0  0  0  0  0
   57.0640   24.9060   46.4760 N   0  0  0  0  0  0  0  0  0  0  0  0
   56.3460   26.1140   46.1990 C   0  0  0  0  0  0  0  0  0  0  0  0
   55.1020   26.0820   45.9980 O   0  0  0  0  0  0  0  0  0  0  0  0
   57.0760   27.3890   46.1190 C   0  0  0  0  0  0  0  0  0  0  0  0
   57.9930   27.6210   46.9510 O   0  0  0  0  0  0  0  0  0  0  0  0
   56.7700   28.3460   45.0920 N   0  0  0  0  0  0  0  0  0  0  0  0
   57.2970   29.6840   45.0630 C   0  0  0  0  0  0  0  0  0  0  0  0
   58.2090   30.1330   46.0330 C   0  0  0  0  0  0  0  0  0  0  0  0
   58.6920   31.4430   45.9960 C   0  0  0  0  0  0  0  0  0  0  0  0
   58.2560   32.3300   45.0020 C   0  0  0  0  0  0  0  0  0  0  0  0
   58.8070   34.0070   45.0050 S   0  0  0  0  0  0  0  0  0  0  0  0
   59.7190   34.2300   43.8310 O   0  0  0  0  0  0  0  0  0  0  0  0
   57.6200   34.9190   44.8530 O   0  0  0  0  0  0  0  0  0  0  0  0
   59.6620   34.4000   46.4810 N   0  0  0  0  0  0  0  0  0  0  0  0
   58.8750   33.9890   47.6630 C   0  0  0  0  0  0  0  0  0  0  0  0
   59.7760   33.7720   48.8880 C   0  0  0  0  0  0  0  0  0  0  0  0
   60.7610   32.6840   48.6640 N   0  0  0  0  0  0  0  0  0  0  0  0
   60.2640   31.4000   49.2070 C   0  0  0  0  0  0  0  0  0  0  0  0
   59.4300   31.6130   50.4460 C   0  0  0  0  0  0  0  0  0  0  0  0
   58.1040   31.1500   50.5010 C   0  0  0  0  0  0  0  0  0  0  0  0
   57.3460   31.3270   51.6620 C   0  0  0  0  0  0  0  0  0  0  0  0
   57.9050   31.9630   52.7740 C   0  0  0  0  0  0  0  0  0  0  0  0
   59.2260   32.4200   52.7290 C   0  0  0  0  0  0  0  0  0  0  0  0
   59.9870   32.2450   51.5690 C   0  0  0  0  0  0  0  0  0  0  0  0
   61.1680   32.5480   47.2420 C   0  0  0  0  0  0  0  0  0  0  0  0
   61.0440   33.8700   46.4680 C   0  0  0  0  0  0  0  0  0  0  0  0
   57.3390   31.8870   44.0390 C   0  0  0  0  0  0  0  0  0  0  0  0
   56.8540   30.5770   44.0760 C   0  0  0  0  0  0  0  0  0  0  0  0
   57.2634   22.4045   48.4455 H   0  0  0  0  0  0  0  0  0  0  0  0
   55.8759   23.5204   48.2083 H   0  0  0  0  0  0  0  0  0  0  0  0
   55.6098   21.7440   48.2083 H   0  0  0  0  0  0  0  0  0  0  0  0
   56.1345   20.3847   46.2899 H   0  0  0  0  0  0  0  0  0  0  0  0
   56.5475   20.2897   43.8368 H   0  0  0  0  0  0  0  0  0  0  0  0
   57.1359   22.3555   42.5825 H   0  0  0  0  0  0  0  0  0  0  0  0
   57.5853   25.7116   44.1945 H   0  0  0  0  0  0  0  0  0  0  0  0
   58.2606   24.6834   42.8855 H   0  0  0  0  0  0  0  0  0  0  0  0
   56.5147   25.1057   42.8855 H   0  0  0  0  0  0  0  0  0  0  0  0
   56.2140   28.0260   44.2680 H   0  0  0  0  0  0  0  0  0  0  0  0
   58.5446   29.4487   46.8262 H   0  0  0  0  0  0  0  0  0  0  0  0
   59.4180   31.7803   46.7505 H   0  0  0  0  0  0  0  0  0  0  0  0
   58.1397   34.7738   47.8940 H   0  0  0  0  0  0  0  0  0  0  0  0
   58.3716   33.0389   47.4306 H   0  0  0  0  0  0  0  0  0  0  0  0
   60.3186   34.7050   49.1003 H   0  0  0  0  0  0  0  0  0  0  0  0
   59.1364   33.4841   49.7354 H   0  0  0  0  0  0  0  0  0  0  0  0
   59.6491   30.9021   48.4428 H   0  0  0  0  0  0  0  0  0  0  0  0
   61.1310   30.7786   49.4756 H   0  0  0  0  0  0  0  0  0  0  0  0
   57.6617   30.6472   49.6283 H   0  0  0  0  0  0  0  0  0  0  0  0
   56.3079   30.9652   51.7006 H   0  0  0  0  0  0  0  0  0  0  0  0
   57.3054   32.1042   53.6853 H   0  0  0  0  0  0  0  0  0  0  0  0
   59.6663   32.9170   53.6060 H   0  0  0  0  0  0  0  0  0  0  0  0
   61.0263   32.6040   51.5363 H   0  0  0  0  0  0  0  0  0  0  0  0
   62.2153   32.2138   47.2048 H   0  0  0  0  0  0  0  0  0  0  0  0
   60.4948   31.8180   46.7689 H   0  0  0  0  0  0  0  0  0  0  0  0
   61.7124   34.6131   46.9274 H   0  0  0  0  0  0  0  0  0  0  0  0
   61.3201   33.6748   45.4213 H   0  0  0  0  0  0  0  0  0  0  0  0
   56.9993   32.5741   43.2500 H   0  0  0  0  0  0  0  0  0  0  0  0
   56.1206   30.2441   43.3268 H   0  0  0  0  0  0  0  0  0  0  0  0
  1  2  1  0
  2  3  2  0
  3  4  1  0
  4  5  2  0
  5  6  1  0
  6  7  1  0
  6  8  2  0
  8  9  1  0
  9 10  1  0
 10 11  2  0
 10 12  1  0
 12 13  2  0
 12 14  1  0
 14 15  1  0
 15 16  2  0
 16 17  1  0
 17 18  2  0
 18 19  1  0
 19 20  2  0
 19 21  2  0
 19 22  1  0
 22 23  1  0
 23 24  1  0
 24 25  1  0
 25 26  1  0
 26 27  1  0
 27 28  2  0
 28 29  1  0
 29 30  2  0
 30 31  1  0
 31 32  2  0
 25 33  1  0
 33 34  1  0
 18 35  1  0
 35 36  2  0
  8  2  1  0
 36 15  1  0
 34 22  1  0
 32 27  1  0
  1 37  1  0
  1 38  1  0
  1 39  1  0
  3 40  1  0
  4 41  1  0
  5 42  1  0
  7 43  1  0
  7 44  1  0
  7 45  1  0
 14 46  1  0
 16 47  1  0
 17 48  1  0
 23 49  1  0
 23 50  1  0
 24 51  1  0
 24 52  1  0
 26 53  1  0
 26 54  1  0
 28 55  1  0
 29 56  1  0
 30 57  1  0
 31 58  1  0
 32 59  1  0
 33 60  1  0
 33 61  1  0
 34 62  1  0
 34 63  1  0
 35 64  1  0
 36 65  1  0
M  CHG  1   9  -1
M  END
>  <UniqueID>  (47) 
45

>  <SMILES>  (47) 
Cc1cccc(C)c1[N-]C(=O)C(=O)Nc1ccc(S(=O)(=O)N2CCN(Cc3ccccc3)CC2)cc1

>  <Energy>  (47) 
86.72669207388593

>  <Genealogy>  (47) 
Cc1cccc(C)c1[N-]C(=O)C(=O)Nc1ccc(S(=O)(=O)N2CCN(Cc3ccccc3)CC2)cc1 (protonated)
Cc1cccc(C)c1[N-]C(=O)C(=O)Nc1ccc(S(=O)(=O)N2CCN(Cc3ccccc3)CC2)cc1 (3D coordinates assigned)
Cc1cccc(C)c1[N-]C(=O)C(=O)Nc1ccc(S(=O)(=O)N2CCN(Cc3ccccc3)CC2)cc1 (nonaromatic ring conformer: 86.72669207388593 kcal/mol)

>  <smiles>  (47) 
Cc1cccc(C)c1NC(=O)C(=O)Nc1ccc(S(=O)(=O)N2CCN(Cc3ccccc3)CC2)cc1

>  <score_type>  (47) 
oracle

>  <origin>  (47) 
adg

>  <m_score__min__energy>  (47) 
-11.52

>  <m_primary>  (47) 
energy

$$$$
47:0
     RDKit          3D

 54 56  0  0  0  0  0  0  0  0999 V2000
   56.7560   21.8740   46.3390 H   0  0  0  0  0  0  0  0  0  0  0  0
   57.3900   22.5900   46.6730 O   0  0  0  0  0  0  0  0  0  0  0  0
   57.0290   23.9320   46.6280 C   0  0  0  0  0  0  0  0  0  0  0  0
   57.8760   24.9330   46.9530 N   0  0  0  0  0  0  0  0  0  0  0  0
   57.1630   26.0640   46.7950 C   0  0  0  0  0  0  0  0  0  0  0  0
   57.7340   27.4040   46.9830 C   0  0  0  0  0  0  0  0  0  0  0  0
   58.2352   27.6067   47.9410 H   0  0  0  0  0  0  0  0  0  0  0  0
   57.6970   28.4070   46.0830 C   0  0  0  0  0  0  0  0  0  0  0  0
   56.8820   28.3710   44.9690 C   0  0  0  0  0  0  0  0  0  0  0  0
   56.2048   27.5535   44.6807 H   0  0  0  0  0  0  0  0  0  0  0  0
   57.0770   29.5530   44.2860 C   0  0  0  0  0  0  0  0  0  0  0  0
   56.4050   29.8800   42.9860 C   0  0  0  0  0  0  0  0  0  0  0  0
   55.4322   30.3534   43.1850 H   0  0  0  0  0  0  0  0  0  0  0  0
   57.0379   30.5709   42.4097 H   0  0  0  0  0  0  0  0  0  0  0  0
   56.2519   28.9556   42.4097 H   0  0  0  0  0  0  0  0  0  0  0  0
   57.9820   30.3340   44.9270 N   0  0  0  0  0  0  0  0  0  0  0  0
   58.5130   31.6210   44.4430 C   0  0  0  0  0  0  0  0  0  0  0  0
   59.2056   32.0233   45.1970 H   0  0  0  0  0  0  0  0  0  0  0  0
   59.0224   31.4348   43.4860 H   0  0  0  0  0  0  0  0  0  0  0  0
   57.4040   32.6550   44.1900 C   0  0  0  0  0  0  0  0  0  0  0  0
   57.6014   33.1497   43.2275 H   0  0  0  0  0  0  0  0  0  0  0  0
   56.4474   32.1119   44.1897 H   0  0  0  0  0  0  0  0  0  0  0  0
   57.2990   33.9090   45.4610 S   0  0  0  0  0  0  0  0  0  0  0  0
   56.3380   34.9730   45.0170 O   0  0  0  0  0  0  0  0  0  0  0  0
   56.7750   33.3070   46.7350 O   0  0  0  0  0  0  0  0  0  0  0  0
   58.8650   34.6270   45.7050 N   0  0  0  0  0  0  0  0  0  0  0  0
   59.7290   34.2020   46.7740 C   0  0  0  0  0  0  0  0  0  0  0  0
   61.0450   33.7900   46.5030 C   0  0  0  0  0  0  0  0  0  0  0  0
   61.4168   33.7978   45.4678 H   0  0  0  0  0  0  0  0  0  0  0  0
   61.8860   33.3700   47.5390 C   0  0  0  0  0  0  0  0  0  0  0  0
   62.9102   33.0372   47.3148 H   0  0  0  0  0  0  0  0  0  0  0  0
   61.4260   33.3730   48.8580 C   0  0  0  0  0  0  0  0  0  0  0  0
   62.0844   33.0342   49.6715 H   0  0  0  0  0  0  0  0  0  0  0  0
   60.1280   33.8070   49.1430 C   0  0  0  0  0  0  0  0  0  0  0  0
   59.7688   33.8174   50.1827 H   0  0  0  0  0  0  0  0  0  0  0  0
   59.2830   34.2290   48.1070 C   0  0  0  0  0  0  0  0  0  0  0  0
   58.2673   34.5825   48.3379 H   0  0  0  0  0  0  0  0  0  0  0  0
   59.2760   35.7360   44.8410 C   0  0  0  0  0  0  0  0  0  0  0  0
   59.5915   36.5873   45.4621 H   0  0  0  0  0  0  0  0  0  0  0  0
   60.1148   35.4147   44.2060 H   0  0  0  0  0  0  0  0  0  0  0  0
   58.4304   36.0389   44.2060 H   0  0  0  0  0  0  0  0  0  0  0  0
   58.4080   29.6200   46.0090 C   0  0  0  0  0  0  0  0  0  0  0  0
   59.4540   29.9850   46.7700 C   0  0  0  0  0  0  0  0  0  0  0  0
   59.9298   30.9650   46.6174 H   0  0  0  0  0  0  0  0  0  0  0  0
   59.8343   29.3038   47.5454 H   0  0  0  0  0  0  0  0  0  0  0  0
   55.8920   25.7790   46.3350 C   0  0  0  0  0  0  0  0  0  0  0  0
   54.9180   26.7140   46.0130 O   0  0  0  0  0  0  0  0  0  0  0  0
   55.7880   24.4050   46.2420 C   0  0  0  0  0  0  0  0  0  0  0  0
   54.6260   23.5970   45.8090 C   0  0  0  0  0  0  0  0  0  0  0  0
   54.7140   22.3390   45.8000 O   0  0  0  0  0  0  0  0  0  0  0  0
   53.3510   24.2400   45.3560 C   0  0  0  0  0  0  0  0  0  0  0  0
   52.7589   24.5386   46.2337 H   0  0  0  0  0  0  0  0  0  0  0  0
   53.5834   25.1287   44.7509 H   0  0  0  0  0  0  0  0  0  0  0  0
   52.7745   23.5248   44.7509 H   0  0  0  0  0  0  0  0  0  0  0  0
  1  2  1  0
  2  3  1  0
  3  4  1  0
  4  5  1  0
  5  6  1  0
  6  7  1  0
  6  8  2  0
  8  9  1  0
  9 10  1  0
  9 11  2  0
 11 12  1  0
 12 13  1  0
 12 14  1  0
 12 15  1  0
 11 16  1  0
 16 17  1  0
 17 18  1  0
 17 19  1  0
 17 20  1  0
 20 21  1  0
 20 22  1  0
 20 23  1  0
 23 24  2  0
 23 25  2  0
 23 26  1  0
 26 27  1  0
 27 28  2  0
 28 29  1  0
 28 30  1  0
 30 31  1  0
 30 32  2  0
 32 33  1  0
 32 34  1  0
 34 35  1  0
 34 36  2  0
 36 37  1  0
 26 38  1  0
 38 39  1  0
 38 40  1  0
 38 41  1  0
 16 42  1  0
 42 43  2  0
 43 44  1  0
 43 45  1  0
  5 46  2  0
 46 47  1  0
 46 48  1  0
 48 49  1  0
 49 50  2  0
 49 51  1  0
 51 52  1  0
 51 53  1  0
 51 54  1  0
 48  3  2  0
 42  8  1  0
 36 27  1  0
M  CHG  2   4  -1  47  -1
M  END
>  <UniqueID>  (48) 
46

>  <SMILES>  (48) 
C=c1/c(=C\c2[n-]c(O)c(C(C)=O)c2[O-])cc(C)n1CCS(=O)(=O)N(C)c1ccccc1

>  <Energy>  (48) 
118.03084344088826

>  <Genealogy>  (48) 
C=c1c(=Cc2[n-]c(O)c(C(C)=O)c2[O-])cc(C)n1CCS(=O)(=O)N(C)c1ccccc1 (protonated)
C=c1/c(=C\c2[n-]c(O)c(C(C)=O)c2[O-])cc(C)n1CCS(=O)(=O)N(C)c1ccccc1 (cis-trans isomerization)
C=c1/c(=C\c2[n-]c(O)c(C(C)=O)c2[O-])cc(C)n1CCS(=O)(=O)N(C)c1ccccc1 (3D coordinates assigned)
C=c1/c(=C\c2[n-]c(O)c(C(C)=O)c2[O-])cc(C)n1CCS(=O)(=O)N(C)c1ccccc1 (optimized conformer: 118.03084344088826 kcal/mol)

>  <smiles>  (48) 
C=c1c(=Cc2[nH]c(O)c(C(C)=O)c2O)cc(C)n1CCS(=O)(=O)N(C)c1ccccc1

>  <score_type>  (48) 
oracle

>  <origin>  (48) 
adg

>  <m_score__min__energy>  (48) 
-14.15

>  <m_primary>  (48) 
energy

$$$$
49:0
     RDKit          3D

 18 18  0  0  0  0  0  0  0  0999 V2000
   55.1020   29.3320   44.8850 O   0  0  0  0  0  0  0  0  0  0  0  0
   56.3590   29.3980   44.8570 C   0  0  0  0  0  0  0  0  0  0  0  0
   56.9920   30.5880   45.1920 O   0  0  0  0  0  0  0  0  0  0  0  0
   57.1730   28.1880   44.5120 C   0  0  0  0  0  0  0  0  0  0  0  0
   57.9530   27.6870   45.7130 C   0  0  0  0  0  0  0  0  0  0  0  0
   57.4650   26.6780   46.5870 C   0  0  0  0  0  0  0  0  0  0  0  0
   56.1210   26.0640   46.4420 C   0  0  0  0  0  0  0  0  0  0  0  0
   55.1480   26.7190   45.9850 O   0  0  0  0  0  0  0  0  0  0  0  0
   55.9080   24.7610   46.8740 O   0  0  0  0  0  0  0  0  0  0  0  0
   58.2600   26.2410   47.6070 N   0  0  0  0  0  0  0  0  0  0  0  0
   59.4900   26.7730   47.8290 C   0  0  0  0  0  0  0  0  0  0  0  0
   60.1970   26.3580   48.7840 O   0  0  0  0  0  0  0  0  0  0  0  0
   59.9570   27.7590   47.0270 N   0  0  0  0  0  0  0  0  0  0  0  0
   59.2270   28.2260   45.9860 C   0  0  0  0  0  0  0  0  0  0  0  0
   59.7070   29.1440   45.2690 O   0  0  0  0  0  0  0  0  0  0  0  0
   56.4998   27.3907   44.1641 H   0  0  0  0  0  0  0  0  0  0  0  0
   57.8890   28.4646   43.7240 H   0  0  0  0  0  0  0  0  0  0  0  0
   57.9180   25.4930   48.2540 H   0  0  0  0  0  0  0  0  0  0  0  0
  1  2  2  0
  2  3  1  0
  2  4  1  0
  4  5  1  0
  5  6  2  0
  6  7  1  0
  7  8  2  0
  7  9  1  0
  6 10  1  0
 10 11  1  0
 11 12  2  0
 11 13  1  0
 13 14  1  0
 14 15  2  0
 14  5  1  0
  4 16  1  0
  4 17  1  0
 10 18  1  0
M  CHG  3   3  -1   9  -1  13  -1
M  END
>  <UniqueID>  (49) 
47

>  <SMILES>  (49) 
O=C([O-])Cc1c(C(=O)[O-])[nH]c(=O)[n-]c1=O

>  <Energy>  (49) 
23.392154083180795

>  <Genealogy>  (49) 
O=C([O-])Cc1c(C(=O)[O-])[nH]c(=O)[n-]c1=O (protonated)
O=C([O-])Cc1c(C(=O)[O-])[nH]c(=O)[n-]c1=O (3D coordinates assigned)
O=C([O-])Cc1c(C(=O)[O-])[nH]c(=O)[n-]c1=O (optimized conformer: 23.392154083180795 kcal/mol)

>  <smiles>  (49) 
O=C(O)Cc1c(C(=O)O)[nH]c(=O)[nH]c1=O

>  <score_type>  (49) 
oracle

>  <origin>  (49) 
adg

>  <m_score__min__energy>  (49) 
-11.890000000000001

>  <m_primary>  (49) 
energy

$$$$
50:0
     RDKit          3D

 54 57  0  0  0  0  0  0  0  0999 V2000
   53.8110   25.1590   45.7720 O   0  0  0  0  0  0  0  0  0  0  0  0
   55.0350   25.4130   45.6280 C   0  0  0  0  0  0  0  0  0  0  0  0
   55.9240   24.4000   45.2580 C   0  0  0  0  0  0  0  0  0  0  0  0
   57.2770   24.7030   45.1010 C   0  0  0  0  0  0  0  0  0  0  0  0
   57.7260   26.0080   45.3150 C   0  0  0  0  0  0  0  0  0  0  0  0
   56.8100   26.9970   45.7070 C   0  0  0  0  0  0  0  0  0  0  0  0
   57.2640   28.4100   45.9440 C   0  0  0  0  0  0  0  0  0  0  0  0
   57.8300   29.0020   44.7280 N   0  0  0  0  0  0  0  0  0  0  0  0
   56.9500   30.4210   44.2320 S   0  0  0  0  0  0  0  0  0  0  0  0
   55.5470   30.3340   44.7650 O   0  0  0  0  0  0  0  0  0  0  0  0
   56.8790   30.5050   42.7330 O   0  0  0  0  0  0  0  0  0  0  0  0
   57.7160   31.8680   44.8830 C   0  0  0  0  0  0  0  0  0  0  0  0
   57.0130   33.0790   44.9170 C   0  0  0  0  0  0  0  0  0  0  0  0
   57.5920   34.2100   45.4950 C   0  0  0  0  0  0  0  0  0  0  0  0
   58.8670   34.1350   46.0630 C   0  0  0  0  0  0  0  0  0  0  0  0
   59.5820   32.9240   46.0470 C   0  0  0  0  0  0  0  0  0  0  0  0
   60.8940   32.8090   46.7340 C   0  0  0  0  0  0  0  0  0  0  0  0
   61.8490   33.8350   46.6180 C   0  0  0  0  0  0  0  0  0  0  0  0
   63.0460   33.7740   47.3370 C   0  0  0  0  0  0  0  0  0  0  0  0
   63.3140   32.6840   48.1760 C   0  0  0  0  0  0  0  0  0  0  0  0
   64.5710   32.6660   49.0130 C   0  0  0  0  0  0  0  0  0  0  0  0
   64.2670   32.5750   50.4520 N   0  0  0  0  0  0  0  0  0  0  0  0
   63.6070   33.7910   50.9530 C   0  0  0  0  0  0  0  0  0  0  0  0
   62.1250   33.5850   51.0360 C   0  0  0  0  0  0  0  0  0  0  0  0
   61.4650   32.7960   51.9690 C   0  0  0  0  0  0  0  0  0  0  0  0
   60.0840   32.7270   51.7520 C   0  0  0  0  0  0  0  0  0  0  0  0
   59.6560   33.4440   50.6410 C   0  0  0  0  0  0  0  0  0  0  0  0
   61.0000   34.1630   49.9270 S   0  0  0  0  0  0  0  0  0  0  0  0
   62.3760   31.6460   48.2770 C   0  0  0  0  0  0  0  0  0  0  0  0
   61.1770   31.7080   47.5620 C   0  0  0  0  0  0  0  0  0  0  0  0
   59.0040   31.8000   45.4300 C   0  0  0  0  0  0  0  0  0  0  0  0
   55.4920   26.6760   45.8360 N   0  0  0  0  0  0  0  0  0  0  0  0
   55.5610   23.3749   45.0923 H   0  0  0  0  0  0  0  0  0  0  0  0
   57.9881   23.9160   44.8094 H   0  0  0  0  0  0  0  0  0  0  0  0
   58.7882   26.2588   45.1776 H   0  0  0  0  0  0  0  0  0  0  0  0
   56.4028   29.0129   46.2680 H   0  0  0  0  0  0  0  0  0  0  0  0
   58.0453   28.3969   46.7182 H   0  0  0  0  0  0  0  0  0  0  0  0
   56.0022   33.1389   44.4872 H   0  0  0  0  0  0  0  0  0  0  0  0
   57.0432   35.1633   45.5035 H   0  0  0  0  0  0  0  0  0  0  0  0
   59.3135   35.0279   46.5250 H   0  0  0  0  0  0  0  0  0  0  0  0
   61.6524   34.6917   45.9566 H   0  0  0  0  0  0  0  0  0  0  0  0
   63.7819   34.5862   47.2438 H   0  0  0  0  0  0  0  0  0  0  0  0
   65.1806   31.7978   48.7219 H   0  0  0  0  0  0  0  0  0  0  0  0
   65.1139   33.6062   48.8363 H   0  0  0  0  0  0  0  0  0  0  0  0
   65.1480   32.3990   50.9930 H   0  0  0  0  0  0  0  0  0  0  0  0
   63.6270   31.7590   50.5980 H   0  0  0  0  0  0  0  0  0  0  0  0
   63.9965   34.0285   51.9539 H   0  0  0  0  0  0  0  0  0  0  0  0
   63.8136   34.6201   50.2603 H   0  0  0  0  0  0  0  0  0  0  0  0
   61.9755   32.2781   52.7944 H   0  0  0  0  0  0  0  0  0  0  0  0
   59.4011   32.1583   52.4003 H   0  0  0  0  0  0  0  0  0  0  0  0
   58.6173   33.5273   50.2888 H   0  0  0  0  0  0  0  0  0  0  0  0
   62.5851   30.7796   48.9217 H   0  0  0  0  0  0  0  0  0  0  0  0
   60.4482   30.8885   47.6475 H   0  0  0  0  0  0  0  0  0  0  0  0
   59.5691   30.8578   45.3764 H   0  0  0  0  0  0  0  0  0  0  0  0
  1  2  2  0
  2  3  1  0
  3  4  2  0
  4  5  1  0
  5  6  2  0
  6  7  1  0
  7  8  1  0
  8  9  1  0
  9 10  2  0
  9 11  2  0
  9 12  1  0
 12 13  2  0
 13 14  1  0
 14 15  2  0
 15 16  1  0
 16 17  1  0
 17 18  2  0
 18 19  1  0
 19 20  2  0
 20 21  1  0
 21 22  1  0
 22 23  1  0
 23 24  1  0
 24 25  2  0
 25 26  1  0
 26 27  2  0
 27 28  1  0
 20 29  1  0
 29 30  2  0
 16 31  2  0
  6 32  1  0
 32  2  1  0
 31 12  1  0
 30 17  1  0
 28 24  1  0
  3 33  1  0
  4 34  1  0
  5 35  1  0
  7 36  1  0
  7 37  1  0
 13 38  1  0
 14 39  1  0
 15 40  1  0
 18 41  1  0
 19 42  1  0
 21 43  1  0
 21 44  1  0
 22 45  1  0
 22 46  1  0
 23 47  1  0
 23 48  1  0
 25 49  1  0
 26 50  1  0
 27 51  1  0
 29 52  1  0
 30 53  1  0
 31 54  1  0
M  CHG  3   8  -1  22   1  32  -1
M  END
>  <UniqueID>  (50) 
48

>  <SMILES>  (50) 
O=c1cccc(C[N-]S(=O)(=O)c2cccc(-c3ccc(C[NH2+]Cc4cccs4)cc3)c2)[n-]1

>  <Energy>  (50) 
82.28025648358845

>  <Genealogy>  (50) 
O=c1cccc(C[N-]S(=O)(=O)c2cccc(-c3ccc(C[NH2+]Cc4cccs4)cc3)c2)[n-]1 (protonated)
O=c1cccc(C[N-]S(=O)(=O)c2cccc(-c3ccc(C[NH2+]Cc4cccs4)cc3)c2)[n-]1 (3D coordinates assigned)
O=c1cccc(C[N-]S(=O)(=O)c2cccc(-c3ccc(C[NH2+]Cc4cccs4)cc3)c2)[n-]1 (optimized conformer: 82.28025648358845 kcal/mol)

>  <smiles>  (50) 
O=c1cccc(CNS(=O)(=O)c2cccc(-c3ccc(CNCc4cccs4)cc3)c2)[nH]1

>  <score_type>  (50) 
oracle

>  <origin>  (50) 
adg

>  <m_score__min__energy>  (50) 
-12.31

>  <m_primary>  (50) 
energy

$$$$
51:0
     RDKit          3D

 42 43  0  0  0  0  0  0  0  0999 V2000
   60.6950   31.5340   47.9722 H   0  0  0  0  0  0  0  0  0  0  0  0
   59.9810   32.1130   47.3680 C   0  0  0  0  0  0  0  0  0  0  0  0
   59.3120   31.5030   46.3030 C   0  0  0  0  0  0  0  0  0  0  0  0
   59.4966   30.4422   46.0782 H   0  0  0  0  0  0  0  0  0  0  0  0
   58.4050   32.2350   45.5170 C   0  0  0  0  0  0  0  0  0  0  0  0
   57.6780   31.5480   44.3920 C   0  0  0  0  0  0  0  0  0  0  0  0
   58.3890   30.9407   43.8125 H   0  0  0  0  0  0  0  0  0  0  0  0
   57.2209   32.3028   43.7353 H   0  0  0  0  0  0  0  0  0  0  0  0
   56.6380   30.6870   44.9410 N   0  0  0  0  0  0  0  0  0  0  0  0
   56.6100   29.2640   44.7840 C   0  0  0  0  0  0  0  0  0  0  0  0
   55.6020   28.6320   45.2000 O   0  0  0  0  0  0  0  0  0  0  0  0
   57.7630   28.5310   44.1430 C   0  0  0  0  0  0  0  0  0  0  0  0
   58.1860   29.1665   43.3510 H   0  0  0  0  0  0  0  0  0  0  0  0
   57.3706   27.5845   43.7428 H   0  0  0  0  0  0  0  0  0  0  0  0
   58.8800   28.1820   45.1410 C   0  0  0  0  0  0  0  0  0  0  0  0
   59.5571   29.0449   45.2246 H   0  0  0  0  0  0  0  0  0  0  0  0
   59.3960   27.2895   44.7572 H   0  0  0  0  0  0  0  0  0  0  0  0
   58.3590   27.8440   46.5190 C   0  0  0  0  0  0  0  0  0  0  0  0
   58.1300   28.7710   47.3430 O   0  0  0  0  0  0  0  0  0  0  0  0
   58.1080   26.4920   46.9410 N   0  0  0  0  0  0  0  0  0  0  0  0
   57.7160   25.4810   46.2210 C   0  0  0  0  0  0  0  0  0  0  0  0
   58.5020   24.4460   45.8520 N   0  0  0  0  0  0  0  0  0  0  0  0
   57.8270   23.5400   45.0930 C   0  0  0  0  0  0  0  0  0  0  0  0
   58.5080   22.3120   44.5780 C   0  0  0  0  0  0  0  0  0  0  0  0
   58.8481   21.6987   45.4254 H   0  0  0  0  0  0  0  0  0  0  0  0
   57.8029   21.7315   43.9649 H   0  0  0  0  0  0  0  0  0  0  0  0
   59.3738   22.6027   43.9649 H   0  0  0  0  0  0  0  0  0  0  0  0
   56.4820   23.8640   44.8550 C   0  0  0  0  0  0  0  0  0  0  0  0
   55.4880   23.1030   44.0790 C   0  0  0  0  0  0  0  0  0  0  0  0
   55.8540   22.3050   43.1730 O   0  0  0  0  0  0  0  0  0  0  0  0
   54.1290   23.2740   44.3580 O   0  0  0  0  0  0  0  0  0  0  0  0
   53.6170   23.3100   45.6840 C   0  0  0  0  0  0  0  0  0  0  0  0
   54.4498   23.2514   46.4003 H   0  0  0  0  0  0  0  0  0  0  0  0
   53.0656   24.2491   45.8388 H   0  0  0  0  0  0  0  0  0  0  0  0
   52.9396   22.4573   45.8388 H   0  0  0  0  0  0  0  0  0  0  0  0
   56.1560   25.3280   45.6240 S   0  0  0  0  0  0  0  0  0  0  0  0
   58.1590   33.5890   45.8320 C   0  0  0  0  0  0  0  0  0  0  0  0
   57.0060   34.5570   44.9180 Cl  0  0  0  0  0  0  0  0  0  0  0  0
   58.8340   34.1920   46.9010 C   0  0  0  0  0  0  0  0  0  0  0  0
   58.6470   35.2494   47.1397 H   0  0  0  0  0  0  0  0  0  0  0  0
   59.7440   33.4570   47.6660 C   0  0  0  0  0  0  0  0  0  0  0  0
   60.5840   34.2200   49.0040 Cl  0  0  0  0  0  0  0  0  0  0  0  0
  1  2  1  0
  2  3  2  0
  3  4  1  0
  3  5  1  0
  5  6  1  0
  6  7  1  0
  6  8  1  0
  6  9  1  0
  9 10  1  0
 10 11  2  0
 10 12  1  0
 12 13  1  0
 12 14  1  0
 12 15  1  0
 15 16  1  0
 15 17  1  0
 15 18  1  0
 18 19  2  0
 18 20  1  0
 20 21  2  0
 21 22  1  0
 22 23  1  0
 23 24  1  0
 24 25  1  0
 24 26  1  0
 24 27  1  0
 23 28  2  0
 28 29  1  0
 29 30  2  0
 29 31  1  0
 31 32  1  0
 32 33  1  0
 32 34  1  0
 32 35  1  0
 28 36  1  0
  5 37  2  0
 37 38  1  0
 37 39  1  0
 39 40  1  0
 39 41  2  0
 41 42  1  0
 41  2  1  0
 36 21  1  0
M  CHG  2   9  -1  22  -1
M  END
>  <UniqueID>  (51) 
49

>  <SMILES>  (51) 
COC(=O)c1s/c(=N/C(=O)CCC(=O)[N-]Cc2ccc(Cl)cc2Cl)[n-]c1C

>  <Energy>  (51) 
70.0086854672853

>  <Genealogy>  (51) 
COC(=O)c1sc(=NC(=O)CCC(=O)[N-]Cc2ccc(Cl)cc2Cl)[n-]c1C (protonated)
COC(=O)c1s/c(=N/C(=O)CCC(=O)[N-]Cc2ccc(Cl)cc2Cl)[n-]c1C (cis-trans isomerization)
COC(=O)c1s/c(=N/C(=O)CCC(=O)[N-]Cc2ccc(Cl)cc2Cl)[n-]c1C (3D coordinates assigned)
COC(=O)c1s/c(=N/C(=O)CCC(=O)[N-]Cc2ccc(Cl)cc2Cl)[n-]c1C (optimized conformer: 70.0086854672853 kcal/mol)

>  <smiles>  (51) 
COC(=O)c1sc(=NC(=O)CCC(=O)NCc2ccc(Cl)cc2Cl)[nH]c1C

>  <score_type>  (51) 
oracle

>  <origin>  (51) 
adg

>  <m_score__min__energy>  (51) 
-12.24

>  <m_primary>  (51) 
energy

$$$$
52:0
     RDKit          3D

 47 50  0  0  0  0  0  0  0  0999 V2000
   55.6320   28.8460   44.8800 O   0  0  0  0  0  0  0  0  0  0  0  0
   56.6800   29.2190   45.4730 C   0  0  0  0  0  0  0  0  0  0  0  0
   57.3880   28.2850   46.4060 C   0  0  0  0  0  0  0  0  0  0  0  0
   58.1450   27.2790   45.6700 N   0  0  0  0  0  0  0  0  0  0  0  0
   57.5710   26.4130   44.6840 C   0  0  0  0  0  0  0  0  0  0  0  0
   57.7780   26.6390   43.4610 O   0  0  0  0  0  0  0  0  0  0  0  0
   56.7450   25.2450   45.1000 C   0  0  0  0  0  0  0  0  0  0  0  0
   55.5490   25.4300   45.8270 C   0  0  0  0  0  0  0  0  0  0  0  0
   55.0980   26.7090   46.1440 O   0  0  0  0  0  0  0  0  0  0  0  0
   54.8090   24.3580   46.2130 N   0  0  0  0  0  0  0  0  0  0  0  0
   55.1690   23.0840   45.9220 C   0  0  0  0  0  0  0  0  0  0  0  0
   54.3670   22.0180   46.3500 C   0  0  0  0  0  0  0  0  0  0  0  0
   54.7310   20.7030   46.0500 C   0  0  0  0  0  0  0  0  0  0  0  0
   55.8950   20.4450   45.3220 C   0  0  0  0  0  0  0  0  0  0  0  0
   56.7020   21.5020   44.8910 C   0  0  0  0  0  0  0  0  0  0  0  0
   56.3470   22.8330   45.1870 C   0  0  0  0  0  0  0  0  0  0  0  0
   57.1380   23.9240   44.7770 C   0  0  0  0  0  0  0  0  0  0  0  0
   58.2040   23.7190   44.1330 O   0  0  0  0  0  0  0  0  0  0  0  0
   57.1290   30.5770   45.3740 N   0  0  0  0  0  0  0  0  0  0  0  0
   57.4440   31.2840   44.1620 C   0  0  0  0  0  0  0  0  0  0  0  0
   56.9590   30.8400   42.9180 C   0  0  0  0  0  0  0  0  0  0  0  0
   57.2450   31.5520   41.7520 C   0  0  0  0  0  0  0  0  0  0  0  0
   58.0240   32.7070   41.8100 C   0  0  0  0  0  0  0  0  0  0  0  0
   58.5350   33.1450   43.0330 C   0  0  0  0  0  0  0  0  0  0  0  0
   58.2660   32.4330   44.2160 C   0  0  0  0  0  0  0  0  0  0  0  0
   58.8280   32.9230   45.4980 C   0  0  0  0  0  0  0  0  0  0  0  0
   59.5110   32.0470   46.3610 C   0  0  0  0  0  0  0  0  0  0  0  0
   60.0430   32.5160   47.5660 C   0  0  0  0  0  0  0  0  0  0  0  0
   59.9060   33.8610   47.9160 C   0  0  0  0  0  0  0  0  0  0  0  0
   59.2360   34.7420   47.0620 C   0  0  0  0  0  0  0  0  0  0  0  0
   58.7020   34.2760   45.8560 C   0  0  0  0  0  0  0  0  0  0  0  0
   58.0787   28.8634   47.0372 H   0  0  0  0  0  0  0  0  0  0  0  0
   56.6357   27.7725   47.0236 H   0  0  0  0  0  0  0  0  0  0  0  0
   55.1540   27.4640   45.4710 H   0  0  0  0  0  0  0  0  0  0  0  0
   53.4494   22.2167   46.9231 H   0  0  0  0  0  0  0  0  0  0  0  0
   54.0992   19.8684   46.3880 H   0  0  0  0  0  0  0  0  0  0  0  0
   56.1771   19.4080   45.0874 H   0  0  0  0  0  0  0  0  0  0  0  0
   57.6179   21.2937   44.3184 H   0  0  0  0  0  0  0  0  0  0  0  0
   56.3502   29.9254   42.8640 H   0  0  0  0  0  0  0  0  0  0  0  0
   56.8550   31.2011   40.7852 H   0  0  0  0  0  0  0  0  0  0  0  0
   58.2361   33.2735   40.8913 H   0  0  0  0  0  0  0  0  0  0  0  0
   59.1530   34.0542   43.0719 H   0  0  0  0  0  0  0  0  0  0  0  0
   59.6271   30.9881   46.0866 H   0  0  0  0  0  0  0  0  0  0  0  0
   60.5703   31.8244   48.2395 H   0  0  0  0  0  0  0  0  0  0  0  0
   60.3256   34.2275   48.8645 H   0  0  0  0  0  0  0  0  0  0  0  0
   59.1288   35.8013   47.3383 H   0  0  0  0  0  0  0  0  0  0  0  0
   58.1802   34.9730   45.1837 H   0  0  0  0  0  0  0  0  0  0  0  0
  1  2  2  0
  2  3  1  0
  3  4  1  0
  4  5  1  0
  5  6  2  0
  5  7  1  0
  7  8  2  0
  8  9  1  0
  8 10  1  0
 10 11  1  0
 11 12  2  0
 12 13  1  0
 13 14  2  0
 14 15  1  0
 15 16  2  0
 16 17  1  0
 17 18  2  0
  2 19  1  0
 19 20  1  0
 20 21  2  0
 21 22  1  0
 22 23  2  0
 23 24  1  0
 24 25  2  0
 25 26  1  0
 26 27  2  0
 27 28  1  0
 28 29  2  0
 29 30  1  0
 30 31  2  0
 17  7  1  0
 25 20  1  0
 31 26  1  0
 16 11  1  0
  3 32  1  0
  3 33  1  0
  9 34  1  0
 12 35  1  0
 13 36  1  0
 14 37  1  0
 15 38  1  0
 21 39  1  0
 22 40  1  0
 23 41  1  0
 24 42  1  0
 27 43  1  0
 28 44  1  0
 29 45  1  0
 30 46  1  0
 31 47  1  0
M  CHG  3   4  -1  10  -1  19  -1
M  END
>  <UniqueID>  (52) 
50

>  <SMILES>  (52) 
O=C(C[N-]C(=O)c1c(O)[n-]c2ccccc2c1=O)[N-]c1ccccc1-c1ccccc1

>  <Energy>  (52) 
68.69072872709748

>  <Genealogy>  (52) 
O=C(C[N-]C(=O)c1c(O)[n-]c2ccccc2c1=O)[N-]c1ccccc1-c1ccccc1 (protonated)
O=C(C[N-]C(=O)c1c(O)[n-]c2ccccc2c1=O)[N-]c1ccccc1-c1ccccc1 (3D coordinates assigned)
O=C(C[N-]C(=O)c1c(O)[n-]c2ccccc2c1=O)[N-]c1ccccc1-c1ccccc1 (optimized conformer: 68.69072872709748 kcal/mol)

>  <smiles>  (52) 
O=C(CNC(=O)c1c(O)[nH]c2ccccc2c1=O)Nc1ccccc1-c1ccccc1

>  <score_type>  (52) 
oracle

>  <origin>  (52) 
adg

>  <m_score__min__energy>  (52) 
-14.01

>  <m_primary>  (52) 
energy

$$$$
53:0
     RDKit          3D

 58 61  0  0  0  0  0  0  0  0999 V2000
   57.3180   27.5170   44.1450 O   0  0  0  0  0  0  0  0  0  0  0  0
   57.3770   28.2140   45.1940 C   0  0  0  0  0  0  0  0  0  0  0  0
   57.8910   27.6060   46.4590 C   0  0  0  0  0  0  0  0  0  0  0  0
   57.2910   26.2510   46.6780 C   0  0  0  0  0  0  0  0  0  0  0  0
   57.9860   25.1860   47.1320 N   0  0  0  0  0  0  0  0  0  0  0  0
   57.0750   24.1890   47.1450 C   0  0  0  0  0  0  0  0  0  0  0  0
   57.3490   23.0180   47.5220 O   0  0  0  0  0  0  0  0  0  0  0  0
   55.8500   24.5650   46.7180 N   0  0  0  0  0  0  0  0  0  0  0  0
   54.6460   23.7310   46.6390 C   0  0  0  0  0  0  0  0  0  0  0  0
   54.2480   23.4690   45.1820 C   0  0  0  0  0  0  0  0  0  0  0  0
   55.3180   22.7120   44.4370 C   0  0  0  0  0  0  0  0  0  0  0  0
   55.9700   21.6240   45.0430 C   0  0  0  0  0  0  0  0  0  0  0  0
   56.9660   20.9290   44.3520 C   0  0  0  0  0  0  0  0  0  0  0  0
   57.3090   21.3060   43.0500 C   0  0  0  0  0  0  0  0  0  0  0  0
   56.6450   22.3690   42.4310 C   0  0  0  0  0  0  0  0  0  0  0  0
   55.6510   23.0710   43.1190 C   0  0  0  0  0  0  0  0  0  0  0  0
   55.9860   25.8750   46.4320 C   0  0  0  0  0  0  0  0  0  0  0  0
   54.9750   26.7180   45.9730 O   0  0  0  0  0  0  0  0  0  0  0  0
   56.9470   29.5800   45.1970 N   0  0  0  0  0  0  0  0  0  0  0  0
   57.6930   30.7300   45.6180 C   0  0  0  0  0  0  0  0  0  0  0  0
   57.6580   31.8780   44.8180 C   0  0  0  0  0  0  0  0  0  0  0  0
   58.3180   33.0430   45.2180 C   0  0  0  0  0  0  0  0  0  0  0  0
   59.0050   33.0820   46.4370 C   0  0  0  0  0  0  0  0  0  0  0  0
   59.7590   34.5820   46.9870 S   0  0  0  0  0  0  0  0  0  0  0  0
   59.0090   35.1050   48.1820 O   0  0  0  0  0  0  0  0  0  0  0  0
   59.6720   35.6130   45.8940 O   0  0  0  0  0  0  0  0  0  0  0  0
   61.4380   34.3330   47.4230 N   0  0  0  0  0  0  0  0  0  0  0  0
   61.5660   33.6180   48.7120 C   0  0  0  0  0  0  0  0  0  0  0  0
   61.9370   32.1360   48.5140 C   0  0  0  0  0  0  0  0  0  0  0  0
   63.1600   31.9520   47.8150 O   0  0  0  0  0  0  0  0  0  0  0  0
   63.4250   32.9600   46.8420 C   0  0  0  0  0  0  0  0  0  0  0  0
   62.1650   33.6720   46.3190 C   0  0  0  0  0  0  0  0  0  0  0  0
   59.0520   31.9320   47.2380 C   0  0  0  0  0  0  0  0  0  0  0  0
   58.3920   30.7670   46.8380 C   0  0  0  0  0  0  0  0  0  0  0  0
   58.9850   27.5103   46.3950 H   0  0  0  0  0  0  0  0  0  0  0  0
   57.6130   28.2559   47.3018 H   0  0  0  0  0  0  0  0  0  0  0  0
   54.8423   22.7694   47.1358 H   0  0  0  0  0  0  0  0  0  0  0  0
   53.8208   24.2626   47.1354 H   0  0  0  0  0  0  0  0  0  0  0  0
   53.3191   22.8800   45.1670 H   0  0  0  0  0  0  0  0  0  0  0  0
   54.1080   24.4406   44.6857 H   0  0  0  0  0  0  0  0  0  0  0  0
   55.6955   21.3190   46.0636 H   0  0  0  0  0  0  0  0  0  0  0  0
   57.4809   20.0842   44.8329 H   0  0  0  0  0  0  0  0  0  0  0  0
   58.1020   20.7656   42.5123 H   0  0  0  0  0  0  0  0  0  0  0  0
   56.9051   22.6536   41.4008 H   0  0  0  0  0  0  0  0  0  0  0  0
   55.1286   23.9055   42.6285 H   0  0  0  0  0  0  0  0  0  0  0  0
   55.1530   27.4670   45.3220 H   0  0  0  0  0  0  0  0  0  0  0  0
   57.1063   31.8630   43.8664 H   0  0  0  0  0  0  0  0  0  0  0  0
   58.2976   33.9332   44.5722 H   0  0  0  0  0  0  0  0  0  0  0  0
   62.3501   34.1036   49.3114 H   0  0  0  0  0  0  0  0  0  0  0  0
   60.5926   33.6599   49.2225 H   0  0  0  0  0  0  0  0  0  0  0  0
   62.0255   31.6630   49.5031 H   0  0  0  0  0  0  0  0  0  0  0  0
   61.1421   31.6793   47.9061 H   0  0  0  0  0  0  0  0  0  0  0  0
   64.0850   33.7139   47.2959 H   0  0  0  0  0  0  0  0  0  0  0  0
   63.8869   32.4565   45.9799 H   0  0  0  0  0  0  0  0  0  0  0  0
   62.4603   34.4291   45.5777 H   0  0  0  0  0  0  0  0  0  0  0  0
   61.5027   32.9235   45.8596 H   0  0  0  0  0  0  0  0  0  0  0  0
   59.6108   31.9470   48.1854 H   0  0  0  0  0  0  0  0  0  0  0  0
   58.4193   29.8745   47.4804 H   0  0  0  0  0  0  0  0  0  0  0  0
  1  2  2  0
  2  3  1  0
  3  4  1  0
  4  5  1  0
  5  6  1  0
  6  7  2  0
  6  8  1  0
  8  9  1  0
  9 10  1  0
 10 11  1  0
 11 12  2  0
 12 13  1  0
 13 14  2  0
 14 15  1  0
 15 16  2  0
  8 17  1  0
 17 18  1  0
  2 19  1  0
 19 20  1  0
 20 21  2  0
 21 22  1  0
 22 23  2  0
 23 24  1  0
 24 25  2  0
 24 26  2  0
 24 27  1  0
 27 28  1  0
 28 29  1  0
 29 30  1  0
 30 31  1  0
 31 32  1  0
 23 33  1  0
 33 34  2  0
 17  4  2  0
 34 20  1  0
 16 11  1  0
 32 27  1  0
  3 35  1  0
  3 36  1  0
  9 37  1  0
  9 38  1  0
 10 39  1  0
 10 40  1  0
 12 41  1  0
 13 42  1  0
 14 43  1  0
 15 44  1  0
 16 45  1  0
 18 46  1  0
 21 47  1  0
 22 48  1  0
 28 49  1  0
 28 50  1  0
 29 51  1  0
 29 52  1  0
 31 53  1  0
 31 54  1  0
 32 55  1  0
 32 56  1  0
 33 57  1  0
 34 58  1  0
M  CHG  2   5  -1  19  -1
M  END
>  <UniqueID>  (53) 
51

>  <SMILES>  (53) 
O=C(Cc1[n-]c(=O)n(CCc2ccccc2)c1O)[N-]c1ccc(S(=O)(=O)N2CCOCC2)cc1

>  <Energy>  (53) 
97.26808101304493

>  <Genealogy>  (53) 
O=C(Cc1[n-]c(=O)n(CCc2ccccc2)c1O)[N-]c1ccc(S(=O)(=O)N2CCOCC2)cc1 (protonated)
O=C(Cc1[n-]c(=O)n(CCc2ccccc2)c1O)[N-]c1ccc(S(=O)(=O)N2CCOCC2)cc1 (3D coordinates assigned)
O=C(Cc1[n-]c(=O)n(CCc2ccccc2)c1O)[N-]c1ccc(S(=O)(=O)N2CCOCC2)cc1 (nonaromatic ring conformer: 97.26808101304493 kcal/mol)

>  <smiles>  (53) 
O=C(Cc1[nH]c(=O)n(CCc2ccccc2)c1O)Nc1ccc(S(=O)(=O)N2CCOCC2)cc1

>  <score_type>  (53) 
oracle

>  <origin>  (53) 
adg

>  <m_score__min__energy>  (53) 
-13.130000000000001

>  <m_primary>  (53) 
energy

$$$$
54:0
     RDKit          3D

 35 37  0  0  0  0  0  0  0  0999 V2000
   54.2970   23.3670   45.1180 O   0  0  0  0  0  0  0  0  0  0  0  0
   54.8330   24.4720   45.3920 C   0  0  0  0  0  0  0  0  0  0  0  0
   56.1790   24.7470   45.2960 C   0  0  0  0  0  0  0  0  0  0  0  0
   56.2670   26.0720   45.6940 C   0  0  0  0  0  0  0  0  0  0  0  0
   57.5060   26.8850   45.7720 C   0  0  0  0  0  0  0  0  0  0  0  0
   58.5620   26.5070   46.6190 C   0  0  0  0  0  0  0  0  0  0  0  0
   59.7200   27.2860   46.6980 C   0  0  0  0  0  0  0  0  0  0  0  0
   59.8340   28.4530   45.9420 C   0  0  0  0  0  0  0  0  0  0  0  0
   58.7930   28.8540   45.0980 C   0  0  0  0  0  0  0  0  0  0  0  0
   58.9390   30.0740   44.3570 N   0  0  0  0  0  0  0  0  0  0  0  0
   57.7610   31.3460   44.2900 S   0  0  0  0  0  0  0  0  0  0  0  0
   56.4600   30.8460   44.8520 O   0  0  0  0  0  0  0  0  0  0  0  0
   57.5470   31.7470   42.8580 O   0  0  0  0  0  0  0  0  0  0  0  0
   58.3460   32.7430   45.1900 C   0  0  0  0  0  0  0  0  0  0  0  0
   58.6940   33.9100   44.5020 C   0  0  0  0  0  0  0  0  0  0  0  0
   59.1980   35.0110   45.1980 C   0  0  0  0  0  0  0  0  0  0  0  0
   59.3640   34.9500   46.5840 C   0  0  0  0  0  0  0  0  0  0  0  0
   59.0220   33.7830   47.2920 C   0  0  0  0  0  0  0  0  0  0  0  0
   59.2070   33.7080   48.7170 N   0  0  0  0  0  0  0  0  0  0  0  0
   59.9150   34.5460   49.3120 O   0  0  0  0  0  0  0  0  0  0  0  0
   58.6150   32.7030   49.4480 O   0  0  0  0  0  0  0  0  0  0  0  0
   58.5050   32.6830   46.5830 C   0  0  0  0  0  0  0  0  0  0  0  0
   57.6370   28.0570   45.0040 C   0  0  0  0  0  0  0  0  0  0  0  0
   55.0290   26.5180   46.0000 N   0  0  0  0  0  0  0  0  0  0  0  0
   54.1480   25.5460   45.8190 N   0  0  0  0  0  0  0  0  0  0  0  0
   56.9906   24.0755   44.9791 H   0  0  0  0  0  0  0  0  0  0  0  0
   58.4767   25.5921   47.2237 H   0  0  0  0  0  0  0  0  0  0  0  0
   60.5440   26.9779   47.3584 H   0  0  0  0  0  0  0  0  0  0  0  0
   60.7479   29.0614   46.0100 H   0  0  0  0  0  0  0  0  0  0  0  0
   58.5704   33.9608   43.4101 H   0  0  0  0  0  0  0  0  0  0  0  0
   59.4650   35.9287   44.6535 H   0  0  0  0  0  0  0  0  0  0  0  0
   59.7646   35.8198   47.1252 H   0  0  0  0  0  0  0  0  0  0  0  0
   58.2231   31.7684   47.1252 H   0  0  0  0  0  0  0  0  0  0  0  0
   56.8263   28.3536   44.3222 H   0  0  0  0  0  0  0  0  0  0  0  0
   54.7730   27.4680   46.3480 H   0  0  0  0  0  0  0  0  0  0  0  0
  1  2  2  0
  2  3  1  0
  3  4  2  0
  4  5  1  0
  5  6  2  0
  6  7  1  0
  7  8  2  0
  8  9  1  0
  9 10  1  0
 10 11  1  0
 11 12  2  0
 11 13  2  0
 11 14  1  0
 14 15  2  0
 15 16  1  0
 16 17  2  0
 17 18  1  0
 18 19  1  0
 19 20  2  0
 19 21  1  0
 18 22  2  0
  9 23  2  0
  4 24  1  0
 24 25  1  0
 25  2  1  0
 23  5  1  0
 22 14  1  0
  3 26  1  0
  6 27  1  0
  7 28  1  0
  8 29  1  0
 15 30  1  0
 16 31  1  0
 17 32  1  0
 22 33  1  0
 23 34  1  0
 24 35  1  0
M  CHG  4  10  -1  19   1  21  -1  25  -1
M  END
>  <UniqueID>  (54) 
52

>  <SMILES>  (54) 
O=c1cc(-c2cccc([N-]S(=O)(=O)c3cccc([N+](=O)[O-])c3)c2)[nH][n-]1

>  <Energy>  (54) 
74.28888101366617

>  <Genealogy>  (54) 
O=c1cc(-c2cccc([N-]S(=O)(=O)c3cccc([N+](=O)[O-])c3)c2)[nH][n-]1 (protonated)
O=c1cc(-c2cccc([N-]S(=O)(=O)c3cccc([N+](=O)[O-])c3)c2)[nH][n-]1 (3D coordinates assigned)
O=c1cc(-c2cccc([N-]S(=O)(=O)c3cccc([N+](=O)[O-])c3)c2)[nH][n-]1 (optimized conformer: 74.28888101366617 kcal/mol)

>  <smiles>  (54) 
O=c1cc(-c2cccc(NS(=O)(=O)c3cccc([N+](=O)[O-])c3)c2)[nH][nH]1

>  <score_type>  (54) 
oracle

>  <origin>  (54) 
adg

>  <m_score__min__energy>  (54) 
-12.699999999999999

>  <m_primary>  (54) 
energy

$$$$
55:0
     RDKit          3D

 56 58  0  0  0  0  0  0  0  0999 V2000
   56.4200   24.0740   44.7080 C   0  0  0  0  0  0  0  0  0  0  0  0
   55.2520   24.3910   45.6300 C   0  0  0  0  0  0  0  0  0  0  0  0
   55.7570   24.8370   46.8840 O   0  0  0  0  0  0  0  0  0  0  0  0
   56.9190   24.3230   47.4650 C   0  0  0  0  0  0  0  0  0  0  0  0
   57.0800   23.0790   47.5690 O   0  0  0  0  0  0  0  0  0  0  0  0
   57.9950   25.2270   47.9070 C   0  0  0  0  0  0  0  0  0  0  0  0
   58.6870   26.0530   47.1010 C   0  0  0  0  0  0  0  0  0  0  0  0
   58.1190   26.8280   45.9800 C   0  0  0  0  0  0  0  0  0  0  0  0
   57.3230   27.9590   46.0680 C   0  0  0  0  0  0  0  0  0  0  0  0
   57.1110   28.3310   44.7550 C   0  0  0  0  0  0  0  0  0  0  0  0
   56.2360   29.4300   44.2970 C   0  0  0  0  0  0  0  0  0  0  0  0
   55.1400   29.6240   44.8810 O   0  0  0  0  0  0  0  0  0  0  0  0
   56.6020   30.2950   43.2160 N   0  0  0  0  0  0  0  0  0  0  0  0
   57.6860   31.2720   43.2670 C   0  0  0  0  0  0  0  0  0  0  0  0
   57.9630   31.6290   44.6970 C   0  0  0  0  0  0  0  0  0  0  0  0
   58.8800   30.8860   45.4560 C   0  0  0  0  0  0  0  0  0  0  0  0
   59.1490   31.2390   46.7830 C   0  0  0  0  0  0  0  0  0  0  0  0
   58.5220   32.3550   47.3610 C   0  0  0  0  0  0  0  0  0  0  0  0
   58.8140   32.7330   48.7610 C   0  0  0  0  0  0  0  0  0  0  0  0
   58.0140   32.3990   49.6720 O   0  0  0  0  0  0  0  0  0  0  0  0
   59.9660   33.5170   49.1030 N   0  0  0  0  0  0  0  0  0  0  0  0
   61.2630   33.3990   48.4990 C   0  0  0  0  0  0  0  0  0  0  0  0
   62.3270   32.7910   49.1910 C   0  0  0  0  0  0  0  0  0  0  0  0
   63.5920   32.7020   48.6080 C   0  0  0  0  0  0  0  0  0  0  0  0
   63.8120   33.2270   47.3350 C   0  0  0  0  0  0  0  0  0  0  0  0
   62.7700   33.8490   46.6440 C   0  0  0  0  0  0  0  0  0  0  0  0
   61.4930   33.9440   47.2180 C   0  0  0  0  0  0  0  0  0  0  0  0
   60.4340   34.5610   46.4740 N   0  0  0  0  0  0  0  0  0  0  0  0
   57.6050   33.0970   46.5970 C   0  0  0  0  0  0  0  0  0  0  0  0
   57.3360   32.7420   45.2750 C   0  0  0  0  0  0  0  0  0  0  0  0
   57.7610   27.4630   43.9510 N   0  0  0  0  0  0  0  0  0  0  0  0
   57.7740   27.4590   42.4960 C   0  0  0  0  0  0  0  0  0  0  0  0
   58.3860   26.5570   44.6890 N   0  0  0  0  0  0  0  0  0  0  0  0
   57.3080   23.8330   45.3108 H   0  0  0  0  0  0  0  0  0  0  0  0
   56.1630   23.2131   44.0733 H   0  0  0  0  0  0  0  0  0  0  0  0
   56.6335   24.9467   44.0733 H   0  0  0  0  0  0  0  0  0  0  0  0
   54.6317   25.1805   45.1807 H   0  0  0  0  0  0  0  0  0  0  0  0
   54.6397   23.4890   45.7764 H   0  0  0  0  0  0  0  0  0  0  0  0
   58.2521   25.2268   48.9765 H   0  0  0  0  0  0  0  0  0  0  0  0
   59.7648   26.1596   47.2932 H   0  0  0  0  0  0  0  0  0  0  0  0
   56.9456   28.4493   46.9775 H   0  0  0  0  0  0  0  0  0  0  0  0
   58.5909   30.8411   42.8137 H   0  0  0  0  0  0  0  0  0  0  0  0
   57.3950   32.1754   42.7109 H   0  0  0  0  0  0  0  0  0  0  0  0
   59.3899   30.0217   45.0055 H   0  0  0  0  0  0  0  0  0  0  0  0
   59.8550   30.6395   47.3764 H   0  0  0  0  0  0  0  0  0  0  0  0
   62.1604   32.3829   50.1988 H   0  0  0  0  0  0  0  0  0  0  0  0
   64.4157   32.2176   49.1529 H   0  0  0  0  0  0  0  0  0  0  0  0
   64.8080   33.1511   46.8743 H   0  0  0  0  0  0  0  0  0  0  0  0
   62.9515   34.2673   45.6430 H   0  0  0  0  0  0  0  0  0  0  0  0
   60.5570   34.8350   45.4750 H   0  0  0  0  0  0  0  0  0  0  0  0
   59.5190   34.7660   46.9300 H   0  0  0  0  0  0  0  0  0  0  0  0
   57.0960   33.9634   47.0444 H   0  0  0  0  0  0  0  0  0  0  0  0
   56.6274   33.3391   44.6822 H   0  0  0  0  0  0  0  0  0  0  0  0
   58.7684   27.1530   42.1390 H   0  0  0  0  0  0  0  0  0  0  0  0
   57.0175   26.7521   42.1245 H   0  0  0  0  0  0  0  0  0  0  0  0
   57.5459   28.4689   42.1245 H   0  0  0  0  0  0  0  0  0  0  0  0
  1  2  1  0
  2  3  1  0
  3  4  1  0
  4  5  2  0
  4  6  1  0
  6  7  2  3
  7  8  1  0
  8  9  1  0
  9 10  2  0
 10 11  1  0
 11 12  2  0
 11 13  1  0
 13 14  1  0
 14 15  1  0
 15 16  2  0
 16 17  1  0
 17 18  2  0
 18 19  1  0
 19 20  2  0
 19 21  1  0
 21 22  1  0
 22 23  2  0
 23 24  1  0
 24 25  2  0
 25 26  1  0
 26 27  2  0
 27 28  1  0
 18 29  1  0
 29 30  2  0
 10 31  1  0
 31 32  1  0
 31 33  1  0
 33  8  2  0
 30 15  1  0
 27 22  1  0
  1 34  1  0
  1 35  1  0
  1 36  1  0
  2 37  1  0
  2 38  1  0
  6 39  1  0
  7 40  1  0
  9 41  1  0
 14 42  1  0
 14 43  1  0
 16 44  1  0
 17 45  1  0
 23 46  1  0
 24 47  1  0
 25 48  1  0
 26 49  1  0
 28 50  1  0
 28 51  1  0
 29 52  1  0
 30 53  1  0
 32 54  1  0
 32 55  1  0
 32 56  1  0
M  CHG  2  13  -1  21  -1
M  END
>  <UniqueID>  (55) 
53

>  <SMILES>  (55) 
CCOC(=O)C=Cc1cc(C(=O)[N-]Cc2ccc(C(=O)[N-]c3ccccc3N)cc2)n(C)n1

>  <Energy>  (55) 
96.57061353391184

>  <Genealogy>  (55) 
CCOC(=O)C=Cc1cc(C(=O)[N-]Cc2ccc(C(=O)[N-]c3ccccc3N)cc2)n(C)n1 (protonated)
CCOC(=O)C=Cc1cc(C(=O)[N-]Cc2ccc(C(=O)[N-]c3ccccc3N)cc2)n(C)n1 (3D coordinates assigned)
CCOC(=O)C=Cc1cc(C(=O)[N-]Cc2ccc(C(=O)[N-]c3ccccc3N)cc2)n(C)n1 (optimized conformer: 96.57061353391184 kcal/mol)

>  <smiles>  (55) 
CCOC(=O)C=Cc1cc(C(=O)NCc2ccc(C(=O)Nc3ccccc3N)cc2)n(C)n1

>  <score_type>  (55) 
oracle

>  <origin>  (55) 
adg

>  <m_score__min__energy>  (55) 
-11.369999999999999

>  <m_primary>  (55) 
energy

$$$$
56:0
     RDKit          3D

 59 63  0  0  0  0  0  0  0  0999 V2000
   56.2719   19.0684   46.9737 H   0  0  0  0  0  0  0  0  0  0  0  0
   56.0360   20.1420   46.9330 C   0  0  0  0  0  0  0  0  0  0  0  0
   55.6750   20.7330   45.7190 C   0  0  0  0  0  0  0  0  0  0  0  0
   55.6378   20.1261   44.8023 H   0  0  0  0  0  0  0  0  0  0  0  0
   55.3610   22.0950   45.6680 C   0  0  0  0  0  0  0  0  0  0  0  0
   55.0929   22.5589   44.7073 H   0  0  0  0  0  0  0  0  0  0  0  0
   55.3860   22.8720   46.8340 C   0  0  0  0  0  0  0  0  0  0  0  0
   55.0860   24.2750   46.7350 N   0  0  0  0  0  0  0  0  0  0  0  0
   55.9150   25.2320   46.4400 C   0  0  0  0  0  0  0  0  0  0  0  0
   55.4290   26.4070   45.9620 N   0  0  0  0  0  0  0  0  0  0  0  0
   56.2690   27.4380   45.6750 C   0  0  0  0  0  0  0  0  0  0  0  0
   55.8250   28.5630   45.1970 N   0  0  0  0  0  0  0  0  0  0  0  0
   56.5920   29.7190   44.8180 C   0  0  0  0  0  0  0  0  0  0  0  0
   57.4220   30.3130   45.7770 C   0  0  0  0  0  0  0  0  0  0  0  0
   57.5018   29.8666   46.7792 H   0  0  0  0  0  0  0  0  0  0  0  0
   58.1500   31.4670   45.4740 C   0  0  0  0  0  0  0  0  0  0  0  0
   58.7989   31.9222   46.2367 H   0  0  0  0  0  0  0  0  0  0  0  0
   58.0550   32.0480   44.1960 C   0  0  0  0  0  0  0  0  0  0  0  0
   58.7590   33.2500   43.8560 N   0  0  0  0  0  0  0  0  0  0  0  0
   59.2530   34.2290   44.7770 C   0  0  0  0  0  0  0  0  0  0  0  0
   58.6690   35.3410   44.8550 O   0  0  0  0  0  0  0  0  0  0  0  0
   60.4560   33.9880   45.5200 N   0  0  0  0  0  0  0  0  0  0  0  0
   60.5880   33.9810   46.9480 C   0  0  0  0  0  0  0  0  0  0  0  0
   61.8580   33.7780   47.5060 C   0  0  0  0  0  0  0  0  0  0  0  0
   62.7297   33.6493   46.8476 H   0  0  0  0  0  0  0  0  0  0  0  0
   62.0240   33.7380   48.8930 C   0  0  0  0  0  0  0  0  0  0  0  0
   63.0262   33.5922   49.3225 H   0  0  0  0  0  0  0  0  0  0  0  0
   60.9180   33.8830   49.7350 C   0  0  0  0  0  0  0  0  0  0  0  0
   61.0501   33.8569   50.8267 H   0  0  0  0  0  0  0  0  0  0  0  0
   59.6450   34.0610   49.1890 C   0  0  0  0  0  0  0  0  0  0  0  0
   58.7737   34.1669   49.8520 H   0  0  0  0  0  0  0  0  0  0  0  0
   59.4750   34.1050   47.8010 C   0  0  0  0  0  0  0  0  0  0  0  0
   58.4693   34.2368   47.3752 H   0  0  0  0  0  0  0  0  0  0  0  0
   57.1870   31.4860   43.2540 C   0  0  0  0  0  0  0  0  0  0  0  0
   57.0783   31.9544   42.2646 H   0  0  0  0  0  0  0  0  0  0  0  0
   56.4560   30.3330   43.5600 C   0  0  0  0  0  0  0  0  0  0  0  0
   55.7715   29.9046   42.8130 H   0  0  0  0  0  0  0  0  0  0  0  0
   57.6030   27.2800   45.8580 N   0  0  0  0  0  0  0  0  0  0  0  0
   58.1010   26.1130   46.3470 C   0  0  0  0  0  0  0  0  0  0  0  0
   59.3760   25.9610   46.5480 N   0  0  0  0  0  0  0  0  0  0  0  0
   60.4040   26.9310   46.1690 C   0  0  0  0  0  0  0  0  0  0  0  0
   61.3971   26.4952   46.3527 H   0  0  0  0  0  0  0  0  0  0  0  0
   60.2854   27.1739   45.1027 H   0  0  0  0  0  0  0  0  0  0  0  0
   60.2630   28.1970   46.9730 C   0  0  0  0  0  0  0  0  0  0  0  0
   59.6910   28.1690   48.2580 C   0  0  0  0  0  0  0  0  0  0  0  0
   59.3221   27.2196   48.6735 H   0  0  0  0  0  0  0  0  0  0  0  0
   59.5900   29.3450   49.0090 C   0  0  0  0  0  0  0  0  0  0  0  0
   59.1427   29.3186   50.0136 H   0  0  0  0  0  0  0  0  0  0  0  0
   60.0570   30.5540   48.4840 C   0  0  0  0  0  0  0  0  0  0  0  0
   59.9767   31.4776   49.0760 H   0  0  0  0  0  0  0  0  0  0  0  0
   60.6260   30.5900   47.2070 C   0  0  0  0  0  0  0  0  0  0  0  0
   60.9927   31.5418   46.7952 H   0  0  0  0  0  0  0  0  0  0  0  0
   60.7290   29.4160   46.4530 C   0  0  0  0  0  0  0  0  0  0  0  0
   61.1768   29.4476   45.4488 H   0  0  0  0  0  0  0  0  0  0  0  0
   57.2540   25.0960   46.6400 N   0  0  0  0  0  0  0  0  0  0  0  0
   55.7830   22.2770   48.0480 C   0  0  0  0  0  0  0  0  0  0  0  0
   55.8461   22.8855   48.9622 H   0  0  0  0  0  0  0  0  0  0  0  0
   56.0970   20.9150   48.0940 C   0  0  0  0  0  0  0  0  0  0  0  0
   56.3927   20.4518   49.0469 H   0  0  0  0  0  0  0  0  0  0  0  0
  1  2  1  0
  2  3  2  0
  3  4  1  0
  3  5  1  0
  5  6  1  0
  5  7  2  0
  7  8  1  0
  8  9  2  0
  9 10  1  0
 10 11  1  0
 11 12  2  3
 12 13  1  0
 13 14  2  0
 14 15  1  0
 14 16  1  0
 16 17  1  0
 16 18  2  0
 18 19  1  0
 19 20  1  0
 20 21  2  0
 20 22  1  0
 22 23  1  0
 23 24  2  0
 24 25  1  0
 24 26  1  0
 26 27  1  0
 26 28  2  0
 28 29  1  0
 28 30  1  0
 30 31  1  0
 30 32  2  0
 32 33  1  0
 18 34  1  0
 34 35  1  0
 34 36  2  0
 36 37  1  0
 11 38  1  0
 38 39  1  0
 39 40  2  0
 40 41  1  0
 41 42  1  0
 41 43  1  0
 41 44  1  0
 44 45  2  0
 45 46  1  0
 45 47  1  0
 47 48  1  0
 47 49  2  0
 49 50  1  0
 49 51  1  0
 51 52  1  0
 51 53  2  0
 53 54  1  0
 39 55  1  0
  7 56  1  0
 56 57  1  0
 56 58  2  0
 58 59  1  0
 58  2  1  0
 55  9  1  0
 36 13  1  0
 53 44  1  0
 32 23  1  0
M  CHG  5  10  -1  19  -1  22  -1  38  -1  55  -1
M  END
>  <UniqueID>  (56) 
54

>  <SMILES>  (56) 
O=C([N-]c1ccccc1)[N-]c1ccc(N=c2[n-]/c(=N\Cc3ccccc3)[n-]/c(=N\c3ccccc3)[n-]2)cc1

>  <Energy>  (56) 
84.8552712307222

>  <Genealogy>  (56) 
O=C([N-]c1ccccc1)[N-]c1ccc(N=c2[n-]c(=NCc3ccccc3)[n-]c(=Nc3ccccc3)[n-]2)cc1 (protonated)
O=C([N-]c1ccccc1)[N-]c1ccc(N=c2[n-]/c(=N\Cc3ccccc3)[n-]/c(=N\c3ccccc3)[n-]2)cc1 (cis-trans isomerization)
O=C([N-]c1ccccc1)[N-]c1ccc(N=c2[n-]/c(=N\Cc3ccccc3)[n-]/c(=N\c3ccccc3)[n-]2)cc1 (3D coordinates assigned)
O=C([N-]c1ccccc1)[N-]c1ccc(N=c2[n-]/c(=N\Cc3ccccc3)[n-]/c(=N\c3ccccc3)[n-]2)cc1 (optimized conformer: 84.8552712307222 kcal/mol)

>  <smiles>  (56) 
O=C(Nc1ccccc1)Nc1ccc(N=c2[nH]c(=NCc3ccccc3)[nH]c(=Nc3ccccc3)[nH]2)cc1

>  <score_type>  (56) 
oracle

>  <origin>  (56) 
adg

>  <m_score__min__energy>  (56) 
-15.94

>  <m_primary>  (56) 
energy

$$$$
57:0
     RDKit          3D

 49 51  0  0  0  0  0  0  0  0999 V2000
   62.1670   33.9060   50.3650 C   0  0  0  0  0  0  0  0  0  0  0  0
   61.4330   33.2290   51.2460 C   0  0  0  0  0  0  0  0  0  0  0  0
   60.0020   32.9340   51.0240 C   0  0  0  0  0  0  0  0  0  0  0  0
   59.2110   33.8590   50.6910 O   0  0  0  0  0  0  0  0  0  0  0  0
   59.4970   31.5950   51.1060 N   0  0  0  0  0  0  0  0  0  0  0  0
   59.4670   30.6320   50.0410 C   0  0  0  0  0  0  0  0  0  0  0  0
   59.8130   29.2920   50.2830 C   0  0  0  0  0  0  0  0  0  0  0  0
   59.7650   28.3520   49.2550 C   0  0  0  0  0  0  0  0  0  0  0  0
   59.3600   28.7290   47.9690 C   0  0  0  0  0  0  0  0  0  0  0  0
   59.3160   27.7060   46.8630 C   0  0  0  0  0  0  0  0  0  0  0  0
   57.8970   27.3820   46.4990 C   0  0  0  0  0  0  0  0  0  0  0  0
   57.2980   26.2190   46.8160 N   0  0  0  0  0  0  0  0  0  0  0  0
   56.0720   26.3410   46.2700 C   0  0  0  0  0  0  0  0  0  0  0  0
   55.1970   25.4410   46.3600 O   0  0  0  0  0  0  0  0  0  0  0  0
   55.8560   27.5040   45.6210 N   0  0  0  0  0  0  0  0  0  0  0  0
   57.0250   28.1560   45.7560 C   0  0  0  0  0  0  0  0  0  0  0  0
   57.2640   29.5370   45.2260 C   0  0  0  0  0  0  0  0  0  0  0  0
   56.2780   29.8670   44.1110 C   0  0  0  0  0  0  0  0  0  0  0  0
   58.9840   30.0590   47.7280 C   0  0  0  0  0  0  0  0  0  0  0  0
   59.0250   31.0210   48.7590 C   0  0  0  0  0  0  0  0  0  0  0  0
   58.6270   32.3870   48.5200 N   0  0  0  0  0  0  0  0  0  0  0  0
   59.2340   33.3680   47.2220 S   0  0  0  0  0  0  0  0  0  0  0  0
   58.9190   34.8080   47.5070 O   0  0  0  0  0  0  0  0  0  0  0  0
   58.5580   32.9640   45.9400 O   0  0  0  0  0  0  0  0  0  0  0  0
   60.9810   33.1920   47.0840 C   0  0  0  0  0  0  0  0  0  0  0  0
   61.7460   34.2010   46.4820 C   0  0  0  0  0  0  0  0  0  0  0  0
   63.1360   34.0740   46.3990 C   0  0  0  0  0  0  0  0  0  0  0  0
   63.7670   32.9380   46.9170 C   0  0  0  0  0  0  0  0  0  0  0  0
   63.0080   31.9290   47.5160 C   0  0  0  0  0  0  0  0  0  0  0  0
   61.6190   32.0560   47.6040 C   0  0  0  0  0  0  0  0  0  0  0  0
   63.2294   34.1035   50.5706 H   0  0  0  0  0  0  0  0  0  0  0  0
   61.7109   34.2678   49.4317 H   0  0  0  0  0  0  0  0  0  0  0  0
   61.9092   32.8765   52.1728 H   0  0  0  0  0  0  0  0  0  0  0  0
   60.1242   28.9823   51.2916 H   0  0  0  0  0  0  0  0  0  0  0  0
   60.0470   27.3078   49.4553 H   0  0  0  0  0  0  0  0  0  0  0  0
   59.8334   28.1070   45.9790 H   0  0  0  0  0  0  0  0  0  0  0  0
   59.8115   26.7873   47.2100 H   0  0  0  0  0  0  0  0  0  0  0  0
   57.1408   30.2632   46.0430 H   0  0  0  0  0  0  0  0  0  0  0  0
   58.2851   29.5871   44.8200 H   0  0  0  0  0  0  0  0  0  0  0  0
   55.3216   30.1871   44.5501 H   0  0  0  0  0  0  0  0  0  0  0  0
   56.6855   30.6777   43.4892 H   0  0  0  0  0  0  0  0  0  0  0  0
   56.1154   28.9743   43.4892 H   0  0  0  0  0  0  0  0  0  0  0  0
   58.6529   30.3556   46.7218 H   0  0  0  0  0  0  0  0  0  0  0  0
   57.9800   32.8610   49.1870 H   0  0  0  0  0  0  0  0  0  0  0  0
   61.2514   35.0948   46.0739 H   0  0  0  0  0  0  0  0  0  0  0  0
   63.7334   34.8675   45.9263 H   0  0  0  0  0  0  0  0  0  0  0  0
   64.8606   32.8389   46.8528 H   0  0  0  0  0  0  0  0  0  0  0  0
   63.5044   31.0338   47.9187 H   0  0  0  0  0  0  0  0  0  0  0  0
   61.0247   31.2634   48.0821 H   0  0  0  0  0  0  0  0  0  0  0  0
  1  2  2  0
  2  3  1  0
  3  4  2  0
  3  5  1  0
  5  6  1  0
  6  7  2  0
  7  8  1  0
  8  9  2  0
  9 10  1  0
 10 11  1  0
 11 12  1  0
 12 13  1  0
 13 14  2  0
 13 15  1  0
 15 16  1  0
 16 17  1  0
 17 18  1  0
  9 19  1  0
 19 20  2  0
 20 21  1  0
 21 22  1  0
 22 23  2  0
 22 24  2  0
 22 25  1  0
 25 26  2  0
 26 27  1  0
 27 28  2  0
 28 29  1  0
 29 30  2  0
 20  6  1  0
 30 25  1  0
 16 11  2  0
  1 31  1  0
  1 32  1  0
  2 33  1  0
  7 34  1  0
  8 35  1  0
 10 36  1  0
 10 37  1  0
 17 38  1  0
 17 39  1  0
 18 40  1  0
 18 41  1  0
 18 42  1  0
 19 43  1  0
 21 44  1  0
 26 45  1  0
 27 46  1  0
 28 47  1  0
 29 48  1  0
 30 49  1  0
M  CHG  3   5  -1  12  -1  15  -1
M  END
>  <UniqueID>  (57) 
55

>  <SMILES>  (57) 
C=CC(=O)[N-]c1ccc(Cc2[n-]c(=O)[n-]c2CC)cc1NS(=O)(=O)c1ccccc1

>  <Energy>  (57) 
77.29147995764217

>  <Genealogy>  (57) 
C=CC(=O)[N-]c1ccc(Cc2[n-]c(=O)[n-]c2CC)cc1NS(=O)(=O)c1ccccc1 (protonated)
C=CC(=O)[N-]c1ccc(Cc2[n-]c(=O)[n-]c2CC)cc1NS(=O)(=O)c1ccccc1 (3D coordinates assigned)
C=CC(=O)[N-]c1ccc(Cc2[n-]c(=O)[n-]c2CC)cc1NS(=O)(=O)c1ccccc1 (optimized conformer: 77.29147995764217 kcal/mol)

>  <smiles>  (57) 
C=CC(=O)Nc1ccc(Cc2[nH]c(=O)[nH]c2CC)cc1NS(=O)(=O)c1ccccc1

>  <score_type>  (57) 
oracle

>  <origin>  (57) 
adg

>  <m_score__min__energy>  (57) 
-13.039999999999999

>  <m_primary>  (57) 
energy

$$$$
58:0
     RDKit          3D

 36 37  0  0  0  0  0  0  0  0999 V2000
   60.4280   26.9640   49.7060 C   0  0  0  0  0  0  0  0  0  0  0  0
   60.7470   28.2430   49.0840 N   0  0  0  0  0  0  0  0  0  0  0  0
   59.9090   29.3940   49.2490 C   0  0  0  0  0  0  0  0  0  0  0  0
   58.8950   29.3320   49.9980 O   0  0  0  0  0  0  0  0  0  0  0  0
   60.2210   30.6030   48.5430 N   0  0  0  0  0  0  0  0  0  0  0  0
   59.4400   31.8060   48.6260 C   0  0  0  0  0  0  0  0  0  0  0  0
   58.5680   31.9480   49.5270 O   0  0  0  0  0  0  0  0  0  0  0  0
   59.6220   32.8850   47.6020 C   0  0  0  0  0  0  0  0  0  0  0  0
   58.9620   32.4970   46.3540 N   0  0  0  0  0  0  0  0  0  0  0  0
   57.7600   33.0890   45.8660 C   0  0  0  0  0  0  0  0  0  0  0  0
   57.2390   34.0980   46.4130 O   0  0  0  0  0  0  0  0  0  0  0  0
   56.9900   32.2610   44.4700 S   0  0  0  0  0  0  0  0  0  0  0  0
   58.0850   30.8750   44.7980 C   0  0  0  0  0  0  0  0  0  0  0  0
   57.8260   29.6500   44.3190 C   0  0  0  0  0  0  0  0  0  0  0  0
   57.9810   28.4010   45.0940 C   0  0  0  0  0  0  0  0  0  0  0  0
   59.2600   27.9380   45.4530 C   0  0  0  0  0  0  0  0  0  0  0  0
   59.4000   26.7790   46.2180 C   0  0  0  0  0  0  0  0  0  0  0  0
   58.2690   26.0850   46.6510 C   0  0  0  0  0  0  0  0  0  0  0  0
   56.9890   26.5520   46.3270 C   0  0  0  0  0  0  0  0  0  0  0  0
   55.8560   25.8700   46.7680 O   0  0  0  0  0  0  0  0  0  0  0  0
   56.8440   27.7140   45.5560 C   0  0  0  0  0  0  0  0  0  0  0  0
   55.5690   28.1760   45.2430 O   0  0  0  0  0  0  0  0  0  0  0  0
   59.1660   31.2450   45.7150 C   0  0  0  0  0  0  0  0  0  0  0  0
   60.2040   30.5550   45.8980 O   0  0  0  0  0  0  0  0  0  0  0  0
   60.4549   27.0717   50.8004 H   0  0  0  0  0  0  0  0  0  0  0  0
   59.4228   26.6449   49.3935 H   0  0  0  0  0  0  0  0  0  0  0  0
   61.1657   26.2102   49.3935 H   0  0  0  0  0  0  0  0  0  0  0  0
   61.6090   28.3180   48.4960 H   0  0  0  0  0  0  0  0  0  0  0  0
   61.0330   30.5850   47.8840 H   0  0  0  0  0  0  0  0  0  0  0  0
   59.1794   33.8207   47.9742 H   0  0  0  0  0  0  0  0  0  0  0  0
   60.6959   33.0330   47.4155 H   0  0  0  0  0  0  0  0  0  0  0  0
   57.4747   29.5690   43.2798 H   0  0  0  0  0  0  0  0  0  0  0  0
   60.1536   28.4918   45.1294 H   0  0  0  0  0  0  0  0  0  0  0  0
   60.4033   26.4119   46.4801 H   0  0  0  0  0  0  0  0  0  0  0  0
   58.3834   25.1685   47.2485 H   0  0  0  0  0  0  0  0  0  0  0  0
   54.9350   26.2970   46.7410 H   0  0  0  0  0  0  0  0  0  0  0  0
  1  2  1  0
  2  3  1  0
  3  4  2  0
  3  5  1  0
  5  6  1  0
  6  7  2  0
  6  8  1  0
  8  9  1  0
  9 10  1  0
 10 11  2  0
 10 12  1  0
 12 13  1  0
 13 14  2  3
 14 15  1  0
 15 16  2  0
 16 17  1  0
 17 18  2  0
 18 19  1  0
 19 20  1  0
 19 21  2  0
 21 22  1  0
 13 23  1  0
 23 24  2  0
 23  9  1  0
 21 15  1  0
  1 25  1  0
  1 26  1  0
  1 27  1  0
  2 28  1  0
  5 29  1  0
  8 30  1  0
  8 31  1  0
 14 32  1  0
 16 33  1  0
 17 34  1  0
 18 35  1  0
 20 36  1  0
M  CHG  1  22  -1
M  END
>  <UniqueID>  (58) 
56

>  <SMILES>  (58) 
CNC(=O)NC(=O)CN1C(=O)SC(=Cc2cccc(O)c2[O-])C1=O

>  <Energy>  (58) 
56.8583598200965

>  <Genealogy>  (58) 
CNC(=O)NC(=O)CN1C(=O)SC(=Cc2cccc(O)c2[O-])C1=O (protonated)
CNC(=O)NC(=O)CN1C(=O)SC(=Cc2cccc(O)c2[O-])C1=O (3D coordinates assigned)
CNC(=O)NC(=O)CN1C(=O)SC(=Cc2cccc(O)c2[O-])C1=O (nonaromatic ring conformer: 56.8583598200965 kcal/mol)

>  <smiles>  (58) 
CNC(=O)NC(=O)CN1C(=O)SC(=Cc2cccc(O)c2O)C1=O

>  <score_type>  (58) 
oracle

>  <origin>  (58) 
adg

>  <m_score__min__energy>  (58) 
-12.449999999999999

>  <m_primary>  (58) 
energy

$$$$
59:0
     RDKit          3D

 39 41  0  0  0  0  0  0  0  0999 V2000
   54.3270   25.7490   45.6220 N   0  0  0  0  0  0  0  0  0  0  0  0
   56.0030   25.4090   45.8710 S   0  0  0  0  0  0  0  0  0  0  0  0
   56.2740   25.2710   47.3430 O   0  0  0  0  0  0  0  0  0  0  0  0
   56.3570   24.1150   45.1930 O   0  0  0  0  0  0  0  0  0  0  0  0
   56.9730   26.7220   45.2130 C   0  0  0  0  0  0  0  0  0  0  0  0
   58.1900   26.4550   44.5690 C   0  0  0  0  0  0  0  0  0  0  0  0
   58.9500   27.5030   44.0410 C   0  0  0  0  0  0  0  0  0  0  0  0
   58.4910   28.8200   44.1370 C   0  0  0  0  0  0  0  0  0  0  0  0
   57.2570   29.0910   44.7390 C   0  0  0  0  0  0  0  0  0  0  0  0
   56.8210   30.4470   44.8810 N   0  0  0  0  0  0  0  0  0  0  0  0
   57.5190   31.5130   45.1680 C   0  0  0  0  0  0  0  0  0  0  0  0
   57.8620   31.6930   46.4720 N   0  0  0  0  0  0  0  0  0  0  0  0
   58.5610   32.7710   46.9130 C   0  0  0  0  0  0  0  0  0  0  0  0
   58.9710   33.7610   46.0140 C   0  0  0  0  0  0  0  0  0  0  0  0
   59.7260   34.9530   46.4760 C   0  0  0  0  0  0  0  0  0  0  0  0
   59.6500   36.0280   45.8240 O   0  0  0  0  0  0  0  0  0  0  0  0
   60.4840   34.9420   47.6960 N   0  0  0  0  0  0  0  0  0  0  0  0
   61.5340   34.2170   47.9610 C   0  0  0  0  0  0  0  0  0  0  0  0
   62.2240   33.4870   46.9690 C   0  0  0  0  0  0  0  0  0  0  0  0
   63.3460   32.7370   47.3230 C   0  0  0  0  0  0  0  0  0  0  0  0
   63.7840   32.7220   48.6480 C   0  0  0  0  0  0  0  0  0  0  0  0
   63.0910   33.4670   49.6020 C   0  0  0  0  0  0  0  0  0  0  0  0
   61.9970   34.1900   49.2410 N   0  0  0  0  0  0  0  0  0  0  0  0
   58.6550   33.6010   44.6590 C   0  0  0  0  0  0  0  0  0  0  0  0
   57.9480   32.4770   44.2130 C   0  0  0  0  0  0  0  0  0  0  0  0
   57.8040   32.3010   42.4630 Cl  0  0  0  0  0  0  0  0  0  0  0  0
   56.5150   28.0420   45.3070 C   0  0  0  0  0  0  0  0  0  0  0  0
   54.2660   26.7160   45.2320 H   0  0  0  0  0  0  0  0  0  0  0  0
   53.9930   25.1010   44.8730 H   0  0  0  0  0  0  0  0  0  0  0  0
   58.5474   25.4186   44.4791 H   0  0  0  0  0  0  0  0  0  0  0  0
   59.9108   27.2909   43.5492 H   0  0  0  0  0  0  0  0  0  0  0  0
   59.1007   29.6445   43.7388 H   0  0  0  0  0  0  0  0  0  0  0  0
   58.8056   32.8658   47.9813 H   0  0  0  0  0  0  0  0  0  0  0  0
   61.8795   33.5093   45.9246 H   0  0  0  0  0  0  0  0  0  0  0  0
   63.8848   32.1581   46.5585 H   0  0  0  0  0  0  0  0  0  0  0  0
   64.6650   32.1299   48.9364 H   0  0  0  0  0  0  0  0  0  0  0  0
   63.4299   33.4698   50.6485 H   0  0  0  0  0  0  0  0  0  0  0  0
   58.9663   34.3685   43.9351 H   0  0  0  0  0  0  0  0  0  0  0  0
   55.5705   28.2584   45.8277 H   0  0  0  0  0  0  0  0  0  0  0  0
  1  2  1  0
  2  3  2  0
  2  4  2  0
  2  5  1  0
  5  6  2  0
  6  7  1  0
  7  8  2  0
  8  9  1  0
  9 10  1  0
 10 11  2  3
 11 12  1  0
 12 13  1  0
 13 14  2  0
 14 15  1  0
 15 16  2  0
 15 17  1  0
 17 18  2  3
 18 19  1  0
 19 20  2  0
 20 21  1  0
 21 22  2  0
 22 23  1  0
 14 24  1  0
 24 25  2  0
 25 26  1  0
  9 27  2  0
 27  5  1  0
 25 11  1  0
 23 18  1  0
  1 28  1  0
  1 29  1  0
  6 30  1  0
  7 31  1  0
  8 32  1  0
 13 33  1  0
 19 34  1  0
 20 35  1  0
 21 36  1  0
 22 37  1  0
 24 38  1  0
 27 39  1  0
M  CHG  2  12  -1  23  -1
M  END
>  <UniqueID>  (59) 
57

>  <SMILES>  (59) 
NS(=O)(=O)c1cccc(N=c2[n-]cc(C(=O)N=c3cccc[n-]3)cc2Cl)c1

>  <Energy>  (59) 
68.72943528208901

>  <Genealogy>  (59) 
NS(=O)(=O)c1cccc(N=c2[n-]cc(C(=O)N=c3cccc[n-]3)cc2Cl)c1 (protonated)
NS(=O)(=O)c1cccc(N=c2[n-]cc(C(=O)N=c3cccc[n-]3)cc2Cl)c1 (3D coordinates assigned)
NS(=O)(=O)c1cccc(N=c2[n-]cc(C(=O)N=c3cccc[n-]3)cc2Cl)c1 (optimized conformer: 68.72943528208901 kcal/mol)

>  <smiles>  (59) 
NS(=O)(=O)c1cccc(N=c2[nH]cc(C(=O)N=c3cccc[nH]3)cc2Cl)c1

>  <score_type>  (59) 
oracle

>  <origin>  (59) 
adg

>  <m_score__min__energy>  (59) 
-12.300000000000001

>  <m_primary>  (59) 
energy

$$$$
60:0
     RDKit          3D

 71 75  0  0  0  0  0  0  0  0999 V2000
   63.3850   31.5980   47.5470 C   0  0  0  0  0  0  0  0  0  0  0  0
   63.4960   33.0510   47.7700 N   0  0  0  0  0  0  0  0  0  0  0  0
   62.9900   33.8380   46.6280 C   0  0  0  0  0  0  0  0  0  0  0  0
   61.4570   33.8800   46.5830 C   0  0  0  0  0  0  0  0  0  0  0  0
   60.9260   34.4010   47.8560 N   0  0  0  0  0  0  0  0  0  0  0  0
   59.4540   34.4980   47.8010 C   0  0  0  0  0  0  0  0  0  0  0  0
   58.8930   33.4210   46.9100 C   0  0  0  0  0  0  0  0  0  0  0  0
   58.3490   33.7340   45.6520 C   0  0  0  0  0  0  0  0  0  0  0  0
   57.7990   32.7270   44.8520 C   0  0  0  0  0  0  0  0  0  0  0  0
   57.7710   31.4010   45.3110 C   0  0  0  0  0  0  0  0  0  0  0  0
   57.2030   30.3540   44.5170 N   0  0  0  0  0  0  0  0  0  0  0  0
   56.3870   29.2600   44.9690 C   0  0  0  0  0  0  0  0  0  0  0  0
   55.1430   29.3580   44.8190 O   0  0  0  0  0  0  0  0  0  0  0  0
   56.9520   27.9870   45.4920 C   0  0  0  0  0  0  0  0  0  0  0  0
   58.3440   27.8150   45.5980 C   0  0  0  0  0  0  0  0  0  0  0  0
   58.8560   26.6230   46.1190 C   0  0  0  0  0  0  0  0  0  0  0  0
   60.6240   26.4230   46.3360 S   0  0  0  0  0  0  0  0  0  0  0  0
   60.6750   27.4570   47.7990 C   0  0  0  0  0  0  0  0  0  0  0  0
   60.6970   28.8510   47.6730 C   0  0  0  0  0  0  0  0  0  0  0  0
   60.8040   29.6560   48.8100 C   0  0  0  0  0  0  0  0  0  0  0  0
   60.8800   29.0760   50.0870 C   0  0  0  0  0  0  0  0  0  0  0  0
   61.0740   29.9190   51.2360 N   0  0  0  0  0  0  0  0  0  0  0  0
   62.0760   30.9440   51.3260 C   0  0  0  0  0  0  0  0  0  0  0  0
   63.6170   30.6150   50.8770 S   0  0  0  0  0  0  0  0  0  0  0  0
   61.8140   32.1270   52.0940 N   0  0  0  0  0  0  0  0  0  0  0  0
   60.5080   32.7180   52.2110 C   0  0  0  0  0  0  0  0  0  0  0  0
   59.4620   32.2520   51.3970 C   0  0  0  0  0  0  0  0  0  0  0  0
   58.1790   32.7970   51.5120 C   0  0  0  0  0  0  0  0  0  0  0  0
   57.9280   33.8090   52.4430 C   0  0  0  0  0  0  0  0  0  0  0  0
   58.9570   34.2660   53.2690 C   0  0  0  0  0  0  0  0  0  0  0  0
   60.2390   33.7200   53.1620 C   0  0  0  0  0  0  0  0  0  0  0  0
   60.8550   27.6730   50.2050 C   0  0  0  0  0  0  0  0  0  0  0  0
   60.7520   26.8700   49.0670 C   0  0  0  0  0  0  0  0  0  0  0  0
   57.9840   25.6100   46.5190 C   0  0  0  0  0  0  0  0  0  0  0  0
   56.6090   25.8140   46.4130 C   0  0  0  0  0  0  0  0  0  0  0  0
   56.1330   26.9860   45.9150 N   0  0  0  0  0  0  0  0  0  0  0  0
   58.3620   31.0790   46.5380 C   0  0  0  0  0  0  0  0  0  0  0  0
   58.9120   32.0830   47.3400 C   0  0  0  0  0  0  0  0  0  0  0  0
   61.3510   33.5330   48.9720 C   0  0  0  0  0  0  0  0  0  0  0  0
   62.8850   33.4740   49.0460 C   0  0  0  0  0  0  0  0  0  0  0  0
   63.3454   31.0802   48.5167 H   0  0  0  0  0  0  0  0  0  0  0  0
   62.4678   31.3832   46.9790 H   0  0  0  0  0  0  0  0  0  0  0  0
   64.2589   31.2464   46.9790 H   0  0  0  0  0  0  0  0  0  0  0  0
   63.3697   34.8670   46.7117 H   0  0  0  0  0  0  0  0  0  0  0  0
   63.3405   33.3541   45.7044 H   0  0  0  0  0  0  0  0  0  0  0  0
   61.1351   34.5346   45.7596 H   0  0  0  0  0  0  0  0  0  0  0  0
   61.0738   32.8613   46.4235 H   0  0  0  0  0  0  0  0  0  0  0  0
   59.0443   34.3802   48.8150 H   0  0  0  0  0  0  0  0  0  0  0  0
   59.1748   35.4811   47.3940 H   0  0  0  0  0  0  0  0  0  0  0  0
   58.3559   34.7746   45.2955 H   0  0  0  0  0  0  0  0  0  0  0  0
   57.3880   32.9746   43.8622 H   0  0  0  0  0  0  0  0  0  0  0  0
   59.0262   28.6142   45.2727 H   0  0  0  0  0  0  0  0  0  0  0  0
   60.6299   29.3134   46.6772 H   0  0  0  0  0  0  0  0  0  0  0  0
   60.8289   30.7506   48.7044 H   0  0  0  0  0  0  0  0  0  0  0  0
   60.4260   29.8010   52.0500 H   0  0  0  0  0  0  0  0  0  0  0  0
   62.6050   32.5610   52.6190 H   0  0  0  0  0  0  0  0  0  0  0  0
   59.6532   31.4537   50.6648 H   0  0  0  0  0  0  0  0  0  0  0  0
   57.3662   32.4287   50.8688 H   0  0  0  0  0  0  0  0  0  0  0  0
   56.9213   34.2448   52.5249 H   0  0  0  0  0  0  0  0  0  0  0  0
   58.7579   35.0580   54.0060 H   0  0  0  0  0  0  0  0  0  0  0  0
   61.0420   34.0753   53.8245 H   0  0  0  0  0  0  0  0  0  0  0  0
   60.9170   27.2068   51.1994 H   0  0  0  0  0  0  0  0  0  0  0  0
   60.7314   25.7748   49.1675 H   0  0  0  0  0  0  0  0  0  0  0  0
   58.3769   24.6613   46.9135 H   0  0  0  0  0  0  0  0  0  0  0  0
   55.9097   25.0272   46.7321 H   0  0  0  0  0  0  0  0  0  0  0  0
   58.3938   30.0316   46.8726 H   0  0  0  0  0  0  0  0  0  0  0  0
   59.3610   31.8252   48.3105 H   0  0  0  0  0  0  0  0  0  0  0  0
   60.9572   33.9368   49.9164 H   0  0  0  0  0  0  0  0  0  0  0  0
   60.9610   32.5181   48.8051 H   0  0  0  0  0  0  0  0  0  0  0  0
   63.2645   34.4735   49.3048 H   0  0  0  0  0  0  0  0  0  0  0  0
   63.1548   32.7293   49.8093 H   0  0  0  0  0  0  0  0  0  0  0  0
  1  2  1  0
  2  3  1  0
  3  4  1  0
  4  5  1  0
  5  6  1  0
  6  7  1  0
  7  8  2  0
  8  9  1  0
  9 10  2  0
 10 11  1  0
 11 12  1  0
 12 13  2  0
 12 14  1  0
 14 15  2  0
 15 16  1  0
 16 17  1  0
 17 18  1  0
 18 19  2  0
 19 20  1  0
 20 21  2  0
 21 22  1  0
 22 23  1  0
 23 24  2  0
 23 25  1  0
 25 26  1  0
 26 27  2  0
 27 28  1  0
 28 29  2  0
 29 30  1  0
 30 31  2  0
 21 32  1  0
 32 33  2  0
 16 34  2  0
 34 35  1  0
 35 36  2  0
 10 37  1  0
 37 38  2  0
  5 39  1  0
 39 40  1  0
 40  2  1  0
 38  7  1  0
 36 14  1  0
 33 18  1  0
 31 26  1  0
  1 41  1  0
  1 42  1  0
  1 43  1  0
  3 44  1  0
  3 45  1  0
  4 46  1  0
  4 47  1  0
  6 48  1  0
  6 49  1  0
  8 50  1  0
  9 51  1  0
 15 52  1  0
 19 53  1  0
 20 54  1  0
 22 55  1  0
 25 56  1  0
 27 57  1  0
 28 58  1  0
 29 59  1  0
 30 60  1  0
 31 61  1  0
 32 62  1  0
 33 63  1  0
 34 64  1  0
 35 65  1  0
 37 66  1  0
 38 67  1  0
 39 68  1  0
 39 69  1  0
 40 70  1  0
 40 71  1  0
M  CHG  1  11  -1
M  END
>  <UniqueID>  (60) 
58

>  <SMILES>  (60) 
CN1CCN(Cc2ccc([N-]C(=O)c3cc(Sc4ccc(NC(=S)Nc5ccccc5)cc4)ccn3)cc2)CC1

>  <Energy>  (60) 
92.85097828056736

>  <Genealogy>  (60) 
CN1CCN(Cc2ccc([N-]C(=O)c3cc(Sc4ccc(NC(=S)Nc5ccccc5)cc4)ccn3)cc2)CC1 (protonated)
CN1CCN(Cc2ccc([N-]C(=O)c3cc(Sc4ccc(NC(=S)Nc5ccccc5)cc4)ccn3)cc2)CC1 (3D coordinates assigned)
CN1CCN(Cc2ccc([N-]C(=O)c3cc(Sc4ccc(NC(=S)Nc5ccccc5)cc4)ccn3)cc2)CC1 (nonaromatic ring conformer: 92.85097828056736 kcal/mol)

>  <smiles>  (60) 
CN1CCN(Cc2ccc(NC(=O)c3cc(Sc4ccc(NC(=S)Nc5ccccc5)cc4)ccn3)cc2)CC1

>  <score_type>  (60) 
oracle

>  <origin>  (60) 
adg

>  <m_score__min__energy>  (60) 
-11.99

>  <m_primary>  (60) 
energy

$$$$
61:0
     RDKit          3D

 28 29  0  0  0  0  0  0  0  0999 V2000
   56.5220   31.5070   44.7900 O   0  0  0  0  0  0  0  0  0  0  0  0
   57.7750   31.6020   44.9060 C   0  0  0  0  0  0  0  0  0  0  0  0
   58.6090   30.6300   44.3380 O   0  0  0  0  0  0  0  0  0  0  0  0
   58.2070   29.2780   44.1270 C   0  0  0  0  0  0  0  0  0  0  0  0
   58.4320   28.4490   45.3630 C   0  0  0  0  0  0  0  0  0  0  0  0
   59.4040   28.7410   46.1130 O   0  0  0  0  0  0  0  0  0  0  0  0
   57.5510   27.3060   45.7240 C   0  0  0  0  0  0  0  0  0  0  0  0
   56.1470   27.3870   45.6260 C   0  0  0  0  0  0  0  0  0  0  0  0
   55.5240   28.5320   45.1450 O   0  0  0  0  0  0  0  0  0  0  0  0
   55.3790   26.3250   45.9820 N   0  0  0  0  0  0  0  0  0  0  0  0
   55.9350   25.1720   46.4280 C   0  0  0  0  0  0  0  0  0  0  0  0
   55.2010   24.2040   46.7530 O   0  0  0  0  0  0  0  0  0  0  0  0
   57.2830   25.0610   46.5220 N   0  0  0  0  0  0  0  0  0  0  0  0
   58.0990   26.0910   46.1830 C   0  0  0  0  0  0  0  0  0  0  0  0
   59.3460   25.9490   46.2990 O   0  0  0  0  0  0  0  0  0  0  0  0
   58.3700   32.7440   45.6330 C   0  0  0  0  0  0  0  0  0  0  0  0
   58.4520   32.7380   47.0380 C   0  0  0  0  0  0  0  0  0  0  0  0
   59.0090   33.8250   47.7190 C   0  0  0  0  0  0  0  0  0  0  0  0
   59.4880   34.9270   47.0060 C   0  0  0  0  0  0  0  0  0  0  0  0
   59.4100   34.9450   45.6120 C   0  0  0  0  0  0  0  0  0  0  0  0
   58.8550   33.8600   44.9260 C   0  0  0  0  0  0  0  0  0  0  0  0
   57.1378   29.2567   43.8693 H   0  0  0  0  0  0  0  0  0  0  0  0
   58.8092   28.8571   43.3084 H   0  0  0  0  0  0  0  0  0  0  0  0
   58.0757   31.8730   47.6039 H   0  0  0  0  0  0  0  0  0  0  0  0
   59.0701   33.8124   48.8172 H   0  0  0  0  0  0  0  0  0  0  0  0
   59.9268   35.7808   47.5431 H   0  0  0  0  0  0  0  0  0  0  0  0
   59.7858   35.8142   45.0523 H   0  0  0  0  0  0  0  0  0  0  0  0
   58.7972   33.8790   43.8277 H   0  0  0  0  0  0  0  0  0  0  0  0
  1  2  2  0
  2  3  1  0
  3  4  1  0
  4  5  1  0
  5  6  2  0
  5  7  1  0
  7  8  2  0
  8  9  1  0
  8 10  1  0
 10 11  1  0
 11 12  2  0
 11 13  1  0
 13 14  1  0
 14 15  2  0
  2 16  1  0
 16 17  2  0
 17 18  1  0
 18 19  2  0
 19 20  1  0
 20 21  2  0
 14  7  1  0
 21 16  1  0
  4 22  1  0
  4 23  1  0
 17 24  1  0
 18 25  1  0
 19 26  1  0
 20 27  1  0
 21 28  1  0
M  CHG  3   9  -1  10  -1  13  -1
M  END
>  <UniqueID>  (61) 
59

>  <SMILES>  (61) 
O=C(OCC(=O)c1c([O-])[n-]c(=O)[n-]c1=O)c1ccccc1

>  <Energy>  (61) 
34.165408504568

>  <Genealogy>  (61) 
O=C(OCC(=O)c1c([O-])[n-]c(=O)[n-]c1=O)c1ccccc1 (protonated)
O=C(OCC(=O)c1c([O-])[n-]c(=O)[n-]c1=O)c1ccccc1 (3D coordinates assigned)
O=C(OCC(=O)c1c([O-])[n-]c(=O)[n-]c1=O)c1ccccc1 (optimized conformer: 34.165408504568 kcal/mol)

>  <smiles>  (61) 
O=C(OCC(=O)c1c(O)[nH]c(=O)[nH]c1=O)c1ccccc1

>  <score_type>  (61) 
oracle

>  <origin>  (61) 
adg

>  <m_score__min__energy>  (61) 
-15.109999999999999

>  <m_primary>  (61) 
energy

$$$$
62:0
     RDKit          3D

 38 40  0  0  0  0  0  0  0  0999 V2000
   54.4060   27.0820   46.6010 H   0  0  0  0  0  0  0  0  0  0  0  0
   55.1470   26.6790   45.9850 N   0  0  0  0  0  0  0  0  0  0  0  0
   56.3430   26.4450   46.4250 C   0  0  0  0  0  0  0  0  0  0  0  0
   56.5850   25.3200   47.1530 N   0  0  0  0  0  0  0  0  0  0  0  0
   57.8180   25.0370   47.6480 C   0  0  0  0  0  0  0  0  0  0  0  0
   57.9768   24.1217   48.2371 H   0  0  0  0  0  0  0  0  0  0  0  0
   58.8830   25.9060   47.4100 C   0  0  0  0  0  0  0  0  0  0  0  0
   59.8795   25.6848   47.8200 H   0  0  0  0  0  0  0  0  0  0  0  0
   58.6770   27.0590   46.6480 C   0  0  0  0  0  0  0  0  0  0  0  0
   59.7620   27.9130   46.4150 O   0  0  0  0  0  0  0  0  0  0  0  0
   59.9470   29.1550   47.0430 C   0  0  0  0  0  0  0  0  0  0  0  0
   60.6680   30.1450   46.3700 C   0  0  0  0  0  0  0  0  0  0  0  0
   61.0786   29.9364   45.3711 H   0  0  0  0  0  0  0  0  0  0  0  0
   60.8720   31.3980   46.9550 C   0  0  0  0  0  0  0  0  0  0  0  0
   61.4510   32.1640   46.4183 H   0  0  0  0  0  0  0  0  0  0  0  0
   60.3410   31.6860   48.2270 C   0  0  0  0  0  0  0  0  0  0  0  0
   60.5270   32.9670   48.8590 N   0  0  0  0  0  0  0  0  0  0  0  0
   61.3100   33.0750   49.5440 H   0  0  0  0  0  0  0  0  0  0  0  0
   59.6560   34.1260   48.6560 C   0  0  0  0  0  0  0  0  0  0  0  0
   58.8826   34.1377   49.4381 H   0  0  0  0  0  0  0  0  0  0  0  0
   60.2660   35.0399   48.7083 H   0  0  0  0  0  0  0  0  0  0  0  0
   58.9920   34.0640   47.3050 C   0  0  0  0  0  0  0  0  0  0  0  0
   59.6130   34.6450   46.1870 C   0  0  0  0  0  0  0  0  0  0  0  0
   60.5835   35.1501   46.3005 H   0  0  0  0  0  0  0  0  0  0  0  0
   59.0030   34.5840   44.9310 C   0  0  0  0  0  0  0  0  0  0  0  0
   59.4910   35.0468   44.0606 H   0  0  0  0  0  0  0  0  0  0  0  0
   57.7740   33.9360   44.7790 C   0  0  0  0  0  0  0  0  0  0  0  0
   57.2944   33.8905   43.7901 H   0  0  0  0  0  0  0  0  0  0  0  0
   57.1550   33.3460   45.8840 C   0  0  0  0  0  0  0  0  0  0  0  0
   56.1883   32.8350   45.7639 H   0  0  0  0  0  0  0  0  0  0  0  0
   57.7620   33.4040   47.1420 C   0  0  0  0  0  0  0  0  0  0  0  0
   57.2750   32.9312   48.0076 H   0  0  0  0  0  0  0  0  0  0  0  0
   59.6110   30.6920   48.8980 C   0  0  0  0  0  0  0  0  0  0  0  0
   59.1942   30.9007   49.8944 H   0  0  0  0  0  0  0  0  0  0  0  0
   59.4090   29.4390   48.3110 C   0  0  0  0  0  0  0  0  0  0  0  0
   58.8269   28.6723   48.8432 H   0  0  0  0  0  0  0  0  0  0  0  0
   57.3870   27.3480   46.1610 C   0  0  0  0  0  0  0  0  0  0  0  0
   57.0650   28.8500   45.2940 Cl  0  0  0  0  0  0  0  0  0  0  0  0
  1  2  1  0
  2  3  2  0
  3  4  1  0
  4  5  1  0
  5  6  1  0
  5  7  2  0
  7  8  1  0
  7  9  1  0
  9 10  1  0
 10 11  1  0
 11 12  2  0
 12 13  1  0
 12 14  1  0
 14 15  1  0
 14 16  2  0
 16 17  1  0
 17 18  1  0
 17 19  1  0
 19 20  1  0
 19 21  1  0
 19 22  1  0
 22 23  2  0
 23 24  1  0
 23 25  1  0
 25 26  1  0
 25 27  2  0
 27 28  1  0
 27 29  1  0
 29 30  1  0
 29 31  2  0
 31 32  1  0
 16 33  1  0
 33 34  1  0
 33 35  2  0
 35 36  1  0
  9 37  2  0
 37 38  1  0
 37  3  1  0
 35 11  1  0
 31 22  1  0
M  CHG  1   4  -1
M  END
>  <UniqueID>  (62) 
60

>  <SMILES>  (62) 
[H]/N=c1\[n-]ccc(Oc2ccc(NCc3ccccc3)cc2)c1Cl

>  <Energy>  (62) 
50.08083429341678

>  <Genealogy>  (62) 
N=c1[n-]ccc(Oc2ccc(NCc3ccccc3)cc2)c1Cl (protonated)
[H]/N=c1\[n-]ccc(Oc2ccc(NCc3ccccc3)cc2)c1Cl (cis-trans isomerization)
[H]/N=c1\[n-]ccc(Oc2ccc(NCc3ccccc3)cc2)c1Cl (3D coordinates assigned)
[H]/N=c1\[n-]ccc(Oc2ccc(NCc3ccccc3)cc2)c1Cl (optimized conformer: 50.08083429341678 kcal/mol)

>  <smiles>  (62) 
N=c1[nH]ccc(Oc2ccc(NCc3ccccc3)cc2)c1Cl

>  <score_type>  (62) 
oracle

>  <origin>  (62) 
adg

>  <m_score__min__energy>  (62) 
-9.7100000000000009

>  <m_primary>  (62) 
energy

$$$$
63:0
     RDKit          3D

 50 52  0  0  0  0  0  0  0  0999 V2000
   61.1570   30.4330   46.7530 C   0  0  0  0  0  0  0  0  0  0  0  0
   61.0110   30.3820   48.0750 C   0  0  0  0  0  0  0  0  0  0  0  0
   59.8470   29.7340   48.7180 C   0  0  0  0  0  0  0  0  0  0  0  0
   58.9940   30.4320   49.3280 O   0  0  0  0  0  0  0  0  0  0  0  0
   59.6260   28.3220   48.6040 N   0  0  0  0  0  0  0  0  0  0  0  0
   58.9620   27.6590   47.5210 C   0  0  0  0  0  0  0  0  0  0  0  0
   58.7870   26.2650   47.5100 C   0  0  0  0  0  0  0  0  0  0  0  0
   58.1040   25.6500   46.4580 C   0  0  0  0  0  0  0  0  0  0  0  0
   57.5950   26.4190   45.4100 C   0  0  0  0  0  0  0  0  0  0  0  0
   57.7710   27.8070   45.4010 C   0  0  0  0  0  0  0  0  0  0  0  0
   57.2440   28.5730   44.3100 N   0  0  0  0  0  0  0  0  0  0  0  0
   56.2840   29.6360   44.4070 C   0  0  0  0  0  0  0  0  0  0  0  0
   55.1430   29.3780   44.8730 O   0  0  0  0  0  0  0  0  0  0  0  0
   56.5590   31.0120   43.8530 C   0  0  2  0  0  0  0  0  0  0  0  0
   57.9860   31.0890   43.3060 C   0  0  0  0  0  0  0  0  0  0  0  0
   56.3790   31.9670   44.8990 O   0  0  0  0  0  0  0  0  0  0  0  0
   57.4090   32.6810   45.5380 C   0  0  0  0  0  0  0  0  0  0  0  0
   57.9020   33.9100   45.0560 C   0  0  0  0  0  0  0  0  0  0  0  0
   58.9080   34.5860   45.7530 C   0  0  0  0  0  0  0  0  0  0  0  0
   59.4230   34.0590   46.9500 C   0  0  0  0  0  0  0  0  0  0  0  0
   60.4270   34.7150   47.6780 O   0  0  0  0  0  0  0  0  0  0  0  0
   61.6610   34.1520   48.0460 C   0  0  0  0  0  0  0  0  0  0  0  0
   62.0330   34.1700   49.3960 C   0  0  0  0  0  0  0  0  0  0  0  0
   63.2610   33.6340   49.7970 C   0  0  0  0  0  0  0  0  0  0  0  0
   64.1340   33.0870   48.8480 C   0  0  0  0  0  0  0  0  0  0  0  0
   63.7820   33.0810   47.4960 C   0  0  0  0  0  0  0  0  0  0  0  0
   62.5520   33.6150   47.0920 C   0  0  0  0  0  0  0  0  0  0  0  0
   58.9560   32.8240   47.4100 C   0  0  0  0  0  0  0  0  0  0  0  0
   57.9560   32.1400   46.7100 C   0  0  0  0  0  0  0  0  0  0  0  0
   58.4180   28.4270   46.4840 C   0  0  0  0  0  0  0  0  0  0  0  0
   62.0383   30.9248   46.3156 H   0  0  0  0  0  0  0  0  0  0  0  0
   60.3963   29.9833   46.0979 H   0  0  0  0  0  0  0  0  0  0  0  0
   61.7833   30.8379   48.7120 H   0  0  0  0  0  0  0  0  0  0  0  0
   59.1893   25.6557   48.3327 H   0  0  0  0  0  0  0  0  0  0  0  0
   57.9671   24.5586   46.4554 H   0  0  0  0  0  0  0  0  0  0  0  0
   57.0526   25.9311   44.5868 H   0  0  0  0  0  0  0  0  0  0  0  0
   55.8647   31.2266   43.0273 H   0  0  0  0  0  0  0  0  0  0  0  0
   58.6981   31.1274   44.1435 H   0  0  0  0  0  0  0  0  0  0  0  0
   58.1912   30.2006   42.6906 H   0  0  0  0  0  0  0  0  0  0  0  0
   58.0945   31.9943   42.6906 H   0  0  0  0  0  0  0  0  0  0  0  0
   57.4942   34.3387   44.1287 H   0  0  0  0  0  0  0  0  0  0  0  0
   59.2992   35.5368   45.3619 H   0  0  0  0  0  0  0  0  0  0  0  0
   61.3562   34.6078   50.1445 H   0  0  0  0  0  0  0  0  0  0  0  0
   63.5420   33.6420   50.8605 H   0  0  0  0  0  0  0  0  0  0  0  0
   65.0970   32.6620   49.1673 H   0  0  0  0  0  0  0  0  0  0  0  0
   64.4702   32.6573   46.7497 H   0  0  0  0  0  0  0  0  0  0  0  0
   62.2790   33.6160   46.0264 H   0  0  0  0  0  0  0  0  0  0  0  0
   59.3772   32.3875   48.3276 H   0  0  0  0  0  0  0  0  0  0  0  0
   57.5960   31.1696   47.0824 H   0  0  0  0  0  0  0  0  0  0  0  0
   58.4976   29.5236   46.5172 H   0  0  0  0  0  0  0  0  0  0  0  0
  1  2  2  0
  2  3  1  0
  3  4  2  0
  3  5  1  0
  5  6  1  0
  6  7  2  0
  7  8  1  0
  8  9  2  0
  9 10  1  0
 10 11  1  0
 11 12  1  0
 12 13  2  0
 12 14  1  0
 14 15  1  0
 14 16  1  0
 16 17  1  0
 17 18  2  0
 18 19  1  0
 19 20  2  0
 20 21  1  0
 21 22  1  0
 22 23  2  0
 23 24  1  0
 24 25  2  0
 25 26  1  0
 26 27  2  0
 20 28  1  0
 28 29  2  0
 10 30  2  0
 30  6  1  0
 29 17  1  0
 27 22  1  0
  1 31  1  0
  1 32  1  0
  2 33  1  0
  7 34  1  0
  8 35  1  0
  9 36  1  0
 14 37  1  6
 15 38  1  0
 15 39  1  0
 15 40  1  0
 18 41  1  0
 19 42  1  0
 23 43  1  0
 24 44  1  0
 25 45  1  0
 26 46  1  0
 27 47  1  0
 28 48  1  0
 29 49  1  0
 30 50  1  0
M  CHG  2   5  -1  11  -1
M  END
>  <UniqueID>  (63) 
61

>  <SMILES>  (63) 
C=CC(=O)[N-]c1cccc([N-]C(=O)[C@H](C)Oc2ccc(Oc3ccccc3)cc2)c1

>  <Energy>  (63) 
65.87000233155456

>  <Genealogy>  (63) 
C=CC(=O)[N-]c1cccc([N-]C(=O)C(C)Oc2ccc(Oc3ccccc3)cc2)c1 (protonated)
C=CC(=O)[N-]c1cccc([N-]C(=O)[C@H](C)Oc2ccc(Oc3ccccc3)cc2)c1 (chirality)
C=CC(=O)[N-]c1cccc([N-]C(=O)[C@H](C)Oc2ccc(Oc3ccccc3)cc2)c1 (3D coordinates assigned)
C=CC(=O)[N-]c1cccc([N-]C(=O)[C@H](C)Oc2ccc(Oc3ccccc3)cc2)c1 (optimized conformer: 65.87000233155456 kcal/mol)

>  <smiles>  (63) 
C=CC(=O)Nc1cccc(NC(=O)C(C)Oc2ccc(Oc3ccccc3)cc2)c1

>  <score_type>  (63) 
oracle

>  <origin>  (63) 
adg

>  <m_score__min__energy>  (63) 
-12.76

>  <m_primary>  (63) 
energy

$$$$
64:0
     RDKit          3D

 55 58  0  0  0  0  0  0  0  0999 V2000
   58.5290   34.7900   46.7980 O   0  0  0  0  0  0  0  0  0  0  0  0
   58.2030   33.7420   46.1810 C   0  0  0  0  0  0  0  0  0  0  0  0
   58.0150   33.7860   44.6880 C   0  0  0  0  0  0  0  0  0  0  0  0
   57.2290   32.6810   44.2380 O   0  0  0  0  0  0  0  0  0  0  0  0
   57.5620   31.3220   44.3780 C   0  0  0  0  0  0  0  0  0  0  0  0
   58.8870   30.8770   44.5530 C   0  0  0  0  0  0  0  0  0  0  0  0
   59.1610   29.5130   44.6870 C   0  0  0  0  0  0  0  0  0  0  0  0
   58.1270   28.5650   44.6370 C   0  0  0  0  0  0  0  0  0  0  0  0
   58.4680   27.1300   44.7940 C   0  0  0  0  0  0  0  0  0  0  0  0
   57.6310   26.1300   44.4820 C   0  0  0  0  0  0  0  0  0  0  0  0
   57.1080   25.1900   45.4960 C   0  0  0  0  0  0  0  0  0  0  0  0
   57.8740   23.7780   46.0260 S   0  0  0  0  0  0  0  0  0  0  0  0
   56.6420   23.3960   47.0980 C   0  0  0  0  0  0  0  0  0  0  0  0
   56.6320   22.3780   47.8370 O   0  0  0  0  0  0  0  0  0  0  0  0
   55.6470   24.3050   47.0850 N   0  0  0  0  0  0  0  0  0  0  0  0
   55.8990   25.3050   46.1980 C   0  0  0  0  0  0  0  0  0  0  0  0
   54.9890   26.3470   46.0300 O   0  0  0  0  0  0  0  0  0  0  0  0
   56.8020   29.0140   44.4750 C   0  0  0  0  0  0  0  0  0  0  0  0
   56.5280   30.3790   44.3400 C   0  0  0  0  0  0  0  0  0  0  0  0
   55.2440   30.7900   44.1830 F   0  0  0  0  0  0  0  0  0  0  0  0
   58.0650   32.5230   46.9250 N   0  0  0  0  0  0  0  0  0  0  0  0
   59.1060   31.8340   47.6310 C   0  0  0  0  0  0  0  0  0  0  0  0
   58.8420   30.6810   48.3880 C   0  0  0  0  0  0  0  0  0  0  0  0
   59.8730   30.0470   49.0840 C   0  0  0  0  0  0  0  0  0  0  0  0
   61.1690   30.5690   49.0490 C   0  0  0  0  0  0  0  0  0  0  0  0
   61.4400   31.7450   48.3310 C   0  0  0  0  0  0  0  0  0  0  0  0
   62.8110   32.3020   48.2800 C   0  0  0  0  0  0  0  0  0  0  0  0
   63.3450   32.5070   47.1550 O   0  0  0  0  0  0  0  0  0  0  0  0
   63.5460   32.6210   49.4780 N   0  0  0  0  0  0  0  0  0  0  0  0
   62.8710   33.1340   50.6750 C   0  0  0  0  0  0  0  0  0  0  0  0
   63.7410   34.2140   51.3260 C   0  0  0  0  0  0  0  0  0  0  0  0
   65.0540   33.7340   51.5500 O   0  0  0  0  0  0  0  0  0  0  0  0
   65.6860   33.4700   50.3110 C   0  0  0  0  0  0  0  0  0  0  0  0
   64.9780   32.3300   49.5720 C   0  0  0  0  0  0  0  0  0  0  0  0
   60.4000   32.3700   47.6220 C   0  0  0  0  0  0  0  0  0  0  0  0
   57.5066   34.7231   44.4169 H   0  0  0  0  0  0  0  0  0  0  0  0
   59.0035   33.7311   44.2086 H   0  0  0  0  0  0  0  0  0  0  0  0
   59.7098   31.6064   44.5843 H   0  0  0  0  0  0  0  0  0  0  0  0
   60.1987   29.1786   44.8333 H   0  0  0  0  0  0  0  0  0  0  0  0
   59.4621   26.8720   45.1880 H   0  0  0  0  0  0  0  0  0  0  0  0
   57.3224   26.0046   43.4337 H   0  0  0  0  0  0  0  0  0  0  0  0
   54.4230   26.7070   46.7870 H   0  0  0  0  0  0  0  0  0  0  0  0
   55.9772   28.2865   44.4545 H   0  0  0  0  0  0  0  0  0  0  0  0
   57.8201   30.2763   48.4327 H   0  0  0  0  0  0  0  0  0  0  0  0
   59.6647   29.1342   49.6614 H   0  0  0  0  0  0  0  0  0  0  0  0
   61.9804   30.0563   49.5863 H   0  0  0  0  0  0  0  0  0  0  0  0
   61.8999   33.5662   50.3919 H   0  0  0  0  0  0  0  0  0  0  0  0
   62.7113   32.3116   51.3878 H   0  0  0  0  0  0  0  0  0  0  0  0
   63.7855   35.0900   50.6621 H   0  0  0  0  0  0  0  0  0  0  0  0
   63.2962   34.4894   52.2937 H   0  0  0  0  0  0  0  0  0  0  0  0
   65.6547   34.3771   49.6895 H   0  0  0  0  0  0  0  0  0  0  0  0
   66.7278   33.1732   50.5024 H   0  0  0  0  0  0  0  0  0  0  0  0
   65.3990   32.2322   48.5605 H   0  0  0  0  0  0  0  0  0  0  0  0
   65.1245   31.3899   50.1240 H   0  0  0  0  0  0  0  0  0  0  0  0
   60.6043   33.2897   47.0541 H   0  0  0  0  0  0  0  0  0  0  0  0
  1  2  2  0
  2  3  1  0
  3  4  1  0
  4  5  1  0
  5  6  2  0
  6  7  1  0
  7  8  2  0
  8  9  1  0
  9 10  2  3
 10 11  1  0
 11 12  1  0
 12 13  1  0
 13 14  2  0
 13 15  1  0
 15 16  1  0
 16 17  1  0
  8 18  1  0
 18 19  2  0
 19 20  1  0
  2 21  1  0
 21 22  1  0
 22 23  2  0
 23 24  1  0
 24 25  2  0
 25 26  1  0
 26 27  1  0
 27 28  2  0
 27 29  1  0
 29 30  1  0
 30 31  1  0
 31 32  1  0
 32 33  1  0
 33 34  1  0
 26 35  2  0
 19  5  1  0
 35 22  1  0
 16 11  2  0
 34 29  1  0
  3 36  1  0
  3 37  1  0
  6 38  1  0
  7 39  1  0
  9 40  1  0
 10 41  1  0
 17 42  1  0
 18 43  1  0
 23 44  1  0
 24 45  1  0
 25 46  1  0
 30 47  1  0
 30 48  1  0
 31 49  1  0
 31 50  1  0
 33 51  1  0
 33 52  1  0
 34 53  1  0
 34 54  1  0
 35 55  1  0
M  CHG  2  15  -1  21  -1
M  END
>  <UniqueID>  (64) 
62

>  <SMILES>  (64) 
O=C(COc1ccc(C=Cc2sc(=O)[n-]c2O)cc1F)[N-]c1cccc(C(=O)N2CCOCC2)c1

>  <Energy>  (64) 
104.78504279731392

>  <Genealogy>  (64) 
O=C(COc1ccc(C=Cc2sc(=O)[n-]c2O)cc1F)[N-]c1cccc(C(=O)N2CCOCC2)c1 (protonated)
O=C(COc1ccc(C=Cc2sc(=O)[n-]c2O)cc1F)[N-]c1cccc(C(=O)N2CCOCC2)c1 (3D coordinates assigned)
O=C(COc1ccc(C=Cc2sc(=O)[n-]c2O)cc1F)[N-]c1cccc(C(=O)N2CCOCC2)c1 (nonaromatic ring conformer: 104.78504279731392 kcal/mol)

>  <smiles>  (64) 
O=C(COc1ccc(C=Cc2sc(=O)[nH]c2O)cc1F)Nc1cccc(C(=O)N2CCOCC2)c1

>  <score_type>  (64) 
oracle

>  <origin>  (64) 
adg

>  <m_score__min__energy>  (64) 
-13.199999999999999

>  <m_primary>  (64) 
energy

$$$$
65:0
     RDKit          3D

 48 50  0  0  0  0  0  0  0  0999 V2000
   64.3917   33.5638   47.4025 H   0  0  0  0  0  0  0  0  0  0  0  0
   63.3960   33.1390   47.5980 C   0  0  0  0  0  0  0  0  0  0  0  0
   63.0990   31.8370   47.1880 C   0  0  0  0  0  0  0  0  0  0  0  0
   63.8602   31.2387   46.6659 H   0  0  0  0  0  0  0  0  0  0  0  0
   61.8360   31.2930   47.4400 C   0  0  0  0  0  0  0  0  0  0  0  0
   61.6040   30.2698   47.1096 H   0  0  0  0  0  0  0  0  0  0  0  0
   60.8620   32.0490   48.1140 C   0  0  0  0  0  0  0  0  0  0  0  0
   59.4900   31.4780   48.3550 C   0  0  0  0  0  0  0  0  0  0  0  0
   59.0552   31.1643   47.3945 H   0  0  0  0  0  0  0  0  0  0  0  0
   58.8618   32.2502   48.8231 H   0  0  0  0  0  0  0  0  0  0  0  0
   59.5660   30.2700   49.2910 C   0  0  0  0  0  0  0  0  0  0  0  0
   58.6733   30.2534   49.9335 H   0  0  0  0  0  0  0  0  0  0  0  0
   60.4746   30.3532   49.9054 H   0  0  0  0  0  0  0  0  0  0  0  0
   59.6300   28.9910   48.4990 C   0  0  0  0  0  0  0  0  0  0  0  0
   60.6090   28.0320   48.7820 C   0  0  0  0  0  0  0  0  0  0  0  0
   61.3298   28.1994   49.5959 H   0  0  0  0  0  0  0  0  0  0  0  0
   60.6640   26.8620   48.0240 C   0  0  0  0  0  0  0  0  0  0  0  0
   61.4203   26.0970   48.2539 H   0  0  0  0  0  0  0  0  0  0  0  0
   59.7880   26.6610   47.0020 N   0  0  0  0  0  0  0  0  0  0  0  0
   59.8410   25.7430   46.5110 H   0  0  0  0  0  0  0  0  0  0  0  0
   58.8440   27.5990   46.6710 C   0  0  0  0  0  0  0  0  0  0  0  0
   58.0020   27.4270   45.6910 N   0  0  0  0  0  0  0  0  0  0  0  0
   57.1610   28.4040   45.0640 C   0  0  0  0  0  0  0  0  0  0  0  0
   55.9170   28.3470   45.2500 O   0  0  0  0  0  0  0  0  0  0  0  0
   57.7250   29.4960   44.3300 N   0  0  0  0  0  0  0  0  0  0  0  0
   56.8330   30.9330   43.9640 S   0  0  0  0  0  0  0  0  0  0  0  0
   55.4270   30.7960   44.4770 O   0  0  0  0  0  0  0  0  0  0  0  0
   56.7810   31.1170   42.4740 O   0  0  0  0  0  0  0  0  0  0  0  0
   57.6280   32.3240   44.6930 C   0  0  0  0  0  0  0  0  0  0  0  0
   57.4450   32.6190   46.0510 C   0  0  0  0  0  0  0  0  0  0  0  0
   56.7869   31.9868   46.6652 H   0  0  0  0  0  0  0  0  0  0  0  0
   58.0960   33.7140   46.6280 C   0  0  0  0  0  0  0  0  0  0  0  0
   57.9545   33.9354   47.6961 H   0  0  0  0  0  0  0  0  0  0  0  0
   58.9300   34.5320   45.8480 C   0  0  0  0  0  0  0  0  0  0  0  0
   59.6640   35.6790   46.4750 C   0  0  0  0  0  0  0  0  0  0  0  0
   59.6097   35.5942   47.5704 H   0  0  0  0  0  0  0  0  0  0  0  0
   60.7169   35.6581   46.1573 H   0  0  0  0  0  0  0  0  0  0  0  0
   59.2039   36.6263   46.1573 H   0  0  0  0  0  0  0  0  0  0  0  0
   59.1270   34.2210   44.4940 C   0  0  0  0  0  0  0  0  0  0  0  0
   59.7973   34.8423   43.8819 H   0  0  0  0  0  0  0  0  0  0  0  0
   58.4760   33.1260   43.9190 C   0  0  0  0  0  0  0  0  0  0  0  0
   58.6302   32.8933   42.8550 H   0  0  0  0  0  0  0  0  0  0  0  0
   58.7470   28.7710   47.4330 C   0  0  0  0  0  0  0  0  0  0  0  0
   57.9769   29.5193   47.1942 H   0  0  0  0  0  0  0  0  0  0  0  0
   61.1640   33.3620   48.5110 C   0  0  0  0  0  0  0  0  0  0  0  0
   60.4026   33.9677   49.0242 H   0  0  0  0  0  0  0  0  0  0  0  0
   62.4270   33.9020   48.2570 C   0  0  0  0  0  0  0  0  0  0  0  0
   62.6596   34.9288   48.5758 H   0  0  0  0  0  0  0  0  0  0  0  0
  1  2  1  0
  2  3  2  0
  3  4  1  0
  3  5  1  0
  5  6  1  0
  5  7  2  0
  7  8  1  0
  8  9  1  0
  8 10  1  0
  8 11  1  0
 11 12  1  0
 11 13  1  0
 11 14  1  0
 14 15  1  0
 15 16  1  0
 15 17  2  0
 17 18  1  0
 17 19  1  0
 19 20  1  0
 19 21  1  0
 21 22  2  0
 22 23  1  0
 23 24  2  0
 23 25  1  0
 25 26  1  0
 26 27  2  0
 26 28  2  0
 26 29  1  0
 29 30  2  0
 30 31  1  0
 30 32  1  0
 32 33  1  0
 32 34  2  0
 34 35  1  0
 35 36  1  0
 35 37  1  0
 35 38  1  0
 34 39  1  0
 39 40  1  0
 39 41  2  0
 41 42  1  0
 21 43  1  0
 43 44  1  0
  7 45  1  0
 45 46  1  0
 45 47  2  0
 47 48  1  0
 47  2  1  0
 43 14  2  0
 41 29  1  0
M  CHG  1  25  -1
M  END
>  <UniqueID>  (65) 
63

>  <SMILES>  (65) 
Cc1ccc(S(=O)(=O)[N-]C(=O)/N=c2/cc(CCc3ccccc3)cc[nH]2)cc1

>  <Energy>  (65) 
55.75220769700176

>  <Genealogy>  (65) 
Cc1ccc(S(=O)(=O)[N-]C(=O)N=c2cc(CCc3ccccc3)cc[nH]2)cc1 (protonated)
Cc1ccc(S(=O)(=O)[N-]C(=O)/N=c2/cc(CCc3ccccc3)cc[nH]2)cc1 (cis-trans isomerization)
Cc1ccc(S(=O)(=O)[N-]C(=O)/N=c2/cc(CCc3ccccc3)cc[nH]2)cc1 (3D coordinates assigned)
Cc1ccc(S(=O)(=O)[N-]C(=O)/N=c2/cc(CCc3ccccc3)cc[nH]2)cc1 (optimized conformer: 55.75220769700176 kcal/mol)

>  <smiles>  (65) 
Cc1ccc(S(=O)(=O)NC(=O)N=c2cc(CCc3ccccc3)cc[nH]2)cc1

>  <score_type>  (65) 
oracle

>  <origin>  (65) 
adg

>  <m_score__min__energy>  (65) 
-10.390000000000001

>  <m_primary>  (65) 
energy

$$$$
66:0
     RDKit          3D

 55 58  0  0  0  0  0  0  0  0999 V2000
   56.6500   27.3060   45.6240 C   0  0  0  0  0  0  0  0  0  0  0  0
   57.9860   28.0010   45.6200 C   0  0  0  0  0  0  0  0  0  0  0  0
   59.0190   27.4720   46.4140 C   0  0  0  0  0  0  0  0  0  0  0  0
   60.2830   28.0630   46.4240 C   0  0  0  0  0  0  0  0  0  0  0  0
   60.5340   29.1850   45.6380 C   0  0  0  0  0  0  0  0  0  0  0  0
   59.5170   29.7330   44.8560 C   0  0  0  0  0  0  0  0  0  0  0  0
   58.2260   29.1760   44.8590 C   0  0  0  0  0  0  0  0  0  0  0  0
   56.9630   29.9430   43.8690 S   0  0  0  0  0  0  0  0  0  0  0  0
   55.7140   30.1520   44.6780 O   0  0  0  0  0  0  0  0  0  0  0  0
   56.6500   29.0500   42.7010 O   0  0  0  0  0  0  0  0  0  0  0  0
   57.4630   31.5460   43.2570 C   0  0  0  0  0  0  0  0  0  0  0  0
   57.7120   32.4830   44.3950 C   0  0  0  0  0  0  0  0  0  0  0  0
   56.7570   32.9670   45.2660 C   0  0  0  0  0  0  0  0  0  0  0  0
   57.4420   33.7470   46.1730 C   0  0  0  0  0  0  0  0  0  0  0  0
   58.7750   33.6910   45.7970 C   0  0  0  0  0  0  0  0  0  0  0  0
   59.9400   34.3410   46.4470 C   0  0  0  0  0  0  0  0  0  0  0  0
   60.0420   35.5940   46.3400 O   0  0  0  0  0  0  0  0  0  0  0  0
   60.9450   33.6160   47.2030 N   0  0  0  0  0  0  0  0  0  0  0  0
   60.8530   33.8890   48.6650 C   0  0  0  0  0  0  0  0  0  0  0  0
   62.2190   34.0250   49.3660 C   0  0  0  0  0  0  0  0  0  0  0  0
   63.2010   33.0850   48.8080 N   0  0  0  0  0  0  0  0  0  0  0  0
   64.2060   32.4930   49.6580 C   0  0  0  0  0  0  0  0  0  0  0  0
   63.9000   31.3740   50.4570 C   0  0  0  0  0  0  0  0  0  0  0  0
   64.8750   30.8060   51.2830 C   0  0  0  0  0  0  0  0  0  0  0  0
   66.1620   31.3470   51.3230 C   0  0  0  0  0  0  0  0  0  0  0  0
   66.4760   32.4590   50.5380 C   0  0  0  0  0  0  0  0  0  0  0  0
   65.5050   33.0310   49.7090 C   0  0  0  0  0  0  0  0  0  0  0  0
   63.3110   32.9330   47.3500 C   0  0  0  0  0  0  0  0  0  0  0  0
   62.2900   33.8170   46.6260 C   0  0  0  0  0  0  0  0  0  0  0  0
   58.8980   32.9280   44.7340 O   0  0  0  0  0  0  0  0  0  0  0  0
   56.3272   27.1381   46.6621 H   0  0  0  0  0  0  0  0  0  0  0  0
   55.9090   27.9329   45.1064 H   0  0  0  0  0  0  0  0  0  0  0  0
   56.7380   26.3394   45.1064 H   0  0  0  0  0  0  0  0  0  0  0  0
   58.8287   26.5832   47.0336 H   0  0  0  0  0  0  0  0  0  0  0  0
   61.0815   27.6425   47.0529 H   0  0  0  0  0  0  0  0  0  0  0  0
   61.5356   29.6397   45.6338 H   0  0  0  0  0  0  0  0  0  0  0  0
   59.7277   30.6120   44.2291 H   0  0  0  0  0  0  0  0  0  0  0  0
   58.3857   31.4376   42.6680 H   0  0  0  0  0  0  0  0  0  0  0  0
   56.6589   31.9546   42.6273 H   0  0  0  0  0  0  0  0  0  0  0  0
   55.6749   32.7712   45.2415 H   0  0  0  0  0  0  0  0  0  0  0  0
   57.0170   34.3014   47.0227 H   0  0  0  0  0  0  0  0  0  0  0  0
   60.7320   32.5960   47.0780 H   0  0  0  0  0  0  0  0  0  0  0  0
   60.2967   34.8273   48.8071 H   0  0  0  0  0  0  0  0  0  0  0  0
   60.3480   33.0234   49.1186 H   0  0  0  0  0  0  0  0  0  0  0  0
   62.5898   35.0520   49.2323 H   0  0  0  0  0  0  0  0  0  0  0  0
   62.0860   33.7954   50.4335 H   0  0  0  0  0  0  0  0  0  0  0  0
   62.8877   30.9443   50.4310 H   0  0  0  0  0  0  0  0  0  0  0  0
   64.6278   29.9313   51.9025 H   0  0  0  0  0  0  0  0  0  0  0  0
   66.9279   30.8977   51.9723 H   0  0  0  0  0  0  0  0  0  0  0  0
   67.4892   32.8859   50.5717 H   0  0  0  0  0  0  0  0  0  0  0  0
   65.7587   33.9066   49.0934 H   0  0  0  0  0  0  0  0  0  0  0  0
   64.3244   33.2214   47.0339 H   0  0  0  0  0  0  0  0  0  0  0  0
   63.1103   31.8828   47.0915 H   0  0  0  0  0  0  0  0  0  0  0  0
   62.5793   34.8725   46.7366 H   0  0  0  0  0  0  0  0  0  0  0  0
   62.2691   33.5444   45.5605 H   0  0  0  0  0  0  0  0  0  0  0  0
  1  2  1  0
  2  3  2  0
  3  4  1  0
  4  5  2  0
  5  6  1  0
  6  7  2  0
  7  8  1  0
  8  9  2  0
  8 10  2  0
  8 11  1  0
 11 12  1  0
 12 13  2  0
 13 14  1  0
 14 15  2  0
 15 16  1  0
 16 17  2  0
 16 18  1  0
 18 19  1  0
 19 20  1  0
 20 21  1  0
 21 22  1  0
 22 23  2  0
 23 24  1  0
 24 25  2  0
 25 26  1  0
 26 27  2  0
 21 28  1  0
 28 29  1  0
 15 30  1  0
  7  2  1  0
 30 12  1  0
 29 18  1  0
 27 22  1  0
  1 31  1  0
  1 32  1  0
  1 33  1  0
  3 34  1  0
  4 35  1  0
  5 36  1  0
  6 37  1  0
 11 38  1  0
 11 39  1  0
 13 40  1  0
 14 41  1  0
 18 42  1  0
 19 43  1  0
 19 44  1  0
 20 45  1  0
 20 46  1  0
 23 47  1  0
 24 48  1  0
 25 49  1  0
 26 50  1  0
 27 51  1  0
 28 52  1  0
 28 53  1  0
 29 54  1  0
 29 55  1  0
M  CHG  1  18   1
M  END
>  <UniqueID>  (66) 
64

>  <SMILES>  (66) 
Cc1ccccc1S(=O)(=O)Cc1ccc(C(=O)[NH+]2CCN(c3ccccc3)CC2)o1

>  <Energy>  (66) 
95.75778638079268

>  <Genealogy>  (66) 
Cc1ccccc1S(=O)(=O)Cc1ccc(C(=O)[NH+]2CCN(c3ccccc3)CC2)o1 (protonated)
Cc1ccccc1S(=O)(=O)Cc1ccc(C(=O)[NH+]2CCN(c3ccccc3)CC2)o1 (3D coordinates assigned)
Cc1ccccc1S(=O)(=O)Cc1ccc(C(=O)[NH+]2CCN(c3ccccc3)CC2)o1 (nonaromatic ring conformer: 95.75778638079268 kcal/mol)

>  <smiles>  (66) 
Cc1ccccc1S(=O)(=O)Cc1ccc(C(=O)N2CCN(c3ccccc3)CC2)o1

>  <score_type>  (66) 
oracle

>  <origin>  (66) 
adg

>  <m_score__min__energy>  (66) 
-8.6099999999999994

>  <m_primary>  (66) 
energy

$$$$
67:0
     RDKit          3D

 62 66  0  0  0  0  0  0  0  0999 V2000
   53.0660   24.9870   45.2640 O   0  0  0  0  0  0  0  0  0  0  0  0
   53.0610   23.7270   45.2890 C   0  0  0  0  0  0  0  0  0  0  0  0
   52.0130   22.9800   46.0610 C   0  0  0  0  0  0  0  0  0  0  0  0
   52.6140   21.9600   47.0410 C   0  0  0  0  0  0  0  0  0  0  0  0
   53.6960   22.5830   47.9390 C   0  0  0  0  0  0  0  0  0  0  0  0
   54.9810   21.8750   47.7980 N   0  0  0  0  0  0  0  0  0  0  0  0
   54.9690   20.5410   47.5020 C   0  0  0  0  0  0  0  0  0  0  0  0
   56.1590   19.8240   47.3930 C   0  0  0  0  0  0  0  0  0  0  0  0
   57.3590   20.4960   47.5880 C   0  0  0  0  0  0  0  0  0  0  0  0
   58.4540   19.8810   47.4970 O   0  0  0  0  0  0  0  0  0  0  0  0
   57.3480   21.8220   47.8790 N   0  0  0  0  0  0  0  0  0  0  0  0
   56.1820   22.5130   47.9860 C   0  0  0  0  0  0  0  0  0  0  0  0
   56.2240   23.7430   48.2630 O   0  0  0  0  0  0  0  0  0  0  0  0
   53.9960   22.9880   44.4960 N   0  0  0  0  0  0  0  0  0  0  0  0
   55.4240   23.0650   44.5880 C   0  0  0  0  0  0  0  0  0  0  0  0
   56.2580   22.2430   43.8080 C   0  0  0  0  0  0  0  0  0  0  0  0
   57.6450   22.3920   43.8690 C   0  0  0  0  0  0  0  0  0  0  0  0
   58.2130   23.3650   44.6930 C   0  0  0  0  0  0  0  0  0  0  0  0
   57.3960   24.1980   45.4740 C   0  0  0  0  0  0  0  0  0  0  0  0
   57.9820   25.2080   46.3250 N   0  0  0  0  0  0  0  0  0  0  0  0
   57.8640   26.5120   45.7200 C   0  0  0  0  0  0  0  0  0  0  0  0
   58.9790   27.1020   45.0680 C   0  0  0  0  0  0  0  0  0  0  0  0
   58.8800   28.3760   44.4820 C   0  0  0  0  0  0  0  0  0  0  0  0
   57.6560   29.0340   44.5680 C   0  0  0  0  0  0  0  0  0  0  0  0
   57.2210   30.2690   44.1380 C   0  0  0  0  0  0  0  0  0  0  0  0
   58.0440   31.2860   43.4490 C   0  0  0  0  0  0  0  0  0  0  0  0
   57.9890   32.6110   43.6490 C   0  0  0  0  0  0  0  0  0  0  0  0
   58.3350   33.3050   44.9010 C   0  0  0  0  0  0  0  0  0  0  0  0
   59.2590   34.3650   44.9110 C   0  0  0  0  0  0  0  0  0  0  0  0
   59.6210   34.9720   46.1180 C   0  0  0  0  0  0  0  0  0  0  0  0
   59.0810   34.5120   47.3240 C   0  0  0  0  0  0  0  0  0  0  0  0
   58.1840   33.4400   47.3230 C   0  0  0  0  0  0  0  0  0  0  0  0
   57.8180   32.8320   46.1160 C   0  0  0  0  0  0  0  0  0  0  0  0
   55.9360   30.4240   44.5320 N   0  0  0  0  0  0  0  0  0  0  0  0
   55.5380   29.3290   45.1720 N   0  0  0  0  0  0  0  0  0  0  0  0
   56.5790   28.4790   45.1950 C   0  0  0  0  0  0  0  0  0  0  0  0
   56.6350   27.2150   45.7750 C   0  0  0  0  0  0  0  0  0  0  0  0
   56.0000   24.0370   45.4150 C   0  0  0  0  0  0  0  0  0  0  0  0
   51.4124   23.7042   46.6309 H   0  0  0  0  0  0  0  0  0  0  0  0
   51.3995   22.4240   45.3368 H   0  0  0  0  0  0  0  0  0  0  0  0
   51.8093   21.5649   47.6784 H   0  0  0  0  0  0  0  0  0  0  0  0
   53.0856   21.1615   46.4494 H   0  0  0  0  0  0  0  0  0  0  0  0
   53.8343   23.6367   47.6552 H   0  0  0  0  0  0  0  0  0  0  0  0
   53.3677   22.5021   48.9858 H   0  0  0  0  0  0  0  0  0  0  0  0
   54.0087   20.0271   47.3479 H   0  0  0  0  0  0  0  0  0  0  0  0
   56.1483   18.7495   47.1577 H   0  0  0  0  0  0  0  0  0  0  0  0
   55.8164   21.4813   43.1487 H   0  0  0  0  0  0  0  0  0  0  0  0
   58.2929   21.7397   43.2650 H   0  0  0  0  0  0  0  0  0  0  0  0
   59.3063   23.4798   44.7307 H   0  0  0  0  0  0  0  0  0  0  0  0
   58.9970   25.0130   46.4950 H   0  0  0  0  0  0  0  0  0  0  0  0
   57.4990   25.1770   47.2520 H   0  0  0  0  0  0  0  0  0  0  0  0
   59.9323   26.5552   45.0209 H   0  0  0  0  0  0  0  0  0  0  0  0
   59.7395   28.8369   43.9733 H   0  0  0  0  0  0  0  0  0  0  0  0
   58.7675   30.9226   42.7043 H   0  0  0  0  0  0  0  0  0  0  0  0
   57.6567   33.2332   42.8049 H   0  0  0  0  0  0  0  0  0  0  0  0
   59.6986   34.7180   43.9664 H   0  0  0  0  0  0  0  0  0  0  0  0
   60.3311   35.8121   46.1191 H   0  0  0  0  0  0  0  0  0  0  0  0
   59.3621   34.9936   48.2722 H   0  0  0  0  0  0  0  0  0  0  0  0
   57.7650   33.0735   48.2718 H   0  0  0  0  0  0  0  0  0  0  0  0
   57.1222   31.9800   46.1207 H   0  0  0  0  0  0  0  0  0  0  0  0
   55.7519   26.7751   46.2614 H   0  0  0  0  0  0  0  0  0  0  0  0
   55.3525   24.6829   46.0263 H   0  0  0  0  0  0  0  0  0  0  0  0
  1  2  2  0
  2  3  1  0
  3  4  1  0
  4  5  1  0
  5  6  1  0
  6  7  1  0
  7  8  2  0
  8  9  1  0
  9 10  2  0
  9 11  1  0
 11 12  1  0
 12 13  2  0
  2 14  1  0
 14 15  1  0
 15 16  2  0
 16 17  1  0
 17 18  2  0
 18 19  1  0
 19 20  1  0
 20 21  1  0
 21 22  1  0
 22 23  2  0
 23 24  1  0
 24 25  2  0
 25 26  1  0
 26 27  2  3
 27 28  1  0
 28 29  2  0
 29 30  1  0
 30 31  2  0
 31 32  1  0
 32 33  2  0
 25 34  1  0
 34 35  1  0
 35 36  2  0
 36 37  1  0
 19 38  2  0
 12  6  1  0
 38 15  1  0
 37 21  2  0
 36 24  1  0
 33 28  1  0
  3 39  1  0
  3 40  1  0
  4 41  1  0
  4 42  1  0
  5 43  1  0
  5 44  1  0
  7 45  1  0
  8 46  1  0
 16 47  1  0
 17 48  1  0
 18 49  1  0
 20 50  1  0
 20 51  1  0
 22 52  1  0
 23 53  1  0
 26 54  1  0
 27 55  1  0
 29 56  1  0
 30 57  1  0
 31 58  1  0
 32 59  1  0
 33 60  1  0
 37 61  1  0
 38 62  1  0
M  CHG  4  11  -1  14  -1  20   1  34  -1
M  END
>  <UniqueID>  (67) 
65

>  <SMILES>  (67) 
O=C(CCCn1ccc(=O)[n-]c1=O)[N-]c1cccc([NH2+]c2ccc3c(C=Cc4ccccc4)[n-]nc3c2)c1

>  <Energy>  (67) 
120.36798714965248

>  <Genealogy>  (67) 
O=C(CCCn1ccc(=O)[n-]c1=O)[N-]c1cccc([NH2+]c2ccc3c(C=Cc4ccccc4)[n-]nc3c2)c1 (protonated)
O=C(CCCn1ccc(=O)[n-]c1=O)[N-]c1cccc([NH2+]c2ccc3c(C=Cc4ccccc4)[n-]nc3c2)c1 (3D coordinates assigned)
O=C(CCCn1ccc(=O)[n-]c1=O)[N-]c1cccc([NH2+]c2ccc3c(C=Cc4ccccc4)[n-]nc3c2)c1 (optimized conformer: 120.36798714965248 kcal/mol)

>  <smiles>  (67) 
O=C(CCCn1ccc(=O)[nH]c1=O)Nc1cccc(Nc2ccc3c(C=Cc4ccccc4)[nH]nc3c2)c1

>  <score_type>  (67) 
oracle

>  <origin>  (67) 
adg

>  <m_score__min__energy>  (67) 
-13.84

>  <m_primary>  (67) 
energy

$$$$
68:0
     RDKit          3D

 52 55  0  0  0  0  0  0  0  0999 V2000
   55.3050   29.4850   44.7520 O   0  0  0  0  0  0  0  0  0  0  0  0
   56.4580   29.7290   44.3180 C   0  0  0  0  0  0  0  0  0  0  0  0
   56.9690   28.9450   43.2300 N   0  0  0  0  0  0  0  0  0  0  0  0
   57.8760   27.8110   43.3710 C   0  0  0  0  0  0  0  0  0  0  0  0
   58.9310   28.1190   44.3860 C   0  0  0  0  0  0  0  0  0  0  0  0
   58.7770   27.9630   45.7110 N   0  0  0  0  0  0  0  0  0  0  0  0
   59.9670   28.3720   46.2000 C   0  0  0  0  0  0  0  0  0  0  0  0
   60.3450   28.3710   47.6330 C   0  0  0  0  0  0  0  0  0  0  0  0
   60.6260   29.5710   48.3160 C   0  0  0  0  0  0  0  0  0  0  0  0
   60.9620   29.5510   49.6740 C   0  0  0  0  0  0  0  0  0  0  0  0
   61.0230   28.3390   50.3670 C   0  0  0  0  0  0  0  0  0  0  0  0
   61.4390   28.3240   52.0720 Cl  0  0  0  0  0  0  0  0  0  0  0  0
   60.7530   27.1410   49.6980 C   0  0  0  0  0  0  0  0  0  0  0  0
   60.4190   27.1550   48.3390 C   0  0  0  0  0  0  0  0  0  0  0  0
   60.7940   28.7630   45.2060 N   0  0  0  0  0  0  0  0  0  0  0  0
   60.1190   28.5970   44.1060 O   0  0  0  0  0  0  0  0  0  0  0  0
   57.2330   30.8290   44.9210 C   0  0  0  0  0  0  0  0  0  0  0  0
   57.8190   30.6800   46.1880 C   0  0  0  0  0  0  0  0  0  0  0  0
   58.5760   31.7170   46.7460 C   0  0  0  0  0  0  0  0  0  0  0  0
   58.7730   32.9090   46.0340 C   0  0  0  0  0  0  0  0  0  0  0  0
   59.7390   34.2150   46.7300 S   0  0  0  0  0  0  0  0  0  0  0  0
   58.9480   34.8950   47.8150 O   0  0  0  0  0  0  0  0  0  0  0  0
   60.0330   35.2330   45.6600 O   0  0  0  0  0  0  0  0  0  0  0  0
   61.2440   33.6240   47.3920 N   0  0  0  0  0  0  0  0  0  0  0  0
   61.5260   34.2730   48.6840 C   0  0  0  0  0  0  0  0  0  0  0  0
   62.7010   33.5660   49.3850 C   0  0  0  0  0  0  0  0  0  0  0  0
   63.6480   32.8710   48.3890 C   0  0  0  0  0  0  0  0  0  0  0  0
   63.7390   33.6560   47.0790 C   0  0  0  0  0  0  0  0  0  0  0  0
   62.3480   33.8420   46.4330 C   0  0  0  0  0  0  0  0  0  0  0  0
   58.2060   33.0490   44.7580 C   0  0  0  0  0  0  0  0  0  0  0  0
   57.4430   32.0160   44.2040 C   0  0  0  0  0  0  0  0  0  0  0  0
   57.3062   26.9276   43.6951 H   0  0  0  0  0  0  0  0  0  0  0  0
   58.3564   27.6118   42.4017 H   0  0  0  0  0  0  0  0  0  0  0  0
   57.9440   27.5910   46.2170 H   0  0  0  0  0  0  0  0  0  0  0  0
   60.5809   30.5295   47.7782 H   0  0  0  0  0  0  0  0  0  0  0  0
   61.1791   30.4933   50.1984 H   0  0  0  0  0  0  0  0  0  0  0  0
   60.8032   26.1857   50.2410 H   0  0  0  0  0  0  0  0  0  0  0  0
   60.2126   26.2084   47.8182 H   0  0  0  0  0  0  0  0  0  0  0  0
   57.6824   29.7420   46.7461 H   0  0  0  0  0  0  0  0  0  0  0  0
   59.0177   31.5964   47.7462 H   0  0  0  0  0  0  0  0  0  0  0  0
   61.7861   35.3279   48.5123 H   0  0  0  0  0  0  0  0  0  0  0  0
   60.6329   34.2073   49.3229 H   0  0  0  0  0  0  0  0  0  0  0  0
   63.2737   34.3131   49.9541 H   0  0  0  0  0  0  0  0  0  0  0  0
   62.2810   32.7917   50.0438 H   0  0  0  0  0  0  0  0  0  0  0  0
   64.6506   32.7998   48.8359 H   0  0  0  0  0  0  0  0  0  0  0  0
   63.2513   31.8687   48.1698 H   0  0  0  0  0  0  0  0  0  0  0  0
   64.1729   34.6457   47.2847 H   0  0  0  0  0  0  0  0  0  0  0  0
   64.3713   33.0890   46.3799 H   0  0  0  0  0  0  0  0  0  0  0  0
   62.2761   34.8667   46.0395 H   0  0  0  0  0  0  0  0  0  0  0  0
   62.2484   33.0934   45.6332 H   0  0  0  0  0  0  0  0  0  0  0  0
   58.3627   33.9776   44.1896 H   0  0  0  0  0  0  0  0  0  0  0  0
   57.0057   32.1350   43.2017 H   0  0  0  0  0  0  0  0  0  0  0  0
  1  2  2  0
  2  3  1  0
  3  4  1  0
  4  5  1  0
  5  6  2  0
  6  7  1  0
  7  8  1  0
  8  9  2  0
  9 10  1  0
 10 11  2  0
 11 12  1  0
 11 13  1  0
 13 14  2  0
  7 15  2  0
 15 16  1  0
  2 17  1  0
 17 18  2  0
 18 19  1  0
 19 20  2  0
 20 21  1  0
 21 22  2  0
 21 23  2  0
 21 24  1  0
 24 25  1  0
 25 26  1  0
 26 27  1  0
 27 28  1  0
 28 29  1  0
 20 30  1  0
 30 31  2  0
 16  5  1  0
 31 17  1  0
 14  8  1  0
 29 24  1  0
  4 32  1  0
  4 33  1  0
  6 34  1  0
  9 35  1  0
 10 36  1  0
 13 37  1  0
 14 38  1  0
 18 39  1  0
 19 40  1  0
 25 41  1  0
 25 42  1  0
 26 43  1  0
 26 44  1  0
 27 45  1  0
 27 46  1  0
 28 47  1  0
 28 48  1  0
 29 49  1  0
 29 50  1  0
 30 51  1  0
 31 52  1  0
M  CHG  2   3  -1   6   1
M  END
>  <UniqueID>  (68) 
66

>  <SMILES>  (68) 
O=C([N-]Cc1[nH+]c(-c2ccc(Cl)cc2)no1)c1ccc(S(=O)(=O)N2CCCCC2)cc1

>  <Energy>  (68) 
96.60006137313079

>  <Genealogy>  (68) 
O=C([N-]Cc1[nH+]c(-c2ccc(Cl)cc2)no1)c1ccc(S(=O)(=O)N2CCCCC2)cc1 (protonated)
O=C([N-]Cc1[nH+]c(-c2ccc(Cl)cc2)no1)c1ccc(S(=O)(=O)N2CCCCC2)cc1 (3D coordinates assigned)
O=C([N-]Cc1[nH+]c(-c2ccc(Cl)cc2)no1)c1ccc(S(=O)(=O)N2CCCCC2)cc1 (nonaromatic ring conformer: 96.60006137313079 kcal/mol)

>  <smiles>  (68) 
O=C(NCc1nc(-c2ccc(Cl)cc2)no1)c1ccc(S(=O)(=O)N2CCCCC2)cc1

>  <score_type>  (68) 
oracle

>  <origin>  (68) 
adg

>  <m_score__min__energy>  (68) 
-10.02

>  <m_primary>  (68) 
energy

$$$$
69:0
     RDKit          3D

 47 50  0  0  0  0  0  0  0  0999 V2000
   58.8250   29.1020   47.0860 C   0  0  0  0  0  0  0  0  0  0  0  0
   58.3490   29.1350   45.8300 C   0  0  0  0  0  0  0  0  0  0  0  0
   58.1080   28.0430   44.9780 C   0  0  0  0  0  0  0  0  0  0  0  0
   58.4130   26.7360   45.1020 C   0  0  0  0  0  0  0  0  0  0  0  0
   57.6070   25.7310   45.8230 C   0  0  0  0  0  0  0  0  0  0  0  0
   56.2530   25.9550   46.1500 C   0  0  0  0  0  0  0  0  0  0  0  0
   55.5940   27.1360   45.8040 O   0  0  0  0  0  0  0  0  0  0  0  0
   55.5620   25.0020   46.8290 N   0  0  0  0  0  0  0  0  0  0  0  0
   56.1520   23.8420   47.2160 C   0  0  0  0  0  0  0  0  0  0  0  0
   55.4870   22.9770   47.8400 O   0  0  0  0  0  0  0  0  0  0  0  0
   57.4610   23.6190   46.9350 N   0  0  0  0  0  0  0  0  0  0  0  0
   58.2000   24.5350   46.2570 C   0  0  0  0  0  0  0  0  0  0  0  0
   59.4130   24.2940   46.0170 O   0  0  0  0  0  0  0  0  0  0  0  0
   57.4700   28.5560   43.8610 C   0  0  0  0  0  0  0  0  0  0  0  0
   57.3890   29.9220   44.0360 C   0  0  0  0  0  0  0  0  0  0  0  0
   56.7880   30.8710   43.0440 C   0  0  0  0  0  0  0  0  0  0  0  0
   57.9180   30.2750   45.2290 N   0  0  0  0  0  0  0  0  0  0  0  0
   58.0160   31.6180   45.7400 C   0  0  0  0  0  0  0  0  0  0  0  0
   57.1390   32.6130   45.2910 C   0  0  0  0  0  0  0  0  0  0  0  0
   57.2490   33.9170   45.7810 C   0  0  0  0  0  0  0  0  0  0  0  0
   58.2230   34.2300   46.7310 C   0  0  0  0  0  0  0  0  0  0  0  0
   59.0980   33.2370   47.2070 C   0  0  0  0  0  0  0  0  0  0  0  0
   60.1120   33.5730   48.2280 C   0  0  0  0  0  0  0  0  0  0  0  0
   59.7510   33.7990   49.4140 O   0  0  0  0  0  0  0  0  0  0  0  0
   61.5070   33.6010   47.9110 N   0  0  0  0  0  0  0  0  0  0  0  0
   62.4080   33.2250   46.8030 C   0  0  0  0  0  0  0  0  0  0  0  0
   63.6800   33.4500   47.5480 C   0  0  0  0  0  0  0  0  0  0  0  0
   62.7570   33.8340   48.6560 C   0  0  0  0  0  0  0  0  0  0  0  0
   59.0000   31.9370   46.6860 C   0  0  0  0  0  0  0  0  0  0  0  0
   58.9670   30.0386   47.6451 H   0  0  0  0  0  0  0  0  0  0  0  0
   59.0727   28.1384   47.5552 H   0  0  0  0  0  0  0  0  0  0  0  0
   59.3415   26.3886   44.6254 H   0  0  0  0  0  0  0  0  0  0  0  0
   54.7660   27.4640   46.2830 H   0  0  0  0  0  0  0  0  0  0  0  0
   57.0985   27.9833   42.9984 H   0  0  0  0  0  0  0  0  0  0  0  0
   56.2737   31.6832   43.5786 H   0  0  0  0  0  0  0  0  0  0  0  0
   57.5834   31.2937   42.4126 H   0  0  0  0  0  0  0  0  0  0  0  0
   56.0658   30.3327   42.4126 H   0  0  0  0  0  0  0  0  0  0  0  0
   56.3624   32.3678   44.5516 H   0  0  0  0  0  0  0  0  0  0  0  0
   56.5663   34.6990   45.4172 H   0  0  0  0  0  0  0  0  0  0  0  0
   58.3066   35.2594   47.1095 H   0  0  0  0  0  0  0  0  0  0  0  0
   62.2799   32.1788   46.4883 H   0  0  0  0  0  0  0  0  0  0  0  0
   62.2832   33.7634   45.8519 H   0  0  0  0  0  0  0  0  0  0  0  0
   64.2901   32.5525   47.7278 H   0  0  0  0  0  0  0  0  0  0  0  0
   64.5010   34.0853   47.1842 H   0  0  0  0  0  0  0  0  0  0  0  0
   62.8548   33.1801   49.5351 H   0  0  0  0  0  0  0  0  0  0  0  0
   62.8960   34.8311   49.0991 H   0  0  0  0  0  0  0  0  0  0  0  0
   59.7026   31.1608   47.0236 H   0  0  0  0  0  0  0  0  0  0  0  0
  1  2  2  0
  2  3  1  0
  3  4  2  3
  4  5  1  0
  5  6  2  0
  6  7  1  0
  6  8  1  0
  8  9  1  0
  9 10  2  0
  9 11  1  0
 11 12  1  0
 12 13  2  0
  3 14  1  0
 14 15  2  0
 15 16  1  0
 15 17  1  0
 17 18  1  0
 18 19  2  0
 19 20  1  0
 20 21  2  0
 21 22  1  0
 22 23  1  0
 23 24  2  0
 23 25  1  0
 25 26  1  0
 26 27  1  0
 27 28  1  0
 22 29  2  0
 17  2  1  0
 29 18  1  0
 12  5  1  0
 28 25  1  0
  1 30  1  0
  1 31  1  0
  4 32  1  0
  7 33  1  0
 14 34  1  0
 16 35  1  0
 16 36  1  0
 16 37  1  0
 19 38  1  0
 20 39  1  0
 21 40  1  0
 26 41  1  0
 26 42  1  0
 27 43  1  0
 27 44  1  0
 28 45  1  0
 28 46  1  0
 29 47  1  0
M  CHG  2   8  -1  11  -1
M  END
>  <UniqueID>  (69) 
67

>  <SMILES>  (69) 
C=c1c(=Cc2c(O)[n-]c(=O)[n-]c2=O)cc(C)n1-c1cccc(C(=O)N2CCC2)c1

>  <Energy>  (69) 
145.11380754443454

>  <Genealogy>  (69) 
C=c1c(=Cc2c(O)[n-]c(=O)[n-]c2=O)cc(C)n1-c1cccc(C(=O)N2CCC2)c1 (protonated)
C=c1c(=Cc2c(O)[n-]c(=O)[n-]c2=O)cc(C)n1-c1cccc(C(=O)N2CCC2)c1 (3D coordinates assigned)
C=c1c(=Cc2c(O)[n-]c(=O)[n-]c2=O)cc(C)n1-c1cccc(C(=O)N2CCC2)c1 (nonaromatic ring conformer: 145.11380754443454 kcal/mol)

>  <smiles>  (69) 
C=c1c(=Cc2c(O)[nH]c(=O)[nH]c2=O)cc(C)n1-c1cccc(C(=O)N2CCC2)c1

>  <score_type>  (69) 
oracle

>  <origin>  (69) 
adg

>  <m_score__min__energy>  (69) 
-14.18

>  <m_primary>  (69) 
energy

$$$$
70:0
     RDKit          3D

 35 37  0  0  0  0  0  0  0  0999 V2000
   52.1270   21.4970   44.8750 H   0  0  0  0  0  0  0  0  0  0  0  0
   52.5420   22.2910   45.3470 O   0  0  0  0  0  0  0  0  0  0  0  0
   53.7780   22.1960   45.9830 C   0  0  0  0  0  0  0  0  0  0  0  0
   54.3250   23.3050   46.6460 C   0  0  0  0  0  0  0  0  0  0  0  0
   53.7732   24.2563   46.6677 H   0  0  0  0  0  0  0  0  0  0  0  0
   55.5730   23.2070   47.2820 C   0  0  0  0  0  0  0  0  0  0  0  0
   56.1360   24.3860   48.0280 C   0  0  0  0  0  0  0  0  0  0  0  0
   56.7952   24.0272   48.8322 H   0  0  0  0  0  0  0  0  0  0  0  0
   55.3087   24.9706   48.4567 H   0  0  0  0  0  0  0  0  0  0  0  0
   56.9200   25.2550   47.0950 C   0  0  0  0  0  0  0  0  0  0  0  0
   58.2670   25.2760   47.0540 N   0  0  0  0  0  0  0  0  0  0  0  0
   58.5960   26.1280   46.0580 C   0  0  0  0  0  0  0  0  0  0  0  0
   59.8700   26.3860   45.7450 C   0  0  0  0  0  0  0  0  0  0  0  0
   60.1051   27.0847   44.9286 H   0  0  0  0  0  0  0  0  0  0  0  0
   60.6830   25.8996   46.3039 H   0  0  0  0  0  0  0  0  0  0  0  0
   57.4540   26.6450   45.4380 C   0  0  0  0  0  0  0  0  0  0  0  0
   57.4050   27.5240   44.4180 C   0  0  0  0  0  0  0  0  0  0  0  0
   57.3839   27.1262   43.3927 H   0  0  0  0  0  0  0  0  0  0  0  0
   57.3780   28.9900   44.5950 C   0  0  0  0  0  0  0  0  0  0  0  0
   56.1550   29.6730   44.6530 C   0  0  0  0  0  0  0  0  0  0  0  0
   54.9550   28.9890   44.4990 O   0  0  0  0  0  0  0  0  0  0  0  0
   56.1360   31.0160   44.8510 N   0  0  0  0  0  0  0  0  0  0  0  0
   57.2880   31.7180   45.0110 C   0  0  0  0  0  0  0  0  0  0  0  0
   57.2460   32.9620   45.1900 O   0  0  0  0  0  0  0  0  0  0  0  0
   58.4840   31.0750   44.9860 N   0  0  0  0  0  0  0  0  0  0  0  0
   58.5560   29.7330   44.7920 C   0  0  0  0  0  0  0  0  0  0  0  0
   59.6810   29.1670   44.7990 O   0  0  0  0  0  0  0  0  0  0  0  0
   56.3920   26.0760   46.1210 C   0  0  0  0  0  0  0  0  0  0  0  0
   55.0360   26.2990   45.9060 O   0  0  0  0  0  0  0  0  0  0  0  0
   56.2610   21.9840   47.2650 C   0  0  0  0  0  0  0  0  0  0  0  0
   57.2325   21.8951   47.7732 H   0  0  0  0  0  0  0  0  0  0  0  0
   55.7170   20.8780   46.6050 C   0  0  0  0  0  0  0  0  0  0  0  0
   56.2639   19.9237   46.5904 H   0  0  0  0  0  0  0  0  0  0  0  0
   54.4780   20.9830   45.9630 C   0  0  0  0  0  0  0  0  0  0  0  0
   53.9460   19.8790   45.3080 O   0  0  0  0  0  0  0  0  0  0  0  0
  1  2  1  0
  2  3  1  0
  3  4  2  0
  4  5  1  0
  4  6  1  0
  6  7  1  0
  7  8  1  0
  7  9  1  0
  7 10  1  0
 10 11  1  0
 11 12  1  0
 12 13  2  0
 13 14  1  0
 13 15  1  0
 12 16  1  0
 16 17  2  0
 17 18  1  0
 17 19  1  0
 19 20  2  0
 20 21  1  0
 20 22  1  0
 22 23  1  0
 23 24  2  0
 23 25  1  0
 25 26  1  0
 26 27  2  0
 16 28  1  0
 28 29  1  0
  6 30  2  0
 30 31  1  0
 30 32  1  0
 32 33  1  0
 32 34  2  0
 34 35  1  0
 34  3  1  0
 28 10  2  0
 26 19  1  0
M  CHG  6  11  -1  21  -1  22  -1  25  -1  29  -1  35  -1
M  END
>  <UniqueID>  (70) 
68

>  <SMILES>  (70) 
C=c1[n-]c(Cc2ccc([O-])c(O)c2)c([O-])/c1=C\c1c([O-])[n-]c(=O)[n-]c1=O

>  <Energy>  (70) 
75.49262642792146

>  <Genealogy>  (70) 
C=c1[n-]c(Cc2ccc([O-])c(O)c2)c([O-])c1=Cc1c([O-])[n-]c(=O)[n-]c1=O (protonated)
C=c1[n-]c(Cc2ccc([O-])c(O)c2)c([O-])/c1=C\c1c([O-])[n-]c(=O)[n-]c1=O (cis-trans isomerization)
C=c1[n-]c(Cc2ccc([O-])c(O)c2)c([O-])/c1=C\c1c([O-])[n-]c(=O)[n-]c1=O (3D coordinates assigned)
C=c1[n-]c(Cc2ccc([O-])c(O)c2)c([O-])/c1=C\c1c([O-])[n-]c(=O)[n-]c1=O (optimized conformer: 75.49262642792146 kcal/mol)

>  <smiles>  (70) 
C=c1[nH]c(Cc2ccc(O)c(O)c2)c(O)c1=Cc1c(O)[nH]c(=O)[nH]c1=O

>  <score_type>  (70) 
oracle

>  <origin>  (70) 
adg

>  <m_score__min__energy>  (70) 
-19.149999999999999

>  <m_primary>  (70) 
energy

$$$$
71:0
     RDKit          3D

 56 59  0  0  0  0  0  0  0  0999 V2000
   53.6910   28.6560   53.2870 C   0  0  0  0  0  0  0  0  0  0  0  0
   54.5970   29.4450   52.6870 C   0  0  0  0  0  0  0  0  0  0  0  0
   54.3350   30.5320   51.8370 C   0  0  0  0  0  0  0  0  0  0  0  0
   53.1990   30.9280   51.2310 C   0  0  0  0  0  0  0  0  0  0  0  0
   52.0720   31.6140   51.8830 C   0  0  0  0  0  0  0  0  0  0  0  0
   51.7370   31.4770   53.1790 N   0  0  0  0  0  0  0  0  0  0  0  0
   50.5810   32.1690   53.2780 C   0  0  0  0  0  0  0  0  0  0  0  0
   49.9530   32.2890   54.3600 O   0  0  0  0  0  0  0  0  0  0  0  0
   50.1470   32.7130   52.1210 N   0  0  0  0  0  0  0  0  0  0  0  0
   51.0960   32.3400   51.2470 C   0  0  0  0  0  0  0  0  0  0  0  0
   51.0650   32.6510   49.8930 O   0  0  0  0  0  0  0  0  0  0  0  0
   55.5370   31.1990   51.6830 C   0  0  0  0  0  0  0  0  0  0  0  0
   56.4900   30.4750   52.3680 C   0  0  0  0  0  0  0  0  0  0  0  0
   57.9200   30.8330   52.4230 C   0  0  0  0  0  0  0  0  0  0  0  0
   58.3400   31.4930   53.4120 O   0  0  0  0  0  0  0  0  0  0  0  0
   58.8370   30.4330   51.3810 N   0  0  0  0  0  0  0  0  0  0  0  0
   60.2880   30.5530   51.5700 C   0  0  0  0  0  0  0  0  0  0  0  0
   60.8830   31.5650   50.5750 C   0  0  0  0  0  0  0  0  0  0  0  0
   60.1250   31.6260   49.2170 C   0  0  0  0  0  0  0  0  0  0  0  0
   59.1660   32.8430   49.1160 C   0  0  0  0  0  0  0  0  0  0  0  0
   59.0060   33.3500   47.6950 C   0  0  0  0  0  0  0  0  0  0  0  0
   57.7140   33.3730   47.1370 C   0  0  0  0  0  0  0  0  0  0  0  0
   57.5090   33.8200   45.8310 C   0  0  0  0  0  0  0  0  0  0  0  0
   58.5860   34.2590   45.0650 C   0  0  0  0  0  0  0  0  0  0  0  0
   59.8730   34.2590   45.6030 C   0  0  0  0  0  0  0  0  0  0  0  0
   60.1030   33.8090   46.9160 C   0  0  0  0  0  0  0  0  0  0  0  0
   61.5070   33.8640   47.4650 C   0  0  0  0  0  0  0  0  0  0  0  0
   59.3650   30.3080   48.9520 C   0  0  0  0  0  0  0  0  0  0  0  0
   58.3380   30.0160   50.0590 C   0  0  0  0  0  0  0  0  0  0  0  0
   55.9270   29.3960   52.9640 N   0  0  0  0  0  0  0  0  0  0  0  0
   56.5830   28.4770   53.9030 C   0  0  0  0  0  0  0  0  0  0  0  0
   54.0230   27.8309   53.9343 H   0  0  0  0  0  0  0  0  0  0  0  0
   52.6169   28.8348   53.1312 H   0  0  0  0  0  0  0  0  0  0  0  0
   53.1056   30.7205   50.1548 H   0  0  0  0  0  0  0  0  0  0  0  0
   55.7014   32.1301   51.1209 H   0  0  0  0  0  0  0  0  0  0  0  0
   60.4918   30.8927   52.5962 H   0  0  0  0  0  0  0  0  0  0  0  0
   60.7504   29.5704   51.3949 H   0  0  0  0  0  0  0  0  0  0  0  0
   60.8523   32.5637   51.0351 H   0  0  0  0  0  0  0  0  0  0  0  0
   61.9094   31.2355   50.3560 H   0  0  0  0  0  0  0  0  0  0  0  0
   60.8890   31.7595   48.4369 H   0  0  0  0  0  0  0  0  0  0  0  0
   58.1778   32.5441   49.4957 H   0  0  0  0  0  0  0  0  0  0  0  0
   59.6026   33.6586   49.7111 H   0  0  0  0  0  0  0  0  0  0  0  0
   56.8563   33.0349   47.7370 H   0  0  0  0  0  0  0  0  0  0  0  0
   56.4946   33.8256   45.4057 H   0  0  0  0  0  0  0  0  0  0  0  0
   58.4216   34.6062   44.0343 H   0  0  0  0  0  0  0  0  0  0  0  0
   60.7172   34.6147   44.9941 H   0  0  0  0  0  0  0  0  0  0  0  0
   61.4711   33.8626   48.5644 H   0  0  0  0  0  0  0  0  0  0  0  0
   62.0720   32.9873   47.1155 H   0  0  0  0  0  0  0  0  0  0  0  0
   62.0017   34.7822   47.1155 H   0  0  0  0  0  0  0  0  0  0  0  0
   58.8396   30.3861   47.9888 H   0  0  0  0  0  0  0  0  0  0  0  0
   60.0959   29.4862   48.9344 H   0  0  0  0  0  0  0  0  0  0  0  0
   57.4094   30.5628   49.8385 H   0  0  0  0  0  0  0  0  0  0  0  0
   58.1566   28.9314   50.0846 H   0  0  0  0  0  0  0  0  0  0  0  0
   56.3615   28.7873   54.9348 H   0  0  0  0  0  0  0  0  0  0  0  0
   56.2084   27.4559   53.7388 H   0  0  0  0  0  0  0  0  0  0  0  0
   57.6704   28.4995   53.7388 H   0  0  0  0  0  0  0  0  0  0  0  0
  1  2  2  0
  2  3  1  0
  3  4  2  3
  4  5  1  0
  5  6  1  0
  6  7  1  0
  7  8  2  0
  7  9  1  0
  9 10  1  0
 10 11  1  0
  3 12  1  0
 12 13  2  0
 13 14  1  0
 14 15  2  0
 14 16  1  0
 16 17  1  0
 17 18  1  0
 18 19  1  0
 19 20  1  0
 20 21  1  0
 21 22  2  0
 22 23  1  0
 23 24  2  0
 24 25  1  0
 25 26  2  0
 26 27  1  0
 19 28  1  0
 28 29  1  0
 13 30  1  0
 30 31  1  0
 30  2  1  0
 10  5  2  0
 29 16  1  0
 26 21  1  0
  1 32  1  0
  1 33  1  0
  4 34  1  0
 12 35  1  0
 17 36  1  0
 17 37  1  0
 18 38  1  0
 18 39  1  0
 19 40  1  0
 20 41  1  0
 20 42  1  0
 22 43  1  0
 23 44  1  0
 24 45  1  0
 25 46  1  0
 27 47  1  0
 27 48  1  0
 27 49  1  0
 28 50  1  0
 28 51  1  0
 29 52  1  0
 29 53  1  0
 31 54  1  0
 31 55  1  0
 31 56  1  0
M  CHG  3   6  -1   9  -1  11  -1
M  END
>  <UniqueID>  (71) 
69

>  <SMILES>  (71) 
C=c1c(=Cc2[n-]c(=O)[n-]c2[O-])cc(C(=O)N2CCC(Cc3ccccc3C)CC2)n1C

>  <Energy>  (71) 
136.53424355645637

>  <Genealogy>  (71) 
C=c1c(=Cc2[n-]c(=O)[n-]c2[O-])cc(C(=O)N2CCC(Cc3ccccc3C)CC2)n1C (protonated)
C=c1c(=Cc2[n-]c(=O)[n-]c2[O-])cc(C(=O)N2CCC(Cc3ccccc3C)CC2)n1C (3D coordinates assigned)
C=c1c(=Cc2[n-]c(=O)[n-]c2[O-])cc(C(=O)N2CCC(Cc3ccccc3C)CC2)n1C (nonaromatic ring conformer: 136.53424355645637 kcal/mol)

>  <smiles>  (71) 
C=c1c(=Cc2[nH]c(=O)[nH]c2O)cc(C(=O)N2CCC(Cc3ccccc3C)CC2)n1C

>  <score_type>  (71) 
oracle

>  <origin>  (71) 
adg

>  <m_score__min__energy>  (71) 
-19.350000000000001

>  <m_primary>  (71) 
energy

$$$$
72:0
     RDKit          3D

 50 53  0  0  0  0  0  0  0  0999 V2000
   59.4523   34.4499   43.7969 H   0  0  0  0  0  0  0  0  0  0  0  0
   58.8420   33.8420   44.4810 C   0  0  0  0  0  0  0  0  0  0  0  0
   58.0960   32.7880   44.0590 N   0  0  0  0  0  0  0  0  0  0  0  0
   57.4510   32.1900   45.0850 C   0  0  0  0  0  0  0  0  0  0  0  0
   56.6690   31.1650   44.9090 N   0  0  0  0  0  0  0  0  0  0  0  0
   57.1020   29.8020   44.8340 C   0  0  0  0  0  0  0  0  0  0  0  0
   57.0410   29.0540   43.3770 S   0  0  0  0  0  0  0  0  0  0  0  0
   57.6960   29.1690   45.9850 N   0  0  0  0  0  0  0  0  0  0  0  0
   57.8030   29.7350   46.8560 H   0  0  0  0  0  0  0  0  0  0  0  0
   57.9770   27.7660   46.0880 C   0  0  0  0  0  0  0  0  0  0  0  0
   56.9420   26.8170   46.0450 C   0  0  0  0  0  0  0  0  0  0  0  0
   55.8965   27.1500   45.9669 H   0  0  0  0  0  0  0  0  0  0  0  0
   57.2350   25.4520   46.1010 C   0  0  0  0  0  0  0  0  0  0  0  0
   56.4199   24.7136   46.0805 H   0  0  0  0  0  0  0  0  0  0  0  0
   58.5630   25.0240   46.1830 C   0  0  0  0  0  0  0  0  0  0  0  0
   58.7921   23.9494   46.2350 H   0  0  0  0  0  0  0  0  0  0  0  0
   59.6000   25.9610   46.1990 C   0  0  0  0  0  0  0  0  0  0  0  0
   60.6452   25.6229   46.2565 H   0  0  0  0  0  0  0  0  0  0  0  0
   59.3100   27.3280   46.1420 C   0  0  0  0  0  0  0  0  0  0  0  0
   60.3270   28.2280   46.1490 F   0  0  0  0  0  0  0  0  0  0  0  0
   57.7500   32.9640   46.5580 S   0  0  0  0  0  0  0  0  0  0  0  0
   58.7720   34.0900   45.8450 C   0  0  0  0  0  0  0  0  0  0  0  0
   59.6680   35.3600   46.7300 S   0  0  0  0  0  0  0  0  0  0  0  0
   60.9120   34.1970   47.2890 C   0  0  0  0  0  0  0  0  0  0  0  0
   61.9950   33.8780   46.4650 C   0  0  0  0  0  0  0  0  0  0  0  0
   62.1000   34.3615   45.4826 H   0  0  0  0  0  0  0  0  0  0  0  0
   62.9430   32.9460   46.8890 C   0  0  0  0  0  0  0  0  0  0  0  0
   63.7949   32.6965   46.2393 H   0  0  0  0  0  0  0  0  0  0  0  0
   62.8140   32.3280   48.1370 C   0  0  0  0  0  0  0  0  0  0  0  0
   63.5621   31.5894   48.4606 H   0  0  0  0  0  0  0  0  0  0  0  0
   61.7320   32.6450   48.9830 C   0  0  0  0  0  0  0  0  0  0  0  0
   61.5500   31.9840   50.3040 C   0  0  0  0  0  0  0  0  0  0  0  0
   62.1460   32.4660   51.3080 O   0  0  0  0  0  0  0  0  0  0  0  0
   60.6830   30.8330   50.4740 N   0  0  0  0  0  0  0  0  0  0  0  0
   60.6950   30.5440   51.4810 H   0  0  0  0  0  0  0  0  0  0  0  0
   61.1920   29.7020   49.6630 C   0  0  0  0  0  0  0  0  0  0  0  0
   61.6113   30.0923   48.7239 H   0  0  0  0  0  0  0  0  0  0  0  0
   61.9665   29.1762   50.2406 H   0  0  0  0  0  0  0  0  0  0  0  0
   60.0630   28.7080   49.3360 C   0  0  0  0  0  0  0  0  0  0  0  0
   60.4891   27.8817   48.7481 H   0  0  0  0  0  0  0  0  0  0  0  0
   59.6458   28.3728   50.2970 H   0  0  0  0  0  0  0  0  0  0  0  0
   58.9880   29.2760   48.5960 O   0  0  0  0  0  0  0  0  0  0  0  0
   58.8600   30.6820   48.7580 C   0  0  0  0  0  0  0  0  0  0  0  0
   59.5001   31.1793   48.0144 H   0  0  0  0  0  0  0  0  0  0  0  0
   57.7974   30.9313   48.6214 H   0  0  0  0  0  0  0  0  0  0  0  0
   59.2680   31.1710   50.1600 C   0  0  0  0  0  0  0  0  0  0  0  0
   59.1443   32.2631   50.2060 H   0  0  0  0  0  0  0  0  0  0  0  0
   58.6250   30.6684   50.8976 H   0  0  0  0  0  0  0  0  0  0  0  0
   60.7850   33.5880   48.5430 C   0  0  0  0  0  0  0  0  0  0  0  0
   59.9357   33.8495   49.1914 H   0  0  0  0  0  0  0  0  0  0  0  0
  1  2  1  0
  2  3  1  0
  3  4  1  0
  4  5  2  0
  5  6  1  0
  6  7  2  0
  6  8  1  0
  8  9  1  0
  8 10  1  0
 10 11  2  0
 11 12  1  0
 11 13  1  0
 13 14  1  0
 13 15  2  0
 15 16  1  0
 15 17  1  0
 17 18  1  0
 17 19  2  0
 19 20  1  0
  4 21  1  0
 21 22  1  0
 22 23  1  0
 23 24  1  0
 24 25  2  0
 25 26  1  0
 25 27  1  0
 27 28  1  0
 27 29  2  0
 29 30  1  0
 29 31  1  0
 31 32  1  0
 32 33  2  0
 32 34  1  0
 34 35  1  0
 34 36  1  0
 36 37  1  0
 36 38  1  0
 36 39  1  0
 39 40  1  0
 39 41  1  0
 39 42  1  0
 42 43  1  0
 43 44  1  0
 43 45  1  0
 43 46  1  0
 46 47  1  0
 46 48  1  0
 31 49  2  0
 49 50  1  0
 22  2  2  0
 49 24  1  0
 19 10  1  0
 46 34  1  0
M  CHG  2   3  -1  34   1
M  END
>  <UniqueID>  (72) 
70

>  <SMILES>  (72) 
O=C(c1cccc(Sc2c[n-]/c(=N/C(=S)Nc3ccccc3F)s2)c1)[NH+]1CCOCC1

>  <Energy>  (72) 
110.34842830975494

>  <Genealogy>  (72) 
O=C(c1cccc(Sc2c[n-]c(=NC(=S)Nc3ccccc3F)s2)c1)[NH+]1CCOCC1 (protonated)
O=C(c1cccc(Sc2c[n-]/c(=N/C(=S)Nc3ccccc3F)s2)c1)[NH+]1CCOCC1 (cis-trans isomerization)
O=C(c1cccc(Sc2c[n-]/c(=N/C(=S)Nc3ccccc3F)s2)c1)[NH+]1CCOCC1 (3D coordinates assigned)
O=C(c1cccc(Sc2c[n-]/c(=N/C(=S)Nc3ccccc3F)s2)c1)[NH+]1CCOCC1 (nonaromatic ring conformer: 110.34842830975494 kcal/mol)

>  <smiles>  (72) 
O=C(c1cccc(Sc2c[nH]c(=NC(=S)Nc3ccccc3F)s2)c1)N1CCOCC1

>  <score_type>  (72) 
oracle

>  <origin>  (72) 
adg

>  <m_score__min__energy>  (72) 
-9.9000000000000004

>  <m_primary>  (72) 
energy

$$$$
73:0
     RDKit          3D

 46 48  0  0  0  0  0  0  0  0999 V2000
   55.8680   24.4190   45.6110 C   0  0  0  0  0  0  0  0  0  0  0  0
   56.1220   25.8880   45.7950 C   0  0  0  0  0  0  0  0  0  0  0  0
   55.1490   26.6530   46.0090 O   0  0  0  0  0  0  0  0  0  0  0  0
   57.4470   26.4460   45.7740 N   0  0  0  0  0  0  0  0  0  0  0  0
   57.8030   27.8330   45.8380 C   0  0  0  0  0  0  0  0  0  0  0  0
   57.1410   28.8070   45.0650 C   0  0  0  0  0  0  0  0  0  0  0  0
   57.4890   30.1550   45.1870 C   0  0  0  0  0  0  0  0  0  0  0  0
   58.4740   30.5470   46.0980 C   0  0  0  0  0  0  0  0  0  0  0  0
   59.1220   29.5870   46.9000 C   0  0  0  0  0  0  0  0  0  0  0  0
   60.1360   29.9440   47.8540 N   0  0  0  0  0  0  0  0  0  0  0  0
   60.1900   29.4250   49.5090 S   0  0  0  0  0  0  0  0  0  0  0  0
   61.5260   29.7860   50.0960 O   0  0  0  0  0  0  0  0  0  0  0  0
   60.0250   27.9330   49.5810 O   0  0  0  0  0  0  0  0  0  0  0  0
   58.9280   30.2500   50.4130 C   0  0  0  0  0  0  0  0  0  0  0  0
   58.6210   31.5810   50.1100 C   0  0  0  0  0  0  0  0  0  0  0  0
   57.5810   32.2320   50.7700 C   0  0  0  0  0  0  0  0  0  0  0  0
   56.8150   31.5560   51.7210 C   0  0  0  0  0  0  0  0  0  0  0  0
   55.7950   32.2550   52.3670 O   0  0  0  0  0  0  0  0  0  0  0  0
   57.0970   30.2010   52.0140 C   0  0  0  0  0  0  0  0  0  0  0  0
   56.2200   29.3980   52.8900 C   0  0  0  0  0  0  0  0  0  0  0  0
   56.6520   29.0090   54.0060 O   0  0  0  0  0  0  0  0  0  0  0  0
   54.8790   29.0600   52.5020 N   0  0  0  0  0  0  0  0  0  0  0  0
   53.8150   30.0020   52.2670 C   0  0  0  0  0  0  0  0  0  0  0  0
   53.5610   30.5200   50.9830 C   0  0  0  0  0  0  0  0  0  0  0  0
   52.5140   31.4280   50.7800 C   0  0  0  0  0  0  0  0  0  0  0  0
   51.6950   31.8100   51.8490 C   0  0  0  0  0  0  0  0  0  0  0  0
   50.6510   32.7100   51.6340 O   0  0  0  0  0  0  0  0  0  0  0  0
   51.9270   31.2780   53.1280 C   0  0  0  0  0  0  0  0  0  0  0  0
   50.8940   31.7210   54.4800 Cl  0  0  0  0  0  0  0  0  0  0  0  0
   52.9730   30.3630   53.3290 C   0  0  0  0  0  0  0  0  0  0  0  0
   58.1820   29.5720   51.3810 C   0  0  0  0  0  0  0  0  0  0  0  0
   58.7790   28.2350   46.7620 C   0  0  0  0  0  0  0  0  0  0  0  0
   55.7844   23.9352   46.5954 H   0  0  0  0  0  0  0  0  0  0  0  0
   54.9318   24.2760   45.0514 H   0  0  0  0  0  0  0  0  0  0  0  0
   56.7018   23.9700   45.0514 H   0  0  0  0  0  0  0  0  0  0  0  0
   56.3486   28.5059   44.3640 H   0  0  0  0  0  0  0  0  0  0  0  0
   56.9863   30.9097   44.5643 H   0  0  0  0  0  0  0  0  0  0  0  0
   58.7443   31.6094   46.1891 H   0  0  0  0  0  0  0  0  0  0  0  0
   59.2041   32.1165   49.3463 H   0  0  0  0  0  0  0  0  0  0  0  0
   57.3622   33.2852   50.5402 H   0  0  0  0  0  0  0  0  0  0  0  0
   54.8650   32.3560   51.9760 H   0  0  0  0  0  0  0  0  0  0  0  0
   54.1883   30.2100   50.1343 H   0  0  0  0  0  0  0  0  0  0  0  0
   52.3347   31.8424   49.7769 H   0  0  0  0  0  0  0  0  0  0  0  0
   53.1331   29.9265   54.3259 H   0  0  0  0  0  0  0  0  0  0  0  0
   58.4463   28.5384   51.6492 H   0  0  0  0  0  0  0  0  0  0  0  0
   59.2809   27.4804   47.3855 H   0  0  0  0  0  0  0  0  0  0  0  0
  1  2  1  0
  2  3  2  0
  2  4  1  0
  4  5  1  0
  5  6  2  0
  6  7  1  0
  7  8  2  0
  8  9  1  0
  9 10  1  0
 10 11  1  0
 11 12  2  0
 11 13  2  0
 11 14  1  0
 14 15  2  0
 15 16  1  0
 16 17  2  0
 17 18  1  0
 17 19  1  0
 19 20  1  0
 20 21  2  0
 20 22  1  0
 22 23  1  0
 23 24  2  0
 24 25  1  0
 25 26  2  0
 26 27  1  0
 26 28  1  0
 28 29  1  0
 28 30  2  0
 19 31  2  0
  9 32  2  0
 32  5  1  0
 31 14  1  0
 30 23  1  0
  1 33  1  0
  1 34  1  0
  1 35  1  0
  6 36  1  0
  7 37  1  0
  8 38  1  0
 15 39  1  0
 16 40  1  0
 18 41  1  0
 24 42  1  0
 25 43  1  0
 30 44  1  0
 31 45  1  0
 32 46  1  0
M  CHG  4   4  -1  10  -1  22  -1  27  -1
M  END
>  <UniqueID>  (73) 
71

>  <SMILES>  (73) 
CC(=O)[N-]c1cccc([N-]S(=O)(=O)c2ccc(O)c(C(=O)[N-]c3ccc([O-])c(Cl)c3)c2)c1

>  <Energy>  (73) 
63.359074618227794

>  <Genealogy>  (73) 
CC(=O)[N-]c1cccc([N-]S(=O)(=O)c2ccc(O)c(C(=O)[N-]c3ccc([O-])c(Cl)c3)c2)c1 (protonated)
CC(=O)[N-]c1cccc([N-]S(=O)(=O)c2ccc(O)c(C(=O)[N-]c3ccc([O-])c(Cl)c3)c2)c1 (3D coordinates assigned)
CC(=O)[N-]c1cccc([N-]S(=O)(=O)c2ccc(O)c(C(=O)[N-]c3ccc([O-])c(Cl)c3)c2)c1 (optimized conformer: 63.359074618227794 kcal/mol)

>  <smiles>  (73) 
CC(=O)Nc1cccc(NS(=O)(=O)c2ccc(O)c(C(=O)Nc3ccc(O)c(Cl)c3)c2)c1

>  <score_type>  (73) 
oracle

>  <origin>  (73) 
adg

>  <m_score__min__energy>  (73) 
-15.880000000000001

>  <m_primary>  (73) 
energy

$$$$
74:0
     RDKit          3D

 58 62  0  0  0  0  0  0  0  0999 V2000
   62.0410   34.2600   50.4120 O   0  0  0  0  0  0  0  0  0  0  0  0
   60.9720   33.6090   50.2650 C   0  0  0  0  0  0  0  0  0  0  0  0
   59.7980   34.0530   50.9610 N   0  0  0  0  0  0  0  0  0  0  0  0
   59.0940   33.3150   51.9730 C   0  0  0  0  0  0  0  0  0  0  0  0
   57.8770   32.6700   51.6930 C   0  0  0  0  0  0  0  0  0  0  0  0
   57.2000   31.9700   52.6970 C   0  0  0  0  0  0  0  0  0  0  0  0
   55.6630   31.1990   52.3490 Cl  0  0  0  0  0  0  0  0  0  0  0  0
   57.7490   31.8880   53.9800 C   0  0  0  0  0  0  0  0  0  0  0  0
   58.9740   32.5000   54.2580 C   0  0  0  0  0  0  0  0  0  0  0  0
   59.6510   33.2120   53.2570 C   0  0  0  0  0  0  0  0  0  0  0  0
   60.8680   33.8320   53.5380 O   0  0  0  0  0  0  0  0  0  0  0  0
   60.9510   32.4450   49.3460 C   0  0  0  0  0  0  0  0  0  0  0  0
   61.4310   32.5590   48.0310 C   0  0  0  0  0  0  0  0  0  0  0  0
   61.3800   31.4660   47.1610 C   0  0  0  0  0  0  0  0  0  0  0  0
   60.8640   30.2370   47.5960 C   0  0  0  0  0  0  0  0  0  0  0  0
   60.7670   29.0690   46.6500 C   0  0  0  0  0  0  0  0  0  0  0  0
   59.3690   28.8120   46.3000 N   0  0  0  0  0  0  0  0  0  0  0  0
   58.5000   29.7190   45.7910 C   0  0  0  0  0  0  0  0  0  0  0  0
   57.2920   29.1060   45.4850 C   0  0  0  0  0  0  0  0  0  0  0  0
   56.1330   29.7220   44.8210 C   0  0  0  0  0  0  0  0  0  0  0  0
   55.1450   29.0040   44.5180 O   0  0  0  0  0  0  0  0  0  0  0  0
   56.1190   31.1120   44.4700 N   0  0  0  0  0  0  0  0  0  0  0  0
   57.2640   31.8580   43.9520 C   0  0  0  0  0  0  0  0  0  0  0  0
   57.7940   32.7970   44.9980 C   0  0  0  0  0  0  0  0  0  0  0  0
   58.6910   33.8200   44.6560 C   0  0  0  0  0  0  0  0  0  0  0  0
   59.2280   34.6250   45.6620 C   0  0  0  0  0  0  0  0  0  0  0  0
   58.8700   34.4040   46.9940 C   0  0  0  0  0  0  0  0  0  0  0  0
   57.9720   33.3790   47.2980 C   0  0  0  0  0  0  0  0  0  0  0  0
   57.4600   32.6070   46.3050 N   0  0  0  0  0  0  0  0  0  0  0  0
   57.4460   27.7730   45.8140 C   0  0  0  0  0  0  0  0  0  0  0  0
   56.5980   26.6840   45.6290 C   0  0  0  0  0  0  0  0  0  0  0  0
   57.0800   25.4100   45.9750 C   0  0  0  0  0  0  0  0  0  0  0  0
   58.3860   25.2550   46.4880 C   0  0  0  0  0  0  0  0  0  0  0  0
   59.2250   26.3690   46.6530 C   0  0  0  0  0  0  0  0  0  0  0  0
   58.7220   27.6250   46.3010 C   0  0  0  0  0  0  0  0  0  0  0  0
   60.4240   30.1090   48.9210 C   0  0  0  0  0  0  0  0  0  0  0  0
   60.4650   31.2040   49.7900 C   0  0  0  0  0  0  0  0  0  0  0  0
   57.4545   32.7160   50.6784 H   0  0  0  0  0  0  0  0  0  0  0  0
   57.2160   31.3410   54.7717 H   0  0  0  0  0  0  0  0  0  0  0  0
   59.4089   32.4231   55.2654 H   0  0  0  0  0  0  0  0  0  0  0  0
   61.4580   34.1990   52.8010 H   0  0  0  0  0  0  0  0  0  0  0  0
   61.8499   33.5148   47.6833 H   0  0  0  0  0  0  0  0  0  0  0  0
   61.7468   31.5707   46.1292 H   0  0  0  0  0  0  0  0  0  0  0  0
   61.3342   29.2952   45.7351 H   0  0  0  0  0  0  0  0  0  0  0  0
   61.1824   28.1764   47.1406 H   0  0  0  0  0  0  0  0  0  0  0  0
   58.7198   30.7864   45.6418 H   0  0  0  0  0  0  0  0  0  0  0  0
   58.0565   31.1516   43.6640 H   0  0  0  0  0  0  0  0  0  0  0  0
   56.9427   32.4428   43.0775 H   0  0  0  0  0  0  0  0  0  0  0  0
   58.9686   33.9862   43.6047 H   0  0  0  0  0  0  0  0  0  0  0  0
   59.9313   35.4313   45.4065 H   0  0  0  0  0  0  0  0  0  0  0  0
   59.2908   35.0304   47.7943 H   0  0  0  0  0  0  0  0  0  0  0  0
   57.6791   33.1967   48.3425 H   0  0  0  0  0  0  0  0  0  0  0  0
   55.5835   26.8167   45.2250 H   0  0  0  0  0  0  0  0  0  0  0  0
   56.4355   24.5280   45.8453 H   0  0  0  0  0  0  0  0  0  0  0  0
   58.7495   24.2533   46.7608 H   0  0  0  0  0  0  0  0  0  0  0  0
   60.2459   26.2568   47.0469 H   0  0  0  0  0  0  0  0  0  0  0  0
   60.0440   29.1409   49.2794 H   0  0  0  0  0  0  0  0  0  0  0  0
   60.1148   31.0929   50.8268 H   0  0  0  0  0  0  0  0  0  0  0  0
  1  2  2  0
  2  3  1  0
  3  4  1  0
  4  5  2  0
  5  6  1  0
  6  7  1  0
  6  8  2  0
  8  9  1  0
  9 10  2  0
 10 11  1  0
  2 12  1  0
 12 13  2  0
 13 14  1  0
 14 15  2  0
 15 16  1  0
 16 17  1  0
 17 18  1  0
 18 19  2  0
 19 20  1  0
 20 21  2  0
 20 22  1  0
 22 23  1  0
 23 24  1  0
 24 25  2  0
 25 26  1  0
 26 27  2  0
 27 28  1  0
 28 29  2  0
 19 30  1  0
 30 31  2  0
 31 32  1  0
 32 33  2  0
 33 34  1  0
 34 35  2  0
 15 36  1  0
 36 37  2  0
 10  4  1  0
 37 12  1  0
 35 17  1  0
 29 24  1  0
 35 30  1  0
  5 38  1  0
  8 39  1  0
  9 40  1  0
 11 41  1  0
 13 42  1  0
 14 43  1  0
 16 44  1  0
 16 45  1  0
 18 46  1  0
 23 47  1  0
 23 48  1  0
 25 49  1  0
 26 50  1  0
 27 51  1  0
 28 52  1  0
 31 53  1  0
 32 54  1  0
 33 55  1  0
 34 56  1  0
 36 57  1  0
 37 58  1  0
M  CHG  2   3  -1  22  -1
M  END
>  <UniqueID>  (74) 
72

>  <SMILES>  (74) 
O=C([N-]c1cc(Cl)ccc1O)c1ccc(Cn2cc(C(=O)[N-]Cc3ccccn3)c3ccccc32)cc1

>  <Energy>  (74) 
100.55453281418106

>  <Genealogy>  (74) 
O=C([N-]c1cc(Cl)ccc1O)c1ccc(Cn2cc(C(=O)[N-]Cc3ccccn3)c3ccccc32)cc1 (protonated)
O=C([N-]c1cc(Cl)ccc1O)c1ccc(Cn2cc(C(=O)[N-]Cc3ccccn3)c3ccccc32)cc1 (3D coordinates assigned)
O=C([N-]c1cc(Cl)ccc1O)c1ccc(Cn2cc(C(=O)[N-]Cc3ccccn3)c3ccccc32)cc1 (optimized conformer: 100.55453281418106 kcal/mol)

>  <smiles>  (74) 
O=C(Nc1cc(Cl)ccc1O)c1ccc(Cn2cc(C(=O)NCc3ccccn3)c3ccccc32)cc1

>  <score_type>  (74) 
oracle

>  <origin>  (74) 
adg

>  <m_score__min__energy>  (74) 
-14.970000000000001

>  <m_primary>  (74) 
energy

$$$$
75:0
     RDKit          3D

 73 76  0  0  0  0  0  0  0  0999 V2000
   64.5499   33.2744   46.9400 H   0  0  0  0  0  0  0  0  0  0  0  0
   63.7770   33.0440   47.6880 C   0  0  0  0  0  0  0  0  0  0  0  0
   63.6990   33.7920   48.8650 C   0  0  0  0  0  0  0  0  0  0  0  0
   64.4073   34.6151   49.0407 H   0  0  0  0  0  0  0  0  0  0  0  0
   62.7220   33.4960   49.8200 C   0  0  0  0  0  0  0  0  0  0  0  0
   62.6509   34.1016   50.7355 H   0  0  0  0  0  0  0  0  0  0  0  0
   61.8300   32.4290   49.6170 C   0  0  0  0  0  0  0  0  0  0  0  0
   60.8390   32.1380   50.6190 N   0  0  0  0  0  0  0  0  0  0  0  0
   60.4300   32.9420   51.1490 H   0  0  0  0  0  0  0  0  0  0  0  0
   60.3440   30.8180   50.9150 C   0  0  0  0  0  0  0  0  0  0  0  0
   58.9570   30.6930   51.4070 C   0  0  0  0  0  0  0  0  0  0  0  0
   58.0290   31.7120   51.1550 C   0  0  0  0  0  0  0  0  0  0  0  0
   58.3318   32.6000   50.5807 H   0  0  0  0  0  0  0  0  0  0  0  0
   56.7180   31.6030   51.6320 C   0  0  0  0  0  0  0  0  0  0  0  0
   55.9930   32.4065   51.4349 H   0  0  0  0  0  0  0  0  0  0  0  0
   56.3280   30.4720   52.3600 C   0  0  0  0  0  0  0  0  0  0  0  0
   54.5440   30.3300   53.0250 Br  0  0  0  0  0  0  0  0  0  0  0  0
   57.2480   29.4460   52.6010 C   0  0  0  0  0  0  0  0  0  0  0  0
   56.9402   28.5543   53.1668 H   0  0  0  0  0  0  0  0  0  0  0  0
   58.5580   29.5520   52.1240 C   0  0  0  0  0  0  0  0  0  0  0  0
   59.2775   28.7410   52.3102 H   0  0  0  0  0  0  0  0  0  0  0  0
   61.1420   29.7840   50.8500 N   0  0  0  0  0  0  0  0  0  0  0  0
   61.8030   29.6130   51.6390 H   0  0  0  0  0  0  0  0  0  0  0  0
   61.1350   28.8200   49.7410 C   0  0  0  0  0  0  0  0  0  0  0  0
   61.4431   27.8354   50.1227 H   0  0  0  0  0  0  0  0  0  0  0  0
   61.8320   29.1798   48.9698 H   0  0  0  0  0  0  0  0  0  0  0  0
   59.7420   28.6940   49.1060 C   0  0  0  0  0  0  0  0  0  0  0  0
   58.9889   28.7503   49.9058 H   0  0  0  0  0  0  0  0  0  0  0  0
   59.7161   27.7317   48.5738 H   0  0  0  0  0  0  0  0  0  0  0  0
   59.4360   29.7870   48.0740 C   0  0  0  0  0  0  0  0  0  0  0  0
   60.3810   30.2408   47.7408 H   0  0  0  0  0  0  0  0  0  0  0  0
   58.7894   30.5413   48.5462 H   0  0  0  0  0  0  0  0  0  0  0  0
   58.7260   29.2290   46.8980 N   0  0  0  0  0  0  0  0  0  0  0  0
   59.5660   29.2590   45.6880 C   0  0  0  0  0  0  0  0  0  0  0  0
   60.3728   28.5178   45.7861 H   0  0  0  0  0  0  0  0  0  0  0  0
   59.9958   30.2648   45.5715 H   0  0  0  0  0  0  0  0  0  0  0  0
   58.7130   28.9250   44.4450 C   0  0  0  0  0  0  0  0  0  0  0  0
   59.3582   28.4359   43.7004 H   0  0  0  0  0  0  0  0  0  0  0  0
   58.2945   29.8722   44.0740 H   0  0  0  0  0  0  0  0  0  0  0  0
   57.5680   28.0250   44.7400 N   0  0  0  0  0  0  0  0  0  0  0  0
   56.3020   28.7740   44.9180 C   0  0  0  0  0  0  0  0  0  0  0  0
   56.2750   29.1845   45.9382 H   0  0  0  0  0  0  0  0  0  0  0  0
   55.4714   28.0745   44.7424 H   0  0  0  0  0  0  0  0  0  0  0  0
   56.1590   29.9320   43.9160 C   0  0  0  0  0  0  0  0  0  0  0  0
   55.1294   29.9493   43.5292 H   0  0  0  0  0  0  0  0  0  0  0  0
   56.8738   29.7779   43.0942 H   0  0  0  0  0  0  0  0  0  0  0  0
   56.4510   31.2100   44.5570 N   0  0  0  0  0  0  0  0  0  0  0  0
   57.4540   32.1140   44.0840 C   0  0  0  0  0  0  0  0  0  0  0  0
   58.3170   31.7240   43.2520 O   0  0  0  0  0  0  0  0  0  0  0  0
   57.4330   33.5420   44.5400 C   0  0  0  0  0  0  0  0  0  0  0  0
   57.8894   34.1733   43.7634 H   0  0  0  0  0  0  0  0  0  0  0  0
   56.3876   33.8363   44.7146 H   0  0  0  0  0  0  0  0  0  0  0  0
   58.1980   33.7150   45.8260 C   0  0  0  0  0  0  0  0  0  0  0  0
   57.8980   32.9190   46.9450 C   0  0  0  0  0  0  0  0  0  0  0  0
   57.1211   32.1435   46.8739 H   0  0  0  0  0  0  0  0  0  0  0  0
   58.5840   33.1100   48.1480 C   0  0  0  0  0  0  0  0  0  0  0  0
   58.3522   32.4785   49.0183 H   0  0  0  0  0  0  0  0  0  0  0  0
   59.5640   34.1020   48.2470 C   0  0  0  0  0  0  0  0  0  0  0  0
   60.1001   34.2524   49.1957 H   0  0  0  0  0  0  0  0  0  0  0  0
   59.8630   34.9030   47.1410 C   0  0  0  0  0  0  0  0  0  0  0  0
   60.6337   35.6839   47.2199 H   0  0  0  0  0  0  0  0  0  0  0  0
   59.1830   34.7120   45.9350 C   0  0  0  0  0  0  0  0  0  0  0  0
   59.4197   35.3448   45.0670 H   0  0  0  0  0  0  0  0  0  0  0  0
   57.8790   27.1050   45.8540 C   0  0  0  0  0  0  0  0  0  0  0  0
   58.7295   26.4716   45.5617 H   0  0  0  0  0  0  0  0  0  0  0  0
   56.9788   26.5054   46.0541 H   0  0  0  0  0  0  0  0  0  0  0  0
   58.2430   27.8540   47.1540 C   0  0  0  0  0  0  0  0  0  0  0  0
   59.0333   27.2935   47.6749 H   0  0  0  0  0  0  0  0  0  0  0  0
   57.3309   27.9278   47.7645 H   0  0  0  0  0  0  0  0  0  0  0  0
   61.8970   31.7000   48.4150 C   0  0  0  0  0  0  0  0  0  0  0  0
   61.1787   30.8887   48.2254 H   0  0  0  0  0  0  0  0  0  0  0  0
   62.8730   32.0030   47.4610 C   0  0  0  0  0  0  0  0  0  0  0  0
   62.9294   31.4206   46.5296 H   0  0  0  0  0  0  0  0  0  0  0  0
  1  2  1  0
  2  3  2  0
  3  4  1  0
  3  5  1  0
  5  6  1  0
  5  7  2  0
  7  8  1  0
  8  9  1  0
  8 10  1  0
 10 11  1  0
 11 12  2  0
 12 13  1  0
 12 14  1  0
 14 15  1  0
 14 16  2  0
 16 17  1  0
 16 18  1  0
 18 19  1  0
 18 20  2  0
 20 21  1  0
 10 22  2  0
 22 23  1  0
 22 24  1  0
 24 25  1  0
 24 26  1  0
 24 27  1  0
 27 28  1  0
 27 29  1  0
 27 30  1  0
 30 31  1  0
 30 32  1  0
 30 33  1  0
 33 34  1  0
 34 35  1  0
 34 36  1  0
 34 37  1  0
 37 38  1  0
 37 39  1  0
 37 40  1  0
 40 41  1  0
 41 42  1  0
 41 43  1  0
 41 44  1  0
 44 45  1  0
 44 46  1  0
 44 47  1  0
 47 48  1  0
 48 49  2  0
 48 50  1  0
 50 51  1  0
 50 52  1  0
 50 53  1  0
 53 54  2  0
 54 55  1  0
 54 56  1  0
 56 57  1  0
 56 58  2  0
 58 59  1  0
 58 60  1  0
 60 61  1  0
 60 62  2  0
 62 63  1  0
 40 64  1  0
 64 65  1  0
 64 66  1  0
 64 67  1  0
 67 68  1  0
 67 69  1  0
  7 70  1  0
 70 71  1  0
 70 72  2  0
 72 73  1  0
 72  2  1  0
 20 11  1  0
 67 33  1  0
 62 53  1  0
M  CHG  2  22   1  47  -1
M  END
>  <UniqueID>  (75) 
73

>  <SMILES>  (75) 
O=C(Cc1ccccc1)[N-]CCN1CCN(CCC/[NH+]=C(/Nc2ccccc2)c2ccc(Br)cc2)CC1

>  <Energy>  (75) 
87.39904364663873

>  <Genealogy>  (75) 
O=C(Cc1ccccc1)[N-]CCN1CCN(CCC[NH+]=C(Nc2ccccc2)c2ccc(Br)cc2)CC1 (protonated)
O=C(Cc1ccccc1)[N-]CCN1CCN(CCC/[NH+]=C(/Nc2ccccc2)c2ccc(Br)cc2)CC1 (cis-trans isomerization)
O=C(Cc1ccccc1)[N-]CCN1CCN(CCC/[NH+]=C(/Nc2ccccc2)c2ccc(Br)cc2)CC1 (3D coordinates assigned)
O=C(Cc1ccccc1)[N-]CCN1CCN(CCC/[NH+]=C(/Nc2ccccc2)c2ccc(Br)cc2)CC1 (nonaromatic ring conformer: 87.39904364663873 kcal/mol)

>  <smiles>  (75) 
O=C(Cc1ccccc1)NCCN1CCN(CCCN=C(Nc2ccccc2)c2ccc(Br)cc2)CC1

>  <score_type>  (75) 
oracle

>  <origin>  (75) 
adg

>  <m_score__min__energy>  (75) 
-10.56

>  <m_primary>  (75) 
energy

$$$$
76:0
     RDKit          3D

 28 29  0  0  0  0  0  0  0  0999 V2000
   57.0273   25.7776   46.3764 H   0  0  0  0  0  0  0  0  0  0  0  0
   56.2690   26.5120   46.0670 C   0  0  0  0  0  0  0  0  0  0  0  0
   55.2004   26.2585   46.1289 H   0  0  0  0  0  0  0  0  0  0  0  0
   56.6460   27.7120   45.6160 C   0  0  0  0  0  0  0  0  0  0  0  0
   55.6900   28.5990   45.2410 N   0  0  0  0  0  0  0  0  0  0  0  0
   55.9950   29.8110   44.7850 N   0  0  0  0  0  0  0  0  0  0  0  0
   57.2800   30.2370   44.6530 C   0  0  0  0  0  0  0  0  0  0  0  0
   57.5140   31.6260   44.1870 C   0  0  0  0  0  0  0  0  0  0  0  0
   57.9758   31.7633   43.1981 H   0  0  0  0  0  0  0  0  0  0  0  0
   57.2010   32.7270   44.8890 C   0  0  0  0  0  0  0  0  0  0  0  0
   56.1965   33.1512   44.7442 H   0  0  0  0  0  0  0  0  0  0  0  0
   58.1000   33.4150   45.8420 C   0  0  0  0  0  0  0  0  0  0  0  0
   58.8900   34.5110   45.4490 C   0  0  0  0  0  0  0  0  0  0  0  0
   58.8271   34.8892   44.4180 H   0  0  0  0  0  0  0  0  0  0  0  0
   59.7550   35.1220   46.3630 C   0  0  0  0  0  0  0  0  0  0  0  0
   60.3573   35.9893   46.0548 H   0  0  0  0  0  0  0  0  0  0  0  0
   59.8540   34.6310   47.6670 C   0  0  0  0  0  0  0  0  0  0  0  0
   60.5288   35.1167   48.3873 H   0  0  0  0  0  0  0  0  0  0  0  0
   59.0970   33.5240   48.0570 C   0  0  0  0  0  0  0  0  0  0  0  0
   59.1826   33.1336   49.0818 H   0  0  0  0  0  0  0  0  0  0  0  0
   58.2300   32.9110   47.1460 C   0  0  0  0  0  0  0  0  0  0  0  0
   57.6473   32.0299   47.4528 H   0  0  0  0  0  0  0  0  0  0  0  0
   58.3360   29.3670   45.0260 C   0  0  0  0  0  0  0  0  0  0  0  0
   59.6270   29.7270   44.8930 C   0  0  0  0  0  0  0  0  0  0  0  0
   60.4254   29.0314   45.1907 H   0  0  0  0  0  0  0  0  0  0  0  0
   59.8830   30.7166   44.4867 H   0  0  0  0  0  0  0  0  0  0  0  0
   58.0000   28.0850   45.5180 C   0  0  0  0  0  0  0  0  0  0  0  0
   58.9070   27.2730   45.8630 O   0  0  0  0  0  0  0  0  0  0  0  0
  1  2  1  0
  2  3  1  0
  2  4  2  0
  4  5  1  0
  5  6  1  0
  6  7  2  0
  7  8  1  0
  8  9  1  0
  8 10  2  0
 10 11  1  0
 10 12  1  0
 12 13  2  0
 13 14  1  0
 13 15  1  0
 15 16  1  0
 15 17  2  0
 17 18  1  0
 17 19  1  0
 19 20  1  0
 19 21  2  0
 21 22  1  0
  7 23  1  0
 23 24  2  0
 24 25  1  0
 24 26  1  0
 23 27  1  0
 27 28  2  0
 27  4  1  0
 21 12  1  0
M  CHG  1   5  -1
M  END
>  <UniqueID>  (76) 
74

>  <SMILES>  (76) 
C=c1[n-]nc(/C=C\c2ccccc2)c(=C)c1=O

>  <Energy>  (76) 
45.08891674855448

>  <Genealogy>  (76) 
C=c1[n-]nc(C=Cc2ccccc2)c(=C)c1=O (protonated)
C=c1[n-]nc(/C=C\c2ccccc2)c(=C)c1=O (cis-trans isomerization)
C=c1[n-]nc(/C=C\c2ccccc2)c(=C)c1=O (3D coordinates assigned)
C=c1[n-]nc(/C=C\c2ccccc2)c(=C)c1=O (optimized conformer: 45.08891674855448 kcal/mol)

>  <smiles>  (76) 
C=c1[nH]nc(C=Cc2ccccc2)c(=C)c1=O

>  <score_type>  (76) 
oracle

>  <origin>  (76) 
adg

>  <m_score__min__energy>  (76) 
-9.2799999999999994

>  <m_primary>  (76) 
energy

$$$$
77:0
     RDKit          3D

 54 56  0  0  0  0  0  0  0  0999 V2000
   57.8120   32.0850   42.4110 C   0  0  0  0  0  0  0  0  0  0  0  0
   57.0140   31.0420   42.6200 C   0  0  0  0  0  0  0  0  0  0  0  0
   56.5970   30.6210   43.9670 C   0  0  0  0  0  0  0  0  0  0  0  0
   56.2780   31.4980   44.8130 O   0  0  0  0  0  0  0  0  0  0  0  0
   56.5450   29.2350   44.3130 N   0  0  0  0  0  0  0  0  0  0  0  0
   57.8680   28.1460   44.0620 S   0  0  0  0  0  0  0  0  0  0  0  0
   57.7880   27.5370   42.6890 O   0  0  0  0  0  0  0  0  0  0  0  0
   59.1510   28.9170   44.1900 O   0  0  0  0  0  0  0  0  0  0  0  0
   57.8090   26.8540   45.2720 C   0  0  0  0  0  0  0  0  0  0  0  0
   57.2870   25.6050   44.9000 C   0  0  0  0  0  0  0  0  0  0  0  0
   57.2720   24.5420   45.8050 C   0  0  0  0  0  0  0  0  0  0  0  0
   57.7790   24.7120   47.0930 C   0  0  0  0  0  0  0  0  0  0  0  0
   58.2920   25.9500   47.4840 C   0  0  0  0  0  0  0  0  0  0  0  0
   58.3020   27.0340   46.5900 C   0  0  0  0  0  0  0  0  0  0  0  0
   58.8230   28.3320   47.0670 C   0  0  0  0  0  0  0  0  0  0  0  0
   60.0260   28.3930   47.7850 C   0  0  0  0  0  0  0  0  0  0  0  0
   60.5140   29.6210   48.2380 C   0  0  0  0  0  0  0  0  0  0  0  0
   59.8200   30.8070   47.9580 C   0  0  0  0  0  0  0  0  0  0  0  0
   60.3350   32.1250   48.4680 C   0  0  0  0  0  0  0  0  0  0  0  0
   61.4500   32.5910   47.6390 N   0  0  0  0  0  0  0  0  0  0  0  0
   61.4990   33.6100   46.7440 C   0  0  0  0  0  0  0  0  0  0  0  0
   60.3440   34.5160   46.3980 C   0  0  0  0  0  0  0  0  0  0  0  0
   59.6630   34.1380   45.0740 C   0  0  0  0  0  0  0  0  0  0  0  0
   58.1350   34.0640   45.2130 C   0  0  0  0  0  0  0  0  0  0  0  0
   57.7260   33.8320   46.6640 C   0  0  0  0  0  0  0  0  0  0  0  0
   62.7540   33.7940   46.2760 N   0  0  0  0  0  0  0  0  0  0  0  0
   63.5120   32.8770   46.8570 N   0  0  0  0  0  0  0  0  0  0  0  0
   62.7260   32.1660   47.6780 C   0  0  0  0  0  0  0  0  0  0  0  0
   63.1410   31.2270   48.4080 O   0  0  0  0  0  0  0  0  0  0  0  0
   58.6220   30.7470   47.2290 C   0  0  0  0  0  0  0  0  0  0  0  0
   58.1300   29.5170   46.7810 C   0  0  0  0  0  0  0  0  0  0  0  0
   58.0972   32.3625   41.3855 H   0  0  0  0  0  0  0  0  0  0  0  0
   58.1869   32.6703   43.2636 H   0  0  0  0  0  0  0  0  0  0  0  0
   56.6514   30.4716   41.7521 H   0  0  0  0  0  0  0  0  0  0  0  0
   56.8859   25.4625   43.8857 H   0  0  0  0  0  0  0  0  0  0  0  0
   56.8595   23.5685   45.5015 H   0  0  0  0  0  0  0  0  0  0  0  0
   57.7747   23.8702   47.8011 H   0  0  0  0  0  0  0  0  0  0  0  0
   58.6919   26.0780   48.5007 H   0  0  0  0  0  0  0  0  0  0  0  0
   60.5876   27.4702   47.9923 H   0  0  0  0  0  0  0  0  0  0  0  0
   61.4481   29.6579   48.8177 H   0  0  0  0  0  0  0  0  0  0  0  0
   59.5244   32.8679   48.4367 H   0  0  0  0  0  0  0  0  0  0  0  0
   60.6878   31.9953   49.5018 H   0  0  0  0  0  0  0  0  0  0  0  0
   59.5987   34.4582   47.2050 H   0  0  0  0  0  0  0  0  0  0  0  0
   60.7457   35.5336   46.2836 H   0  0  0  0  0  0  0  0  0  0  0  0
   59.9144   34.8951   44.3166 H   0  0  0  0  0  0  0  0  0  0  0  0
   60.0256   33.1427   44.7776 H   0  0  0  0  0  0  0  0  0  0  0  0
   57.6962   35.0100   44.8630 H   0  0  0  0  0  0  0  0  0  0  0  0
   57.7697   33.2210   44.6081 H   0  0  0  0  0  0  0  0  0  0  0  0
   58.4858   34.2630   47.3325 H   0  0  0  0  0  0  0  0  0  0  0  0
   56.7555   34.3141   46.8530 H   0  0  0  0  0  0  0  0  0  0  0  0
   57.6417   32.7516   46.8530 H   0  0  0  0  0  0  0  0  0  0  0  0
   64.5390   32.7630   46.7050 H   0  0  0  0  0  0  0  0  0  0  0  0
   58.0678   31.6714   47.0092 H   0  0  0  0  0  0  0  0  0  0  0  0
   57.1956   29.4789   46.2019 H   0  0  0  0  0  0  0  0  0  0  0  0
  1  2  2  0
  2  3  1  0
  3  4  2  0
  3  5  1  0
  5  6  1  0
  6  7  2  0
  6  8  2  0
  6  9  1  0
  9 10  2  0
 10 11  1  0
 11 12  2  0
 12 13  1  0
 13 14  2  0
 14 15  1  0
 15 16  2  0
 16 17  1  0
 17 18  2  0
 18 19  1  0
 19 20  1  0
 20 21  1  0
 21 22  1  0
 22 23  1  0
 23 24  1  0
 24 25  1  0
 21 26  2  0
 26 27  1  0
 27 28  1  0
 28 29  2  0
 18 30  1  0
 30 31  2  0
 14  9  1  0
 31 15  1  0
 28 20  1  0
  1 32  1  0
  1 33  1  0
  2 34  1  0
 10 35  1  0
 11 36  1  0
 12 37  1  0
 13 38  1  0
 16 39  1  0
 17 40  1  0
 19 41  1  0
 19 42  1  0
 22 43  1  0
 22 44  1  0
 23 45  1  0
 23 46  1  0
 24 47  1  0
 24 48  1  0
 25 49  1  0
 25 50  1  0
 25 51  1  0
 27 52  1  0
 30 53  1  0
 31 54  1  0
M  CHG  1   5  -1
M  END
>  <UniqueID>  (77) 
75

>  <SMILES>  (77) 
C=CC(=O)[N-]S(=O)(=O)c1ccccc1-c1ccc(Cn2c(CCCC)n[nH]c2=O)cc1

>  <Energy>  (77) 
88.92611940994799

>  <Genealogy>  (77) 
C=CC(=O)[N-]S(=O)(=O)c1ccccc1-c1ccc(Cn2c(CCCC)n[nH]c2=O)cc1 (protonated)
C=CC(=O)[N-]S(=O)(=O)c1ccccc1-c1ccc(Cn2c(CCCC)n[nH]c2=O)cc1 (3D coordinates assigned)
C=CC(=O)[N-]S(=O)(=O)c1ccccc1-c1ccc(Cn2c(CCCC)n[nH]c2=O)cc1 (optimized conformer: 88.92611940994799 kcal/mol)

>  <smiles>  (77) 
C=CC(=O)NS(=O)(=O)c1ccccc1-c1ccc(Cn2c(CCCC)n[nH]c2=O)cc1

>  <score_type>  (77) 
oracle

>  <origin>  (77) 
adg

>  <m_score__min__energy>  (77) 
-11.1

>  <m_primary>  (77) 
energy

$$$$
78:0
     RDKit          3D

 46 48  0  0  0  0  0  0  0  0999 V2000
   60.8020   32.9580   48.7940 C   0  0  0  0  0  0  0  0  0  0  0  0
   59.7520   32.3300   47.9840 N   0  0  0  0  0  0  0  0  0  0  0  0
   58.6590   33.1610   47.4660 C   0  0  0  0  0  0  0  0  0  0  0  0
   59.7780   30.9040   47.7220 C   0  0  0  0  0  0  0  0  0  0  0  0
   60.6830   30.3580   46.7900 C   0  0  0  0  0  0  0  0  0  0  0  0
   60.6800   28.9890   46.5070 C   0  0  0  0  0  0  0  0  0  0  0  0
   59.7670   28.1360   47.1440 C   0  0  0  0  0  0  0  0  0  0  0  0
   59.7030   26.6760   46.7720 C   0  0  0  0  0  0  0  0  0  0  0  0
   58.5210   26.3800   45.9450 N   0  0  0  0  0  0  0  0  0  0  0  0
   58.4030   26.9470   44.5890 C   0  0  0  0  0  0  0  0  0  0  0  0
   57.9000   28.3700   44.6300 C   0  0  0  0  0  0  0  0  0  0  0  0
   58.6920   29.4180   44.1400 C   0  0  0  0  0  0  0  0  0  0  0  0
   58.2560   30.7020   44.2240 N   0  0  0  0  0  0  0  0  0  0  0  0
   57.0470   30.9940   44.7660 C   0  0  0  0  0  0  0  0  0  0  0  0
   56.6650   32.1900   44.8430 O   0  0  0  0  0  0  0  0  0  0  0  0
   56.2480   29.9960   45.2250 N   0  0  0  0  0  0  0  0  0  0  0  0
   56.6410   28.6970   45.1630 C   0  0  0  0  0  0  0  0  0  0  0  0
   55.8700   27.7990   45.5920 O   0  0  0  0  0  0  0  0  0  0  0  0
   57.4980   25.5060   46.4660 C   0  0  0  0  0  0  0  0  0  0  0  0
   57.3500   25.3990   47.7120 O   0  0  0  0  0  0  0  0  0  0  0  0
   56.6620   24.6860   45.5660 C   0  0  0  0  0  0  0  0  0  0  0  0
   57.0720   23.5550   44.8900 C   0  0  0  0  0  0  0  0  0  0  0  0
   55.9530   23.0870   44.2370 C   0  0  0  0  0  0  0  0  0  0  0  0
   55.9250   21.9540   43.4360 O   0  0  0  0  0  0  0  0  0  0  0  0
   54.8700   23.8560   44.4640 N   0  0  0  0  0  0  0  0  0  0  0  0
   55.3110   24.8330   45.2810 C   0  0  0  0  0  0  0  0  0  0  0  0
   54.4790   25.8540   45.7360 O   0  0  0  0  0  0  0  0  0  0  0  0
   58.8910   28.6630   48.1010 C   0  0  0  0  0  0  0  0  0  0  0  0
   58.8910   30.0320   48.3850 C   0  0  0  0  0  0  0  0  0  0  0  0
   60.5730   32.8211   49.8612 H   0  0  0  0  0  0  0  0  0  0  0  0
   61.7711   32.4911   48.5640 H   0  0  0  0  0  0  0  0  0  0  0  0
   60.8490   34.0327   48.5640 H   0  0  0  0  0  0  0  0  0  0  0  0
   58.0945   33.5902   48.3069 H   0  0  0  0  0  0  0  0  0  0  0  0
   59.0752   33.9728   46.8514 H   0  0  0  0  0  0  0  0  0  0  0  0
   57.9880   32.5429   46.8514 H   0  0  0  0  0  0  0  0  0  0  0  0
   61.4004   31.0169   46.2790 H   0  0  0  0  0  0  0  0  0  0  0  0
   61.3974   28.5787   45.7810 H   0  0  0  0  0  0  0  0  0  0  0  0
   60.6093   26.4111   46.2076 H   0  0  0  0  0  0  0  0  0  0  0  0
   59.6317   26.0871   47.6983 H   0  0  0  0  0  0  0  0  0  0  0  0
   59.3914   26.9303   44.1066 H   0  0  0  0  0  0  0  0  0  0  0  0
   57.6819   26.3406   44.0212 H   0  0  0  0  0  0  0  0  0  0  0  0
   59.6699   29.1999   43.6859 H   0  0  0  0  0  0  0  0  0  0  0  0
   58.0815   23.1184   44.8756 H   0  0  0  0  0  0  0  0  0  0  0  0
   54.3360   26.7070   45.2110 H   0  0  0  0  0  0  0  0  0  0  0  0
   58.1978   27.9950   48.6332 H   0  0  0  0  0  0  0  0  0  0  0  0
   58.1916   30.4327   49.1335 H   0  0  0  0  0  0  0  0  0  0  0  0
  1  2  1  0
  2  3  1  0
  2  4  1  0
  4  5  2  0
  5  6  1  0
  6  7  2  0
  7  8  1  0
  8  9  1  0
  9 10  1  0
 10 11  1  0
 11 12  2  0
 12 13  1  0
 13 14  1  0
 14 15  2  0
 14 16  1  0
 16 17  1  0
 17 18  2  0
  9 19  1  0
 19 20  2  0
 19 21  1  0
 21 22  1  0
 22 23  2  0
 23 24  1  0
 23 25  1  0
 25 26  1  0
 26 27  1  0
  7 28  1  0
 28 29  2  0
 29  4  1  0
 17 11  1  0
 26 21  2  0
  1 30  1  0
  1 31  1  0
  1 32  1  0
  3 33  1  0
  3 34  1  0
  3 35  1  0
  5 36  1  0
  6 37  1  0
  8 38  1  0
  8 39  1  0
 10 40  1  0
 10 41  1  0
 12 42  1  0
 22 43  1  0
 27 44  1  0
 28 45  1  0
 29 46  1  0
M  CHG  4  13  -1  16  -1  24  -1  25  -1
M  END
>  <UniqueID>  (78) 
76

>  <SMILES>  (78) 
CN(C)c1ccc(CN(Cc2c[n-]c(=O)[n-]c2=O)C(=O)c2cc([O-])[n-]c2O)cc1

>  <Energy>  (78) 
78.98346900562453

>  <Genealogy>  (78) 
CN(C)c1ccc(CN(Cc2c[n-]c(=O)[n-]c2=O)C(=O)c2cc([O-])[n-]c2O)cc1 (protonated)
CN(C)c1ccc(CN(Cc2c[n-]c(=O)[n-]c2=O)C(=O)c2cc([O-])[n-]c2O)cc1 (3D coordinates assigned)
CN(C)c1ccc(CN(Cc2c[n-]c(=O)[n-]c2=O)C(=O)c2cc([O-])[n-]c2O)cc1 (optimized conformer: 78.98346900562453 kcal/mol)

>  <smiles>  (78) 
CN(C)c1ccc(CN(Cc2c[nH]c(=O)[nH]c2=O)C(=O)c2cc(O)[nH]c2O)cc1

>  <score_type>  (78) 
oracle

>  <origin>  (78) 
adg

>  <m_score__min__energy>  (78) 
-15.640000000000001

>  <m_primary>  (78) 
energy

$$$$
79:0
     RDKit          3D

 25 26  0  0  0  0  0  0  0  0999 V2000
   58.4010   32.2530   50.7240 C   0  0  0  0  0  0  0  0  0  0  0  0
   57.5220   31.3240   51.4940 C   0  0  0  0  0  0  0  0  0  0  0  0
   56.1900   31.4900   51.6360 N   0  0  0  0  0  0  0  0  0  0  0  0
   55.6040   30.4680   52.3220 C   0  0  0  0  0  0  0  0  0  0  0  0
   54.1560   30.4330   52.6030 C   0  0  0  0  0  0  0  0  0  0  0  0
   53.6460   29.5030   53.4500 N   0  0  0  0  0  0  0  0  0  0  0  0
   52.3200   29.4540   53.7300 C   0  0  0  0  0  0  0  0  0  0  0  0
   51.8980   28.5700   54.5210 O   0  0  0  0  0  0  0  0  0  0  0  0
   51.4350   30.3820   53.1420 C   0  0  0  0  0  0  0  0  0  0  0  0
   49.9630   30.3490   53.4790 C   0  0  0  0  0  0  0  0  0  0  0  0
   51.9840   31.3320   52.2400 C   0  0  0  0  0  0  0  0  0  0  0  0
   51.1800   32.3460   51.5150 C   0  0  0  0  0  0  0  0  0  0  0  0
   50.6520   33.2920   52.1590 O   0  0  0  0  0  0  0  0  0  0  0  0
   51.0190   32.3110   50.1360 O   0  0  0  0  0  0  0  0  0  0  0  0
   53.3250   31.3270   52.0120 N   0  0  0  0  0  0  0  0  0  0  0  0
   56.4850   29.4630   52.7230 C   0  0  0  0  0  0  0  0  0  0  0  0
   58.0270   29.8820   52.1920 S   0  0  0  0  0  0  0  0  0  0  0  0
   58.9845   32.8697   51.4234 H   0  0  0  0  0  0  0  0  0  0  0  0
   59.0855   31.6696   50.0906 H   0  0  0  0  0  0  0  0  0  0  0  0
   57.7807   32.9042   50.0906 H   0  0  0  0  0  0  0  0  0  0  0  0
   55.6700   32.3120   51.2520 H   0  0  0  0  0  0  0  0  0  0  0  0
   49.8370   30.3462   54.5718 H   0  0  0  0  0  0  0  0  0  0  0  0
   49.4699   31.2363   53.0553 H   0  0  0  0  0  0  0  0  0  0  0  0
   49.5101   29.4405   53.0553 H   0  0  0  0  0  0  0  0  0  0  0  0
   56.2190   28.5566   53.2867 H   0  0  0  0  0  0  0  0  0  0  0  0
  1  2  1  0
  2  3  2  0
  3  4  1  0
  4  5  1  0
  5  6  2  0
  6  7  1  0
  7  8  2  0
  7  9  1  0
  9 10  1  0
  9 11  2  0
 11 12  1  0
 12 13  2  0
 12 14  1  0
 11 15  1  0
  4 16  2  0
 16 17  1  0
 17  2  1  0
 15  5  1  0
  1 18  1  0
  1 19  1  0
  1 20  1  0
  3 21  1  0
 10 22  1  0
 10 23  1  0
 10 24  1  0
 16 25  1  0
M  CHG  3   3   1  14  -1  15  -1
M  END
>  <UniqueID>  (79) 
77

>  <SMILES>  (79) 
Cc1[nH+]c(-c2nc(=O)c(C)c(C(=O)[O-])[n-]2)cs1

>  <Energy>  (79) 
58.260110497188215

>  <Genealogy>  (79) 
Cc1[nH+]c(-c2nc(=O)c(C)c(C(=O)[O-])[n-]2)cs1 (protonated)
Cc1[nH+]c(-c2nc(=O)c(C)c(C(=O)[O-])[n-]2)cs1 (3D coordinates assigned)
Cc1[nH+]c(-c2nc(=O)c(C)c(C(=O)[O-])[n-]2)cs1 (optimized conformer: 58.260110497188215 kcal/mol)

>  <smiles>  (79) 
Cc1nc(-c2nc(=O)c(C)c(C(=O)O)[nH]2)cs1

>  <score_type>  (79) 
oracle

>  <origin>  (79) 
adg

>  <m_score__min__energy>  (79) 
-9.25

>  <m_primary>  (79) 
energy

$$$$
80:0
     RDKit          3D

 61 65  0  0  0  0  0  0  0  0999 V2000
   56.3640   29.5970   44.8300 C   0  0  0  0  0  0  0  0  0  0  0  0
   57.6140   29.1520   45.0330 C   0  0  0  0  0  0  0  0  0  0  0  0
   58.1040   27.8500   44.8410 C   0  0  0  0  0  0  0  0  0  0  0  0
   57.4730   26.7030   44.5290 C   0  0  0  0  0  0  0  0  0  0  0  0
   56.9730   25.7130   45.4930 C   0  0  0  0  0  0  0  0  0  0  0  0
   57.7040   24.6860   45.9600 N   0  0  0  0  0  0  0  0  0  0  0  0
   56.8900   24.1180   46.8790 C   0  0  0  0  0  0  0  0  0  0  0  0
   57.2200   23.0960   47.5360 O   0  0  0  0  0  0  0  0  0  0  0  0
   55.7010   24.7370   47.0450 N   0  0  0  0  0  0  0  0  0  0  0  0
   55.7740   25.7510   46.1680 C   0  0  0  0  0  0  0  0  0  0  0  0
   54.7740   26.7030   45.9990 O   0  0  0  0  0  0  0  0  0  0  0  0
   59.4740   27.9180   45.0410 C   0  0  0  0  0  0  0  0  0  0  0  0
   59.7670   29.2230   45.3720 C   0  0  0  0  0  0  0  0  0  0  0  0
   61.1360   29.7200   45.7370 C   0  0  0  0  0  0  0  0  0  0  0  0
   58.6420   29.9680   45.3740 N   0  0  0  0  0  0  0  0  0  0  0  0
   58.5830   31.3950   45.5440 C   0  0  0  0  0  0  0  0  0  0  0  0
   58.0940   32.1930   44.5020 C   0  0  0  0  0  0  0  0  0  0  0  0
   58.0770   33.5850   44.6290 C   0  0  0  0  0  0  0  0  0  0  0  0
   58.5560   34.1870   45.7950 C   0  0  0  0  0  0  0  0  0  0  0  0
   59.0490   33.4020   46.8390 C   0  0  0  0  0  0  0  0  0  0  0  0
   59.0690   32.0020   46.7230 C   0  0  0  0  0  0  0  0  0  0  0  0
   59.5450   31.1810   47.8560 C   0  0  0  0  0  0  0  0  0  0  0  0
   58.7200   30.4050   48.4160 O   0  0  0  0  0  0  0  0  0  0  0  0
   60.9130   31.2360   48.3200 N   0  0  0  0  0  0  0  0  0  0  0  0
   61.9380   31.9370   47.5250 C   0  0  0  0  0  0  0  0  0  0  0  0
   63.3530   31.6340   48.0280 C   0  0  0  0  0  0  0  0  0  0  0  0
   63.4030   31.7960   49.4830 N   0  0  0  0  0  0  0  0  0  0  0  0
   64.6100   32.2770   50.0970 C   0  0  0  0  0  0  0  0  0  0  0  0
   65.7140   31.7730   49.7550 O   0  0  0  0  0  0  0  0  0  0  0  0
   64.5770   33.3440   51.1250 C   0  0  0  0  0  0  0  0  0  0  0  0
   63.4380   33.5290   51.9340 C   0  0  0  0  0  0  0  0  0  0  0  0
   63.4160   34.5330   52.9100 C   0  0  0  0  0  0  0  0  0  0  0  0
   64.5140   35.3820   53.0670 C   0  0  0  0  0  0  0  0  0  0  0  0
   65.6400   35.2260   52.2510 C   0  0  0  0  0  0  0  0  0  0  0  0
   65.6750   34.2120   51.2860 C   0  0  0  0  0  0  0  0  0  0  0  0
   62.3530   31.2050   50.3280 C   0  0  0  0  0  0  0  0  0  0  0  0
   61.3190   30.4420   49.4920 C   0  0  0  0  0  0  0  0  0  0  0  0
   56.1175   30.6515   45.0228 H   0  0  0  0  0  0  0  0  0  0  0  0
   55.5861   28.9071   44.4708 H   0  0  0  0  0  0  0  0  0  0  0  0
   57.3183   26.4882   43.4613 H   0  0  0  0  0  0  0  0  0  0  0  0
   60.1907   27.0882   44.9523 H   0  0  0  0  0  0  0  0  0  0  0  0
   61.2333   29.7553   46.8321 H   0  0  0  0  0  0  0  0  0  0  0  0
   61.8953   29.0402   45.3231 H   0  0  0  0  0  0  0  0  0  0  0  0
   61.2823   30.7286   45.3231 H   0  0  0  0  0  0  0  0  0  0  0  0
   57.7218   31.7225   43.5800 H   0  0  0  0  0  0  0  0  0  0  0  0
   57.6861   34.2068   43.8101 H   0  0  0  0  0  0  0  0  0  0  0  0
   58.5447   35.2828   45.8909 H   0  0  0  0  0  0  0  0  0  0  0  0
   59.4231   33.8814   47.7557 H   0  0  0  0  0  0  0  0  0  0  0  0
   61.8565   31.6158   46.4761 H   0  0  0  0  0  0  0  0  0  0  0  0
   61.7650   33.0190   47.6215 H   0  0  0  0  0  0  0  0  0  0  0  0
   63.6212   30.6000   47.7654 H   0  0  0  0  0  0  0  0  0  0  0  0
   64.0641   32.3296   47.5585 H   0  0  0  0  0  0  0  0  0  0  0  0
   62.5602   32.8803   51.7979 H   0  0  0  0  0  0  0  0  0  0  0  0
   62.5325   34.6533   53.5541 H   0  0  0  0  0  0  0  0  0  0  0  0
   64.4936   36.1726   53.8315 H   0  0  0  0  0  0  0  0  0  0  0  0
   66.5000   35.9018   52.3679 H   0  0  0  0  0  0  0  0  0  0  0  0
   66.5646   34.0925   50.6502 H   0  0  0  0  0  0  0  0  0  0  0  0
   62.8185   30.5094   51.0417 H   0  0  0  0  0  0  0  0  0  0  0  0
   61.8356   32.0204   50.8548 H   0  0  0  0  0  0  0  0  0  0  0  0
   61.7587   29.4930   49.1512 H   0  0  0  0  0  0  0  0  0  0  0  0
   60.4326   30.2487   50.1140 H   0  0  0  0  0  0  0  0  0  0  0  0
  1  2  2  0
  2  3  1  0
  3  4  2  3
  4  5  1  0
  5  6  1  0
  6  7  1  0
  7  8  2  0
  7  9  1  0
  9 10  1  0
 10 11  1  0
  3 12  1  0
 12 13  2  0
 13 14  1  0
 13 15  1  0
 15 16  1  0
 16 17  2  0
 17 18  1  0
 18 19  2  0
 19 20  1  0
 20 21  2  0
 21 22  1  0
 22 23  2  0
 22 24  1  0
 24 25  1  0
 25 26  1  0
 26 27  1  0
 27 28  1  0
 28 29  2  0
 28 30  1  0
 30 31  2  0
 31 32  1  0
 32 33  2  0
 33 34  1  0
 34 35  2  0
 27 36  1  0
 36 37  1  0
 15  2  1  0
 21 16  1  0
 37 24  1  0
 10  5  2  0
 35 30  1  0
  1 38  1  0
  1 39  1  0
  4 40  1  0
 12 41  1  0
 14 42  1  0
 14 43  1  0
 14 44  1  0
 17 45  1  0
 18 46  1  0
 19 47  1  0
 20 48  1  0
 25 49  1  0
 25 50  1  0
 26 51  1  0
 26 52  1  0
 31 53  1  0
 32 54  1  0
 33 55  1  0
 34 56  1  0
 35 57  1  0
 36 58  1  0
 36 59  1  0
 37 60  1  0
 37 61  1  0
M  CHG  3   6  -1   9  -1  11  -1
M  END
>  <UniqueID>  (80) 
78

>  <SMILES>  (80) 
C=c1c(=Cc2[n-]c(=O)[n-]c2[O-])cc(C)n1-c1ccccc1C(=O)N1CCN(C(=O)c2ccccc2)CC1

>  <Energy>  (80) 
154.05612439424317

>  <Genealogy>  (80) 
C=c1c(=Cc2[n-]c(=O)[n-]c2[O-])cc(C)n1-c1ccccc1C(=O)N1CCN(C(=O)c2ccccc2)CC1 (protonated)
C=c1c(=Cc2[n-]c(=O)[n-]c2[O-])cc(C)n1-c1ccccc1C(=O)N1CCN(C(=O)c2ccccc2)CC1 (3D coordinates assigned)
C=c1c(=Cc2[n-]c(=O)[n-]c2[O-])cc(C)n1-c1ccccc1C(=O)N1CCN(C(=O)c2ccccc2)CC1 (nonaromatic ring conformer: 154.05612439424317 kcal/mol)

>  <smiles>  (80) 
C=c1c(=Cc2[nH]c(=O)[nH]c2O)cc(C)n1-c1ccccc1C(=O)N1CCN(C(=O)c2ccccc2)CC1

>  <score_type>  (80) 
oracle

>  <origin>  (80) 
adg

>  <m_score__min__energy>  (80) 
-18.640000000000001

>  <m_primary>  (80) 
energy

$$$$
81:0
     RDKit          3D

 57 59  0  0  0  0  0  0  0  0999 V2000
   63.3890   32.1910   47.7490 C   0  0  0  0  0  0  0  0  0  0  0  0
   62.0170   31.9960   47.1140 C   0  0  0  0  0  0  0  0  0  0  0  0
   61.3770   30.7400   47.6180 C   0  0  0  0  0  0  0  0  0  0  0  0
   61.5190   30.2120   48.8860 C   0  0  0  0  0  0  0  0  0  0  0  0
   60.7390   29.0750   48.9060 C   0  0  0  0  0  0  0  0  0  0  0  0
   60.1660   28.9850   47.6470 C   0  0  0  0  0  0  0  0  0  0  0  0
   59.2480   27.9400   47.1640 C   0  0  0  0  0  0  0  0  0  0  0  0
   59.0110   26.9490   47.9070 O   0  0  0  0  0  0  0  0  0  0  0  0
   58.6220   28.0310   45.8730 N   0  0  0  0  0  0  0  0  0  0  0  0
   57.6810   27.0220   45.3880 C   0  0  0  0  0  0  0  0  0  0  0  0
   56.2700   27.4720   45.5980 C   0  0  0  0  0  0  0  0  0  0  0  0
   55.4320   26.6930   46.1290 O   0  0  0  0  0  0  0  0  0  0  0  0
   55.8920   28.8050   45.2450 N   0  0  0  0  0  0  0  0  0  0  0  0
   56.4560   29.5040   44.0980 C   0  0  0  0  0  0  0  0  0  0  0  0
   57.4590   30.5040   44.5680 C   0  0  0  0  0  0  0  0  0  0  0  0
   58.6470   30.4430   44.1510 O   0  0  0  0  0  0  0  0  0  0  0  0
   57.0450   31.5420   45.4670 N   0  0  0  0  0  0  0  0  0  0  0  0
   57.8820   32.5280   46.0880 C   0  0  0  0  0  0  0  0  0  0  0  0
   58.3800   33.6390   45.3840 C   0  0  0  0  0  0  0  0  0  0  0  0
   59.1980   34.5700   46.0300 C   0  0  0  0  0  0  0  0  0  0  0  0
   59.5370   34.3960   47.3740 C   0  0  0  0  0  0  0  0  0  0  0  0
   59.0690   33.2790   48.0770 C   0  0  0  0  0  0  0  0  0  0  0  0
   59.5010   33.0490   49.7740 S   0  0  0  0  0  0  0  0  0  0  0  0
   60.9730   32.7560   49.8710 O   0  0  0  0  0  0  0  0  0  0  0  0
   59.2330   34.3220   50.5280 O   0  0  0  0  0  0  0  0  0  0  0  0
   58.6020   31.7430   50.5060 N   0  0  0  0  0  0  0  0  0  0  0  0
   59.4880   30.9070   51.3300 C   0  0  0  0  0  0  0  0  0  0  0  0
   58.6750   29.7900   52.0190 C   0  0  0  0  0  0  0  0  0  0  0  0
   57.2990   29.8580   51.6880 O   0  0  0  0  0  0  0  0  0  0  0  0
   56.7780   31.1210   52.0580 C   0  0  0  0  0  0  0  0  0  0  0  0
   57.5020   32.2710   51.3270 C   0  0  0  0  0  0  0  0  0  0  0  0
   58.2530   32.3430   47.4260 C   0  0  0  0  0  0  0  0  0  0  0  0
   60.5640   29.9940   46.9050 O   0  0  0  0  0  0  0  0  0  0  0  0
   63.2913   32.1771   48.8446 H   0  0  0  0  0  0  0  0  0  0  0  0
   64.0593   31.3791   47.4303 H   0  0  0  0  0  0  0  0  0  0  0  0
   63.8065   33.1575   47.4303 H   0  0  0  0  0  0  0  0  0  0  0  0
   61.3767   32.8543   47.3659 H   0  0  0  0  0  0  0  0  0  0  0  0
   62.1386   31.9192   46.0234 H   0  0  0  0  0  0  0  0  0  0  0  0
   62.1277   30.6146   49.7090 H   0  0  0  0  0  0  0  0  0  0  0  0
   60.6000   28.3815   49.7485 H   0  0  0  0  0  0  0  0  0  0  0  0
   58.8400   28.8330   45.2440 H   0  0  0  0  0  0  0  0  0  0  0  0
   57.8512   26.8559   44.3140 H   0  0  0  0  0  0  0  0  0  0  0  0
   57.8422   26.0892   45.9482 H   0  0  0  0  0  0  0  0  0  0  0  0
   56.9459   28.7789   43.4315 H   0  0  0  0  0  0  0  0  0  0  0  0
   55.6525   30.0199   43.5519 H   0  0  0  0  0  0  0  0  0  0  0  0
   58.1251   33.7755   44.3227 H   0  0  0  0  0  0  0  0  0  0  0  0
   59.5763   35.4431   45.4781 H   0  0  0  0  0  0  0  0  0  0  0  0
   60.1723   35.1373   47.8807 H   0  0  0  0  0  0  0  0  0  0  0  0
   60.2592   30.4536   50.6899 H   0  0  0  0  0  0  0  0  0  0  0  0
   59.9614   31.5344   52.0996 H   0  0  0  0  0  0  0  0  0  0  0  0
   59.0698   28.8141   51.7000 H   0  0  0  0  0  0  0  0  0  0  0  0
   58.7710   29.9197   53.1071 H   0  0  0  0  0  0  0  0  0  0  0  0
   55.7083   31.1541   51.8039 H   0  0  0  0  0  0  0  0  0  0  0  0
   56.9294   31.2519   53.1396 H   0  0  0  0  0  0  0  0  0  0  0  0
   56.7855   32.7966   50.6786 H   0  0  0  0  0  0  0  0  0  0  0  0
   57.9149   32.9652   52.0738 H   0  0  0  0  0  0  0  0  0  0  0  0
   57.9008   31.4549   47.9712 H   0  0  0  0  0  0  0  0  0  0  0  0
  1  2  1  0
  2  3  1  0
  3  4  2  0
  4  5  1  0
  5  6  2  0
  6  7  1  0
  7  8  2  0
  7  9  1  0
  9 10  1  0
 10 11  1  0
 11 12  2  0
 11 13  1  0
 13 14  1  0
 14 15  1  0
 15 16  2  0
 15 17  1  0
 17 18  1  0
 18 19  2  0
 19 20  1  0
 20 21  2  0
 21 22  1  0
 22 23  1  0
 23 24  2  0
 23 25  2  0
 23 26  1  0
 26 27  1  0
 27 28  1  0
 28 29  1  0
 29 30  1  0
 30 31  1  0
 22 32  2  0
  6 33  1  0
 33  3  1  0
 32 18  1  0
 31 26  1  0
  1 34  1  0
  1 35  1  0
  1 36  1  0
  2 37  1  0
  2 38  1  0
  4 39  1  0
  5 40  1  0
  9 41  1  0
 10 42  1  0
 10 43  1  0
 14 44  1  0
 14 45  1  0
 19 46  1  0
 20 47  1  0
 21 48  1  0
 27 49  1  0
 27 50  1  0
 28 51  1  0
 28 52  1  0
 30 53  1  0
 30 54  1  0
 31 55  1  0
 31 56  1  0
 32 57  1  0
M  CHG  2  13  -1  17  -1
M  END
>  <UniqueID>  (81) 
79

>  <SMILES>  (81) 
CCc1ccc(C(=O)NCC(=O)[N-]CC(=O)[N-]c2cccc(S(=O)(=O)N3CCOCC3)c2)o1

>  <Energy>  (81) 
83.2590199115029

>  <Genealogy>  (81) 
CCc1ccc(C(=O)NCC(=O)[N-]CC(=O)[N-]c2cccc(S(=O)(=O)N3CCOCC3)c2)o1 (protonated)
CCc1ccc(C(=O)NCC(=O)[N-]CC(=O)[N-]c2cccc(S(=O)(=O)N3CCOCC3)c2)o1 (3D coordinates assigned)
CCc1ccc(C(=O)NCC(=O)[N-]CC(=O)[N-]c2cccc(S(=O)(=O)N3CCOCC3)c2)o1 (nonaromatic ring conformer: 83.2590199115029 kcal/mol)

>  <smiles>  (81) 
CCc1ccc(C(=O)NCC(=O)NCC(=O)Nc2cccc(S(=O)(=O)N3CCOCC3)c2)o1

>  <score_type>  (81) 
oracle

>  <origin>  (81) 
adg

>  <m_score__min__energy>  (81) 
-12.199999999999999

>  <m_primary>  (81) 
energy

$$$$
82:0
     RDKit          3D

 46 48  0  0  0  0  0  0  0  0999 V2000
   57.2060   28.5380   45.5810 O   0  0  0  0  0  0  0  0  0  0  0  0
   58.0630   27.8480   46.1970 C   0  0  0  0  0  0  0  0  0  0  0  0
   59.4920   28.2840   46.2210 C   0  0  0  0  0  0  0  0  0  0  0  0
   59.6030   29.6270   46.8880 C   0  0  0  0  0  0  0  0  0  0  0  0
   60.4740   29.8090   47.9750 C   0  0  0  0  0  0  0  0  0  0  0  0
   60.5330   31.0410   48.6300 C   0  0  0  0  0  0  0  0  0  0  0  0
   59.7270   32.1000   48.2070 C   0  0  0  0  0  0  0  0  0  0  0  0
   58.8590   31.9370   47.1130 C   0  0  0  0  0  0  0  0  0  0  0  0
   58.0040   32.9970   46.6670 N   0  0  0  0  0  0  0  0  0  0  0  0
   57.6360   33.2600   45.3060 C   0  0  0  0  0  0  0  0  0  0  0  0
   57.6410   34.4490   44.8920 O   0  0  0  0  0  0  0  0  0  0  0  0
   57.2130   32.2090   44.4250 N   0  0  0  0  0  0  0  0  0  0  0  0
   57.6760   31.9590   43.1840 C   0  0  0  0  0  0  0  0  0  0  0  0
   57.0500   30.8290   42.7050 C   0  0  0  0  0  0  0  0  0  0  0  0
   56.2140   30.4290   43.7290 C   0  0  0  0  0  0  0  0  0  0  0  0
   56.3370   31.2780   44.7680 N   0  0  0  0  0  0  0  0  0  0  0  0
   58.7830   30.6910   46.4760 C   0  0  0  0  0  0  0  0  0  0  0  0
   57.6710   26.6710   46.9110 N   0  0  0  0  0  0  0  0  0  0  0  0
   57.1670   25.4620   46.2690 C   0  0  2  0  0  0  0  0  0  0  0  0
   57.8280   25.2880   44.8890 C   0  0  0  0  0  0  0  0  0  0  0  0
   57.5420   23.9320   44.2960 C   0  0  0  0  0  0  0  0  0  0  0  0
   58.2950   22.8110   44.6840 C   0  0  0  0  0  0  0  0  0  0  0  0
   58.0330   21.5580   44.1220 C   0  0  0  0  0  0  0  0  0  0  0  0
   57.0260   21.4170   43.1650 C   0  0  0  0  0  0  0  0  0  0  0  0
   56.2790   22.5290   42.7650 C   0  0  0  0  0  0  0  0  0  0  0  0
   56.5390   23.7830   43.3240 C   0  0  0  0  0  0  0  0  0  0  0  0
   55.6770   25.5770   46.1410 C   0  0  0  0  0  0  0  0  0  0  0  0
   55.1390   26.7070   45.9900 O   0  0  0  0  0  0  0  0  0  0  0  0
   54.8800   24.4390   46.1870 O   0  0  0  0  0  0  0  0  0  0  0  0
   60.0891   27.5482   46.7797 H   0  0  0  0  0  0  0  0  0  0  0  0
   59.8666   28.3584   45.1894 H   0  0  0  0  0  0  0  0  0  0  0  0
   61.1117   28.9783   48.3114 H   0  0  0  0  0  0  0  0  0  0  0  0
   61.2161   31.1776   49.4813 H   0  0  0  0  0  0  0  0  0  0  0  0
   59.7714   33.0657   48.7319 H   0  0  0  0  0  0  0  0  0  0  0  0
   58.4264   32.5560   42.6451 H   0  0  0  0  0  0  0  0  0  0  0  0
   57.1860   30.3510   41.7237 H   0  0  0  0  0  0  0  0  0  0  0  0
   55.5501   29.5524   43.7007 H   0  0  0  0  0  0  0  0  0  0  0  0
   58.0755   30.5448   45.6465 H   0  0  0  0  0  0  0  0  0  0  0  0
   57.4114   24.5764   46.8739 H   0  0  0  0  0  0  0  0  0  0  0  0
   57.4417   26.0620   44.2095 H   0  0  0  0  0  0  0  0  0  0  0  0
   58.9164   25.3811   45.0181 H   0  0  0  0  0  0  0  0  0  0  0  0
   59.0936   22.9197   45.4327 H   0  0  0  0  0  0  0  0  0  0  0  0
   58.6208   20.6822   44.4341 H   0  0  0  0  0  0  0  0  0  0  0  0
   56.8202   20.4299   42.7253 H   0  0  0  0  0  0  0  0  0  0  0  0
   55.4866   22.4168   42.0103 H   0  0  0  0  0  0  0  0  0  0  0  0
   55.9553   24.6578   43.0013 H   0  0  0  0  0  0  0  0  0  0  0  0
  1  2  2  0
  2  3  1  0
  3  4  1  0
  4  5  2  0
  5  6  1  0
  6  7  2  0
  7  8  1  0
  8  9  1  0
  9 10  1  0
 10 11  2  0
 10 12  1  0
 12 13  1  0
 13 14  2  0
 14 15  1  0
 15 16  2  0
  8 17  2  0
  2 18  1  0
 18 19  1  0
 19 20  1  0
 20 21  1  0
 21 22  2  0
 22 23  1  0
 23 24  2  0
 24 25  1  0
 25 26  2  0
 19 27  1  0
 27 28  2  0
 27 29  1  0
 17  4  1  0
 26 21  1  0
 16 12  1  0
  3 30  1  0
  3 31  1  0
  5 32  1  0
  6 33  1  0
  7 34  1  0
 13 35  1  0
 14 36  1  0
 15 37  1  0
 17 38  1  0
 19 39  1  1
 20 40  1  0
 20 41  1  0
 22 42  1  0
 23 43  1  0
 24 44  1  0
 25 45  1  0
 26 46  1  0
M  CHG  3   9  -1  18  -1  29  -1
M  END
>  <UniqueID>  (82) 
80

>  <SMILES>  (82) 
O=C(Cc1cccc([N-]C(=O)n2cccn2)c1)[N-][C@H](Cc1ccccc1)C(=O)[O-]

>  <Energy>  (82) 
76.49933773974226

>  <Genealogy>  (82) 
O=C(Cc1cccc([N-]C(=O)n2cccn2)c1)[N-]C(Cc1ccccc1)C(=O)[O-] (protonated)
O=C(Cc1cccc([N-]C(=O)n2cccn2)c1)[N-][C@H](Cc1ccccc1)C(=O)[O-] (chirality)
O=C(Cc1cccc([N-]C(=O)n2cccn2)c1)[N-][C@H](Cc1ccccc1)C(=O)[O-] (3D coordinates assigned)
O=C(Cc1cccc([N-]C(=O)n2cccn2)c1)[N-][C@H](Cc1ccccc1)C(=O)[O-] (optimized conformer: 76.49933773974226 kcal/mol)

>  <smiles>  (82) 
O=C(Cc1cccc(NC(=O)n2cccn2)c1)NC(Cc1ccccc1)C(=O)O

>  <score_type>  (82) 
oracle

>  <origin>  (82) 
adg

>  <m_score__min__energy>  (82) 
-15.199999999999999

>  <m_primary>  (82) 
energy

$$$$
83:0
     RDKit          3D

 42 44  0  0  0  0  0  0  0  0999 V2000
   59.0820   34.2910   45.8900 C   0  0  0  0  0  0  0  0  0  0  0  0
   57.6970   33.8100   45.6180 C   0  0  0  0  0  0  0  0  0  0  0  0
   56.9400   34.4910   44.8760 O   0  0  0  0  0  0  0  0  0  0  0  0
   57.2830   32.5830   46.1570 O   0  0  0  0  0  0  0  0  0  0  0  0
   58.0900   31.4440   46.3040 C   0  0  0  0  0  0  0  0  0  0  0  0
   59.1800   31.4750   47.0140 N   0  0  0  0  0  0  0  0  0  0  0  0
   60.0340   30.3320   47.1770 C   0  0  0  0  0  0  0  0  0  0  0  0
   61.1540   30.4730   47.9050 C   0  0  0  0  0  0  0  0  0  0  0  0
   62.0720   31.6290   47.8360 C   0  0  0  0  0  0  0  0  0  0  0  0
   61.8710   32.6690   46.9190 C   0  0  0  0  0  0  0  0  0  0  0  0
   62.7220   33.7720   46.9190 C   0  0  0  0  0  0  0  0  0  0  0  0
   63.7620   33.8360   47.8480 C   0  0  0  0  0  0  0  0  0  0  0  0
   63.9490   32.8250   48.7500 N   0  0  0  0  0  0  0  0  0  0  0  0
   65.0120   32.9360   49.7510 C   0  0  0  0  0  0  0  0  0  0  0  0
   63.1090   31.7470   48.7720 C   0  0  0  0  0  0  0  0  0  0  0  0
   59.6160   29.0390   46.5750 C   0  0  0  0  0  0  0  0  0  0  0  0
   58.4990   28.9670   45.8320 C   0  0  0  0  0  0  0  0  0  0  0  0
   58.0790   27.6700   45.2430 C   0  0  0  0  0  0  0  0  0  0  0  0
   58.1710   27.4530   43.8570 C   0  0  0  0  0  0  0  0  0  0  0  0
   57.7710   26.2330   43.3040 C   0  0  0  0  0  0  0  0  0  0  0  0
   57.2720   25.2190   44.1260 C   0  0  0  0  0  0  0  0  0  0  0  0
   56.7700   23.6890   43.4300 Cl  0  0  0  0  0  0  0  0  0  0  0  0
   57.1720   25.4260   45.5060 C   0  0  0  0  0  0  0  0  0  0  0  0
   57.5720   26.6450   46.0620 C   0  0  0  0  0  0  0  0  0  0  0  0
   57.6910   30.1940   45.6300 C   0  0  0  0  0  0  0  0  0  0  0  0
   56.6810   30.1860   44.8750 O   0  0  0  0  0  0  0  0  0  0  0  0
   59.2439   34.3472   46.9766 H   0  0  0  0  0  0  0  0  0  0  0  0
   59.8066   33.5919   45.4470 H   0  0  0  0  0  0  0  0  0  0  0  0
   59.2173   35.2887   45.4470 H   0  0  0  0  0  0  0  0  0  0  0  0
   61.4076   29.6651   48.6072 H   0  0  0  0  0  0  0  0  0  0  0  0
   61.0412   32.6146   46.1990 H   0  0  0  0  0  0  0  0  0  0  0  0
   62.5757   34.5855   46.1932 H   0  0  0  0  0  0  0  0  0  0  0  0
   64.4357   34.7055   47.8546 H   0  0  0  0  0  0  0  0  0  0  0  0
   64.5731   32.8902   50.7586 H   0  0  0  0  0  0  0  0  0  0  0  0
   65.7240   32.1073   49.6232 H   0  0  0  0  0  0  0  0  0  0  0  0
   65.5374   33.8939   49.6232 H   0  0  0  0  0  0  0  0  0  0  0  0
   63.2481   30.9640   49.5319 H   0  0  0  0  0  0  0  0  0  0  0  0
   60.2239   28.1370   46.7385 H   0  0  0  0  0  0  0  0  0  0  0  0
   58.5601   28.2480   43.2038 H   0  0  0  0  0  0  0  0  0  0  0  0
   57.8492   26.0707   42.2189 H   0  0  0  0  0  0  0  0  0  0  0  0
   56.7784   24.6291   46.1541 H   0  0  0  0  0  0  0  0  0  0  0  0
   57.4896   26.8035   47.1474 H   0  0  0  0  0  0  0  0  0  0  0  0
  1  2  1  0
  2  3  2  0
  2  4  1  0
  4  5  1  0
  5  6  2  0
  6  7  1  0
  7  8  2  3
  8  9  1  0
  9 10  2  0
 10 11  1  0
 11 12  2  0
 12 13  1  0
 13 14  1  0
 13 15  2  0
  7 16  1  0
 16 17  2  0
 17 18  1  0
 18 19  2  0
 19 20  1  0
 20 21  2  0
 21 22  1  0
 21 23  1  0
 23 24  2  0
 17 25  1  0
 25 26  2  0
 25  5  1  0
 15  9  1  0
 24 18  1  0
  1 27  1  0
  1 28  1  0
  1 29  1  0
  8 30  1  0
 10 31  1  0
 11 32  1  0
 12 33  1  0
 14 34  1  0
 14 35  1  0
 14 36  1  0
 15 37  1  0
 16 38  1  0
 19 39  1  0
 20 40  1  0
 23 41  1  0
 24 42  1  0
M  CHG  1  13   1
M  END
>  <UniqueID>  (83) 
81

>  <SMILES>  (83) 
CC(=O)OC1=NC(=Cc2ccc[n+](C)c2)C=C(c2ccc(Cl)cc2)C1=O

>  <Energy>  (83) 
55.77494740614589

>  <Genealogy>  (83) 
CC(=O)OC1=NC(=Cc2ccc[n+](C)c2)C=C(c2ccc(Cl)cc2)C1=O (3D coordinates assigned)
CC(=O)OC1=NC(=Cc2ccc[n+](C)c2)C=C(c2ccc(Cl)cc2)C1=O (nonaromatic ring conformer: 55.77494740614589 kcal/mol)

>  <smiles>  (83) 
CC(=O)OC1=NC(=Cc2ccc[n+](C)c2)C=C(c2ccc(Cl)cc2)C1=O

>  <score_type>  (83) 
oracle

>  <origin>  (83) 
adg

>  <m_score__min__energy>  (83) 
-7.2800000000000002

>  <m_primary>  (83) 
energy

$$$$
84:0
     RDKit          3D

 38 41  0  0  0  0  0  0  0  0999 V2000
   51.4170   31.6540   53.9850 O   0  0  0  0  0  0  0  0  0  0  0  0
   52.0290   30.9880   53.1060 C   0  0  0  0  0  0  0  0  0  0  0  0
   53.0840   30.0900   53.4720 N   0  0  0  0  0  0  0  0  0  0  0  0
   54.4910   30.3120   53.3000 C   0  0  0  0  0  0  0  0  0  0  0  0
   55.0270   30.8330   52.0890 C   0  0  0  0  0  0  0  0  0  0  0  0
   56.4080   31.0660   51.9580 C   0  0  0  0  0  0  0  0  0  0  0  0
   57.2200   30.7810   53.0560 C   0  0  0  0  0  0  0  0  0  0  0  0
   56.7100   30.3000   54.2250 C   0  0  0  0  0  0  0  0  0  0  0  0
   55.3490   30.0570   54.3890 C   0  0  0  0  0  0  0  0  0  0  0  0
   57.6910   30.1050   55.1270 N   0  0  0  0  0  0  0  0  0  0  0  0
   58.8060   30.4900   54.4530 C   0  0  0  0  0  0  0  0  0  0  0  0
   58.5490   30.9180   53.1910 N   0  0  0  0  0  0  0  0  0  0  0  0
   59.5330   31.3250   52.1900 C   0  0  0  0  0  0  0  0  0  0  0  0
   59.7130   30.2320   51.1720 C   0  0  0  0  0  0  0  0  0  0  0  0
   59.0800   30.3230   49.9210 C   0  0  0  0  0  0  0  0  0  0  0  0
   59.2720   29.3270   48.9590 C   0  0  0  0  0  0  0  0  0  0  0  0
   60.1080   28.2390   49.2330 C   0  0  0  0  0  0  0  0  0  0  0  0
   60.3000   27.2500   48.2760 O   0  0  0  0  0  0  0  0  0  0  0  0
   60.7530   28.1490   50.4710 C   0  0  0  0  0  0  0  0  0  0  0  0
   60.5590   29.1430   51.4360 C   0  0  0  0  0  0  0  0  0  0  0  0
   51.6990   31.1740   51.6870 C   0  0  0  0  0  0  0  0  0  0  0  0
   51.8930   30.2380   50.6880 C   0  0  0  0  0  0  0  0  0  0  0  0
   51.4490   30.8220   49.5220 C   0  0  0  0  0  0  0  0  0  0  0  0
   51.0140   32.0800   49.8790 C   0  0  0  0  0  0  0  0  0  0  0  0
   50.4860   33.0130   48.9960 O   0  0  0  0  0  0  0  0  0  0  0  0
   51.1590   32.3100   51.1970 N   0  0  0  0  0  0  0  0  0  0  0  0
   54.3548   31.0557   51.2472 H   0  0  0  0  0  0  0  0  0  0  0  0
   56.8328   31.4591   51.0226 H   0  0  0  0  0  0  0  0  0  0  0  0
   54.9539   29.6764   55.3424 H   0  0  0  0  0  0  0  0  0  0  0  0
   59.8163   30.4580   54.8869 H   0  0  0  0  0  0  0  0  0  0  0  0
   59.1838   32.2383   51.6861 H   0  0  0  0  0  0  0  0  0  0  0  0
   60.4952   31.5180   52.6869 H   0  0  0  0  0  0  0  0  0  0  0  0
   58.4303   31.1820   49.6975 H   0  0  0  0  0  0  0  0  0  0  0  0
   58.7652   29.3987   47.9854 H   0  0  0  0  0  0  0  0  0  0  0  0
   61.4133   27.2959   50.6859 H   0  0  0  0  0  0  0  0  0  0  0  0
   61.0718   29.0711   52.4065 H   0  0  0  0  0  0  0  0  0  0  0  0
   52.3169   29.2293   50.8015 H   0  0  0  0  0  0  0  0  0  0  0  0
   51.4429   30.3771   48.5160 H   0  0  0  0  0  0  0  0  0  0  0  0
  1  2  2  0
  2  3  1  0
  3  4  1  0
  4  5  2  0
  5  6  1  0
  6  7  2  0
  7  8  1  0
  8  9  2  0
  8 10  1  0
 10 11  2  0
 11 12  1  0
 12 13  1  0
 13 14  1  0
 14 15  2  0
 15 16  1  0
 16 17  2  0
 17 18  1  0
 17 19  1  0
 19 20  2  0
  2 21  1  0
 21 22  2  0
 22 23  1  0
 23 24  2  0
 24 25  1  0
 24 26  1  0
  9  4  1  0
 20 14  1  0
 26 21  1  0
 12  7  1  0
  5 27  1  0
  6 28  1  0
  9 29  1  0
 11 30  1  0
 13 31  1  0
 13 32  1  0
 15 33  1  0
 16 34  1  0
 19 35  1  0
 20 36  1  0
 22 37  1  0
 23 38  1  0
M  CHG  4   3  -1  18  -1  25  -1  26  -1
M  END
>  <UniqueID>  (84) 
82

>  <SMILES>  (84) 
O=C([N-]c1ccc2c(c1)ncn2Cc1ccc([O-])cc1)c1ccc([O-])[n-]1

>  <Energy>  (84) 
106.19950878702491

>  <Genealogy>  (84) 
O=C([N-]c1ccc2c(c1)ncn2Cc1ccc([O-])cc1)c1ccc([O-])[n-]1 (protonated)
O=C([N-]c1ccc2c(c1)ncn2Cc1ccc([O-])cc1)c1ccc([O-])[n-]1 (3D coordinates assigned)
O=C([N-]c1ccc2c(c1)ncn2Cc1ccc([O-])cc1)c1ccc([O-])[n-]1 (optimized conformer: 106.19950878702491 kcal/mol)

>  <smiles>  (84) 
O=C(Nc1ccc2c(c1)ncn2Cc1ccc(O)cc1)c1ccc(O)[nH]1

>  <score_type>  (84) 
oracle

>  <origin>  (84) 
adg

>  <m_score__min__energy>  (84) 
-15.23

>  <m_primary>  (84) 
energy

$$$$
85:0
     RDKit          3D

 55 58  0  0  0  0  0  0  0  0999 V2000
   55.3320   29.2700   44.8710 O   0  0  0  0  0  0  0  0  0  0  0  0
   56.4640   29.8210   44.8440 C   0  0  0  0  0  0  0  0  0  0  0  0
   56.5430   31.2070   44.4760 N   0  0  0  0  0  0  0  0  0  0  0  0
   57.4090   32.2000   45.0500 C   0  0  0  0  0  0  0  0  0  0  0  0
   57.7680   33.3110   44.2820 C   0  0  0  0  0  0  0  0  0  0  0  0
   58.6150   34.2890   44.8070 C   0  0  0  0  0  0  0  0  0  0  0  0
   59.1190   34.1630   46.1050 C   0  0  0  0  0  0  0  0  0  0  0  0
   59.9250   35.1400   46.5940 F   0  0  0  0  0  0  0  0  0  0  0  0
   58.7640   33.0540   46.8980 C   0  0  0  0  0  0  0  0  0  0  0  0
   59.3290   32.8630   48.2610 C   0  0  0  0  0  0  0  0  0  0  0  0
   59.4330   33.9210   49.0930 C   0  0  0  0  0  0  0  0  0  0  0  0
   60.0110   33.8200   50.4820 C   0  0  0  0  0  0  0  0  0  0  0  0
   60.7960   32.5910   50.6220 N   0  0  0  0  0  0  0  0  0  0  0  0
   62.1760   32.6400   51.0270 C   0  0  0  0  0  0  0  0  0  0  0  0
   62.6000   31.8170   51.8840 O   0  0  0  0  0  0  0  0  0  0  0  0
   63.0510   33.6620   50.5170 N   0  0  0  0  0  0  0  0  0  0  0  0
   64.4720   33.6780   50.7270 C   0  0  0  0  0  0  0  0  0  0  0  0
   65.2940   32.8700   49.9290 C   0  0  0  0  0  0  0  0  0  0  0  0
   66.6770   32.8530   50.1240 C   0  0  0  0  0  0  0  0  0  0  0  0
   67.2630   33.6240   51.1440 C   0  0  0  0  0  0  0  0  0  0  0  0
   68.7610   33.6470   51.3190 C   0  0  0  0  0  0  0  0  0  0  0  0
   69.3910   33.8670   50.1070 F   0  0  0  0  0  0  0  0  0  0  0  0
   69.1780   32.4330   51.8300 F   0  0  0  0  0  0  0  0  0  0  0  0
   69.1340   34.6560   52.1910 F   0  0  0  0  0  0  0  0  0  0  0  0
   66.4380   34.4370   51.9410 C   0  0  0  0  0  0  0  0  0  0  0  0
   65.0540   34.4530   51.7440 C   0  0  0  0  0  0  0  0  0  0  0  0
   60.1780   31.3650   50.1180 C   0  0  0  0  0  0  0  0  0  0  0  0
   59.9460   31.5200   48.6160 C   0  0  0  0  0  0  0  0  0  0  0  0
   57.8730   32.1000   46.3730 C   0  0  0  0  0  0  0  0  0  0  0  0
   57.6670   29.0140   45.1540 C   0  0  0  0  0  0  0  0  0  0  0  0
   57.5750   27.9260   46.0400 C   0  0  0  0  0  0  0  0  0  0  0  0
   58.7140   27.1890   46.3760 C   0  0  0  0  0  0  0  0  0  0  0  0
   59.9530   27.5240   45.8220 C   0  0  0  0  0  0  0  0  0  0  0  0
   61.0580   26.8120   46.1540 F   0  0  0  0  0  0  0  0  0  0  0  0
   60.0510   28.5890   44.9230 C   0  0  0  0  0  0  0  0  0  0  0  0
   58.9140   29.3290   44.5850 C   0  0  0  0  0  0  0  0  0  0  0  0
   57.3809   33.4156   43.2577 H   0  0  0  0  0  0  0  0  0  0  0  0
   58.8870   35.1627   44.1965 H   0  0  0  0  0  0  0  0  0  0  0  0
   59.0799   34.9017   48.7415 H   0  0  0  0  0  0  0  0  0  0  0  0
   60.6608   34.6879   50.6679 H   0  0  0  0  0  0  0  0  0  0  0  0
   59.1868   33.8010   51.2102 H   0  0  0  0  0  0  0  0  0  0  0  0
   62.6140   34.5160   50.1050 H   0  0  0  0  0  0  0  0  0  0  0  0
   64.8462   32.2443   49.1429 H   0  0  0  0  0  0  0  0  0  0  0  0
   67.3124   32.2322   49.4752 H   0  0  0  0  0  0  0  0  0  0  0  0
   66.8849   35.0653   52.7256 H   0  0  0  0  0  0  0  0  0  0  0  0
   64.4170   35.0760   52.3891 H   0  0  0  0  0  0  0  0  0  0  0  0
   60.8447   30.5100   50.3040 H   0  0  0  0  0  0  0  0  0  0  0  0
   59.2210   31.1876   50.6305 H   0  0  0  0  0  0  0  0  0  0  0  0
   60.9118   31.4268   48.0978 H   0  0  0  0  0  0  0  0  0  0  0  0
   59.2430   30.7343   48.3022 H   0  0  0  0  0  0  0  0  0  0  0  0
   57.5355   31.2658   47.0056 H   0  0  0  0  0  0  0  0  0  0  0  0
   56.6006   27.6532   46.4713 H   0  0  0  0  0  0  0  0  0  0  0  0
   58.6355   26.3448   47.0768 H   0  0  0  0  0  0  0  0  0  0  0  0
   61.0247   28.8458   44.4803 H   0  0  0  0  0  0  0  0  0  0  0  0
   58.9951   30.1615   43.8706 H   0  0  0  0  0  0  0  0  0  0  0  0
  1  2  2  0
  2  3  1  0
  3  4  1  0
  4  5  2  0
  5  6  1  0
  6  7  2  0
  7  8  1  0
  7  9  1  0
  9 10  1  0
 10 11  2  0
 11 12  1  0
 12 13  1  0
 13 14  1  0
 14 15  2  0
 14 16  1  0
 16 17  1  0
 17 18  2  0
 18 19  1  0
 19 20  2  0
 20 21  1  0
 21 22  1  0
 21 23  1  0
 21 24  1  0
 20 25  1  0
 25 26  2  0
 13 27  1  0
 27 28  1  0
  9 29  2  0
  2 30  1  0
 30 31  2  0
 31 32  1  0
 32 33  2  0
 33 34  1  0
 33 35  1  0
 35 36  2  0
 29  4  1  0
 36 30  1  0
 28 10  1  0
 26 17  1  0
  5 37  1  0
  6 38  1  0
 11 39  1  0
 12 40  1  0
 12 41  1  0
 16 42  1  0
 18 43  1  0
 19 44  1  0
 25 45  1  0
 26 46  1  0
 27 47  1  0
 27 48  1  0
 28 49  1  0
 28 50  1  0
 29 51  1  0
 31 52  1  0
 32 53  1  0
 35 54  1  0
 36 55  1  0
M  CHG  1   3  -1
M  END
>  <UniqueID>  (85) 
83

>  <SMILES>  (85) 
O=C([N-]c1ccc(F)c(C2=CCN(C(=O)Nc3ccc(C(F)(F)F)cc3)CC2)c1)c1ccc(F)cc1

>  <Energy>  (85) 
78.00074841169977

>  <Genealogy>  (85) 
O=C([N-]c1ccc(F)c(C2=CCN(C(=O)Nc3ccc(C(F)(F)F)cc3)CC2)c1)c1ccc(F)cc1 (protonated)
O=C([N-]c1ccc(F)c(C2=CCN(C(=O)Nc3ccc(C(F)(F)F)cc3)CC2)c1)c1ccc(F)cc1 (3D coordinates assigned)
O=C([N-]c1ccc(F)c(C2=CCN(C(=O)Nc3ccc(C(F)(F)F)cc3)CC2)c1)c1ccc(F)cc1 (nonaromatic ring conformer: 78.00074841169977 kcal/mol)

>  <smiles>  (85) 
O=C(Nc1ccc(F)c(C2=CCN(C(=O)Nc3ccc(C(F)(F)F)cc3)CC2)c1)c1ccc(F)cc1

>  <score_type>  (85) 
oracle

>  <origin>  (85) 
adg

>  <m_score__min__energy>  (85) 
-11.16

>  <m_primary>  (85) 
energy

$$$$
86:0
     RDKit          3D

 44 46  0  0  0  0  0  0  0  0999 V2000
   57.6630   26.5480   44.6530 O   0  0  0  0  0  0  0  0  0  0  0  0
   56.9320   27.2570   45.3940 C   0  0  0  0  0  0  0  0  0  0  0  0
   56.0280   26.6080   46.2980 N   0  0  0  0  0  0  0  0  0  0  0  0
   56.2780   25.3500   46.9980 C   0  0  0  0  0  0  0  0  0  0  0  0
   56.1680   24.1820   46.0550 C   0  0  0  0  0  0  0  0  0  0  0  0
   55.1260   24.1170   45.1150 C   0  0  0  0  0  0  0  0  0  0  0  0
   55.0530   23.0470   44.2200 C   0  0  0  0  0  0  0  0  0  0  0  0
   56.0130   22.0310   44.2580 C   0  0  0  0  0  0  0  0  0  0  0  0
   55.9370   20.9750   43.3580 O   0  0  0  0  0  0  0  0  0  0  0  0
   57.0450   22.0770   45.2030 C   0  0  0  0  0  0  0  0  0  0  0  0
   57.9910   21.0540   45.2420 O   0  0  0  0  0  0  0  0  0  0  0  0
   57.1220   23.1520   46.0980 C   0  0  0  0  0  0  0  0  0  0  0  0
   57.0570   28.7260   45.3260 C   0  0  0  0  0  0  0  0  0  0  0  0
   58.2810   29.3320   45.6330 C   0  0  0  0  0  0  0  0  0  0  0  0
   58.4140   30.7210   45.5760 C   0  0  0  0  0  0  0  0  0  0  0  0
   59.6780   31.3210   45.8620 N   0  0  0  0  0  0  0  0  0  0  0  0
   60.2240   31.5690   47.4860 S   0  0  0  0  0  0  0  0  0  0  0  0
   61.3710   30.6430   47.7800 O   0  0  0  0  0  0  0  0  0  0  0  0
   59.0950   31.2600   48.4290 O   0  0  0  0  0  0  0  0  0  0  0  0
   60.7360   33.2290   47.6820 N   0  0  0  0  0  0  0  0  0  0  0  0
   61.0270   33.8320   46.3750 C   0  0  0  0  0  0  0  0  0  0  0  0
   59.7830   34.5680   45.9020 C   0  0  0  0  0  0  0  0  0  0  0  0
   58.8900   34.6930   47.1220 C   0  0  0  0  0  0  0  0  0  0  0  0
   59.6540   34.0340   48.2600 C   0  0  0  0  0  0  0  0  0  0  0  0
   57.3140   31.4940   45.1720 C   0  0  0  0  0  0  0  0  0  0  0  0
   57.4080   32.7450   45.0810 O   0  0  0  0  0  0  0  0  0  0  0  0
   56.1440   30.8850   44.8460 N   0  0  0  0  0  0  0  0  0  0  0  0
   55.9900   29.5360   44.8990 C   0  0  0  0  0  0  0  0  0  0  0  0
   54.7860   28.9720   44.4960 O   0  0  0  0  0  0  0  0  0  0  0  0
   57.2901   25.3718   47.4284 H   0  0  0  0  0  0  0  0  0  0  0  0
   55.5262   25.2334   47.7925 H   0  0  0  0  0  0  0  0  0  0  0  0
   54.3654   24.9110   45.0837 H   0  0  0  0  0  0  0  0  0  0  0  0
   54.2377   23.0035   43.4829 H   0  0  0  0  0  0  0  0  0  0  0  0
   57.9930   20.3080   44.5560 H   0  0  0  0  0  0  0  0  0  0  0  0
   57.9343   23.1897   46.8387 H   0  0  0  0  0  0  0  0  0  0  0  0
   59.1423   28.7111   45.9205 H   0  0  0  0  0  0  0  0  0  0  0  0
   61.8643   34.5391   46.4696 H   0  0  0  0  0  0  0  0  0  0  0  0
   61.3047   33.0520   45.6508 H   0  0  0  0  0  0  0  0  0  0  0  0
   60.0494   35.5639   45.5183 H   0  0  0  0  0  0  0  0  0  0  0  0
   59.2800   34.0306   45.0845 H   0  0  0  0  0  0  0  0  0  0  0  0
   58.6990   35.7519   47.3507 H   0  0  0  0  0  0  0  0  0  0  0  0
   57.9119   34.2165   46.9599 H   0  0  0  0  0  0  0  0  0  0  0  0
   60.0763   34.8056   48.9206 H   0  0  0  0  0  0  0  0  0  0  0  0
   58.9798   33.3957   48.8499 H   0  0  0  0  0  0  0  0  0  0  0  0
  1  2  2  0
  2  3  1  0
  3  4  1  0
  4  5  1  0
  5  6  2  0
  6  7  1  0
  7  8  2  0
  8  9  1  0
  8 10  1  0
 10 11  1  0
 10 12  2  0
  2 13  1  0
 13 14  1  0
 14 15  2  0
 15 16  1  0
 16 17  1  0
 17 18  2  0
 17 19  2  0
 17 20  1  0
 20 21  1  0
 21 22  1  0
 22 23  1  0
 23 24  1  0
 15 25  1  0
 25 26  2  0
 25 27  1  0
 27 28  1  0
 28 29  1  0
 12  5  1  0
 28 13  2  0
 24 20  1  0
  4 30  1  0
  4 31  1  0
  6 32  1  0
  7 33  1  0
 11 34  1  0
 12 35  1  0
 14 36  1  0
 21 37  1  0
 21 38  1  0
 22 39  1  0
 22 40  1  0
 23 41  1  0
 23 42  1  0
 24 43  1  0
 24 44  1  0
M  CHG  5   3  -1   9  -1  16  -1  27  -1  29  -1
M  END
>  <UniqueID>  (86) 
84

>  <SMILES>  (86) 
O=C([N-]Cc1ccc([O-])c(O)c1)c1cc([N-]S(=O)(=O)N2CCCC2)c(=O)[n-]c1[O-]

>  <Energy>  (86) 
55.67147547234659

>  <Genealogy>  (86) 
O=C([N-]Cc1ccc([O-])c(O)c1)c1cc([N-]S(=O)(=O)N2CCCC2)c(=O)[n-]c1[O-] (protonated)
O=C([N-]Cc1ccc([O-])c(O)c1)c1cc([N-]S(=O)(=O)N2CCCC2)c(=O)[n-]c1[O-] (3D coordinates assigned)
O=C([N-]Cc1ccc([O-])c(O)c1)c1cc([N-]S(=O)(=O)N2CCCC2)c(=O)[n-]c1[O-] (nonaromatic ring conformer: 55.67147547234659 kcal/mol)

>  <smiles>  (86) 
O=C(NCc1ccc(O)c(O)c1)c1cc(NS(=O)(=O)N2CCCC2)c(=O)[nH]c1O

>  <score_type>  (86) 
oracle

>  <origin>  (86) 
adg

>  <m_score__min__energy>  (86) 
-18.48

>  <m_primary>  (86) 
energy

$$$$
87:0
     RDKit          3D

 53 55  0  0  0  0  0  0  0  0999 V2000
   58.0760   26.7520   42.6730 C   0  0  0  0  0  0  0  0  0  0  0  0
   58.6370   27.5910   43.8150 C   0  0  0  0  0  0  0  0  0  0  0  0
   57.7170   27.5890   44.9610 N   0  0  0  0  0  0  0  0  0  0  0  0
   56.7890   28.7180   45.1410 C   0  0  0  0  0  0  0  0  0  0  0  0
   57.5020   29.9090   45.7060 C   0  0  0  0  0  0  0  0  0  0  0  0
   58.5370   29.7490   46.4120 O   0  0  0  0  0  0  0  0  0  0  0  0
   57.0260   31.2200   45.3970 N   0  0  0  0  0  0  0  0  0  0  0  0
   57.8100   32.4180   45.4610 C   0  0  0  0  0  0  0  0  0  0  0  0
   58.1300   32.9360   46.7230 C   0  0  0  0  0  0  0  0  0  0  0  0
   58.8850   34.1060   46.8380 C   0  0  0  0  0  0  0  0  0  0  0  0
   59.3380   34.7590   45.6920 C   0  0  0  0  0  0  0  0  0  0  0  0
   59.0540   34.2320   44.4280 C   0  0  0  0  0  0  0  0  0  0  0  0
   58.3050   33.0550   44.3030 C   0  0  0  0  0  0  0  0  0  0  0  0
   58.1080   32.3590   42.7000 Cl  0  0  0  0  0  0  0  0  0  0  0  0
   57.6280   26.4170   45.7990 C   0  0  0  0  0  0  0  0  0  0  0  0
   58.3580   26.3230   46.8230 O   0  0  0  0  0  0  0  0  0  0  0  0
   56.7020   25.3090   45.4850 C   0  0  0  0  0  0  0  0  0  0  0  0
   57.2060   24.0930   44.9930 C   0  0  0  0  0  0  0  0  0  0  0  0
   56.3350   23.0560   44.6280 C   0  0  0  0  0  0  0  0  0  0  0  0
   56.9750   21.5360   43.9920 S   0  0  0  0  0  0  0  0  0  0  0  0
   58.4240   21.7220   43.6400 O   0  0  0  0  0  0  0  0  0  0  0  0
   56.2370   21.1790   42.7320 O   0  0  0  0  0  0  0  0  0  0  0  0
   56.8420   20.2250   45.1460 N   0  0  0  0  0  0  0  0  0  0  0  0
   57.6110   20.5130   46.3600 C   0  0  0  0  0  0  0  0  0  0  0  0
   56.6580   21.0820   47.3930 C   0  0  0  0  0  0  0  0  0  0  0  0
   55.2810   20.6220   46.9660 C   0  0  0  0  0  0  0  0  0  0  0  0
   55.4540   20.0230   45.5750 C   0  0  0  0  0  0  0  0  0  0  0  0
   54.9530   23.2380   44.7580 C   0  0  0  0  0  0  0  0  0  0  0  0
   54.4460   24.4390   45.2600 C   0  0  0  0  0  0  0  0  0  0  0  0
   55.3120   25.4750   45.6210 C   0  0  0  0  0  0  0  0  0  0  0  0
   54.7850   26.6610   46.1210 O   0  0  0  0  0  0  0  0  0  0  0  0
   57.5091   25.9042   43.0850 H   0  0  0  0  0  0  0  0  0  0  0  0
   57.4104   27.3724   42.0549 H   0  0  0  0  0  0  0  0  0  0  0  0
   58.9036   26.3739   42.0549 H   0  0  0  0  0  0  0  0  0  0  0  0
   59.6052   27.1733   44.1283 H   0  0  0  0  0  0  0  0  0  0  0  0
   58.7636   28.6260   43.4647 H   0  0  0  0  0  0  0  0  0  0  0  0
   56.3547   28.9866   44.1667 H   0  0  0  0  0  0  0  0  0  0  0  0
   55.9979   28.4153   45.8429 H   0  0  0  0  0  0  0  0  0  0  0  0
   57.7843   32.4178   47.6296 H   0  0  0  0  0  0  0  0  0  0  0  0
   59.1221   34.5121   47.8324 H   0  0  0  0  0  0  0  0  0  0  0  0
   59.9188   35.6888   45.7823 H   0  0  0  0  0  0  0  0  0  0  0  0
   59.4210   34.7449   43.5267 H   0  0  0  0  0  0  0  0  0  0  0  0
   58.2925   23.9533   44.8933 H   0  0  0  0  0  0  0  0  0  0  0  0
   58.0666   19.5875   46.7419 H   0  0  0  0  0  0  0  0  0  0  0  0
   58.4138   21.2328   46.1426 H   0  0  0  0  0  0  0  0  0  0  0  0
   56.8998   20.6952   48.3940 H   0  0  0  0  0  0  0  0  0  0  0  0
   56.7236   22.1786   47.4499 H   0  0  0  0  0  0  0  0  0  0  0  0
   54.8972   19.8636   47.6643 H   0  0  0  0  0  0  0  0  0  0  0  0
   54.5606   21.4533   46.9613 H   0  0  0  0  0  0  0  0  0  0  0  0
   55.2285   18.9468   45.6046 H   0  0  0  0  0  0  0  0  0  0  0  0
   54.7679   20.5123   44.8680 H   0  0  0  0  0  0  0  0  0  0  0  0
   54.2640   22.4325   44.4638 H   0  0  0  0  0  0  0  0  0  0  0  0
   53.3596   24.5701   45.3718 H   0  0  0  0  0  0  0  0  0  0  0  0
  1  2  1  0
  2  3  1  0
  3  4  1  0
  4  5  1  0
  5  6  2  0
  5  7  1  0
  7  8  1  0
  8  9  2  0
  9 10  1  0
 10 11  2  0
 11 12  1  0
 12 13  2  0
 13 14  1  0
  3 15  1  0
 15 16  2  0
 15 17  1  0
 17 18  2  0
 18 19  1  0
 19 20  1  0
 20 21  2  0
 20 22  2  0
 20 23  1  0
 23 24  1  0
 24 25  1  0
 25 26  1  0
 26 27  1  0
 19 28  2  0
 28 29  1  0
 29 30  2  0
 30 31  1  0
 13  8  1  0
 30 17  1  0
 27 23  1  0
  1 32  1  0
  1 33  1  0
  1 34  1  0
  2 35  1  0
  2 36  1  0
  4 37  1  0
  4 38  1  0
  9 39  1  0
 10 40  1  0
 11 41  1  0
 12 42  1  0
 18 43  1  0
 24 44  1  0
 24 45  1  0
 25 46  1  0
 25 47  1  0
 26 48  1  0
 26 49  1  0
 27 50  1  0
 27 51  1  0
 28 52  1  0
 29 53  1  0
M  CHG  2   7  -1  31  -1
M  END
>  <UniqueID>  (87) 
85

>  <SMILES>  (87) 
CCN(CC(=O)[N-]c1ccccc1Cl)C(=O)c1cc(S(=O)(=O)N2CCCC2)ccc1[O-]

>  <Energy>  (87) 
58.85338329839896

>  <Genealogy>  (87) 
CCN(CC(=O)[N-]c1ccccc1Cl)C(=O)c1cc(S(=O)(=O)N2CCCC2)ccc1[O-] (protonated)
CCN(CC(=O)[N-]c1ccccc1Cl)C(=O)c1cc(S(=O)(=O)N2CCCC2)ccc1[O-] (3D coordinates assigned)
CCN(CC(=O)[N-]c1ccccc1Cl)C(=O)c1cc(S(=O)(=O)N2CCCC2)ccc1[O-] (nonaromatic ring conformer: 58.85338329839896 kcal/mol)

>  <smiles>  (87) 
CCN(CC(=O)Nc1ccccc1Cl)C(=O)c1cc(S(=O)(=O)N2CCCC2)ccc1O

>  <score_type>  (87) 
oracle

>  <origin>  (87) 
adg

>  <m_score__min__energy>  (87) 
-13.789999999999999

>  <m_primary>  (87) 
energy

$$$$
88:0
     RDKit          3D

 67 70  0  0  0  0  0  0  0  0999 V2000
   62.4340   33.8590   48.2080 C   0  0  0  0  0  0  0  0  0  0  0  0
   63.4000   32.8750   48.8570 C   0  0  0  0  0  0  0  0  0  0  0  0
   62.6990   31.6240   49.2990 C   0  0  0  0  0  0  0  0  0  0  0  0
   63.0710   31.0650   50.3660 O   0  0  0  0  0  0  0  0  0  0  0  0
   61.6080   31.0690   48.5410 N   0  0  0  0  0  0  0  0  0  0  0  0
   60.5920   30.2810   49.2610 C   0  0  0  0  0  0  0  0  0  0  0  0
   59.2590   30.2860   48.5090 C   0  0  0  0  0  0  0  0  0  0  0  0
   59.5000   29.9640   47.1050 N   0  0  0  0  0  0  0  0  0  0  0  0
   59.0610   28.7100   46.5490 C   0  0  0  0  0  0  0  0  0  0  0  0
   59.8630   27.5710   46.6890 C   0  0  0  0  0  0  0  0  0  0  0  0
   59.4550   26.3490   46.1570 C   0  0  0  0  0  0  0  0  0  0  0  0
   58.2430   26.2370   45.4500 C   0  0  0  0  0  0  0  0  0  0  0  0
   57.8520   24.9110   44.8920 C   0  0  0  0  0  0  0  0  0  0  0  0
   58.3470   23.8680   45.4010 O   0  0  0  0  0  0  0  0  0  0  0  0
   56.9300   24.7720   43.7930 N   0  0  0  0  0  0  0  0  0  0  0  0
   56.6370   23.4710   43.1890 C   0  0  0  0  0  0  0  0  0  0  0  0
   56.3360   22.4130   44.2370 C   0  0  0  0  0  0  0  0  0  0  0  0
   57.1650   21.2750   44.3220 C   0  0  0  0  0  0  0  0  0  0  0  0
   56.9180   20.2730   45.2570 C   0  0  0  0  0  0  0  0  0  0  0  0
   55.8160   20.3690   46.1030 C   0  0  0  0  0  0  0  0  0  0  0  0
   54.9590   21.4660   46.0170 C   0  0  0  0  0  0  0  0  0  0  0  0
   55.1870   22.4910   45.0770 C   0  0  0  0  0  0  0  0  0  0  0  0
   54.2150   23.6540   45.0000 C   0  0  0  0  0  0  0  0  0  0  0  0
   53.1540   23.4460   45.8660 F   0  0  0  0  0  0  0  0  0  0  0  0
   54.8210   24.8510   45.3540 F   0  0  0  0  0  0  0  0  0  0  0  0
   53.7410   23.7750   43.7050 F   0  0  0  0  0  0  0  0  0  0  0  0
   57.4480   27.3930   45.2970 C   0  0  0  0  0  0  0  0  0  0  0  0
   57.8310   28.6190   45.8740 C   0  0  0  0  0  0  0  0  0  0  0  0
   57.0290   29.8050   45.7360 N   0  0  0  0  0  0  0  0  0  0  0  0
   57.1670   30.8400   44.7520 C   0  0  0  0  0  0  0  0  0  0  0  0
   56.7210   30.6660   43.5860 O   0  0  0  0  0  0  0  0  0  0  0  0
   57.7640   32.1510   45.1190 C   0  0  0  0  0  0  0  0  0  0  0  0
   57.7680   32.5610   46.4690 C   0  0  0  0  0  0  0  0  0  0  0  0
   58.3400   33.7800   46.8460 C   0  0  0  0  0  0  0  0  0  0  0  0
   58.9110   34.6130   45.8820 C   0  0  0  0  0  0  0  0  0  0  0  0
   58.9100   34.2280   44.5410 C   0  0  0  0  0  0  0  0  0  0  0  0
   58.3420   33.0070   44.1530 C   0  0  0  0  0  0  0  0  0  0  0  0
   58.3550   32.6750   42.8350 F   0  0  0  0  0  0  0  0  0  0  0  0
   60.4280   30.8250   46.3740 C   0  0  0  0  0  0  0  0  0  0  0  0
   61.7780   30.8600   47.0910 C   0  0  0  0  0  0  0  0  0  0  0  0
   61.8922   34.4109   48.9902 H   0  0  0  0  0  0  0  0  0  0  0  0
   62.9972   34.5674   47.5827 H   0  0  0  0  0  0  0  0  0  0  0  0
   61.7154   33.3090   47.5827 H   0  0  0  0  0  0  0  0  0  0  0  0
   64.1809   32.6087   48.1295 H   0  0  0  0  0  0  0  0  0  0  0  0
   63.8376   33.3563   49.7440 H   0  0  0  0  0  0  0  0  0  0  0  0
   60.9450   29.2439   49.3602 H   0  0  0  0  0  0  0  0  0  0  0  0
   60.4367   30.7320   50.2522 H   0  0  0  0  0  0  0  0  0  0  0  0
   58.5855   29.5355   48.9485 H   0  0  0  0  0  0  0  0  0  0  0  0
   58.7941   31.2800   48.5863 H   0  0  0  0  0  0  0  0  0  0  0  0
   60.8222   27.6410   47.2228 H   0  0  0  0  0  0  0  0  0  0  0  0
   60.0888   25.4600   46.2915 H   0  0  0  0  0  0  0  0  0  0  0  0
   56.4330   25.5920   43.3910 H   0  0  0  0  0  0  0  0  0  0  0  0
   55.7640   23.5747   42.5278 H   0  0  0  0  0  0  0  0  0  0  0  0
   57.5257   23.1493   42.6262 H   0  0  0  0  0  0  0  0  0  0  0  0
   58.0211   21.1774   43.6382 H   0  0  0  0  0  0  0  0  0  0  0  0
   57.5924   19.4069   45.3272 H   0  0  0  0  0  0  0  0  0  0  0  0
   55.6209   19.5773   46.8413 H   0  0  0  0  0  0  0  0  0  0  0  0
   54.0931   21.5321   46.6922 H   0  0  0  0  0  0  0  0  0  0  0  0
   56.5145   27.3354   44.7179 H   0  0  0  0  0  0  0  0  0  0  0  0
   57.3155   31.9136   47.2346 H   0  0  0  0  0  0  0  0  0  0  0  0
   58.3401   34.0830   47.9034 H   0  0  0  0  0  0  0  0  0  0  0  0
   59.3611   35.5716   46.1794 H   0  0  0  0  0  0  0  0  0  0  0  0
   59.3581   34.8873   43.7831 H   0  0  0  0  0  0  0  0  0  0  0  0
   60.5656   30.4320   45.3559 H   0  0  0  0  0  0  0  0  0  0  0  0
   60.0162   31.8439   46.3261 H   0  0  0  0  0  0  0  0  0  0  0  0
   62.2971   29.9045   46.9249 H   0  0  0  0  0  0  0  0  0  0  0  0
   62.3655   31.6970   46.6856 H   0  0  0  0  0  0  0  0  0  0  0  0
  1  2  1  0
  2  3  1  0
  3  4  2  0
  3  5  1  0
  5  6  1  0
  6  7  1  0
  7  8  1  0
  8  9  1  0
  9 10  2  0
 10 11  1  0
 11 12  2  0
 12 13  1  0
 13 14  2  0
 13 15  1  0
 15 16  1  0
 16 17  1  0
 17 18  2  0
 18 19  1  0
 19 20  2  0
 20 21  1  0
 21 22  2  0
 22 23  1  0
 23 24  1  0
 23 25  1  0
 23 26  1  0
 12 27  1  0
 27 28  2  0
 28 29  1  0
 29 30  1  0
 30 31  2  0
 30 32  1  0
 32 33  2  0
 33 34  1  0
 34 35  2  0
 35 36  1  0
 36 37  2  0
 37 38  1  0
  8 39  1  0
 39 40  1  0
 40  5  1  0
 28  9  1  0
 37 32  1  0
 22 17  1  0
  1 41  1  0
  1 42  1  0
  1 43  1  0
  2 44  1  0
  2 45  1  0
  6 46  1  0
  6 47  1  0
  7 48  1  0
  7 49  1  0
 10 50  1  0
 11 51  1  0
 15 52  1  0
 16 53  1  0
 16 54  1  0
 18 55  1  0
 19 56  1  0
 20 57  1  0
 21 58  1  0
 27 59  1  0
 33 60  1  0
 34 61  1  0
 35 62  1  0
 36 63  1  0
 39 64  1  0
 39 65  1  0
 40 66  1  0
 40 67  1  0
M  CHG  1  29  -1
M  END
>  <UniqueID>  (88) 
86

>  <SMILES>  (88) 
CCC(=O)N1CCN(c2ccc(C(=O)NCc3ccccc3C(F)(F)F)cc2[N-]C(=O)c2ccccc2F)CC1

>  <Energy>  (88) 
85.75714161054641

>  <Genealogy>  (88) 
CCC(=O)N1CCN(c2ccc(C(=O)NCc3ccccc3C(F)(F)F)cc2[N-]C(=O)c2ccccc2F)CC1 (protonated)
CCC(=O)N1CCN(c2ccc(C(=O)NCc3ccccc3C(F)(F)F)cc2[N-]C(=O)c2ccccc2F)CC1 (3D coordinates assigned)
CCC(=O)N1CCN(c2ccc(C(=O)NCc3ccccc3C(F)(F)F)cc2[N-]C(=O)c2ccccc2F)CC1 (nonaromatic ring conformer: 85.75714161054641 kcal/mol)

>  <smiles>  (88) 
CCC(=O)N1CCN(c2ccc(C(=O)NCc3ccccc3C(F)(F)F)cc2NC(=O)c2ccccc2F)CC1

>  <score_type>  (88) 
oracle

>  <origin>  (88) 
adg

>  <m_score__min__energy>  (88) 
-10.84

>  <m_primary>  (88) 
energy

$$$$
89:0
     RDKit          3D

 50 52  0  0  0  0  0  0  0  0999 V2000
   63.2300   33.7710   49.2870 C   0  0  0  0  0  0  0  0  0  0  0  0
   62.8900   33.2280   47.6280 S   0  0  0  0  0  0  0  0  0  0  0  0
   63.7270   34.0170   46.6610 O   0  0  0  0  0  0  0  0  0  0  0  0
   63.2340   31.7710   47.4900 O   0  0  0  0  0  0  0  0  0  0  0  0
   61.1820   33.4720   47.2840 C   0  0  0  0  0  0  0  0  0  0  0  0
   60.7840   34.4860   46.4050 C   0  0  0  0  0  0  0  0  0  0  0  0
   59.4360   34.6400   46.0730 C   0  0  0  0  0  0  0  0  0  0  0  0
   58.4700   33.7790   46.6180 C   0  0  0  0  0  0  0  0  0  0  0  0
   57.0480   33.8310   46.1280 C   0  0  0  0  0  0  0  0  0  0  0  0
   57.0190   33.6750   44.6770 N   0  0  0  0  0  0  0  0  0  0  0  0
   57.9100   32.7790   44.0070 C   0  0  0  0  0  0  0  0  0  0  0  0
   58.8010   33.2500   43.2520 O   0  0  0  0  0  0  0  0  0  0  0  0
   57.8260   31.3200   44.2500 C   0  0  0  0  0  0  0  0  0  0  0  0
   58.7580   30.6750   45.0720 C   0  0  0  0  0  0  0  0  0  0  0  0
   58.6290   29.3150   45.3490 C   0  0  0  0  0  0  0  0  0  0  0  0
   57.5640   28.5860   44.7920 C   0  0  0  0  0  0  0  0  0  0  0  0
   57.4170   27.1740   45.0650 N   0  0  0  0  0  0  0  0  0  0  0  0
   57.7020   26.1310   44.0910 C   0  0  0  0  0  0  0  0  0  0  0  0
   57.6190   24.8170   44.8530 C   0  0  0  0  0  0  0  0  0  0  0  0
   56.8310   25.1210   46.1330 C   0  0  2  0  0  0  0  0  0  0  0  0
   55.3480   24.7340   45.9930 C   0  0  0  0  0  0  0  0  0  0  0  0
   54.5540   25.8880   45.9020 O   0  0  0  0  0  0  0  0  0  0  0  0
   56.9960   26.6310   46.3480 C   0  0  0  0  0  0  0  0  0  0  0  0
   56.6700   29.2320   43.9850 N   0  0  0  0  0  0  0  0  0  0  0  0
   56.7800   30.5590   43.7050 C   0  0  0  0  0  0  0  0  0  0  0  0
   58.8700   32.7680   47.5060 C   0  0  0  0  0  0  0  0  0  0  0  0
   60.2200   32.6160   47.8360 C   0  0  0  0  0  0  0  0  0  0  0  0
   62.7867   33.0630   50.0026 H   0  0  0  0  0  0  0  0  0  0  0  0
   64.3180   33.8163   49.4422 H   0  0  0  0  0  0  0  0  0  0  0  0
   62.7956   34.7696   49.4422 H   0  0  0  0  0  0  0  0  0  0  0  0
   61.5355   35.1640   45.9741 H   0  0  0  0  0  0  0  0  0  0  0  0
   59.1300   35.4391   45.3818 H   0  0  0  0  0  0  0  0  0  0  0  0
   56.4712   33.0187   46.5942 H   0  0  0  0  0  0  0  0  0  0  0  0
   56.6061   34.8015   46.3978 H   0  0  0  0  0  0  0  0  0  0  0  0
   59.5958   31.2441   45.5012 H   0  0  0  0  0  0  0  0  0  0  0  0
   59.3587   28.8135   46.0018 H   0  0  0  0  0  0  0  0  0  0  0  0
   56.9589   26.1510   43.2802 H   0  0  0  0  0  0  0  0  0  0  0  0
   58.6906   26.2686   43.6286 H   0  0  0  0  0  0  0  0  0  0  0  0
   57.0950   24.0590   44.2523 H   0  0  0  0  0  0  0  0  0  0  0  0
   58.6188   24.4185   45.0799 H   0  0  0  0  0  0  0  0  0  0  0  0
   57.2037   24.5387   46.9886 H   0  0  0  0  0  0  0  0  0  0  0  0
   55.2145   24.1281   45.0847 H   0  0  0  0  0  0  0  0  0  0  0  0
   55.0421   24.1558   46.8774 H   0  0  0  0  0  0  0  0  0  0  0  0
   53.7020   25.6990   46.3750 H   0  0  0  0  0  0  0  0  0  0  0  0
   56.0408   27.0797   46.6583 H   0  0  0  0  0  0  0  0  0  0  0  0
   57.7297   26.8482   47.1383 H   0  0  0  0  0  0  0  0  0  0  0  0
   55.8660   28.7170   43.5660 H   0  0  0  0  0  0  0  0  0  0  0  0
   56.0425   31.0398   43.0455 H   0  0  0  0  0  0  0  0  0  0  0  0
   58.1191   32.0935   47.9434 H   0  0  0  0  0  0  0  0  0  0  0  0
   60.5280   31.8214   48.5316 H   0  0  0  0  0  0  0  0  0  0  0  0
  1  2  1  0
  2  3  2  0
  2  4  2  0
  2  5  1  0
  5  6  2  0
  6  7  1  0
  7  8  2  0
  8  9  1  0
  9 10  1  0
 10 11  1  0
 11 12  2  0
 11 13  1  0
 13 14  2  0
 14 15  1  0
 15 16  2  0
 16 17  1  0
 17 18  1  0
 18 19  1  0
 19 20  1  0
 20 21  1  0
 21 22  1  0
 20 23  1  0
 16 24  1  0
 24 25  2  0
  8 26  1  0
 26 27  2  0
 27  5  1  0
 25 13  1  0
 23 17  1  0
  1 28  1  0
  1 29  1  0
  1 30  1  0
  6 31  1  0
  7 32  1  0
  9 33  1  0
  9 34  1  0
 14 35  1  0
 15 36  1  0
 18 37  1  0
 18 38  1  0
 19 39  1  0
 19 40  1  0
 20 41  1  1
 21 42  1  0
 21 43  1  0
 22 44  1  0
 23 45  1  0
 23 46  1  0
 24 47  1  0
 25 48  1  0
 26 49  1  0
 27 50  1  0
M  CHG  2  10  -1  24   1
M  END
>  <UniqueID>  (89) 
87

>  <SMILES>  (89) 
CS(=O)(=O)c1ccc(C[N-]C(=O)c2ccc(N3CC[C@H](CO)C3)[nH+]c2)cc1

>  <Energy>  (89) 
51.79124950811442

>  <Genealogy>  (89) 
CS(=O)(=O)c1ccc(C[N-]C(=O)c2ccc(N3CCC(CO)C3)[nH+]c2)cc1 (protonated)
CS(=O)(=O)c1ccc(C[N-]C(=O)c2ccc(N3CC[C@H](CO)C3)[nH+]c2)cc1 (chirality)
CS(=O)(=O)c1ccc(C[N-]C(=O)c2ccc(N3CC[C@H](CO)C3)[nH+]c2)cc1 (3D coordinates assigned)
CS(=O)(=O)c1ccc(C[N-]C(=O)c2ccc(N3CC[C@H](CO)C3)[nH+]c2)cc1 (nonaromatic ring conformer: 51.79124950811442 kcal/mol)

>  <smiles>  (89) 
CS(=O)(=O)c1ccc(CNC(=O)c2ccc(N3CCC(CO)C3)nc2)cc1

>  <score_type>  (89) 
oracle

>  <origin>  (89) 
adg

>  <m_score__min__energy>  (89) 
-8.6500000000000004

>  <m_primary>  (89) 
energy

$$$$
90:0
     RDKit          3D

 69 72  0  0  0  0  0  0  0  0999 V2000
   51.5880   23.2360   50.5600 C   0  0  0  0  0  0  0  0  0  0  0  0
   52.1480   22.2800   49.5990 N   0  0  0  0  0  0  0  0  0  0  0  0
   53.2710   21.4190   49.9850 C   0  0  0  0  0  0  0  0  0  0  0  0
   51.5800   22.2020   48.2730 C   0  0  0  0  0  0  0  0  0  0  0  0
   50.5680   22.9030   47.9870 O   0  0  0  0  0  0  0  0  0  0  0  0
   52.1810   21.2990   47.2220 C   0  0  0  0  0  0  0  0  0  0  0  0
   52.7160   22.0660   46.0470 C   0  0  0  0  0  0  0  0  0  0  0  0
   51.9050   22.6030   45.2460 O   0  0  0  0  0  0  0  0  0  0  0  0
   54.1360   22.0730   45.8170 N   0  0  0  0  0  0  0  0  0  0  0  0
   55.1410   22.2790   46.6300 C   0  0  0  0  0  0  0  0  0  0  0  0
   55.5770   21.3260   47.5780 C   0  0  0  0  0  0  0  0  0  0  0  0
   56.6450   21.6280   48.4240 C   0  0  0  0  0  0  0  0  0  0  0  0
   57.2660   22.8310   48.3380 N   0  0  0  0  0  0  0  0  0  0  0  0
   56.8820   23.7700   47.4330 C   0  0  0  0  0  0  0  0  0  0  0  0
   55.8230   23.5140   46.5500 C   0  0  0  0  0  0  0  0  0  0  0  0
   55.3810   24.7330   45.3440 S   0  0  0  0  0  0  0  0  0  0  0  0
   53.9910   24.4550   44.8390 O   0  0  0  0  0  0  0  0  0  0  0  0
   56.3720   24.6650   44.2130 O   0  0  0  0  0  0  0  0  0  0  0  0
   55.4420   26.3170   46.0530 N   0  0  0  0  0  0  0  0  0  0  0  0
   56.6040   27.1560   46.0880 C   0  0  0  0  0  0  0  0  0  0  0  0
   56.6660   28.2560   45.2230 C   0  0  0  0  0  0  0  0  0  0  0  0
   57.7570   29.1300   45.2630 C   0  0  0  0  0  0  0  0  0  0  0  0
   58.8020   28.9110   46.1710 C   0  0  0  0  0  0  0  0  0  0  0  0
   59.9280   29.8570   46.2730 C   0  0  0  0  0  0  0  0  0  0  0  0
   61.0960   29.3960   46.1700 O   0  0  0  0  0  0  0  0  0  0  0  0
   59.7210   31.2620   46.5640 N   0  0  0  0  0  0  0  0  0  0  0  0
   60.8710   32.1690   46.7190 C   0  0  0  0  0  0  0  0  0  0  0  0
   60.8390   32.9160   48.0730 C   0  0  0  0  0  0  0  0  0  0  0  0
   59.4160   33.0540   48.7040 C   0  0  0  0  0  0  0  0  0  0  0  0
   59.3560   34.2830   49.3900 O   0  0  0  0  0  0  0  0  0  0  0  0
   59.0440   31.9200   49.6790 C   0  0  0  0  0  0  0  0  0  0  0  0
   59.8100   30.7340   49.6670 C   0  0  0  0  0  0  0  0  0  0  0  0
   59.5630   29.7130   50.5890 C   0  0  0  0  0  0  0  0  0  0  0  0
   58.5600   29.8610   51.5470 C   0  0  0  0  0  0  0  0  0  0  0  0
   57.7970   31.0300   51.5830 C   0  0  0  0  0  0  0  0  0  0  0  0
   58.0340   32.0530   50.6620 C   0  0  0  0  0  0  0  0  0  0  0  0
   58.3740   33.1070   47.5640 C   0  0  0  0  0  0  0  0  0  0  0  0
   58.3610   31.7990   46.7560 C   0  0  0  0  0  0  0  0  0  0  0  0
   58.7710   27.7770   46.9980 C   0  0  0  0  0  0  0  0  0  0  0  0
   57.6780   26.9070   46.9630 C   0  0  0  0  0  0  0  0  0  0  0  0
   51.7915   22.8887   51.5837 H   0  0  0  0  0  0  0  0  0  0  0  0
   52.0512   24.2221   50.4085 H   0  0  0  0  0  0  0  0  0  0  0  0
   50.5013   23.3142   50.4085 H   0  0  0  0  0  0  0  0  0  0  0  0
   53.3351   21.3698   51.0820 H   0  0  0  0  0  0  0  0  0  0  0  0
   53.1136   20.4080   49.5812 H   0  0  0  0  0  0  0  0  0  0  0  0
   54.2065   21.8335   49.5812 H   0  0  0  0  0  0  0  0  0  0  0  0
   53.0044   20.7279   47.6757 H   0  0  0  0  0  0  0  0  0  0  0  0
   51.3846   20.6349   46.8548 H   0  0  0  0  0  0  0  0  0  0  0  0
   55.0761   20.3492   47.6489 H   0  0  0  0  0  0  0  0  0  0  0  0
   56.9846   20.8877   49.1634 H   0  0  0  0  0  0  0  0  0  0  0  0
   57.4053   24.7367   47.3931 H   0  0  0  0  0  0  0  0  0  0  0  0
   55.8503   28.4337   44.5068 H   0  0  0  0  0  0  0  0  0  0  0  0
   57.7951   29.9915   44.5801 H   0  0  0  0  0  0  0  0  0  0  0  0
   61.7984   31.5805   46.6595 H   0  0  0  0  0  0  0  0  0  0  0  0
   60.8243   32.9186   45.9153 H   0  0  0  0  0  0  0  0  0  0  0  0
   61.4777   32.3691   48.7822 H   0  0  0  0  0  0  0  0  0  0  0  0
   61.1935   33.9382   47.8746 H   0  0  0  0  0  0  0  0  0  0  0  0
   60.2400   34.4320   49.8200 H   0  0  0  0  0  0  0  0  0  0  0  0
   60.6109   30.6121   48.9229 H   0  0  0  0  0  0  0  0  0  0  0  0
   60.1611   28.7903   50.5591 H   0  0  0  0  0  0  0  0  0  0  0  0
   58.3702   29.0573   52.2737 H   0  0  0  0  0  0  0  0  0  0  0  0
   57.0066   31.1456   52.3393 H   0  0  0  0  0  0  0  0  0  0  0  0
   57.4297   32.9713   50.7009 H   0  0  0  0  0  0  0  0  0  0  0  0
   57.3764   33.2697   47.9980 H   0  0  0  0  0  0  0  0  0  0  0  0
   58.6433   33.9305   46.8862 H   0  0  0  0  0  0  0  0  0  0  0  0
   57.7563   31.0539   47.2938 H   0  0  0  0  0  0  0  0  0  0  0  0
   57.9341   32.0128   45.7650 H   0  0  0  0  0  0  0  0  0  0  0  0
   59.6116   27.5722   47.6772 H   0  0  0  0  0  0  0  0  0  0  0  0
   57.6569   26.0256   47.6208 H   0  0  0  0  0  0  0  0  0  0  0  0
  1  2  1  0
  2  3  1  0
  2  4  1  0
  4  5  2  0
  4  6  1  0
  6  7  1  0
  7  8  2  0
  7  9  1  0
  9 10  2  3
 10 11  1  0
 11 12  2  0
 12 13  1  0
 13 14  1  0
 14 15  2  0
 15 16  1  0
 16 17  2  0
 16 18  2  0
 16 19  1  0
 19 20  1  0
 20 21  2  0
 21 22  1  0
 22 23  2  0
 23 24  1  0
 24 25  2  0
 24 26  1  0
 26 27  1  0
 27 28  1  0
 28 29  1  0
 29 30  1  0
 29 31  1  0
 31 32  2  0
 32 33  1  0
 33 34  2  0
 34 35  1  0
 35 36  2  0
 29 37  1  0
 37 38  1  0
 23 39  1  0
 39 40  2  0
 15 10  1  0
 40 20  1  0
 38 26  1  0
 36 31  1  0
  1 41  1  0
  1 42  1  0
  1 43  1  0
  3 44  1  0
  3 45  1  0
  3 46  1  0
  6 47  1  0
  6 48  1  0
 11 49  1  0
 12 50  1  0
 14 51  1  0
 21 52  1  0
 22 53  1  0
 27 54  1  0
 27 55  1  0
 28 56  1  0
 28 57  1  0
 30 58  1  0
 32 59  1  0
 33 60  1  0
 34 61  1  0
 35 62  1  0
 36 63  1  0
 37 64  1  0
 37 65  1  0
 38 66  1  0
 38 67  1  0
 39 68  1  0
 40 69  1  0
M  CHG  2  13  -1  19  -1
M  END
>  <UniqueID>  (90) 
88

>  <SMILES>  (90) 
CN(C)C(=O)CC(=O)N=c1cc[n-]cc1S(=O)(=O)[N-]c1ccc(C(=O)N2CCC(O)(c3ccccc3)CC2)cc1

>  <Energy>  (90) 
98.48867323105969

>  <Genealogy>  (90) 
CN(C)C(=O)CC(=O)N=c1cc[n-]cc1S(=O)(=O)[N-]c1ccc(C(=O)N2CCC(O)(c3ccccc3)CC2)cc1 (protonated)
CN(C)C(=O)CC(=O)N=c1cc[n-]cc1S(=O)(=O)[N-]c1ccc(C(=O)N2CCC(O)(c3ccccc3)CC2)cc1 (3D coordinates assigned)
CN(C)C(=O)CC(=O)N=c1cc[n-]cc1S(=O)(=O)[N-]c1ccc(C(=O)N2CCC(O)(c3ccccc3)CC2)cc1 (nonaromatic ring conformer: 98.48867323105969 kcal/mol)

>  <smiles>  (90) 
CN(C)C(=O)CC(=O)N=c1cc[nH]cc1S(=O)(=O)Nc1ccc(C(=O)N2CCC(O)(c3ccccc3)CC2)cc1

>  <score_type>  (90) 
oracle

>  <origin>  (90) 
adg

>  <m_score__min__energy>  (90) 
-12.34

>  <m_primary>  (90) 
energy

$$$$
