0:0
     RDKit          3D

 44 48  0  0  0  0  0  0  0  0999 V2000
   59.2191   31.6792   49.8165 H   0  0  0  0  0  0  0  0  0  0  0  0
   59.2080   32.3730   48.9630 C   0  0  0  0  0  0  0  0  0  0  0  0
   59.6470   33.7000   49.1330 C   0  0  0  0  0  0  0  0  0  0  0  0
   59.9892   34.0424   50.1207 H   0  0  0  0  0  0  0  0  0  0  0  0
   59.6490   34.5870   48.0450 C   0  0  0  0  0  0  0  0  0  0  0  0
   60.0048   35.6211   48.1632 H   0  0  0  0  0  0  0  0  0  0  0  0
   59.1890   34.1270   46.8090 C   0  0  0  0  0  0  0  0  0  0  0  0
   58.7300   32.8470   46.6500 C   0  0  0  0  0  0  0  0  0  0  0  0
   58.7560   31.9310   47.7090 C   0  0  0  0  0  0  0  0  0  0  0  0
   58.4303   30.8906   47.5622 H   0  0  0  0  0  0  0  0  0  0  0  0
   58.3630   32.6020   45.3000 N   0  0  0  0  0  0  0  0  0  0  0  0
   57.7430   31.4260   44.7600 C   0  0  0  0  0  0  0  0  0  0  0  0
   57.5720   30.3350   45.5540 N   0  0  0  0  0  0  0  0  0  0  0  0
   57.0130   29.1880   45.0860 C   0  0  0  0  0  0  0  0  0  0  0  0
   56.8790   28.1820   45.9050 N   0  0  0  0  0  0  0  0  0  0  0  0
   57.6200   26.9520   45.8970 C   0  0  0  0  0  0  0  0  0  0  0  0
   58.9400   26.8930   46.3810 C   0  0  0  0  0  0  0  0  0  0  0  0
   59.4030   27.7890   46.8201 H   0  0  0  0  0  0  0  0  0  0  0  0
   59.6660   25.6990   46.3060 C   0  0  0  0  0  0  0  0  0  0  0  0
   60.6896   25.6497   46.7058 H   0  0  0  0  0  0  0  0  0  0  0  0
   59.0870   24.5700   45.7220 C   0  0  0  0  0  0  0  0  0  0  0  0
   57.7750   24.6250   45.2340 C   0  0  0  0  0  0  0  0  0  0  0  0
   57.0530   25.8200   45.2960 C   0  0  0  0  0  0  0  0  0  0  0  0
   56.0390   25.8721   44.8728 H   0  0  0  0  0  0  0  0  0  0  0  0
   57.2060   23.4710   44.6850 O   0  0  0  0  0  0  0  0  0  0  0  0
   57.8160   22.1900   44.8640 C   0  0  0  0  0  0  0  0  0  0  0  0
   57.5416   21.7921   45.8521 H   0  0  0  0  0  0  0  0  0  0  0  0
   57.4627   21.5114   44.0737 H   0  0  0  0  0  0  0  0  0  0  0  0
   59.3420   22.3110   44.7730 C   0  0  0  0  0  0  0  0  0  0  0  0
   59.8011   21.3661   45.0991 H   0  0  0  0  0  0  0  0  0  0  0  0
   59.6225   22.5264   43.7314 H   0  0  0  0  0  0  0  0  0  0  0  0
   59.8060   23.3740   45.6090 O   0  0  0  0  0  0  0  0  0  0  0  0
   56.6470   29.1070   43.7690 N   0  0  0  0  0  0  0  0  0  0  0  0
   56.2720   28.2260   43.3560 H   0  0  0  0  0  0  0  0  0  0  0  0
   56.8190   30.1680   42.9360 C   0  0  0  0  0  0  0  0  0  0  0  0
   56.5176   30.0905   41.8809 H   0  0  0  0  0  0  0  0  0  0  0  0
   57.3750   31.3520   43.4130 C   0  0  0  0  0  0  0  0  0  0  0  0
   57.5219   32.2123   42.7434 H   0  0  0  0  0  0  0  0  0  0  0  0
   58.6640   33.7940   44.5080 C   0  0  0  0  0  0  0  0  0  0  0  0
   57.7590   34.1494   43.9935 H   0  0  0  0  0  0  0  0  0  0  0  0
   59.4178   33.5839   43.7350 H   0  0  0  0  0  0  0  0  0  0  0  0
   59.1650   34.8600   45.5130 C   0  0  0  0  0  0  0  0  0  0  0  0
   58.4744   35.7150   45.5570 H   0  0  0  0  0  0  0  0  0  0  0  0
   60.1434   35.2820   45.2398 H   0  0  0  0  0  0  0  0  0  0  0  0
  1  2  1  0
  2  3  2  0
  3  4  1  0
  3  5  1  0
  5  6  1  0
  5  7  2  0
  7  8  1  0
  8  9  2  0
  9 10  1  0
  8 11  1  0
 11 12  1  0
 12 13  2  0
 13 14  1  0
 14 15  2  0
 15 16  1  0
 16 17  2  0
 17 18  1  0
 17 19  1  0
 19 20  1  0
 19 21  2  0
 21 22  1  0
 22 23  2  0
 23 24  1  0
 22 25  1  0
 25 26  1  0
 26 27  1  0
 26 28  1  0
 26 29  1  0
 29 30  1  0
 29 31  1  0
 29 32  1  0
 14 33  1  0
 33 34  1  0
 33 35  1  0
 35 36  1  0
 35 37  2  0
 37 38  1  0
 11 39  1  0
 39 40  1  0
 39 41  1  0
 39 42  1  0
 42 43  1  0
 42 44  1  0
  9  2  1  0
 37 12  1  0
 42  7  1  0
 23 16  1  0
 32 21  1  0
M  END
>  <UniqueID>  (1) 
1

>  <SMILES>  (1) 
c1ccc2c(c1)CCN2c1cc[nH]/c(=N\c2ccc3c(c2)OCCO3)n1

>  <Energy>  (1) 
78.80161032623131

>  <Genealogy>  (1) 
c1ccc2c(c1)CCN2c1cc[nH]/c(=N\c2ccc3c(c2)OCCO3)n1 (cis-trans isomerization)
c1ccc2c(c1)CCN2c1cc[nH]/c(=N\c2ccc3c(c2)OCCO3)n1 (3D coordinates assigned)
c1ccc2c(c1)CCN2c1cc[nH]/c(=N\c2ccc3c(c2)OCCO3)n1 (nonaromatic ring conformer: 78.80161032623131 kcal/mol)

>  <smiles>  (1) 
c1ccc2c(c1)CCN2c1cc[nH]c(=Nc2ccc3c(c2)OCCO3)n1

>  <score_type>  (1) 
oracle

>  <origin>  (1) 
adg

>  <m_score__min__energy>  (1) 
-8.5099999999999998

>  <m_primary>  (1) 
energy

$$$$
1:0
     RDKit          3D

 47 50  0  0  0  0  0  0  0  0999 V2000
   59.1720   30.5330   48.2210 O   0  0  0  0  0  0  0  0  0  0  0  0
   58.7790   31.4290   49.0180 C   0  0  0  0  0  0  0  0  0  0  0  0
   58.8120   32.8080   48.6110 N   0  0  0  0  0  0  0  0  0  0  0  0
   58.8240   33.2320   47.2360 C   0  0  0  0  0  0  0  0  0  0  0  0
   58.3210   32.4040   46.2160 C   0  0  0  0  0  0  0  0  0  0  0  0
   58.3040   32.8400   44.8800 C   0  0  0  0  0  0  0  0  0  0  0  0
   57.7690   31.9400   43.7940 C   0  0  0  0  0  0  0  0  0  0  0  0
   57.2960   30.6220   44.3550 C   0  0  0  0  0  0  0  0  0  0  0  0
   55.9560   30.4320   44.4910 N   0  0  0  0  0  0  0  0  0  0  0  0
   55.4420   29.2810   44.9220 N   0  0  0  0  0  0  0  0  0  0  0  0
   56.2330   28.2260   45.2410 C   0  0  0  0  0  0  0  0  0  0  0  0
   55.7030   27.1500   45.6250 O   0  0  0  0  0  0  0  0  0  0  0  0
   57.6240   28.3490   45.1340 C   0  0  0  0  0  0  0  0  0  0  0  0
   58.1720   29.5650   44.6930 C   0  0  0  0  0  0  0  0  0  0  0  0
   59.6740   29.6380   44.5260 C   0  0  0  0  0  0  0  0  0  0  0  0
   60.4030   28.9900   45.7180 C   0  0  0  0  0  0  0  0  0  0  0  0
   59.7700   27.6700   46.2280 C   0  0  0  0  0  0  0  0  0  0  0  0
   58.5580   27.1970   45.4130 C   0  0  0  0  0  0  0  0  0  0  0  0
   58.8110   34.1100   44.5670 C   0  0  0  0  0  0  0  0  0  0  0  0
   59.2940   34.9440   45.5780 C   0  0  0  0  0  0  0  0  0  0  0  0
   59.2940   34.5140   46.9060 C   0  0  0  0  0  0  0  0  0  0  0  0
   59.7710   35.3410   47.8710 F   0  0  0  0  0  0  0  0  0  0  0  0
   58.3350   31.0490   50.3810 C   0  0  0  0  0  0  0  0  0  0  0  0
   58.7420   29.8330   50.9620 C   0  0  0  0  0  0  0  0  0  0  0  0
   58.3240   29.4900   52.2520 C   0  0  0  0  0  0  0  0  0  0  0  0
   57.5000   30.3560   52.9770 C   0  0  0  0  0  0  0  0  0  0  0  0
   57.0970   31.5690   52.4140 C   0  0  0  0  0  0  0  0  0  0  0  0
   57.5130   31.9170   51.1250 C   0  0  0  0  0  0  0  0  0  0  0  0
   58.9350   33.5350   49.3510 H   0  0  0  0  0  0  0  0  0  0  0  0
   57.9367   31.4043   46.4668 H   0  0  0  0  0  0  0  0  0  0  0  0
   56.9251   32.4411   43.2973 H   0  0  0  0  0  0  0  0  0  0  0  0
   58.5804   31.7406   43.0785 H   0  0  0  0  0  0  0  0  0  0  0  0
   59.9577   29.1108   43.6032 H   0  0  0  0  0  0  0  0  0  0  0  0
   59.9661   30.6973   44.4753 H   0  0  0  0  0  0  0  0  0  0  0  0
   61.4378   28.7772   45.4115 H   0  0  0  0  0  0  0  0  0  0  0  0
   60.3351   29.7072   46.5493 H   0  0  0  0  0  0  0  0  0  0  0  0
   60.5378   26.8831   46.1927 H   0  0  0  0  0  0  0  0  0  0  0  0
   59.4077   27.8667   47.2478 H   0  0  0  0  0  0  0  0  0  0  0  0
   58.9063   26.7746   44.4589 H   0  0  0  0  0  0  0  0  0  0  0  0
   58.0171   26.4338   45.9918 H   0  0  0  0  0  0  0  0  0  0  0  0
   58.8282   34.4504   43.5211 H   0  0  0  0  0  0  0  0  0  0  0  0
   59.6762   35.9443   45.3265 H   0  0  0  0  0  0  0  0  0  0  0  0
   59.3927   29.1485   50.3981 H   0  0  0  0  0  0  0  0  0  0  0  0
   58.6444   28.5365   52.6972 H   0  0  0  0  0  0  0  0  0  0  0  0
   57.1694   30.0823   53.9898 H   0  0  0  0  0  0  0  0  0  0  0  0
   56.4512   32.2519   52.9855 H   0  0  0  0  0  0  0  0  0  0  0  0
   57.1957   32.8758   50.6891 H   0  0  0  0  0  0  0  0  0  0  0  0
  1  2  2  0
  2  3  1  0
  3  4  1  0
  4  5  2  0
  5  6  1  0
  6  7  1  0
  7  8  1  0
  8  9  2  0
  9 10  1  0
 10 11  1  0
 11 12  2  0
 11 13  1  0
 13 14  2  0
 14 15  1  0
 15 16  1  0
 16 17  1  0
 17 18  1  0
  6 19  2  0
 19 20  1  0
 20 21  2  0
 21 22  1  0
  2 23  1  0
 23 24  2  0
 24 25  1  0
 25 26  2  0
 26 27  1  0
 27 28  2  0
 21  4  1  0
 28 23  1  0
 14  8  1  0
 18 13  1  0
  3 29  1  0
  5 30  1  0
  7 31  1  0
  7 32  1  0
 15 33  1  0
 15 34  1  0
 16 35  1  0
 16 36  1  0
 17 37  1  0
 17 38  1  0
 18 39  1  0
 18 40  1  0
 19 41  1  0
 20 42  1  0
 24 43  1  0
 25 44  1  0
 26 45  1  0
 27 46  1  0
 28 47  1  0
M  CHG  1  10  -1
M  END
>  <UniqueID>  (2) 
2

>  <SMILES>  (2) 
O=C(Nc1cc(Cc2n[n-]c(=O)c3c2CCCC3)ccc1F)c1ccccc1

>  <Energy>  (2) 
64.07943277028517

>  <Genealogy>  (2) 
O=C(Nc1cc(Cc2n[n-]c(=O)c3c2CCCC3)ccc1F)c1ccccc1 (protonated)
O=C(Nc1cc(Cc2n[n-]c(=O)c3c2CCCC3)ccc1F)c1ccccc1 (3D coordinates assigned)
O=C(Nc1cc(Cc2n[n-]c(=O)c3c2CCCC3)ccc1F)c1ccccc1 (nonaromatic ring conformer: 64.07943277028517 kcal/mol)

>  <smiles>  (2) 
O=C(Nc1cc(Cc2n[nH]c(=O)c3c2CCCC3)ccc1F)c1ccccc1

>  <score_type>  (2) 
oracle

>  <origin>  (2) 
adg

>  <m_score__min__energy>  (2) 
-11.94

>  <m_primary>  (2) 
energy

$$$$
2:0
     RDKit          3D

 36 38  0  0  0  0  0  0  0  0999 V2000
   55.6140   28.6040   44.8700 O   0  0  0  0  0  0  0  0  0  0  0  0
   56.6220   28.9080   45.5650 C   0  0  0  0  0  0  0  0  0  0  0  0
   57.0400   30.2720   45.6630 N   0  0  0  0  0  0  0  0  0  0  0  0
   57.6360   30.9970   44.5490 C   0  0  0  0  0  0  0  0  0  0  0  0
   58.2550   32.2700   45.0560 C   0  0  0  0  0  0  0  0  0  0  0  0
   57.9930   33.4850   44.4000 C   0  0  0  0  0  0  0  0  0  0  0  0
   58.5860   34.6710   44.8440 C   0  0  0  0  0  0  0  0  0  0  0  0
   59.4520   34.6520   45.9380 C   0  0  0  0  0  0  0  0  0  0  0  0
   59.7340   33.4480   46.5880 C   0  0  0  0  0  0  0  0  0  0  0  0
   59.1450   32.2530   46.1500 C   0  0  0  0  0  0  0  0  0  0  0  0
   59.4400   31.0530   46.7940 O   0  0  0  0  0  0  0  0  0  0  0  0
   57.3910   27.8580   46.2560 C   0  0  0  0  0  0  0  0  0  0  0  0
   58.2810   28.1970   47.0830 O   0  0  0  0  0  0  0  0  0  0  0  0
   57.1670   26.4180   45.9870 C   0  0  0  0  0  0  0  0  0  0  0  0
   55.8600   25.8970   45.9990 C   0  0  0  0  0  0  0  0  0  0  0  0
   54.7730   26.7170   46.2810 O   0  0  0  0  0  0  0  0  0  0  0  0
   55.6450   24.5800   45.7470 N   0  0  0  0  0  0  0  0  0  0  0  0
   56.6600   23.7210   45.4740 C   0  0  0  0  0  0  0  0  0  0  0  0
   56.3820   22.3720   45.2250 C   0  0  0  0  0  0  0  0  0  0  0  0
   57.4210   21.4830   44.9390 C   0  0  0  0  0  0  0  0  0  0  0  0
   58.7420   21.9380   44.8970 C   0  0  0  0  0  0  0  0  0  0  0  0
   59.0300   23.2830   45.1430 C   0  0  0  0  0  0  0  0  0  0  0  0
   57.9920   24.1890   45.4360 C   0  0  0  0  0  0  0  0  0  0  0  0
   58.2400   25.5530   45.6850 C   0  0  0  0  0  0  0  0  0  0  0  0
   59.4170   26.0040   45.6180 O   0  0  0  0  0  0  0  0  0  0  0  0
   58.4109   30.3741   44.0783 H   0  0  0  0  0  0  0  0  0  0  0  0
   56.8588   31.2359   43.8081 H   0  0  0  0  0  0  0  0  0  0  0  0
   57.3174   33.5031   43.5321 H   0  0  0  0  0  0  0  0  0  0  0  0
   58.3697   35.6195   44.3306 H   0  0  0  0  0  0  0  0  0  0  0  0
   59.9135   35.5867   46.2892 H   0  0  0  0  0  0  0  0  0  0  0  0
   60.4210   33.4372   47.4470 H   0  0  0  0  0  0  0  0  0  0  0  0
   58.8350   30.2440   46.7140 H   0  0  0  0  0  0  0  0  0  0  0  0
   55.3433   22.0111   45.2546 H   0  0  0  0  0  0  0  0  0  0  0  0
   57.1991   20.4229   44.7465 H   0  0  0  0  0  0  0  0  0  0  0  0
   59.5572   21.2353   44.6696 H   0  0  0  0  0  0  0  0  0  0  0  0
   60.0713   23.6357   45.1077 H   0  0  0  0  0  0  0  0  0  0  0  0
  1  2  2  0
  2  3  1  0
  3  4  1  0
  4  5  1  0
  5  6  2  0
  6  7  1  0
  7  8  2  0
  8  9  1  0
  9 10  2  0
 10 11  1  0
  2 12  1  0
 12 13  2  0
 12 14  1  0
 14 15  2  0
 15 16  1  0
 15 17  1  0
 17 18  1  0
 18 19  2  0
 19 20  1  0
 20 21  2  0
 21 22  1  0
 22 23  2  0
 23 24  1  0
 24 25  2  0
 10  5  1  0
 24 14  1  0
 23 18  1  0
  4 26  1  0
  4 27  1  0
  6 28  1  0
  7 29  1  0
  8 30  1  0
  9 31  1  0
 11 32  1  0
 19 33  1  0
 20 34  1  0
 21 35  1  0
 22 36  1  0
M  CHG  3   3  -1  16  -1  17  -1
M  END
>  <UniqueID>  (3) 
3

>  <SMILES>  (3) 
O=C([N-]Cc1ccccc1O)C(=O)c1c([O-])[n-]c2ccccc2c1=O

>  <Energy>  (3) 
47.5655839434924

>  <Genealogy>  (3) 
O=C([N-]Cc1ccccc1O)C(=O)c1c([O-])[n-]c2ccccc2c1=O (protonated)
O=C([N-]Cc1ccccc1O)C(=O)c1c([O-])[n-]c2ccccc2c1=O (3D coordinates assigned)
O=C([N-]Cc1ccccc1O)C(=O)c1c([O-])[n-]c2ccccc2c1=O (optimized conformer: 47.5655839434924 kcal/mol)

>  <smiles>  (3) 
O=C(NCc1ccccc1O)C(=O)c1c(O)[nH]c2ccccc2c1=O

>  <score_type>  (3) 
oracle

>  <origin>  (3) 
adg

>  <m_score__min__energy>  (3) 
-14.220000000000001

>  <m_primary>  (3) 
energy

$$$$
3:0
     RDKit          3D

 66 71  0  0  0  0  0  0  0  0999 V2000
   58.5670   35.3590   53.2490 N   0  0  0  0  0  0  0  0  0  0  0  0
   59.0440   34.1660   53.8790 C   0  0  0  0  0  0  0  0  0  0  0  0
   59.5140   34.2410   55.0450 O   0  0  0  0  0  0  0  0  0  0  0  0
   58.9870   32.8510   53.1930 C   0  0  0  0  0  0  0  0  0  0  0  0
   58.3300   31.7590   53.8160 C   0  0  0  0  0  0  0  0  0  0  0  0
   58.2750   30.5000   53.1940 C   0  0  0  0  0  0  0  0  0  0  0  0
   58.8860   30.3560   51.9530 C   0  0  0  0  0  0  0  0  0  0  0  0
   58.9400   29.2430   51.2060 N   0  0  0  0  0  0  0  0  0  0  0  0
   59.6390   29.5690   50.0940 C   0  0  0  0  0  0  0  0  0  0  0  0
   59.9430   28.5930   49.0330 C   0  0  0  0  0  0  0  0  0  0  0  0
   60.4980   27.3260   49.1800 C   0  0  0  0  0  0  0  0  0  0  0  0
   60.9240   26.7820   50.3830 O   0  0  0  0  0  0  0  0  0  0  0  0
   60.5370   26.6440   48.0130 N   0  0  0  0  0  0  0  0  0  0  0  0
   59.9830   27.4890   47.1220 C   0  0  0  0  0  0  0  0  0  0  0  0
   59.7770   27.2430   45.7670 C   0  0  0  0  0  0  0  0  0  0  0  0
   59.1680   28.2500   44.9960 C   0  0  0  0  0  0  0  0  0  0  0  0
   58.7720   29.4770   45.5880 C   0  0  0  0  0  0  0  0  0  0  0  0
   58.1590   30.5430   44.7660 C   0  0  0  0  0  0  0  0  0  0  0  0
   57.6260   30.2340   43.6650 O   0  0  0  0  0  0  0  0  0  0  0  0
   58.1500   31.9190   45.1970 N   0  0  0  0  0  0  0  0  0  0  0  0
   57.0020   32.7670   44.8400 C   0  0  0  0  0  0  0  0  0  0  0  0
   57.1790   34.2010   45.3530 C   0  0  0  0  0  0  0  0  0  0  0  0
   58.5470   34.7520   44.9340 C   0  0  0  0  0  0  0  0  0  0  0  0
   59.7230   33.8220   45.3150 C   0  0  0  0  0  0  0  0  0  0  0  0
   59.2840   32.4890   45.9400 C   0  0  0  0  0  0  0  0  0  0  0  0
   59.0060   29.6960   46.9640 C   0  0  0  0  0  0  0  0  0  0  0  0
   59.6030   28.6730   47.7020 C   0  0  0  0  0  0  0  0  0  0  0  0
   60.0260   30.9170   50.1310 C   0  0  0  0  0  0  0  0  0  0  0  0
   60.7000   31.7070   49.0260 C   0  0  0  0  0  0  0  0  0  0  0  0
   62.1520   31.2160   48.7760 C   0  0  0  0  0  0  0  0  0  0  0  0
   63.1160   32.3450   48.3700 C   0  0  0  0  0  0  0  0  0  0  0  0
   62.4230   33.3650   47.4600 C   0  0  0  0  0  0  0  0  0  0  0  0
   61.2270   34.0490   48.1560 C   0  0  0  0  0  0  0  0  0  0  0  0
   60.6280   33.2220   49.3120 C   0  0  0  0  0  0  0  0  0  0  0  0
   59.5320   31.3970   51.3390 C   0  0  0  0  0  0  0  0  0  0  0  0
   59.6070   32.6600   51.9340 C   0  0  0  0  0  0  0  0  0  0  0  0
   58.0280   35.3340   52.3560 H   0  0  0  0  0  0  0  0  0  0  0  0
   58.6810   36.2800   53.7270 H   0  0  0  0  0  0  0  0  0  0  0  0
   57.8572   31.8996   54.7992 H   0  0  0  0  0  0  0  0  0  0  0  0
   57.7635   29.6531   53.6747 H   0  0  0  0  0  0  0  0  0  0  0  0
   58.5420   28.3080   51.4460 H   0  0  0  0  0  0  0  0  0  0  0  0
   60.0817   26.2888   45.3125 H   0  0  0  0  0  0  0  0  0  0  0  0
   58.9970   28.0841   43.9221 H   0  0  0  0  0  0  0  0  0  0  0  0
   56.9015   32.7894   43.7448 H   0  0  0  0  0  0  0  0  0  0  0  0
   56.1017   32.3425   45.3082 H   0  0  0  0  0  0  0  0  0  0  0  0
   56.3870   34.8374   44.9313 H   0  0  0  0  0  0  0  0  0  0  0  0
   57.1160   34.1981   46.4512 H   0  0  0  0  0  0  0  0  0  0  0  0
   58.5492   34.8886   43.8425 H   0  0  0  0  0  0  0  0  0  0  0  0
   58.6946   35.7010   45.4703 H   0  0  0  0  0  0  0  0  0  0  0  0
   60.3014   33.6042   44.4050 H   0  0  0  0  0  0  0  0  0  0  0  0
   60.3160   34.3516   46.0752 H   0  0  0  0  0  0  0  0  0  0  0  0
   60.1263   31.7820   45.9129 H   0  0  0  0  0  0  0  0  0  0  0  0
   58.9728   32.6695   46.9795 H   0  0  0  0  0  0  0  0  0  0  0  0
   58.7253   30.6468   47.4406 H   0  0  0  0  0  0  0  0  0  0  0  0
   60.1489   31.5277   48.0910 H   0  0  0  0  0  0  0  0  0  0  0  0
   62.5274   30.7520   49.7000 H   0  0  0  0  0  0  0  0  0  0  0  0
   62.1149   30.5031   47.9391 H   0  0  0  0  0  0  0  0  0  0  0  0
   63.4717   32.8564   49.2766 H   0  0  0  0  0  0  0  0  0  0  0  0
   63.9585   31.9022   47.8186 H   0  0  0  0  0  0  0  0  0  0  0  0
   63.1529   34.1356   47.1712 H   0  0  0  0  0  0  0  0  0  0  0  0
   62.0396   32.8273   46.5803 H   0  0  0  0  0  0  0  0  0  0  0  0
   61.5654   35.0150   48.5588 H   0  0  0  0  0  0  0  0  0  0  0  0
   60.4369   34.1640   47.3993 H   0  0  0  0  0  0  0  0  0  0  0  0
   61.1890   33.4381   50.2332 H   0  0  0  0  0  0  0  0  0  0  0  0
   59.5695   33.5008   49.4210 H   0  0  0  0  0  0  0  0  0  0  0  0
   60.1353   33.4862   51.4358 H   0  0  0  0  0  0  0  0  0  0  0  0
  1  2  1  0
  2  3  2  0
  2  4  1  0
  4  5  2  0
  5  6  1  0
  6  7  2  0
  7  8  1  0
  8  9  1  0
  9 10  1  0
 10 11  2  0
 11 12  1  0
 11 13  1  0
 13 14  1  0
 14 15  2  0
 15 16  1  0
 16 17  2  0
 17 18  1  0
 18 19  2  0
 18 20  1  0
 20 21  1  0
 21 22  1  0
 22 23  1  0
 23 24  1  0
 24 25  1  0
 17 26  1  0
 26 27  2  0
  9 28  2  0
 28 29  1  0
 29 30  1  0
 30 31  1  0
 31 32  1  0
 32 33  1  0
 33 34  1  0
 28 35  1  0
 35 36  2  0
 36  4  1  0
 35  7  1  0
 27 10  1  0
 34 29  1  0
 27 14  1  0
 25 20  1  0
  1 37  1  0
  1 38  1  0
  5 39  1  0
  6 40  1  0
  8 41  1  0
 15 42  1  0
 16 43  1  0
 21 44  1  0
 21 45  1  0
 22 46  1  0
 22 47  1  0
 23 48  1  0
 23 49  1  0
 24 50  1  0
 24 51  1  0
 25 52  1  0
 25 53  1  0
 26 54  1  0
 29 55  1  0
 30 56  1  0
 30 57  1  0
 31 58  1  0
 31 59  1  0
 32 60  1  0
 32 61  1  0
 33 62  1  0
 33 63  1  0
 34 64  1  0
 34 65  1  0
 36 66  1  0
M  CHG  2  12  -1  13  -1
M  END
>  <UniqueID>  (4) 
4

>  <SMILES>  (4) 
NC(=O)c1ccc2[nH]c(-c3c([O-])[n-]c4ccc(C(=O)N5CCCCC5)cc34)c(C3CCCCC3)c2c1

>  <Energy>  (4) 
150.84701325068554

>  <Genealogy>  (4) 
NC(=O)c1ccc2[nH]c(-c3c([O-])[n-]c4ccc(C(=O)N5CCCCC5)cc34)c(C3CCCCC3)c2c1 (protonated)
NC(=O)c1ccc2[nH]c(-c3c([O-])[n-]c4ccc(C(=O)N5CCCCC5)cc34)c(C3CCCCC3)c2c1 (3D coordinates assigned)
NC(=O)c1ccc2[nH]c(-c3c([O-])[n-]c4ccc(C(=O)N5CCCCC5)cc34)c(C3CCCCC3)c2c1 (nonaromatic ring conformer: 150.84701325068554 kcal/mol)

>  <smiles>  (4) 
NC(=O)c1ccc2[nH]c(-c3c(O)[nH]c4ccc(C(=O)N5CCCCC5)cc34)c(C3CCCCC3)c2c1

>  <score_type>  (4) 
oracle

>  <origin>  (4) 
adg

>  <m_score__min__energy>  (4) 
-12.609999999999999

>  <m_primary>  (4) 
energy

$$$$
4:0
     RDKit          3D

 52 54  0  0  1  0  0  0  0  0999 V2000
   62.7080   28.7920   51.6620 C   0  0  0  0  0  0  0  0  0  0  0  0
   61.5130   29.1220   50.8890 N   0  0  0  0  0  0  0  0  0  0  0  0
   60.8570   28.0340   50.2500 C   0  0  0  0  0  0  0  0  0  0  0  0
   61.3250   26.8660   50.3790 O   0  0  0  0  0  0  0  0  0  0  0  0
   59.6670   28.2240   49.4570 N   0  0  0  0  0  0  0  0  0  0  0  0
   59.5650   29.2180   48.6640 C   0  0  0  0  0  0  0  0  0  0  0  0
   58.9010   29.0750   47.4930 C   0  0  0  0  0  0  0  0  0  0  0  0
   58.7420   30.1190   46.5590 C   0  0  0  0  0  0  0  0  0  0  0  0
   58.0020   29.8010   45.3760 C   0  0  0  0  0  0  0  0  0  0  0  0
   56.9190   30.5880   45.0670 N   0  0  0  0  0  0  0  0  0  0  0  0
   56.1360   30.4510   44.0260 C   0  0  0  0  0  0  0  0  0  0  0  0
   56.3480   29.4560   43.1170 C   0  0  0  0  0  0  0  0  0  0  0  0
   57.4130   28.6180   43.3490 C   0  0  0  0  0  0  0  0  0  0  0  0
   58.2300   28.7980   44.4770 C   0  0  0  0  0  0  0  0  0  0  0  0
   59.3340   27.8620   44.6410 C   0  0  0  0  0  0  0  0  0  0  0  0
   59.3030   31.2610   46.9310 N   0  0  0  0  0  0  0  0  0  0  0  0
   59.9780   31.4460   48.1000 C   0  0  0  0  0  0  0  0  0  0  0  0
   60.5840   32.7330   48.4910 C   0  0  0  0  0  0  0  0  0  0  0  0
   59.8370   33.9480   48.0640 C   0  0  0  0  0  0  0  0  0  0  0  0
   59.1410   33.7760   46.8010 N   0  0  0  0  0  0  0  0  0  0  0  0
   57.7140   33.7840   46.9360 C   0  0  0  0  0  0  0  0  0  0  0  0
   57.0740   34.0910   45.6050 C   0  0  0  0  0  0  0  0  0  0  0  0
   57.9100   33.5610   44.4620 C   0  0  0  0  0  0  0  0  0  0  0  0
   59.2840   34.2390   44.4540 C   0  0  0  0  0  0  0  0  0  0  0  0
   59.5320   34.7920   45.8400 C   0  0  0  0  0  0  0  0  0  0  0  0
   60.1070   30.4150   48.9670 N   0  0  0  0  0  0  0  0  0  0  0  0
   62.4790   28.8552   52.7360 H   0  0  0  0  0  0  0  0  0  0  0  0
   63.0333   27.7704   51.4160 H   0  0  0  0  0  0  0  0  0  0  0  0
   63.5115   29.5019   51.4160 H   0  0  0  0  0  0  0  0  0  0  0  0
   61.1450   30.0940   50.7960 H   0  0  0  0  0  0  0  0  0  0  0  0
   58.4630   28.0937   47.2581 H   0  0  0  0  0  0  0  0  0  0  0  0
   55.2965   31.1473   43.8828 H   0  0  0  0  0  0  0  0  0  0  0  0
   55.6971   29.3301   42.2392 H   0  0  0  0  0  0  0  0  0  0  0  0
   57.6269   27.7999   42.6454 H   0  0  0  0  0  0  0  0  0  0  0  0
   59.5228   27.7019   45.7128 H   0  0  0  0  0  0  0  0  0  0  0  0
   59.0756   26.9036   44.1670 H   0  0  0  0  0  0  0  0  0  0  0  0
   60.2372   28.2737   44.1670 H   0  0  0  0  0  0  0  0  0  0  0  0
   59.2540   32.0810   46.3360 H   0  0  0  0  0  0  0  0  0  0  0  0
   60.6627   32.7514   49.5880 H   0  0  0  0  0  0  0  0  0  0  0  0
   61.5552   32.7787   47.9766 H   0  0  0  0  0  0  0  0  0  0  0  0
   59.0976   34.1948   48.8401 H   0  0  0  0  0  0  0  0  0  0  0  0
   60.5735   34.7531   47.9249 H   0  0  0  0  0  0  0  0  0  0  0  0
   57.3751   32.7973   47.2847 H   0  0  0  0  0  0  0  0  0  0  0  0
   57.4235   34.5557   47.6641 H   0  0  0  0  0  0  0  0  0  0  0  0
   56.0789   33.6235   45.5688 H   0  0  0  0  0  0  0  0  0  0  0  0
   56.9930   35.1830   45.5007 H   0  0  0  0  0  0  0  0  0  0  0  0
   58.0410   32.4753   44.5804 H   0  0  0  0  0  0  0  0  0  0  0  0
   57.3978   33.7756   43.5125 H   0  0  0  0  0  0  0  0  0  0  0  0
   60.0625   33.5050   44.1987 H   0  0  0  0  0  0  0  0  0  0  0  0
   59.3112   35.0458   43.7067 H   0  0  0  0  0  0  0  0  0  0  0  0
   60.5987   35.0313   45.9619 H   0  0  0  0  0  0  0  0  0  0  0  0
   58.9497   35.7121   45.9959 H   0  0  0  0  0  0  0  0  0  0  0  0
  1  2  1  0
  2  3  1  0
  3  4  2  0
  3  5  1  0
  5  6  2  0
  6  7  1  0
  7  8  2  0
  8  9  1  0
  9 10  2  0
 10 11  1  0
 11 12  2  0
 12 13  1  0
 13 14  2  0
 14 15  1  0
  8 16  1  0
 16 17  1  0
 17 18  1  0
 18 19  1  0
 19 20  1  0
 20 21  1  0
 21 22  1  0
 22 23  1  0
 23 24  1  0
 24 25  1  0
 17 26  2  0
 26  6  1  0
 14  9  1  0
 25 20  1  0
  1 27  1  0
  1 28  1  0
  1 29  1  0
  2 30  1  0
  7 31  1  0
 11 32  1  0
 12 33  1  0
 13 34  1  0
 15 35  1  0
 15 36  1  0
 15 37  1  0
 16 38  1  0
 18 39  1  0
 18 40  1  0
 19 41  1  0
 19 42  1  0
 21 43  1  0
 21 44  1  0
 22 45  1  0
 22 46  1  0
 23 47  1  0
 23 48  1  0
 24 49  1  0
 24 50  1  0
 25 51  1  0
 25 52  1  0
M  END
>  <smiles>  (5) 
CNC(=O)N=c1cc(-c2ncccc2C)[nH]c(CCN2CCCCC2)n1

>  <score_type>  (5) 
oracle

>  <origin>  (5) 
adg

>  <m_score__min__energy>  (5) 
-7.96

>  <m_primary>  (5) 
energy

$$$$
5:0
     RDKit          3D

 52 55  0  0  0  0  0  0  0  0999 V2000
   60.5460   30.3570   48.6200 C   0  0  0  0  0  0  0  0  0  0  0  0
   59.2340   29.5780   48.6560 C   0  0  0  0  0  0  0  0  0  0  0  0
   58.8580   29.1400   47.3010 N   0  0  0  0  0  0  0  0  0  0  0  0
   58.8950   27.8080   46.9440 C   0  0  0  0  0  0  0  0  0  0  0  0
   59.2640   26.9470   47.7920 O   0  0  0  0  0  0  0  0  0  0  0  0
   58.5220   27.4020   45.6720 N   0  0  0  0  0  0  0  0  0  0  0  0
   58.5470   25.9700   45.3180 C   0  0  0  0  0  0  0  0  0  0  0  0
   57.1500   25.4380   45.2350 C   0  0  0  0  0  0  0  0  0  0  0  0
   56.7410   24.3540   44.4840 C   0  0  0  0  0  0  0  0  0  0  0  0
   55.3950   24.2130   44.7440 C   0  0  0  0  0  0  0  0  0  0  0  0
   55.0690   25.2130   45.6390 C   0  0  0  0  0  0  0  0  0  0  0  0
   56.1380   25.9240   45.9140 O   0  0  0  0  0  0  0  0  0  0  0  0
   58.0650   28.3220   44.7560 C   0  0  0  0  0  0  0  0  0  0  0  0
   57.6710   27.9600   43.6130 O   0  0  0  0  0  0  0  0  0  0  0  0
   58.0230   29.6600   45.1270 C   0  0  0  0  0  0  0  0  0  0  0  0
   58.4060   30.0330   46.3750 C   0  0  0  0  0  0  0  0  0  0  0  0
   58.2320   31.3590   46.5300 N   0  0  0  0  0  0  0  0  0  0  0  0
   57.7240   31.7640   45.3430 C   0  0  0  0  0  0  0  0  0  0  0  0
   57.3660   33.0970   45.1060 O   0  0  0  0  0  0  0  0  0  0  0  0
   58.3090   34.1650   45.0240 C   0  0  0  0  0  0  0  0  0  0  0  0
   59.2680   34.1070   46.1810 C   0  0  0  0  0  0  0  0  0  0  0  0
   58.8200   34.3830   47.4830 C   0  0  0  0  0  0  0  0  0  0  0  0
   59.7130   34.3510   48.5560 C   0  0  0  0  0  0  0  0  0  0  0  0
   61.0610   34.0520   48.3410 C   0  0  0  0  0  0  0  0  0  0  0  0
   61.5250   33.7810   47.0460 C   0  0  0  0  0  0  0  0  0  0  0  0
   62.9800   33.4960   46.8200 C   0  0  0  0  0  0  0  0  0  0  0  0
   60.6270   33.8240   45.9660 C   0  0  0  0  0  0  0  0  0  0  0  0
   57.6080   30.7490   44.4420 N   0  0  0  0  0  0  0  0  0  0  0  0
   57.1890   30.8250   43.0440 C   0  0  0  0  0  0  0  0  0  0  0  0
   60.8822   30.5566   49.6482 H   0  0  0  0  0  0  0  0  0  0  0  0
   61.3092   29.7656   48.0929 H   0  0  0  0  0  0  0  0  0  0  0  0
   60.3921   31.3102   48.0929 H   0  0  0  0  0  0  0  0  0  0  0  0
   59.3544   28.6955   49.3015 H   0  0  0  0  0  0  0  0  0  0  0  0
   58.4425   30.2315   49.0516 H   0  0  0  0  0  0  0  0  0  0  0  0
   59.0430   25.8442   44.3443 H   0  0  0  0  0  0  0  0  0  0  0  0
   59.0985   25.4165   46.0923 H   0  0  0  0  0  0  0  0  0  0  0  0
   57.3592   23.7337   43.8184 H   0  0  0  0  0  0  0  0  0  0  0  0
   54.7167   23.4561   44.3233 H   0  0  0  0  0  0  0  0  0  0  0  0
   54.0668   25.3872   46.0576 H   0  0  0  0  0  0  0  0  0  0  0  0
   58.3990   31.9500   47.3740 H   0  0  0  0  0  0  0  0  0  0  0  0
   58.8714   34.0806   44.0824 H   0  0  0  0  0  0  0  0  0  0  0  0
   57.7680   35.1222   45.0564 H   0  0  0  0  0  0  0  0  0  0  0  0
   57.7614   34.6254   47.6583 H   0  0  0  0  0  0  0  0  0  0  0  0
   59.3541   34.5619   49.5742 H   0  0  0  0  0  0  0  0  0  0  0  0
   61.7600   34.0292   49.1901 H   0  0  0  0  0  0  0  0  0  0  0  0
   63.4891   33.3963   47.7900 H   0  0  0  0  0  0  0  0  0  0  0  0
   63.0864   32.5599   46.2521 H   0  0  0  0  0  0  0  0  0  0  0  0
   63.4317   34.3227   46.2521 H   0  0  0  0  0  0  0  0  0  0  0  0
   60.9907   33.6348   44.9453 H   0  0  0  0  0  0  0  0  0  0  0  0
   56.1077   31.0211   42.9954 H   0  0  0  0  0  0  0  0  0  0  0  0
   57.7322   31.6393   42.5421 H   0  0  0  0  0  0  0  0  0  0  0  0
   57.4117   29.8718   42.5421 H   0  0  0  0  0  0  0  0  0  0  0  0
  1  2  1  0
  2  3  1  0
  3  4  1  0
  4  5  2  0
  4  6  1  0
  6  7  1  0
  7  8  1  0
  8  9  2  0
  9 10  1  0
 10 11  2  0
 11 12  1  0
  6 13  1  0
 13 14  2  0
 13 15  1  0
 15 16  2  0
 16 17  1  0
 17 18  2  0
 18 19  1  0
 19 20  1  0
 20 21  1  0
 21 22  2  0
 22 23  1  0
 23 24  2  0
 24 25  1  0
 25 26  1  0
 25 27  2  0
 18 28  1  0
 28 29  1  0
 16  3  1  0
 27 21  1  0
 12  8  1  0
 28 15  1  0
  1 30  1  0
  1 31  1  0
  1 32  1  0
  2 33  1  0
  2 34  1  0
  7 35  1  0
  7 36  1  0
  9 37  1  0
 10 38  1  0
 11 39  1  0
 17 40  1  0
 20 41  1  0
 20 42  1  0
 22 43  1  0
 23 44  1  0
 24 45  1  0
 26 46  1  0
 26 47  1  0
 26 48  1  0
 27 49  1  0
 29 50  1  0
 29 51  1  0
 29 52  1  0
M  CHG  1  17   1
M  END
>  <UniqueID>  (6) 
5

>  <SMILES>  (6) 
CCn1c(=O)n(Cc2ccco2)c(=O)c2c1[nH+]c(OCc1cccc(C)c1)n2C

>  <Energy>  (6) 
130.67738209615445

>  <Genealogy>  (6) 
CCn1c(=O)n(Cc2ccco2)c(=O)c2c1[nH+]c(OCc1cccc(C)c1)n2C (protonated)
CCn1c(=O)n(Cc2ccco2)c(=O)c2c1[nH+]c(OCc1cccc(C)c1)n2C (3D coordinates assigned)
CCn1c(=O)n(Cc2ccco2)c(=O)c2c1[nH+]c(OCc1cccc(C)c1)n2C (optimized conformer: 130.67738209615445 kcal/mol)

>  <smiles>  (6) 
CCn1c(=O)n(Cc2ccco2)c(=O)c2c1nc(OCc1cccc(C)c1)n2C

>  <score_type>  (6) 
oracle

>  <origin>  (6) 
adg

>  <m_score__min__energy>  (6) 
-6.2000000000000002

>  <m_primary>  (6) 
energy

$$$$
6:0
     RDKit          3D

 55 57  0  0  0  0  0  0  0  0999 V2000
   56.6550   29.3180   42.9990 C   0  0  0  0  0  0  0  0  0  0  0  0
   56.0480   29.9690   44.2050 C   0  0  0  0  0  0  0  0  0  0  0  0
   55.1680   29.3500   44.8580 O   0  0  0  0  0  0  0  0  0  0  0  0
   56.4130   31.2920   44.6180 N   0  0  0  0  0  0  0  0  0  0  0  0
   57.6490   31.6820   45.2330 C   0  0  0  0  0  0  0  0  0  0  0  0
   57.9210   33.0480   45.3950 C   0  0  0  0  0  0  0  0  0  0  0  0
   59.1180   33.4640   45.9850 C   0  0  0  0  0  0  0  0  0  0  0  0
   60.0440   32.5160   46.4450 C   0  0  0  0  0  0  0  0  0  0  0  0
   61.5620   33.0400   47.1650 S   0  0  0  0  0  0  0  0  0  0  0  0
   62.5800   31.9320   47.1220 O   0  0  0  0  0  0  0  0  0  0  0  0
   62.0850   34.2170   46.3860 O   0  0  0  0  0  0  0  0  0  0  0  0
   61.3140   33.5190   48.8150 N   0  0  0  0  0  0  0  0  0  0  0  0
   60.4130   32.8560   49.7220 C   0  0  0  0  0  0  0  0  0  0  0  0
   59.0200   32.8290   49.5060 C   0  0  0  0  0  0  0  0  0  0  0  0
   58.1760   32.1850   50.4180 C   0  0  0  0  0  0  0  0  0  0  0  0
   58.7050   31.5760   51.5610 C   0  0  0  0  0  0  0  0  0  0  0  0
   57.6360   30.7530   52.6960 S   0  0  0  0  0  0  0  0  0  0  0  0
   58.4000   29.7270   53.4870 O   0  0  0  0  0  0  0  0  0  0  0  0
   57.0840   31.7680   53.6570 O   0  0  0  0  0  0  0  0  0  0  0  0
   56.3160   29.9720   51.8830 N   0  0  0  0  0  0  0  0  0  0  0  0
   54.9830   29.9340   52.4060 C   0  0  0  0  0  0  0  0  0  0  0  0
   54.6530   29.1310   53.5030 C   0  0  0  0  0  0  0  0  0  0  0  0
   53.3560   29.1370   54.0120 C   0  0  0  0  0  0  0  0  0  0  0  0
   52.3760   29.9440   53.4320 C   0  0  0  0  0  0  0  0  0  0  0  0
   52.6740   30.7460   52.3110 C   0  0  0  0  0  0  0  0  0  0  0  0
   51.6630   31.6080   51.7220 N   0  0  0  0  0  0  0  0  0  0  0  0
   50.8900   32.5250   52.5610 C   0  0  0  0  0  0  0  0  0  0  0  0
   51.3930   31.5690   50.2800 C   0  0  0  0  0  0  0  0  0  0  0  0
   53.9880   30.7120   51.7960 C   0  0  0  0  0  0  0  0  0  0  0  0
   60.0910   31.5990   51.7810 C   0  0  0  0  0  0  0  0  0  0  0  0
   60.9370   32.2290   50.8650 C   0  0  0  0  0  0  0  0  0  0  0  0
   59.7600   31.1480   46.3170 C   0  0  0  0  0  0  0  0  0  0  0  0
   58.5660   30.7340   45.7170 C   0  0  0  0  0  0  0  0  0  0  0  0
   57.3725   28.5485   43.3198 H   0  0  0  0  0  0  0  0  0  0  0  0
   55.8621   28.8514   42.3961 H   0  0  0  0  0  0  0  0  0  0  0  0
   57.1759   30.0764   42.3961 H   0  0  0  0  0  0  0  0  0  0  0  0
   57.1889   33.7958   45.0562 H   0  0  0  0  0  0  0  0  0  0  0  0
   59.3344   34.5375   46.0888 H   0  0  0  0  0  0  0  0  0  0  0  0
   61.8330   34.3630   49.1460 H   0  0  0  0  0  0  0  0  0  0  0  0
   58.5945   33.3164   48.6164 H   0  0  0  0  0  0  0  0  0  0  0  0
   57.0916   32.1576   50.2352 H   0  0  0  0  0  0  0  0  0  0  0  0
   55.4202   28.4926   53.9654 H   0  0  0  0  0  0  0  0  0  0  0  0
   53.1033   28.5030   54.8747 H   0  0  0  0  0  0  0  0  0  0  0  0
   51.3602   29.9545   53.8539 H   0  0  0  0  0  0  0  0  0  0  0  0
   51.0795   32.3002   53.6210 H   0  0  0  0  0  0  0  0  0  0  0  0
   51.1915   33.5609   52.3463 H   0  0  0  0  0  0  0  0  0  0  0  0
   49.8181   32.4031   52.3463 H   0  0  0  0  0  0  0  0  0  0  0  0
   50.3170   31.4136   50.1125 H   0  0  0  0  0  0  0  0  0  0  0  0
   51.7014   32.5210   49.8233 H   0  0  0  0  0  0  0  0  0  0  0  0
   51.9582   30.7432   49.8233 H   0  0  0  0  0  0  0  0  0  0  0  0
   54.2353   31.3046   50.9029 H   0  0  0  0  0  0  0  0  0  0  0  0
   60.5122   31.1197   52.6770 H   0  0  0  0  0  0  0  0  0  0  0  0
   62.0230   32.2342   51.0401 H   0  0  0  0  0  0  0  0  0  0  0  0
   60.4765   30.4007   46.6886 H   0  0  0  0  0  0  0  0  0  0  0  0
   58.3440   29.6607   45.6237 H   0  0  0  0  0  0  0  0  0  0  0  0
  1  2  1  0
  2  3  2  0
  2  4  1  0
  4  5  1  0
  5  6  2  0
  6  7  1  0
  7  8  2  0
  8  9  1  0
  9 10  2  0
  9 11  2  0
  9 12  1  0
 12 13  1  0
 13 14  2  0
 14 15  1  0
 15 16  2  0
 16 17  1  0
 17 18  2  0
 17 19  2  0
 17 20  1  0
 20 21  1  0
 21 22  2  0
 22 23  1  0
 23 24  2  0
 24 25  1  0
 25 26  1  0
 26 27  1  0
 26 28  1  0
 25 29  2  0
 16 30  1  0
 30 31  2  0
  8 32  1  0
 32 33  2  0
 33  5  1  0
 31 13  1  0
 29 21  1  0
  1 34  1  0
  1 35  1  0
  1 36  1  0
  6 37  1  0
  7 38  1  0
 12 39  1  0
 14 40  1  0
 15 41  1  0
 22 42  1  0
 23 43  1  0
 24 44  1  0
 27 45  1  0
 27 46  1  0
 27 47  1  0
 28 48  1  0
 28 49  1  0
 28 50  1  0
 29 51  1  0
 30 52  1  0
 31 53  1  0
 32 54  1  0
 33 55  1  0
M  CHG  2   4  -1  20  -1
M  END
>  <UniqueID>  (7) 
6

>  <SMILES>  (7) 
CC(=O)[N-]c1ccc(S(=O)(=O)Nc2ccc(S(=O)(=O)[N-]c3cccc(N(C)C)c3)cc2)cc1

>  <Energy>  (7) 
72.04537825377155

>  <Genealogy>  (7) 
CC(=O)[N-]c1ccc(S(=O)(=O)Nc2ccc(S(=O)(=O)[N-]c3cccc(N(C)C)c3)cc2)cc1 (protonated)
CC(=O)[N-]c1ccc(S(=O)(=O)Nc2ccc(S(=O)(=O)[N-]c3cccc(N(C)C)c3)cc2)cc1 (3D coordinates assigned)
CC(=O)[N-]c1ccc(S(=O)(=O)Nc2ccc(S(=O)(=O)[N-]c3cccc(N(C)C)c3)cc2)cc1 (optimized conformer: 72.04537825377155 kcal/mol)

>  <smiles>  (7) 
CC(=O)Nc1ccc(S(=O)(=O)Nc2ccc(S(=O)(=O)Nc3cccc(N(C)C)c3)cc2)cc1

>  <score_type>  (7) 
oracle

>  <origin>  (7) 
adg

>  <m_score__min__energy>  (7) 
-11.51

>  <m_primary>  (7) 
energy

$$$$
7:0
     RDKit          3D

 37 39  0  0  0  0  0  0  0  0999 V2000
   60.2720   26.9110   47.9530 C   0  0  0  0  0  0  0  0  0  0  0  0
   59.7540   28.0030   47.0120 C   0  0  0  0  0  0  0  0  0  0  0  0
   58.9100   29.0490   47.7480 C   0  0  0  0  0  0  0  0  0  0  0  0
   59.0340   27.4300   45.8670 N   0  0  0  0  0  0  0  0  0  0  0  0
   57.9320   26.7380   45.8730 C   0  0  0  0  0  0  0  0  0  0  0  0
   57.9840   25.3830   46.0110 N   0  0  0  0  0  0  0  0  0  0  0  0
   56.8670   24.6160   46.0400 C   0  0  0  0  0  0  0  0  0  0  0  0
   56.9550   23.2280   46.1860 C   0  0  0  0  0  0  0  0  0  0  0  0
   55.7880   22.4570   46.2190 C   0  0  0  0  0  0  0  0  0  0  0  0
   54.5360   23.0720   46.1080 C   0  0  0  0  0  0  0  0  0  0  0  0
   54.4450   24.4600   45.9610 C   0  0  0  0  0  0  0  0  0  0  0  0
   55.6110   25.2330   45.9290 C   0  0  0  0  0  0  0  0  0  0  0  0
   55.5470   26.5810   45.7820 N   0  0  0  0  0  0  0  0  0  0  0  0
   56.6590   27.3650   45.7430 C   0  0  0  0  0  0  0  0  0  0  0  0
   56.4740   28.6480   45.5740 N   0  0  0  0  0  0  0  0  0  0  0  0
   56.4170   29.6000   44.1180 S   0  0  0  0  0  0  0  0  0  0  0  0
   57.0420   28.8110   43.0030 O   0  0  0  0  0  0  0  0  0  0  0  0
   54.9850   29.8910   43.7620 O   0  0  0  0  0  0  0  0  0  0  0  0
   57.3230   31.0890   44.3200 C   0  0  0  0  0  0  0  0  0  0  0  0
   57.7130   31.9420   43.2960 C   0  0  0  0  0  0  0  0  0  0  0  0
   58.3690   33.0870   43.7620 C   0  0  0  0  0  0  0  0  0  0  0  0
   58.4860   33.1240   45.1450 C   0  0  0  0  0  0  0  0  0  0  0  0
   59.2940   34.5220   46.1570 Br  0  0  0  0  0  0  0  0  0  0  0  0
   57.7790   31.7460   45.7980 S   0  0  0  0  0  0  0  0  0  0  0  0
   60.1229   27.2252   48.9966 H   0  0  0  0  0  0  0  0  0  0  0  0
   59.7210   25.9769   47.7691 H   0  0  0  0  0  0  0  0  0  0  0  0
   61.3440   26.7467   47.7691 H   0  0  0  0  0  0  0  0  0  0  0  0
   60.6350   28.5300   46.6169 H   0  0  0  0  0  0  0  0  0  0  0  0
   59.0208   28.9116   48.8337 H   0  0  0  0  0  0  0  0  0  0  0  0
   59.2506   30.0571   47.4693 H   0  0  0  0  0  0  0  0  0  0  0  0
   57.8527   28.9291   47.4693 H   0  0  0  0  0  0  0  0  0  0  0  0
   57.9388   22.7439   46.2746 H   0  0  0  0  0  0  0  0  0  0  0  0
   55.8548   21.3649   46.3325 H   0  0  0  0  0  0  0  0  0  0  0  0
   53.6209   22.4623   46.1364 H   0  0  0  0  0  0  0  0  0  0  0  0
   53.4604   24.9422   45.8709 H   0  0  0  0  0  0  0  0  0  0  0  0
   57.5261   31.7392   42.2311 H   0  0  0  0  0  0  0  0  0  0  0  0
   58.7528   33.8772   43.1000 H   0  0  0  0  0  0  0  0  0  0  0  0
  1  2  1  0
  2  3  1  0
  2  4  1  0
  4  5  2  3
  5  6  1  0
  6  7  1  0
  7  8  2  0
  8  9  1  0
  9 10  2  0
 10 11  1  0
 11 12  2  0
 12 13  1  0
 13 14  1  0
 14 15  2  3
 15 16  1  0
 16 17  2  0
 16 18  2  0
 16 19  1  0
 19 20  2  0
 20 21  1  0
 21 22  2  0
 22 23  1  0
 22 24  1  0
 14  5  1  0
 24 19  1  0
 12  7  1  0
  1 25  1  0
  1 26  1  0
  1 27  1  0
  2 28  1  0
  3 29  1  0
  3 30  1  0
  3 31  1  0
  8 32  1  0
  9 33  1  0
 10 34  1  0
 11 35  1  0
 20 36  1  0
 21 37  1  0
M  CHG  2   6  -1  13  -1
M  END
>  <UniqueID>  (8) 
7

>  <SMILES>  (8) 
CC(C)N=c1[n-]c2ccccc2[n-]c1=NS(=O)(=O)c1ccc(Br)s1

>  <Energy>  (8) 
75.5546604154992

>  <Genealogy>  (8) 
CC(C)N=c1[n-]c2ccccc2[n-]c1=NS(=O)(=O)c1ccc(Br)s1 (protonated)
CC(C)N=c1[n-]c2ccccc2[n-]c1=NS(=O)(=O)c1ccc(Br)s1 (3D coordinates assigned)
CC(C)N=c1[n-]c2ccccc2[n-]c1=NS(=O)(=O)c1ccc(Br)s1 (optimized conformer: 75.5546604154992 kcal/mol)

>  <smiles>  (8) 
CC(C)N=c1[nH]c2ccccc2[nH]c1=NS(=O)(=O)c1ccc(Br)s1

>  <score_type>  (8) 
oracle

>  <origin>  (8) 
adg

>  <m_score__min__energy>  (8) 
-11.140000000000001

>  <m_primary>  (8) 
energy

$$$$
8:0
     RDKit          3D

 34 35  0  0  0  0  0  0  0  0999 V2000
   56.3670   32.1460   50.4780 H   0  0  0  0  0  0  0  0  0  0  0  0
   57.3570   32.3550   50.5200 O   0  0  0  0  0  0  0  0  0  0  0  0
   58.3060   31.3640   50.7770 C   0  0  0  0  0  0  0  0  0  0  0  0
   59.5670   31.4380   50.1680 C   0  0  0  0  0  0  0  0  0  0  0  0
   59.8035   32.2835   49.5052 H   0  0  0  0  0  0  0  0  0  0  0  0
   60.5320   30.4410   50.3970 C   0  0  0  0  0  0  0  0  0  0  0  0
   61.8050   30.4740   49.8060 O   0  0  0  0  0  0  0  0  0  0  0  0
   62.1380   31.2390   48.6530 C   0  0  0  0  0  0  0  0  0  0  0  0
   62.5591   32.2065   48.9639 H   0  0  0  0  0  0  0  0  0  0  0  0
   62.8796   30.6924   48.0520 H   0  0  0  0  0  0  0  0  0  0  0  0
   61.2326   31.4094   48.0520 H   0  0  0  0  0  0  0  0  0  0  0  0
   60.2210   29.3730   51.2420 C   0  0  0  0  0  0  0  0  0  0  0  0
   60.9691   28.5877   51.4256 H   0  0  0  0  0  0  0  0  0  0  0  0
   58.9690   29.2930   51.8560 C   0  0  0  0  0  0  0  0  0  0  0  0
   58.7419   28.4479   52.5225 H   0  0  0  0  0  0  0  0  0  0  0  0
   57.9960   30.2830   51.6300 C   0  0  0  0  0  0  0  0  0  0  0  0
   56.6770   30.1950   52.3080 C   0  0  0  0  0  0  0  0  0  0  0  0
   55.6290   30.6560   51.6810 N   0  0  0  0  0  0  0  0  0  0  0  0
   54.2540   30.2430   51.7880 C   0  0  0  0  0  0  0  0  0  0  0  0
   53.8910   29.3980   52.6490 O   0  0  0  0  0  0  0  0  0  0  0  0
   53.2170   30.8250   50.8700 C   0  0  0  0  0  0  0  0  0  0  0  0
   53.7041   31.5474   50.1985 H   0  0  0  0  0  0  0  0  0  0  0  0
   52.7627   29.9967   50.3065 H   0  0  0  0  0  0  0  0  0  0  0  0
   52.1230   31.5250   51.6200 C   0  0  0  0  0  0  0  0  0  0  0  0
   51.8890   31.3670   52.9350 N   0  0  0  0  0  0  0  0  0  0  0  0
   50.7790   32.1090   53.1440 C   0  0  0  0  0  0  0  0  0  0  0  0
   50.2410   32.2180   54.2780 O   0  0  0  0  0  0  0  0  0  0  0  0
   50.2860   32.7160   52.0440 N   0  0  0  0  0  0  0  0  0  0  0  0
   51.1460   32.3300   51.0870 C   0  0  0  0  0  0  0  0  0  0  0  0
   51.0330   32.6980   49.7510 O   0  0  0  0  0  0  0  0  0  0  0  0
   56.5870   29.6040   53.6930 C   0  0  0  0  0  0  0  0  0  0  0  0
   56.7085   30.4017   54.4406 H   0  0  0  0  0  0  0  0  0  0  0  0
   55.6055   29.1249   53.8242 H   0  0  0  0  0  0  0  0  0  0  0  0
   57.3814   28.8545   53.8242 H   0  0  0  0  0  0  0  0  0  0  0  0
  1  2  1  0
  2  3  1  0
  3  4  2  0
  4  5  1  0
  4  6  1  0
  6  7  1  0
  7  8  1  0
  8  9  1  0
  8 10  1  0
  8 11  1  0
  6 12  2  0
 12 13  1  0
 12 14  1  0
 14 15  1  0
 14 16  2  0
 16 17  1  0
 17 18  2  0
 18 19  1  0
 19 20  2  0
 19 21  1  0
 21 22  1  0
 21 23  1  0
 21 24  1  0
 24 25  1  0
 25 26  1  0
 26 27  2  0
 26 28  1  0
 28 29  1  0
 29 30  1  0
 17 31  1  0
 31 32  1  0
 31 33  1  0
 31 34  1  0
 16  3  1  0
 29 24  2  0
M  CHG  3  25  -1  28  -1  30  -1
M  END
>  <UniqueID>  (9) 
8

>  <SMILES>  (9) 
COc1ccc(/C(C)=N/C(=O)Cc2[n-]c(=O)[n-]c2[O-])c(O)c1

>  <Energy>  (9) 
68.73563089104309

>  <Genealogy>  (9) 
COc1ccc(C(C)=NC(=O)Cc2[n-]c(=O)[n-]c2[O-])c(O)c1 (protonated)
COc1ccc(/C(C)=N/C(=O)Cc2[n-]c(=O)[n-]c2[O-])c(O)c1 (cis-trans isomerization)
COc1ccc(/C(C)=N/C(=O)Cc2[n-]c(=O)[n-]c2[O-])c(O)c1 (3D coordinates assigned)
COc1ccc(/C(C)=N/C(=O)Cc2[n-]c(=O)[n-]c2[O-])c(O)c1 (optimized conformer: 68.73563089104309 kcal/mol)

>  <smiles>  (9) 
COc1ccc(C(C)=NC(=O)Cc2[nH]c(=O)[nH]c2O)c(O)c1

>  <score_type>  (9) 
oracle

>  <origin>  (9) 
adg

>  <m_score__min__energy>  (9) 
-15.19

>  <m_primary>  (9) 
energy

$$$$
9:0
     RDKit          3D

 77 80  0  0  0  0  0  0  0  0999 V2000
   58.8790   29.7240   49.8430 C   0  0  0  0  0  0  0  0  0  0  0  0
   59.0670   30.9010   48.8990 C   0  0  0  0  0  0  0  0  0  0  0  0
   59.4890   30.4400   47.5670 N   0  0  0  0  0  0  0  0  0  0  0  0
   60.9060   30.4970   47.1830 C   0  0  0  0  0  0  0  0  0  0  0  0
   61.7580   31.0140   48.3050 C   0  0  0  0  0  0  0  0  0  0  0  0
   61.8980   30.3200   49.3480 O   0  0  0  0  0  0  0  0  0  0  0  0
   62.4120   32.2870   48.1840 N   0  0  0  0  0  0  0  0  0  0  0  0
   63.2180   32.8510   49.2310 C   0  0  0  0  0  0  0  0  0  0  0  0
   64.6080   32.6490   49.2290 C   0  0  0  0  0  0  0  0  0  0  0  0
   65.4100   33.2130   50.2260 C   0  0  0  0  0  0  0  0  0  0  0  0
   64.8320   33.9950   51.2260 C   0  0  0  0  0  0  0  0  0  0  0  0
   63.4530   34.2080   51.2410 C   0  0  0  0  0  0  0  0  0  0  0  0
   62.6330   33.6360   50.2500 C   0  0  0  0  0  0  0  0  0  0  0  0
   61.1710   33.8410   50.3280 C   0  0  0  0  0  0  0  0  0  0  0  0
   60.6130   34.5760   49.4690 O   0  0  0  0  0  0  0  0  0  0  0  0
   60.3850   33.2610   51.3910 N   0  0  0  0  0  0  0  0  0  0  0  0
   59.1300   33.9300   51.7620 C   0  0  0  0  0  0  0  0  0  0  0  0
   58.4210   33.2210   52.9120 C   0  0  0  0  0  0  0  0  0  0  0  0
   59.3690   32.7310   53.8330 O   0  0  0  0  0  0  0  0  0  0  0  0
   60.0140   31.6140   53.2650 C   0  0  0  0  0  0  0  0  0  0  0  0
   60.7870   31.9690   51.9770 C   0  0  0  0  0  0  0  0  0  0  0  0
   58.4930   30.0570   46.6010 C   0  0  0  0  0  0  0  0  0  0  0  0
   58.0200   28.7340   46.5800 C   0  0  0  0  0  0  0  0  0  0  0  0
   57.0260   28.3420   45.6720 C   0  0  0  0  0  0  0  0  0  0  0  0
   56.5620   26.9430   45.6270 C   0  0  0  0  0  0  0  0  0  0  0  0
   55.3810   26.6730   45.9700 O   0  0  0  0  0  0  0  0  0  0  0  0
   57.4300   25.8720   45.2510 N   0  0  0  0  0  0  0  0  0  0  0  0
   58.3390   25.1820   46.1700 C   0  0  0  0  0  0  0  0  0  0  0  0
   57.7320   25.1510   47.5760 C   0  0  0  0  0  0  0  0  0  0  0  0
   59.6830   25.9100   46.1830 C   0  0  0  0  0  0  0  0  0  0  0  0
   56.5220   29.2840   44.7620 C   0  0  0  0  0  0  0  0  0  0  0  0
   56.9690   30.6050   44.7900 C   0  0  0  0  0  0  0  0  0  0  0  0
   57.9480   31.0050   45.7100 C   0  0  0  0  0  0  0  0  0  0  0  0
   58.3770   32.3730   45.7320 N   0  0  0  0  0  0  0  0  0  0  0  0
   58.6090   33.0840   44.4740 C   0  0  0  0  0  0  0  0  0  0  0  0
   58.4710   34.5940   44.6950 C   0  0  0  0  0  0  0  0  0  0  0  0
   59.3430   35.0600   45.7090 O   0  0  0  0  0  0  0  0  0  0  0  0
   59.2640   34.3250   46.9340 C   0  0  0  0  0  0  0  0  0  0  0  0
   58.2630   33.1500   46.9670 C   0  0  0  0  0  0  0  0  0  0  0  0
   58.9352   30.0760   50.8836 H   0  0  0  0  0  0  0  0  0  0  0  0
   57.8960   29.2639   49.6642 H   0  0  0  0  0  0  0  0  0  0  0  0
   59.6698   28.9806   49.6642 H   0  0  0  0  0  0  0  0  0  0  0  0
   58.1156   31.4455   48.8075 H   0  0  0  0  0  0  0  0  0  0  0  0
   59.8473   31.5598   49.3078 H   0  0  0  0  0  0  0  0  0  0  0  0
   61.2445   29.4857   46.9135 H   0  0  0  0  0  0  0  0  0  0  0  0
   61.0055   31.1830   46.3289 H   0  0  0  0  0  0  0  0  0  0  0  0
   62.2210   32.8610   47.3360 H   0  0  0  0  0  0  0  0  0  0  0  0
   65.0696   32.0419   48.4363 H   0  0  0  0  0  0  0  0  0  0  0  0
   66.4963   33.0400   50.2217 H   0  0  0  0  0  0  0  0  0  0  0  0
   65.4650   34.4450   52.0050 H   0  0  0  0  0  0  0  0  0  0  0  0
   63.0040   34.8266   52.0320 H   0  0  0  0  0  0  0  0  0  0  0  0
   59.3550   34.9628   52.0666 H   0  0  0  0  0  0  0  0  0  0  0  0
   58.4629   33.9086   50.8876 H   0  0  0  0  0  0  0  0  0  0  0  0
   57.7519   33.9307   53.4205 H   0  0  0  0  0  0  0  0  0  0  0  0
   57.8368   32.3791   52.5122 H   0  0  0  0  0  0  0  0  0  0  0  0
   60.7225   31.2044   54.0000 H   0  0  0  0  0  0  0  0  0  0  0  0
   59.2388   30.8807   52.9980 H   0  0  0  0  0  0  0  0  0  0  0  0
   61.8601   32.0127   52.2150 H   0  0  0  0  0  0  0  0  0  0  0  0
   60.5575   31.1900   51.2350 H   0  0  0  0  0  0  0  0  0  0  0  0
   58.4343   27.9973   47.2840 H   0  0  0  0  0  0  0  0  0  0  0  0
   58.4926   24.1454   45.8354 H   0  0  0  0  0  0  0  0  0  0  0  0
   58.5374   25.1921   48.3241 H   0  0  0  0  0  0  0  0  0  0  0  0
   57.0655   26.0163   47.7068 H   0  0  0  0  0  0  0  0  0  0  0  0
   57.1571   24.2223   47.7068 H   0  0  0  0  0  0  0  0  0  0  0  0
   59.9976   26.0804   47.2232 H   0  0  0  0  0  0  0  0  0  0  0  0
   60.4370   25.2970   45.6676 H   0  0  0  0  0  0  0  0  0  0  0  0
   59.5815   26.8765   45.6676 H   0  0  0  0  0  0  0  0  0  0  0  0
   55.7687   28.9783   44.0210 H   0  0  0  0  0  0  0  0  0  0  0  0
   56.5502   31.3382   44.0850 H   0  0  0  0  0  0  0  0  0  0  0  0
   59.6225   32.8598   44.1099 H   0  0  0  0  0  0  0  0  0  0  0  0
   57.8663   32.7574   43.7312 H   0  0  0  0  0  0  0  0  0  0  0  0
   58.7078   35.1143   43.7552 H   0  0  0  0  0  0  0  0  0  0  0  0
   57.4379   34.7997   45.0120 H   0  0  0  0  0  0  0  0  0  0  0  0
   60.2641   33.9185   47.1453 H   0  0  0  0  0  0  0  0  0  0  0  0
   58.8962   35.0429   47.6819 H   0  0  0  0  0  0  0  0  0  0  0  0
   58.4860   32.5032   47.8283 H   0  0  0  0  0  0  0  0  0  0  0  0
   57.2400   33.5441   47.0575 H   0  0  0  0  0  0  0  0  0  0  0  0
  1  2  1  0
  2  3  1  0
  3  4  1  0
  4  5  1  0
  5  6  2  0
  5  7  1  0
  7  8  1  0
  8  9  2  0
  9 10  1  0
 10 11  2  0
 11 12  1  0
 12 13  2  0
 13 14  1  0
 14 15  2  0
 14 16  1  0
 16 17  1  0
 17 18  1  0
 18 19  1  0
 19 20  1  0
 20 21  1  0
  3 22  1  0
 22 23  2  0
 23 24  1  0
 24 25  1  0
 25 26  2  0
 25 27  1  0
 27 28  1  0
 28 29  1  0
 28 30  1  0
 24 31  2  0
 31 32  1  0
 32 33  2  0
 33 34  1  0
 34 35  1  0
 35 36  1  0
 36 37  1  0
 37 38  1  0
 38 39  1  0
 13  8  1  0
 21 16  1  0
 33 22  1  0
 39 34  1  0
  1 40  1  0
  1 41  1  0
  1 42  1  0
  2 43  1  0
  2 44  1  0
  4 45  1  0
  4 46  1  0
  7 47  1  0
  9 48  1  0
 10 49  1  0
 11 50  1  0
 12 51  1  0
 17 52  1  0
 17 53  1  0
 18 54  1  0
 18 55  1  0
 20 56  1  0
 20 57  1  0
 21 58  1  0
 21 59  1  0
 23 60  1  0
 28 61  1  0
 29 62  1  0
 29 63  1  0
 29 64  1  0
 30 65  1  0
 30 66  1  0
 30 67  1  0
 31 68  1  0
 32 69  1  0
 35 70  1  0
 35 71  1  0
 36 72  1  0
 36 73  1  0
 38 74  1  0
 38 75  1  0
 39 76  1  0
 39 77  1  0
M  CHG  1  27  -1
M  END
>  <UniqueID>  (10) 
9

>  <SMILES>  (10) 
CCN(CC(=O)Nc1ccccc1C(=O)N1CCOCC1)c1cc(C(=O)[N-]C(C)C)ccc1N1CCOCC1

>  <Energy>  (10) 
106.87041932404426

>  <Genealogy>  (10) 
CCN(CC(=O)Nc1ccccc1C(=O)N1CCOCC1)c1cc(C(=O)[N-]C(C)C)ccc1N1CCOCC1 (protonated)
CCN(CC(=O)Nc1ccccc1C(=O)N1CCOCC1)c1cc(C(=O)[N-]C(C)C)ccc1N1CCOCC1 (3D coordinates assigned)
CCN(CC(=O)Nc1ccccc1C(=O)N1CCOCC1)c1cc(C(=O)[N-]C(C)C)ccc1N1CCOCC1 (nonaromatic ring conformer: 106.87041932404426 kcal/mol)

>  <smiles>  (10) 
CCN(CC(=O)Nc1ccccc1C(=O)N1CCOCC1)c1cc(C(=O)NC(C)C)ccc1N1CCOCC1

>  <score_type>  (10) 
oracle

>  <origin>  (10) 
adg

>  <m_score__min__energy>  (10) 
-10.25

>  <m_primary>  (10) 
energy

$$$$
10:0
     RDKit          3D

 59 62  0  0  0  0  0  0  0  0999 V2000
   56.9420   29.3320   43.6760 C   0  0  0  0  0  0  0  0  0  0  0  0
   57.5640   29.4170   44.8630 C   0  0  0  0  0  0  0  0  0  0  0  0
   57.6880   30.6650   45.3960 N   0  0  0  0  0  0  0  0  0  0  0  0
   58.3200   30.9260   46.5690 C   0  0  0  0  0  0  0  0  0  0  0  0
   58.4190   32.3530   47.0270 C   0  0  0  0  0  0  0  0  0  0  0  0
   58.8630   29.8630   47.3090 C   0  0  0  0  0  0  0  0  0  0  0  0
   59.5520   30.0670   48.6000 C   0  0  0  0  0  0  0  0  0  0  0  0
   58.8540   30.1370   49.6490 O   0  0  0  0  0  0  0  0  0  0  0  0
   60.9860   30.2140   48.6760 N   0  0  0  0  0  0  0  0  0  0  0  0
   61.7080   30.9700   47.6390 C   0  0  0  0  0  0  0  0  0  0  0  0
   62.0530   32.3640   48.1820 C   0  0  0  0  0  0  0  0  0  0  0  0
   62.3370   32.3050   49.6250 N   0  0  0  0  0  0  0  0  0  0  0  0
   61.9070   33.3950   50.4580 C   0  0  0  0  0  0  0  0  0  0  0  0
   62.2540   34.5720   50.1750 O   0  0  0  0  0  0  0  0  0  0  0  0
   61.0050   33.1550   51.6320 C   0  0  0  0  0  0  0  0  0  0  0  0
   59.6910   33.7940   51.4000 N   0  0  0  0  0  0  0  0  0  0  0  0
   59.0750   34.2890   52.6450 C   0  0  0  0  0  0  0  0  0  0  0  0
   58.5850   33.1290   53.5460 C   0  0  0  0  0  0  0  0  0  0  0  0
   58.6180   31.8730   52.8910 O   0  0  0  0  0  0  0  0  0  0  0  0
   57.9750   31.9680   51.6360 C   0  0  0  0  0  0  0  0  0  0  0  0
   58.7470   32.9070   50.6820 C   0  0  0  0  0  0  0  0  0  0  0  0
   62.7600   31.0240   50.2090 C   0  0  0  0  0  0  0  0  0  0  0  0
   61.6870   29.9550   49.9470 C   0  0  0  0  0  0  0  0  0  0  0  0
   58.7540   28.5640   46.8020 C   0  0  0  0  0  0  0  0  0  0  0  0
   58.1210   28.2990   45.5660 C   0  0  0  0  0  0  0  0  0  0  0  0
   58.0190   27.0210   45.1110 C   0  0  0  0  0  0  0  0  0  0  0  0
   57.3780   25.8990   45.8330 C   0  0  0  0  0  0  0  0  0  0  0  0
   58.0760   24.8840   46.3650 N   0  0  0  0  0  0  0  0  0  0  0  0
   57.1410   24.1600   47.0160 C   0  0  0  0  0  0  0  0  0  0  0  0
   57.4130   23.1070   47.6480 O   0  0  0  0  0  0  0  0  0  0  0  0
   55.8920   24.6680   46.9550 N   0  0  0  0  0  0  0  0  0  0  0  0
   56.0580   25.7840   46.2250 C   0  0  0  0  0  0  0  0  0  0  0  0
   55.0320   26.6930   45.9810 O   0  0  0  0  0  0  0  0  0  0  0  0
   56.8102   28.3525   43.1930 H   0  0  0  0  0  0  0  0  0  0  0  0
   56.5643   30.2418   43.1866 H   0  0  0  0  0  0  0  0  0  0  0  0
   58.4213   32.3859   48.1265 H   0  0  0  0  0  0  0  0  0  0  0  0
   59.3501   32.7970   46.6450 H   0  0  0  0  0  0  0  0  0  0  0  0
   57.5581   32.9213   46.6450 H   0  0  0  0  0  0  0  0  0  0  0  0
   62.6338   30.4387   47.3733 H   0  0  0  0  0  0  0  0  0  0  0  0
   61.0763   31.0670   46.7437 H   0  0  0  0  0  0  0  0  0  0  0  0
   62.9391   32.7476   47.6550 H   0  0  0  0  0  0  0  0  0  0  0  0
   61.1931   33.0301   48.0179 H   0  0  0  0  0  0  0  0  0  0  0  0
   60.8646   32.0725   51.7681 H   0  0  0  0  0  0  0  0  0  0  0  0
   61.4629   33.5883   52.5334 H   0  0  0  0  0  0  0  0  0  0  0  0
   59.8186   34.8804   53.1993 H   0  0  0  0  0  0  0  0  0  0  0  0
   58.2032   34.9027   52.3741 H   0  0  0  0  0  0  0  0  0  0  0  0
   59.2300   33.0784   54.4356 H   0  0  0  0  0  0  0  0  0  0  0  0
   57.5380   33.3361   53.8122 H   0  0  0  0  0  0  0  0  0  0  0  0
   57.9183   30.9662   51.1852 H   0  0  0  0  0  0  0  0  0  0  0  0
   56.9674   32.3811   51.7913 H   0  0  0  0  0  0  0  0  0  0  0  0
   59.3142   32.2939   49.9662 H   0  0  0  0  0  0  0  0  0  0  0  0
   58.0101   33.5455   50.1729 H   0  0  0  0  0  0  0  0  0  0  0  0
   63.7092   30.7091   49.7509 H   0  0  0  0  0  0  0  0  0  0  0  0
   62.8955   31.1456   51.2938 H   0  0  0  0  0  0  0  0  0  0  0  0
   62.1675   28.9667   49.8984 H   0  0  0  0  0  0  0  0  0  0  0  0
   60.9531   29.9854   50.7658 H   0  0  0  0  0  0  0  0  0  0  0  0
   59.1718   27.7266   47.3802 H   0  0  0  0  0  0  0  0  0  0  0  0
   58.4495   26.8029   44.1225 H   0  0  0  0  0  0  0  0  0  0  0  0
   55.1480   27.4650   45.3360 H   0  0  0  0  0  0  0  0  0  0  0  0
  1  2  2  0
  2  3  1  0
  3  4  2  0
  4  5  1  0
  4  6  1  0
  6  7  1  0
  7  8  2  0
  7  9  1  0
  9 10  1  0
 10 11  1  0
 11 12  1  0
 12 13  1  0
 13 14  2  0
 13 15  1  0
 15 16  1  0
 16 17  1  0
 17 18  1  0
 18 19  1  0
 19 20  1  0
 20 21  1  0
 12 22  1  0
 22 23  1  0
  6 24  2  0
 24 25  1  0
 25 26  2  3
 26 27  1  0
 27 28  1  0
 28 29  1  0
 29 30  2  0
 29 31  1  0
 31 32  1  0
 32 33  1  0
 25  2  1  0
 32 27  2  0
 23  9  1  0
 21 16  1  0
  1 34  1  0
  1 35  1  0
  5 36  1  0
  5 37  1  0
  5 38  1  0
 10 39  1  0
 10 40  1  0
 11 41  1  0
 11 42  1  0
 15 43  1  0
 15 44  1  0
 17 45  1  0
 17 46  1  0
 18 47  1  0
 18 48  1  0
 20 49  1  0
 20 50  1  0
 21 51  1  0
 21 52  1  0
 22 53  1  0
 22 54  1  0
 23 55  1  0
 23 56  1  0
 24 57  1  0
 26 58  1  0
 33 59  1  0
M  CHG  2  28  -1  31  -1
M  END
>  <UniqueID>  (11) 
10

>  <SMILES>  (11) 
C=c1nc(C)c(C(=O)N2CCN(C(=O)CN3CCOCC3)CC2)cc1=Cc1[n-]c(=O)[n-]c1O

>  <Energy>  (11) 
131.43606442124576

>  <Genealogy>  (11) 
C=c1nc(C)c(C(=O)N2CCN(C(=O)CN3CCOCC3)CC2)cc1=Cc1[n-]c(=O)[n-]c1O (protonated)
C=c1nc(C)c(C(=O)N2CCN(C(=O)CN3CCOCC3)CC2)cc1=Cc1[n-]c(=O)[n-]c1O (3D coordinates assigned)
C=c1nc(C)c(C(=O)N2CCN(C(=O)CN3CCOCC3)CC2)cc1=Cc1[n-]c(=O)[n-]c1O (nonaromatic ring conformer: 131.43606442124576 kcal/mol)

>  <smiles>  (11) 
C=c1nc(C)c(C(=O)N2CCN(C(=O)CN3CCOCC3)CC2)cc1=Cc1[nH]c(=O)[nH]c1O

>  <score_type>  (11) 
oracle

>  <origin>  (11) 
adg

>  <m_score__min__energy>  (11) 
-13.57

>  <m_primary>  (11) 
energy

$$$$
11:0
     RDKit          3D

 37 38  0  0  0  0  0  0  0  0999 V2000
   58.3530   27.8670   43.8180 C   0  0  0  0  0  0  0  0  0  0  0  0
   59.6260   27.9620   44.6060 C   0  0  0  0  0  0  0  0  0  0  0  0
   59.8090   28.8000   45.6420 C   0  0  0  0  0  0  0  0  0  0  0  0
   59.0370   28.7430   46.9440 C   0  0  1  0  0  0  0  0  0  0  0  0
   58.6690   30.1660   47.4080 C   0  0  0  0  0  0  0  0  0  0  0  0
   58.4010   31.0820   46.2400 C   0  0  0  0  0  0  0  0  0  0  0  0
   59.0200   32.3410   46.1660 C   0  0  0  0  0  0  0  0  0  0  0  0
   58.7330   33.2050   45.1050 C   0  0  0  0  0  0  0  0  0  0  0  0
   57.8250   32.8220   44.1150 C   0  0  0  0  0  0  0  0  0  0  0  0
   57.2000   31.5730   44.1850 C   0  0  0  0  0  0  0  0  0  0  0  0
   57.4830   30.7060   45.2440 C   0  0  0  0  0  0  0  0  0  0  0  0
   57.8190   27.9520   46.7390 N   0  0  0  0  0  0  0  0  0  0  0  0
   57.7500   26.5610   47.0900 C   0  0  0  0  0  0  0  0  0  0  0  0
   58.6900   26.0310   47.7440 O   0  0  0  0  0  0  0  0  0  0  0  0
   56.5750   25.7400   46.7080 C   0  0  0  0  0  0  0  0  0  0  0  0
   55.5010   26.3060   45.9960 C   0  0  0  0  0  0  0  0  0  0  0  0
   55.5260   27.6440   45.6160 O   0  0  0  0  0  0  0  0  0  0  0  0
   54.4320   25.5420   45.6560 N   0  0  0  0  0  0  0  0  0  0  0  0
   54.3710   24.2310   45.9950 C   0  0  0  0  0  0  0  0  0  0  0  0
   53.3700   23.5430   45.6660 O   0  0  0  0  0  0  0  0  0  0  0  0
   55.3860   23.6610   46.6920 N   0  0  0  0  0  0  0  0  0  0  0  0
   56.4770   24.3800   47.0600 C   0  0  0  0  0  0  0  0  0  0  0  0
   57.3810   23.8170   47.7350 O   0  0  0  0  0  0  0  0  0  0  0  0
   57.4986   27.8032   44.5079 H   0  0  0  0  0  0  0  0  0  0  0  0
   58.2466   28.7597   43.1842 H   0  0  0  0  0  0  0  0  0  0  0  0
   58.3803   26.9684   43.1842 H   0  0  0  0  0  0  0  0  0  0  0  0
   60.4610   27.3060   44.3189 H   0  0  0  0  0  0  0  0  0  0  0  0
   60.5743   29.5830   45.5362 H   0  0  0  0  0  0  0  0  0  0  0  0
   59.6592   28.2742   47.7205 H   0  0  0  0  0  0  0  0  0  0  0  0
   57.7666   30.1143   48.0348 H   0  0  0  0  0  0  0  0  0  0  0  0
   59.5198   30.5726   47.9744 H   0  0  0  0  0  0  0  0  0  0  0  0
   59.7329   32.6480   46.9455 H   0  0  0  0  0  0  0  0  0  0  0  0
   59.2231   34.1882   45.0497 H   0  0  0  0  0  0  0  0  0  0  0  0
   57.6016   33.5028   43.2804 H   0  0  0  0  0  0  0  0  0  0  0  0
   56.4845   31.2725   43.4054 H   0  0  0  0  0  0  0  0  0  0  0  0
   56.9858   29.7263   45.2983 H   0  0  0  0  0  0  0  0  0  0  0  0
   56.9640   28.4160   46.3570 H   0  0  0  0  0  0  0  0  0  0  0  0
  1  2  1  0
  2  3  2  3
  3  4  1  0
  4  5  1  0
  5  6  1  0
  6  7  2  0
  7  8  1  0
  8  9  2  0
  9 10  1  0
 10 11  2  0
  4 12  1  0
 12 13  1  0
 13 14  2  0
 13 15  1  0
 15 16  2  0
 16 17  1  0
 16 18  1  0
 18 19  1  0
 19 20  2  0
 19 21  1  0
 21 22  1  0
 22 23  2  0
 11  6  1  0
 22 15  1  0
  1 24  1  0
  1 25  1  0
  1 26  1  0
  2 27  1  0
  3 28  1  0
  4 29  1  1
  5 30  1  0
  5 31  1  0
  7 32  1  0
  8 33  1  0
  9 34  1  0
 10 35  1  0
 11 36  1  0
 12 37  1  0
M  CHG  3  17  -1  18  -1  21  -1
M  END
>  <UniqueID>  (12) 
11

>  <SMILES>  (12) 
CC=C[C@@H](Cc1ccccc1)NC(=O)c1c([O-])[n-]c(=O)[n-]c1=O

>  <Energy>  (12) 
37.288391894841396

>  <Genealogy>  (12) 
CC=CC(Cc1ccccc1)NC(=O)c1c([O-])[n-]c(=O)[n-]c1=O (protonated)
CC=C[C@@H](Cc1ccccc1)NC(=O)c1c([O-])[n-]c(=O)[n-]c1=O (chirality)
CC=C[C@@H](Cc1ccccc1)NC(=O)c1c([O-])[n-]c(=O)[n-]c1=O (3D coordinates assigned)
CC=C[C@@H](Cc1ccccc1)NC(=O)c1c([O-])[n-]c(=O)[n-]c1=O (optimized conformer: 37.288391894841396 kcal/mol)

>  <smiles>  (12) 
CC=CC(Cc1ccccc1)NC(=O)c1c(O)[nH]c(=O)[nH]c1=O

>  <score_type>  (12) 
oracle

>  <origin>  (12) 
adg

>  <m_score__min__energy>  (12) 
-15.26

>  <m_primary>  (12) 
energy

$$$$
12:0
     RDKit          3D

 62 67  0  0  0  0  0  0  0  0999 V2000
   61.0540   26.4400   47.5460 O   0  0  0  0  0  0  0  0  0  0  0  0
   60.0560   27.2040   47.4690 C   0  0  0  0  0  0  0  0  0  0  0  0
   58.8110   26.7110   46.8390 C   0  0  0  0  0  0  0  0  0  0  0  0
   57.7520   25.6160   47.5600 S   0  0  0  0  0  0  0  0  0  0  0  0
   56.7350   25.5380   46.2290 C   0  0  0  0  0  0  0  0  0  0  0  0
   55.5240   24.7170   46.1420 C   0  0  0  0  0  0  0  0  0  0  0  0
   54.3580   25.1830   45.6190 N   0  0  0  0  0  0  0  0  0  0  0  0
   53.5430   24.1270   45.7450 C   0  0  0  0  0  0  0  0  0  0  0  0
   52.2050   24.0320   45.3680 C   0  0  0  0  0  0  0  0  0  0  0  0
   51.5460   22.8110   45.6010 C   0  0  0  0  0  0  0  0  0  0  0  0
   52.2340   21.7290   46.1990 C   0  0  0  0  0  0  0  0  0  0  0  0
   53.5870   21.8620   46.5670 C   0  0  0  0  0  0  0  0  0  0  0  0
   54.2060   23.0860   46.3200 C   0  0  0  0  0  0  0  0  0  0  0  0
   55.4730   23.4330   46.5850 N   0  0  0  0  0  0  0  0  0  0  0  0
   57.1780   26.3240   45.2250 N   0  0  0  0  0  0  0  0  0  0  0  0
   58.3280   26.9810   45.5480 C   0  0  0  0  0  0  0  0  0  0  0  0
   58.9810   27.9000   44.5520 C   0  0  0  0  0  0  0  0  0  0  0  0
   58.2220   29.1960   44.4210 C   0  0  0  0  0  0  0  0  0  0  0  0
   56.8240   29.1850   44.2600 C   0  0  0  0  0  0  0  0  0  0  0  0
   56.1170   30.3860   44.1470 C   0  0  0  0  0  0  0  0  0  0  0  0
   56.7970   31.6070   44.1990 C   0  0  0  0  0  0  0  0  0  0  0  0
   58.1830   31.6270   44.3760 C   0  0  0  0  0  0  0  0  0  0  0  0
   58.8930   30.4280   44.4930 C   0  0  0  0  0  0  0  0  0  0  0  0
   60.1340   28.5190   48.0500 N   0  0  0  0  0  0  0  0  0  0  0  0
   59.4390   29.6580   47.4320 C   0  0  0  0  0  0  0  0  0  0  0  0
   60.3060   30.9160   47.5180 C   0  0  0  0  0  0  0  0  0  0  0  0
   60.6540   31.2730   48.9930 C   0  0  0  0  0  0  0  0  0  0  0  0
   61.8960   32.0740   49.1570 N   0  0  0  0  0  0  0  0  0  0  0  0
   62.9370   31.9080   48.1350 C   0  0  0  0  0  0  0  0  0  0  0  0
   63.7730   33.1840   48.1470 C   0  0  0  0  0  0  0  0  0  0  0  0
   63.0220   34.1690   49.0300 C   0  0  0  0  0  0  0  0  0  0  0  0
   61.6820   33.5140   49.3110 C   0  0  0  0  0  0  0  0  0  0  0  0
   60.6570   30.0430   49.9390 C   0  0  0  0  0  0  0  0  0  0  0  0
   60.9980   28.7300   49.2210 C   0  0  0  0  0  0  0  0  0  0  0  0
   51.6823   24.8817   44.9045 H   0  0  0  0  0  0  0  0  0  0  0  0
   50.4896   22.6969   45.3165 H   0  0  0  0  0  0  0  0  0  0  0  0
   51.7094   20.7788   46.3775 H   0  0  0  0  0  0  0  0  0  0  0  0
   54.1354   21.0298   47.0326 H   0  0  0  0  0  0  0  0  0  0  0  0
   60.0067   28.1177   44.8845 H   0  0  0  0  0  0  0  0  0  0  0  0
   58.9867   27.4010   43.5717 H   0  0  0  0  0  0  0  0  0  0  0  0
   56.2848   28.2269   44.2229 H   0  0  0  0  0  0  0  0  0  0  0  0
   55.0248   30.3705   44.0171 H   0  0  0  0  0  0  0  0  0  0  0  0
   56.2411   32.5511   44.1006 H   0  0  0  0  0  0  0  0  0  0  0  0
   58.7165   32.5878   44.4234 H   0  0  0  0  0  0  0  0  0  0  0  0
   59.9826   30.4497   44.6422 H   0  0  0  0  0  0  0  0  0  0  0  0
   59.2345   29.4292   46.3757 H   0  0  0  0  0  0  0  0  0  0  0  0
   58.4947   29.8356   47.9674 H   0  0  0  0  0  0  0  0  0  0  0  0
   61.2398   30.7446   46.9624 H   0  0  0  0  0  0  0  0  0  0  0  0
   59.7397   31.7541   47.0858 H   0  0  0  0  0  0  0  0  0  0  0  0
   59.8243   31.9264   49.3005 H   0  0  0  0  0  0  0  0  0  0  0  0
   63.5680   31.0394   48.3746 H   0  0  0  0  0  0  0  0  0  0  0  0
   62.4931   31.7360   47.1434 H   0  0  0  0  0  0  0  0  0  0  0  0
   64.7715   32.9828   48.5623 H   0  0  0  0  0  0  0  0  0  0  0  0
   63.9162   33.5814   47.1313 H   0  0  0  0  0  0  0  0  0  0  0  0
   63.5706   34.3417   49.9677 H   0  0  0  0  0  0  0  0  0  0  0  0
   62.9056   35.1490   48.5442 H   0  0  0  0  0  0  0  0  0  0  0  0
   61.3515   33.7439   50.3347 H   0  0  0  0  0  0  0  0  0  0  0  0
   60.9030   33.8808   48.6264 H   0  0  0  0  0  0  0  0  0  0  0  0
   61.4017   30.2124   50.7306 H   0  0  0  0  0  0  0  0  0  0  0  0
   59.6398   29.9396   50.3446 H   0  0  0  0  0  0  0  0  0  0  0  0
   62.0466   28.7646   48.8905 H   0  0  0  0  0  0  0  0  0  0  0  0
   60.8376   27.8992   49.9239 H   0  0  0  0  0  0  0  0  0  0  0  0
  1  2  2  0
  2  3  1  0
  3  4  1  0
  4  5  1  0
  5  6  1  0
  6  7  2  0
  7  8  1  0
  8  9  2  0
  9 10  1  0
 10 11  2  0
 11 12  1  0
 12 13  2  0
 13 14  1  0
  5 15  2  0
 15 16  1  0
 16 17  1  0
 17 18  1  0
 18 19  2  0
 19 20  1  0
 20 21  2  0
 21 22  1  0
 22 23  2  0
  2 24  1  0
 24 25  1  0
 25 26  1  0
 26 27  1  0
 27 28  1  0
 28 29  1  0
 29 30  1  0
 30 31  1  0
 31 32  1  0
 27 33  1  0
 33 34  1  0
 16  3  2  0
 23 18  1  0
 34 24  1  0
 14  6  1  0
 32 28  1  0
 13  8  1  0
  9 35  1  0
 10 36  1  0
 11 37  1  0
 12 38  1  0
 17 39  1  0
 17 40  1  0
 19 41  1  0
 20 42  1  0
 21 43  1  0
 22 44  1  0
 23 45  1  0
 25 46  1  0
 25 47  1  0
 26 48  1  0
 26 49  1  0
 27 50  1  0
 29 51  1  0
 29 52  1  0
 30 53  1  0
 30 54  1  0
 31 55  1  0
 31 56  1  0
 32 57  1  0
 32 58  1  0
 33 59  1  0
 33 60  1  0
 34 61  1  0
 34 62  1  0
M  CHG  1  14  -1
M  END
>  <UniqueID>  (13) 
12

>  <SMILES>  (13) 
O=C(c1sc(-c2nc3ccccc3[n-]2)nc1Cc1ccccc1)N1CCC(N2CCCC2)CC1

>  <Energy>  (13) 
145.34797822039454

>  <Genealogy>  (13) 
O=C(c1sc(-c2nc3ccccc3[n-]2)nc1Cc1ccccc1)N1CCC(N2CCCC2)CC1 (protonated)
O=C(c1sc(-c2nc3ccccc3[n-]2)nc1Cc1ccccc1)N1CCC(N2CCCC2)CC1 (3D coordinates assigned)
O=C(c1sc(-c2nc3ccccc3[n-]2)nc1Cc1ccccc1)N1CCC(N2CCCC2)CC1 (nonaromatic ring conformer: 145.34797822039454 kcal/mol)

>  <smiles>  (13) 
O=C(c1sc(-c2nc3ccccc3[nH]2)nc1Cc1ccccc1)N1CCC(N2CCCC2)CC1

>  <score_type>  (13) 
oracle

>  <origin>  (13) 
adg

>  <m_score__min__energy>  (13) 
-10.640000000000001

>  <m_primary>  (13) 
energy

$$$$
13:0
     RDKit          3D

 49 51  0  0  0  0  0  0  0  0999 V2000
   58.9760   30.0100   47.9930 C   0  0  0  0  0  0  0  0  0  0  0  0
   59.2700   31.4480   47.6600 C   0  0  0  0  0  0  0  0  0  0  0  0
   60.1690   32.1650   48.4690 C   0  0  0  0  0  0  0  0  0  0  0  0
   60.4380   33.5120   48.2100 C   0  0  0  0  0  0  0  0  0  0  0  0
   61.5520   34.3980   49.2350 Cl  0  0  0  0  0  0  0  0  0  0  0  0
   59.8140   34.1550   47.1390 C   0  0  0  0  0  0  0  0  0  0  0  0
   58.9330   33.4510   46.3170 C   0  0  0  0  0  0  0  0  0  0  0  0
   58.6750   32.0930   46.5490 C   0  0  0  0  0  0  0  0  0  0  0  0
   57.7820   31.4000   45.6680 N   0  0  0  0  0  0  0  0  0  0  0  0
   57.7410   31.6560   44.2560 C   0  0  0  0  0  0  0  0  0  0  0  0
   58.4810   32.5420   43.7480 O   0  0  0  0  0  0  0  0  0  0  0  0
   56.7770   30.9090   43.3880 C   0  0  0  0  0  0  0  0  0  0  0  0
   56.3250   29.6580   44.0870 C   0  0  0  0  0  0  0  0  0  0  0  0
   55.3420   29.7160   44.8740 O   0  0  0  0  0  0  0  0  0  0  0  0
   57.0470   28.4240   43.9720 N   0  0  0  0  0  0  0  0  0  0  0  0
   58.1110   27.9850   44.8290 C   0  0  0  0  0  0  0  0  0  0  0  0
   59.3510   28.6460   44.8230 C   0  0  0  0  0  0  0  0  0  0  0  0
   60.4020   28.1850   45.6210 C   0  0  0  0  0  0  0  0  0  0  0  0
   60.2280   27.0550   46.4200 C   0  0  0  0  0  0  0  0  0  0  0  0
   59.0080   26.3760   46.4160 C   0  0  0  0  0  0  0  0  0  0  0  0
   57.9490   26.8210   45.6080 C   0  0  0  0  0  0  0  0  0  0  0  0
   56.6590   26.1000   45.6330 C   0  0  0  0  0  0  0  0  0  0  0  0
   55.7300   26.5390   46.3630 O   0  0  0  0  0  0  0  0  0  0  0  0
   56.4430   24.9190   44.8390 N   0  0  0  0  0  0  0  0  0  0  0  0
   57.2620   24.5450   43.6970 C   0  0  0  0  0  0  0  0  0  0  0  0
   56.6340   23.2770   43.1350 C   0  0  0  0  0  0  0  0  0  0  0  0
   55.2330   23.1990   43.7360 C   0  0  0  0  0  0  0  0  0  0  0  0
   55.2540   24.0940   44.9690 C   0  0  0  0  0  0  0  0  0  0  0  0
   58.9503   29.8845   49.0855 H   0  0  0  0  0  0  0  0  0  0  0  0
   58.0015   29.7272   47.5684 H   0  0  0  0  0  0  0  0  0  0  0  0
   59.7613   29.3674   47.5684 H   0  0  0  0  0  0  0  0  0  0  0  0
   60.6646   31.6620   49.3124 H   0  0  0  0  0  0  0  0  0  0  0  0
   60.0172   35.2181   46.9429 H   0  0  0  0  0  0  0  0  0  0  0  0
   58.4373   33.9657   45.4807 H   0  0  0  0  0  0  0  0  0  0  0  0
   57.0000   30.8510   46.0920 H   0  0  0  0  0  0  0  0  0  0  0  0
   55.9048   31.5459   43.1792 H   0  0  0  0  0  0  0  0  0  0  0  0
   57.2732   30.6382   42.4444 H   0  0  0  0  0  0  0  0  0  0  0  0
   59.4955   29.5315   44.1866 H   0  0  0  0  0  0  0  0  0  0  0  0
   61.3667   28.7136   45.6189 H   0  0  0  0  0  0  0  0  0  0  0  0
   61.0530   26.6983   47.0541 H   0  0  0  0  0  0  0  0  0  0  0  0
   58.8754   25.4868   47.0498 H   0  0  0  0  0  0  0  0  0  0  0  0
   57.2537   25.3442   42.9413 H   0  0  0  0  0  0  0  0  0  0  0  0
   58.3111   24.3840   43.9860 H   0  0  0  0  0  0  0  0  0  0  0  0
   56.5766   23.3328   42.0379 H   0  0  0  0  0  0  0  0  0  0  0  0
   57.2300   22.3871   43.3857 H   0  0  0  0  0  0  0  0  0  0  0  0
   54.4866   23.5611   43.0136 H   0  0  0  0  0  0  0  0  0  0  0  0
   54.9624   22.1644   43.9939 H   0  0  0  0  0  0  0  0  0  0  0  0
   54.3525   24.7236   45.0008 H   0  0  0  0  0  0  0  0  0  0  0  0
   55.2700   23.5041   45.8973 H   0  0  0  0  0  0  0  0  0  0  0  0
  1  2  1  0
  2  3  2  0
  3  4  1  0
  4  5  1  0
  4  6  2  0
  6  7  1  0
  7  8  2  0
  8  9  1  0
  9 10  1  0
 10 11  2  0
 10 12  1  0
 12 13  1  0
 13 14  2  0
 13 15  1  0
 15 16  1  0
 16 17  2  0
 17 18  1  0
 18 19  2  0
 19 20  1  0
 20 21  2  0
 21 22  1  0
 22 23  2  0
 22 24  1  0
 24 25  1  0
 25 26  1  0
 26 27  1  0
 27 28  1  0
  8  2  1  0
 21 16  1  0
 28 24  1  0
  1 29  1  0
  1 30  1  0
  1 31  1  0
  3 32  1  0
  6 33  1  0
  7 34  1  0
  9 35  1  0
 12 36  1  0
 12 37  1  0
 17 38  1  0
 18 39  1  0
 19 40  1  0
 20 41  1  0
 25 42  1  0
 25 43  1  0
 26 44  1  0
 26 45  1  0
 27 46  1  0
 27 47  1  0
 28 48  1  0
 28 49  1  0
M  CHG  1  15  -1
M  END
>  <UniqueID>  (14) 
13

>  <SMILES>  (14) 
Cc1cc(Cl)ccc1NC(=O)CC(=O)[N-]c1ccccc1C(=O)N1CCCC1

>  <Energy>  (14) 
63.55432655698415

>  <Genealogy>  (14) 
Cc1cc(Cl)ccc1NC(=O)CC(=O)[N-]c1ccccc1C(=O)N1CCCC1 (protonated)
Cc1cc(Cl)ccc1NC(=O)CC(=O)[N-]c1ccccc1C(=O)N1CCCC1 (3D coordinates assigned)
Cc1cc(Cl)ccc1NC(=O)CC(=O)[N-]c1ccccc1C(=O)N1CCCC1 (nonaromatic ring conformer: 63.55432655698415 kcal/mol)

>  <smiles>  (14) 
Cc1cc(Cl)ccc1NC(=O)CC(=O)Nc1ccccc1C(=O)N1CCCC1

>  <score_type>  (14) 
oracle

>  <origin>  (14) 
adg

>  <m_score__min__energy>  (14) 
-10.949999999999999

>  <m_primary>  (14) 
energy

$$$$
14:0
     RDKit          3D

 21 22  0  0  0  0  0  0  0  0999 V2000
   55.4240   29.3000   45.0010 O   0  0  0  0  0  0  0  0  0  0  0  0
   56.6350   28.9710   45.0970 C   0  0  0  0  0  0  0  0  0  0  0  0
   57.6290   29.8330   44.5260 N   0  0  0  0  0  0  0  0  0  0  0  0
   57.8620   31.2000   44.8910 C   0  0  0  0  0  0  0  0  0  0  0  0
   58.0940   31.5050   46.2380 C   0  0  0  0  0  0  0  0  0  0  0  0
   58.3280   32.8240   46.6360 C   0  0  0  0  0  0  0  0  0  0  0  0
   58.3120   33.8510   45.6910 C   0  0  0  0  0  0  0  0  0  0  0  0
   58.0480   33.5640   44.3490 C   0  0  0  0  0  0  0  0  0  0  0  0
   57.8130   32.2450   43.9410 C   0  0  0  0  0  0  0  0  0  0  0  0
   57.3860   31.9550   42.2590 Cl  0  0  0  0  0  0  0  0  0  0  0  0
   56.9980   27.7440   45.8370 C   0  0  0  0  0  0  0  0  0  0  0  0
   58.2410   27.4430   46.2540 N   0  0  0  0  0  0  0  0  0  0  0  0
   58.0840   26.2610   46.8870 C   0  0  0  0  0  0  0  0  0  0  0  0
   59.0440   25.6450   47.4190 O   0  0  0  0  0  0  0  0  0  0  0  0
   56.8190   25.7920   46.9050 N   0  0  0  0  0  0  0  0  0  0  0  0
   56.1440   26.7420   46.2390 C   0  0  0  0  0  0  0  0  0  0  0  0
   54.7750   26.6910   46.0030 O   0  0  0  0  0  0  0  0  0  0  0  0
   58.0920   30.7005   46.9882 H   0  0  0  0  0  0  0  0  0  0  0  0
   58.5247   33.0528   47.6938 H   0  0  0  0  0  0  0  0  0  0  0  0
   58.5074   34.8876   46.0029 H   0  0  0  0  0  0  0  0  0  0  0  0
   58.0247   34.3780   43.6095 H   0  0  0  0  0  0  0  0  0  0  0  0
  1  2  2  0
  2  3  1  0
  3  4  1  0
  4  5  2  0
  5  6  1  0
  6  7  2  0
  7  8  1  0
  8  9  2  0
  9 10  1  0
  2 11  1  0
 11 12  1  0
 12 13  1  0
 13 14  2  0
 13 15  1  0
 15 16  1  0
 16 17  1  0
  9  4  1  0
 16 11  2  0
  5 18  1  0
  6 19  1  0
  7 20  1  0
  8 21  1  0
M  CHG  4   3  -1  12  -1  15  -1  17  -1
M  END
>  <UniqueID>  (15) 
14

>  <SMILES>  (15) 
O=C([N-]c1ccccc1Cl)c1[n-]c(=O)[n-]c1[O-]

>  <Energy>  (15) 
59.004694308042176

>  <Genealogy>  (15) 
O=C([N-]c1ccccc1Cl)c1[n-]c(=O)[n-]c1[O-] (protonated)
O=C([N-]c1ccccc1Cl)c1[n-]c(=O)[n-]c1[O-] (3D coordinates assigned)
O=C([N-]c1ccccc1Cl)c1[n-]c(=O)[n-]c1[O-] (optimized conformer: 59.004694308042176 kcal/mol)

>  <smiles>  (15) 
O=C(Nc1ccccc1Cl)c1[nH]c(=O)[nH]c1O

>  <score_type>  (15) 
oracle

>  <origin>  (15) 
adg

>  <m_score__min__energy>  (15) 
-15.869999999999999

>  <m_primary>  (15) 
energy

$$$$
15:0
     RDKit          3D

 45 47  0  0  0  0  0  0  0  0999 V2000
   57.5567   31.9159   42.0287 H   0  0  0  0  0  0  0  0  0  0  0  0
   57.2250   31.3160   42.8890 C   0  0  0  0  0  0  0  0  0  0  0  0
   56.2630   29.9390   42.8230 S   0  0  0  0  0  0  0  0  0  0  0  0
   56.2630   29.7210   44.4940 C   0  0  0  0  0  0  0  0  0  0  0  0
   55.6970   28.7560   45.1600 N   0  0  0  0  0  0  0  0  0  0  0  0
   56.2680   27.5230   45.6320 C   0  0  0  0  0  0  0  0  0  0  0  0
   55.4940   26.6450   46.0980 O   0  0  0  0  0  0  0  0  0  0  0  0
   57.7320   27.2160   45.5560 C   0  0  0  0  0  0  0  0  0  0  0  0
   58.1419   27.1300   46.5731 H   0  0  0  0  0  0  0  0  0  0  0  0
   57.8803   26.2672   45.0195 H   0  0  0  0  0  0  0  0  0  0  0  0
   58.2490   28.0253   45.0195 H   0  0  0  0  0  0  0  0  0  0  0  0
   56.9960   30.6720   45.1100 N   0  0  0  0  0  0  0  0  0  0  0  0
   57.5280   31.5630   44.2280 C   0  0  0  0  0  0  0  0  0  0  0  0
   58.3660   32.6930   44.6700 C   0  0  0  0  0  0  0  0  0  0  0  0
   58.7260   33.5650   43.8330 O   0  0  0  0  0  0  0  0  0  0  0  0
   58.7720   32.8040   46.0430 N   0  0  0  0  0  0  0  0  0  0  0  0
   58.4330   32.1060   46.7410 H   0  0  0  0  0  0  0  0  0  0  0  0
   59.6520   33.8740   46.5110 C   0  0  0  0  0  0  0  0  0  0  0  0
   59.9201   34.5201   45.6621 H   0  0  0  0  0  0  0  0  0  0  0  0
   59.1252   34.4587   47.2795 H   0  0  0  0  0  0  0  0  0  0  0  0
   60.9110   33.2950   47.1130 C   0  0  0  0  0  0  0  0  0  0  0  0
   62.1510   33.8310   46.7250 C   0  0  0  0  0  0  0  0  0  0  0  0
   62.1863   34.6339   45.9739 H   0  0  0  0  0  0  0  0  0  0  0  0
   63.3390   33.3540   47.2840 C   0  0  0  0  0  0  0  0  0  0  0  0
   64.3034   33.7829   46.9741 H   0  0  0  0  0  0  0  0  0  0  0  0
   63.3030   32.3340   48.2350 C   0  0  0  0  0  0  0  0  0  0  0  0
   64.2388   31.9635   48.6789 H   0  0  0  0  0  0  0  0  0  0  0  0
   62.0810   31.7830   48.6240 C   0  0  0  0  0  0  0  0  0  0  0  0
   62.0594   30.9759   49.3711 H   0  0  0  0  0  0  0  0  0  0  0  0
   60.8790   32.2510   48.0690 C   0  0  0  0  0  0  0  0  0  0  0  0
   59.6400   31.6400   48.4640 N   0  0  0  0  0  0  0  0  0  0  0  0
   58.6570   32.3870   49.2550 C   0  0  0  0  0  0  0  0  0  0  0  0
   58.9694   33.4396   49.3216 H   0  0  0  0  0  0  0  0  0  0  0  0
   57.6748   32.3153   48.7649 H   0  0  0  0  0  0  0  0  0  0  0  0
   58.5530   31.8000   50.6680 C   0  0  0  0  0  0  0  0  0  0  0  0
   59.4415   32.0907   51.2477 H   0  0  0  0  0  0  0  0  0  0  0  0
   57.6438   32.1885   51.1500 H   0  0  0  0  0  0  0  0  0  0  0  0
   58.4700   30.2980   50.6070 C   0  0  0  0  0  0  0  0  0  0  0  0
   57.6980   29.6940   51.3370 O   0  0  0  0  0  0  0  0  0  0  0  0
   59.4140   29.5400   49.7110 C   0  0  0  0  0  0  0  0  0  0  0  0
   60.4222   29.5518   50.1507 H   0  0  0  0  0  0  0  0  0  0  0  0
   59.0629   28.5023   49.6115 H   0  0  0  0  0  0  0  0  0  0  0  0
   59.4570   30.1910   48.3270 C   0  0  0  0  0  0  0  0  0  0  0  0
   60.2946   29.7701   47.7515 H   0  0  0  0  0  0  0  0  0  0  0  0
   58.5102   29.9928   47.8032 H   0  0  0  0  0  0  0  0  0  0  0  0
  1  2  1  0
  2  3  1  0
  3  4  1  0
  4  5  2  0
  5  6  1  0
  6  7  2  0
  6  8  1  0
  8  9  1  0
  8 10  1  0
  8 11  1  0
  4 12  1  0
 12 13  1  0
 13 14  1  0
 14 15  2  0
 14 16  1  0
 16 17  1  0
 16 18  1  0
 18 19  1  0
 18 20  1  0
 18 21  1  0
 21 22  2  0
 22 23  1  0
 22 24  1  0
 24 25  1  0
 24 26  2  0
 26 27  1  0
 26 28  1  0
 28 29  1  0
 28 30  2  0
 30 31  1  0
 31 32  1  0
 32 33  1  0
 32 34  1  0
 32 35  1  0
 35 36  1  0
 35 37  1  0
 35 38  1  0
 38 39  2  0
 38 40  1  0
 40 41  1  0
 40 42  1  0
 40 43  1  0
 43 44  1  0
 43 45  1  0
 13  2  2  0
 30 21  1  0
 43 31  1  0
M  CHG  1  12  -1
M  END
>  <UniqueID>  (16) 
15

>  <SMILES>  (16) 
CC(=O)/N=c1/[n-]c(C(=O)NCc2ccccc2N2CCC(=O)CC2)cs1

>  <Energy>  (16) 
81.9120034048253

>  <Genealogy>  (16) 
CC(=O)N=c1[n-]c(C(=O)NCc2ccccc2N2CCC(=O)CC2)cs1 (protonated)
CC(=O)/N=c1/[n-]c(C(=O)NCc2ccccc2N2CCC(=O)CC2)cs1 (cis-trans isomerization)
CC(=O)/N=c1/[n-]c(C(=O)NCc2ccccc2N2CCC(=O)CC2)cs1 (3D coordinates assigned)
CC(=O)/N=c1/[n-]c(C(=O)NCc2ccccc2N2CCC(=O)CC2)cs1 (nonaromatic ring conformer: 81.9120034048253 kcal/mol)

>  <smiles>  (16) 
CC(=O)N=c1[nH]c(C(=O)NCc2ccccc2N2CCC(=O)CC2)cs1

>  <score_type>  (16) 
oracle

>  <origin>  (16) 
adg

>  <m_score__min__energy>  (16) 
-10.58

>  <m_primary>  (16) 
energy

$$$$
16:0
     RDKit          3D

 81 86  0  0  0  0  0  0  0  0999 V2000
   57.4580   31.9720   42.4690 C   0  0  0  0  0  0  0  0  0  0  0  0
   57.1770   30.6080   43.5760 S   0  0  0  0  0  0  0  0  0  0  0  0
   56.1810   31.0130   44.6260 O   0  0  0  0  0  0  0  0  0  0  0  0
   56.6260   29.4490   42.7950 O   0  0  0  0  0  0  0  0  0  0  0  0
   58.7060   30.1130   44.3540 C   0  0  0  0  0  0  0  0  0  0  0  0
   58.4700   28.9890   45.3230 C   0  0  0  0  0  0  0  0  0  0  0  0
   57.4760   28.0310   45.0720 C   0  0  0  0  0  0  0  0  0  0  0  0
   57.2790   26.9720   45.9620 C   0  0  0  0  0  0  0  0  0  0  0  0
   58.0650   26.8650   47.1130 C   0  0  0  0  0  0  0  0  0  0  0  0
   59.0530   27.8280   47.3850 C   0  0  0  0  0  0  0  0  0  0  0  0
   59.9050   27.7360   48.5380 N   0  0  0  0  0  0  0  0  0  0  0  0
   60.0110   28.6090   49.4980 C   0  0  0  0  0  0  0  0  0  0  0  0
   60.9270   28.4580   50.4960 N   0  0  0  0  0  0  0  0  0  0  0  0
   61.0140   29.3440   51.5230 C   0  0  0  0  0  0  0  0  0  0  0  0
   61.9900   29.1440   52.5100 O   0  0  0  0  0  0  0  0  0  0  0  0
   63.0490   30.0230   52.7690 C   0  0  0  0  0  0  0  0  0  0  0  0
   62.8440   31.0910   53.6490 C   0  0  0  0  0  0  0  0  0  0  0  0
   63.8900   31.9670   53.9530 C   0  0  0  0  0  0  0  0  0  0  0  0
   65.1430   31.8110   53.3480 C   0  0  0  0  0  0  0  0  0  0  0  0
   66.2110   32.6880   53.7320 N   0  0  0  0  0  0  0  0  0  0  0  0
   67.4990   32.7580   53.1100 C   0  0  0  0  0  0  0  0  0  0  0  0
   68.4660   32.0870   53.5620 O   0  0  0  0  0  0  0  0  0  0  0  0
   67.6710   33.5880   51.8760 C   0  0  0  0  0  0  0  0  0  0  0  0
   66.4520   34.1670   51.2270 C   0  0  0  0  0  0  0  0  0  0  0  0
   65.9920   35.2650   51.6320 O   0  0  0  0  0  0  0  0  0  0  0  0
   65.8330   33.4440   50.1540 N   0  0  0  0  0  0  0  0  0  0  0  0
   64.4410   33.3740   49.8050 C   0  0  0  0  0  0  0  0  0  0  0  0
   63.5070   33.8550   50.7280 C   0  0  0  0  0  0  0  0  0  0  0  0
   62.1410   33.8270   50.4420 C   0  0  0  0  0  0  0  0  0  0  0  0
   61.6790   33.3080   49.2200 C   0  0  0  0  0  0  0  0  0  0  0  0
   60.2290   33.3280   48.9160 C   0  0  0  0  0  0  0  0  0  0  0  0
   59.4610   34.1010   49.5530 O   0  0  0  0  0  0  0  0  0  0  0  0
   59.6800   32.4810   47.9000 N   0  0  0  0  0  0  0  0  0  0  0  0
   59.1500   32.9700   46.6250 C   0  0  0  0  0  0  0  0  0  0  0  0
   57.6140   33.1000   46.6580 C   0  0  0  0  0  0  0  0  0  0  0  0
   57.1050   34.0130   45.5250 C   0  0  0  0  0  0  0  0  0  0  0  0
   58.0530   34.1020   44.4770 O   0  0  0  0  0  0  0  0  0  0  0  0
   59.1870   34.8380   44.9090 C   0  0  0  0  0  0  0  0  0  0  0  0
   59.7940   34.3050   46.2280 C   0  0  0  0  0  0  0  0  0  0  0  0
   62.6150   32.7880   48.3030 C   0  0  0  0  0  0  0  0  0  0  0  0
   62.2140   32.2270   47.1340 F   0  0  0  0  0  0  0  0  0  0  0  0
   63.9830   32.8120   48.6000 C   0  0  0  0  0  0  0  0  0  0  0  0
   68.8530   34.5500   51.9360 C   0  0  0  0  0  0  0  0  0  0  0  0
   68.9000   33.3450   51.0080 C   0  0  0  0  0  0  0  0  0  0  0  0
   65.3440   30.7560   52.4420 C   0  0  0  0  0  0  0  0  0  0  0  0
   64.3020   29.8710   52.1470 C   0  0  0  0  0  0  0  0  0  0  0  0
   64.5110   28.8790   51.2450 F   0  0  0  0  0  0  0  0  0  0  0  0
   60.1490   30.4480   51.5480 C   0  0  0  0  0  0  0  0  0  0  0  0
   59.2130   30.5860   50.5260 C   0  0  0  0  0  0  0  0  0  0  0  0
   59.1580   29.6660   49.5280 N   0  0  0  0  0  0  0  0  0  0  0  0
   59.2700   28.8650   46.4700 C   0  0  0  0  0  0  0  0  0  0  0  0
   57.6461   32.8852   43.0527 H   0  0  0  0  0  0  0  0  0  0  0  0
   58.3305   31.7559   41.8349 H   0  0  0  0  0  0  0  0  0  0  0  0
   56.5711   32.1183   41.8349 H   0  0  0  0  0  0  0  0  0  0  0  0
   59.4134   29.7800   43.5803 H   0  0  0  0  0  0  0  0  0  0  0  0
   59.1175   30.9726   44.9033 H   0  0  0  0  0  0  0  0  0  0  0  0
   56.8497   28.1139   44.1715 H   0  0  0  0  0  0  0  0  0  0  0  0
   56.5029   26.2201   45.7563 H   0  0  0  0  0  0  0  0  0  0  0  0
   57.9104   26.0259   47.8073 H   0  0  0  0  0  0  0  0  0  0  0  0
   61.8541   31.2423   54.1043 H   0  0  0  0  0  0  0  0  0  0  0  0
   63.7278   32.7837   54.6718 H   0  0  0  0  0  0  0  0  0  0  0  0
   63.8527   34.2601   51.6905 H   0  0  0  0  0  0  0  0  0  0  0  0
   61.4209   34.2138   51.1781 H   0  0  0  0  0  0  0  0  0  0  0  0
   59.4089   32.2217   45.8615 H   0  0  0  0  0  0  0  0  0  0  0  0
   57.1673   32.1015   46.5417 H   0  0  0  0  0  0  0  0  0  0  0  0
   57.3238   33.5463   47.6206 H   0  0  0  0  0  0  0  0  0  0  0  0
   56.1662   33.6012   45.1262 H   0  0  0  0  0  0  0  0  0  0  0  0
   56.9419   35.0206   45.9350 H   0  0  0  0  0  0  0  0  0  0  0  0
   59.9564   34.7869   44.1245 H   0  0  0  0  0  0  0  0  0  0  0  0
   58.8548   35.8698   45.0959 H   0  0  0  0  0  0  0  0  0  0  0  0
   60.8757   34.1574   46.0933 H   0  0  0  0  0  0  0  0  0  0  0  0
   59.6035   35.0387   47.0251 H   0  0  0  0  0  0  0  0  0  0  0  0
   64.7045   32.3884   47.8859 H   0  0  0  0  0  0  0  0  0  0  0  0
   68.7594   35.5630   51.5176 H   0  0  0  0  0  0  0  0  0  0  0  0
   69.4981   34.9403   52.7369 H   0  0  0  0  0  0  0  0  0  0  0  0
   68.8406   33.4873   49.9189 H   0  0  0  0  0  0  0  0  0  0  0  0
   69.5936   32.5040   50.8607 H   0  0  0  0  0  0  0  0  0  0  0  0
   66.3254   30.6255   51.9626 H   0  0  0  0  0  0  0  0  0  0  0  0
   60.2087   31.1896   52.3582 H   0  0  0  0  0  0  0  0  0  0  0  0
   58.5188   31.4393   50.5269 H   0  0  0  0  0  0  0  0  0  0  0  0
   60.0763   29.5908   46.6517 H   0  0  0  0  0  0  0  0  0  0  0  0
  1  2  1  0
  2  3  2  0
  2  4  2  0
  2  5  1  0
  5  6  1  0
  6  7  2  0
  7  8  1  0
  8  9  2  0
  9 10  1  0
 10 11  1  0
 11 12  2  3
 12 13  1  0
 13 14  2  0
 14 15  1  0
 15 16  1  0
 16 17  2  0
 17 18  1  0
 18 19  2  0
 19 20  1  0
 20 21  1  0
 21 22  2  0
 21 23  1  0
 23 24  1  0
 24 25  2  0
 24 26  1  0
 26 27  1  0
 27 28  2  0
 28 29  1  0
 29 30  2  0
 30 31  1  0
 31 32  2  0
 31 33  1  0
 33 34  1  0
 34 35  1  0
 35 36  1  0
 36 37  1  0
 37 38  1  0
 38 39  1  0
 30 40  1  0
 40 41  1  0
 40 42  2  0
 23 43  1  0
 43 44  1  0
 19 45  1  0
 45 46  2  0
 46 47  1  0
 14 48  1  0
 48 49  2  0
 49 50  1  0
 10 51  2  0
 51  6  1  0
 50 12  1  0
 46 16  1  0
 44 23  1  0
 42 27  1  0
 39 34  1  0
  1 52  1  0
  1 53  1  0
  1 54  1  0
  5 55  1  0
  5 56  1  0
  7 57  1  0
  8 58  1  0
  9 59  1  0
 17 60  1  0
 18 61  1  0
 28 62  1  0
 29 63  1  0
 34 64  1  0
 35 65  1  0
 35 66  1  0
 36 67  1  0
 36 68  1  0
 38 69  1  0
 38 70  1  0
 39 71  1  0
 39 72  1  0
 42 73  1  0
 43 74  1  0
 43 75  1  0
 44 76  1  0
 44 77  1  0
 45 78  1  0
 48 79  1  0
 49 80  1  0
 51 81  1  0
M  CHG  4  20  -1  26  -1  33  -1  50  -1
M  END
>  <UniqueID>  (17) 
16

>  <SMILES>  (17) 
CS(=O)(=O)Cc1cccc(N=c2nc(Oc3ccc([N-]C(=O)C4(C(=O)[N-]c5ccc(C(=O)[N-]C6CCOCC6)c(F)c5)CC4)cc3F)cc[n-]2)c1

>  <Energy>  (17) 
382.5479711953139

>  <Genealogy>  (17) 
CS(=O)(=O)Cc1cccc(N=c2nc(Oc3ccc([N-]C(=O)C4(C(=O)[N-]c5ccc(C(=O)[N-]C6CCOCC6)c(F)c5)CC4)cc3F)cc[n-]2)c1 (protonated)
CS(=O)(=O)Cc1cccc(N=c2nc(Oc3ccc([N-]C(=O)C4(C(=O)[N-]c5ccc(C(=O)[N-]C6CCOCC6)c(F)c5)CC4)cc3F)cc[n-]2)c1 (3D coordinates assigned)
CS(=O)(=O)Cc1cccc(N=c2nc(Oc3ccc([N-]C(=O)C4(C(=O)[N-]c5ccc(C(=O)[N-]C6CCOCC6)c(F)c5)CC4)cc3F)cc[n-]2)c1 (nonaromatic ring conformer: 382.5479711953139 kcal/mol)

>  <smiles>  (17) 
CS(=O)(=O)Cc1cccc(N=c2nc(Oc3ccc(NC(=O)C4(C(=O)Nc5ccc(C(=O)NC6CCOCC6)c(F)c5)CC4)cc3F)cc[nH]2)c1

>  <score_type>  (17) 
oracle

>  <origin>  (17) 
adg

>  <m_score__min__energy>  (17) 
-15.140000000000001

>  <m_primary>  (17) 
energy

$$$$
17:0
     RDKit          3D

 58 60  0  0  0  0  0  0  0  0999 V2000
   61.1500   27.5669   50.7680 H   0  0  0  0  0  0  0  0  0  0  0  0
   60.7040   28.3670   50.1590 C   0  0  0  0  0  0  0  0  0  0  0  0
   60.4937   29.3484   50.6091 H   0  0  0  0  0  0  0  0  0  0  0  0
   60.4180   28.1470   48.8740 C   0  0  0  0  0  0  0  0  0  0  0  0
   60.7890   26.8500   48.2610 C   0  0  0  0  0  0  0  0  0  0  0  0
   61.5505   26.2461   48.7763 H   0  0  0  0  0  0  0  0  0  0  0  0
   60.2700   26.3530   47.1270 C   0  0  0  0  0  0  0  0  0  0  0  0
   60.9711   25.9124   46.4029 H   0  0  0  0  0  0  0  0  0  0  0  0
   58.8340   26.3480   46.7690 C   0  0  0  0  0  0  0  0  0  0  0  0
   58.0160   25.3170   47.2450 C   0  0  0  0  0  0  0  0  0  0  0  0
   58.4551   24.4974   47.8328 H   0  0  0  0  0  0  0  0  0  0  0  0
   56.6460   25.3230   46.9780 C   0  0  0  0  0  0  0  0  0  0  0  0
   56.0135   24.5031   47.3490 H   0  0  0  0  0  0  0  0  0  0  0  0
   56.0730   26.3630   46.2430 C   0  0  0  0  0  0  0  0  0  0  0  0
   54.7060   26.3390   45.9880 O   0  0  0  0  0  0  0  0  0  0  0  0
   56.8740   27.4180   45.7650 C   0  0  0  0  0  0  0  0  0  0  0  0
   56.2460   28.5380   45.0210 C   0  0  0  0  0  0  0  0  0  0  0  0
   55.2208   28.8350   45.2870 H   0  0  0  0  0  0  0  0  0  0  0  0
   56.8710   29.2050   44.0390 C   0  0  0  0  0  0  0  0  0  0  0  0
   57.3414   28.6332   43.2255 H   0  0  0  0  0  0  0  0  0  0  0  0
   56.9500   30.6780   44.0110 C   0  0  0  0  0  0  0  0  0  0  0  0
   56.0290   31.3790   44.5130 O   0  0  0  0  0  0  0  0  0  0  0  0
   58.0840   31.3110   43.4040 N   0  0  0  0  0  0  0  0  0  0  0  0
   58.8520   30.7170   43.0140 H   0  0  0  0  0  0  0  0  0  0  0  0
   58.1920   32.7630   43.2660 C   0  0  0  0  0  0  0  0  0  0  0  0
   58.9699   32.9971   42.5244 H   0  0  0  0  0  0  0  0  0  0  0  0
   57.2183   33.1578   42.9403 H   0  0  0  0  0  0  0  0  0  0  0  0
   58.5550   33.4040   44.5800 C   0  0  0  0  0  0  0  0  0  0  0  0
   59.2330   34.6330   44.6030 C   0  0  0  0  0  0  0  0  0  0  0  0
   59.4371   35.1643   43.6617 H   0  0  0  0  0  0  0  0  0  0  0  0
   59.6490   35.1830   45.8170 C   0  0  0  0  0  0  0  0  0  0  0  0
   60.1763   36.1483   45.8292 H   0  0  0  0  0  0  0  0  0  0  0  0
   59.3980   34.5120   47.0160 C   0  0  0  0  0  0  0  0  0  0  0  0
   59.7399   34.9453   47.9675 H   0  0  0  0  0  0  0  0  0  0  0  0
   58.7130   33.2900   47.0130 C   0  0  0  0  0  0  0  0  0  0  0  0
   58.4710   32.6370   48.2660 N   0  0  0  0  0  0  0  0  0  0  0  0
   59.5870   32.5770   49.5910 S   0  0  0  0  0  0  0  0  0  0  0  0
   59.2700   33.6460   50.5990 O   0  0  0  0  0  0  0  0  0  0  0  0
   59.4640   31.2410   50.2700 O   0  0  0  0  0  0  0  0  0  0  0  0
   61.2260   32.7530   48.9720 C   0  0  0  0  0  0  0  0  0  0  0  0
   62.0630   33.7780   49.4380 C   0  0  0  0  0  0  0  0  0  0  0  0
   61.7086   34.4639   50.2216 H   0  0  0  0  0  0  0  0  0  0  0  0
   63.3490   33.9280   48.9060 C   0  0  0  0  0  0  0  0  0  0  0  0
   64.0036   34.7330   49.2715 H   0  0  0  0  0  0  0  0  0  0  0  0
   63.8040   33.0560   47.9100 C   0  0  0  0  0  0  0  0  0  0  0  0
   64.8155   33.1756   47.4946 H   0  0  0  0  0  0  0  0  0  0  0  0
   62.9730   32.0330   47.4430 C   0  0  0  0  0  0  0  0  0  0  0  0
   63.3316   31.3463   46.6620 H   0  0  0  0  0  0  0  0  0  0  0  0
   61.6860   31.8830   47.9690 C   0  0  0  0  0  0  0  0  0  0  0  0
   61.0315   31.0813   47.5963 H   0  0  0  0  0  0  0  0  0  0  0  0
   58.3030   32.7340   45.7880 C   0  0  0  0  0  0  0  0  0  0  0  0
   57.7805   31.7661   45.7761 H   0  0  0  0  0  0  0  0  0  0  0  0
   58.2520   27.4090   46.0540 C   0  0  0  0  0  0  0  0  0  0  0  0
   58.8823   28.2445   45.7153 H   0  0  0  0  0  0  0  0  0  0  0  0
   59.8080   29.2510   48.0530 C   0  0  0  0  0  0  0  0  0  0  0  0
   59.3858   30.0152   48.7222 H   0  0  0  0  0  0  0  0  0  0  0  0
   60.5823   29.7067   47.4184 H   0  0  0  0  0  0  0  0  0  0  0  0
   59.0101   28.8380   47.4184 H   0  0  0  0  0  0  0  0  0  0  0  0
  1  2  1  0
  2  3  1  0
  2  4  2  0
  4  5  1  0
  5  6  1  0
  5  7  2  0
  7  8  1  0
  7  9  1  0
  9 10  2  0
 10 11  1  0
 10 12  1  0
 12 13  1  0
 12 14  2  0
 14 15  1  0
 14 16  1  0
 16 17  1  0
 17 18  1  0
 17 19  2  0
 19 20  1  0
 19 21  1  0
 21 22  2  0
 21 23  1  0
 23 24  1  0
 23 25  1  0
 25 26  1  0
 25 27  1  0
 25 28  1  0
 28 29  2  0
 29 30  1  0
 29 31  1  0
 31 32  1  0
 31 33  2  0
 33 34  1  0
 33 35  1  0
 35 36  1  0
 36 37  1  0
 37 38  2  0
 37 39  2  0
 37 40  1  0
 40 41  2  0
 41 42  1  0
 41 43  1  0
 43 44  1  0
 43 45  2  0
 45 46  1  0
 45 47  1  0
 47 48  1  0
 47 49  2  0
 49 50  1  0
 35 51  2  0
 51 52  1  0
 16 53  2  0
 53 54  1  0
  4 55  1  0
 55 56  1  0
 55 57  1  0
 55 58  1  0
 53  9  1  0
 51 28  1  0
 49 40  1  0
M  CHG  2  15  -1  36  -1
M  END
>  <UniqueID>  (18) 
17

>  <SMILES>  (18) 
C=C(C)/C=C\c1ccc([O-])c(/C=C/C(=O)NCc2cccc([N-]S(=O)(=O)c3ccccc3)c2)c1

>  <Energy>  (18) 
68.24613067150251

>  <Genealogy>  (18) 
C=C(C)C=Cc1ccc([O-])c(C=CC(=O)NCc2cccc([N-]S(=O)(=O)c3ccccc3)c2)c1 (protonated)
C=C(C)/C=C\c1ccc([O-])c(/C=C/C(=O)NCc2cccc([N-]S(=O)(=O)c3ccccc3)c2)c1 (cis-trans isomerization)
C=C(C)/C=C\c1ccc([O-])c(/C=C/C(=O)NCc2cccc([N-]S(=O)(=O)c3ccccc3)c2)c1 (3D coordinates assigned)
C=C(C)/C=C\c1ccc([O-])c(/C=C/C(=O)NCc2cccc([N-]S(=O)(=O)c3ccccc3)c2)c1 (optimized conformer: 68.24613067150251 kcal/mol)

>  <smiles>  (18) 
C=C(C)C=Cc1ccc(O)c(C=CC(=O)NCc2cccc(NS(=O)(=O)c3ccccc3)c2)c1

>  <score_type>  (18) 
oracle

>  <origin>  (18) 
adg

>  <m_score__min__energy>  (18) 
-14.82

>  <m_primary>  (18) 
energy

$$$$
18:0
     RDKit          3D

 47 49  0  0  0  0  0  0  0  0999 V2000
   61.0540   33.4820   46.1910 O   0  0  0  0  0  0  0  0  0  0  0  0
   60.0690   32.7880   46.3830 C   0  0  0  0  0  0  0  0  0  0  0  0
   60.2240   31.4150   46.9780 C   0  0  0  0  0  0  0  0  0  0  0  0
   58.8570   30.7730   47.2310 C   0  0  0  0  0  0  0  0  0  0  0  0
   58.0020   30.9110   46.0400 N   0  0  0  0  0  0  0  0  0  0  0  0
   57.2580   29.7850   45.5270 C   0  0  0  0  0  0  0  0  0  0  0  0
   56.1010   29.9910   44.9700 N   0  0  0  0  0  0  0  0  0  0  0  0
   55.1410   29.0080   44.8670 O   0  0  0  0  0  0  0  0  0  0  0  0
   57.8430   28.4230   45.5720 C   0  0  0  0  0  0  0  0  0  0  0  0
   58.2840   27.8680   46.7850 C   0  0  0  0  0  0  0  0  0  0  0  0
   58.8540   26.5920   46.8100 C   0  0  0  0  0  0  0  0  0  0  0  0
   59.0110   25.8630   45.6190 C   0  0  0  0  0  0  0  0  0  0  0  0
   59.5670   24.5410   45.6170 N   0  0  0  0  0  0  0  0  0  0  0  0
   58.8470   23.3190   45.4110 C   0  0  0  0  0  0  0  0  0  0  0  0
   59.1370   22.6040   44.4150 O   0  0  0  0  0  0  0  0  0  0  0  0
   57.8030   22.8370   46.3830 C   0  0  0  0  0  0  0  0  0  0  0  0
   56.4560   23.4150   46.0390 C   0  0  0  0  0  0  0  0  0  0  0  0
   55.4040   22.5790   45.6390 C   0  0  0  0  0  0  0  0  0  0  0  0
   54.1480   23.1170   45.3470 C   0  0  0  0  0  0  0  0  0  0  0  0
   53.9250   24.4930   45.4590 C   0  0  0  0  0  0  0  0  0  0  0  0
   52.6620   25.0050   45.1620 O   0  0  0  0  0  0  0  0  0  0  0  0
   54.9720   25.3350   45.8720 C   0  0  0  0  0  0  0  0  0  0  0  0
   54.7690   26.7050   45.9950 O   0  0  0  0  0  0  0  0  0  0  0  0
   56.2300   24.7960   46.1630 C   0  0  0  0  0  0  0  0  0  0  0  0
   58.5510   26.4080   44.4150 C   0  0  0  0  0  0  0  0  0  0  0  0
   57.9810   27.6830   44.3880 C   0  0  0  0  0  0  0  0  0  0  0  0
   57.8440   32.2290   45.3940 C   0  0  0  0  0  0  0  0  0  0  0  0
   58.6990   33.3180   46.0580 C   0  0  0  0  0  0  0  0  0  0  0  0
   60.7957   30.7832   46.2823 H   0  0  0  0  0  0  0  0  0  0  0  0
   60.7536   31.5051   47.9379 H   0  0  0  0  0  0  0  0  0  0  0  0
   58.9935   29.7055   47.4586 H   0  0  0  0  0  0  0  0  0  0  0  0
   58.3743   31.2793   48.0799 H   0  0  0  0  0  0  0  0  0  0  0  0
   55.1550   28.2190   45.5000 H   0  0  0  0  0  0  0  0  0  0  0  0
   58.1803   28.4400   47.7188 H   0  0  0  0  0  0  0  0  0  0  0  0
   59.1810   26.1567   47.7658 H   0  0  0  0  0  0  0  0  0  0  0  0
   57.7476   21.7392   46.3400 H   0  0  0  0  0  0  0  0  0  0  0  0
   58.0821   23.1630   47.3958 H   0  0  0  0  0  0  0  0  0  0  0  0
   55.5682   21.4946   45.5547 H   0  0  0  0  0  0  0  0  0  0  0  0
   53.3301   22.4546   45.0273 H   0  0  0  0  0  0  0  0  0  0  0  0
   52.5200   25.9800   44.9270 H   0  0  0  0  0  0  0  0  0  0  0  0
   57.0461   25.4569   46.4905 H   0  0  0  0  0  0  0  0  0  0  0  0
   58.6388   25.8287   43.4840 H   0  0  0  0  0  0  0  0  0  0  0  0
   57.6385   28.1091   43.4335 H   0  0  0  0  0  0  0  0  0  0  0  0
   58.1416   32.1421   44.3386 H   0  0  0  0  0  0  0  0  0  0  0  0
   56.7895   32.5254   45.4950 H   0  0  0  0  0  0  0  0  0  0  0  0
   58.7949   34.1718   45.3711 H   0  0  0  0  0  0  0  0  0  0  0  0
   58.2097   33.6345   46.9910 H   0  0  0  0  0  0  0  0  0  0  0  0
  1  2  2  0
  2  3  1  0
  3  4  1  0
  4  5  1  0
  5  6  1  0
  6  7  2  3
  7  8  1  0
  6  9  1  0
  9 10  2  0
 10 11  1  0
 11 12  2  0
 12 13  1  0
 13 14  1  0
 14 15  2  0
 14 16  1  0
 16 17  1  0
 17 18  2  0
 18 19  1  0
 19 20  2  0
 20 21  1  0
 20 22  1  0
 22 23  1  0
 22 24  2  0
 12 25  1  0
 25 26  2  0
  5 27  1  0
 27 28  1  0
 28  2  1  0
 26  9  1  0
 24 17  1  0
  3 29  1  0
  3 30  1  0
  4 31  1  0
  4 32  1  0
  8 33  1  0
 10 34  1  0
 11 35  1  0
 16 36  1  0
 16 37  1  0
 18 38  1  0
 19 39  1  0
 21 40  1  0
 24 41  1  0
 25 42  1  0
 26 43  1  0
 27 44  1  0
 27 45  1  0
 28 46  1  0
 28 47  1  0
M  CHG  2  13  -1  23  -1
M  END
>  <UniqueID>  (19) 
18

>  <SMILES>  (19) 
O=C1CCN(C(=NO)c2ccc([N-]C(=O)Cc3ccc(O)c([O-])c3)cc2)CC1

>  <Energy>  (19) 
57.867224193685665

>  <Genealogy>  (19) 
O=C1CCN(C(=NO)c2ccc([N-]C(=O)Cc3ccc(O)c([O-])c3)cc2)CC1 (protonated)
O=C1CCN(C(=NO)c2ccc([N-]C(=O)Cc3ccc(O)c([O-])c3)cc2)CC1 (3D coordinates assigned)
O=C1CCN(C(=NO)c2ccc([N-]C(=O)Cc3ccc(O)c([O-])c3)cc2)CC1 (nonaromatic ring conformer: 57.867224193685665 kcal/mol)

>  <smiles>  (19) 
O=C1CCN(C(=NO)c2ccc(NC(=O)Cc3ccc(O)c(O)c3)cc2)CC1

>  <score_type>  (19) 
oracle

>  <origin>  (19) 
adg

>  <m_score__min__energy>  (19) 
-13.73

>  <m_primary>  (19) 
energy

$$$$
19:0
     RDKit          3D

 53 56  0  0  0  0  0  0  0  0999 V2000
   63.2100   33.4990   52.5640 C   0  0  0  0  0  0  0  0  0  0  0  0
   63.6800   33.9450   51.2920 O   0  0  0  0  0  0  0  0  0  0  0  0
   62.9550   33.8410   50.0930 C   0  0  0  0  0  0  0  0  0  0  0  0
   61.6130   34.2540   49.9960 C   0  0  0  0  0  0  0  0  0  0  0  0
   60.9230   34.1460   48.7800 C   0  0  0  0  0  0  0  0  0  0  0  0
   59.5960   34.5800   48.6740 C   0  0  0  0  0  0  0  0  0  0  0  0
   58.9130   34.4770   47.4600 C   0  0  0  0  0  0  0  0  0  0  0  0
   59.5460   33.9340   46.3290 C   0  0  0  0  0  0  0  0  0  0  0  0
   58.8180   33.8180   45.0460 C   0  0  0  0  0  0  0  0  0  0  0  0
   58.1770   34.8120   44.5990 O   0  0  0  0  0  0  0  0  0  0  0  0
   58.8900   32.6240   44.3020 O   0  0  0  0  0  0  0  0  0  0  0  0
   58.0840   31.4990   44.5300 C   0  0  0  0  0  0  0  0  0  0  0  0
   56.8760   31.3810   43.8330 C   0  0  0  0  0  0  0  0  0  0  0  0
   56.0270   30.2980   44.0730 C   0  0  0  0  0  0  0  0  0  0  0  0
   56.3870   29.3160   45.0020 C   0  0  0  0  0  0  0  0  0  0  0  0
   55.5210   28.2510   45.2400 O   0  0  0  0  0  0  0  0  0  0  0  0
   57.6190   29.3930   45.6760 C   0  0  0  0  0  0  0  0  0  0  0  0
   57.9580   28.3580   46.6150 N   0  0  0  0  0  0  0  0  0  0  0  0
   59.5230   28.0740   47.3160 S   0  0  0  0  0  0  0  0  0  0  0  0
   59.6050   26.7110   47.9510 O   0  0  0  0  0  0  0  0  0  0  0  0
   60.5560   28.1340   46.2270 O   0  0  0  0  0  0  0  0  0  0  0  0
   59.8480   29.3450   48.4980 C   0  0  0  0  0  0  0  0  0  0  0  0
   60.9630   29.2600   49.3480 C   0  0  0  0  0  0  0  0  0  0  0  0
   61.1410   30.2030   50.3700 C   0  0  0  0  0  0  0  0  0  0  0  0
   60.2080   31.2320   50.5490 C   0  0  0  0  0  0  0  0  0  0  0  0
   59.1010   31.3280   49.7030 C   0  0  0  0  0  0  0  0  0  0  0  0
   58.9210   30.3860   48.6790 C   0  0  0  0  0  0  0  0  0  0  0  0
   58.4700   30.4850   45.4250 C   0  0  0  0  0  0  0  0  0  0  0  0
   60.8830   33.5060   46.4310 C   0  0  0  0  0  0  0  0  0  0  0  0
   61.5750   33.6130   47.6470 C   0  0  0  0  0  0  0  0  0  0  0  0
   62.9140   33.2080   47.7440 C   0  0  0  0  0  0  0  0  0  0  0  0
   63.6080   33.3210   48.9640 C   0  0  0  0  0  0  0  0  0  0  0  0
   64.9500   32.9320   49.0950 O   0  0  0  0  0  0  0  0  0  0  0  0
   65.4410   32.0540   50.0990 C   0  0  0  0  0  0  0  0  0  0  0  0
   63.7596   34.0205   53.3614 H   0  0  0  0  0  0  0  0  0  0  0  0
   62.1359   33.7179   52.6554 H   0  0  0  0  0  0  0  0  0  0  0  0
   63.3723   32.4149   52.6554 H   0  0  0  0  0  0  0  0  0  0  0  0
   61.1022   34.6641   50.8797 H   0  0  0  0  0  0  0  0  0  0  0  0
   59.0881   35.0048   49.5524 H   0  0  0  0  0  0  0  0  0  0  0  0
   57.8715   34.8236   47.3887 H   0  0  0  0  0  0  0  0  0  0  0  0
   56.5939   32.1444   43.0930 H   0  0  0  0  0  0  0  0  0  0  0  0
   55.0735   30.2172   43.5305 H   0  0  0  0  0  0  0  0  0  0  0  0
   61.6974   28.4525   49.2116 H   0  0  0  0  0  0  0  0  0  0  0  0
   62.0159   30.1345   51.0332 H   0  0  0  0  0  0  0  0  0  0  0  0
   60.3473   31.9654   51.3569 H   0  0  0  0  0  0  0  0  0  0  0  0
   58.3719   32.1403   49.8392 H   0  0  0  0  0  0  0  0  0  0  0  0
   58.0486   30.4626   48.0134 H   0  0  0  0  0  0  0  0  0  0  0  0
   59.4441   30.5461   45.9323 H   0  0  0  0  0  0  0  0  0  0  0  0
   61.3895   33.0842   45.5503 H   0  0  0  0  0  0  0  0  0  0  0  0
   63.4260   32.7990   46.8605 H   0  0  0  0  0  0  0  0  0  0  0  0
   65.2101   32.4669   51.0921 H   0  0  0  0  0  0  0  0  0  0  0  0
   64.9626   31.0694   49.9910 H   0  0  0  0  0  0  0  0  0  0  0  0
   66.5304   31.9462   49.9910 H   0  0  0  0  0  0  0  0  0  0  0  0
  1  2  1  0
  2  3  1  0
  3  4  2  0
  4  5  1  0
  5  6  2  0
  6  7  1  0
  7  8  2  0
  8  9  1  0
  9 10  2  0
  9 11  1  0
 11 12  1  0
 12 13  2  0
 13 14  1  0
 14 15  2  0
 15 16  1  0
 15 17  1  0
 17 18  1  0
 18 19  1  0
 19 20  2  0
 19 21  2  0
 19 22  1  0
 22 23  2  0
 23 24  1  0
 24 25  2  0
 25 26  1  0
 26 27  2  0
 17 28  2  0
  8 29  1  0
 29 30  2  0
 30 31  1  0
 31 32  2  0
 32 33  1  0
 33 34  1  0
 32  3  1  0
 30  5  1  0
 28 12  1  0
 27 22  1  0
  1 35  1  0
  1 36  1  0
  1 37  1  0
  4 38  1  0
  6 39  1  0
  7 40  1  0
 13 41  1  0
 14 42  1  0
 23 43  1  0
 24 44  1  0
 25 45  1  0
 26 46  1  0
 27 47  1  0
 28 48  1  0
 29 49  1  0
 31 50  1  0
 34 51  1  0
 34 52  1  0
 34 53  1  0
M  CHG  2  16  -1  18  -1
M  END
>  <UniqueID>  (20) 
19

>  <SMILES>  (20) 
COc1cc2ccc(C(=O)Oc3ccc([O-])c([N-]S(=O)(=O)c4ccccc4)c3)cc2cc1OC

>  <Energy>  (20) 
71.76448225337577

>  <Genealogy>  (20) 
COc1cc2ccc(C(=O)Oc3ccc([O-])c([N-]S(=O)(=O)c4ccccc4)c3)cc2cc1OC (protonated)
COc1cc2ccc(C(=O)Oc3ccc([O-])c([N-]S(=O)(=O)c4ccccc4)c3)cc2cc1OC (3D coordinates assigned)
COc1cc2ccc(C(=O)Oc3ccc([O-])c([N-]S(=O)(=O)c4ccccc4)c3)cc2cc1OC (optimized conformer: 71.76448225337577 kcal/mol)

>  <smiles>  (20) 
COc1cc2ccc(C(=O)Oc3ccc(O)c(NS(=O)(=O)c4ccccc4)c3)cc2cc1OC

>  <score_type>  (20) 
oracle

>  <origin>  (20) 
adg

>  <m_score__min__energy>  (20) 
-14.130000000000001

>  <m_primary>  (20) 
energy

$$$$
20:0
     RDKit          3D

 44 47  0  0  0  0  0  0  0  0999 V2000
   54.3510   26.6940   46.7560 H   0  0  0  0  0  0  0  0  0  0  0  0
   54.8540   26.3330   45.9550 O   0  0  0  0  0  0  0  0  0  0  0  0
   55.7990   25.3240   46.1060 C   0  0  0  0  0  0  0  0  0  0  0  0
   55.6050   24.2210   46.8490 N   0  0  0  0  0  0  0  0  0  0  0  0
   56.7860   23.5780   46.7370 C   0  0  0  0  0  0  0  0  0  0  0  0
   57.0160   22.4800   47.3080 O   0  0  0  0  0  0  0  0  0  0  0  0
   57.7070   24.2080   45.9750 N   0  0  0  0  0  0  0  0  0  0  0  0
   57.0590   25.3080   45.5520 C   0  0  0  0  0  0  0  0  0  0  0  0
   57.7000   26.3800   44.7760 C   0  0  0  0  0  0  0  0  0  0  0  0
   57.8307   26.2100   43.6971 H   0  0  0  0  0  0  0  0  0  0  0  0
   58.1410   27.5520   45.2720 C   0  0  0  0  0  0  0  0  0  0  0  0
   58.9620   27.6340   46.3850 C   0  0  0  0  0  0  0  0  0  0  0  0
   59.3939   26.7911   46.9445 H   0  0  0  0  0  0  0  0  0  0  0  0
   59.1340   28.9760   46.6570 C   0  0  0  0  0  0  0  0  0  0  0  0
   59.9340   29.5140   47.8050 C   0  0  0  0  0  0  0  0  0  0  0  0
   59.4706   29.2024   48.7527 H   0  0  0  0  0  0  0  0  0  0  0  0
   60.9604   29.1219   47.7523 H   0  0  0  0  0  0  0  0  0  0  0  0
   59.9580   30.6125   47.7523 H   0  0  0  0  0  0  0  0  0  0  0  0
   58.4960   29.7290   45.7340 N   0  0  0  0  0  0  0  0  0  0  0  0
   58.4640   31.1680   45.6990 C   0  0  0  0  0  0  0  0  0  0  0  0
   57.3900   31.8390   45.1030 C   0  0  0  0  0  0  0  0  0  0  0  0
   56.5640   31.2718   44.6491 H   0  0  0  0  0  0  0  0  0  0  0  0
   57.3770   33.2340   45.0900 C   0  0  0  0  0  0  0  0  0  0  0  0
   56.5347   33.7715   44.6301 H   0  0  0  0  0  0  0  0  0  0  0  0
   58.4040   33.9290   45.6450 N   0  0  0  0  0  0  0  0  0  0  0  0
   59.4730   33.3120   46.2210 C   0  0  0  0  0  0  0  0  0  0  0  0
   60.5430   34.1480   46.8060 C   0  0  0  0  0  0  0  0  0  0  0  0
   60.3890   35.3980   46.8310 O   0  0  0  0  0  0  0  0  0  0  0  0
   61.7730   33.6000   47.2940 N   0  0  0  0  0  0  0  0  0  0  0  0
   62.4910   32.3110   47.3640 C   0  0  0  0  0  0  0  0  0  0  0  0
   62.0285   31.6056   48.0700 H   0  0  0  0  0  0  0  0  0  0  0  0
   62.5345   31.7120   46.4424 H   0  0  0  0  0  0  0  0  0  0  0  0
   63.7770   32.8710   47.8700 C   0  0  0  0  0  0  0  0  0  0  0  0
   64.0748   32.5422   48.8766 H   0  0  0  0  0  0  0  0  0  0  0  0
   64.7527   32.6995   47.3919 H   0  0  0  0  0  0  0  0  0  0  0  0
   63.0340   34.1620   47.8080 C   0  0  0  0  0  0  0  0  0  0  0  0
   62.9169   34.6311   48.7961 H   0  0  0  0  0  0  0  0  0  0  0  0
   63.4927   34.9735   47.2240 H   0  0  0  0  0  0  0  0  0  0  0  0
   59.5090   31.9090   46.2660 C   0  0  0  0  0  0  0  0  0  0  0  0
   60.3547   31.3936   46.7447 H   0  0  0  0  0  0  0  0  0  0  0  0
   57.9050   28.8740   44.8590 C   0  0  0  0  0  0  0  0  0  0  0  0
   57.3370   29.2730   43.7100 C   0  0  0  0  0  0  0  0  0  0  0  0
   57.2080   30.3458   43.5037 H   0  0  0  0  0  0  0  0  0  0  0  0
   57.0006   28.5272   42.9747 H   0  0  0  0  0  0  0  0  0  0  0  0
  1  2  1  0
  2  3  1  0
  3  4  1  0
  4  5  1  0
  5  6  2  0
  5  7  1  0
  7  8  1  0
  8  9  1  0
  9 10  1  0
  9 11  2  0
 11 12  1  0
 12 13  1  0
 12 14  2  0
 14 15  1  0
 15 16  1  0
 15 17  1  0
 15 18  1  0
 14 19  1  0
 19 20  1  0
 20 21  2  0
 21 22  1  0
 21 23  1  0
 23 24  1  0
 23 25  2  0
 25 26  1  0
 26 27  1  0
 27 28  2  0
 27 29  1  0
 29 30  1  0
 30 31  1  0
 30 32  1  0
 30 33  1  0
 33 34  1  0
 33 35  1  0
 33 36  1  0
 36 37  1  0
 36 38  1  0
 26 39  2  0
 39 40  1  0
 19 41  1  0
 41 42  2  0
 42 43  1  0
 42 44  1  0
  8  3  2  0
 41 11  1  0
 39 20  1  0
 36 29  1  0
M  CHG  2   4  -1   7  -1
M  END
>  <UniqueID>  (21) 
20

>  <SMILES>  (21) 
C=c1/c(=C\c2[n-]c(=O)[n-]c2O)cc(C)n1-c1ccnc(C(=O)N2CCC2)c1

>  <Energy>  (21) 
167.58437871363506

>  <Genealogy>  (21) 
C=c1c(=Cc2[n-]c(=O)[n-]c2O)cc(C)n1-c1ccnc(C(=O)N2CCC2)c1 (protonated)
C=c1/c(=C\c2[n-]c(=O)[n-]c2O)cc(C)n1-c1ccnc(C(=O)N2CCC2)c1 (cis-trans isomerization)
C=c1/c(=C\c2[n-]c(=O)[n-]c2O)cc(C)n1-c1ccnc(C(=O)N2CCC2)c1 (3D coordinates assigned)
C=c1/c(=C\c2[n-]c(=O)[n-]c2O)cc(C)n1-c1ccnc(C(=O)N2CCC2)c1 (nonaromatic ring conformer: 167.58437871363506 kcal/mol)

>  <smiles>  (21) 
C=c1c(=Cc2[nH]c(=O)[nH]c2O)cc(C)n1-c1ccnc(C(=O)N2CCC2)c1

>  <score_type>  (21) 
oracle

>  <origin>  (21) 
adg

>  <m_score__min__energy>  (21) 
-13.529999999999999

>  <m_primary>  (21) 
energy

$$$$
21:0
     RDKit          3D

 57 62  0  0  0  0  0  0  0  0999 V2000
   57.5113   26.4482   43.9223 H   0  0  0  0  0  0  0  0  0  0  0  0
   57.3910   26.0460   44.9390 C   0  0  0  0  0  0  0  0  0  0  0  0
   58.3040   26.4000   45.8580 C   0  0  0  0  0  0  0  0  0  0  0  0
   59.3940   25.5350   46.3150 C   0  0  0  0  0  0  0  0  0  0  0  0
   59.7120   24.4360   45.7900 O   0  0  0  0  0  0  0  0  0  0  0  0
   60.0390   26.0550   47.4740 N   0  0  0  0  0  0  0  0  0  0  0  0
   59.3740   27.2950   47.6930 C   0  0  0  0  0  0  0  0  0  0  0  0
   59.7270   28.2250   48.6660 C   0  0  0  0  0  0  0  0  0  0  0  0
   60.4897   27.9888   49.4227 H   0  0  0  0  0  0  0  0  0  0  0  0
   59.0810   29.4780   48.6560 C   0  0  0  0  0  0  0  0  0  0  0  0
   59.3840   30.5290   49.6610 C   0  0  0  0  0  0  0  0  0  0  0  0
   60.0570   31.7160   49.3110 C   0  0  0  0  0  0  0  0  0  0  0  0
   60.3782   31.8744   48.2709 H   0  0  0  0  0  0  0  0  0  0  0  0
   60.3200   32.6940   50.2740 C   0  0  0  0  0  0  0  0  0  0  0  0
   60.8632   33.6071   49.9892 H   0  0  0  0  0  0  0  0  0  0  0  0
   59.8980   32.5220   51.5990 C   0  0  0  0  0  0  0  0  0  0  0  0
   60.2050   33.5340   52.5740 N   0  0  0  0  0  0  0  0  0  0  0  0
   61.2050   33.6560   52.8510 H   0  0  0  0  0  0  0  0  0  0  0  0
   59.2420   34.4620   53.0990 C   0  0  0  0  0  0  0  0  0  0  0  0
   58.1240   34.6070   52.5310 O   0  0  0  0  0  0  0  0  0  0  0  0
   59.5620   35.2590   54.2470 N   0  0  0  0  0  0  0  0  0  0  0  0
   60.5660   35.0030   55.0710 N   0  0  0  0  0  0  0  0  0  0  0  0
   60.5560   35.9490   56.0300 C   0  0  0  0  0  0  0  0  0  0  0  0
   61.2685   36.0130   56.8656 H   0  0  0  0  0  0  0  0  0  0  0  0
   59.5140   36.8260   55.8030 C   0  0  0  0  0  0  0  0  0  0  0  0
   59.2348   37.7056   56.4016 H   0  0  0  0  0  0  0  0  0  0  0  0
   58.9010   36.3570   54.6620 C   0  0  0  0  0  0  0  0  0  0  0  0
   58.0221   36.8028   54.1733 H   0  0  0  0  0  0  0  0  0  0  0  0
   59.2340   31.3370   51.9560 C   0  0  0  0  0  0  0  0  0  0  0  0
   58.9182   31.1798   52.9979 H   0  0  0  0  0  0  0  0  0  0  0  0
   58.9720   30.3560   50.9950 C   0  0  0  0  0  0  0  0  0  0  0  0
   58.4380   29.4391   51.2850 H   0  0  0  0  0  0  0  0  0  0  0  0
   58.1720   29.7490   47.6700 N   0  0  0  0  0  0  0  0  0  0  0  0
   57.8300   28.8500   46.7000 C   0  0  0  0  0  0  0  0  0  0  0  0
   57.0670   29.2060   45.7110 N   0  0  0  0  0  0  0  0  0  0  0  0
   57.4870   30.0470   44.5900 C   0  0  0  0  0  0  0  0  0  0  0  0
   58.3518   29.5825   44.0936 H   0  0  0  0  0  0  0  0  0  0  0  0
   56.6489   30.1416   43.8839 H   0  0  0  0  0  0  0  0  0  0  0  0
   57.8720   31.4190   45.0730 C   0  0  0  0  0  0  0  0  0  0  0  0
   59.1150   31.6400   45.6910 C   0  0  0  0  0  0  0  0  0  0  0  0
   59.8068   30.7991   45.8471 H   0  0  0  0  0  0  0  0  0  0  0  0
   59.4750   32.9250   46.1080 C   0  0  0  0  0  0  0  0  0  0  0  0
   60.4495   33.0928   46.5899 H   0  0  0  0  0  0  0  0  0  0  0  0
   58.6000   33.9960   45.9140 C   0  0  0  0  0  0  0  0  0  0  0  0
   58.8850   35.0055   46.2453 H   0  0  0  0  0  0  0  0  0  0  0  0
   57.3620   33.7860   45.2990 C   0  0  0  0  0  0  0  0  0  0  0  0
   56.5140   34.8270   45.1100 F   0  0  0  0  0  0  0  0  0  0  0  0
   56.9990   32.5020   44.8770 C   0  0  0  0  0  0  0  0  0  0  0  0
   56.0261   32.3401   44.3898 H   0  0  0  0  0  0  0  0  0  0  0  0
   58.3850   27.5630   46.7610 C   0  0  0  0  0  0  0  0  0  0  0  0
   56.2430   25.1620   45.1880 C   0  0  0  0  0  0  0  0  0  0  0  0
   55.2260   25.4810   46.0060 N   0  0  0  0  0  0  0  0  0  0  0  0
   54.3480   24.4710   45.8350 C   0  0  0  0  0  0  0  0  0  0  0  0
   53.3968   24.4022   46.3832 H   0  0  0  0  0  0  0  0  0  0  0  0
   54.7450   23.5530   44.9290 N   0  0  0  0  0  0  0  0  0  0  0  0
   55.9400   24.0020   44.5110 C   0  0  0  0  0  0  0  0  0  0  0  0
   56.5736   23.5211   43.7512 H   0  0  0  0  0  0  0  0  0  0  0  0
  1  2  1  0
  2  3  2  0
  3  4  1  0
  4  5  2  0
  4  6  1  0
  6  7  1  0
  7  8  1  0
  8  9  1  0
  8 10  2  0
 10 11  1  0
 11 12  2  0
 12 13  1  0
 12 14  1  0
 14 15  1  0
 14 16  2  0
 16 17  1  0
 17 18  1  0
 17 19  1  0
 19 20  2  0
 19 21  1  0
 21 22  1  0
 22 23  2  0
 23 24  1  0
 23 25  1  0
 25 26  1  0
 25 27  2  0
 27 28  1  0
 16 29  1  0
 29 30  1  0
 29 31  2  0
 31 32  1  0
 10 33  1  0
 33 34  1  0
 34 35  2  3
 35 36  1  0
 36 37  1  0
 36 38  1  0
 36 39  1  0
 39 40  2  0
 40 41  1  0
 40 42  1  0
 42 43  1  0
 42 44  2  0
 44 45  1  0
 44 46  1  0
 46 47  1  0
 46 48  2  0
 48 49  1  0
 34 50  1  0
  2 51  1  0
 51 52  1  0
 52 53  2  0
 53 54  1  0
 53 55  1  0
 55 56  1  0
 56 57  1  0
 50  3  1  0
 56 51  2  0
 50  7  2  0
 31 11  1  0
 48 39  1  0
 27 21  1  0
M  CHG  3   6  -1  33  -1  55  -1
M  END
>  <UniqueID>  (22) 
21

>  <SMILES>  (22) 
O=C1[N-]c2cc(-c3ccc(NC(=O)n4cccn4)cc3)[n-]c(=NCc3cccc(F)c3)c2/C1=C\c1c[n-]cn1

>  <Energy>  (22) 
168.08259007718416

>  <Genealogy>  (22) 
O=C1[N-]c2cc(-c3ccc(NC(=O)n4cccn4)cc3)[n-]c(=NCc3cccc(F)c3)c2C1=Cc1c[n-]cn1 (protonated)
O=C1[N-]c2cc(-c3ccc(NC(=O)n4cccn4)cc3)[n-]c(=NCc3cccc(F)c3)c2/C1=C\c1c[n-]cn1 (cis-trans isomerization)
O=C1[N-]c2cc(-c3ccc(NC(=O)n4cccn4)cc3)[n-]c(=NCc3cccc(F)c3)c2/C1=C\c1c[n-]cn1 (3D coordinates assigned)
O=C1[N-]c2cc(-c3ccc(NC(=O)n4cccn4)cc3)[n-]c(=NCc3cccc(F)c3)c2/C1=C\c1c[n-]cn1 (nonaromatic ring conformer: 168.08259007718416 kcal/mol)

>  <smiles>  (22) 
O=C1Nc2cc(-c3ccc(NC(=O)n4cccn4)cc3)[nH]c(=NCc3cccc(F)c3)c2C1=Cc1c[nH]cn1

>  <score_type>  (22) 
oracle

>  <origin>  (22) 
adg

>  <m_score__min__energy>  (22) 
-13.369999999999999

>  <m_primary>  (22) 
energy

$$$$
22:0
     RDKit          3D

 53 57  0  0  0  0  0  0  0  0999 V2000
   51.7239   22.8716   45.5204 H   0  0  0  0  0  0  0  0  0  0  0  0
   52.6980   23.2960   45.8050 C   0  0  0  0  0  0  0  0  0  0  0  0
   53.3516   22.7530   46.5036 H   0  0  0  0  0  0  0  0  0  0  0  0
   53.0860   24.4670   45.3040 C   0  0  0  0  0  0  0  0  0  0  0  0
   52.4141   24.9899   44.6075 H   0  0  0  0  0  0  0  0  0  0  0  0
   54.3150   25.0630   45.6260 O   0  0  0  0  0  0  0  0  0  0  0  0
   55.5810   24.5940   45.2390 C   0  0  0  0  0  0  0  0  0  0  0  0
   55.7190   23.4790   44.3900 C   0  0  0  0  0  0  0  0  0  0  0  0
   54.8223   22.9764   43.9983 H   0  0  0  0  0  0  0  0  0  0  0  0
   56.9860   23.0070   44.0420 C   0  0  0  0  0  0  0  0  0  0  0  0
   57.0844   22.1435   43.3677 H   0  0  0  0  0  0  0  0  0  0  0  0
   58.1290   23.6300   44.5490 C   0  0  0  0  0  0  0  0  0  0  0  0
   59.1265   23.2575   44.2727 H   0  0  0  0  0  0  0  0  0  0  0  0
   58.0060   24.7250   45.4060 C   0  0  0  0  0  0  0  0  0  0  0  0
   58.9085   25.2043   45.8131 H   0  0  0  0  0  0  0  0  0  0  0  0
   56.7370   25.2190   45.7520 C   0  0  0  0  0  0  0  0  0  0  0  0
   56.6200   26.3820   46.6990 C   0  0  0  0  0  0  0  0  0  0  0  0
   55.6252   26.8401   46.5964 H   0  0  0  0  0  0  0  0  0  0  0  0
   56.7557   26.0296   47.7322 H   0  0  0  0  0  0  0  0  0  0  0  0
   57.6470   27.3710   46.3820 N   0  0  0  0  0  0  0  0  0  0  0  0
   57.3990   28.5240   45.8380 C   0  0  0  0  0  0  0  0  0  0  0  0
   58.0950   29.6340   46.2080 N   0  0  0  0  0  0  0  0  0  0  0  0
   57.8580   30.8560   45.6540 C   0  0  0  0  0  0  0  0  0  0  0  0
   58.6950   32.0410   46.1370 C   0  0  1  0  0  0  0  0  0  0  0  0
   58.0320   32.6450   47.4080 C   0  0  0  0  0  0  0  0  0  0  0  0
   57.9388   31.8619   48.1749 H   0  0  0  0  0  0  0  0  0  0  0  0
   57.0381   33.0336   47.1411 H   0  0  0  0  0  0  0  0  0  0  0  0
   58.8890   33.8030   47.9650 C   0  0  2  0  0  0  0  0  0  0  0  0
   58.4073   34.2167   48.8633 H   0  0  0  0  0  0  0  0  0  0  0  0
   59.0180   34.9090   46.8970 C   0  0  0  0  0  0  0  0  0  0  0  0
   59.6260   35.7344   47.2959 H   0  0  0  0  0  0  0  0  0  0  0  0
   58.0173   35.2830   46.6348 H   0  0  0  0  0  0  0  0  0  0  0  0
   59.6970   34.3330   45.6370 C   0  0  1  0  0  0  0  0  0  0  0  0
   59.7904   35.1232   44.8775 H   0  0  0  0  0  0  0  0  0  0  0  0
   61.1000   33.8050   46.0020 C   0  0  0  0  0  0  0  0  0  0  0  0
   61.7095   34.6293   46.4008 H   0  0  0  0  0  0  0  0  0  0  0  0
   61.5821   33.3938   45.1028 H   0  0  0  0  0  0  0  0  0  0  0  0
   60.9720   32.6970   47.0690 C   0  0  1  0  0  0  0  0  0  0  0  0
   61.9728   32.3224   47.3299 H   0  0  0  0  0  0  0  0  0  0  0  0
   60.2930   33.2730   48.3300 C   0  0  0  0  0  0  0  0  0  0  0  0
   60.9026   34.0964   48.7305 H   0  0  0  0  0  0  0  0  0  0  0  0
   60.1994   32.4820   49.0886 H   0  0  0  0  0  0  0  0  0  0  0  0
   60.1190   31.5380   46.5090 C   0  0  0  0  0  0  0  0  0  0  0  0
   60.0367   30.7483   47.2703 H   0  0  0  0  0  0  0  0  0  0  0  0
   60.6047   31.1431   45.6045 H   0  0  0  0  0  0  0  0  0  0  0  0
   58.8410   33.1760   45.0760 C   0  0  0  0  0  0  0  0  0  0  0  0
   57.8431   33.5577   44.8143 H   0  0  0  0  0  0  0  0  0  0  0  0
   59.3363   32.7671   44.1830 H   0  0  0  0  0  0  0  0  0  0  0  0
   56.8570   30.9590   44.6670 C   0  0  0  0  0  0  0  0  0  0  0  0
   56.6341   31.9272   44.1948 H   0  0  0  0  0  0  0  0  0  0  0  0
   56.1530   29.8100   44.2990 C   0  0  0  0  0  0  0  0  0  0  0  0
   55.2550   29.8740   43.4200 O   0  0  0  0  0  0  0  0  0  0  0  0
   56.4360   28.6210   44.8880 N   0  0  0  0  0  0  0  0  0  0  0  0
  1  2  1  0
  2  3  1  0
  2  4  2  0
  4  5  1  0
  4  6  1  0
  6  7  1  0
  7  8  2  0
  8  9  1  0
  8 10  1  0
 10 11  1  0
 10 12  2  0
 12 13  1  0
 12 14  1  0
 14 15  1  0
 14 16  2  0
 16 17  1  0
 17 18  1  0
 17 19  1  0
 17 20  1  0
 20 21  2  0
 21 22  1  0
 22 23  1  0
 24 23  1  6
 24 25  1  0
 25 26  1  0
 25 27  1  0
 25 28  1  0
 28 29  1  1
 28 30  1  0
 30 31  1  0
 30 32  1  0
 30 33  1  0
 33 34  1  6
 33 35  1  0
 35 36  1  0
 35 37  1  0
 35 38  1  0
 38 39  1  1
 38 40  1  0
 40 41  1  0
 40 42  1  0
 38 43  1  0
 43 44  1  0
 43 45  1  0
 33 46  1  0
 46 47  1  0
 46 48  1  0
 23 49  2  0
 49 50  1  0
 49 51  1  0
 51 52  2  0
 51 53  1  0
 16  7  1  0
 53 21  1  0
 43 24  1  0
 46 24  1  0
 40 28  1  0
M  CHG  2  22  -1  53  -1
M  END
>  <UniqueID>  (23) 
22

>  <SMILES>  (23) 
C=COc1ccccc1C/N=c1\[n-]c(C23CC4CC(CC(C4)C2)C3)cc(=O)[n-]1

>  <Energy>  (23) 
63.82670871169994

>  <Genealogy>  (23) 
C=COc1ccccc1CN=c1[n-]c(C23CC4CC(CC(C4)C2)C3)cc(=O)[n-]1 (protonated)
C=COc1ccccc1C/N=c1\[n-]c(C23CC4CC(CC(C4)C2)C3)cc(=O)[n-]1 (cis-trans isomerization)
C=COc1ccccc1C/N=c1\[n-]c(C23CC4CC(CC(C4)C2)C3)cc(=O)[n-]1 (3D coordinates assigned)
C=COc1ccccc1C/N=c1\[n-]c(C23CC4CC(CC(C4)C2)C3)cc(=O)[n-]1 (nonaromatic ring conformer: 63.82670871169994 kcal/mol)

>  <smiles>  (23) 
C=COc1ccccc1CN=c1[nH]c(C23CC4CC(CC(C4)C2)C3)cc(=O)[nH]1

>  <score_type>  (23) 
oracle

>  <origin>  (23) 
adg

>  <m_score__min__energy>  (23) 
-11.99

>  <m_primary>  (23) 
energy

$$$$
23:0
     RDKit          3D

 42 44  0  0  0  0  0  0  0  0999 V2000
   59.1905   27.4243   43.1978 H   0  0  0  0  0  0  0  0  0  0  0  0
   59.2050   27.7760   44.2400 C   0  0  0  0  0  0  0  0  0  0  0  0
   59.8850   28.9520   44.5720 C   0  0  0  0  0  0  0  0  0  0  0  0
   60.4188   29.5165   43.7933 H   0  0  0  0  0  0  0  0  0  0  0  0
   59.8870   29.4110   45.8930 C   0  0  0  0  0  0  0  0  0  0  0  0
   60.4354   30.3286   46.1525 H   0  0  0  0  0  0  0  0  0  0  0  0
   59.1900   28.7040   46.8940 C   0  0  0  0  0  0  0  0  0  0  0  0
   59.1700   29.1860   48.3230 C   0  0  0  0  0  0  0  0  0  0  0  0
   60.2039   29.2770   48.6875 H   0  0  0  0  0  0  0  0  0  0  0  0
   58.6119   28.4599   48.9324 H   0  0  0  0  0  0  0  0  0  0  0  0
   58.5270   30.4540   48.4200 O   0  0  0  0  0  0  0  0  0  0  0  0
   58.6190   31.3250   49.5170 C   0  0  0  0  0  0  0  0  0  0  0  0
   57.9990   31.0420   50.7500 C   0  0  0  0  0  0  0  0  0  0  0  0
   57.4409   30.1029   50.8787 H   0  0  0  0  0  0  0  0  0  0  0  0
   58.0890   31.9480   51.8110 C   0  0  0  0  0  0  0  0  0  0  0  0
   57.6009   31.7205   52.7702 H   0  0  0  0  0  0  0  0  0  0  0  0
   58.7980   33.1420   51.6550 C   0  0  0  0  0  0  0  0  0  0  0  0
   58.9050   34.2790   52.9880 Cl  0  0  0  0  0  0  0  0  0  0  0  0
   59.4280   33.4280   50.4400 C   0  0  0  0  0  0  0  0  0  0  0  0
   59.9866   34.3682   50.3220 H   0  0  0  0  0  0  0  0  0  0  0  0
   59.3520   32.5220   49.3690 C   0  0  0  0  0  0  0  0  0  0  0  0
   60.0560   32.8270   48.0690 C   0  0  0  0  0  0  0  0  0  0  0  0
   60.8870   32.1188   47.9351 H   0  0  0  0  0  0  0  0  0  0  0  0
   60.4325   33.8598   48.1082 H   0  0  0  0  0  0  0  0  0  0  0  0
   59.1390   32.7080   46.9360 N   0  0  0  0  0  0  0  0  0  0  0  0
   58.6420   31.8050   46.7690 H   0  0  0  0  0  0  0  0  0  0  0  0
   58.8310   33.8420   46.1110 C   0  0  0  0  0  0  0  0  0  0  0  0
   59.1570   34.9990   46.4910 O   0  0  0  0  0  0  0  0  0  0  0  0
   58.1040   33.7010   44.8820 N   0  0  0  0  0  0  0  0  0  0  0  0
   57.6460   32.5890   44.3920 C   0  0  0  0  0  0  0  0  0  0  0  0
   57.0830   31.5890   45.1050 N   0  0  0  0  0  0  0  0  0  0  0  0
   56.7670   30.5280   44.2970 C   0  0  0  0  0  0  0  0  0  0  0  0
   56.1510   29.2880   44.8480 C   0  0  0  0  0  0  0  0  0  0  0  0
   56.1700   29.3263   45.9472 H   0  0  0  0  0  0  0  0  0  0  0  0
   55.1098   29.2108   44.5018 H   0  0  0  0  0  0  0  0  0  0  0  0
   56.7185   28.4116   44.5018 H   0  0  0  0  0  0  0  0  0  0  0  0
   57.0800   30.6310   42.9730 N   0  0  0  0  0  0  0  0  0  0  0  0
   57.7660   32.1340   42.8040 S   0  0  0  0  0  0  0  0  0  0  0  0
   58.5480   27.4960   46.5570 C   0  0  0  0  0  0  0  0  0  0  0  0
   57.9130   26.7590   47.5090 F   0  0  0  0  0  0  0  0  0  0  0  0
   58.5450   27.0490   45.2310 C   0  0  0  0  0  0  0  0  0  0  0  0
   58.0192   26.1191   44.9685 H   0  0  0  0  0  0  0  0  0  0  0  0
  1  2  1  0
  2  3  2  0
  3  4  1  0
  3  5  1  0
  5  6  1  0
  5  7  2  0
  7  8  1  0
  8  9  1  0
  8 10  1  0
  8 11  1  0
 11 12  1  0
 12 13  2  0
 13 14  1  0
 13 15  1  0
 15 16  1  0
 15 17  2  0
 17 18  1  0
 17 19  1  0
 19 20  1  0
 19 21  2  0
 21 22  1  0
 22 23  1  0
 22 24  1  0
 22 25  1  0
 25 26  1  0
 25 27  1  0
 27 28  2  0
 27 29  1  0
 29 30  2  0
 30 31  1  0
 31 32  2  0
 32 33  1  0
 33 34  1  0
 33 35  1  0
 33 36  1  0
 32 37  1  0
 37 38  1  0
  7 39  1  0
 39 40  1  0
 39 41  2  0
 41 42  1  0
 41  2  1  0
 21 12  1  0
 38 30  1  0
M  CHG  1  37  -1
M  END
>  <UniqueID>  (24) 
23

>  <SMILES>  (24) 
Cc1n/c(=N\C(=O)NCc2cc(Cl)ccc2OCc2ccccc2F)s[n-]1

>  <Energy>  (24) 
79.04491807009651

>  <Genealogy>  (24) 
Cc1nc(=NC(=O)NCc2cc(Cl)ccc2OCc2ccccc2F)s[n-]1 (protonated)
Cc1n/c(=N\C(=O)NCc2cc(Cl)ccc2OCc2ccccc2F)s[n-]1 (cis-trans isomerization)
Cc1n/c(=N\C(=O)NCc2cc(Cl)ccc2OCc2ccccc2F)s[n-]1 (3D coordinates assigned)
Cc1n/c(=N\C(=O)NCc2cc(Cl)ccc2OCc2ccccc2F)s[n-]1 (optimized conformer: 79.04491807009651 kcal/mol)

>  <smiles>  (24) 
Cc1nc(=NC(=O)NCc2cc(Cl)ccc2OCc2ccccc2F)s[nH]1

>  <score_type>  (24) 
oracle

>  <origin>  (24) 
adg

>  <m_score__min__energy>  (24) 
-9.4100000000000001

>  <m_primary>  (24) 
energy

$$$$
24:0
     RDKit          3D

 52 55  0  0  0  0  0  0  0  0999 V2000
   54.8080   26.1040   45.2380 H   0  0  0  0  0  0  0  0  0  0  0  0
   55.5210   26.4450   45.9220 N   0  0  0  0  0  0  0  0  0  0  0  0
   56.2800   27.4660   45.6850 C   0  0  0  0  0  0  0  0  0  0  0  0
   55.7370   28.5930   45.1520 N   0  0  0  0  0  0  0  0  0  0  0  0
   56.4840   29.6960   44.8830 C   0  0  0  0  0  0  0  0  0  0  0  0
   56.0063   30.5855   44.4463 H   0  0  0  0  0  0  0  0  0  0  0  0
   57.8600   29.7090   45.1580 C   0  0  0  0  0  0  0  0  0  0  0  0
   58.6750   30.9390   44.7980 C   0  0  1  0  0  0  0  0  0  0  0  0
   59.3902   30.5150   44.0777 H   0  0  0  0  0  0  0  0  0  0  0  0
   57.8470   32.0740   44.2750 C   0  0  0  0  0  0  0  0  0  0  0  0
   57.3720   32.1170   43.1090 O   0  0  0  0  0  0  0  0  0  0  0  0
   57.6800   33.1280   45.2230 N   0  0  0  0  0  0  0  0  0  0  0  0
   57.4880   34.5290   44.8570 C   0  0  0  0  0  0  0  0  0  0  0  0
   57.4045   35.1381   45.7691 H   0  0  0  0  0  0  0  0  0  0  0  0
   58.3473   34.8739   44.2631 H   0  0  0  0  0  0  0  0  0  0  0  0
   56.5676   34.6300   44.2631 H   0  0  0  0  0  0  0  0  0  0  0  0
   58.2770   32.6490   46.4650 C   0  0  2  0  0  0  0  0  0  0  0  0
   57.4566   32.2725   47.0937 H   0  0  0  0  0  0  0  0  0  0  0  0
   58.9500   33.6670   47.3820 C   0  0  0  0  0  0  0  0  0  0  0  0
   59.7579   34.1808   46.8405 H   0  0  0  0  0  0  0  0  0  0  0  0
   58.2218   34.4200   47.7177 H   0  0  0  0  0  0  0  0  0  0  0  0
   59.5350   32.9010   48.5990 C   0  0  0  0  0  0  0  0  0  0  0  0
   60.1323   33.6062   49.1957 H   0  0  0  0  0  0  0  0  0  0  0  0
   58.6792   32.4903   49.1548 H   0  0  0  0  0  0  0  0  0  0  0  0
   60.4040   31.7440   48.2340 N   0  0  0  0  0  0  0  0  0  0  0  0
   61.7740   32.1620   47.8630 C   0  0  0  0  0  0  0  0  0  0  0  0
   62.0988   31.5977   46.9764 H   0  0  0  0  0  0  0  0  0  0  0  0
   61.7738   33.2396   47.6420 H   0  0  0  0  0  0  0  0  0  0  0  0
   62.7230   31.8930   48.9990 C   0  0  0  0  0  0  0  0  0  0  0  0
   62.4520   30.8580   49.9080 C   0  0  0  0  0  0  0  0  0  0  0  0
   61.5486   30.2428   49.7838 H   0  0  0  0  0  0  0  0  0  0  0  0
   63.3240   30.6060   50.9690 C   0  0  0  0  0  0  0  0  0  0  0  0
   63.1098   29.7882   51.6728 H   0  0  0  0  0  0  0  0  0  0  0  0
   64.4680   31.3900   51.1390 C   0  0  0  0  0  0  0  0  0  0  0  0
   65.1562   31.1821   51.9715 H   0  0  0  0  0  0  0  0  0  0  0  0
   64.7420   32.4420   50.2510 C   0  0  0  0  0  0  0  0  0  0  0  0
   65.9880   33.2660   50.4140 C   0  0  0  0  0  0  0  0  0  0  0  0
   65.8193   34.2679   49.9924 H   0  0  0  0  0  0  0  0  0  0  0  0
   66.2292   33.3459   51.4843 H   0  0  0  0  0  0  0  0  0  0  0  0
   67.0590   32.6570   49.7470 O   0  0  0  0  0  0  0  0  0  0  0  0
   66.8450   32.6890   48.7790 H   0  0  0  0  0  0  0  0  0  0  0  0
   63.8730   32.6810   49.1750 C   0  0  0  0  0  0  0  0  0  0  0  0
   64.0938   33.4911   48.4643 H   0  0  0  0  0  0  0  0  0  0  0  0
   59.7880   30.8330   47.2320 C   0  0  0  0  0  0  0  0  0  0  0  0
   60.5312   30.0877   46.9123 H   0  0  0  0  0  0  0  0  0  0  0  0
   58.9238   30.3275   47.6877 H   0  0  0  0  0  0  0  0  0  0  0  0
   59.3160   31.6340   46.0130 C   0  0  1  0  0  0  0  0  0  0  0  0
   60.2820   32.0083   45.6431 H   0  0  0  0  0  0  0  0  0  0  0  0
   58.4410   28.5450   45.6960 C   0  0  0  0  0  0  0  0  0  0  0  0
   59.5206   28.5178   45.9052 H   0  0  0  0  0  0  0  0  0  0  0  0
   57.6520   27.4250   45.9650 C   0  0  0  0  0  0  0  0  0  0  0  0
   58.1039   26.5181   46.3932 H   0  0  0  0  0  0  0  0  0  0  0  0
  1  2  1  0
  2  3  2  0
  3  4  1  0
  4  5  1  0
  5  6  1  0
  5  7  2  0
  7  8  1  0
  8  9  1  6
  8 10  1  0
 10 11  2  0
 10 12  1  0
 12 13  1  0
 13 14  1  0
 13 15  1  0
 13 16  1  0
 12 17  1  0
 17 18  1  1
 17 19  1  0
 19 20  1  0
 19 21  1  0
 19 22  1  0
 22 23  1  0
 22 24  1  0
 22 25  1  0
 25 26  1  0
 26 27  1  0
 26 28  1  0
 26 29  1  0
 29 30  2  0
 30 31  1  0
 30 32  1  0
 32 33  1  0
 32 34  2  0
 34 35  1  0
 34 36  1  0
 36 37  1  0
 37 38  1  0
 37 39  1  0
 37 40  1  0
 40 41  1  0
 36 42  2  0
 42 43  1  0
 25 44  1  0
 44 45  1  0
 44 46  1  0
 44 47  1  0
 47 48  1  6
  7 49  1  0
 49 50  1  0
 49 51  2  0
 51 52  1  0
 51  3  1  0
 47  8  1  0
 47 17  1  0
 42 29  1  0
M  CHG  1   4  -1
M  END
>  <UniqueID>  (25) 
24

>  <SMILES>  (25) 
[H]/N=c1\ccc([C@H]2C(=O)N(C)C3CCN(Cc4cccc(CO)c4)C[C@H]32)c[n-]1

>  <Energy>  (25) 
79.21486558448335

>  <Genealogy>  (25) 
CN1C(=O)C(c2ccc(=N)[n-]c2)C2CN(Cc3cccc(CO)c3)CCC21 (protonated)
CN1C(=O)[C@H](c2ccc(=N)[n-]c2)[C@@H]2CN(Cc3cccc(CO)c3)CCC21 (chirality)
[H]/N=c1\ccc([C@H]2C(=O)N(C)C3CCN(Cc4cccc(CO)c4)C[C@H]32)c[n-]1 (cis-trans isomerization)
[H]/N=c1\ccc([C@H]2C(=O)N(C)C3CCN(Cc4cccc(CO)c4)C[C@H]32)c[n-]1 (3D coordinates assigned)
[H]/N=c1\ccc([C@H]2C(=O)N(C)C3CCN(Cc4cccc(CO)c4)C[C@H]32)c[n-]1 (nonaromatic ring conformer: 79.21486558448335 kcal/mol)

>  <smiles>  (25) 
CN1C(=O)C(c2ccc(=N)[nH]c2)C2CN(Cc3cccc(CO)c3)CCC21

>  <score_type>  (25) 
oracle

>  <origin>  (25) 
adg

>  <m_score__min__energy>  (25) 
-10.720000000000001

>  <m_primary>  (25) 
energy

$$$$
25:0
     RDKit          3D

 60 64  0  0  0  0  0  0  0  0999 V2000
   58.2090   32.3330   48.0640 C   0  0  0  0  0  0  0  0  0  0  0  0
   59.3830   32.7480   47.1730 C   0  0  2  0  0  0  0  0  0  0  0  0
   60.0940   34.0260   47.7310 C   0  0  1  0  0  0  0  0  0  0  0  0
   61.5260   33.7420   48.1350 C   0  0  0  0  0  0  0  0  0  0  0  0
   62.4220   33.0690   47.2750 C   0  0  0  0  0  0  0  0  0  0  0  0
   63.7290   32.7960   47.6920 C   0  0  0  0  0  0  0  0  0  0  0  0
   64.1510   33.1760   48.9690 C   0  0  0  0  0  0  0  0  0  0  0  0
   63.2650   33.8300   49.8330 C   0  0  0  0  0  0  0  0  0  0  0  0
   61.9600   34.1130   49.4190 C   0  0  0  0  0  0  0  0  0  0  0  0
   60.0280   34.9810   46.6780 O   0  0  0  0  0  0  0  0  0  0  0  0
   59.3670   34.4410   45.6000 C   0  0  0  0  0  0  0  0  0  0  0  0
   59.2000   35.0640   44.5190 O   0  0  0  0  0  0  0  0  0  0  0  0
   58.9180   33.1170   45.8330 N   0  0  0  0  0  0  0  0  0  0  0  0
   58.5310   32.1640   44.7840 C   0  0  0  0  0  0  0  0  0  0  0  0
   58.7120   30.7350   45.2570 C   0  0  0  0  0  0  0  0  0  0  0  0
   59.9850   30.3350   45.7040 C   0  0  0  0  0  0  0  0  0  0  0  0
   60.1910   29.0650   46.2450 C   0  0  0  0  0  0  0  0  0  0  0  0
   59.1300   28.1590   46.3400 C   0  0  0  0  0  0  0  0  0  0  0  0
   59.3610   26.8140   46.9010 C   0  0  0  0  0  0  0  0  0  0  0  0
   60.4690   26.2490   46.6980 O   0  0  0  0  0  0  0  0  0  0  0  0
   58.3500   26.1110   47.6350 N   0  0  0  0  0  0  0  0  0  0  0  0
   57.8540   24.7690   47.3250 C   0  0  0  0  0  0  0  0  0  0  0  0
   56.3200   24.8070   47.1230 C   0  0  0  0  0  0  0  0  0  0  0  0
   56.1220   24.2980   45.7450 C   0  0  0  0  0  0  0  0  0  0  0  0
   54.9020   24.1290   45.0820 C   0  0  0  0  0  0  0  0  0  0  0  0
   54.9140   23.6490   43.7620 C   0  0  0  0  0  0  0  0  0  0  0  0
   56.1340   23.3420   43.1290 C   0  0  0  0  0  0  0  0  0  0  0  0
   57.3460   23.5140   43.8170 C   0  0  0  0  0  0  0  0  0  0  0  0
   57.3110   23.9950   45.1290 C   0  0  0  0  0  0  0  0  0  0  0  0
   58.4750   24.2460   46.0080 C   0  0  0  0  0  0  0  0  0  0  0  0
   57.8530   28.5460   45.9140 C   0  0  0  0  0  0  0  0  0  0  0  0
   57.6320   29.8130   45.3450 C   0  0  0  0  0  0  0  0  0  0  0  0
   56.2760   30.1090   44.8380 C   0  0  0  0  0  0  0  0  0  0  0  0
   55.2690   29.0960   44.8580 N   0  0  0  0  0  0  0  0  0  0  0  0
   56.0180   31.2320   44.3270 O   0  0  0  0  0  0  0  0  0  0  0  0
   58.4969   32.4348   49.1208 H   0  0  0  0  0  0  0  0  0  0  0  0
   57.3440   32.9798   47.8557 H   0  0  0  0  0  0  0  0  0  0  0  0
   57.9427   31.2863   47.8557 H   0  0  0  0  0  0  0  0  0  0  0  0
   60.0647   31.8851   47.1469 H   0  0  0  0  0  0  0  0  0  0  0  0
   59.6040   34.3927   48.6450 H   0  0  0  0  0  0  0  0  0  0  0  0
   62.0906   32.7583   46.2732 H   0  0  0  0  0  0  0  0  0  0  0  0
   64.4257   32.2815   47.0138 H   0  0  0  0  0  0  0  0  0  0  0  0
   65.1794   32.9611   49.2951 H   0  0  0  0  0  0  0  0  0  0  0  0
   63.5964   34.1221   50.8404 H   0  0  0  0  0  0  0  0  0  0  0  0
   61.2692   34.6289   50.1021 H   0  0  0  0  0  0  0  0  0  0  0  0
   57.4748   32.3257   44.5225 H   0  0  0  0  0  0  0  0  0  0  0  0
   59.1737   32.3276   43.9064 H   0  0  0  0  0  0  0  0  0  0  0  0
   60.8307   31.0340   45.6258 H   0  0  0  0  0  0  0  0  0  0  0  0
   61.1918   28.7756   46.5980 H   0  0  0  0  0  0  0  0  0  0  0  0
   58.1274   24.1119   48.1638 H   0  0  0  0  0  0  0  0  0  0  0  0
   55.8140   24.1597   47.8544 H   0  0  0  0  0  0  0  0  0  0  0  0
   55.9012   25.8143   47.2643 H   0  0  0  0  0  0  0  0  0  0  0  0
   53.9527   24.3671   45.5840 H   0  0  0  0  0  0  0  0  0  0  0  0
   53.9664   23.5123   43.2204 H   0  0  0  0  0  0  0  0  0  0  0  0
   56.1375   22.9672   42.0948 H   0  0  0  0  0  0  0  0  0  0  0  0
   58.3044   23.2749   43.3329 H   0  0  0  0  0  0  0  0  0  0  0  0
   59.0375   23.3173   46.1843 H   0  0  0  0  0  0  0  0  0  0  0  0
   59.1881   24.9585   45.5677 H   0  0  0  0  0  0  0  0  0  0  0  0
   57.0101   27.8482   46.0262 H   0  0  0  0  0  0  0  0  0  0  0  0
   54.2550   29.3440   44.8070 H   0  0  0  0  0  0  0  0  0  0  0  0
  1  2  1  0
  2  3  1  0
  3  4  1  0
  4  5  2  0
  5  6  1  0
  6  7  2  0
  7  8  1  0
  8  9  2  0
  3 10  1  0
 10 11  1  0
 11 12  2  0
 11 13  1  0
 13 14  1  0
 14 15  1  0
 15 16  2  0
 16 17  1  0
 17 18  2  0
 18 19  1  0
 19 20  2  0
 19 21  1  0
 21 22  1  0
 22 23  1  0
 23 24  1  0
 24 25  2  0
 25 26  1  0
 26 27  2  0
 27 28  1  0
 28 29  2  0
 29 30  1  0
 18 31  1  0
 31 32  2  0
 32 33  1  0
 33 34  1  0
 33 35  2  0
 13  2  1  0
 32 15  1  0
  9  4  1  0
 30 22  1  0
 29 24  1  0
  1 36  1  0
  1 37  1  0
  1 38  1  0
  2 39  1  6
  3 40  1  1
  5 41  1  0
  6 42  1  0
  7 43  1  0
  8 44  1  0
  9 45  1  0
 14 46  1  0
 14 47  1  0
 16 48  1  0
 17 49  1  0
 22 50  1  0
 23 51  1  0
 23 52  1  0
 25 53  1  0
 26 54  1  0
 27 55  1  0
 28 56  1  0
 30 57  1  0
 30 58  1  0
 31 59  1  0
 34 60  1  0
M  CHG  2  21  -1  34  -1
M  END
>  <UniqueID>  (26) 
25

>  <SMILES>  (26) 
C[C@@H]1[C@@H](c2ccccc2)OC(=O)N1Cc1ccc(C(=O)[N-]C2Cc3ccccc3C2)cc1C([NH-])=O

>  <Energy>  (26) 
98.53092559702141

>  <Genealogy>  (26) 
CC1C(c2ccccc2)OC(=O)N1Cc1ccc(C(=O)[N-]C2Cc3ccccc3C2)cc1C([NH-])=O (protonated)
C[C@@H]1[C@@H](c2ccccc2)OC(=O)N1Cc1ccc(C(=O)[N-]C2Cc3ccccc3C2)cc1C([NH-])=O (chirality)
C[C@@H]1[C@@H](c2ccccc2)OC(=O)N1Cc1ccc(C(=O)[N-]C2Cc3ccccc3C2)cc1C([NH-])=O (3D coordinates assigned)
C[C@@H]1[C@@H](c2ccccc2)OC(=O)N1Cc1ccc(C(=O)[N-]C2Cc3ccccc3C2)cc1C([NH-])=O (nonaromatic ring conformer: 98.53092559702141 kcal/mol)

>  <smiles>  (26) 
CC1C(c2ccccc2)OC(=O)N1Cc1ccc(C(=O)NC2Cc3ccccc3C2)cc1C(N)=O

>  <score_type>  (26) 
oracle

>  <origin>  (26) 
adg

>  <m_score__min__energy>  (26) 
-15.01

>  <m_primary>  (26) 
energy

$$$$
26:0
     RDKit          3D

 48 50  0  0  0  0  0  0  0  0999 V2000
   60.0930   27.4390   45.8450 O   0  0  0  0  0  0  0  0  0  0  0  0
   59.5250   28.5630   45.8010 C   0  0  0  0  0  0  0  0  0  0  0  0
   58.4350   28.7850   44.7820 C   0  0  0  0  0  0  0  0  0  0  0  0
   57.5840   27.6000   44.6490 N   0  0  0  0  0  0  0  0  0  0  0  0
   57.1940   26.7990   45.7760 C   0  0  0  0  0  0  0  0  0  0  0  0
   57.4320   27.2000   46.9470 O   0  0  0  0  0  0  0  0  0  0  0  0
   56.5810   25.4690   45.5790 C   0  0  0  0  0  0  0  0  0  0  0  0
   57.4080   24.3660   45.3040 C   0  0  0  0  0  0  0  0  0  0  0  0
   56.8540   23.1000   45.0970 C   0  0  0  0  0  0  0  0  0  0  0  0
   55.4720   22.9190   45.1760 C   0  0  0  0  0  0  0  0  0  0  0  0
   54.6400   24.0060   45.4590 C   0  0  0  0  0  0  0  0  0  0  0  0
   55.1860   25.2790   45.6640 C   0  0  0  0  0  0  0  0  0  0  0  0
   54.3380   26.3360   45.9760 O   0  0  0  0  0  0  0  0  0  0  0  0
   59.9570   29.6340   46.7280 C   0  0  0  0  0  0  0  0  0  0  0  0
   60.7740   30.6880   46.2820 C   0  0  0  0  0  0  0  0  0  0  0  0
   61.2840   31.6180   47.1910 C   0  0  0  0  0  0  0  0  0  0  0  0
   60.9880   31.5070   48.5540 C   0  0  0  0  0  0  0  0  0  0  0  0
   61.7780   32.5850   49.7000 S   0  0  0  0  0  0  0  0  0  0  0  0
   63.2620   32.6160   49.4550 O   0  0  0  0  0  0  0  0  0  0  0  0
   61.5200   32.0980   51.0970 O   0  0  0  0  0  0  0  0  0  0  0  0
   61.1310   34.1870   49.5160 N   0  0  0  0  0  0  0  0  0  0  0  0
   59.6750   34.1310   49.3970 C   0  0  0  0  0  0  0  0  0  0  0  0
   59.2980   34.1630   47.9450 C   0  0  0  0  0  0  0  0  0  0  0  0
   60.0090   34.9660   47.0370 C   0  0  0  0  0  0  0  0  0  0  0  0
   59.6420   34.9920   45.6870 C   0  0  0  0  0  0  0  0  0  0  0  0
   58.5610   34.2290   45.2390 C   0  0  0  0  0  0  0  0  0  0  0  0
   57.8400   33.4400   46.1390 C   0  0  0  0  0  0  0  0  0  0  0  0
   58.2040   33.4070   47.4880 C   0  0  0  0  0  0  0  0  0  0  0  0
   60.1300   30.4930   48.9970 C   0  0  0  0  0  0  0  0  0  0  0  0
   59.6130   29.5650   48.0880 C   0  0  0  0  0  0  0  0  0  0  0  0
   57.8160   29.6374   45.0988 H   0  0  0  0  0  0  0  0  0  0  0  0
   58.9049   28.9872   43.8082 H   0  0  0  0  0  0  0  0  0  0  0  0
   57.3660   27.2670   43.6830 H   0  0  0  0  0  0  0  0  0  0  0  0
   58.4985   24.5004   45.2514 H   0  0  0  0  0  0  0  0  0  0  0  0
   57.5078   22.2447   44.8714 H   0  0  0  0  0  0  0  0  0  0  0  0
   55.0379   21.9211   45.0156 H   0  0  0  0  0  0  0  0  0  0  0  0
   53.5514   23.8607   45.5209 H   0  0  0  0  0  0  0  0  0  0  0  0
   61.0126   30.7806   45.2122 H   0  0  0  0  0  0  0  0  0  0  0  0
   61.9208   32.4408   46.8339 H   0  0  0  0  0  0  0  0  0  0  0  0
   59.3039   33.2014   49.8532 H   0  0  0  0  0  0  0  0  0  0  0  0
   59.2281   34.9928   49.9143 H   0  0  0  0  0  0  0  0  0  0  0  0
   60.8552   35.5749   47.3880 H   0  0  0  0  0  0  0  0  0  0  0  0
   60.2060   35.6146   44.9769 H   0  0  0  0  0  0  0  0  0  0  0  0
   58.2771   34.2493   44.1765 H   0  0  0  0  0  0  0  0  0  0  0  0
   56.9854   32.8444   45.7856 H   0  0  0  0  0  0  0  0  0  0  0  0
   57.6326   32.7874   48.1948 H   0  0  0  0  0  0  0  0  0  0  0  0
   59.8623   30.4264   50.0619 H   0  0  0  0  0  0  0  0  0  0  0  0
   58.9325   28.7758   48.4402 H   0  0  0  0  0  0  0  0  0  0  0  0
  1  2  2  0
  2  3  1  0
  3  4  1  0
  4  5  1  0
  5  6  2  0
  5  7  1  0
  7  8  2  0
  8  9  1  0
  9 10  2  0
 10 11  1  0
 11 12  2  0
 12 13  1  0
  2 14  1  0
 14 15  2  0
 15 16  1  0
 16 17  2  0
 17 18  1  0
 18 19  2  0
 18 20  2  0
 18 21  1  0
 21 22  1  0
 22 23  1  0
 23 24  2  0
 24 25  1  0
 25 26  2  0
 26 27  1  0
 27 28  2  0
 17 29  1  0
 29 30  2  0
 12  7  1  0
 30 14  1  0
 28 23  1  0
  3 31  1  0
  3 32  1  0
  4 33  1  0
  8 34  1  0
  9 35  1  0
 10 36  1  0
 11 37  1  0
 15 38  1  0
 16 39  1  0
 22 40  1  0
 22 41  1  0
 24 42  1  0
 25 43  1  0
 26 44  1  0
 27 45  1  0
 28 46  1  0
 29 47  1  0
 30 48  1  0
M  CHG  2  13  -1  21  -1
M  END
>  <UniqueID>  (27) 
26

>  <SMILES>  (27) 
O=C(CNC(=O)c1ccccc1[O-])c1ccc(S(=O)(=O)[N-]Cc2ccccc2)cc1

>  <Energy>  (27) 
48.62968532822898

>  <Genealogy>  (27) 
O=C(CNC(=O)c1ccccc1[O-])c1ccc(S(=O)(=O)[N-]Cc2ccccc2)cc1 (protonated)
O=C(CNC(=O)c1ccccc1[O-])c1ccc(S(=O)(=O)[N-]Cc2ccccc2)cc1 (3D coordinates assigned)
O=C(CNC(=O)c1ccccc1[O-])c1ccc(S(=O)(=O)[N-]Cc2ccccc2)cc1 (optimized conformer: 48.62968532822898 kcal/mol)

>  <smiles>  (27) 
O=C(CNC(=O)c1ccccc1O)c1ccc(S(=O)(=O)NCc2ccccc2)cc1

>  <score_type>  (27) 
oracle

>  <origin>  (27) 
adg

>  <m_score__min__energy>  (27) 
-14.84

>  <m_primary>  (27) 
energy

$$$$
27:0
     RDKit          3D

 46 49  0  0  0  0  0  0  0  0999 V2000
   52.6820   28.8670   50.9850 H   0  0  0  0  0  0  0  0  0  0  0  0
   52.0720   29.1770   50.2400 O   0  0  0  0  0  0  0  0  0  0  0  0
   51.6900   30.5110   50.1160 C   0  0  0  0  0  0  0  0  0  0  0  0
   50.9970   30.9820   49.0660 N   0  0  0  0  0  0  0  0  0  0  0  0
   50.8500   32.2880   49.3680 C   0  0  0  0  0  0  0  0  0  0  0  0
   50.2380   33.0940   48.6170 O   0  0  0  0  0  0  0  0  0  0  0  0
   51.4010   32.6640   50.5410 N   0  0  0  0  0  0  0  0  0  0  0  0
   51.9540   31.5290   51.0080 C   0  0  0  0  0  0  0  0  0  0  0  0
   52.6050   31.3850   52.3290 C   0  0  0  0  0  0  0  0  0  0  0  0
   52.0577   31.7587   53.2070 H   0  0  0  0  0  0  0  0  0  0  0  0
   53.8200   30.8300   52.5420 C   0  0  0  0  0  0  0  0  0  0  0  0
   54.9590   31.0790   51.7390 C   0  0  0  0  0  0  0  0  0  0  0  0
   54.9484   31.7714   50.8843 H   0  0  0  0  0  0  0  0  0  0  0  0
   56.0920   30.3720   52.1250 C   0  0  0  0  0  0  0  0  0  0  0  0
   57.4210   30.4770   51.4920 C   0  0  0  0  0  0  0  0  0  0  0  0
   58.0720   29.4220   51.2610 O   0  0  0  0  0  0  0  0  0  0  0  0
   57.9810   31.7460   51.1070 N   0  0  0  0  0  0  0  0  0  0  0  0
   58.6730   31.8580   49.8200 C   0  0  0  0  0  0  0  0  0  0  0  0
   59.4830   31.1148   49.7810 H   0  0  0  0  0  0  0  0  0  0  0  0
   57.9464   31.6779   49.0140 H   0  0  0  0  0  0  0  0  0  0  0  0
   59.2680   33.2580   49.6380 C   0  0  0  0  0  0  0  0  0  0  0  0
   59.9587   33.2444   48.7820 H   0  0  0  0  0  0  0  0  0  0  0  0
   58.4426   33.9640   49.4639 H   0  0  0  0  0  0  0  0  0  0  0  0
   60.0050   33.6940   50.8430 N   0  0  0  0  0  0  0  0  0  0  0  0
   61.3930   33.1560   50.8840 C   0  0  0  0  0  0  0  0  0  0  0  0
   61.2758   32.5269   51.7787 H   0  0  0  0  0  0  0  0  0  0  0  0
   61.8730   32.5690   49.5560 C   0  0  0  0  0  0  0  0  0  0  0  0
   62.2092   31.5237   49.6215 H   0  0  0  0  0  0  0  0  0  0  0  0
   61.1822   32.4734   48.7053 H   0  0  0  0  0  0  0  0  0  0  0  0
   63.0070   33.5880   49.5220 C   0  0  0  0  0  0  0  0  0  0  0  0
   64.0111   33.1418   49.5739 H   0  0  0  0  0  0  0  0  0  0  0  0
   63.1456   34.2317   48.6408 H   0  0  0  0  0  0  0  0  0  0  0  0
   62.5250   34.1860   50.8400 C   0  0  0  0  0  0  0  0  0  0  0  0
   63.2468   34.0973   51.6653 H   0  0  0  0  0  0  0  0  0  0  0  0
   62.3065   35.2611   50.9198 H   0  0  0  0  0  0  0  0  0  0  0  0
   59.2140   33.6430   52.1050 C   0  0  0  0  0  0  0  0  0  0  0  0
   59.8095   33.1152   52.8645 H   0  0  0  0  0  0  0  0  0  0  0  0
   58.9952   34.6843   52.3838 H   0  0  0  0  0  0  0  0  0  0  0  0
   57.8580   32.9260   51.9700 C   0  0  0  0  0  0  0  0  0  0  0  0
   57.5150   32.6108   52.9665 H   0  0  0  0  0  0  0  0  0  0  0  0
   57.1332   33.6203   51.5199 H   0  0  0  0  0  0  0  0  0  0  0  0
   55.7100   29.4450   53.4720 S   0  0  0  0  0  0  0  0  0  0  0  0
   54.0960   29.9050   53.5710 C   0  0  0  0  0  0  0  0  0  0  0  0
   53.2690   29.4410   54.5130 C   0  0  0  0  0  0  0  0  0  0  0  0
   52.2203   29.7723   54.5360 H   0  0  0  0  0  0  0  0  0  0  0  0
   53.6371   28.7278   55.2653 H   0  0  0  0  0  0  0  0  0  0  0  0
  1  2  1  0
  2  3  1  0
  3  4  1  0
  4  5  1  0
  5  6  2  0
  5  7  1  0
  7  8  1  0
  8  9  1  0
  9 10  1  0
  9 11  2  0
 11 12  1  0
 12 13  1  0
 12 14  2  0
 14 15  1  0
 15 16  2  0
 15 17  1  0
 17 18  1  0
 18 19  1  0
 18 20  1  0
 18 21  1  0
 21 22  1  0
 21 23  1  0
 21 24  1  0
 24 25  1  0
 25 26  1  0
 25 27  1  0
 27 28  1  0
 27 29  1  0
 27 30  1  0
 30 31  1  0
 30 32  1  0
 30 33  1  0
 33 34  1  0
 33 35  1  0
 24 36  1  0
 36 37  1  0
 36 38  1  0
 36 39  1  0
 39 40  1  0
 39 41  1  0
 14 42  1  0
 42 43  1  0
 43 44  2  0
 44 45  1  0
 44 46  1  0
  8  3  2  0
 43 11  1  0
 39 17  1  0
 33 25  1  0
M  CHG  2   4  -1   7  -1
M  END
>  <UniqueID>  (28) 
27

>  <SMILES>  (28) 
C=c1sc(C(=O)N2CCN(C3CCC3)CC2)c/c1=C\c1[n-]c(=O)[n-]c1O

>  <Energy>  (28) 
186.97740625393118

>  <Genealogy>  (28) 
C=c1sc(C(=O)N2CCN(C3CCC3)CC2)cc1=Cc1[n-]c(=O)[n-]c1O (protonated)
C=c1sc(C(=O)N2CCN(C3CCC3)CC2)c/c1=C\c1[n-]c(=O)[n-]c1O (cis-trans isomerization)
C=c1sc(C(=O)N2CCN(C3CCC3)CC2)c/c1=C\c1[n-]c(=O)[n-]c1O (3D coordinates assigned)
C=c1sc(C(=O)N2CCN(C3CCC3)CC2)c/c1=C\c1[n-]c(=O)[n-]c1O (nonaromatic ring conformer: 186.97740625393118 kcal/mol)

>  <smiles>  (28) 
C=c1sc(C(=O)N2CCN(C3CCC3)CC2)cc1=Cc1[nH]c(=O)[nH]c1O

>  <score_type>  (28) 
oracle

>  <origin>  (28) 
adg

>  <m_score__min__energy>  (28) 
-13.130000000000001

>  <m_primary>  (28) 
energy

$$$$
28:0
     RDKit          3D

 46 48  0  0  0  0  0  0  0  0999 V2000
   67.1720   32.1610   52.2740 C   0  0  0  0  0  0  0  0  0  0  0  0
   66.4120   32.8200   50.8070 S   0  0  0  0  0  0  0  0  0  0  0  0
   65.7110   34.1010   51.1600 O   0  0  0  0  0  0  0  0  0  0  0  0
   67.4510   33.1110   49.7620 O   0  0  0  0  0  0  0  0  0  0  0  0
   65.2450   31.7010   50.1810 N   0  0  0  0  0  0  0  0  0  0  0  0
   64.0800   32.0430   49.4160 C   0  0  0  0  0  0  0  0  0  0  0  0
   62.9050   31.3120   49.6240 C   0  0  0  0  0  0  0  0  0  0  0  0
   61.7480   31.6010   48.8950 C   0  0  0  0  0  0  0  0  0  0  0  0
   61.7480   32.6330   47.9360 C   0  0  0  0  0  0  0  0  0  0  0  0
   60.5220   32.9380   47.1540 C   0  0  0  0  0  0  0  0  0  0  0  0
   59.9340   34.2140   47.2140 C   0  0  0  0  0  0  0  0  0  0  0  0
   58.7750   34.4960   46.4860 C   0  0  0  0  0  0  0  0  0  0  0  0
   58.1870   33.5130   45.6880 C   0  0  0  0  0  0  0  0  0  0  0  0
   57.0220   33.8150   44.9930 O   0  0  0  0  0  0  0  0  0  0  0  0
   58.7690   32.2340   45.6030 C   0  0  0  0  0  0  0  0  0  0  0  0
   58.0270   30.9430   44.6490 S   0  0  0  0  0  0  0  0  0  0  0  0
   56.6780   30.5830   45.2050 O   0  0  0  0  0  0  0  0  0  0  0  0
   57.8470   31.4130   43.2330 O   0  0  0  0  0  0  0  0  0  0  0  0
   59.0810   29.5020   44.6550 C   0  0  0  0  0  0  0  0  0  0  0  0
   58.4340   28.3800   45.4160 C   0  0  0  0  0  0  0  0  0  0  0  0
   59.1450   27.7050   46.4210 C   0  0  0  0  0  0  0  0  0  0  0  0
   58.5300   26.6930   47.1620 C   0  0  0  0  0  0  0  0  0  0  0  0
   57.1940   26.3540   46.9160 C   0  0  0  0  0  0  0  0  0  0  0  0
   56.5740   25.3460   47.6530 O   0  0  0  0  0  0  0  0  0  0  0  0
   56.4740   27.0350   45.9270 C   0  0  0  0  0  0  0  0  0  0  0  0
   55.1440   26.7150   45.6870 O   0  0  0  0  0  0  0  0  0  0  0  0
   57.0920   28.0430   45.1800 C   0  0  0  0  0  0  0  0  0  0  0  0
   59.9270   31.9540   46.3430 C   0  0  0  0  0  0  0  0  0  0  0  0
   62.9290   33.3690   47.7330 C   0  0  0  0  0  0  0  0  0  0  0  0
   64.0840   33.0800   48.4670 C   0  0  0  0  0  0  0  0  0  0  0  0
   66.6824   32.5855   53.1629 H   0  0  0  0  0  0  0  0  0  0  0  0
   67.0634   31.0664   52.2832 H   0  0  0  0  0  0  0  0  0  0  0  0
   68.2402   32.4236   52.2832 H   0  0  0  0  0  0  0  0  0  0  0  0
   62.8918   30.5022   50.3683 H   0  0  0  0  0  0  0  0  0  0  0  0
   60.8315   31.0188   49.0712 H   0  0  0  0  0  0  0  0  0  0  0  0
   60.3899   34.9962   47.8388 H   0  0  0  0  0  0  0  0  0  0  0  0
   58.3237   35.4976   46.5420 H   0  0  0  0  0  0  0  0  0  0  0  0
   59.2602   29.1803   43.6185 H   0  0  0  0  0  0  0  0  0  0  0  0
   60.0330   29.7597   45.1421 H   0  0  0  0  0  0  0  0  0  0  0  0
   60.1916   27.9744   46.6260 H   0  0  0  0  0  0  0  0  0  0  0  0
   59.0967   26.1612   47.9405 H   0  0  0  0  0  0  0  0  0  0  0  0
   55.5670   25.2290   47.6440 H   0  0  0  0  0  0  0  0  0  0  0  0
   56.5231   28.5748   44.4031 H   0  0  0  0  0  0  0  0  0  0  0  0
   60.3763   30.9514   46.2887 H   0  0  0  0  0  0  0  0  0  0  0  0
   62.9446   34.1798   46.9898 H   0  0  0  0  0  0  0  0  0  0  0  0
   64.9995   33.6668   48.3009 H   0  0  0  0  0  0  0  0  0  0  0  0
  1  2  1  0
  2  3  2  0
  2  4  2  0
  2  5  1  0
  5  6  1  0
  6  7  2  0
  7  8  1  0
  8  9  2  0
  9 10  1  0
 10 11  2  0
 11 12  1  0
 12 13  2  0
 13 14  1  0
 13 15  1  0
 15 16  1  0
 16 17  2  0
 16 18  2  0
 16 19  1  0
 19 20  1  0
 20 21  2  0
 21 22  1  0
 22 23  2  0
 23 24  1  0
 23 25  1  0
 25 26  1  0
 25 27  2  0
 15 28  2  0
  9 29  1  0
 29 30  2  0
 30  6  1  0
 28 10  1  0
 27 20  1  0
  1 31  1  0
  1 32  1  0
  1 33  1  0
  7 34  1  0
  8 35  1  0
 11 36  1  0
 12 37  1  0
 19 38  1  0
 19 39  1  0
 21 40  1  0
 22 41  1  0
 24 42  1  0
 27 43  1  0
 28 44  1  0
 29 45  1  0
 30 46  1  0
M  CHG  3   5  -1  14  -1  26  -1
M  END
>  <UniqueID>  (29) 
28

>  <SMILES>  (29) 
CS(=O)(=O)[N-]c1ccc(-c2ccc([O-])c(S(=O)(=O)Cc3ccc(O)c([O-])c3)c2)cc1

>  <Energy>  (29) 
48.94394558548183

>  <Genealogy>  (29) 
CS(=O)(=O)[N-]c1ccc(-c2ccc([O-])c(S(=O)(=O)Cc3ccc(O)c([O-])c3)c2)cc1 (protonated)
CS(=O)(=O)[N-]c1ccc(-c2ccc([O-])c(S(=O)(=O)Cc3ccc(O)c([O-])c3)c2)cc1 (3D coordinates assigned)
CS(=O)(=O)[N-]c1ccc(-c2ccc([O-])c(S(=O)(=O)Cc3ccc(O)c([O-])c3)c2)cc1 (optimized conformer: 48.94394558548183 kcal/mol)

>  <smiles>  (29) 
CS(=O)(=O)Nc1ccc(-c2ccc(O)c(S(=O)(=O)Cc3ccc(O)c(O)c3)c2)cc1

>  <score_type>  (29) 
oracle

>  <origin>  (29) 
adg

>  <m_score__min__energy>  (29) 
-14.5

>  <m_primary>  (29) 
energy

$$$$
29:0
     RDKit          3D

 35 37  0  0  0  0  0  0  0  0999 V2000
   55.1450   27.5310   45.4660 H   0  0  0  0  0  0  0  0  0  0  0  0
   55.0470   26.7000   46.0380 O   0  0  0  0  0  0  0  0  0  0  0  0
   56.1280   25.8860   46.3760 C   0  0  0  0  0  0  0  0  0  0  0  0
   55.9500   24.5390   46.3950 N   0  0  0  0  0  0  0  0  0  0  0  0
   56.9640   23.6980   46.7160 C   0  0  0  0  0  0  0  0  0  0  0  0
   56.7730   22.4550   46.7160 O   0  0  0  0  0  0  0  0  0  0  0  0
   58.1840   24.1950   47.0420 N   0  0  0  0  0  0  0  0  0  0  0  0
   58.4170   25.5330   47.0460 C   0  0  0  0  0  0  0  0  0  0  0  0
   59.5530   25.9610   47.3820 O   0  0  0  0  0  0  0  0  0  0  0  0
   57.3930   26.4240   46.6810 C   0  0  0  0  0  0  0  0  0  0  0  0
   57.5950   27.8810   46.7700 C   0  0  0  0  0  0  0  0  0  0  0  0
   57.9576   28.2784   47.7295 H   0  0  0  0  0  0  0  0  0  0  0  0
   57.3760   28.7680   45.7840 C   0  0  0  0  0  0  0  0  0  0  0  0
   56.3320   28.6070   44.9370 N   0  0  0  0  0  0  0  0  0  0  0  0
   56.3890   29.6280   44.0630 C   0  0  0  0  0  0  0  0  0  0  0  0
   55.5150   29.7970   43.0730 C   0  0  0  0  0  0  0  0  0  0  0  0
   55.6160   30.6537   42.3905 H   0  0  0  0  0  0  0  0  0  0  0  0
   54.6919   29.0799   42.9376 H   0  0  0  0  0  0  0  0  0  0  0  0
   57.4640   30.4390   44.3390 C   0  0  0  0  0  0  0  0  0  0  0  0
   57.8430   31.5730   43.6260 O   0  0  0  0  0  0  0  0  0  0  0  0
   58.1120   29.9150   45.4390 C   0  0  0  0  0  0  0  0  0  0  0  0
   59.4020   30.4620   46.0020 C   0  0  0  0  0  0  0  0  0  0  0  0
   59.6667   29.8803   46.8973 H   0  0  0  0  0  0  0  0  0  0  0  0
   60.1637   30.3776   45.2129 H   0  0  0  0  0  0  0  0  0  0  0  0
   59.3150   31.9200   46.3860 C   0  0  0  0  0  0  0  0  0  0  0  0
   58.0760   32.5830   46.4890 C   0  0  0  0  0  0  0  0  0  0  0  0
   57.1457   32.0415   46.2626 H   0  0  0  0  0  0  0  0  0  0  0  0
   58.0220   33.9240   46.8770 C   0  0  0  0  0  0  0  0  0  0  0  0
   57.0523   34.4401   46.9355 H   0  0  0  0  0  0  0  0  0  0  0  0
   59.1980   34.6110   47.1910 C   0  0  0  0  0  0  0  0  0  0  0  0
   59.1549   35.6696   47.4867 H   0  0  0  0  0  0  0  0  0  0  0  0
   60.4280   33.9520   47.1290 C   0  0  0  0  0  0  0  0  0  0  0  0
   61.3523   34.4900   47.3862 H   0  0  0  0  0  0  0  0  0  0  0  0
   60.4870   32.6110   46.7410 C   0  0  0  0  0  0  0  0  0  0  0  0
   61.4567   32.0924   46.7131 H   0  0  0  0  0  0  0  0  0  0  0  0
  1  2  1  0
  2  3  1  0
  3  4  1  0
  4  5  1  0
  5  6  2  0
  5  7  1  0
  7  8  1  0
  8  9  2  0
  8 10  1  0
 10 11  1  0
 11 12  1  0
 11 13  2  0
 13 14  1  0
 14 15  1  0
 15 16  2  0
 16 17  1  0
 16 18  1  0
 15 19  1  0
 19 20  1  0
 19 21  2  0
 21 22  1  0
 22 23  1  0
 22 24  1  0
 22 25  1  0
 25 26  2  0
 26 27  1  0
 26 28  1  0
 28 29  1  0
 28 30  2  0
 30 31  1  0
 30 32  1  0
 32 33  1  0
 32 34  2  0
 34 35  1  0
 10  3  2  0
 21 13  1  0
 34 25  1  0
M  CHG  4   4  -1   7  -1  14  -1  20  -1
M  END
>  <UniqueID>  (30) 
29

>  <SMILES>  (30) 
C=c1[n-]/c(=C/c2c(O)[n-]c(=O)[n-]c2=O)c(Cc2ccccc2)c1[O-]

>  <Energy>  (30) 
75.89496015749158

>  <Genealogy>  (30) 
C=c1[n-]c(=Cc2c(O)[n-]c(=O)[n-]c2=O)c(Cc2ccccc2)c1[O-] (protonated)
C=c1[n-]/c(=C/c2c(O)[n-]c(=O)[n-]c2=O)c(Cc2ccccc2)c1[O-] (cis-trans isomerization)
C=c1[n-]/c(=C/c2c(O)[n-]c(=O)[n-]c2=O)c(Cc2ccccc2)c1[O-] (3D coordinates assigned)
C=c1[n-]/c(=C/c2c(O)[n-]c(=O)[n-]c2=O)c(Cc2ccccc2)c1[O-] (optimized conformer: 75.89496015749158 kcal/mol)

>  <smiles>  (30) 
C=c1[nH]c(=Cc2c(O)[nH]c(=O)[nH]c2=O)c(Cc2ccccc2)c1O

>  <score_type>  (30) 
oracle

>  <origin>  (30) 
adg

>  <m_score__min__energy>  (30) 
-13.94

>  <m_primary>  (30) 
energy

$$$$
30:0
     RDKit          3D

 56 59  0  0  0  0  0  0  0  0999 V2000
   55.1570   29.3460   44.8680 O   0  0  0  0  0  0  0  0  0  0  0  0
   56.1880   29.8870   44.3830 C   0  0  0  0  0  0  0  0  0  0  0  0
   57.2120   29.0420   43.6930 C   0  0  0  0  0  0  0  0  0  0  0  0
   57.9440   28.2020   44.7020 C   0  0  0  0  0  0  0  0  0  0  0  0
   57.2290   27.4220   45.6270 C   0  0  0  0  0  0  0  0  0  0  0  0
   57.9110   26.6120   46.5420 C   0  0  0  0  0  0  0  0  0  0  0  0
   59.3070   26.5670   46.5310 C   0  0  0  0  0  0  0  0  0  0  0  0
   60.0250   27.3290   45.6050 C   0  0  0  0  0  0  0  0  0  0  0  0
   59.3480   28.1400   44.6900 C   0  0  0  0  0  0  0  0  0  0  0  0
   56.3950   31.3010   44.4870 N   0  0  0  0  0  0  0  0  0  0  0  0
   57.3990   31.9540   45.2750 C   0  0  0  0  0  0  0  0  0  0  0  0
   58.6780   31.3900   45.3370 C   0  0  0  0  0  0  0  0  0  0  0  0
   59.6870   31.9990   46.0880 C   0  0  0  0  0  0  0  0  0  0  0  0
   59.4400   33.2010   46.7740 C   0  0  0  0  0  0  0  0  0  0  0  0
   60.4690   33.7950   47.5940 N   0  0  0  0  0  0  0  0  0  0  0  0
   60.1550   34.5930   48.7760 C   0  0  0  0  0  0  0  0  0  0  0  0
   60.6700   33.8650   50.0190 C   0  0  0  0  0  0  0  0  0  0  0  0
   62.0470   33.3030   49.8610 N   0  0  0  0  0  0  0  0  0  0  0  0
   62.1410   31.8580   50.2100 C   0  0  0  0  0  0  0  0  0  0  0  0
   61.0100   30.9980   49.6810 C   0  0  0  0  0  0  0  0  0  0  0  0
   61.1860   30.2530   48.5000 C   0  0  0  0  0  0  0  0  0  0  0  0
   60.1460   29.4640   47.9980 C   0  0  0  0  0  0  0  0  0  0  0  0
   58.9300   29.3910   48.6820 C   0  0  0  0  0  0  0  0  0  0  0  0
   58.7600   30.0900   49.8780 C   0  0  0  0  0  0  0  0  0  0  0  0
   59.7970   30.8800   50.3840 C   0  0  0  0  0  0  0  0  0  0  0  0
   62.7460   33.6690   48.5980 C   0  0  0  0  0  0  0  0  0  0  0  0
   61.8820   33.5120   47.3270 C   0  0  0  0  0  0  0  0  0  0  0  0
   58.1610   33.7820   46.6850 C   0  0  0  0  0  0  0  0  0  0  0  0
   57.1520   33.1690   45.9370 C   0  0  0  0  0  0  0  0  0  0  0  0
   56.7131   28.3857   42.9648 H   0  0  0  0  0  0  0  0  0  0  0  0
   57.9302   29.6937   43.1740 H   0  0  0  0  0  0  0  0  0  0  0  0
   56.1293   27.4483   45.6318 H   0  0  0  0  0  0  0  0  0  0  0  0
   57.3474   26.0104   47.2703 H   0  0  0  0  0  0  0  0  0  0  0  0
   59.8419   25.9312   47.2519 H   0  0  0  0  0  0  0  0  0  0  0  0
   61.1243   27.2903   45.5964 H   0  0  0  0  0  0  0  0  0  0  0  0
   59.9163   28.7321   43.9576 H   0  0  0  0  0  0  0  0  0  0  0  0
   58.8910   30.4596   44.7901 H   0  0  0  0  0  0  0  0  0  0  0  0
   60.6824   31.5341   46.1428 H   0  0  0  0  0  0  0  0  0  0  0  0
   60.6410   35.5766   48.6968 H   0  0  0  0  0  0  0  0  0  0  0  0
   59.0666   34.7334   48.8515 H   0  0  0  0  0  0  0  0  0  0  0  0
   60.6795   34.5758   50.8584 H   0  0  0  0  0  0  0  0  0  0  0  0
   59.9948   33.0148   50.1956 H   0  0  0  0  0  0  0  0  0  0  0  0
   62.6150   33.7710   50.6100 H   0  0  0  0  0  0  0  0  0  0  0  0
   63.0856   31.4688   49.8021 H   0  0  0  0  0  0  0  0  0  0  0  0
   62.0840   31.8015   51.3071 H   0  0  0  0  0  0  0  0  0  0  0  0
   62.1481   30.2915   47.9681 H   0  0  0  0  0  0  0  0  0  0  0  0
   60.2856   28.9004   47.0637 H   0  0  0  0  0  0  0  0  0  0  0  0
   58.1071   28.7830   48.2782 H   0  0  0  0  0  0  0  0  0  0  0  0
   57.8077   30.0193   50.4241 H   0  0  0  0  0  0  0  0  0  0  0  0
   59.6636   31.4123   51.3373 H   0  0  0  0  0  0  0  0  0  0  0  0
   63.0635   34.7196   48.6716 H   0  0  0  0  0  0  0  0  0  0  0  0
   63.5922   32.9741   48.4925 H   0  0  0  0  0  0  0  0  0  0  0  0
   62.2467   34.2105   46.5595 H   0  0  0  0  0  0  0  0  0  0  0  0
   61.9642   32.4704   46.9829 H   0  0  0  0  0  0  0  0  0  0  0  0
   57.9538   34.7268   47.2088 H   0  0  0  0  0  0  0  0  0  0  0  0
   56.1602   33.6395   45.8661 H   0  0  0  0  0  0  0  0  0  0  0  0
  1  2  2  0
  2  3  1  0
  3  4  1  0
  4  5  2  0
  5  6  1  0
  6  7  2  0
  7  8  1  0
  8  9  2  0
  2 10  1  0
 10 11  1  0
 11 12  2  0
 12 13  1  0
 13 14  2  0
 14 15  1  0
 15 16  1  0
 16 17  1  0
 17 18  1  0
 18 19  1  0
 19 20  1  0
 20 21  2  0
 21 22  1  0
 22 23  2  0
 23 24  1  0
 24 25  2  0
 18 26  1  0
 26 27  1  0
 14 28  1  0
 28 29  2  0
  9  4  1  0
 29 11  1  0
 27 15  1  0
 25 20  1  0
  3 30  1  0
  3 31  1  0
  5 32  1  0
  6 33  1  0
  7 34  1  0
  8 35  1  0
  9 36  1  0
 12 37  1  0
 13 38  1  0
 16 39  1  0
 16 40  1  0
 17 41  1  0
 17 42  1  0
 18 43  1  0
 19 44  1  0
 19 45  1  0
 21 46  1  0
 22 47  1  0
 23 48  1  0
 24 49  1  0
 25 50  1  0
 26 51  1  0
 26 52  1  0
 27 53  1  0
 27 54  1  0
 28 55  1  0
 29 56  1  0
M  CHG  2  10  -1  18   1
M  END
>  <UniqueID>  (31) 
30

>  <SMILES>  (31) 
O=C(Cc1ccccc1)[N-]c1ccc(N2CC[NH+](Cc3ccccc3)CC2)cc1

>  <Energy>  (31) 
76.55506047846471

>  <Genealogy>  (31) 
O=C(Cc1ccccc1)[N-]c1ccc(N2CC[NH+](Cc3ccccc3)CC2)cc1 (protonated)
O=C(Cc1ccccc1)[N-]c1ccc(N2CC[NH+](Cc3ccccc3)CC2)cc1 (3D coordinates assigned)
O=C(Cc1ccccc1)[N-]c1ccc(N2CC[NH+](Cc3ccccc3)CC2)cc1 (nonaromatic ring conformer: 76.55506047846471 kcal/mol)

>  <smiles>  (31) 
O=C(Cc1ccccc1)Nc1ccc(N2CCN(Cc3ccccc3)CC2)cc1

>  <score_type>  (31) 
oracle

>  <origin>  (31) 
adg

>  <m_score__min__energy>  (31) 
-9.4100000000000001

>  <m_primary>  (31) 
energy

$$$$
31:0
     RDKit          3D

 44 46  0  0  0  0  0  0  0  0999 V2000
   59.4240   27.7650   47.1520 C   0  0  0  0  0  0  0  0  0  0  0  0
   57.9880   27.7890   46.6370 C   0  0  0  0  0  0  0  0  0  0  0  0
   57.9590   27.7680   45.1380 C   0  0  0  0  0  0  0  0  0  0  0  0
   58.6580   26.9170   44.4210 O   0  0  0  0  0  0  0  0  0  0  0  0
   58.3990   27.1190   43.1490 C   0  0  0  0  0  0  0  0  0  0  0  0
   57.4870   28.1440   43.0140 C   0  0  0  0  0  0  0  0  0  0  0  0
   57.1940   28.5650   44.2970 C   0  0  0  0  0  0  0  0  0  0  0  0
   56.2670   29.6570   44.6640 C   0  0  0  0  0  0  0  0  0  0  0  0
   55.1420   29.3810   45.1570 O   0  0  0  0  0  0  0  0  0  0  0  0
   56.6430   31.0340   44.5400 N   0  0  0  0  0  0  0  0  0  0  0  0
   57.7410   31.6670   45.2120 C   0  0  0  0  0  0  0  0  0  0  0  0
   58.4130   30.9670   46.2220 C   0  0  0  0  0  0  0  0  0  0  0  0
   59.4810   31.5590   46.9020 C   0  0  0  0  0  0  0  0  0  0  0  0
   59.8750   32.8680   46.5920 C   0  0  0  0  0  0  0  0  0  0  0  0
   61.2360   33.6210   47.4200 S   0  0  0  0  0  0  0  0  0  0  0  0
   62.1580   34.2060   46.3860 O   0  0  0  0  0  0  0  0  0  0  0  0
   60.7490   34.7290   48.3120 O   0  0  0  0  0  0  0  0  0  0  0  0
   62.0920   32.4200   48.3650 N   0  0  0  0  0  0  0  0  0  0  0  0
   63.4410   32.1950   47.8330 C   0  0  0  0  0  0  0  0  0  0  0  0
   64.3960   33.1040   48.5970 C   0  0  0  0  0  0  0  0  0  0  0  0
   63.6390   33.5450   49.8380 C   0  0  0  0  0  0  0  0  0  0  0  0
   62.2780   32.8690   49.7500 C   0  0  0  0  0  0  0  0  0  0  0  0
   59.1880   33.5810   45.6010 C   0  0  0  0  0  0  0  0  0  0  0  0
   58.1210   32.9890   44.9200 C   0  0  0  0  0  0  0  0  0  0  0  0
   59.4191   27.7651   48.2520 H   0  0  0  0  0  0  0  0  0  0  0  0
   59.9291   26.8583   46.7877 H   0  0  0  0  0  0  0  0  0  0  0  0
   59.9591   28.6543   46.7877 H   0  0  0  0  0  0  0  0  0  0  0  0
   57.4527   26.9078   47.0203 H   0  0  0  0  0  0  0  0  0  0  0  0
   57.5039   28.7131   46.9859 H   0  0  0  0  0  0  0  0  0  0  0  0
   58.8435   26.5546   42.3160 H   0  0  0  0  0  0  0  0  0  0  0  0
   57.0761   28.5451   42.0757 H   0  0  0  0  0  0  0  0  0  0  0  0
   58.0984   29.9454   46.4816 H   0  0  0  0  0  0  0  0  0  0  0  0
   60.0138   30.9961   47.6826 H   0  0  0  0  0  0  0  0  0  0  0  0
   61.5410   31.5300   48.3440 H   0  0  0  0  0  0  0  0  0  0  0  0
   63.7297   31.1432   47.9757 H   0  0  0  0  0  0  0  0  0  0  0  0
   63.4736   32.4185   46.7564 H   0  0  0  0  0  0  0  0  0  0  0  0
   65.3064   32.5543   48.8781 H   0  0  0  0  0  0  0  0  0  0  0  0
   64.7132   33.9634   47.9880 H   0  0  0  0  0  0  0  0  0  0  0  0
   64.1696   33.2228   50.7461 H   0  0  0  0  0  0  0  0  0  0  0  0
   63.5467   34.6399   49.8905 H   0  0  0  0  0  0  0  0  0  0  0  0
   62.2434   32.0062   50.4315 H   0  0  0  0  0  0  0  0  0  0  0  0
   61.4804   33.5694   50.0386 H   0  0  0  0  0  0  0  0  0  0  0  0
   59.4895   34.6106   45.3580 H   0  0  0  0  0  0  0  0  0  0  0  0
   57.5765   33.5591   44.1529 H   0  0  0  0  0  0  0  0  0  0  0  0
  1  2  1  0
  2  3  1  0
  3  4  1  0
  4  5  1  0
  5  6  2  0
  6  7  1  0
  7  8  1  0
  8  9  2  0
  8 10  1  0
 10 11  1  0
 11 12  2  0
 12 13  1  0
 13 14  2  0
 14 15  1  0
 15 16  2  0
 15 17  2  0
 15 18  1  0
 18 19  1  0
 19 20  1  0
 20 21  1  0
 21 22  1  0
 14 23  1  0
 23 24  2  0
  7  3  2  0
 24 11  1  0
 22 18  1  0
  1 25  1  0
  1 26  1  0
  1 27  1  0
  2 28  1  0
  2 29  1  0
  5 30  1  0
  6 31  1  0
 12 32  1  0
 13 33  1  0
 18 34  1  0
 19 35  1  0
 19 36  1  0
 20 37  1  0
 20 38  1  0
 21 39  1  0
 21 40  1  0
 22 41  1  0
 22 42  1  0
 23 43  1  0
 24 44  1  0
M  CHG  2  10  -1  18   1
M  END
>  <UniqueID>  (32) 
31

>  <SMILES>  (32) 
CCc1occc1C(=O)[N-]c1ccc(S(=O)(=O)[NH+]2CCCC2)cc1

>  <Energy>  (32) 
74.46292466717388

>  <Genealogy>  (32) 
CCc1occc1C(=O)[N-]c1ccc(S(=O)(=O)[NH+]2CCCC2)cc1 (protonated)
CCc1occc1C(=O)[N-]c1ccc(S(=O)(=O)[NH+]2CCCC2)cc1 (3D coordinates assigned)
CCc1occc1C(=O)[N-]c1ccc(S(=O)(=O)[NH+]2CCCC2)cc1 (nonaromatic ring conformer: 74.46292466717388 kcal/mol)

>  <smiles>  (32) 
CCc1occc1C(=O)Nc1ccc(S(=O)(=O)N2CCCC2)cc1

>  <score_type>  (32) 
oracle

>  <origin>  (32) 
adg

>  <m_score__min__energy>  (32) 
-8.3699999999999992

>  <m_primary>  (32) 
energy

$$$$
32:0
     RDKit          3D

 68 72  0  0  0  0  0  0  0  0999 V2000
   54.9130   31.6310   51.2170 H   0  0  0  0  0  0  0  0  0  0  0  0
   55.3810   30.7000   51.2840 N   0  0  0  0  0  0  0  0  0  0  0  0
   56.1150   30.0540   53.5050 C   0  0  0  0  0  0  0  0  0  0  0  0
   56.7500   31.1940   53.8610 C   0  0  0  0  0  0  0  0  0  0  0  0
   55.2300   29.9340   52.3180 C   0  0  0  0  0  0  0  0  0  0  0  0
   56.2826   31.8089   54.6442 H   0  0  0  0  0  0  0  0  0  0  0  0
   58.0200   31.6810   53.2840 C   0  0  0  0  0  0  0  0  0  0  0  0
   59.2310   31.7960   53.9460 C   0  0  0  0  0  0  0  0  0  0  0  0
   59.5620   31.2990   55.3240 C   0  0  0  0  0  0  0  0  0  0  0  0
   60.0738   32.0977   55.8810 H   0  0  0  0  0  0  0  0  0  0  0  0
   58.6263   31.0157   55.8281 H   0  0  0  0  0  0  0  0  0  0  0  0
   60.4700   30.0740   55.2610 C   0  0  0  0  0  0  0  0  0  0  0  0
   61.4671   30.3792   54.9107 H   0  0  0  0  0  0  0  0  0  0  0  0
   60.5424   29.6306   56.2651 H   0  0  0  0  0  0  0  0  0  0  0  0
   59.9490   29.1340   54.3910 F   0  0  0  0  0  0  0  0  0  0  0  0
   60.1130   32.3890   53.0630 C   0  0  0  0  0  0  0  0  0  0  0  0
   61.1755   32.5880   53.2670 H   0  0  0  0  0  0  0  0  0  0  0  0
   59.4740   32.6870   51.9130 N   0  0  0  0  0  0  0  0  0  0  0  0
   60.0750   33.2840   50.7520 C   0  0  0  0  0  0  0  0  0  0  0  0
   60.9040   34.2240   50.9000 O   0  0  0  0  0  0  0  0  0  0  0  0
   59.7470   32.8280   49.3830 C   0  0  0  0  0  0  0  0  0  0  0  0
   60.2920   33.4900   48.2720 C   0  0  0  0  0  0  0  0  0  0  0  0
   60.9729   34.3407   48.4225 H   0  0  0  0  0  0  0  0  0  0  0  0
   59.9750   33.0750   46.9750 C   0  0  0  0  0  0  0  0  0  0  0  0
   60.4165   33.5942   46.1116 H   0  0  0  0  0  0  0  0  0  0  0  0
   59.0960   31.9990   46.7680 C   0  0  0  0  0  0  0  0  0  0  0  0
   58.7480   31.5540   45.3710 C   0  0  0  0  0  0  0  0  0  0  0  0
   57.7620   31.9580   45.0980 H   0  0  0  0  0  0  0  0  0  0  0  0
   59.5170   31.9265   44.6783 H   0  0  0  0  0  0  0  0  0  0  0  0
   58.7080   30.0830   45.2900 N   0  0  0  0  0  0  0  0  0  0  0  0
   59.7490   29.2630   45.5650 C   0  0  0  0  0  0  0  0  0  0  0  0
   61.1090   29.7150   46.0040 C   0  0  0  0  0  0  0  0  0  0  0  0
   61.1534   29.7298   47.1030 H   0  0  0  0  0  0  0  0  0  0  0  0
   61.8691   29.0212   45.6156 H   0  0  0  0  0  0  0  0  0  0  0  0
   61.3026   30.7258   45.6156 H   0  0  0  0  0  0  0  0  0  0  0  0
   59.3950   27.9460   45.3700 C   0  0  0  0  0  0  0  0  0  0  0  0
   60.0295   27.0644   45.5439 H   0  0  0  0  0  0  0  0  0  0  0  0
   58.0900   27.9440   44.9140 C   0  0  0  0  0  0  0  0  0  0  0  0
   57.4540   26.8140   44.5440 C   0  0  0  0  0  0  0  0  0  0  0  0
   57.2751   26.6686   43.4684 H   0  0  0  0  0  0  0  0  0  0  0  0
   56.9780   25.7580   45.4520 C   0  0  0  0  0  0  0  0  0  0  0  0
   57.7220   24.7200   45.8770 N   0  0  0  0  0  0  0  0  0  0  0  0
   56.9170   24.1080   46.7740 C   0  0  0  0  0  0  0  0  0  0  0  0
   57.2580   23.0630   47.3870 O   0  0  0  0  0  0  0  0  0  0  0  0
   55.7230   24.7090   46.9660 N   0  0  0  0  0  0  0  0  0  0  0  0
   55.7860   25.7610   46.1330 C   0  0  0  0  0  0  0  0  0  0  0  0
   54.7740   26.7030   46.0010 O   0  0  0  0  0  0  0  0  0  0  0  0
   57.6700   29.2860   44.9150 C   0  0  0  0  0  0  0  0  0  0  0  0
   56.4170   29.7300   44.7180 C   0  0  0  0  0  0  0  0  0  0  0  0
   56.2059   30.8093   44.7412 H   0  0  0  0  0  0  0  0  0  0  0  0
   55.6025   29.0141   44.5335 H   0  0  0  0  0  0  0  0  0  0  0  0
   58.5450   31.3430   47.8790 C   0  0  0  0  0  0  0  0  0  0  0  0
   57.8608   30.4950   47.7285 H   0  0  0  0  0  0  0  0  0  0  0  0
   58.8590   31.7590   49.1750 C   0  0  0  0  0  0  0  0  0  0  0  0
   58.4084   31.2467   50.0379 H   0  0  0  0  0  0  0  0  0  0  0  0
   58.1980   32.2640   52.0400 C   0  0  0  0  0  0  0  0  0  0  0  0
   57.4176   32.3668   51.2716 H   0  0  0  0  0  0  0  0  0  0  0  0
   56.1990   28.8260   54.3430 C   0  0  0  0  0  0  0  0  0  0  0  0
   57.2150   28.6510   55.3380 N   0  0  0  0  0  0  0  0  0  0  0  0
   57.1770   27.8260   55.9790 H   0  0  0  0  0  0  0  0  0  0  0  0
   58.0730   29.2400   55.3680 H   0  0  0  0  0  0  0  0  0  0  0  0
   55.3330   27.8700   54.1670 N   0  0  0  0  0  0  0  0  0  0  0  0
   54.3060   27.9040   53.1620 C   0  0  0  0  0  0  0  0  0  0  0  0
   53.3430   26.8510   53.1140 N   0  0  0  0  0  0  0  0  0  0  0  0
   53.3650   26.0870   53.8250 H   0  0  0  0  0  0  0  0  0  0  0  0
   52.5900   26.8450   52.3920 H   0  0  0  0  0  0  0  0  0  0  0  0
   54.2730   28.8650   52.2820 N   0  0  0  0  0  0  0  0  0  0  0  0
   53.5480   28.8530   51.5270 H   0  0  0  0  0  0  0  0  0  0  0  0
  1  2  1  0
  2  3  2  0
  3  4  1  0
  4  5  2  0
  5  6  1  0
  5  7  1  0
  7  8  1  0
  8  9  1  0
  9 10  1  0
  9 11  1  0
  9 12  1  0
 12 13  1  0
 12 14  1  0
 12 15  1  0
  8 16  2  0
 16 17  1  0
 16 18  1  0
 18 19  1  0
 19 20  2  0
 19 21  1  0
 21 22  2  0
 22 23  1  0
 22 24  1  0
 24 25  1  0
 24 26  2  0
 26 27  1  0
 27 28  1  0
 27 29  1  0
 27 30  1  0
 30 31  1  0
 31 32  1  0
 32 33  1  0
 32 34  1  0
 32 35  1  0
 31 36  2  0
 36 37  1  0
 36 38  1  0
 38 39  2  3
 39 40  1  0
 39 41  1  0
 41 42  1  0
 42 43  1  0
 43 44  2  0
 43 45  1  0
 45 46  1  0
 46 47  1  0
 38 48  1  0
 48 49  2  0
 49 50  1  0
 49 51  1  0
 26 52  1  0
 52 53  1  0
 52 54  2  0
 54 55  1  0
 18 56  1  0
 56 57  1  0
  4 58  1  0
 58 59  1  0
 59 60  1  0
 59 61  1  0
 58 62  2  0
 62 63  1  0
 63 64  1  0
 64 65  1  0
 64 66  1  0
 63 67  2  0
 67 68  1  0
 67  3  1  0
 56  7  2  0
 54 21  1  0
 48 30  1  0
 46 41  2  0
M  CHG  4  42  -1  45  -1  47  -1  67   1
M  END
>  <UniqueID>  (33) 
32

>  <SMILES>  (33) 
[H]/N=C1\[NH+]=C(N)N=C(N)C1=Cc1cn(C(=O)c2ccc(Cn3c(C)cc(=Cc4[n-]c(=O)[n-]c4[O-])c3=C)cc2)cc1CCF

>  <Energy>  (33) 
179.1751649844367

>  <Genealogy>  (33) 
C=c1c(=Cc2[n-]c(=O)[n-]c2[O-])cc(C)n1Cc1ccc(C(=O)n2cc(C=C3C(=N)[NH+]=C(N)N=C3N)c(CCF)c2)cc1 (protonated)
[H]/N=C1\[NH+]=C(N)N=C(N)C1=Cc1cn(C(=O)c2ccc(Cn3c(C)cc(=Cc4[n-]c(=O)[n-]c4[O-])c3=C)cc2)cc1CCF (cis-trans isomerization)
[H]/N=C1\[NH+]=C(N)N=C(N)C1=Cc1cn(C(=O)c2ccc(Cn3c(C)cc(=Cc4[n-]c(=O)[n-]c4[O-])c3=C)cc2)cc1CCF (3D coordinates assigned)
[H]/N=C1\[NH+]=C(N)N=C(N)C1=Cc1cn(C(=O)c2ccc(Cn3c(C)cc(=Cc4[n-]c(=O)[n-]c4[O-])c3=C)cc2)cc1CCF (nonaromatic ring conformer: 179.1751649844367 kcal/mol)

>  <smiles>  (33) 
C=c1c(=Cc2[nH]c(=O)[nH]c2O)cc(C)n1Cc1ccc(C(=O)n2cc(C=C3C(=N)N=C(N)N=C3N)c(CCF)c2)cc1

>  <score_type>  (33) 
oracle

>  <origin>  (33) 
adg

>  <m_score__min__energy>  (33) 
-18.530000000000001

>  <m_primary>  (33) 
energy

$$$$
33:0
     RDKit          3D

 57 60  0  0  0  0  0  0  0  0999 V2000
   59.5960   28.4600   48.8900 C   0  0  0  0  0  0  0  0  0  0  0  0
   59.3830   29.7350   49.6320 C   0  0  0  0  0  0  0  0  0  0  0  0
   58.2100   30.0740   50.2100 N   0  0  0  0  0  0  0  0  0  0  0  0
   58.2970   31.2520   50.8850 C   0  0  0  0  0  0  0  0  0  0  0  0
   57.1110   31.8480   51.5740 C   0  0  0  0  0  0  0  0  0  0  0  0
   59.5580   31.8470   50.8500 C   0  0  0  0  0  0  0  0  0  0  0  0
   60.0310   33.3570   51.6150 S   0  0  0  0  0  0  0  0  0  0  0  0
   60.0810   33.1290   53.1000 O   0  0  0  0  0  0  0  0  0  0  0  0
   58.9920   34.4080   51.3430 O   0  0  0  0  0  0  0  0  0  0  0  0
   61.6040   33.9070   51.0870 N   0  0  0  0  0  0  0  0  0  0  0  0
   61.9360   33.6510   49.6740 C   0  0  1  0  0  0  0  0  0  0  0  0
   61.0610   34.4850   48.7140 C   0  0  0  0  0  0  0  0  0  0  0  0
   60.2400   33.6060   47.8030 C   0  0  0  0  0  0  0  0  0  0  0  0
   60.7990   32.4570   47.2240 C   0  0  0  0  0  0  0  0  0  0  0  0
   60.0270   31.6340   46.3990 C   0  0  0  0  0  0  0  0  0  0  0  0
   58.6800   31.9430   46.1410 C   0  0  0  0  0  0  0  0  0  0  0  0
   57.8590   31.0670   45.2660 C   0  0  0  0  0  0  0  0  0  0  0  0
   57.5470   31.4610   43.9530 C   0  0  0  0  0  0  0  0  0  0  0  0
   56.7830   30.6310   43.1280 C   0  0  0  0  0  0  0  0  0  0  0  0
   56.3140   29.4050   43.6050 C   0  0  0  0  0  0  0  0  0  0  0  0
   56.5940   29.0040   44.9220 C   0  0  0  0  0  0  0  0  0  0  0  0
   56.1500   27.7350   45.4290 N   0  0  0  0  0  0  0  0  0  0  0  0
   57.0130   26.7790   46.0740 C   0  0  0  0  0  0  0  0  0  0  0  0
   58.2160   27.0660   46.3090 O   0  0  0  0  0  0  0  0  0  0  0  0
   56.5200   25.5010   46.4990 N   0  0  0  0  0  0  0  0  0  0  0  0
   55.4570   24.9040   46.0460 C   0  0  0  0  0  0  0  0  0  0  0  0
   54.2980   25.5310   45.7500 N   0  0  0  0  0  0  0  0  0  0  0  0
   53.3770   24.6630   45.2540 C   0  0  0  0  0  0  0  0  0  0  0  0
   53.8070   23.3460   45.1420 C   0  0  0  0  0  0  0  0  0  0  0  0
   55.3980   23.2670   45.6850 S   0  0  0  0  0  0  0  0  0  0  0  0
   57.3830   29.8290   45.7380 C   0  0  0  0  0  0  0  0  0  0  0  0
   58.1220   33.0930   46.7270 C   0  0  0  0  0  0  0  0  0  0  0  0
   58.8940   33.9150   47.5500 C   0  0  0  0  0  0  0  0  0  0  0  0
   63.4140   33.7640   49.3940 C   0  0  0  0  0  0  0  0  0  0  0  0
   63.8210   33.8150   48.2030 O   0  0  0  0  0  0  0  0  0  0  0  0
   64.3400   33.7660   50.4300 O   0  0  0  0  0  0  0  0  0  0  0  0
   60.5870   30.8660   49.9510 S   0  0  0  0  0  0  0  0  0  0  0  0
   59.7335   27.6371   49.6069 H   0  0  0  0  0  0  0  0  0  0  0  0
   58.7200   28.2530   48.2577 H   0  0  0  0  0  0  0  0  0  0  0  0
   60.4917   28.5490   48.2577 H   0  0  0  0  0  0  0  0  0  0  0  0
   57.2471   31.7796   52.6634 H   0  0  0  0  0  0  0  0  0  0  0  0
   57.0100   32.9039   51.2827 H   0  0  0  0  0  0  0  0  0  0  0  0
   56.2035   31.2989   51.2827 H   0  0  0  0  0  0  0  0  0  0  0  0
   61.6857   32.5990   49.4724 H   0  0  0  0  0  0  0  0  0  0  0  0
   60.3828   35.1162   49.3070 H   0  0  0  0  0  0  0  0  0  0  0  0
   61.7261   35.1000   48.0899 H   0  0  0  0  0  0  0  0  0  0  0  0
   61.8509   32.2022   47.4203 H   0  0  0  0  0  0  0  0  0  0  0  0
   60.4771   30.7373   45.9480 H   0  0  0  0  0  0  0  0  0  0  0  0
   57.9064   32.4285   43.5727 H   0  0  0  0  0  0  0  0  0  0  0  0
   56.5503   30.9444   42.0996 H   0  0  0  0  0  0  0  0  0  0  0  0
   55.7231   28.7509   42.9470 H   0  0  0  0  0  0  0  0  0  0  0  0
   55.1520   27.4810   45.2630 H   0  0  0  0  0  0  0  0  0  0  0  0
   52.3648   24.9799   44.9624 H   0  0  0  0  0  0  0  0  0  0  0  0
   53.2111   22.5021   44.7642 H   0  0  0  0  0  0  0  0  0  0  0  0
   57.6326   29.5045   46.7590 H   0  0  0  0  0  0  0  0  0  0  0  0
   57.0690   33.3469   46.5355 H   0  0  0  0  0  0  0  0  0  0  0  0
   58.4447   34.8109   48.0033 H   0  0  0  0  0  0  0  0  0  0  0  0
  1  2  1  0
  2  3  2  0
  3  4  1  0
  4  5  1  0
  4  6  2  0
  6  7  1  0
  7  8  2  0
  7  9  2  0
  7 10  1  0
 10 11  1  0
 11 12  1  0
 12 13  1  0
 13 14  2  0
 14 15  1  0
 15 16  2  0
 16 17  1  0
 17 18  2  0
 18 19  1  0
 19 20  2  0
 20 21  1  0
 21 22  1  0
 22 23  1  0
 23 24  2  0
 23 25  1  0
 25 26  2  3
 26 27  1  0
 27 28  1  0
 28 29  2  0
 29 30  1  0
 21 31  2  0
 16 32  1  0
 32 33  2  0
 11 34  1  0
 34 35  2  0
 34 36  1  0
  6 37  1  0
 37  2  1  0
 33 13  1  0
 31 17  1  0
 30 26  1  0
  1 38  1  0
  1 39  1  0
  1 40  1  0
  5 41  1  0
  5 42  1  0
  5 43  1  0
 11 44  1  6
 12 45  1  0
 12 46  1  0
 14 47  1  0
 15 48  1  0
 18 49  1  0
 19 50  1  0
 20 51  1  0
 22 52  1  0
 28 53  1  0
 29 54  1  0
 31 55  1  0
 32 56  1  0
 33 57  1  0
M  CHG  3  10  -1  27  -1  36  -1
M  END
>  <UniqueID>  (34) 
33

>  <SMILES>  (34) 
Cc1nc(C)c(S(=O)(=O)[N-][C@@H](Cc2ccc(-c3cccc(NC(=O)N=c4[n-]ccs4)c3)cc2)C(=O)[O-])s1

>  <Energy>  (34) 
134.5903895177149

>  <Genealogy>  (34) 
Cc1nc(C)c(S(=O)(=O)[N-]C(Cc2ccc(-c3cccc(NC(=O)N=c4[n-]ccs4)c3)cc2)C(=O)[O-])s1 (protonated)
Cc1nc(C)c(S(=O)(=O)[N-][C@@H](Cc2ccc(-c3cccc(NC(=O)N=c4[n-]ccs4)c3)cc2)C(=O)[O-])s1 (chirality)
Cc1nc(C)c(S(=O)(=O)[N-][C@@H](Cc2ccc(-c3cccc(NC(=O)N=c4[n-]ccs4)c3)cc2)C(=O)[O-])s1 (3D coordinates assigned)
Cc1nc(C)c(S(=O)(=O)[N-][C@@H](Cc2ccc(-c3cccc(NC(=O)N=c4[n-]ccs4)c3)cc2)C(=O)[O-])s1 (optimized conformer: 134.5903895177149 kcal/mol)

>  <smiles>  (34) 
Cc1nc(C)c(S(=O)(=O)NC(Cc2ccc(-c3cccc(NC(=O)N=c4[nH]ccs4)c3)cc2)C(=O)O)s1

>  <score_type>  (34) 
oracle

>  <origin>  (34) 
adg

>  <m_score__min__energy>  (34) 
-16.440000000000001

>  <m_primary>  (34) 
energy

$$$$
34:0
     RDKit          3D

 68 72  0  0  0  0  0  0  0  0999 V2000
   64.2880   30.1010   51.4710 C   0  0  0  0  0  0  0  0  0  0  0  0
   64.6110   31.5200   51.7030 N   0  0  0  0  0  0  0  0  0  0  0  0
   65.5670   32.0410   50.6870 C   0  0  0  0  0  0  0  0  0  0  0  0
   64.9880   33.1370   49.7710 C   0  0  0  0  0  0  0  0  0  0  0  0
   63.5900   32.8550   49.4430 N   0  0  0  0  0  0  0  0  0  0  0  0
   63.0700   33.2440   48.1580 C   0  0  0  0  0  0  0  0  0  0  0  0
   63.5080   34.2880   47.6030 O   0  0  0  0  0  0  0  0  0  0  0  0
   62.0140   32.4520   47.4890 C   0  0  0  0  0  0  0  0  0  0  0  0
   62.1780   31.0870   47.2900 C   0  0  0  0  0  0  0  0  0  0  0  0
   61.2070   30.3580   46.6090 C   0  0  0  0  0  0  0  0  0  0  0  0
   60.0350   30.9630   46.0790 C   0  0  0  0  0  0  0  0  0  0  0  0
   59.2120   30.1900   45.2100 C   0  0  0  0  0  0  0  0  0  0  0  0
   59.7130   28.8890   44.5980 C   0  0  0  0  0  0  0  0  0  0  0  0
   59.2680   27.6920   45.4060 C   0  0  0  0  0  0  0  0  0  0  0  0
   60.2180   26.8190   45.9630 C   0  0  0  0  0  0  0  0  0  0  0  0
   59.8100   25.7640   46.7850 C   0  0  0  0  0  0  0  0  0  0  0  0
   58.4530   25.5720   47.0560 C   0  0  0  0  0  0  0  0  0  0  0  0
   57.4920   26.4250   46.4900 C   0  0  0  0  0  0  0  0  0  0  0  0
   56.0940   26.2420   46.7410 N   0  0  0  0  0  0  0  0  0  0  0  0
   55.2070   25.4800   45.9150 C   0  0  0  0  0  0  0  0  0  0  0  0
   54.0780   25.9580   45.6280 O   0  0  0  0  0  0  0  0  0  0  0  0
   55.5580   24.1530   45.4890 N   0  0  0  0  0  0  0  0  0  0  0  0
   54.7220   23.3770   44.5760 C   0  0  0  0  0  0  0  0  0  0  0  0
   53.3070   23.3210   45.0850 C   0  0  0  0  0  0  0  0  0  0  0  0
   53.0210   22.6740   46.2980 C   0  0  0  0  0  0  0  0  0  0  0  0
   51.7060   22.6190   46.7750 C   0  0  0  0  0  0  0  0  0  0  0  0
   50.6690   23.1990   46.0370 C   0  0  0  0  0  0  0  0  0  0  0  0
   50.9450   23.8330   44.8230 C   0  0  0  0  0  0  0  0  0  0  0  0
   52.2590   23.8940   44.3450 C   0  0  0  0  0  0  0  0  0  0  0  0
   57.9020   27.4560   45.6360 C   0  0  0  0  0  0  0  0  0  0  0  0
   57.9630   30.5230   44.8110 N   0  0  0  0  0  0  0  0  0  0  0  0
   57.1470   31.5820   44.9790 C   0  0  0  0  0  0  0  0  0  0  0  0
   55.9850   31.4860   44.5010 O   0  0  0  0  0  0  0  0  0  0  0  0
   57.5010   32.7800   45.5900 C   0  0  0  0  0  0  0  0  0  0  0  0
   56.6460   33.7070   45.6050 O   0  0  0  0  0  0  0  0  0  0  0  0
   58.6920   33.0410   46.1620 N   0  0  0  0  0  0  0  0  0  0  0  0
   59.8160   32.3310   46.4120 C   0  0  0  0  0  0  0  0  0  0  0  0
   60.8180   33.0500   47.0880 C   0  0  0  0  0  0  0  0  0  0  0  0
   62.6540   32.5180   50.5250 C   0  0  0  0  0  0  0  0  0  0  0  0
   63.3940   32.3430   51.8570 C   0  0  0  0  0  0  0  0  0  0  0  0
   64.1714   29.5887   52.4374 H   0  0  0  0  0  0  0  0  0  0  0  0
   63.3500   30.0269   50.9012 H   0  0  0  0  0  0  0  0  0  0  0  0
   65.1015   29.6282   50.9012 H   0  0  0  0  0  0  0  0  0  0  0  0
   66.4369   32.4583   51.2153 H   0  0  0  0  0  0  0  0  0  0  0  0
   65.8267   31.1929   50.0363 H   0  0  0  0  0  0  0  0  0  0  0  0
   65.0490   34.1070   50.2862 H   0  0  0  0  0  0  0  0  0  0  0  0
   65.5710   33.1615   48.8385 H   0  0  0  0  0  0  0  0  0  0  0  0
   63.0772   30.5810   47.6714 H   0  0  0  0  0  0  0  0  0  0  0  0
   61.3518   29.2757   46.4764 H   0  0  0  0  0  0  0  0  0  0  0  0
   59.3165   28.7983   43.5760 H   0  0  0  0  0  0  0  0  0  0  0  0
   60.8127   28.9114   44.5896 H   0  0  0  0  0  0  0  0  0  0  0  0
   61.2874   26.9663   45.7514 H   0  0  0  0  0  0  0  0  0  0  0  0
   60.5584   25.0844   47.2188 H   0  0  0  0  0  0  0  0  0  0  0  0
   58.1364   24.7500   47.7149 H   0  0  0  0  0  0  0  0  0  0  0  0
   56.3970   23.6880   45.9050 H   0  0  0  0  0  0  0  0  0  0  0  0
   54.7322   23.8505   43.5832 H   0  0  0  0  0  0  0  0  0  0  0  0
   55.1193   22.3535   44.5089 H   0  0  0  0  0  0  0  0  0  0  0  0
   53.8333   22.2086   46.8756 H   0  0  0  0  0  0  0  0  0  0  0  0
   51.4882   22.1195   47.7305 H   0  0  0  0  0  0  0  0  0  0  0  0
   49.6360   23.1559   46.4125 H   0  0  0  0  0  0  0  0  0  0  0  0
   50.1279   24.2851   44.2417 H   0  0  0  0  0  0  0  0  0  0  0  0
   52.4718   24.3918   43.3875 H   0  0  0  0  0  0  0  0  0  0  0  0
   57.1486   28.0864   45.1411 H   0  0  0  0  0  0  0  0  0  0  0  0
   60.6544   34.1154   47.3073 H   0  0  0  0  0  0  0  0  0  0  0  0
   61.9158   33.3271   50.6271 H   0  0  0  0  0  0  0  0  0  0  0  0
   62.1548   31.5704   50.2742 H   0  0  0  0  0  0  0  0  0  0  0  0
   63.6801   33.3342   52.2385 H   0  0  0  0  0  0  0  0  0  0  0  0
   62.7199   31.8296   52.5584 H   0  0  0  0  0  0  0  0  0  0  0  0
  1  2  1  0
  2  3  1  0
  3  4  1  0
  4  5  1  0
  5  6  1  0
  6  7  2  0
  6  8  1  0
  8  9  2  0
  9 10  1  0
 10 11  2  0
 11 12  1  0
 12 13  1  0
 13 14  1  0
 14 15  2  0
 15 16  1  0
 16 17  2  0
 17 18  1  0
 18 19  1  0
 19 20  1  0
 20 21  2  0
 20 22  1  0
 22 23  1  0
 23 24  1  0
 24 25  2  0
 25 26  1  0
 26 27  2  0
 27 28  1  0
 28 29  2  0
 18 30  2  0
 12 31  2  0
 31 32  1  0
 32 33  2  0
 32 34  1  0
 34 35  2  0
 34 36  1  0
 36 37  1  0
 37 38  2  0
  5 39  1  0
 39 40  1  0
 40  2  1  0
 38  8  1  0
 37 11  1  0
 30 14  1  0
 29 24  1  0
  1 41  1  0
  1 42  1  0
  1 43  1  0
  3 44  1  0
  3 45  1  0
  4 46  1  0
  4 47  1  0
  9 48  1  0
 10 49  1  0
 13 50  1  0
 13 51  1  0
 15 52  1  0
 16 53  1  0
 17 54  1  0
 22 55  1  0
 23 56  1  0
 23 57  1  0
 25 58  1  0
 26 59  1  0
 27 60  1  0
 28 61  1  0
 29 62  1  0
 30 63  1  0
 38 64  1  0
 39 65  1  0
 39 66  1  0
 40 67  1  0
 40 68  1  0
M  CHG  2  19  -1  36  -1
M  END
>  <UniqueID>  (35) 
34

>  <SMILES>  (35) 
CN1CCN(C(=O)c2ccc3c(Cc4cccc([N-]C(=O)NCc5ccccc5)c4)nc(=O)c(=O)[n-]c3c2)CC1

>  <Energy>  (35) 
121.00469871068951

>  <Genealogy>  (35) 
CN1CCN(C(=O)c2ccc3c(Cc4cccc([N-]C(=O)NCc5ccccc5)c4)nc(=O)c(=O)[n-]c3c2)CC1 (protonated)
CN1CCN(C(=O)c2ccc3c(Cc4cccc([N-]C(=O)NCc5ccccc5)c4)nc(=O)c(=O)[n-]c3c2)CC1 (3D coordinates assigned)
CN1CCN(C(=O)c2ccc3c(Cc4cccc([N-]C(=O)NCc5ccccc5)c4)nc(=O)c(=O)[n-]c3c2)CC1 (nonaromatic ring conformer: 121.00469871068951 kcal/mol)

>  <smiles>  (35) 
CN1CCN(C(=O)c2ccc3c(Cc4cccc(NC(=O)NCc5ccccc5)c4)nc(=O)c(=O)[nH]c3c2)CC1

>  <score_type>  (35) 
oracle

>  <origin>  (35) 
adg

>  <m_score__min__energy>  (35) 
-13.84

>  <m_primary>  (35) 
energy

$$$$
35:0
     RDKit          3D

 57 60  0  0  0  0  0  0  0  0999 V2000
   59.2690   26.6390   48.2570 O   0  0  0  0  0  0  0  0  0  0  0  0
   59.4010   27.8830   48.1140 C   0  0  0  0  0  0  0  0  0  0  0  0
   59.5250   28.7000   49.2860 N   0  0  0  0  0  0  0  0  0  0  0  0
   59.7160   30.1220   49.3040 C   0  0  0  0  0  0  0  0  0  0  0  0
   60.8270   30.6560   48.6390 C   0  0  0  0  0  0  0  0  0  0  0  0
   61.0620   32.0360   48.6370 C   0  0  0  0  0  0  0  0  0  0  0  0
   62.4660   32.7000   47.7960 S   0  0  0  0  0  0  0  0  0  0  0  0
   62.0130   33.7760   46.8490 O   0  0  0  0  0  0  0  0  0  0  0  0
   63.1190   31.6120   46.9870 O   0  0  0  0  0  0  0  0  0  0  0  0
   63.6370   33.3570   48.9160 N   0  0  0  0  0  0  0  0  0  0  0  0
   64.5730   32.3200   49.4040 C   0  0  0  0  0  0  0  0  0  0  0  0
   64.2810   31.9140   50.8600 C   0  0  0  0  0  0  0  0  0  0  0  0
   64.3400   33.0060   51.7690 O   0  0  0  0  0  0  0  0  0  0  0  0
   63.8940   34.2390   51.2160 C   0  0  0  0  0  0  0  0  0  0  0  0
   62.9580   34.0830   50.0050 C   0  0  0  0  0  0  0  0  0  0  0  0
   60.1770   32.8870   49.3080 C   0  0  0  0  0  0  0  0  0  0  0  0
   59.0500   32.3660   49.9480 C   0  0  0  0  0  0  0  0  0  0  0  0
   58.8030   30.9890   49.9380 C   0  0  0  0  0  0  0  0  0  0  0  0
   57.6450   30.4890   50.5330 O   0  0  0  0  0  0  0  0  0  0  0  0
   59.3790   28.4640   46.7500 C   0  0  0  0  0  0  0  0  0  0  0  0
   60.3850   28.1560   45.8200 C   0  0  0  0  0  0  0  0  0  0  0  0
   60.3550   28.7090   44.5380 C   0  0  0  0  0  0  0  0  0  0  0  0
   59.3280   29.5840   44.1770 C   0  0  0  0  0  0  0  0  0  0  0  0
   58.3280   29.9160   45.0990 C   0  0  0  0  0  0  0  0  0  0  0  0
   57.0420   31.0400   44.6500 S   0  0  0  0  0  0  0  0  0  0  0  0
   57.2430   31.4740   43.2250 O   0  0  0  0  0  0  0  0  0  0  0  0
   55.7170   30.3320   44.7340 O   0  0  0  0  0  0  0  0  0  0  0  0
   57.0170   32.4570   45.6790 N   0  0  0  0  0  0  0  0  0  0  0  0
   57.1150   33.6860   44.8850 C   0  0  0  0  0  0  0  0  0  0  0  0
   58.5690   34.1290   44.8730 C   0  0  0  0  0  0  0  0  0  0  0  0
   59.2240   33.4070   46.0350 C   0  0  0  0  0  0  0  0  0  0  0  0
   58.1620   32.4710   46.5970 C   0  0  0  0  0  0  0  0  0  0  0  0
   58.3540   29.3530   46.3830 C   0  0  0  0  0  0  0  0  0  0  0  0
   61.5217   29.9845   48.1132 H   0  0  0  0  0  0  0  0  0  0  0  0
   64.4824   31.4307   48.7630 H   0  0  0  0  0  0  0  0  0  0  0  0
   65.5900   32.7375   49.3666 H   0  0  0  0  0  0  0  0  0  0  0  0
   63.2731   31.4756   50.9052 H   0  0  0  0  0  0  0  0  0  0  0  0
   65.0580   31.1959   51.1611 H   0  0  0  0  0  0  0  0  0  0  0  0
   63.3563   34.7941   51.9988 H   0  0  0  0  0  0  0  0  0  0  0  0
   64.7895   34.7682   50.8583 H   0  0  0  0  0  0  0  0  0  0  0  0
   62.0622   33.5223   50.3101 H   0  0  0  0  0  0  0  0  0  0  0  0
   62.6755   35.0827   49.6433 H   0  0  0  0  0  0  0  0  0  0  0  0
   60.3693   33.9698   49.3316 H   0  0  0  0  0  0  0  0  0  0  0  0
   58.3523   33.0427   50.4631 H   0  0  0  0  0  0  0  0  0  0  0  0
   57.3950   29.5100   50.4710 H   0  0  0  0  0  0  0  0  0  0  0  0
   61.2014   27.4752   46.1029 H   0  0  0  0  0  0  0  0  0  0  0  0
   61.1411   28.4552   43.8117 H   0  0  0  0  0  0  0  0  0  0  0  0
   59.3047   30.0138   43.1647 H   0  0  0  0  0  0  0  0  0  0  0  0
   56.7761   33.4929   43.8565 H   0  0  0  0  0  0  0  0  0  0  0  0
   56.4818   34.4722   45.3220 H   0  0  0  0  0  0  0  0  0  0  0  0
   59.0491   33.8455   43.9248 H   0  0  0  0  0  0  0  0  0  0  0  0
   58.6630   35.2210   44.9667 H   0  0  0  0  0  0  0  0  0  0  0  0
   60.0948   32.8323   45.6865 H   0  0  0  0  0  0  0  0  0  0  0  0
   59.5845   34.1130   46.7976 H   0  0  0  0  0  0  0  0  0  0  0  0
   58.5747   31.4556   46.6901 H   0  0  0  0  0  0  0  0  0  0  0  0
   57.8427   32.8184   47.5907 H   0  0  0  0  0  0  0  0  0  0  0  0
   57.5671   29.6088   47.1078 H   0  0  0  0  0  0  0  0  0  0  0  0
  1  2  2  0
  2  3  1  0
  3  4  1  0
  4  5  2  0
  5  6  1  0
  6  7  1  0
  7  8  2  0
  7  9  2  0
  7 10  1  0
 10 11  1  0
 11 12  1  0
 12 13  1  0
 13 14  1  0
 14 15  1  0
  6 16  2  0
 16 17  1  0
 17 18  2  0
 18 19  1  0
  2 20  1  0
 20 21  2  0
 21 22  1  0
 22 23  2  0
 23 24  1  0
 24 25  1  0
 25 26  2  0
 25 27  2  0
 25 28  1  0
 28 29  1  0
 29 30  1  0
 30 31  1  0
 31 32  1  0
 24 33  2  0
 18  4  1  0
 33 20  1  0
 15 10  1  0
 32 28  1  0
  5 34  1  0
 11 35  1  0
 11 36  1  0
 12 37  1  0
 12 38  1  0
 14 39  1  0
 14 40  1  0
 15 41  1  0
 15 42  1  0
 16 43  1  0
 17 44  1  0
 19 45  1  0
 21 46  1  0
 22 47  1  0
 23 48  1  0
 29 49  1  0
 29 50  1  0
 30 51  1  0
 30 52  1  0
 31 53  1  0
 31 54  1  0
 32 55  1  0
 32 56  1  0
 33 57  1  0
M  CHG  1   3  -1
M  END
>  <UniqueID>  (36) 
35

>  <SMILES>  (36) 
O=C([N-]c1cc(S(=O)(=O)N2CCOCC2)ccc1O)c1cccc(S(=O)(=O)N2CCCC2)c1

>  <Energy>  (36) 
78.74833722738725

>  <Genealogy>  (36) 
O=C([N-]c1cc(S(=O)(=O)N2CCOCC2)ccc1O)c1cccc(S(=O)(=O)N2CCCC2)c1 (protonated)
O=C([N-]c1cc(S(=O)(=O)N2CCOCC2)ccc1O)c1cccc(S(=O)(=O)N2CCCC2)c1 (3D coordinates assigned)
O=C([N-]c1cc(S(=O)(=O)N2CCOCC2)ccc1O)c1cccc(S(=O)(=O)N2CCCC2)c1 (nonaromatic ring conformer: 78.74833722738725 kcal/mol)

>  <smiles>  (36) 
O=C(Nc1cc(S(=O)(=O)N2CCOCC2)ccc1O)c1cccc(S(=O)(=O)N2CCCC2)c1

>  <score_type>  (36) 
oracle

>  <origin>  (36) 
adg

>  <m_score__min__energy>  (36) 
-12.82

>  <m_primary>  (36) 
energy

$$$$
36:0
     RDKit          3D

 62 65  0  0  0  0  0  0  0  0999 V2000
   63.2410   34.1690   46.8430 C   0  0  0  0  0  0  0  0  0  0  0  0
   62.0220   33.4650   47.4810 C   0  0  0  0  0  0  0  0  0  0  0  0
   62.2690   31.9400   47.4020 C   0  0  0  0  0  0  0  0  0  0  0  0
   61.9070   33.9040   48.9790 C   0  0  0  0  0  0  0  0  0  0  0  0
   60.4670   33.9650   49.5580 C   0  0  2  0  0  0  0  0  0  0  0  0
   60.4460   33.6060   50.9950 N   0  0  0  0  0  0  0  0  0  0  0  0
   59.2540   34.1170   51.6990 C   0  0  0  0  0  0  0  0  0  0  0  0
   58.5480   33.0140   52.4500 C   0  0  0  0  0  0  0  0  0  0  0  0
   57.3400   32.4980   51.9460 C   0  0  0  0  0  0  0  0  0  0  0  0
   56.6590   31.4890   52.6320 C   0  0  0  0  0  0  0  0  0  0  0  0
   55.1440   30.8710   52.0020 Cl  0  0  0  0  0  0  0  0  0  0  0  0
   57.1840   30.9740   53.8200 C   0  0  0  0  0  0  0  0  0  0  0  0
   58.3910   31.4650   54.3230 C   0  0  0  0  0  0  0  0  0  0  0  0
   59.0790   32.4790   53.6450 C   0  0  0  0  0  0  0  0  0  0  0  0
   60.6060   33.0440   54.3150 Cl  0  0  0  0  0  0  0  0  0  0  0  0
   59.5440   33.0770   48.7530 C   0  0  0  0  0  0  0  0  0  0  0  0
   58.8930   32.1900   49.2850 O   0  0  0  0  0  0  0  0  0  0  0  0
   59.4050   33.3550   47.2760 C   0  0  2  0  0  0  0  0  0  0  0  0
   58.8160   32.1750   46.5250 C   0  0  0  0  0  0  0  0  0  0  0  0
   58.1070   32.3900   45.4590 N   0  0  0  0  0  0  0  0  0  0  0  0
   57.4210   31.1340   44.4990 S   0  0  0  0  0  0  0  0  0  0  0  0
   57.9620   31.2210   43.1000 O   0  0  0  0  0  0  0  0  0  0  0  0
   55.9250   31.2690   44.4930 O   0  0  0  0  0  0  0  0  0  0  0  0
   57.8770   29.6160   45.2180 C   0  0  0  0  0  0  0  0  0  0  0  0
   57.4490   28.4120   44.6430 C   0  0  0  0  0  0  0  0  0  0  0  0
   57.8060   27.1810   45.2210 C   0  0  0  0  0  0  0  0  0  0  0  0
   57.3860   25.9210   44.6650 N   0  0  0  0  0  0  0  0  0  0  0  0
   56.4540   24.7310   45.5180 S   0  0  0  0  0  0  0  0  0  0  0  0
   56.0420   23.3760   44.4370 C   0  0  0  0  0  0  0  0  0  0  0  0
   57.2190   24.2330   46.7120 O   0  0  0  0  0  0  0  0  0  0  0  0
   55.1780   25.3650   45.9940 O   0  0  0  0  0  0  0  0  0  0  0  0
   58.6080   27.1830   46.3730 C   0  0  0  0  0  0  0  0  0  0  0  0
   59.0340   28.3860   46.9420 C   0  0  0  0  0  0  0  0  0  0  0  0
   58.6700   29.6140   46.3720 C   0  0  0  0  0  0  0  0  0  0  0  0
   59.1270   30.8390   46.9770 N   0  0  0  0  0  0  0  0  0  0  0  0
   60.7470   33.8630   46.6740 C   0  0  0  0  0  0  0  0  0  0  0  0
   63.9009   34.5501   47.6362 H   0  0  0  0  0  0  0  0  0  0  0  0
   63.7940   33.4512   46.2193 H   0  0  0  0  0  0  0  0  0  0  0  0
   62.8957   35.0067   46.2193 H   0  0  0  0  0  0  0  0  0  0  0  0
   62.3360   31.5262   48.4190 H   0  0  0  0  0  0  0  0  0  0  0  0
   61.4367   31.4611   46.8654 H   0  0  0  0  0  0  0  0  0  0  0  0
   63.2099   31.7483   46.8654 H   0  0  0  0  0  0  0  0  0  0  0  0
   62.3506   34.9063   49.0717 H   0  0  0  0  0  0  0  0  0  0  0  0
   62.4287   33.1279   49.5582 H   0  0  0  0  0  0  0  0  0  0  0  0
   60.1058   35.0011   49.4802 H   0  0  0  0  0  0  0  0  0  0  0  0
   60.3940   32.5620   51.0680 H   0  0  0  0  0  0  0  0  0  0  0  0
   59.5646   34.8947   52.4122 H   0  0  0  0  0  0  0  0  0  0  0  0
   58.5593   34.5298   50.9527 H   0  0  0  0  0  0  0  0  0  0  0  0
   56.9286   32.8918   51.0049 H   0  0  0  0  0  0  0  0  0  0  0  0
   56.6460   30.1808   54.3599 H   0  0  0  0  0  0  0  0  0  0  0  0
   58.8031   31.0533   55.2561 H   0  0  0  0  0  0  0  0  0  0  0  0
   58.6776   34.1708   47.1516 H   0  0  0  0  0  0  0  0  0  0  0  0
   56.8300   28.4300   43.7339 H   0  0  0  0  0  0  0  0  0  0  0  0
   57.7090   25.6600   43.7090 H   0  0  0  0  0  0  0  0  0  0  0  0
   55.7742   22.4951   45.0389 H   0  0  0  0  0  0  0  0  0  0  0  0
   55.1894   23.6594   43.8023 H   0  0  0  0  0  0  0  0  0  0  0  0
   56.9080   23.1369   43.8023 H   0  0  0  0  0  0  0  0  0  0  0  0
   58.9040   26.2283   46.8323 H   0  0  0  0  0  0  0  0  0  0  0  0
   59.6609   28.3693   47.8457 H   0  0  0  0  0  0  0  0  0  0  0  0
   59.7430   30.7540   47.8180 H   0  0  0  0  0  0  0  0  0  0  0  0
   60.7043   34.9610   46.6223 H   0  0  0  0  0  0  0  0  0  0  0  0
   60.8438   33.3839   45.6886 H   0  0  0  0  0  0  0  0  0  0  0  0
  1  2  1  0
  2  3  1  0
  2  4  1  0
  4  5  1  0
  5  6  1  0
  6  7  1  0
  7  8  1  0
  8  9  2  0
  9 10  1  0
 10 11  1  0
 10 12  2  0
 12 13  1  0
 13 14  2  0
 14 15  1  0
  5 16  1  0
 16 17  2  0
 16 18  1  0
 18 19  1  0
 19 20  2  0
 20 21  1  0
 21 22  2  0
 21 23  2  0
 21 24  1  0
 24 25  2  0
 25 26  1  0
 26 27  1  0
 27 28  1  0
 28 29  1  0
 28 30  2  0
 28 31  2  0
 26 32  2  0
 32 33  1  0
 33 34  2  0
 34 35  1  0
 18 36  1  0
 36  2  1  0
 14  8  1  0
 35 19  1  0
 34 24  1  0
  1 37  1  0
  1 38  1  0
  1 39  1  0
  3 40  1  0
  3 41  1  0
  3 42  1  0
  4 43  1  0
  4 44  1  0
  5 45  1  1
  6 46  1  0
  7 47  1  0
  7 48  1  0
  9 49  1  0
 12 50  1  0
 13 51  1  0
 18 52  1  1
 25 53  1  0
 27 54  1  0
 29 55  1  0
 29 56  1  0
 29 57  1  0
 32 58  1  0
 33 59  1  0
 35 60  1  0
 36 61  1  0
 36 62  1  0
M  END
>  <UniqueID>  (37) 
36

>  <SMILES>  (37) 
CC1(C)C[C@@H](C2=NS(=O)(=O)c3cc(NS(C)(=O)=O)ccc3N2)C(=O)[C@@H](NCc2cc(Cl)ccc2Cl)C1

>  <Energy>  (37) 
79.06381856300924

>  <Genealogy>  (37) 
CC1(C)C[C@@H](C2=NS(=O)(=O)c3cc(NS(C)(=O)=O)ccc3N2)C(=O)[C@@H](NCc2cc(Cl)ccc2Cl)C1 (chirality)
CC1(C)C[C@@H](C2=NS(=O)(=O)c3cc(NS(C)(=O)=O)ccc3N2)C(=O)[C@@H](NCc2cc(Cl)ccc2Cl)C1 (3D coordinates assigned)
CC1(C)C[C@@H](C2=NS(=O)(=O)c3cc(NS(C)(=O)=O)ccc3N2)C(=O)[C@@H](NCc2cc(Cl)ccc2Cl)C1 (nonaromatic ring conformer: 79.06381856300924 kcal/mol)

>  <smiles>  (37) 
CC1(C)CC(NCc2cc(Cl)ccc2Cl)C(=O)C(C2=NS(=O)(=O)c3cc(NS(C)(=O)=O)ccc3N2)C1

>  <score_type>  (37) 
oracle

>  <origin>  (37) 
adg

>  <m_score__min__energy>  (37) 
-11.449999999999999

>  <m_primary>  (37) 
energy

$$$$
37:0
     RDKit          3D

 53 55  0  0  0  0  0  0  0  0999 V2000
   58.8610   31.0480   49.6980 C   0  0  0  0  0  0  0  0  0  0  0  0
   58.8520   29.7180   49.5980 C   0  0  0  0  0  0  0  0  0  0  0  0
   59.1420   28.9840   48.3360 C   0  0  0  0  0  0  0  0  0  0  0  0
   58.5460   29.3700   47.1130 C   0  0  0  0  0  0  0  0  0  0  0  0
   58.8940   28.7270   45.9100 C   0  0  0  0  0  0  0  0  0  0  0  0
   58.3560   29.1210   44.6380 N   0  0  0  0  0  0  0  0  0  0  0  0
   57.2260   30.3930   44.2900 S   0  0  0  0  0  0  0  0  0  0  0  0
   55.9200   30.0350   44.9600 O   0  0  0  0  0  0  0  0  0  0  0  0
   56.9950   30.5170   42.8100 O   0  0  0  0  0  0  0  0  0  0  0  0
   57.8000   31.9080   44.9710 C   0  0  0  0  0  0  0  0  0  0  0  0
   57.0060   33.0640   44.8710 C   0  0  0  0  0  0  0  0  0  0  0  0
   57.3750   34.2340   45.5440 C   0  0  0  0  0  0  0  0  0  0  0  0
   58.5440   34.2610   46.3160 C   0  0  0  0  0  0  0  0  0  0  0  0
   59.3610   33.1200   46.3970 C   0  0  0  0  0  0  0  0  0  0  0  0
   60.5350   33.1340   47.2870 C   0  0  0  0  0  0  0  0  0  0  0  0
   60.4510   33.7950   48.3530 O   0  0  0  0  0  0  0  0  0  0  0  0
   61.7540   32.4010   46.9930 N   0  0  0  0  0  0  0  0  0  0  0  0
   61.9700   31.2630   47.9060 C   0  0  0  0  0  0  0  0  0  0  0  0
   62.5320   31.6700   49.2880 C   0  0  0  0  0  0  0  0  0  0  0  0
   63.2460   32.9640   49.2650 N   0  0  0  0  0  0  0  0  0  0  0  0
   64.1890   33.0670   50.3980 C   0  0  0  0  0  0  0  0  0  0  0  0
   65.6100   32.7120   49.9680 C   0  0  0  0  0  0  0  0  0  0  0  0
   63.9520   33.1410   47.9920 C   0  0  0  0  0  0  0  0  0  0  0  0
   62.9360   33.2890   46.8500 C   0  0  0  0  0  0  0  0  0  0  0  0
   58.9860   31.9430   45.7280 C   0  0  0  0  0  0  0  0  0  0  0  0
   59.7800   27.6470   45.9400 C   0  0  0  0  0  0  0  0  0  0  0  0
   60.3230   27.2080   47.1490 C   0  0  0  0  0  0  0  0  0  0  0  0
   60.0180   27.8730   48.3440 C   0  0  0  0  0  0  0  0  0  0  0  0
   60.7740   27.2870   49.8230 Cl  0  0  0  0  0  0  0  0  0  0  0  0
   58.6375   31.5286   50.6619 H   0  0  0  0  0  0  0  0  0  0  0  0
   59.0919   31.6643   48.8166 H   0  0  0  0  0  0  0  0  0  0  0  0
   58.6172   29.1310   50.4982 H   0  0  0  0  0  0  0  0  0  0  0  0
   57.8029   30.1810   47.1016 H   0  0  0  0  0  0  0  0  0  0  0  0
   56.0907   33.0486   44.2610 H   0  0  0  0  0  0  0  0  0  0  0  0
   56.7466   35.1336   45.4669 H   0  0  0  0  0  0  0  0  0  0  0  0
   58.8227   35.1760   46.8592 H   0  0  0  0  0  0  0  0  0  0  0  0
   61.6020   31.9630   46.0530 H   0  0  0  0  0  0  0  0  0  0  0  0
   61.0071   30.7537   48.0594 H   0  0  0  0  0  0  0  0  0  0  0  0
   62.7202   30.6114   47.4341 H   0  0  0  0  0  0  0  0  0  0  0  0
   61.6953   31.7444   49.9982 H   0  0  0  0  0  0  0  0  0  0  0  0
   63.2583   30.8997   49.5867 H   0  0  0  0  0  0  0  0  0  0  0  0
   64.1773   34.0978   50.7819 H   0  0  0  0  0  0  0  0  0  0  0  0
   63.8742   32.3587   51.1785 H   0  0  0  0  0  0  0  0  0  0  0  0
   66.2348   32.5559   50.8598 H   0  0  0  0  0  0  0  0  0  0  0  0
   65.5919   31.7908   49.3672 H   0  0  0  0  0  0  0  0  0  0  0  0
   66.0273   33.5335   49.3672 H   0  0  0  0  0  0  0  0  0  0  0  0
   64.5774   34.0444   48.0438 H   0  0  0  0  0  0  0  0  0  0  0  0
   64.5857   32.2620   47.8028 H   0  0  0  0  0  0  0  0  0  0  0  0
   62.5876   34.3321   46.8263 H   0  0  0  0  0  0  0  0  0  0  0  0
   63.4483   33.0004   45.9203 H   0  0  0  0  0  0  0  0  0  0  0  0
   59.6205   31.0470   45.7959 H   0  0  0  0  0  0  0  0  0  0  0  0
   60.0519   27.1384   45.0033 H   0  0  0  0  0  0  0  0  0  0  0  0
   60.9934   26.3360   47.1635 H   0  0  0  0  0  0  0  0  0  0  0  0
  1  2  2  0
  2  3  1  0
  3  4  2  0
  4  5  1  0
  5  6  1  0
  6  7  1  0
  7  8  2  0
  7  9  2  0
  7 10  1  0
 10 11  2  0
 11 12  1  0
 12 13  2  0
 13 14  1  0
 14 15  1  0
 15 16  2  0
 15 17  1  0
 17 18  1  0
 18 19  1  0
 19 20  1  0
 20 21  1  0
 21 22  1  0
 20 23  1  0
 23 24  1  0
 14 25  2  0
  5 26  2  0
 26 27  1  0
 27 28  2  0
 28 29  1  0
 28  3  1  0
 25 10  1  0
 24 17  1  0
  1 30  1  0
  1 31  1  0
  2 32  1  0
  4 33  1  0
 11 34  1  0
 12 35  1  0
 13 36  1  0
 17 37  1  0
 18 38  1  0
 18 39  1  0
 19 40  1  0
 19 41  1  0
 21 42  1  0
 21 43  1  0
 22 44  1  0
 22 45  1  0
 22 46  1  0
 23 47  1  0
 23 48  1  0
 24 49  1  0
 24 50  1  0
 25 51  1  0
 26 52  1  0
 27 53  1  0
M  CHG  2   6  -1  17   1
M  END
>  <UniqueID>  (38) 
37

>  <SMILES>  (38) 
C=Cc1cc([N-]S(=O)(=O)c2cccc(C(=O)[NH+]3CCN(CC)CC3)c2)ccc1Cl

>  <Energy>  (38) 
78.74019224827887

>  <Genealogy>  (38) 
C=Cc1cc([N-]S(=O)(=O)c2cccc(C(=O)[NH+]3CCN(CC)CC3)c2)ccc1Cl (protonated)
C=Cc1cc([N-]S(=O)(=O)c2cccc(C(=O)[NH+]3CCN(CC)CC3)c2)ccc1Cl (3D coordinates assigned)
C=Cc1cc([N-]S(=O)(=O)c2cccc(C(=O)[NH+]3CCN(CC)CC3)c2)ccc1Cl (nonaromatic ring conformer: 78.74019224827887 kcal/mol)

>  <smiles>  (38) 
C=Cc1cc(NS(=O)(=O)c2cccc(C(=O)N3CCN(CC)CC3)c2)ccc1Cl

>  <score_type>  (38) 
oracle

>  <origin>  (38) 
adg

>  <m_score__min__energy>  (38) 
-9.4000000000000004

>  <m_primary>  (38) 
energy

$$$$
38:0
     RDKit          3D

 49 51  0  0  0  0  0  0  0  0999 V2000
   58.9210   26.6450   48.1580 H   0  0  0  0  0  0  0  0  0  0  0  0
   58.4220   25.9480   47.6290 O   0  0  0  0  0  0  0  0  0  0  0  0
   57.3080   26.3000   46.8730 C   0  0  0  0  0  0  0  0  0  0  0  0
   56.2010   25.5400   46.7630 N   0  0  0  0  0  0  0  0  0  0  0  0
   55.3920   26.3030   45.9910 C   0  0  0  0  0  0  0  0  0  0  0  0
   54.2340   25.9380   45.6580 O   0  0  0  0  0  0  0  0  0  0  0  0
   55.9220   27.4870   45.6130 N   0  0  0  0  0  0  0  0  0  0  0  0
   57.1540   27.4670   46.1540 C   0  0  0  0  0  0  0  0  0  0  0  0
   58.0890   28.6030   46.0870 C   0  0  0  0  0  0  0  0  0  0  0  0
   58.2423   29.0633   45.0998 H   0  0  0  0  0  0  0  0  0  0  0  0
   58.7740   29.1320   47.1180 C   0  0  0  0  0  0  0  0  0  0  0  0
   58.5130   28.7520   48.3880 N   0  0  0  0  0  0  0  0  0  0  0  0
   59.4110   29.4260   49.1320 C   0  0  0  0  0  0  0  0  0  0  0  0
   59.4510   29.3390   50.3900 O   0  0  0  0  0  0  0  0  0  0  0  0
   60.2400   30.2140   48.4110 N   0  0  0  0  0  0  0  0  0  0  0  0
   61.3070   31.0620   48.9650 C   0  0  0  0  0  0  0  0  0  0  0  0
   61.7796   30.5420   49.8113 H   0  0  0  0  0  0  0  0  0  0  0  0
   62.0493   31.2586   48.1774 H   0  0  0  0  0  0  0  0  0  0  0  0
   60.7450   32.3750   49.4420 C   0  0  0  0  0  0  0  0  0  0  0  0
   60.0500   32.3790   50.4950 O   0  0  0  0  0  0  0  0  0  0  0  0
   61.0640   33.6330   48.7990 N   0  0  0  0  0  0  0  0  0  0  0  0
   59.9570   34.5860   48.5700 C   0  0  0  0  0  0  0  0  0  0  0  0
   59.2474   34.5233   49.4082 H   0  0  0  0  0  0  0  0  0  0  0  0
   60.3739   35.6014   48.4978 H   0  0  0  0  0  0  0  0  0  0  0  0
   59.2370   34.2670   47.2890 C   0  0  0  0  0  0  0  0  0  0  0  0
   59.6350   34.8780   46.0780 C   0  0  0  0  0  0  0  0  0  0  0  0
   60.4928   35.5665   46.0650 H   0  0  0  0  0  0  0  0  0  0  0  0
   58.9410   34.6080   44.9020 C   0  0  0  0  0  0  0  0  0  0  0  0
   59.2518   35.0846   43.9606 H   0  0  0  0  0  0  0  0  0  0  0  0
   57.8500   33.7330   44.9130 C   0  0  0  0  0  0  0  0  0  0  0  0
   57.2968   33.5333   43.9834 H   0  0  0  0  0  0  0  0  0  0  0  0
   57.4610   33.1110   46.1050 C   0  0  0  0  0  0  0  0  0  0  0  0
   56.6118   32.4118   46.1072 H   0  0  0  0  0  0  0  0  0  0  0  0
   58.1490   33.3760   47.2930 C   0  0  0  0  0  0  0  0  0  0  0  0
   57.8397   32.8883   48.2292 H   0  0  0  0  0  0  0  0  0  0  0  0
   62.3830   33.8850   48.1650 C   0  0  0  0  0  0  0  0  0  0  0  0
   62.4726   34.9741   48.0396 H   0  0  0  0  0  0  0  0  0  0  0  0
   63.5450   33.4400   49.0600 C   0  0  0  0  0  0  0  0  0  0  0  0
   63.2574   33.5501   50.1160 H   0  0  0  0  0  0  0  0  0  0  0  0
   63.7845   32.3865   48.8531 H   0  0  0  0  0  0  0  0  0  0  0  0
   64.4269   34.0640   48.8531 H   0  0  0  0  0  0  0  0  0  0  0  0
   62.4730   33.2580   46.7670 C   0  0  0  0  0  0  0  0  0  0  0  0
   62.6287   32.1731   46.8610 H   0  0  0  0  0  0  0  0  0  0  0  0
   61.5384   33.4481   46.2190 H   0  0  0  0  0  0  0  0  0  0  0  0
   63.3164   33.7034   46.2190 H   0  0  0  0  0  0  0  0  0  0  0  0
   59.7980   30.0930   47.1300 C   0  0  0  0  0  0  0  0  0  0  0  0
   60.1570   30.9100   46.1240 C   0  0  0  0  0  0  0  0  0  0  0  0
   60.9826   31.6235   46.2628 H   0  0  0  0  0  0  0  0  0  0  0  0
   59.6250   30.8648   45.1623 H   0  0  0  0  0  0  0  0  0  0  0  0
  1  2  1  0
  2  3  1  0
  3  4  1  0
  4  5  1  0
  5  6  2  0
  5  7  1  0
  7  8  1  0
  8  9  1  0
  9 10  1  0
  9 11  2  0
 11 12  1  0
 12 13  1  0
 13 14  2  0
 13 15  1  0
 15 16  1  0
 16 17  1  0
 16 18  1  0
 16 19  1  0
 19 20  2  0
 19 21  1  0
 21 22  1  0
 22 23  1  0
 22 24  1  0
 22 25  1  0
 25 26  2  0
 26 27  1  0
 26 28  1  0
 28 29  1  0
 28 30  2  0
 30 31  1  0
 30 32  1  0
 32 33  1  0
 32 34  2  0
 34 35  1  0
 21 36  1  0
 36 37  1  0
 36 38  1  0
 38 39  1  0
 38 40  1  0
 38 41  1  0
 36 42  1  0
 42 43  1  0
 42 44  1  0
 42 45  1  0
 15 46  1  0
 46 47  2  0
 47 48  1  0
 47 49  1  0
  8  3  2  0
 46 11  1  0
 34 25  1  0
M  CHG  3   4  -1   7  -1  12  -1
M  END
>  <UniqueID>  (39) 
38

>  <SMILES>  (39) 
C=c1/c(=C\c2[n-]c(=O)[n-]c2O)[n-]c(=O)n1CC(=O)N(Cc1ccccc1)C(C)C

>  <Energy>  (39) 
121.39033673664858

>  <Genealogy>  (39) 
C=c1c(=Cc2[n-]c(=O)[n-]c2O)[n-]c(=O)n1CC(=O)N(Cc1ccccc1)C(C)C (protonated)
C=c1/c(=C\c2[n-]c(=O)[n-]c2O)[n-]c(=O)n1CC(=O)N(Cc1ccccc1)C(C)C (cis-trans isomerization)
C=c1/c(=C\c2[n-]c(=O)[n-]c2O)[n-]c(=O)n1CC(=O)N(Cc1ccccc1)C(C)C (3D coordinates assigned)
C=c1/c(=C\c2[n-]c(=O)[n-]c2O)[n-]c(=O)n1CC(=O)N(Cc1ccccc1)C(C)C (optimized conformer: 121.39033673664858 kcal/mol)

>  <smiles>  (39) 
C=c1c(=Cc2[nH]c(=O)[nH]c2O)[nH]c(=O)n1CC(=O)N(Cc1ccccc1)C(C)C

>  <score_type>  (39) 
oracle

>  <origin>  (39) 
adg

>  <m_score__min__energy>  (39) 
-15.529999999999999

>  <m_primary>  (39) 
energy

$$$$
39:0
     RDKit          3D

 61 65  0  0  0  0  0  0  0  0999 V2000
   57.0430   25.6610   47.4300 O   0  0  0  0  0  0  0  0  0  0  0  0
   57.2990   25.4300   46.2220 C   0  0  0  0  0  0  0  0  0  0  0  0
   57.2600   24.1710   45.6680 O   0  0  0  0  0  0  0  0  0  0  0  0
   57.6050   24.2470   44.2920 C   0  0  1  0  0  0  0  0  0  0  0  0
   56.5550   23.5340   43.4310 C   0  0  0  0  0  0  0  0  0  0  0  0
   56.4350   22.1350   43.8350 N   0  0  0  0  0  0  0  0  0  0  0  0
   56.0830   21.6720   45.0530 C   0  0  0  0  0  0  0  0  0  0  0  0
   56.0050   20.2990   44.9430 C   0  0  0  0  0  0  0  0  0  0  0  0
   56.3160   19.9830   43.6670 N   0  0  0  0  0  0  0  0  0  0  0  0
   56.5660   21.1050   43.0120 N   0  0  0  0  0  0  0  0  0  0  0  0
   57.7220   25.7660   43.9830 C   0  0  0  0  0  0  0  0  0  0  0  0
   57.5960   26.4310   45.2720 N   0  0  0  0  0  0  0  0  0  0  0  0
   57.8800   27.8170   45.5240 C   0  0  0  0  0  0  0  0  0  0  0  0
   58.7540   28.1910   46.5640 C   0  0  0  0  0  0  0  0  0  0  0  0
   59.0800   29.5360   46.7630 C   0  0  0  0  0  0  0  0  0  0  0  0
   58.5420   30.5300   45.9290 C   0  0  0  0  0  0  0  0  0  0  0  0
   58.9080   31.9080   46.1270 N   0  0  0  0  0  0  0  0  0  0  0  0
   60.3170   32.2330   46.3750 C   0  0  0  0  0  0  0  0  0  0  0  0
   60.5400   33.7460   46.4550 C   0  0  0  0  0  0  0  0  0  0  0  0
   59.4870   34.4140   47.2470 N   0  0  0  0  0  0  0  0  0  0  0  0
   59.7550   34.6070   48.6920 C   0  0  0  0  0  0  0  0  0  0  0  0
   59.9920   33.3150   49.4700 C   0  0  0  0  0  0  0  0  0  0  0  0
   58.8700   32.6020   49.9410 C   0  0  0  0  0  0  0  0  0  0  0  0
   59.0130   31.4120   50.6500 C   0  0  0  0  0  0  0  0  0  0  0  0
   60.2790   30.9060   50.9090 C   0  0  0  0  0  0  0  0  0  0  0  0
   61.4090   31.6070   50.4960 C   0  0  0  0  0  0  0  0  0  0  0  0
   61.2950   32.8330   49.8020 C   0  0  0  0  0  0  0  0  0  0  0  0
   62.5680   33.6080   49.4790 C   0  0  0  0  0  0  0  0  0  0  0  0
   62.4250   34.9390   49.8250 F   0  0  0  0  0  0  0  0  0  0  0  0
   62.8700   33.5600   48.1240 F   0  0  0  0  0  0  0  0  0  0  0  0
   63.6430   33.0650   50.1690 F   0  0  0  0  0  0  0  0  0  0  0  0
   58.0860   34.1220   46.8610 C   0  0  0  0  0  0  0  0  0  0  0  0
   57.9510   32.9810   45.8400 C   0  0  0  0  0  0  0  0  0  0  0  0
   57.6720   30.1550   44.8860 C   0  0  0  0  0  0  0  0  0  0  0  0
   57.1890   31.0790   44.0180 F   0  0  0  0  0  0  0  0  0  0  0  0
   57.3440   28.8110   44.6860 C   0  0  0  0  0  0  0  0  0  0  0  0
   58.5519   23.7373   44.0604 H   0  0  0  0  0  0  0  0  0  0  0  0
   55.5827   24.0329   43.5567 H   0  0  0  0  0  0  0  0  0  0  0  0
   56.8665   23.5772   42.3769 H   0  0  0  0  0  0  0  0  0  0  0  0
   55.8952   22.2716   45.9559 H   0  0  0  0  0  0  0  0  0  0  0  0
   55.7393   19.5937   45.7442 H   0  0  0  0  0  0  0  0  0  0  0  0
   56.3540   19.0250   43.2500 H   0  0  0  0  0  0  0  0  0  0  0  0
   58.6968   25.9923   43.5263 H   0  0  0  0  0  0  0  0  0  0  0  0
   56.9521   26.1004   43.2720 H   0  0  0  0  0  0  0  0  0  0  0  0
   59.1820   27.4209   47.2227 H   0  0  0  0  0  0  0  0  0  0  0  0
   59.7625   29.8177   47.5783 H   0  0  0  0  0  0  0  0  0  0  0  0
   60.6270   31.7755   47.3261 H   0  0  0  0  0  0  0  0  0  0  0  0
   60.9134   31.8407   45.5381 H   0  0  0  0  0  0  0  0  0  0  0  0
   61.5155   33.9378   46.9258 H   0  0  0  0  0  0  0  0  0  0  0  0
   60.5082   34.1511   45.4328 H   0  0  0  0  0  0  0  0  0  0  0  0
   60.6498   35.2386   48.7941 H   0  0  0  0  0  0  0  0  0  0  0  0
   58.8521   35.0680   49.1188 H   0  0  0  0  0  0  0  0  0  0  0  0
   57.8612   32.9940   49.7443 H   0  0  0  0  0  0  0  0  0  0  0  0
   58.1222   30.8729   51.0049 H   0  0  0  0  0  0  0  0  0  0  0  0
   60.3900   29.9498   51.4413 H   0  0  0  0  0  0  0  0  0  0  0  0
   62.4074   31.1997   50.7135 H   0  0  0  0  0  0  0  0  0  0  0  0
   57.5267   33.8453   47.7669 H   0  0  0  0  0  0  0  0  0  0  0  0
   57.6886   35.0295   46.3830 H   0  0  0  0  0  0  0  0  0  0  0  0
   56.9297   32.5750   45.8862 H   0  0  0  0  0  0  0  0  0  0  0  0
   58.1600   33.3800   44.8365 H   0  0  0  0  0  0  0  0  0  0  0  0
   56.6633   28.5295   43.8691 H   0  0  0  0  0  0  0  0  0  0  0  0
  1  2  2  0
  2  3  1  0
  3  4  1  0
  4  5  1  0
  5  6  1  0
  6  7  1  0
  7  8  2  0
  8  9  1  0
  9 10  2  0
  4 11  1  0
 11 12  1  0
 12 13  1  0
 13 14  2  0
 14 15  1  0
 15 16  2  0
 16 17  1  0
 17 18  1  0
 18 19  1  0
 19 20  1  0
 20 21  1  0
 21 22  1  0
 22 23  2  0
 23 24  1  0
 24 25  2  0
 25 26  1  0
 26 27  2  0
 27 28  1  0
 28 29  1  0
 28 30  1  0
 28 31  1  0
 20 32  1  0
 32 33  1  0
 16 34  1  0
 34 35  1  0
 34 36  2  0
 12  2  1  0
 36 13  1  0
 10  6  1  0
 33 17  1  0
 27 22  1  0
  4 37  1  1
  5 38  1  0
  5 39  1  0
  7 40  1  0
  8 41  1  0
  9 42  1  0
 11 43  1  0
 11 44  1  0
 14 45  1  0
 15 46  1  0
 18 47  1  0
 18 48  1  0
 19 49  1  0
 19 50  1  0
 21 51  1  0
 21 52  1  0
 23 53  1  0
 24 54  1  0
 25 55  1  0
 26 56  1  0
 32 57  1  0
 32 58  1  0
 33 59  1  0
 33 60  1  0
 36 61  1  0
M  CHG  1   9   1
M  END
>  <UniqueID>  (40) 
39

>  <SMILES>  (40) 
O=C1O[C@@H](Cn2cc[nH+]n2)CN1c1ccc(N2CCN(Cc3ccccc3C(F)(F)F)CC2)c(F)c1

>  <Energy>  (40) 
140.2154211742442

>  <Genealogy>  (40) 
O=C1OC(Cn2cc[nH+]n2)CN1c1ccc(N2CCN(Cc3ccccc3C(F)(F)F)CC2)c(F)c1 (protonated)
O=C1O[C@@H](Cn2cc[nH+]n2)CN1c1ccc(N2CCN(Cc3ccccc3C(F)(F)F)CC2)c(F)c1 (chirality)
O=C1O[C@@H](Cn2cc[nH+]n2)CN1c1ccc(N2CCN(Cc3ccccc3C(F)(F)F)CC2)c(F)c1 (3D coordinates assigned)
O=C1O[C@@H](Cn2cc[nH+]n2)CN1c1ccc(N2CCN(Cc3ccccc3C(F)(F)F)CC2)c(F)c1 (nonaromatic ring conformer: 140.2154211742442 kcal/mol)

>  <smiles>  (40) 
O=C1OC(Cn2ccnn2)CN1c1ccc(N2CCN(Cc3ccccc3C(F)(F)F)CC2)c(F)c1

>  <score_type>  (40) 
oracle

>  <origin>  (40) 
adg

>  <m_score__min__energy>  (40) 
-7.4699999999999998

>  <m_primary>  (40) 
energy

$$$$
40:0
     RDKit          3D

 59 62  0  0  1  0  0  0  0  0999 V2000
   59.3070   33.4670   49.4730 C   0  0  0  0  0  0  0  0  0  0  0  0
   59.8360   33.8540   48.1800 N   0  0  0  0  0  0  0  0  0  0  0  0
   59.0900   33.8170   46.9720 C   0  0  0  0  0  0  0  0  0  0  0  0
   61.1540   30.1240   47.9930 C   0  0  0  0  0  0  0  0  0  0  0  0
   60.3530   29.0870   47.5960 C   0  0  0  0  0  0  0  0  0  0  0  0
   60.4480   28.6380   46.3980 N   0  0  0  0  0  0  0  0  0  0  0  0
   57.0370   30.6760   44.5660 C   0  0  0  0  0  0  0  0  0  0  0  0
   56.5380   30.1800   43.3880 C   0  0  0  0  0  0  0  0  0  0  0  0
   57.0050   28.9470   42.9780 C   0  0  0  0  0  0  0  0  0  0  0  0
   57.9390   28.2340   43.7210 C   0  0  0  0  0  0  0  0  0  0  0  0
   58.4530   28.7340   44.9210 C   0  0  0  0  0  0  0  0  0  0  0  0
   59.4340   27.9660   45.6870 C   0  0  0  0  0  0  0  0  0  0  0  0
   59.3360   26.6910   45.6860 O   0  0  0  0  0  0  0  0  0  0  0  0
   56.6550   31.9370   45.1310 N   0  0  0  0  0  0  0  0  0  0  0  0
   57.5080   32.8560   45.4400 C   0  0  0  0  0  0  0  0  0  0  0  0
   57.7410   33.8350   44.5370 N   0  0  0  0  0  0  0  0  0  0  0  0
   58.6470   34.7920   44.8680 C   0  0  0  0  0  0  0  0  0  0  0  0
   60.2100   30.1120   50.1560 C   0  0  0  0  0  0  0  0  0  0  0  0
   61.1070   30.6630   49.2700 C   0  0  0  0  0  0  0  0  0  0  0  0
   58.1810   32.8460   46.6580 C   0  0  0  0  0  0  0  0  0  0  0  0
   62.0620   30.6890   47.1190 O   0  0  0  0  0  0  0  0  0  0  0  0
   57.9760   29.9610   45.3110 C   0  0  0  0  0  0  0  0  0  0  0  0
   59.4870   28.5850   48.5130 N   0  0  0  0  0  0  0  0  0  0  0  0
   59.4130   29.0770   49.7530 C   0  0  0  0  0  0  0  0  0  0  0  0
   59.2970   34.7830   46.0420 N   0  0  0  0  0  0  0  0  0  0  0  0
   61.2310   34.2620   48.1080 C   0  0  2  0  0  0  0  0  0  0  0  0
   61.8850   33.5440   46.9260 C   0  0  0  0  0  0  0  0  0  0  0  0
   63.3680   33.8530   46.8840 C   0  0  0  0  0  0  0  0  0  0  0  0
   64.0570   33.3650   48.1460 C   0  0  2  0  0  0  0  0  0  0  0  0
   64.0900   31.9160   48.1610 N   0  0  0  0  0  0  0  0  0  0  0  0
   63.3730   33.9020   49.3830 C   0  0  0  0  0  0  0  0  0  0  0  0
   61.9010   33.6680   49.3420 C   0  0  0  0  0  0  0  0  0  0  0  0
   59.9198   33.9153   50.2690 H   0  0  0  0  0  0  0  0  0  0  0  0
   58.2696   33.8209   49.5656 H   0  0  0  0  0  0  0  0  0  0  0  0
   59.3302   32.3711   49.5656 H   0  0  0  0  0  0  0  0  0  0  0  0
   57.9777   32.0422   47.3809 H   0  0  0  0  0  0  0  0  0  0  0  0
   55.7987   30.7399   42.7965 H   0  0  0  0  0  0  0  0  0  0  0  0
   56.6279   28.5173   42.0382 H   0  0  0  0  0  0  0  0  0  0  0  0
   58.2813   27.2543   43.3564 H   0  0  0  0  0  0  0  0  0  0  0  0
   57.2340   33.8500   43.6070 H   0  0  0  0  0  0  0  0  0  0  0  0
   58.8543   35.5999   44.1508 H   0  0  0  0  0  0  0  0  0  0  0  0
   60.1347   30.5018   51.1819 H   0  0  0  0  0  0  0  0  0  0  0  0
   61.7608   31.4977   49.5629 H   0  0  0  0  0  0  0  0  0  0  0  0
   63.0490   30.4870   47.1100 H   0  0  0  0  0  0  0  0  0  0  0  0
   58.3491   30.3983   46.2488 H   0  0  0  0  0  0  0  0  0  0  0  0
   58.8850   27.7960   48.2050 H   0  0  0  0  0  0  0  0  0  0  0  0
   58.6962   28.6404   50.4640 H   0  0  0  0  0  0  0  0  0  0  0  0
   61.3190   35.3554   48.0253 H   0  0  0  0  0  0  0  0  0  0  0  0
   61.7426   32.4588   47.0357 H   0  0  0  0  0  0  0  0  0  0  0  0
   61.4187   33.8905   45.9919 H   0  0  0  0  0  0  0  0  0  0  0  0
   63.8159   33.3532   46.0124 H   0  0  0  0  0  0  0  0  0  0  0  0
   63.4989   34.9427   46.8100 H   0  0  0  0  0  0  0  0  0  0  0  0
   65.0900   33.7429   48.1492 H   0  0  0  0  0  0  0  0  0  0  0  0
   63.2570   31.5760   48.6830 H   0  0  0  0  0  0  0  0  0  0  0  0
   64.1330   31.5160   47.2190 H   0  0  0  0  0  0  0  0  0  0  0  0
   63.7898   33.3991   50.2681 H   0  0  0  0  0  0  0  0  0  0  0  0
   63.5476   34.9871   49.4289 H   0  0  0  0  0  0  0  0  0  0  0  0
   61.7194   32.5831   49.3500 H   0  0  0  0  0  0  0  0  0  0  0  0
   61.4668   34.1669   50.2209 H   0  0  0  0  0  0  0  0  0  0  0  0
  1  2  1  0
  2  3  1  0
  3  4  2  0
  4  5  1  0
  5  6  2  0
  6  7  1  0
  7  8  2  0
  8  9  1  0
  9 10  2  0
 10 11  1  0
 11 12  1  0
 12 13  2  0
 12 14  1  0
 14 15  2  0
 15 16  1  0
 16 17  1  0
 17 18  2  0
 18 19  1  0
 19 20  2  0
 20 21  1  0
 11 22  2  0
  5 23  1  0
 23 24  1  0
 24 25  2  0
  2 26  1  0
 26 27  1  0
 27 28  1  0
 28 29  1  0
 29 30  1  0
 29 31  1  0
 31 32  1  0
 25  3  1  0
 32 26  1  0
 22  7  1  0
 20 15  1  0
  1 33  1  0
  1 34  1  0
  1 35  1  0
  4 36  1  0
  8 37  1  0
  9 38  1  0
 10 39  1  0
 16 40  1  0
 17 41  1  0
 18 42  1  0
 19 43  1  0
 21 44  1  0
 22 45  1  0
 23 46  1  0
 24 47  1  0
 26 48  1  6
 27 49  1  0
 27 50  1  0
 28 51  1  0
 28 52  1  0
 29 53  1  6
 30 54  1  0
 30 55  1  0
 31 56  1  0
 31 57  1  0
 32 58  1  0
 32 59  1  0
M  END
>  <smiles>  (41) 
CN(c1cc(=Nc2cccc(C(=O)N=c3[nH]cccc3O)c2)[nH]cn1)C1CCC(N)CC1

>  <score_type>  (41) 
oracle

>  <origin>  (41) 
adg

>  <m_score__min__energy>  (41) 
-10.94

>  <m_primary>  (41) 
energy

$$$$
41:0
     RDKit          3D

 48 51  0  0  0  0  0  0  0  0999 V2000
   54.8380   28.4590   54.0070 C   0  0  0  0  0  0  0  0  0  0  0  0
   55.2970   29.5300   53.3500 C   0  0  0  0  0  0  0  0  0  0  0  0
   56.4690   30.1160   53.6770 N   0  0  0  0  0  0  0  0  0  0  0  0
   56.7130   31.0670   52.7560 C   0  0  0  0  0  0  0  0  0  0  0  0
   57.9020   31.9460   52.7210 C   0  0  0  0  0  0  0  0  0  0  0  0
   58.3550   32.4050   53.8030 O   0  0  0  0  0  0  0  0  0  0  0  0
   58.5590   32.3010   51.5000 N   0  0  0  0  0  0  0  0  0  0  0  0
   59.7290   33.1250   51.1420 C   0  0  0  0  0  0  0  0  0  0  0  0
   59.6230   32.9210   49.6640 C   0  0  0  0  0  0  0  0  0  0  0  0
   59.2360   34.1050   48.9680 O   0  0  0  0  0  0  0  0  0  0  0  0
   59.0710   34.1870   47.5770 C   0  0  0  0  0  0  0  0  0  0  0  0
   59.7490   35.1380   46.7920 C   0  0  0  0  0  0  0  0  0  0  0  0
   59.5430   35.1860   45.4110 C   0  0  0  0  0  0  0  0  0  0  0  0
   58.6650   34.2860   44.8000 C   0  0  0  0  0  0  0  0  0  0  0  0
   57.9910   33.3240   45.5690 C   0  0  0  0  0  0  0  0  0  0  0  0
   57.0160   32.3780   44.9170 C   0  0  0  0  0  0  0  0  0  0  0  0
   57.3220   30.9910   45.2620 N   0  0  0  0  0  0  0  0  0  0  0  0
   58.1920   33.2880   46.9580 C   0  0  0  0  0  0  0  0  0  0  0  0
   58.4440   32.0870   50.0430 C   0  0  0  0  0  0  0  0  0  0  0  0
   55.6860   31.1060   51.8300 C   0  0  0  0  0  0  0  0  0  0  0  0
   54.7600   30.1500   52.2130 C   0  0  0  0  0  0  0  0  0  0  0  0
   53.6020   29.9470   51.5530 C   0  0  0  0  0  0  0  0  0  0  0  0
   52.5290   30.9360   51.3790 C   0  0  0  0  0  0  0  0  0  0  0  0
   52.2210   31.8620   52.3040 N   0  0  0  0  0  0  0  0  0  0  0  0
   51.1280   32.4650   51.7910 C   0  0  0  0  0  0  0  0  0  0  0  0
   50.5410   33.4140   52.3740 O   0  0  0  0  0  0  0  0  0  0  0  0
   50.7050   31.9630   50.6110 N   0  0  0  0  0  0  0  0  0  0  0  0
   51.5910   30.9840   50.3690 C   0  0  0  0  0  0  0  0  0  0  0  0
   51.5200   30.1440   49.2600 O   0  0  0  0  0  0  0  0  0  0  0  0
   53.8794   28.0046   53.7163 H   0  0  0  0  0  0  0  0  0  0  0  0
   55.4192   28.0327   54.8380 H   0  0  0  0  0  0  0  0  0  0  0  0
   57.0780   29.8400   54.4770 H   0  0  0  0  0  0  0  0  0  0  0  0
   59.6112   34.1789   51.4344 H   0  0  0  0  0  0  0  0  0  0  0  0
   60.6874   32.8654   51.6154 H   0  0  0  0  0  0  0  0  0  0  0  0
   60.4546   32.5787   49.0305 H   0  0  0  0  0  0  0  0  0  0  0  0
   60.4437   35.8461   47.2674 H   0  0  0  0  0  0  0  0  0  0  0  0
   60.0730   35.9339   44.8029 H   0  0  0  0  0  0  0  0  0  0  0  0
   58.5017   34.3317   43.7132 H   0  0  0  0  0  0  0  0  0  0  0  0
   55.9985   32.6178   45.2592 H   0  0  0  0  0  0  0  0  0  0  0  0
   57.0925   32.4929   43.8257 H   0  0  0  0  0  0  0  0  0  0  0  0
   58.3570   30.8500   45.2130 H   0  0  0  0  0  0  0  0  0  0  0  0
   57.0260   30.8170   46.2490 H   0  0  0  0  0  0  0  0  0  0  0  0
   57.6540   32.5464   47.5668 H   0  0  0  0  0  0  0  0  0  0  0  0
   57.5005   32.4741   49.6306 H   0  0  0  0  0  0  0  0  0  0  0  0
   58.4343   31.0452   49.6899 H   0  0  0  0  0  0  0  0  0  0  0  0
   55.6178   31.7701   50.9557 H   0  0  0  0  0  0  0  0  0  0  0  0
   53.4468   28.9542   51.1056 H   0  0  0  0  0  0  0  0  0  0  0  0
   50.6540   29.6980   48.9890 H   0  0  0  0  0  0  0  0  0  0  0  0
  1  2  2  0
  2  3  1  0
  3  4  1  0
  4  5  1  0
  5  6  2  0
  5  7  1  0
  7  8  1  0
  8  9  1  0
  9 10  1  0
 10 11  1  0
 11 12  2  0
 12 13  1  0
 13 14  2  0
 14 15  1  0
 15 16  1  0
 16 17  1  0
 15 18  2  0
  9 19  1  0
  4 20  2  0
 20 21  1  0
 21 22  2  3
 22 23  1  0
 23 24  1  0
 24 25  1  0
 25 26  2  0
 25 27  1  0
 27 28  1  0
 28 29  1  0
 21  2  1  0
 28 23  2  0
 19  7  1  0
 18 11  1  0
  1 30  1  0
  1 31  1  0
  3 32  1  0
  8 33  1  0
  8 34  1  0
  9 35  1  0
 12 36  1  0
 13 37  1  0
 14 38  1  0
 16 39  1  0
 16 40  1  0
 17 41  1  0
 17 42  1  0
 18 43  1  0
 19 44  1  0
 19 45  1  0
 20 46  1  0
 22 47  1  0
 29 48  1  0
M  CHG  2  24  -1  27  -1
M  END
>  <UniqueID>  (42) 
40

>  <SMILES>  (42) 
C=c1[nH]c(C(=O)N2CC(Oc3cccc(CN)c3)C2)cc1=Cc1[n-]c(=O)[n-]c1O

>  <Energy>  (42) 
161.82662825026347

>  <Genealogy>  (42) 
C=c1[nH]c(C(=O)N2CC(Oc3cccc(CN)c3)C2)cc1=Cc1[n-]c(=O)[n-]c1O (protonated)
C=c1[nH]c(C(=O)N2CC(Oc3cccc(CN)c3)C2)cc1=Cc1[n-]c(=O)[n-]c1O (3D coordinates assigned)
C=c1[nH]c(C(=O)N2CC(Oc3cccc(CN)c3)C2)cc1=Cc1[n-]c(=O)[n-]c1O (nonaromatic ring conformer: 161.82662825026347 kcal/mol)

>  <smiles>  (42) 
C=c1[nH]c(C(=O)N2CC(Oc3cccc(CN)c3)C2)cc1=Cc1[nH]c(=O)[nH]c1O

>  <score_type>  (42) 
oracle

>  <origin>  (42) 
adg

>  <m_score__min__energy>  (42) 
-14.300000000000001

>  <m_primary>  (42) 
energy

$$$$
42:0
     RDKit          3D

 62 65  0  0  0  0  0  0  0  0999 V2000
   61.9630   34.5950   49.0420 C   0  0  0  0  0  0  0  0  0  0  0  0
   60.9340   34.1930   48.0280 C   0  0  0  0  0  0  0  0  0  0  0  0
   61.2480   34.1790   46.6600 C   0  0  0  0  0  0  0  0  0  0  0  0
   60.2750   33.8330   45.7170 C   0  0  0  0  0  0  0  0  0  0  0  0
   58.9760   33.5120   46.1300 C   0  0  0  0  0  0  0  0  0  0  0  0
   57.7670   33.0680   44.9280 S   0  0  0  0  0  0  0  0  0  0  0  0
   56.6710   34.0990   44.8870 O   0  0  0  0  0  0  0  0  0  0  0  0
   58.4280   33.0140   43.5780 O   0  0  0  0  0  0  0  0  0  0  0  0
   57.0930   31.5060   45.3280 N   0  0  0  0  0  0  0  0  0  0  0  0
   56.4790   30.8690   44.1360 C   0  0  0  0  0  0  0  0  0  0  0  0
   57.3080   29.7110   43.5640 C   0  0  0  0  0  0  0  0  0  0  0  0
   57.5980   28.7320   44.6170 N   0  0  0  0  0  0  0  0  0  0  0  0
   57.9590   27.3850   44.2550 C   0  0  0  0  0  0  0  0  0  0  0  0
   58.5070   27.1700   43.1390 O   0  0  0  0  0  0  0  0  0  0  0  0
   57.7080   26.2450   45.1620 C   0  0  0  0  0  0  0  0  0  0  0  0
   56.8800   26.3940   46.2880 C   0  0  0  0  0  0  0  0  0  0  0  0
   56.6330   25.3070   47.1300 C   0  0  0  0  0  0  0  0  0  0  0  0
   57.2020   24.0620   46.8560 C   0  0  0  0  0  0  0  0  0  0  0  0
   58.0220   23.8970   45.7310 C   0  0  0  0  0  0  0  0  0  0  0  0
   58.7210   22.3220   45.3560 S   0  0  0  0  0  0  0  0  0  0  0  0
   60.2190   22.4210   45.4340 O   0  0  0  0  0  0  0  0  0  0  0  0
   58.2600   21.2970   46.3550 O   0  0  0  0  0  0  0  0  0  0  0  0
   58.2640   21.8290   43.7550 N   0  0  0  0  0  0  0  0  0  0  0  0
   57.0230   21.0530   43.8110 C   0  0  0  0  0  0  0  0  0  0  0  0
   55.9370   21.8810   44.4410 C   0  0  0  0  0  0  0  0  0  0  0  0
   55.5450   23.0960   43.8570 C   0  0  0  0  0  0  0  0  0  0  0  0
   54.5570   23.8820   44.4590 C   0  0  0  0  0  0  0  0  0  0  0  0
   53.9640   23.4650   45.6550 C   0  0  0  0  0  0  0  0  0  0  0  0
   54.3610   22.2650   46.2510 C   0  0  0  0  0  0  0  0  0  0  0  0
   55.3490   21.4770   45.6510 C   0  0  0  0  0  0  0  0  0  0  0  0
   58.2620   24.9850   44.8820 C   0  0  0  0  0  0  0  0  0  0  0  0
   57.7520   29.1990   46.0020 C   0  0  0  0  0  0  0  0  0  0  0  0
   58.1130   30.6860   46.0160 C   0  0  0  0  0  0  0  0  0  0  0  0
   58.6560   33.5370   47.4940 C   0  0  0  0  0  0  0  0  0  0  0  0
   59.6290   33.8810   48.4380 C   0  0  0  0  0  0  0  0  0  0  0  0
   61.5614   34.4381   50.0540 H   0  0  0  0  0  0  0  0  0  0  0  0
   62.8680   33.9843   48.9079 H   0  0  0  0  0  0  0  0  0  0  0  0
   62.2144   35.6575   48.9079 H   0  0  0  0  0  0  0  0  0  0  0  0
   62.2635   34.4412   46.3283 H   0  0  0  0  0  0  0  0  0  0  0  0
   60.5309   33.8129   44.6474 H   0  0  0  0  0  0  0  0  0  0  0  0
   55.4893   30.4816   44.4195 H   0  0  0  0  0  0  0  0  0  0  0  0
   56.4175   31.6397   43.3535 H   0  0  0  0  0  0  0  0  0  0  0  0
   56.7420   29.2215   42.7578 H   0  0  0  0  0  0  0  0  0  0  0  0
   58.2552   30.1066   43.1687 H   0  0  0  0  0  0  0  0  0  0  0  0
   56.4244   27.3709   46.5072 H   0  0  0  0  0  0  0  0  0  0  0  0
   55.9879   25.4325   48.0121 H   0  0  0  0  0  0  0  0  0  0  0  0
   57.0067   23.2097   47.5234 H   0  0  0  0  0  0  0  0  0  0  0  0
   58.0770   22.7030   43.2110 H   0  0  0  0  0  0  0  0  0  0  0  0
   56.7223   20.7697   42.7915 H   0  0  0  0  0  0  0  0  0  0  0  0
   57.1862   20.1467   44.4126 H   0  0  0  0  0  0  0  0  0  0  0  0
   56.0170   23.4314   42.9217 H   0  0  0  0  0  0  0  0  0  0  0  0
   54.2464   24.8281   43.9917 H   0  0  0  0  0  0  0  0  0  0  0  0
   53.1849   24.0818   46.1267 H   0  0  0  0  0  0  0  0  0  0  0  0
   53.8960   21.9396   47.1933 H   0  0  0  0  0  0  0  0  0  0  0  0
   55.6664   20.5381   46.1283 H   0  0  0  0  0  0  0  0  0  0  0  0
   58.8896   24.8515   43.9885 H   0  0  0  0  0  0  0  0  0  0  0  0
   56.8069   29.0485   46.5444 H   0  0  0  0  0  0  0  0  0  0  0  0
   58.5564   28.6276   46.4883 H   0  0  0  0  0  0  0  0  0  0  0  0
   58.1952   31.0225   47.0600 H   0  0  0  0  0  0  0  0  0  0  0  0
   59.0675   30.8108   45.4836 H   0  0  0  0  0  0  0  0  0  0  0  0
   57.6370   33.2854   47.8231 H   0  0  0  0  0  0  0  0  0  0  0  0
   59.3699   33.9071   49.5067 H   0  0  0  0  0  0  0  0  0  0  0  0
  1  2  1  0
  2  3  2  0
  3  4  1  0
  4  5  2  0
  5  6  1  0
  6  7  2  0
  6  8  2  0
  6  9  1  0
  9 10  1  0
 10 11  1  0
 11 12  1  0
 12 13  1  0
 13 14  2  0
 13 15  1  0
 15 16  2  0
 16 17  1  0
 17 18  2  0
 18 19  1  0
 19 20  1  0
 20 21  2  0
 20 22  2  0
 20 23  1  0
 23 24  1  0
 24 25  1  0
 25 26  2  0
 26 27  1  0
 27 28  2  0
 28 29  1  0
 29 30  2  0
 19 31  2  0
 12 32  1  0
 32 33  1  0
  5 34  1  0
 34 35  2  0
 35  2  1  0
 33  9  1  0
 31 15  1  0
 30 25  1  0
  1 36  1  0
  1 37  1  0
  1 38  1  0
  3 39  1  0
  4 40  1  0
 10 41  1  0
 10 42  1  0
 11 43  1  0
 11 44  1  0
 16 45  1  0
 17 46  1  0
 18 47  1  0
 23 48  1  0
 24 49  1  0
 24 50  1  0
 26 51  1  0
 27 52  1  0
 28 53  1  0
 29 54  1  0
 30 55  1  0
 31 56  1  0
 32 57  1  0
 32 58  1  0
 33 59  1  0
 33 60  1  0
 34 61  1  0
 35 62  1  0
M  END
>  <UniqueID>  (43) 
41

>  <SMILES>  (43) 
Cc1ccc(S(=O)(=O)N2CCN(C(=O)c3cccc(S(=O)(=O)NCc4ccccc4)c3)CC2)cc1

>  <Energy>  (43) 
71.3666762885576

>  <Genealogy>  (43) 
Cc1ccc(S(=O)(=O)N2CCN(C(=O)c3cccc(S(=O)(=O)NCc4ccccc4)c3)CC2)cc1 (3D coordinates assigned)
Cc1ccc(S(=O)(=O)N2CCN(C(=O)c3cccc(S(=O)(=O)NCc4ccccc4)c3)CC2)cc1 (nonaromatic ring conformer: 71.3666762885576 kcal/mol)

>  <smiles>  (43) 
Cc1ccc(S(=O)(=O)N2CCN(C(=O)c3cccc(S(=O)(=O)NCc4ccccc4)c3)CC2)cc1

>  <score_type>  (43) 
oracle

>  <origin>  (43) 
adg

>  <m_score__min__energy>  (43) 
-10.59

>  <m_primary>  (43) 
energy

$$$$
43:0
     RDKit          3D

 43 45  0  0  0  0  0  0  0  0999 V2000
   57.7840   32.2750   42.7780 C   0  0  0  0  0  0  0  0  0  0  0  0
   57.3940   32.2190   44.2150 C   0  0  0  0  0  0  0  0  0  0  0  0
   56.3550   31.5810   44.5030 O   0  0  0  0  0  0  0  0  0  0  0  0
   58.2250   32.8950   45.2090 C   0  0  0  0  0  0  0  0  0  0  0  0
   58.2660   34.2710   45.3230 C   0  0  0  0  0  0  0  0  0  0  0  0
   59.0330   34.9220   46.2770 C   0  0  0  0  0  0  0  0  0  0  0  0
   59.8030   34.1910   47.1680 C   0  0  0  0  0  0  0  0  0  0  0  0
   59.7630   32.8260   47.0540 C   0  0  0  0  0  0  0  0  0  0  0  0
   58.9870   32.1670   46.0910 C   0  0  0  0  0  0  0  0  0  0  0  0
   59.0690   30.7160   46.1020 C   0  0  0  0  0  0  0  0  0  0  0  0
   60.1470   30.0790   46.2620 O   0  0  0  0  0  0  0  0  0  0  0  0
   57.9000   29.8980   45.9260 N   0  0  0  0  0  0  0  0  0  0  0  0
   58.0010   28.4680   45.9320 C   0  0  0  0  0  0  0  0  0  0  0  0
   57.8000   27.7080   47.0400 C   0  0  0  0  0  0  0  0  0  0  0  0
   57.9100   26.3370   46.9230 C   0  0  0  0  0  0  0  0  0  0  0  0
   58.2150   25.7010   45.7330 C   0  0  0  0  0  0  0  0  0  0  0  0
   58.3220   24.2230   45.6550 C   0  0  0  0  0  0  0  0  0  0  0  0
   57.5490   23.6140   44.5640 C   0  0  0  0  0  0  0  0  0  0  0  0
   56.8160   24.2330   43.5910 N   0  0  0  0  0  0  0  0  0  0  0  0
   56.2770   23.3130   42.8030 N   0  0  0  0  0  0  0  0  0  0  0  0
   56.6260   22.0740   43.2190 C   0  0  0  0  0  0  0  0  0  0  0  0
   56.3050   20.9550   42.7220 O   0  0  0  0  0  0  0  0  0  0  0  0
   57.4300   22.2550   44.3300 C   0  0  0  0  0  0  0  0  0  0  0  0
   57.9860   21.1970   45.0380 O   0  0  0  0  0  0  0  0  0  0  0  0
   58.4100   26.5170   44.6390 C   0  0  0  0  0  0  0  0  0  0  0  0
   58.3070   27.8750   44.7320 C   0  0  0  0  0  0  0  0  0  0  0  0
   58.8700   32.4309   42.6986 H   0  0  0  0  0  0  0  0  0  0  0  0
   57.5126   31.3287   42.2873 H   0  0  0  0  0  0  0  0  0  0  0  0
   57.2573   33.1067   42.2873 H   0  0  0  0  0  0  0  0  0  0  0  0
   57.6650   34.8755   44.6278 H   0  0  0  0  0  0  0  0  0  0  0  0
   59.0304   36.0209   46.3269 H   0  0  0  0  0  0  0  0  0  0  0  0
   60.4194   34.6851   47.9334 H   0  0  0  0  0  0  0  0  0  0  0  0
   60.3657   32.2218   47.7480 H   0  0  0  0  0  0  0  0  0  0  0  0
   56.9520   30.3080   45.7830 H   0  0  0  0  0  0  0  0  0  0  0  0
   57.5557   28.1735   48.0062 H   0  0  0  0  0  0  0  0  0  0  0  0
   57.7473   25.7204   47.8193 H   0  0  0  0  0  0  0  0  0  0  0  0
   59.3811   23.9620   45.5132 H   0  0  0  0  0  0  0  0  0  0  0  0
   57.9043   23.8286   46.5931 H   0  0  0  0  0  0  0  0  0  0  0  0
   56.6980   25.2850   43.4840 H   0  0  0  0  0  0  0  0  0  0  0  0
   55.6510   23.4580   41.9560 H   0  0  0  0  0  0  0  0  0  0  0  0
   58.1070   20.3260   44.4940 H   0  0  0  0  0  0  0  0  0  0  0  0
   58.6545   26.0627   43.6675 H   0  0  0  0  0  0  0  0  0  0  0  0
   58.4701   28.4980   43.8402 H   0  0  0  0  0  0  0  0  0  0  0  0
  1  2  1  0
  2  3  2  0
  2  4  1  0
  4  5  2  0
  5  6  1  0
  6  7  2  0
  7  8  1  0
  8  9  2  0
  9 10  1  0
 10 11  2  0
 10 12  1  0
 12 13  1  0
 13 14  2  0
 14 15  1  0
 15 16  2  0
 16 17  1  0
 17 18  1  0
 18 19  1  0
 19 20  1  0
 20 21  1  0
 21 22  2  0
 21 23  1  0
 23 24  1  0
 16 25  1  0
 25 26  2  0
  9  4  1  0
 26 13  1  0
 23 18  2  0
  1 27  1  0
  1 28  1  0
  1 29  1  0
  5 30  1  0
  6 31  1  0
  7 32  1  0
  8 33  1  0
 12 34  1  0
 14 35  1  0
 15 36  1  0
 17 37  1  0
 17 38  1  0
 19 39  1  0
 20 40  1  0
 24 41  1  0
 25 42  1  0
 26 43  1  0
M  END
>  <smiles>  (44) 
CC(=O)c1ccccc1C(=O)Nc1ccc(Cc2[nH][nH]c(=O)c2O)cc1

>  <score_type>  (44) 
oracle

>  <origin>  (44) 
adg

>  <m_score__min__energy>  (44) 
-9

>  <m_primary>  (44) 
energy

$$$$
44:0
     RDKit          3D

 50 52  0  0  0  0  0  0  0  0999 V2000
   56.4200   23.5410   43.4260 C   0  0  0  0  0  0  0  0  0  0  0  0
   57.3530   24.5590   44.0720 C   0  0  0  0  0  0  0  0  0  0  0  0
   57.1400   24.6110   45.4820 O   0  0  0  0  0  0  0  0  0  0  0  0
   56.5890   25.7190   46.1380 C   0  0  0  0  0  0  0  0  0  0  0  0
   55.3500   25.7880   46.3630 O   0  0  0  0  0  0  0  0  0  0  0  0
   57.4830   26.8390   46.5670 C   0  0  0  0  0  0  0  0  0  0  0  0
   57.0330   28.1330   45.9570 C   0  0  0  0  0  0  0  0  0  0  0  0
   55.8970   28.2610   45.2480 N   0  0  0  0  0  0  0  0  0  0  0  0
   55.9190   29.5500   44.8550 C   0  0  0  0  0  0  0  0  0  0  0  0
   55.0060   30.0630   44.1570 O   0  0  0  0  0  0  0  0  0  0  0  0
   57.0010   30.2450   45.2600 N   0  0  0  0  0  0  0  0  0  0  0  0
   57.7020   29.3430   45.9730 C   0  0  0  0  0  0  0  0  0  0  0  0
   59.0510   29.6200   46.5710 C   0  0  0  0  0  0  0  0  0  0  0  0
   58.9270   30.3300   47.9010 C   0  0  0  0  0  0  0  0  0  0  0  0
   59.0260   29.5650   49.0770 C   0  0  0  0  0  0  0  0  0  0  0  0
   58.9180   30.1620   50.3330 C   0  0  0  0  0  0  0  0  0  0  0  0
   58.7130   31.5400   50.4400 C   0  0  0  0  0  0  0  0  0  0  0  0
   58.6050   32.1470   51.6890 O   0  0  0  0  0  0  0  0  0  0  0  0
   58.6200   32.3180   49.2850 C   0  0  0  0  0  0  0  0  0  0  0  0
   58.7300   31.7360   48.0080 C   0  0  0  0  0  0  0  0  0  0  0  0
   58.6870   32.6590   46.8070 C   0  0  0  0  0  0  0  0  0  0  0  0
   59.2540   34.0400   47.1590 C   0  0  0  0  0  0  0  0  0  0  0  0
   60.7260   33.9510   47.4560 C   0  0  0  0  0  0  0  0  0  0  0  0
   61.2040   34.1760   48.7590 C   0  0  0  0  0  0  0  0  0  0  0  0
   62.5700   34.0640   49.0360 C   0  0  0  0  0  0  0  0  0  0  0  0
   63.4650   33.7230   48.0200 C   0  0  0  0  0  0  0  0  0  0  0  0
   62.9960   33.4850   46.7240 C   0  0  0  0  0  0  0  0  0  0  0  0
   61.6320   33.5940   46.4420 C   0  0  0  0  0  0  0  0  0  0  0  0
   55.8987   22.9722   44.2100 H   0  0  0  0  0  0  0  0  0  0  0  0
   55.6819   24.0650   42.8009 H   0  0  0  0  0  0  0  0  0  0  0  0
   57.0062   22.8513   42.8009 H   0  0  0  0  0  0  0  0  0  0  0  0
   58.3958   24.2702   43.8743 H   0  0  0  0  0  0  0  0  0  0  0  0
   57.1457   25.5513   43.6450 H   0  0  0  0  0  0  0  0  0  0  0  0
   57.4538   26.9260   47.6632 H   0  0  0  0  0  0  0  0  0  0  0  0
   58.5082   26.6247   46.2309 H   0  0  0  0  0  0  0  0  0  0  0  0
   59.5789   28.6668   46.7215 H   0  0  0  0  0  0  0  0  0  0  0  0
   59.6099   30.2696   45.8813 H   0  0  0  0  0  0  0  0  0  0  0  0
   59.1910   28.4798   49.0052 H   0  0  0  0  0  0  0  0  0  0  0  0
   58.9944   29.5465   51.2415 H   0  0  0  0  0  0  0  0  0  0  0  0
   59.2200   31.8970   52.4550 H   0  0  0  0  0  0  0  0  0  0  0  0
   58.4583   33.4024   49.3739 H   0  0  0  0  0  0  0  0  0  0  0  0
   59.2845   32.2207   45.9941 H   0  0  0  0  0  0  0  0  0  0  0  0
   57.6398   32.7783   46.4921 H   0  0  0  0  0  0  0  0  0  0  0  0
   59.0976   34.7216   46.3099 H   0  0  0  0  0  0  0  0  0  0  0  0
   58.7354   34.4178   48.0525 H   0  0  0  0  0  0  0  0  0  0  0  0
   60.5013   34.4409   49.5628 H   0  0  0  0  0  0  0  0  0  0  0  0
   62.9401   34.2448   50.0560 H   0  0  0  0  0  0  0  0  0  0  0  0
   64.5399   33.6415   48.2390 H   0  0  0  0  0  0  0  0  0  0  0  0
   63.7019   33.2117   45.9259 H   0  0  0  0  0  0  0  0  0  0  0  0
   61.2657   33.3998   45.4231 H   0  0  0  0  0  0  0  0  0  0  0  0
  1  2  1  0
  2  3  1  0
  3  4  1  0
  4  5  2  0
  4  6  1  0
  6  7  1  0
  7  8  1  0
  8  9  1  0
  9 10  2  0
  9 11  1  0
 11 12  1  0
 12 13  1  0
 13 14  1  0
 14 15  2  0
 15 16  1  0
 16 17  2  0
 17 18  1  0
 17 19  1  0
 19 20  2  0
 20 21  1  0
 21 22  1  0
 22 23  1  0
 23 24  2  0
 24 25  1  0
 25 26  2  0
 26 27  1  0
 27 28  2  0
 12  7  2  0
 20 14  1  0
 28 23  1  0
  1 29  1  0
  1 30  1  0
  1 31  1  0
  2 32  1  0
  2 33  1  0
  6 34  1  0
  6 35  1  0
 13 36  1  0
 13 37  1  0
 15 38  1  0
 16 39  1  0
 18 40  1  0
 19 41  1  0
 21 42  1  0
 21 43  1  0
 22 44  1  0
 22 45  1  0
 24 46  1  0
 25 47  1  0
 26 48  1  0
 27 49  1  0
 28 50  1  0
M  CHG  2   8  -1  11  -1
M  END
>  <UniqueID>  (45) 
42

>  <SMILES>  (45) 
CCOC(=O)Cc1[n-]c(=O)[n-]c1Cc1ccc(O)cc1CCc1ccccc1

>  <Energy>  (45) 
69.27546249815464

>  <Genealogy>  (45) 
CCOC(=O)Cc1[n-]c(=O)[n-]c1Cc1ccc(O)cc1CCc1ccccc1 (protonated)
CCOC(=O)Cc1[n-]c(=O)[n-]c1Cc1ccc(O)cc1CCc1ccccc1 (3D coordinates assigned)
CCOC(=O)Cc1[n-]c(=O)[n-]c1Cc1ccc(O)cc1CCc1ccccc1 (optimized conformer: 69.27546249815464 kcal/mol)

>  <smiles>  (45) 
CCOC(=O)Cc1[nH]c(=O)[nH]c1Cc1ccc(O)cc1CCc1ccccc1

>  <score_type>  (45) 
oracle

>  <origin>  (45) 
adg

>  <m_score__min__energy>  (45) 
-11.56

>  <m_primary>  (45) 
energy

$$$$
45:0
     RDKit          3D

 28 29  0  0  0  0  0  0  0  0999 V2000
   55.8920   29.5120   45.7900 H   0  0  0  0  0  0  0  0  0  0  0  0
   55.6770   28.6980   45.2290 O   0  0  0  0  0  0  0  0  0  0  0  0
   56.0320   27.4250   45.6610 C   0  0  0  0  0  0  0  0  0  0  0  0
   55.1420   26.4750   45.9990 N   0  0  0  0  0  0  0  0  0  0  0  0
   55.9330   25.4600   46.4060 C   0  0  0  0  0  0  0  0  0  0  0  0
   55.4700   24.3650   46.8190 O   0  0  0  0  0  0  0  0  0  0  0  0
   57.2580   25.7140   46.3500 N   0  0  0  0  0  0  0  0  0  0  0  0
   57.3160   26.9600   45.8480 C   0  0  0  0  0  0  0  0  0  0  0  0
   58.4340   32.0890   47.2460 C   0  0  0  0  0  0  0  0  0  0  0  0
   58.2694   33.0630   47.7299 H   0  0  0  0  0  0  0  0  0  0  0  0
   60.0930   29.3890   46.7130 C   0  0  0  0  0  0  0  0  0  0  0  0
   61.0321   28.9627   46.3303 H   0  0  0  0  0  0  0  0  0  0  0  0
   58.5770   27.7060   45.6820 C   0  0  0  0  0  0  0  0  0  0  0  0
   59.3930   27.2094   45.1365 H   0  0  0  0  0  0  0  0  0  0  0  0
   58.8050   28.9430   46.1450 C   0  0  0  0  0  0  0  0  0  0  0  0
   57.9817   29.6710   46.0990 H   0  0  0  0  0  0  0  0  0  0  0  0
   60.1320   30.3030   47.6850 C   0  0  0  0  0  0  0  0  0  0  0  0
   61.0630   30.4591   48.2497 H   0  0  0  0  0  0  0  0  0  0  0  0
   58.9350   31.1070   48.0090 C   0  0  0  0  0  0  0  0  0  0  0  0
   58.4137   30.8818   48.9511 H   0  0  0  0  0  0  0  0  0  0  0  0
   58.0830   31.9830   45.8160 C   0  0  0  0  0  0  0  0  0  0  0  0
   57.3670   31.0250   45.2720 O   0  0  0  0  0  0  0  0  0  0  0  0
   57.2380   31.2790   43.9910 C   0  0  0  0  0  0  0  0  0  0  0  0
   56.2850   30.1690   42.7690 Br  0  0  0  0  0  0  0  0  0  0  0  0
   57.8880   32.4510   43.6720 C   0  0  0  0  0  0  0  0  0  0  0  0
   57.9590   32.9226   42.6808 H   0  0  0  0  0  0  0  0  0  0  0  0
   58.4310   32.9100   44.8530 C   0  0  0  0  0  0  0  0  0  0  0  0
   59.0208   33.8270   44.9987 H   0  0  0  0  0  0  0  0  0  0  0  0
  1  2  1  0
  2  3  1  0
  3  4  1  0
  4  5  1  0
  5  6  2  0
  5  7  1  0
  7  8  1  0
  8  9  1  0
  9 10  1  0
  9 11  2  0
 11 12  1  0
 11 13  1  0
 13 14  1  0
 13 15  2  0
 15 16  1  0
 15 17  1  0
 17 18  1  0
 17 19  2  3
 19 20  1  0
 19 21  1  0
 21 22  1  0
 22 23  1  0
 23 24  1  0
 23 25  2  0
 25 26  1  0
 25 27  1  0
 27 28  1  0
  8  3  2  0
 27 21  2  0
M  CHG  2   4  -1   7  -1
M  END
>  <UniqueID>  (46) 
43

>  <SMILES>  (46) 
O=c1[n-]c(O)c(C=C/C=C/C=Cc2ccc(Br)o2)[n-]1

>  <Energy>  (46) 
88.18846270158494

>  <Genealogy>  (46) 
O=c1[n-]c(O)c(C=CC=CC=Cc2ccc(Br)o2)[n-]1 (protonated)
O=c1[n-]c(O)c(C=C/C=C/C=Cc2ccc(Br)o2)[n-]1 (cis-trans isomerization)
O=c1[n-]c(O)c(C=C/C=C/C=Cc2ccc(Br)o2)[n-]1 (3D coordinates assigned)
O=c1[n-]c(O)c(C=C/C=C/C=Cc2ccc(Br)o2)[n-]1 (optimized conformer: 88.18846270158494 kcal/mol)

>  <smiles>  (46) 
O=c1[nH]c(O)c(C=CC=CC=Cc2ccc(Br)o2)[nH]1

>  <score_type>  (46) 
oracle

>  <origin>  (46) 
adg

>  <m_score__min__energy>  (46) 
-11.51

>  <m_primary>  (46) 
energy

$$$$
46:0
     RDKit          3D

 35 37  0  0  1  0  0  0  0  0999 V2000
   58.1450   32.2790   49.5880 C   0  0  0  0  0  0  0  0  0  0  0  0
   58.8920   32.7480   48.3680 C   0  0  0  0  0  0  0  0  0  0  0  0
   58.2570   32.9720   47.1960 N   0  0  0  0  0  0  0  0  0  0  0  0
   58.9860   33.3920   46.1380 C   0  0  0  0  0  0  0  0  0  0  0  0
   58.4430   33.6280   44.9770 N   0  0  0  0  0  0  0  0  0  0  0  0
   57.7510   32.5610   44.3370 C   0  0  0  0  0  0  0  0  0  0  0  0
   57.8480   32.4340   42.9620 C   0  0  0  0  0  0  0  0  0  0  0  0
   57.2010   31.4220   42.2700 C   0  0  0  0  0  0  0  0  0  0  0  0
   56.4700   30.5630   43.0050 N   0  0  0  0  0  0  0  0  0  0  0  0
   56.3550   30.6610   44.3490 C   0  0  0  0  0  0  0  0  0  0  0  0
   55.6320   29.7880   44.9620 N   0  0  0  0  0  0  0  0  0  0  0  0
   57.0010   31.6640   45.0020 N   0  0  0  0  0  0  0  0  0  0  0  0
   60.3640   33.5930   46.2440 C   0  0  0  0  0  0  0  0  0  0  0  0
   60.9860   33.3510   47.4670 C   0  0  0  0  0  0  0  0  0  0  0  0
   62.4470   33.5550   47.6150 C   0  0  0  0  0  0  0  0  0  0  0  0
   62.8530   34.2070   48.9380 C   0  0  0  0  0  0  0  0  0  0  0  0
   63.2430   33.8370   46.3950 C   0  0  0  0  0  0  0  0  0  0  0  0
   63.4090   32.5280   47.1040 C   0  0  0  0  0  0  0  0  0  0  0  0
   60.2350   32.9350   48.5010 N   0  0  0  0  0  0  0  0  0  0  0  0
   58.6749   32.6117   50.4928 H   0  0  0  0  0  0  0  0  0  0  0  0
   57.1296   32.7020   49.5813 H   0  0  0  0  0  0  0  0  0  0  0  0
   58.0847   31.1807   49.5813 H   0  0  0  0  0  0  0  0  0  0  0  0
   58.4571   33.1583   42.4013 H   0  0  0  0  0  0  0  0  0  0  0  0
   57.2807   31.3258   41.1771 H   0  0  0  0  0  0  0  0  0  0  0  0
   55.9850   29.8020   42.4730 H   0  0  0  0  0  0  0  0  0  0  0  0
   55.5360   29.7210   45.9870 H   0  0  0  0  0  0  0  0  0  0  0  0
   60.9479   33.9363   45.3773 H   0  0  0  0  0  0  0  0  0  0  0  0
   62.4762   33.6019   49.7758 H   0  0  0  0  0  0  0  0  0  0  0  0
   63.9498   34.2692   48.9948 H   0  0  0  0  0  0  0  0  0  0  0  0
   62.4249   35.2187   48.9948 H   0  0  0  0  0  0  0  0  0  0  0  0
   62.7492   33.8708   45.4126 H   0  0  0  0  0  0  0  0  0  0  0  0
   63.9242   34.6418   46.0815 H   0  0  0  0  0  0  0  0  0  0  0  0
   63.0343   31.6009   46.6456 H   0  0  0  0  0  0  0  0  0  0  0  0
   64.2574   31.9719   47.5295 H   0  0  0  0  0  0  0  0  0  0  0  0
   60.6790   32.7440   49.4410 H   0  0  0  0  0  0  0  0  0  0  0  0
  1  2  1  0
  2  3  2  0
  3  4  1  0
  4  5  2  0
  5  6  1  0
  6  7  1  0
  7  8  2  0
  8  9  1  0
  9 10  1  0
 10 11  2  3
 10 12  1  0
  4 13  1  0
 13 14  2  0
 14 15  1  0
 15 16  1  0
 15 17  1  0
 17 18  1  0
 14 19  1  0
 19  2  1  0
 12  6  2  0
 18 15  1  0
  1 20  1  0
  1 21  1  0
  1 22  1  0
  7 23  1  0
  8 24  1  0
  9 25  1  0
 11 26  1  0
 13 27  1  0
 16 28  1  0
 16 29  1  0
 16 30  1  0
 17 31  1  0
 17 32  1  0
 18 33  1  0
 18 34  1  0
 19 35  1  0
M  END
>  <smiles>  (47) 
Cc1nc(=Nc2cc[nH]c(=N)n2)cc(C2(C)CC2)[nH]1

>  <score_type>  (47) 
oracle

>  <origin>  (47) 
adg

>  <m_score__min__energy>  (47) 
-7.5

>  <m_primary>  (47) 
energy

$$$$
47:0
     RDKit          3D

 69 72  0  0  0  0  0  0  0  0999 V2000
   60.3172   34.8678   49.0653 H   0  0  0  0  0  0  0  0  0  0  0  0
   60.2270   34.5190   48.0260 C   0  0  0  0  0  0  0  0  0  0  0  0
   61.4840   34.1830   47.3120 C   0  0  0  0  0  0  0  0  0  0  0  0
   61.4740   34.0510   46.0580 O   0  0  0  0  0  0  0  0  0  0  0  0
   62.7060   33.9250   48.0380 N   0  0  0  0  0  0  0  0  0  0  0  0
   63.6550   32.9240   47.5660 C   0  0  0  0  0  0  0  0  0  0  0  0
   63.5111   32.7617   46.4876 H   0  0  0  0  0  0  0  0  0  0  0  0
   64.6811   33.2754   47.7495 H   0  0  0  0  0  0  0  0  0  0  0  0
   63.4230   31.6090   48.3160 C   0  0  0  0  0  0  0  0  0  0  0  0
   62.6882   31.0134   47.7545 H   0  0  0  0  0  0  0  0  0  0  0  0
   64.3980   31.1057   48.3937 H   0  0  0  0  0  0  0  0  0  0  0  0
   62.9200   31.7940   49.6930 N   0  0  0  0  0  0  0  0  0  0  0  0
   62.5680   30.6130   50.4250 C   0  0  0  0  0  0  0  0  0  0  0  0
   61.3130   29.9920   50.2280 C   0  0  0  0  0  0  0  0  0  0  0  0
   60.3800   30.5220   49.2590 N   0  0  0  0  0  0  0  0  0  0  0  0
   60.7410   30.9190   48.3640 H   0  0  0  0  0  0  0  0  0  0  0  0
   58.9280   30.5740   49.4410 C   0  0  0  0  0  0  0  0  0  0  0  0
   58.4552   30.8725   48.4937 H   0  0  0  0  0  0  0  0  0  0  0  0
   58.5727   29.5787   49.7462 H   0  0  0  0  0  0  0  0  0  0  0  0
   58.5640   31.5690   50.5110 C   0  0  0  0  0  0  0  0  0  0  0  0
   59.3090   32.7520   50.6580 C   0  0  0  0  0  0  0  0  0  0  0  0
   60.1699   32.9420   50.0002 H   0  0  0  0  0  0  0  0  0  0  0  0
   58.9610   33.6880   51.6360 C   0  0  0  0  0  0  0  0  0  0  0  0
   59.5509   34.6095   51.7494 H   0  0  0  0  0  0  0  0  0  0  0  0
   57.8640   33.4540   52.4700 C   0  0  0  0  0  0  0  0  0  0  0  0
   57.5930   34.1898   53.2415 H   0  0  0  0  0  0  0  0  0  0  0  0
   57.1110   32.2850   52.3240 C   0  0  0  0  0  0  0  0  0  0  0  0
   56.2467   32.1030   52.9796 H   0  0  0  0  0  0  0  0  0  0  0  0
   57.4550   31.3470   51.3460 C   0  0  0  0  0  0  0  0  0  0  0  0
   56.8557   30.4320   51.2294 H   0  0  0  0  0  0  0  0  0  0  0  0
   61.0080   28.8560   50.9970 C   0  0  0  0  0  0  0  0  0  0  0  0
   60.0407   28.3492   50.8649 H   0  0  0  0  0  0  0  0  0  0  0  0
   61.9260   28.3680   51.9270 C   0  0  0  0  0  0  0  0  0  0  0  0
   61.6859   27.4790   52.5287 H   0  0  0  0  0  0  0  0  0  0  0  0
   63.1490   29.0150   52.0880 C   0  0  0  0  0  0  0  0  0  0  0  0
   63.8777   28.6376   52.8205 H   0  0  0  0  0  0  0  0  0  0  0  0
   63.4430   30.1110   51.3420 N   0  0  0  0  0  0  0  0  0  0  0  0
   64.3640   30.5840   51.4830 H   0  0  0  0  0  0  0  0  0  0  0  0
   62.5990   33.0860   50.3310 C   0  0  0  0  0  0  0  0  0  0  0  0
   61.5307   33.0884   50.5932 H   0  0  0  0  0  0  0  0  0  0  0  0
   63.2471   33.1790   51.2149 H   0  0  0  0  0  0  0  0  0  0  0  0
   62.8810   34.2980   49.4380 C   0  0  0  0  0  0  0  0  0  0  0  0
   62.1828   35.1095   49.6908 H   0  0  0  0  0  0  0  0  0  0  0  0
   63.9145   34.6384   49.5992 H   0  0  0  0  0  0  0  0  0  0  0  0
   58.9900   34.4340   47.5130 C   0  0  0  0  0  0  0  0  0  0  0  0
   58.2674   35.2103   47.8047 H   0  0  0  0  0  0  0  0  0  0  0  0
   58.5200   33.3820   46.5880 C   0  0  0  0  0  0  0  0  0  0  0  0
   57.4770   33.6210   45.6860 C   0  0  0  0  0  0  0  0  0  0  0  0
   57.0255   34.6222   45.6247 H   0  0  0  0  0  0  0  0  0  0  0  0
   57.0060   32.5950   44.8630 C   0  0  0  0  0  0  0  0  0  0  0  0
   56.1928   32.8033   44.1522 H   0  0  0  0  0  0  0  0  0  0  0  0
   57.5550   31.2950   44.9270 C   0  0  0  0  0  0  0  0  0  0  0  0
   56.9990   30.1840   44.0110 C   0  0  0  0  0  0  0  0  0  0  0  0
   55.5710   29.7300   44.4050 C   0  0  0  0  0  0  0  0  0  0  0  0
   55.4844   29.7025   45.5012 H   0  0  0  0  0  0  0  0  0  0  0  0
   54.8353   30.4385   43.9967 H   0  0  0  0  0  0  0  0  0  0  0  0
   55.3795   28.7267   43.9967 H   0  0  0  0  0  0  0  0  0  0  0  0
   56.9450   30.7010   42.5590 C   0  0  0  0  0  0  0  0  0  0  0  0
   56.8307   31.7950   42.5633 H   0  0  0  0  0  0  0  0  0  0  0  0
   57.8762   30.4317   42.0390 H   0  0  0  0  0  0  0  0  0  0  0  0
   56.0896   30.2451   42.0390 H   0  0  0  0  0  0  0  0  0  0  0  0
   57.9180   28.9440   44.0820 C   0  0  0  0  0  0  0  0  0  0  0  0
   58.1077   28.6880   45.1348 H   0  0  0  0  0  0  0  0  0  0  0  0
   57.4287   28.0958   43.5809 H   0  0  0  0  0  0  0  0  0  0  0  0
   58.8719   29.1654   43.5809 H   0  0  0  0  0  0  0  0  0  0  0  0
   58.5840   31.0640   45.8710 C   0  0  0  0  0  0  0  0  0  0  0  0
   59.0233   30.0593   45.9587 H   0  0  0  0  0  0  0  0  0  0  0  0
   59.0500   32.0930   46.6930 C   0  0  0  0  0  0  0  0  0  0  0  0
   59.8409   31.8870   47.4292 H   0  0  0  0  0  0  0  0  0  0  0  0
  1  2  1  0
  2  3  1  0
  3  4  2  0
  3  5  1  0
  5  6  1  0
  6  7  1  0
  6  8  1  0
  6  9  1  0
  9 10  1  0
  9 11  1  0
  9 12  1  0
 12 13  1  0
 13 14  1  0
 14 15  1  0
 15 16  1  0
 15 17  1  0
 17 18  1  0
 17 19  1  0
 17 20  1  0
 20 21  2  0
 21 22  1  0
 21 23  1  0
 23 24  1  0
 23 25  2  0
 25 26  1  0
 25 27  1  0
 27 28  1  0
 27 29  2  0
 29 30  1  0
 14 31  2  0
 31 32  1  0
 31 33  1  0
 33 34  1  0
 33 35  2  0
 35 36  1  0
 35 37  1  0
 37 38  1  0
 12 39  1  0
 39 40  1  0
 39 41  1  0
 39 42  1  0
 42 43  1  0
 42 44  1  0
  2 45  2  0
 45 46  1  0
 45 47  1  0
 47 48  2  0
 48 49  1  0
 48 50  1  0
 50 51  1  0
 50 52  2  0
 52 53  1  0
 53 54  1  0
 54 55  1  0
 54 56  1  0
 54 57  1  0
 53 58  1  0
 58 59  1  0
 58 60  1  0
 58 61  1  0
 53 62  1  0
 62 63  1  0
 62 64  1  0
 62 65  1  0
 52 66  1  0
 66 67  1  0
 66 68  2  0
 68 69  1  0
 42  5  1  0
 68 47  1  0
 37 13  2  0
 29 20  1  0
M  CHG  1  37   1
M  END
>  <UniqueID>  (48) 
44

>  <SMILES>  (48) 
CC(C)(C)c1ccc(/C=C\C(=O)N2CCN(c3[nH+]cccc3NCc3ccccc3)CC2)cc1

>  <Energy>  (48) 
90.10296105139835

>  <Genealogy>  (48) 
CC(C)(C)c1ccc(C=CC(=O)N2CCN(c3[nH+]cccc3NCc3ccccc3)CC2)cc1 (protonated)
CC(C)(C)c1ccc(/C=C\C(=O)N2CCN(c3[nH+]cccc3NCc3ccccc3)CC2)cc1 (cis-trans isomerization)
CC(C)(C)c1ccc(/C=C\C(=O)N2CCN(c3[nH+]cccc3NCc3ccccc3)CC2)cc1 (3D coordinates assigned)
CC(C)(C)c1ccc(/C=C\C(=O)N2CCN(c3[nH+]cccc3NCc3ccccc3)CC2)cc1 (nonaromatic ring conformer: 90.10296105139835 kcal/mol)

>  <smiles>  (48) 
CC(C)(C)c1ccc(C=CC(=O)N2CCN(c3ncccc3NCc3ccccc3)CC2)cc1

>  <score_type>  (48) 
oracle

>  <origin>  (48) 
adg

>  <m_score__min__energy>  (48) 
-7.5700000000000003

>  <m_primary>  (48) 
energy

$$$$
48:0
     RDKit          3D

 43 45  0  0  0  0  0  0  0  0999 V2000
   55.5190   26.4890   46.3710 O   0  0  0  0  0  0  0  0  0  0  0  0
   56.7570   26.6060   46.1720 C   0  0  0  0  0  0  0  0  0  0  0  0
   57.7100   25.8990   47.1070 C   0  0  0  0  0  0  0  0  0  0  0  0
   58.9140   26.7800   47.4710 C   0  0  0  0  0  0  0  0  0  0  0  0
   58.5290   28.0820   48.2000 C   0  0  0  0  0  0  0  0  0  0  0  0
   59.4980   29.1640   47.9450 N   0  0  0  0  0  0  0  0  0  0  0  0
   60.1980   29.1770   46.7690 C   0  0  0  0  0  0  0  0  0  0  0  0
   61.0850   30.2110   46.4800 C   0  0  0  0  0  0  0  0  0  0  0  0
   61.2590   31.2180   47.4230 C   0  0  0  0  0  0  0  0  0  0  0  0
   62.0530   32.1690   47.1980 O   0  0  0  0  0  0  0  0  0  0  0  0
   60.5740   31.1720   48.5920 N   0  0  0  0  0  0  0  0  0  0  0  0
   59.7050   30.1620   48.8630 C   0  0  0  0  0  0  0  0  0  0  0  0
   59.1000   30.1570   49.9690 O   0  0  0  0  0  0  0  0  0  0  0  0
   57.2010   27.3160   45.0070 N   0  0  0  0  0  0  0  0  0  0  0  0
   56.9790   28.5650   44.7230 C   0  0  0  0  0  0  0  0  0  0  0  0
   55.7770   29.1750   44.8440 N   0  0  0  0  0  0  0  0  0  0  0  0
   55.8450   30.4850   44.4960 C   0  0  0  0  0  0  0  0  0  0  0  0
   57.1020   30.9100   44.0770 C   0  0  0  0  0  0  0  0  0  0  0  0
   57.4880   32.3210   43.7650 C   0  0  0  0  0  0  0  0  0  0  0  0
   58.1310   32.9510   44.9700 C   0  0  0  0  0  0  0  0  0  0  0  0
   58.9900   34.0520   44.8190 C   0  0  0  0  0  0  0  0  0  0  0  0
   59.5480   34.6690   45.9420 C   0  0  0  0  0  0  0  0  0  0  0  0
   59.2400   34.2030   47.2230 C   0  0  0  0  0  0  0  0  0  0  0  0
   58.3720   33.1160   47.3850 C   0  0  0  0  0  0  0  0  0  0  0  0
   58.0490   32.6490   48.6580 O   0  0  0  0  0  0  0  0  0  0  0  0
   57.8170   32.4940   46.2610 C   0  0  0  0  0  0  0  0  0  0  0  0
   58.1690   29.6100   44.1640 S   0  0  0  0  0  0  0  0  0  0  0  0
   57.1721   25.6333   48.0290 H   0  0  0  0  0  0  0  0  0  0  0  0
   58.0868   25.0013   46.5950 H   0  0  0  0  0  0  0  0  0  0  0  0
   59.5836   26.2010   48.1240 H   0  0  0  0  0  0  0  0  0  0  0  0
   59.3978   27.0704   46.5268 H   0  0  0  0  0  0  0  0  0  0  0  0
   57.5367   28.4043   47.8515 H   0  0  0  0  0  0  0  0  0  0  0  0
   58.5236   27.8779   49.2809 H   0  0  0  0  0  0  0  0  0  0  0  0
   60.0584   28.3616   46.0440 H   0  0  0  0  0  0  0  0  0  0  0  0
   61.6353   30.2307   45.5277 H   0  0  0  0  0  0  0  0  0  0  0  0
   54.9756   31.1573   44.5415 H   0  0  0  0  0  0  0  0  0  0  0  0
   58.1992   32.3281   42.9258 H   0  0  0  0  0  0  0  0  0  0  0  0
   56.5882   32.8922   43.4928 H   0  0  0  0  0  0  0  0  0  0  0  0
   59.2244   34.4301   43.8130 H   0  0  0  0  0  0  0  0  0  0  0  0
   60.2305   35.5226   45.8174 H   0  0  0  0  0  0  0  0  0  0  0  0
   59.6800   34.6907   48.1053 H   0  0  0  0  0  0  0  0  0  0  0  0
   58.7150   32.1250   49.2140 H   0  0  0  0  0  0  0  0  0  0  0  0
   57.1316   31.6432   46.3888 H   0  0  0  0  0  0  0  0  0  0  0  0
  1  2  2  0
  2  3  1  0
  3  4  1  0
  4  5  1  0
  5  6  1  0
  6  7  1  0
  7  8  2  0
  8  9  1  0
  9 10  2  0
  9 11  1  0
 11 12  1  0
 12 13  2  0
  2 14  1  0
 14 15  2  3
 15 16  1  0
 16 17  1  0
 17 18  2  0
 18 19  1  0
 19 20  1  0
 20 21  2  0
 21 22  1  0
 22 23  2  0
 23 24  1  0
 24 25  1  0
 24 26  2  0
 18 27  1  0
 12  6  1  0
 27 15  1  0
 26 20  1  0
  3 28  1  0
  3 29  1  0
  4 30  1  0
  4 31  1  0
  5 32  1  0
  5 33  1  0
  7 34  1  0
  8 35  1  0
 17 36  1  0
 19 37  1  0
 19 38  1  0
 21 39  1  0
 22 40  1  0
 23 41  1  0
 25 42  1  0
 26 43  1  0
M  CHG  2  11  -1  16  -1
M  END
>  <UniqueID>  (49) 
45

>  <SMILES>  (49) 
O=C(CCCn1ccc(=O)[n-]c1=O)N=c1[n-]cc(Cc2cccc(O)c2)s1

>  <Energy>  (49) 
73.39071106737512

>  <Genealogy>  (49) 
O=C(CCCn1ccc(=O)[n-]c1=O)N=c1[n-]cc(Cc2cccc(O)c2)s1 (protonated)
O=C(CCCn1ccc(=O)[n-]c1=O)N=c1[n-]cc(Cc2cccc(O)c2)s1 (3D coordinates assigned)
O=C(CCCn1ccc(=O)[n-]c1=O)N=c1[n-]cc(Cc2cccc(O)c2)s1 (optimized conformer: 73.39071106737512 kcal/mol)

>  <smiles>  (49) 
O=C(CCCn1ccc(=O)[nH]c1=O)N=c1[nH]cc(Cc2cccc(O)c2)s1

>  <score_type>  (49) 
oracle

>  <origin>  (49) 
adg

>  <m_score__min__energy>  (49) 
-13.15

>  <m_primary>  (49) 
energy

$$$$
49:0
     RDKit          3D

 65 70  0  0  0  0  0  0  0  0999 V2000
   58.0110   25.0010   48.4140 O   0  0  0  0  0  0  0  0  0  0  0  0
   58.6710   25.5920   47.5230 C   0  0  0  0  0  0  0  0  0  0  0  0
   59.7950   26.3840   47.9220 N   0  0  0  0  0  0  0  0  0  0  0  0
   59.7150   27.6160   48.6490 C   0  0  0  0  0  0  0  0  0  0  0  0
   60.7330   28.0150   49.5300 C   0  0  0  0  0  0  0  0  0  0  0  0
   60.6530   29.2470   50.1880 C   0  0  0  0  0  0  0  0  0  0  0  0
   59.5460   30.0790   49.9920 C   0  0  0  0  0  0  0  0  0  0  0  0
   59.4920   31.3350   50.6760 N   0  0  0  0  0  0  0  0  0  0  0  0
   60.8610   32.3770   50.8910 S   0  0  0  0  0  0  0  0  0  0  0  0
   61.8730   31.7620   51.8170 O   0  0  0  0  0  0  0  0  0  0  0  0
   60.3880   33.6630   51.5050 O   0  0  0  0  0  0  0  0  0  0  0  0
   61.5780   32.7000   49.3070 C   0  0  0  0  0  0  0  0  0  0  0  0
   62.9270   32.3820   49.0800 C   0  0  0  0  0  0  0  0  0  0  0  0
   63.5290   32.6700   47.8530 C   0  0  0  0  0  0  0  0  0  0  0  0
   62.7970   33.2970   46.8400 C   0  0  0  0  0  0  0  0  0  0  0  0
   61.4580   33.6400   47.0560 C   0  0  0  0  0  0  0  0  0  0  0  0
   60.7130   34.2990   46.0670 C   0  0  0  0  0  0  0  0  0  0  0  0
   59.3800   34.6410   46.3120 C   0  0  0  0  0  0  0  0  0  0  0  0
   58.8010   34.3140   47.5390 C   0  0  0  0  0  0  0  0  0  0  0  0
   59.5330   33.6780   48.4890 N   0  0  0  0  0  0  0  0  0  0  0  0
   60.8390   33.3370   48.2910 C   0  0  0  0  0  0  0  0  0  0  0  0
   58.5430   29.6910   49.0890 C   0  0  0  0  0  0  0  0  0  0  0  0
   58.6330   28.4700   48.4200 C   0  0  0  0  0  0  0  0  0  0  0  0
   58.2780   25.4530   46.1040 C   0  0  0  0  0  0  0  0  0  0  0  0
   57.9990   24.1910   45.5510 C   0  0  0  0  0  0  0  0  0  0  0  0
   57.5950   24.0780   44.2190 C   0  0  0  0  0  0  0  0  0  0  0  0
   57.4680   25.2170   43.4270 C   0  0  0  0  0  0  0  0  0  0  0  0
   57.7460   26.4850   43.9570 C   0  0  0  0  0  0  0  0  0  0  0  0
   57.7560   27.6820   43.0410 C   0  0  0  0  0  0  0  0  0  0  0  0
   57.7080   28.9970   43.7800 C   0  0  0  0  0  0  0  0  0  0  0  0
   56.5510   29.7090   43.7290 N   0  0  0  0  0  0  0  0  0  0  0  0
   56.3910   30.8500   44.3920 N   0  0  0  0  0  0  0  0  0  0  0  0
   57.3630   31.3520   45.1870 C   0  0  0  0  0  0  0  0  0  0  0  0
   57.1550   32.4280   45.8120 O   0  0  0  0  0  0  0  0  0  0  0  0
   58.5820   30.6660   45.3090 C   0  0  0  0  0  0  0  0  0  0  0  0
   58.7900   29.4930   44.5450 C   0  0  0  0  0  0  0  0  0  0  0  0
   60.1590   28.8180   44.5040 C   0  0  0  0  0  0  0  0  0  0  0  0
   61.1850   29.3350   45.5450 C   0  0  0  0  0  0  0  0  0  0  0  0
   60.5300   30.0440   46.7310 C   0  0  0  0  0  0  0  0  0  0  0  0
   59.6520   31.1850   46.2340 C   0  0  0  0  0  0  0  0  0  0  0  0
   58.1580   26.5940   45.2950 C   0  0  0  0  0  0  0  0  0  0  0  0
   61.5967   27.3563   49.7035 H   0  0  0  0  0  0  0  0  0  0  0  0
   61.4634   29.5623   50.8617 H   0  0  0  0  0  0  0  0  0  0  0  0
   63.5150   31.9016   49.8760 H   0  0  0  0  0  0  0  0  0  0  0  0
   64.5824   32.4027   47.6830 H   0  0  0  0  0  0  0  0  0  0  0  0
   63.2735   33.5204   45.8741 H   0  0  0  0  0  0  0  0  0  0  0  0
   61.1768   34.5461   45.1006 H   0  0  0  0  0  0  0  0  0  0  0  0
   58.7918   35.1639   45.5435 H   0  0  0  0  0  0  0  0  0  0  0  0
   57.7501   34.5720   47.7366 H   0  0  0  0  0  0  0  0  0  0  0  0
   57.6828   30.3524   48.9084 H   0  0  0  0  0  0  0  0  0  0  0  0
   57.8473   28.1778   47.7078 H   0  0  0  0  0  0  0  0  0  0  0  0
   58.0994   23.2878   46.1708 H   0  0  0  0  0  0  0  0  0  0  0  0
   57.3765   23.0872   43.7941 H   0  0  0  0  0  0  0  0  0  0  0  0
   57.1476   25.1210   42.3791 H   0  0  0  0  0  0  0  0  0  0  0  0
   58.6757   27.6532   42.4382 H   0  0  0  0  0  0  0  0  0  0  0  0
   56.8513   27.6242   42.4179 H   0  0  0  0  0  0  0  0  0  0  0  0
   60.0123   27.7417   44.6772 H   0  0  0  0  0  0  0  0  0  0  0  0
   60.5837   29.0521   43.5167 H   0  0  0  0  0  0  0  0  0  0  0  0
   61.7614   28.4782   45.9240 H   0  0  0  0  0  0  0  0  0  0  0  0
   61.8264   30.0700   45.0367 H   0  0  0  0  0  0  0  0  0  0  0  0
   59.9122   29.3253   47.2894 H   0  0  0  0  0  0  0  0  0  0  0  0
   61.3138   30.4503   47.3872 H   0  0  0  0  0  0  0  0  0  0  0  0
   59.1775   31.6777   47.0954 H   0  0  0  0  0  0  0  0  0  0  0  0
   60.2794   31.9018   45.6840 H   0  0  0  0  0  0  0  0  0  0  0  0
   58.3893   27.5845   45.7139 H   0  0  0  0  0  0  0  0  0  0  0  0
  1  2  2  0
  2  3  1  0
  3  4  1  0
  4  5  2  0
  5  6  1  0
  6  7  2  0
  7  8  1  0
  8  9  1  0
  9 10  2  0
  9 11  2  0
  9 12  1  0
 12 13  2  0
 13 14  1  0
 14 15  2  0
 15 16  1  0
 16 17  2  0
 17 18  1  0
 18 19  2  0
 19 20  1  0
 20 21  2  0
  7 22  1  0
 22 23  2  0
  2 24  1  0
 24 25  2  0
 25 26  1  0
 26 27  2  0
 27 28  1  0
 28 29  1  0
 29 30  1  0
 30 31  2  0
 31 32  1  0
 32 33  1  0
 33 34  2  0
 33 35  1  0
 35 36  2  0
 36 37  1  0
 37 38  1  0
 38 39  1  0
 39 40  1  0
 28 41  2  0
 23  4  1  0
 41 24  1  0
 21 12  1  0
 36 30  1  0
 21 16  1  0
 40 35  1  0
  5 42  1  0
  6 43  1  0
 13 44  1  0
 14 45  1  0
 15 46  1  0
 17 47  1  0
 18 48  1  0
 19 49  1  0
 22 50  1  0
 23 51  1  0
 25 52  1  0
 26 53  1  0
 27 54  1  0
 29 55  1  0
 29 56  1  0
 37 57  1  0
 37 58  1  0
 38 59  1  0
 38 60  1  0
 39 61  1  0
 39 62  1  0
 40 63  1  0
 40 64  1  0
 41 65  1  0
M  CHG  3   3  -1   8  -1  32  -1
M  END
>  <UniqueID>  (50) 
46

>  <SMILES>  (50) 
O=C([N-]c1ccc([N-]S(=O)(=O)c2cccc3cccnc23)cc1)c1cccc(Cc2n[n-]c(=O)c3c2CCCC3)c1

>  <Energy>  (50) 
96.55067946767238

>  <Genealogy>  (50) 
O=C([N-]c1ccc([N-]S(=O)(=O)c2cccc3cccnc23)cc1)c1cccc(Cc2n[n-]c(=O)c3c2CCCC3)c1 (protonated)
O=C([N-]c1ccc([N-]S(=O)(=O)c2cccc3cccnc23)cc1)c1cccc(Cc2n[n-]c(=O)c3c2CCCC3)c1 (3D coordinates assigned)
O=C([N-]c1ccc([N-]S(=O)(=O)c2cccc3cccnc23)cc1)c1cccc(Cc2n[n-]c(=O)c3c2CCCC3)c1 (nonaromatic ring conformer: 96.55067946767238 kcal/mol)

>  <smiles>  (50) 
O=C(Nc1ccc(NS(=O)(=O)c2cccc3cccnc23)cc1)c1cccc(Cc2n[nH]c(=O)c3c2CCCC3)c1

>  <score_type>  (50) 
oracle

>  <origin>  (50) 
adg

>  <m_score__min__energy>  (50) 
-16.609999999999999

>  <m_primary>  (50) 
energy

$$$$
50:0
     RDKit          3D

 45 47  0  0  0  0  0  0  0  0999 V2000
   59.6600   34.9050   48.5460 N   0  0  0  0  0  0  0  0  0  0  0  0
   59.9810   34.8370   46.8490 S   0  0  0  0  0  0  0  0  0  0  0  0
   61.4110   34.4350   46.6250 O   0  0  0  0  0  0  0  0  0  0  0  0
   59.7620   36.1950   46.2430 O   0  0  0  0  0  0  0  0  0  0  0  0
   58.9060   33.6670   46.0900 C   0  0  0  0  0  0  0  0  0  0  0  0
   58.6410   32.4420   46.7170 C   0  0  0  0  0  0  0  0  0  0  0  0
   57.7760   31.5200   46.1210 C   0  0  0  0  0  0  0  0  0  0  0  0
   57.1790   31.8040   44.8870 C   0  0  0  0  0  0  0  0  0  0  0  0
   56.2760   30.8480   44.3160 N   0  0  0  0  0  0  0  0  0  0  0  0
   56.3440   29.4230   44.4570 C   0  0  0  0  0  0  0  0  0  0  0  0
   55.5480   28.8510   45.2480 O   0  0  0  0  0  0  0  0  0  0  0  0
   57.3740   28.5970   43.7360 C   0  0  0  0  0  0  0  0  0  0  0  0
   58.2220   27.9300   44.6700 O   0  0  0  0  0  0  0  0  0  0  0  0
   59.0010   28.5660   45.6520 C   0  0  0  0  0  0  0  0  0  0  0  0
   58.6400   28.4020   46.9930 C   0  0  0  0  0  0  0  0  0  0  0  0
   59.3780   29.0160   48.0090 C   0  0  0  0  0  0  0  0  0  0  0  0
   60.4840   29.8190   47.6980 C   0  0  0  0  0  0  0  0  0  0  0  0
   61.2400   30.4220   48.7610 N   0  0  0  0  0  0  0  0  0  0  0  0
   62.1010   31.5600   48.5910 C   0  0  0  0  0  0  0  0  0  0  0  0
   62.0450   32.6240   49.5030 C   0  0  0  0  0  0  0  0  0  0  0  0
   62.8670   33.7360   49.3120 C   0  0  0  0  0  0  0  0  0  0  0  0
   63.7260   33.7860   48.2140 C   0  0  0  0  0  0  0  0  0  0  0  0
   63.7490   32.7160   47.3170 C   0  0  0  0  0  0  0  0  0  0  0  0
   62.9430   31.6400   47.5200 N   0  0  0  0  0  0  0  0  0  0  0  0
   60.8660   29.9640   46.3540 C   0  0  0  0  0  0  0  0  0  0  0  0
   60.1290   29.3500   45.3370 C   0  0  0  0  0  0  0  0  0  0  0  0
   57.4170   33.0480   44.2770 C   0  0  0  0  0  0  0  0  0  0  0  0
   58.2800   33.9710   44.8740 C   0  0  0  0  0  0  0  0  0  0  0  0
   60.5510   35.1850   49.0140 H   0  0  0  0  0  0  0  0  0  0  0  0
   58.9830   35.6860   48.6970 H   0  0  0  0  0  0  0  0  0  0  0  0
   59.1151   32.2054   47.6810 H   0  0  0  0  0  0  0  0  0  0  0  0
   57.5631   30.5655   46.6246 H   0  0  0  0  0  0  0  0  0  0  0  0
   56.8650   27.8488   43.1106 H   0  0  0  0  0  0  0  0  0  0  0  0
   57.9875   29.2608   43.1091 H   0  0  0  0  0  0  0  0  0  0  0  0
   57.7672   27.7841   47.2507 H   0  0  0  0  0  0  0  0  0  0  0  0
   59.0888   28.8680   49.0599 H   0  0  0  0  0  0  0  0  0  0  0  0
   61.0910   30.0620   49.7310 H   0  0  0  0  0  0  0  0  0  0  0  0
   61.3589   32.5826   50.3618 H   0  0  0  0  0  0  0  0  0  0  0  0
   62.8374   34.5718   50.0265 H   0  0  0  0  0  0  0  0  0  0  0  0
   64.3776   34.6581   48.0566 H   0  0  0  0  0  0  0  0  0  0  0  0
   64.4197   32.7437   46.4456 H   0  0  0  0  0  0  0  0  0  0  0  0
   61.7515   30.5651   46.0999 H   0  0  0  0  0  0  0  0  0  0  0  0
   60.4306   29.4793   44.2871 H   0  0  0  0  0  0  0  0  0  0  0  0
   56.9222   33.2958   43.3263 H   0  0  0  0  0  0  0  0  0  0  0  0
   58.4684   34.9394   44.3875 H   0  0  0  0  0  0  0  0  0  0  0  0
  1  2  1  0
  2  3  2  0
  2  4  2  0
  2  5  1  0
  5  6  2  0
  6  7  1  0
  7  8  2  0
  8  9  1  0
  9 10  1  0
 10 11  2  0
 10 12  1  0
 12 13  1  0
 13 14  1  0
 14 15  2  0
 15 16  1  0
 16 17  2  0
 17 18  1  0
 18 19  1  0
 19 20  2  0
 20 21  1  0
 21 22  2  0
 22 23  1  0
 23 24  2  0
 17 25  1  0
 25 26  2  0
  8 27  1  0
 27 28  2  0
 28  5  1  0
 26 14  1  0
 24 19  1  0
  1 29  1  0
  1 30  1  0
  6 31  1  0
  7 32  1  0
 12 33  1  0
 12 34  1  0
 15 35  1  0
 16 36  1  0
 18 37  1  0
 20 38  1  0
 21 39  1  0
 22 40  1  0
 23 41  1  0
 25 42  1  0
 26 43  1  0
 27 44  1  0
 28 45  1  0
M  CHG  1   9  -1
M  END
>  <UniqueID>  (51) 
47

>  <SMILES>  (51) 
NS(=O)(=O)c1ccc([N-]C(=O)COc2ccc(Nc3ccccn3)cc2)cc1

>  <Energy>  (51) 
54.63297192943985

>  <Genealogy>  (51) 
NS(=O)(=O)c1ccc([N-]C(=O)COc2ccc(Nc3ccccn3)cc2)cc1 (protonated)
NS(=O)(=O)c1ccc([N-]C(=O)COc2ccc(Nc3ccccn3)cc2)cc1 (3D coordinates assigned)
NS(=O)(=O)c1ccc([N-]C(=O)COc2ccc(Nc3ccccn3)cc2)cc1 (optimized conformer: 54.63297192943985 kcal/mol)

>  <smiles>  (51) 
NS(=O)(=O)c1ccc(NC(=O)COc2ccc(Nc3ccccn3)cc2)cc1

>  <score_type>  (51) 
oracle

>  <origin>  (51) 
adg

>  <m_score__min__energy>  (51) 
-10.52

>  <m_primary>  (51) 
energy

$$$$
51:0
     RDKit          3D

 73 77  0  0  0  0  0  0  0  0999 V2000
   56.6530   29.3470   42.9420 C   0  0  0  0  0  0  0  0  0  0  0  0
   57.1390   29.7820   44.2980 C   0  0  0  0  0  0  0  0  0  0  0  0
   56.3030   30.0390   45.1520 O   0  0  0  0  0  0  0  0  0  0  0  0
   58.6130   29.9860   44.6230 C   0  0  2  0  0  0  0  0  0  0  0  0
   59.4890   28.7040   44.5940 C   0  0  0  0  0  0  0  0  0  0  0  0
   60.6750   28.9540   45.5490 C   0  0  0  0  0  0  0  0  0  0  0  0
   60.4630   30.3870   46.0120 C   0  0  2  0  0  0  0  0  0  0  0  0
   61.2620   30.9570   47.2060 C   0  0  2  0  0  0  0  0  0  0  0  0
   61.0510   30.2390   48.5470 C   0  0  0  0  0  0  0  0  0  0  0  0
   61.7640   30.9290   49.6670 C   0  0  0  0  0  0  0  0  0  0  0  0
   62.0060   32.2560   49.6900 C   0  0  0  0  0  0  0  0  0  0  0  0
   62.8330   32.8180   50.8310 C   0  0  0  0  0  0  0  0  0  0  0  0
   64.1770   33.4370   50.3160 C   0  0  1  0  0  0  0  0  0  0  0  0
   65.3770   33.1300   51.1640 N   0  0  2  0  0  0  0  0  0  0  0  0
   66.0830   34.3100   51.7130 C   0  0  0  0  0  0  0  0  0  0  0  0
   66.3070   32.1340   50.5700 C   0  0  0  0  0  0  0  0  0  0  0  0
   66.1060   30.7090   51.0420 C   0  0  0  0  0  0  0  0  0  0  0  0
   64.8600   30.2990   51.5470 C   0  0  0  0  0  0  0  0  0  0  0  0
   64.6760   28.9900   52.0010 C   0  0  0  0  0  0  0  0  0  0  0  0
   65.7410   28.0850   51.9780 C   0  0  0  0  0  0  0  0  0  0  0  0
   66.9920   28.4930   51.5100 C   0  0  0  0  0  0  0  0  0  0  0  0
   67.1780   29.8010   51.0540 C   0  0  0  0  0  0  0  0  0  0  0  0
   64.4410   33.0740   48.8260 C   0  0  0  0  0  0  0  0  0  0  0  0
   63.2720   33.4740   47.8960 C   0  0  0  0  0  0  0  0  0  0  0  0
   61.8330   33.1540   48.4560 C   0  0  2  0  0  0  0  0  0  0  0  0
   61.1890   34.4970   48.8990 C   0  0  0  0  0  0  0  0  0  0  0  0
   60.9610   32.4780   47.3160 C   0  0  2  0  0  0  0  0  0  0  0  0
   59.4210   32.7400   47.3630 C   0  0  0  0  0  0  0  0  0  0  0  0
   58.6700   32.1230   46.1480 C   0  0  0  0  0  0  0  0  0  0  0  0
   58.9350   30.6030   46.0140 C   0  0  1  0  0  0  0  0  0  0  0  0
   58.1550   29.8210   47.1270 C   0  0  0  0  0  0  0  0  0  0  0  0
   55.8382   28.6177   43.0611 H   0  0  0  0  0  0  0  0  0  0  0  0
   56.2838   30.2219   42.3868 H   0  0  0  0  0  0  0  0  0  0  0  0
   57.4818   28.8834   42.3868 H   0  0  0  0  0  0  0  0  0  0  0  0
   58.8558   30.6807   43.8054 H   0  0  0  0  0  0  0  0  0  0  0  0
   58.9038   27.8374   44.9355 H   0  0  0  0  0  0  0  0  0  0  0  0
   59.8413   28.4891   43.5743 H   0  0  0  0  0  0  0  0  0  0  0  0
   60.6477   28.2578   46.4002 H   0  0  0  0  0  0  0  0  0  0  0  0
   61.6520   28.7997   45.0678 H   0  0  0  0  0  0  0  0  0  0  0  0
   60.9724   31.0485   45.2958 H   0  0  0  0  0  0  0  0  0  0  0  0
   62.3259   30.7786   46.9909 H   0  0  0  0  0  0  0  0  0  0  0  0
   59.9745   30.2148   48.7720 H   0  0  0  0  0  0  0  0  0  0  0  0
   61.4601   29.2219   48.4574 H   0  0  0  0  0  0  0  0  0  0  0  0
   62.1092   30.3219   50.5169 H   0  0  0  0  0  0  0  0  0  0  0  0
   62.2521   33.5999   51.3421 H   0  0  0  0  0  0  0  0  0  0  0  0
   63.0739   31.9953   51.5203 H   0  0  0  0  0  0  0  0  0  0  0  0
   64.0318   34.5242   50.3994 H   0  0  0  0  0  0  0  0  0  0  0  0
   65.0090   32.6350   52.0120 H   0  0  0  0  0  0  0  0  0  0  0  0
   66.0604   34.2722   52.8121 H   0  0  0  0  0  0  0  0  0  0  0  0
   67.1273   34.3061   51.3674 H   0  0  0  0  0  0  0  0  0  0  0  0
   65.5858   35.2283   51.3674 H   0  0  0  0  0  0  0  0  0  0  0  0
   66.1757   32.1534   49.4780 H   0  0  0  0  0  0  0  0  0  0  0  0
   67.3170   32.4254   50.8939 H   0  0  0  0  0  0  0  0  0  0  0  0
   64.0242   31.0131   51.5852 H   0  0  0  0  0  0  0  0  0  0  0  0
   63.6923   28.6717   52.3767 H   0  0  0  0  0  0  0  0  0  0  0  0
   65.5940   27.0526   52.3281 H   0  0  0  0  0  0  0  0  0  0  0  0
   67.8326   27.7835   51.5003 H   0  0  0  0  0  0  0  0  0  0  0  0
   68.1698   30.1215   50.7024 H   0  0  0  0  0  0  0  0  0  0  0  0
   65.3499   33.5963   48.4927 H   0  0  0  0  0  0  0  0  0  0  0  0
   64.5532   31.9814   48.7660 H   0  0  0  0  0  0  0  0  0  0  0  0
   63.3347   34.5574   47.7163 H   0  0  0  0  0  0  0  0  0  0  0  0
   63.3867   32.8715   46.9829 H   0  0  0  0  0  0  0  0  0  0  0  0
   61.1649   34.5473   49.9976 H   0  0  0  0  0  0  0  0  0  0  0  0
   61.7830   35.3355   48.5065 H   0  0  0  0  0  0  0  0  0  0  0  0
   60.1633   34.5589   48.5065 H   0  0  0  0  0  0  0  0  0  0  0  0
   61.2873   32.9966   46.4024 H   0  0  0  0  0  0  0  0  0  0  0  0
   59.0171   32.3001   48.2868 H   0  0  0  0  0  0  0  0  0  0  0  0
   59.2679   33.8288   47.3304 H   0  0  0  0  0  0  0  0  0  0  0  0
   57.5899   32.2852   46.2783 H   0  0  0  0  0  0  0  0  0  0  0  0
   59.0385   32.6142   45.2353 H   0  0  0  0  0  0  0  0  0  0  0  0
   58.4925   30.1593   48.1178 H   0  0  0  0  0  0  0  0  0  0  0  0
   57.0768   30.0118   47.0220 H   0  0  0  0  0  0  0  0  0  0  0  0
   58.3486   28.7433   47.0220 H   0  0  0  0  0  0  0  0  0  0  0  0
  1  2  1  0
  2  3  2  0
  2  4  1  0
  4  5  1  0
  5  6  1  0
  6  7  1  0
  7  8  1  0
  8  9  1  0
  9 10  1  0
 10 11  2  0
 11 12  1  0
 12 13  1  0
 13 14  1  0
 14 15  1  0
 14 16  1  0
 16 17  1  0
 17 18  2  0
 18 19  1  0
 19 20  2  0
 20 21  1  0
 21 22  2  0
 13 23  1  0
 23 24  1  0
 24 25  1  0
 25 26  1  1
 25 27  1  0
 27 28  1  0
 28 29  1  0
 29 30  1  0
 30 31  1  1
 30  4  1  0
 30  7  1  0
 27  8  1  0
 25 11  1  0
 22 17  1  0
  1 32  1  0
  1 33  1  0
  1 34  1  0
  4 35  1  6
  5 36  1  0
  5 37  1  0
  6 38  1  0
  6 39  1  0
  7 40  1  6
  8 41  1  6
  9 42  1  0
  9 43  1  0
 10 44  1  0
 12 45  1  0
 12 46  1  0
 13 47  1  6
 14 48  1  1
 15 49  1  0
 15 50  1  0
 15 51  1  0
 16 52  1  0
 16 53  1  0
 18 54  1  0
 19 55  1  0
 20 56  1  0
 21 57  1  0
 22 58  1  0
 23 59  1  0
 23 60  1  0
 24 61  1  0
 24 62  1  0
 26 63  1  0
 26 64  1  0
 26 65  1  0
 27 66  1  6
 28 67  1  0
 28 68  1  0
 29 69  1  0
 29 70  1  0
 31 71  1  0
 31 72  1  0
 31 73  1  0
M  CHG  1  14   1
M  END
>  <UniqueID>  (52) 
48

>  <SMILES>  (52) 
CC(=O)[C@@H]1CC[C@@H]2C3CC=C4CC([NH+](C)Cc5ccccc5)CCC4(C)C3CCC21C

>  <Energy>  (52) 
128.6305763915445

>  <Genealogy>  (52) 
CC(=O)C1CCC2C3CC=C4CC([NH+](C)Cc5ccccc5)CCC4(C)C3CCC12C (protonated)
CC(=O)[C@@H]1CC[C@@H]2C3CC=C4CC([NH+](C)Cc5ccccc5)CCC4(C)C3CCC21C (chirality)
CC(=O)[C@@H]1CC[C@@H]2C3CC=C4CC([NH+](C)Cc5ccccc5)CCC4(C)C3CCC21C (3D coordinates assigned)
CC(=O)[C@@H]1CC[C@@H]2C3CC=C4CC([NH+](C)Cc5ccccc5)CCC4(C)C3CCC21C (nonaromatic ring conformer: 128.6305763915445 kcal/mol)

>  <smiles>  (52) 
CC(=O)C1CCC2C3CC=C4CC(N(C)Cc5ccccc5)CCC4(C)C3CCC12C

>  <score_type>  (52) 
oracle

>  <origin>  (52) 
adg

>  <m_score__min__energy>  (52) 
-8.7400000000000002

>  <m_primary>  (52) 
energy

$$$$
52:0
     RDKit          3D

 34 36  0  0  0  0  0  0  0  0999 V2000
   51.8769   29.6843   52.7464 H   0  0  0  0  0  0  0  0  0  0  0  0
   52.4690   30.3410   52.0920 C   0  0  0  0  0  0  0  0  0  0  0  0
   51.8390   30.8350   50.8550 C   0  0  0  0  0  0  0  0  0  0  0  0
   51.7120   30.0900   49.7430 N   0  0  0  0  0  0  0  0  0  0  0  0
   51.0170   30.8890   48.9060 C   0  0  0  0  0  0  0  0  0  0  0  0
   50.7070   30.5410   47.7370 O   0  0  0  0  0  0  0  0  0  0  0  0
   50.6690   32.0860   49.4230 N   0  0  0  0  0  0  0  0  0  0  0  0
   51.1860   32.0330   50.6620 C   0  0  0  0  0  0  0  0  0  0  0  0
   51.0200   33.0390   51.6060 O   0  0  0  0  0  0  0  0  0  0  0  0
   53.7240   30.6440   52.4700 C   0  0  0  0  0  0  0  0  0  0  0  0
   54.7180   31.2010   51.6750 C   0  0  0  0  0  0  0  0  0  0  0  0
   54.6249   31.5064   50.6223 H   0  0  0  0  0  0  0  0  0  0  0  0
   55.8470   31.2960   52.4670 C   0  0  0  0  0  0  0  0  0  0  0  0
   57.1410   31.8700   52.0340 C   0  0  0  0  0  0  0  0  0  0  0  0
   57.6820   32.9310   52.6650 C   0  0  0  0  0  0  0  0  0  0  0  0
   57.0044   33.6341   53.1715 H   0  0  0  0  0  0  0  0  0  0  0  0
   59.1570   33.2080   52.7160 C   0  0  0  0  0  0  0  0  0  0  0  0
   59.4825   33.2691   53.7649 H   0  0  0  0  0  0  0  0  0  0  0  0
   59.7002   32.3962   52.2102 H   0  0  0  0  0  0  0  0  0  0  0  0
   59.3687   34.1616   52.2102 H   0  0  0  0  0  0  0  0  0  0  0  0
   57.8420   31.2190   50.8970 C   0  0  0  0  0  0  0  0  0  0  0  0
   58.0390   29.8840   50.8160 N   0  0  0  0  0  0  0  0  0  0  0  0
   58.7050   29.7290   49.6560 C   0  0  0  0  0  0  0  0  0  0  0  0
   59.0780   28.6080   49.2230 O   0  0  0  0  0  0  0  0  0  0  0  0
   58.9390   30.8820   49.0060 N   0  0  0  0  0  0  0  0  0  0  0  0
   59.4370   31.0150   48.0980 H   0  0  0  0  0  0  0  0  0  0  0  0
   58.3970   31.8330   49.7840 C   0  0  0  0  0  0  0  0  0  0  0  0
   58.3938   32.9129   49.5746 H   0  0  0  0  0  0  0  0  0  0  0  0
   55.5940   30.8340   53.7070 N   0  0  0  0  0  0  0  0  0  0  0  0
   56.2550   30.8300   54.5160 H   0  0  0  0  0  0  0  0  0  0  0  0
   54.3090   30.4250   53.7200 C   0  0  0  0  0  0  0  0  0  0  0  0
   53.7260   29.9110   54.8080 C   0  0  0  0  0  0  0  0  0  0  0  0
   52.6742   29.5912   54.7693 H   0  0  0  0  0  0  0  0  0  0  0  0
   54.2982   29.8079   55.7418 H   0  0  0  0  0  0  0  0  0  0  0  0
  1  2  1  0
  2  3  1  0
  3  4  1  0
  4  5  1  0
  5  6  2  0
  5  7  1  0
  7  8  1  0
  8  9  1  0
  2 10  2  3
 10 11  1  0
 11 12  1  0
 11 13  2  0
 13 14  1  0
 14 15  2  0
 15 16  1  0
 15 17  1  0
 17 18  1  0
 17 19  1  0
 17 20  1  0
 14 21  1  0
 21 22  1  0
 22 23  1  0
 23 24  2  0
 23 25  1  0
 25 26  1  0
 25 27  1  0
 27 28  1  0
 13 29  1  0
 29 30  1  0
 29 31  1  0
 31 32  2  0
 32 33  1  0
 32 34  1  0
  8  3  2  0
 31 10  1  0
 27 21  2  0
M  CHG  4   4  -1   7  -1   9  -1  22  -1
M  END
>  <UniqueID>  (53) 
49

>  <SMILES>  (53) 
C=c1[nH]c(/C(=C\C)c2c[nH]c(=O)[n-]2)cc1=Cc1[n-]c(=O)[n-]c1[O-]

>  <Energy>  (53) 
133.60233531584245

>  <Genealogy>  (53) 
C=c1[nH]c(C(=CC)c2c[nH]c(=O)[n-]2)cc1=Cc1[n-]c(=O)[n-]c1[O-] (protonated)
C=c1[nH]c(/C(=C\C)c2c[nH]c(=O)[n-]2)cc1=Cc1[n-]c(=O)[n-]c1[O-] (cis-trans isomerization)
C=c1[nH]c(/C(=C\C)c2c[nH]c(=O)[n-]2)cc1=Cc1[n-]c(=O)[n-]c1[O-] (3D coordinates assigned)
C=c1[nH]c(/C(=C\C)c2c[nH]c(=O)[n-]2)cc1=Cc1[n-]c(=O)[n-]c1[O-] (optimized conformer: 133.60233531584245 kcal/mol)

>  <smiles>  (53) 
C=c1[nH]c(C(=CC)c2c[nH]c(=O)[nH]2)cc1=Cc1[nH]c(=O)[nH]c1O

>  <score_type>  (53) 
oracle

>  <origin>  (53) 
adg

>  <m_score__min__energy>  (53) 
-17.300000000000001

>  <m_primary>  (53) 
energy

$$$$
53:0
     RDKit          3D

 35 37  0  0  0  0  0  0  0  0999 V2000
   54.9710   26.3460   45.9680 N   0  0  0  0  0  0  0  0  0  0  0  0
   56.5080   25.5840   46.1680 S   0  0  0  0  0  0  0  0  0  0  0  0
   56.9460   24.9850   44.8620 O   0  0  0  0  0  0  0  0  0  0  0  0
   56.3910   24.4850   47.1870 O   0  0  0  0  0  0  0  0  0  0  0  0
   57.6890   26.7740   46.7050 C   0  0  0  0  0  0  0  0  0  0  0  0
   58.7360   26.3970   47.5530 C   0  0  0  0  0  0  0  0  0  0  0  0
   59.6680   27.3440   47.9890 C   0  0  0  0  0  0  0  0  0  0  0  0
   59.5590   28.6900   47.5900 C   0  0  0  0  0  0  0  0  0  0  0  0
   60.5540   29.6870   48.0510 C   0  0  0  0  0  0  0  0  0  0  0  0
   61.3520   29.3850   48.9810 O   0  0  0  0  0  0  0  0  0  0  0  0
   60.5880   31.0090   47.4870 N   0  0  0  0  0  0  0  0  0  0  0  0
   61.7290   31.8820   47.5630 C   0  0  0  0  0  0  0  0  0  0  0  0
   61.8580   32.9910   46.7120 C   0  0  0  0  0  0  0  0  0  0  0  0
   62.9630   33.8370   46.8200 C   0  0  0  0  0  0  0  0  0  0  0  0
   63.9430   33.5920   47.7830 C   0  0  0  0  0  0  0  0  0  0  0  0
   63.8270   32.5000   48.6600 C   0  0  0  0  0  0  0  0  0  0  0  0
   64.8430   32.2660   49.6570 N   0  0  0  0  0  0  0  0  0  0  0  0
   64.8330   31.4100   50.6970 C   0  0  0  0  0  0  0  0  0  0  0  0
   65.9880   31.5100   51.3800 N   0  0  0  0  0  0  0  0  0  0  0  0
   66.6940   32.4330   50.7430 N   0  0  0  0  0  0  0  0  0  0  0  0
   66.0090   32.8900   49.7070 N   0  0  0  0  0  0  0  0  0  0  0  0
   62.7070   31.6530   48.5440 C   0  0  0  0  0  0  0  0  0  0  0  0
   58.5040   29.0600   46.7350 C   0  0  0  0  0  0  0  0  0  0  0  0
   57.5750   28.1100   46.3010 C   0  0  0  0  0  0  0  0  0  0  0  0
   55.1320   27.3770   46.0240 H   0  0  0  0  0  0  0  0  0  0  0  0
   58.8265   25.3502   47.8785 H   0  0  0  0  0  0  0  0  0  0  0  0
   60.4924   27.0352   48.6485 H   0  0  0  0  0  0  0  0  0  0  0  0
   59.6990   31.4000   47.0990 H   0  0  0  0  0  0  0  0  0  0  0  0
   61.0847   33.1942   45.9566 H   0  0  0  0  0  0  0  0  0  0  0  0
   63.0617   34.6993   46.1442 H   0  0  0  0  0  0  0  0  0  0  0  0
   64.8141   34.2597   47.8562 H   0  0  0  0  0  0  0  0  0  0  0  0
   64.0051   30.7313   50.9499 H   0  0  0  0  0  0  0  0  0  0  0  0
   62.5974   30.8010   49.2311 H   0  0  0  0  0  0  0  0  0  0  0  0
   58.4098   30.1053   46.4056 H   0  0  0  0  0  0  0  0  0  0  0  0
   56.7505   28.4133   45.6390 H   0  0  0  0  0  0  0  0  0  0  0  0
  1  2  1  0
  2  3  2  0
  2  4  2  0
  2  5  1  0
  5  6  2  0
  6  7  1  0
  7  8  2  0
  8  9  1  0
  9 10  2  0
  9 11  1  0
 11 12  1  0
 12 13  2  0
 13 14  1  0
 14 15  2  0
 15 16  1  0
 16 17  1  0
 17 18  1  0
 18 19  2  0
 19 20  1  0
 20 21  2  0
 16 22  2  0
  8 23  1  0
 23 24  2  0
 24  5  1  0
 22 12  1  0
 21 17  1  0
  1 25  1  0
  6 26  1  0
  7 27  1  0
 11 28  1  0
 13 29  1  0
 14 30  1  0
 15 31  1  0
 18 32  1  0
 22 33  1  0
 23 34  1  0
 24 35  1  0
M  CHG  1   1  -1
M  END
>  <UniqueID>  (54) 
50

>  <SMILES>  (54) 
[NH-]S(=O)(=O)c1ccc(C(=O)Nc2cccc(-n3cnnn3)c2)cc1

>  <Energy>  (54) 
84.91819703712608

>  <Genealogy>  (54) 
[NH-]S(=O)(=O)c1ccc(C(=O)Nc2cccc(-n3cnnn3)c2)cc1 (protonated)
[NH-]S(=O)(=O)c1ccc(C(=O)Nc2cccc(-n3cnnn3)c2)cc1 (3D coordinates assigned)
[NH-]S(=O)(=O)c1ccc(C(=O)Nc2cccc(-n3cnnn3)c2)cc1 (optimized conformer: 84.91819703712608 kcal/mol)

>  <smiles>  (54) 
NS(=O)(=O)c1ccc(C(=O)Nc2cccc(-n3cnnn3)c2)cc1

>  <score_type>  (54) 
oracle

>  <origin>  (54) 
adg

>  <m_score__min__energy>  (54) 
-10.35

>  <m_primary>  (54) 
energy

$$$$
54:0
     RDKit          3D

 61 64  0  0  0  0  0  0  0  0999 V2000
   59.9240   28.7470   45.3900 C   0  0  0  0  0  0  0  0  0  0  0  0
   58.6140   28.7820   45.0960 C   0  0  0  0  0  0  0  0  0  0  0  0
   57.6560   27.8010   45.4010 C   0  0  0  0  0  0  0  0  0  0  0  0
   57.7970   26.5350   45.8400 C   0  0  0  0  0  0  0  0  0  0  0  0
   56.8720   25.4260   45.5530 C   0  0  0  0  0  0  0  0  0  0  0  0
   57.2310   24.2830   44.9300 N   0  0  0  0  0  0  0  0  0  0  0  0
   56.0890   23.5820   44.7610 C   0  0  0  0  0  0  0  0  0  0  0  0
   56.0510   22.2380   44.1070 C   0  0  0  0  0  0  0  0  0  0  0  0
   54.9940   24.2860   45.2460 C   0  0  0  0  0  0  0  0  0  0  0  0
   53.5800   23.8600   45.2530 C   0  0  0  0  0  0  0  0  0  0  0  0
   52.6890   24.6650   44.8760 O   0  0  0  0  0  0  0  0  0  0  0  0
   53.1960   22.5270   45.6180 N   0  0  0  0  0  0  0  0  0  0  0  0
   52.6530   22.1630   46.7450 C   0  0  0  0  0  0  0  0  0  0  0  0
   53.2150   21.0850   47.6380 C   0  0  0  0  0  0  0  0  0  0  0  0
   54.6460   21.3150   47.9160 N   0  0  0  0  0  0  0  0  0  0  0  0
   55.4970   20.8090   46.8230 C   0  0  0  0  0  0  0  0  0  0  0  0
   56.9850   21.0450   47.1580 C   0  0  0  0  0  0  0  0  0  0  0  0
   57.1570   21.8320   48.3230 O   0  0  0  0  0  0  0  0  0  0  0  0
   56.4220   23.0330   48.2010 C   0  0  0  0  0  0  0  0  0  0  0  0
   54.9070   22.7520   48.1320 C   0  0  0  0  0  0  0  0  0  0  0  0
   55.5090   25.4640   45.7390 C   0  0  0  0  0  0  0  0  0  0  0  0
   54.7900   26.4980   46.3290 O   0  0  0  0  0  0  0  0  0  0  0  0
   56.4230   28.3670   45.1310 C   0  0  0  0  0  0  0  0  0  0  0  0
   56.6630   29.6220   44.6100 C   0  0  0  0  0  0  0  0  0  0  0  0
   55.5920   30.5690   44.1600 C   0  0  0  0  0  0  0  0  0  0  0  0
   57.9930   29.8760   44.5790 N   0  0  0  0  0  0  0  0  0  0  0  0
   58.6290   31.1120   44.0930 C   0  0  0  0  0  0  0  0  0  0  0  0
   58.5260   32.2070   45.1270 C   0  0  0  0  0  0  0  0  0  0  0  0
   57.5240   33.1870   45.0100 C   0  0  0  0  0  0  0  0  0  0  0  0
   57.4140   34.2050   45.9620 C   0  0  0  0  0  0  0  0  0  0  0  0
   58.2960   34.2490   47.0440 C   0  0  0  0  0  0  0  0  0  0  0  0
   59.2860   33.2720   47.1790 C   0  0  0  0  0  0  0  0  0  0  0  0
   59.4020   32.2510   46.2300 C   0  0  0  0  0  0  0  0  0  0  0  0
   60.3680   31.3110   46.3900 F   0  0  0  0  0  0  0  0  0  0  0  0
   60.5762   29.5825   45.0958 H   0  0  0  0  0  0  0  0  0  0  0  0
   60.3447   27.8829   45.9250 H   0  0  0  0  0  0  0  0  0  0  0  0
   58.6750   26.3117   46.4639 H   0  0  0  0  0  0  0  0  0  0  0  0
   56.0289   21.4550   44.8792 H   0  0  0  0  0  0  0  0  0  0  0  0
   55.1503   22.1605   43.4803 H   0  0  0  0  0  0  0  0  0  0  0  0
   56.9459   22.1097   43.4803 H   0  0  0  0  0  0  0  0  0  0  0  0
   51.7311   22.6714   47.0639 H   0  0  0  0  0  0  0  0  0  0  0  0
   52.6609   21.0812   48.5883 H   0  0  0  0  0  0  0  0  0  0  0  0
   53.1108   20.1178   47.1246 H   0  0  0  0  0  0  0  0  0  0  0  0
   55.3197   19.7312   46.6928 H   0  0  0  0  0  0  0  0  0  0  0  0
   55.2473   21.3437   45.8947 H   0  0  0  0  0  0  0  0  0  0  0  0
   57.4708   20.0706   47.3148 H   0  0  0  0  0  0  0  0  0  0  0  0
   57.4367   21.5891   46.3155 H   0  0  0  0  0  0  0  0  0  0  0  0
   56.6297   23.6714   49.0724 H   0  0  0  0  0  0  0  0  0  0  0  0
   56.7268   23.5364   47.2716 H   0  0  0  0  0  0  0  0  0  0  0  0
   54.4395   23.0646   49.0774 H   0  0  0  0  0  0  0  0  0  0  0  0
   54.4834   23.3164   47.2882 H   0  0  0  0  0  0  0  0  0  0  0  0
   55.4391   27.9049   45.2995 H   0  0  0  0  0  0  0  0  0  0  0  0
   55.0967   31.0069   45.0392 H   0  0  0  0  0  0  0  0  0  0  0  0
   56.0416   31.3704   43.5553 H   0  0  0  0  0  0  0  0  0  0  0  0
   54.8517   30.0247   43.5553 H   0  0  0  0  0  0  0  0  0  0  0  0
   59.6901   30.9132   43.8820 H   0  0  0  0  0  0  0  0  0  0  0  0
   58.1129   31.4394   43.1784 H   0  0  0  0  0  0  0  0  0  0  0  0
   56.8221   33.1523   44.1637 H   0  0  0  0  0  0  0  0  0  0  0  0
   56.6322   34.9719   45.8587 H   0  0  0  0  0  0  0  0  0  0  0  0
   58.2114   35.0529   47.7901 H   0  0  0  0  0  0  0  0  0  0  0  0
   59.9765   33.3060   48.0346 H   0  0  0  0  0  0  0  0  0  0  0  0
  1  2  2  0
  2  3  1  0
  3  4  2  3
  4  5  1  0
  5  6  1  0
  6  7  1  0
  7  8  1  0
  7  9  2  0
  9 10  1  0
 10 11  2  0
 10 12  1  0
 12 13  2  3
 13 14  1  0
 14 15  1  0
 15 16  1  0
 16 17  1  0
 17 18  1  0
 18 19  1  0
 19 20  1  0
  9 21  1  0
 21 22  1  0
  3 23  1  0
 23 24  2  0
 24 25  1  0
 24 26  1  0
 26 27  1  0
 27 28  1  0
 28 29  2  0
 29 30  1  0
 30 31  2  0
 31 32  1  0
 32 33  2  0
 33 34  1  0
 26  2  1  0
 33 28  1  0
 21  5  2  0
 20 15  1  0
  1 35  1  0
  1 36  1  0
  4 37  1  0
  8 38  1  0
  8 39  1  0
  8 40  1  0
 13 41  1  0
 14 42  1  0
 14 43  1  0
 16 44  1  0
 16 45  1  0
 17 46  1  0
 17 47  1  0
 19 48  1  0
 19 49  1  0
 20 50  1  0
 20 51  1  0
 23 52  1  0
 25 53  1  0
 25 54  1  0
 25 55  1  0
 27 56  1  0
 27 57  1  0
 29 58  1  0
 30 59  1  0
 31 60  1  0
 32 61  1  0
M  CHG  2   6  -1  22  -1
M  END
>  <UniqueID>  (55) 
51

>  <SMILES>  (55) 
C=c1c(=Cc2[n-]c(C)c(C(=O)N=CCN3CCOCC3)c2[O-])cc(C)n1Cc1ccccc1F

>  <Energy>  (55) 
142.33972041111156

>  <Genealogy>  (55) 
C=c1c(=Cc2[n-]c(C)c(C(=O)N=CCN3CCOCC3)c2[O-])cc(C)n1Cc1ccccc1F (protonated)
C=c1c(=Cc2[n-]c(C)c(C(=O)N=CCN3CCOCC3)c2[O-])cc(C)n1Cc1ccccc1F (3D coordinates assigned)
C=c1c(=Cc2[n-]c(C)c(C(=O)N=CCN3CCOCC3)c2[O-])cc(C)n1Cc1ccccc1F (nonaromatic ring conformer: 142.33972041111156 kcal/mol)

>  <smiles>  (55) 
C=c1c(=Cc2[nH]c(C)c(C(=O)N=CCN3CCOCC3)c2O)cc(C)n1Cc1ccccc1F

>  <score_type>  (55) 
oracle

>  <origin>  (55) 
adg

>  <m_score__min__energy>  (55) 
-15.66

>  <m_primary>  (55) 
energy

$$$$
55:0
     RDKit          3D

 44 46  0  0  0  0  0  0  0  0999 V2000
   54.7690   27.4750   46.3730 H   0  0  0  0  0  0  0  0  0  0  0  0
   55.1670   26.7170   45.8320 O   0  0  0  0  0  0  0  0  0  0  0  0
   56.0860   25.8440   46.4040 C   0  0  0  0  0  0  0  0  0  0  0  0
   55.7580   24.6490   46.9240 N   0  0  0  0  0  0  0  0  0  0  0  0
   56.9550   24.1440   47.2880 C   0  0  0  0  0  0  0  0  0  0  0  0
   57.0790   23.0100   47.8200 O   0  0  0  0  0  0  0  0  0  0  0  0
   58.0100   24.9450   47.0250 N   0  0  0  0  0  0  0  0  0  0  0  0
   57.4480   26.0390   46.4850 C   0  0  0  0  0  0  0  0  0  0  0  0
   58.2270   27.1740   45.9560 C   0  0  0  0  0  0  0  0  0  0  0  0
   58.5387   27.1400   44.9016 H   0  0  0  0  0  0  0  0  0  0  0  0
   58.5800   28.2500   46.6860 C   0  0  0  0  0  0  0  0  0  0  0  0
   58.4460   28.3910   48.0590 C   0  0  0  0  0  0  0  0  0  0  0  0
   58.0086   27.6592   48.7541 H   0  0  0  0  0  0  0  0  0  0  0  0
   58.9670   29.6260   48.3850 C   0  0  0  0  0  0  0  0  0  0  0  0
   58.9780   30.1870   49.7760 C   0  0  0  0  0  0  0  0  0  0  0  0
   58.9618   29.3625   50.5040 H   0  0  0  0  0  0  0  0  0  0  0  0
   59.8881   30.7873   49.9221 H   0  0  0  0  0  0  0  0  0  0  0  0
   58.0921   30.8226   49.9221 H   0  0  0  0  0  0  0  0  0  0  0  0
   59.4490   30.2440   47.2810 N   0  0  0  0  0  0  0  0  0  0  0  0
   60.0520   31.5520   47.2290 C   0  0  0  0  0  0  0  0  0  0  0  0
   61.3080   31.6580   47.2050 O   0  0  0  0  0  0  0  0  0  0  0  0
   59.2110   32.8000   47.1760 C   0  0  0  0  0  0  0  0  0  0  0  0
   58.1781   32.5415   47.4520 H   0  0  0  0  0  0  0  0  0  0  0  0
   59.6466   33.5271   47.8771 H   0  0  0  0  0  0  0  0  0  0  0  0
   59.2020   33.4450   45.7780 C   0  0  0  0  0  0  0  0  0  0  0  0
   59.4954   34.5013   45.8685 H   0  0  0  0  0  0  0  0  0  0  0  0
   59.9105   32.8985   45.1382 H   0  0  0  0  0  0  0  0  0  0  0  0
   57.8680   33.3690   45.1650 N   0  0  0  0  0  0  0  0  0  0  0  0
   57.2850   32.7250   45.7510 H   0  0  0  0  0  0  0  0  0  0  0  0
   57.9270   32.8000   43.8140 C   0  0  0  0  0  0  0  0  0  0  0  0
   57.4642   33.4994   43.1022 H   0  0  0  0  0  0  0  0  0  0  0  0
   58.9777   32.6308   43.5358 H   0  0  0  0  0  0  0  0  0  0  0  0
   57.1910   31.4990   43.7820 C   0  0  0  0  0  0  0  0  0  0  0  0
   56.6390   30.9390   44.8320 O   0  0  0  0  0  0  0  0  0  0  0  0
   56.0550   29.8250   44.4530 C   0  0  0  0  0  0  0  0  0  0  0  0
   55.5118   29.1365   45.1170 H   0  0  0  0  0  0  0  0  0  0  0  0
   56.2270   29.6500   43.0940 C   0  0  0  0  0  0  0  0  0  0  0  0
   55.8546   28.8148   42.4827 H   0  0  0  0  0  0  0  0  0  0  0  0
   56.9600   30.7340   42.6580 C   0  0  0  0  0  0  0  0  0  0  0  0
   57.2907   30.9441   41.6301 H   0  0  0  0  0  0  0  0  0  0  0  0
   59.2050   29.4160   46.2310 C   0  0  0  0  0  0  0  0  0  0  0  0
   59.5320   29.6930   44.9590 C   0  0  0  0  0  0  0  0  0  0  0  0
   60.0235   30.6457   44.7124 H   0  0  0  0  0  0  0  0  0  0  0  0
   59.3085   28.9673   44.1631 H   0  0  0  0  0  0  0  0  0  0  0  0
  1  2  1  0
  2  3  1  0
  3  4  1  0
  4  5  1  0
  5  6  2  0
  5  7  1  0
  7  8  1  0
  8  9  1  0
  9 10  1  0
  9 11  2  0
 11 12  1  0
 12 13  1  0
 12 14  2  0
 14 15  1  0
 15 16  1  0
 15 17  1  0
 15 18  1  0
 14 19  1  0
 19 20  1  0
 20 21  2  0
 20 22  1  0
 22 23  1  0
 22 24  1  0
 22 25  1  0
 25 26  1  0
 25 27  1  0
 25 28  1  0
 28 29  1  0
 28 30  1  0
 30 31  1  0
 30 32  1  0
 30 33  1  0
 33 34  1  0
 34 35  1  0
 35 36  1  0
 35 37  2  0
 37 38  1  0
 37 39  1  0
 39 40  1  0
 19 41  1  0
 41 42  2  0
 42 43  1  0
 42 44  1  0
  8  3  2  0
 41 11  1  0
 39 33  2  0
M  CHG  2   4  -1   7  -1
M  END
>  <UniqueID>  (56) 
52

>  <SMILES>  (56) 
C=c1/c(=C/c2[n-]c(=O)[n-]c2O)cc(C)n1C(=O)CCNCc1ccco1

>  <Energy>  (56) 
137.7449735817759

>  <Genealogy>  (56) 
C=c1c(=Cc2[n-]c(=O)[n-]c2O)cc(C)n1C(=O)CCNCc1ccco1 (protonated)
C=c1/c(=C/c2[n-]c(=O)[n-]c2O)cc(C)n1C(=O)CCNCc1ccco1 (cis-trans isomerization)
C=c1/c(=C/c2[n-]c(=O)[n-]c2O)cc(C)n1C(=O)CCNCc1ccco1 (3D coordinates assigned)
C=c1/c(=C/c2[n-]c(=O)[n-]c2O)cc(C)n1C(=O)CCNCc1ccco1 (optimized conformer: 137.7449735817759 kcal/mol)

>  <smiles>  (56) 
C=c1c(=Cc2[nH]c(=O)[nH]c2O)cc(C)n1C(=O)CCNCc1ccco1

>  <score_type>  (56) 
oracle

>  <origin>  (56) 
adg

>  <m_score__min__energy>  (56) 
-12.23

>  <m_primary>  (56) 
energy

$$$$
56:0
     RDKit          3D

 41 43  0  0  0  0  0  0  0  0999 V2000
   55.2250   29.4030   44.4280 O   0  0  0  0  0  0  0  0  0  0  0  0
   56.4520   29.3380   44.7100 C   0  0  0  0  0  0  0  0  0  0  0  0
   57.2920   28.2550   44.1120 C   0  0  0  0  0  0  0  0  0  0  0  0
   57.7950   27.3340   45.1940 C   0  0  0  0  0  0  0  0  0  0  0  0
   59.1780   27.1510   45.3680 C   0  0  0  0  0  0  0  0  0  0  0  0
   59.6590   26.3250   46.3860 C   0  0  0  0  0  0  0  0  0  0  0  0
   58.7680   25.6800   47.2450 C   0  0  0  0  0  0  0  0  0  0  0  0
   57.3910   25.8630   47.0910 C   0  0  0  0  0  0  0  0  0  0  0  0
   56.8980   26.6910   46.0720 C   0  0  0  0  0  0  0  0  0  0  0  0
   55.5230   26.8810   45.9320 O   0  0  0  0  0  0  0  0  0  0  0  0
   57.0510   30.2810   45.6060 N   0  0  0  0  0  0  0  0  0  0  0  0
   57.6710   31.5240   45.2420 C   0  0  0  0  0  0  0  0  0  0  0  0
   57.7120   31.9700   43.9100 C   0  0  0  0  0  0  0  0  0  0  0  0
   58.3620   33.1640   43.5910 C   0  0  0  0  0  0  0  0  0  0  0  0
   58.9820   33.9180   44.5900 C   0  0  0  0  0  0  0  0  0  0  0  0
   58.9550   33.4840   45.9280 C   0  0  0  0  0  0  0  0  0  0  0  0
   59.6350   34.2590   46.9970 C   0  0  0  0  0  0  0  0  0  0  0  0
   59.0090   35.1960   47.5660 O   0  0  0  0  0  0  0  0  0  0  0  0
   61.0280   33.9770   47.4150 C   0  0  0  0  0  0  0  0  0  0  0  0
   62.0350   33.7720   46.4520 C   0  0  0  0  0  0  0  0  0  0  0  0
   63.3520   33.5230   46.8480 C   0  0  0  0  0  0  0  0  0  0  0  0
   63.6810   33.4830   48.2050 C   0  0  0  0  0  0  0  0  0  0  0  0
   62.6940   33.6970   49.1700 C   0  0  0  0  0  0  0  0  0  0  0  0
   61.3730   33.9480   48.7820 C   0  0  0  0  0  0  0  0  0  0  0  0
   60.4310   34.1390   49.7390 F   0  0  0  0  0  0  0  0  0  0  0  0
   58.3130   32.2720   46.2380 C   0  0  0  0  0  0  0  0  0  0  0  0
   56.6876   27.6791   43.3957 H   0  0  0  0  0  0  0  0  0  0  0  0
   58.1513   28.7085   43.5963 H   0  0  0  0  0  0  0  0  0  0  0  0
   59.8855   27.6616   44.6981 H   0  0  0  0  0  0  0  0  0  0  0  0
   60.7425   26.1824   46.5111 H   0  0  0  0  0  0  0  0  0  0  0  0
   59.1498   25.0272   48.0438 H   0  0  0  0  0  0  0  0  0  0  0  0
   56.6913   25.3557   47.7715 H   0  0  0  0  0  0  0  0  0  0  0  0
   55.1410   27.5240   45.2470 H   0  0  0  0  0  0  0  0  0  0  0  0
   57.2313   31.3777   43.1175 H   0  0  0  0  0  0  0  0  0  0  0  0
   58.3859   33.5124   42.5479 H   0  0  0  0  0  0  0  0  0  0  0  0
   59.4940   34.8560   44.3293 H   0  0  0  0  0  0  0  0  0  0  0  0
   61.7835   33.8081   45.3818 H   0  0  0  0  0  0  0  0  0  0  0  0
   64.1313   33.3581   46.0893 H   0  0  0  0  0  0  0  0  0  0  0  0
   64.7176   33.2829   48.5138 H   0  0  0  0  0  0  0  0  0  0  0  0
   62.9558   33.6681   50.2380 H   0  0  0  0  0  0  0  0  0  0  0  0
   58.3147   31.9064   47.2755 H   0  0  0  0  0  0  0  0  0  0  0  0
  1  2  2  0
  2  3  1  0
  3  4  1  0
  4  5  2  0
  5  6  1  0
  6  7  2  0
  7  8  1  0
  8  9  2  0
  9 10  1  0
  2 11  1  0
 11 12  1  0
 12 13  2  0
 13 14  1  0
 14 15  2  0
 15 16  1  0
 16 17  1  0
 17 18  2  0
 17 19  1  0
 19 20  2  0
 20 21  1  0
 21 22  2  0
 22 23  1  0
 23 24  2  0
 24 25  1  0
 16 26  2  0
  9  4  1  0
 26 12  1  0
 24 19  1  0
  3 27  1  0
  3 28  1  0
  5 29  1  0
  6 30  1  0
  7 31  1  0
  8 32  1  0
 10 33  1  0
 13 34  1  0
 14 35  1  0
 15 36  1  0
 20 37  1  0
 21 38  1  0
 22 39  1  0
 23 40  1  0
 26 41  1  0
M  CHG  1  11  -1
M  END
>  <UniqueID>  (57) 
53

>  <SMILES>  (57) 
O=C(Cc1ccccc1O)[N-]c1cccc(C(=O)c2ccccc2F)c1

>  <Energy>  (57) 
52.595367960337036

>  <Genealogy>  (57) 
O=C(Cc1ccccc1O)[N-]c1cccc(C(=O)c2ccccc2F)c1 (protonated)
O=C(Cc1ccccc1O)[N-]c1cccc(C(=O)c2ccccc2F)c1 (3D coordinates assigned)
O=C(Cc1ccccc1O)[N-]c1cccc(C(=O)c2ccccc2F)c1 (optimized conformer: 52.595367960337036 kcal/mol)

>  <smiles>  (57) 
O=C(Cc1ccccc1O)Nc1cccc(C(=O)c2ccccc2F)c1

>  <score_type>  (57) 
oracle

>  <origin>  (57) 
adg

>  <m_score__min__energy>  (57) 
-12.06

>  <m_primary>  (57) 
energy

$$$$
57:0
     RDKit          3D

 46 48  0  0  0  0  0  0  0  0999 V2000
   65.0970   33.2460   52.2450 C   0  0  0  0  0  0  0  0  0  0  0  0
   64.3860   33.3810   50.9670 N   0  0  0  0  0  0  0  0  0  0  0  0
   63.3180   34.2310   50.8790 C   0  0  0  0  0  0  0  0  0  0  0  0
   62.6380   34.3980   49.6710 C   0  0  0  0  0  0  0  0  0  0  0  0
   63.0650   33.7080   48.5320 C   0  0  0  0  0  0  0  0  0  0  0  0
   62.3450   33.8640   47.2490 C   0  0  0  0  0  0  0  0  0  0  0  0
   63.0080   33.9480   46.1800 O   0  0  0  0  0  0  0  0  0  0  0  0
   60.9070   33.9110   47.1960 N   0  0  0  0  0  0  0  0  0  0  0  0
   60.2300   34.8300   46.2770 C   0  0  0  0  0  0  0  0  0  0  0  0
   59.1790   34.0970   45.4140 C   0  0  0  0  0  0  0  0  0  0  0  0
   58.7750   32.7750   45.9620 N   0  0  0  0  0  0  0  0  0  0  0  0
   57.4790   32.3610   45.3720 C   0  0  0  0  0  0  0  0  0  0  0  0
   57.5520   30.9830   44.7550 C   0  0  0  0  0  0  0  0  0  0  0  0
   56.6450   30.6130   43.7500 C   0  0  0  0  0  0  0  0  0  0  0  0
   56.7160   29.3450   43.1650 C   0  0  0  0  0  0  0  0  0  0  0  0
   57.6960   28.4350   43.5800 C   0  0  0  0  0  0  0  0  0  0  0  0
   57.7720   27.1330   42.9720 C   0  0  0  0  0  0  0  0  0  0  0  0
   57.8350   26.0860   42.4810 N   0  0  0  0  0  0  0  0  0  0  0  0
   58.6030   28.7970   44.5830 C   0  0  0  0  0  0  0  0  0  0  0  0
   58.5330   30.0650   45.1690 C   0  0  0  0  0  0  0  0  0  0  0  0
   58.7040   32.8180   47.4390 C   0  0  0  0  0  0  0  0  0  0  0  0
   60.1060   33.0060   48.0310 C   0  0  0  0  0  0  0  0  0  0  0  0
   64.1580   32.8390   48.6360 C   0  0  0  0  0  0  0  0  0  0  0  0
   64.8170   32.6930   49.8620 C   0  0  0  0  0  0  0  0  0  0  0  0
   65.8080   31.9170   49.9340 O   0  0  0  0  0  0  0  0  0  0  0  0
   64.3879   33.3806   53.0751 H   0  0  0  0  0  0  0  0  0  0  0  0
   65.5503   32.2457   52.3085 H   0  0  0  0  0  0  0  0  0  0  0  0
   65.8854   34.0105   52.3085 H   0  0  0  0  0  0  0  0  0  0  0  0
   62.9914   34.7888   51.7691 H   0  0  0  0  0  0  0  0  0  0  0  0
   61.7691   35.0702   49.6154 H   0  0  0  0  0  0  0  0  0  0  0  0
   59.7277   35.6146   46.8619 H   0  0  0  0  0  0  0  0  0  0  0  0
   60.9852   35.2645   45.6055 H   0  0  0  0  0  0  0  0  0  0  0  0
   58.2837   34.7321   45.3427 H   0  0  0  0  0  0  0  0  0  0  0  0
   59.6402   33.9118   44.4327 H   0  0  0  0  0  0  0  0  0  0  0  0
   59.5060   32.0770   45.6810 H   0  0  0  0  0  0  0  0  0  0  0  0
   56.7143   32.3560   46.1627 H   0  0  0  0  0  0  0  0  0  0  0  0
   57.2240   33.0764   44.5763 H   0  0  0  0  0  0  0  0  0  0  0  0
   55.8737   31.3247   43.4206 H   0  0  0  0  0  0  0  0  0  0  0  0
   56.0014   29.0621   42.3781 H   0  0  0  0  0  0  0  0  0  0  0  0
   59.3725   28.0826   44.9110 H   0  0  0  0  0  0  0  0  0  0  0  0
   59.2480   30.3450   45.9566 H   0  0  0  0  0  0  0  0  0  0  0  0
   58.0636   33.6574   47.7478 H   0  0  0  0  0  0  0  0  0  0  0  0
   58.2834   31.8702   47.8060 H   0  0  0  0  0  0  0  0  0  0  0  0
   60.0169   33.4316   49.0414 H   0  0  0  0  0  0  0  0  0  0  0  0
   60.6064   32.0272   48.0709 H   0  0  0  0  0  0  0  0  0  0  0  0
   64.4978   32.2726   47.7564 H   0  0  0  0  0  0  0  0  0  0  0  0
  1  2  1  0
  2  3  1  0
  3  4  2  0
  4  5  1  0
  5  6  1  0
  6  7  2  0
  6  8  1  0
  8  9  1  0
  9 10  1  0
 10 11  1  0
 11 12  1  0
 12 13  1  0
 13 14  2  0
 14 15  1  0
 15 16  2  0
 16 17  1  0
 17 18  3  0
 16 19  1  0
 19 20  2  0
 11 21  1  0
 21 22  1  0
  5 23  2  0
 23 24  1  0
 24 25  2  0
 24  2  1  0
 22  8  1  0
 20 13  1  0
  1 26  1  0
  1 27  1  0
  1 28  1  0
  3 29  1  0
  4 30  1  0
  9 31  1  0
  9 32  1  0
 10 33  1  0
 10 34  1  0
 11 35  1  0
 12 36  1  0
 12 37  1  0
 14 38  1  0
 15 39  1  0
 19 40  1  0
 20 41  1  0
 21 42  1  0
 21 43  1  0
 22 44  1  0
 22 45  1  0
 23 46  1  0
M  CHG  1  11   1
M  END
>  <UniqueID>  (58) 
54

>  <SMILES>  (58) 
Cn1ccc(C(=O)N2CC[NH+](Cc3ccc(C#N)cc3)CC2)cc1=O

>  <Energy>  (58) 
61.31247155800868

>  <Genealogy>  (58) 
Cn1ccc(C(=O)N2CC[NH+](Cc3ccc(C#N)cc3)CC2)cc1=O (protonated)
Cn1ccc(C(=O)N2CC[NH+](Cc3ccc(C#N)cc3)CC2)cc1=O (3D coordinates assigned)
Cn1ccc(C(=O)N2CC[NH+](Cc3ccc(C#N)cc3)CC2)cc1=O (nonaromatic ring conformer: 61.31247155800868 kcal/mol)

>  <smiles>  (58) 
Cn1ccc(C(=O)N2CCN(Cc3ccc(C#N)cc3)CC2)cc1=O

>  <score_type>  (58) 
oracle

>  <origin>  (58) 
adg

>  <m_score__min__energy>  (58) 
-6.6799999999999997

>  <m_primary>  (58) 
energy

$$$$
58:0
     RDKit          3D

 58 62  0  0  0  0  0  0  0  0999 V2000
   60.8740   28.9320   47.5430 O   0  0  0  0  0  0  0  0  0  0  0  0
   59.6800   29.3380   47.4730 C   0  0  0  0  0  0  0  0  0  0  0  0
   58.7840   28.7380   46.5260 N   0  0  0  0  0  0  0  0  0  0  0  0
   59.2700   27.8110   45.5050 C   0  0  0  0  0  0  0  0  0  0  0  0
   58.5650   28.0480   44.1670 C   0  0  0  0  0  0  0  0  0  0  0  0
   57.4030   28.9760   44.3420 C   0  0  0  0  0  0  0  0  0  0  0  0
   57.2670   30.2210   43.7760 C   0  0  0  0  0  0  0  0  0  0  0  0
   56.0660   30.7210   44.1090 N   0  0  0  0  0  0  0  0  0  0  0  0
   55.5040   29.7530   44.8660 C   0  0  0  0  0  0  0  0  0  0  0  0
   56.2870   28.6650   45.0240 N   0  0  0  0  0  0  0  0  0  0  0  0
   59.2240   30.4110   48.3900 C   0  0  0  0  0  0  0  0  0  0  0  0
   59.5370   31.7590   48.1400 C   0  0  0  0  0  0  0  0  0  0  0  0
   59.1100   32.7560   49.0180 C   0  0  0  0  0  0  0  0  0  0  0  0
   58.3760   32.4260   50.1570 C   0  0  0  0  0  0  0  0  0  0  0  0
   58.0600   31.0850   50.4350 C   0  0  0  0  0  0  0  0  0  0  0  0
   57.2820   30.7050   51.6370 C   0  0  0  0  0  0  0  0  0  0  0  0
   56.4520   31.5240   52.3900 C   0  0  0  0  0  0  0  0  0  0  0  0
   55.9450   30.7300   53.3950 C   0  0  0  0  0  0  0  0  0  0  0  0
   56.4970   29.4800   53.1990 C   0  0  0  0  0  0  0  0  0  0  0  0
   56.1960   28.2540   54.0010 C   0  0  0  0  0  0  0  0  0  0  0  0
   54.7180   28.0420   54.0350 C   0  0  0  0  0  0  0  0  0  0  0  0
   54.0930   27.2700   53.2020 N   0  0  0  0  0  0  0  0  0  0  0  0
   52.7020   27.4990   53.4360 C   0  0  0  0  0  0  0  0  0  0  0  0
   51.7950   26.9270   52.7760 O   0  0  0  0  0  0  0  0  0  0  0  0
   52.4430   28.4670   54.4510 N   0  0  0  0  0  0  0  0  0  0  0  0
   51.2900   29.3650   54.4920 C   0  0  0  0  0  0  0  0  0  0  0  0
   51.3740   30.3680   53.3710 C   0  0  0  0  0  0  0  0  0  0  0  0
   50.8940   31.6760   53.5530 C   0  0  0  0  0  0  0  0  0  0  0  0
   50.9060   32.5870   52.4920 C   0  0  0  0  0  0  0  0  0  0  0  0
   51.3870   32.1970   51.2380 C   0  0  0  0  0  0  0  0  0  0  0  0
   51.3950   33.1020   50.1850 O   0  0  0  0  0  0  0  0  0  0  0  0
   51.8580   30.8950   51.0470 C   0  0  0  0  0  0  0  0  0  0  0  0
   51.8510   29.9830   52.1070 C   0  0  0  0  0  0  0  0  0  0  0  0
   53.7690   28.8220   54.8170 C   0  0  0  0  0  0  0  0  0  0  0  0
   54.0600   29.7140   55.6600 O   0  0  0  0  0  0  0  0  0  0  0  0
   57.2830   29.4940   52.1490 O   0  0  0  0  0  0  0  0  0  0  0  0
   58.4910   30.0850   49.5460 C   0  0  0  0  0  0  0  0  0  0  0  0
   57.7600   28.9350   46.5930 H   0  0  0  0  0  0  0  0  0  0  0  0
   60.3521   27.9576   45.3721 H   0  0  0  0  0  0  0  0  0  0  0  0
   59.0574   26.7836   45.8354 H   0  0  0  0  0  0  0  0  0  0  0  0
   59.2779   28.4911   43.4560 H   0  0  0  0  0  0  0  0  0  0  0  0
   58.1959   27.0849   43.7846 H   0  0  0  0  0  0  0  0  0  0  0  0
   58.0193   30.7256   43.1520 H   0  0  0  0  0  0  0  0  0  0  0  0
   54.5024   29.8432   45.3117 H   0  0  0  0  0  0  0  0  0  0  0  0
   60.1213   32.0288   47.2479 H   0  0  0  0  0  0  0  0  0  0  0  0
   59.3538   33.8084   48.8105 H   0  0  0  0  0  0  0  0  0  0  0  0
   58.0425   33.2197   50.8417 H   0  0  0  0  0  0  0  0  0  0  0  0
   56.2419   32.5901   52.2190 H   0  0  0  0  0  0  0  0  0  0  0  0
   55.2453   31.0298   54.1891 H   0  0  0  0  0  0  0  0  0  0  0  0
   56.6824   27.3827   53.5382 H   0  0  0  0  0  0  0  0  0  0  0  0
   56.5757   28.3794   55.0257 H   0  0  0  0  0  0  0  0  0  0  0  0
   50.3668   28.7766   54.3851 H   0  0  0  0  0  0  0  0  0  0  0  0
   51.2844   29.8996   55.4534 H   0  0  0  0  0  0  0  0  0  0  0  0
   50.5068   31.9850   54.5351 H   0  0  0  0  0  0  0  0  0  0  0  0
   50.5365   33.6119   52.6440 H   0  0  0  0  0  0  0  0  0  0  0  0
   52.2351   30.5870   50.0606 H   0  0  0  0  0  0  0  0  0  0  0  0
   52.2209   28.9590   51.9503 H   0  0  0  0  0  0  0  0  0  0  0  0
   58.2518   29.0323   49.7571 H   0  0  0  0  0  0  0  0  0  0  0  0
  1  2  2  0
  2  3  1  0
  3  4  1  0
  4  5  1  0
  5  6  1  0
  6  7  2  0
  7  8  1  0
  8  9  1  0
  9 10  2  0
  2 11  1  0
 11 12  2  0
 12 13  1  0
 13 14  2  0
 14 15  1  0
 15 16  1  0
 16 17  2  0
 17 18  1  0
 18 19  2  0
 19 20  1  0
 20 21  1  0
 21 22  2  0
 22 23  1  0
 23 24  2  0
 23 25  1  0
 25 26  1  0
 26 27  1  0
 27 28  2  0
 28 29  1  0
 29 30  2  0
 30 31  1  0
 30 32  1  0
 32 33  2  0
 25 34  1  0
 34 35  2  0
 19 36  1  0
 15 37  2  0
 10  6  1  0
 37 11  1  0
 36 16  1  0
 34 21  1  0
 33 27  1  0
  3 38  1  0
  4 39  1  0
  4 40  1  0
  5 41  1  0
  5 42  1  0
  7 43  1  0
  9 44  1  0
 12 45  1  0
 13 46  1  0
 14 47  1  0
 17 48  1  0
 18 49  1  0
 20 50  1  0
 20 51  1  0
 26 52  1  0
 26 53  1  0
 28 54  1  0
 29 55  1  0
 32 56  1  0
 33 57  1  0
 37 58  1  0
M  CHG  2   8  -1  31  -1
M  END
>  <UniqueID>  (59) 
55

>  <SMILES>  (59) 
O=C(NCCc1c[n-]cn1)c1cccc(-c2ccc(CC3=NC(=O)N(Cc4ccc([O-])cc4)C3=O)o2)c1

>  <Energy>  (59) 
139.90215728986098

>  <Genealogy>  (59) 
O=C(NCCc1c[n-]cn1)c1cccc(-c2ccc(CC3=NC(=O)N(Cc4ccc([O-])cc4)C3=O)o2)c1 (protonated)
O=C(NCCc1c[n-]cn1)c1cccc(-c2ccc(CC3=NC(=O)N(Cc4ccc([O-])cc4)C3=O)o2)c1 (3D coordinates assigned)
O=C(NCCc1c[n-]cn1)c1cccc(-c2ccc(CC3=NC(=O)N(Cc4ccc([O-])cc4)C3=O)o2)c1 (nonaromatic ring conformer: 139.90215728986098 kcal/mol)

>  <smiles>  (59) 
O=C(NCCc1c[nH]cn1)c1cccc(-c2ccc(CC3=NC(=O)N(Cc4ccc(O)cc4)C3=O)o2)c1

>  <score_type>  (59) 
oracle

>  <origin>  (59) 
adg

>  <m_score__min__energy>  (59) 
-15.550000000000001

>  <m_primary>  (59) 
energy

$$$$
59:0
     RDKit          3D

 56 59  0  0  0  0  0  0  0  0999 V2000
   55.1420   26.7260   45.9920 O   0  0  0  0  0  0  0  0  0  0  0  0
   56.1280   25.9610   46.1590 C   0  0  0  0  0  0  0  0  0  0  0  0
   57.3660   26.1350   45.3190 C   0  0  0  0  0  0  0  0  0  0  0  0
   58.4500   26.7300   46.0960 N   0  0  0  0  0  0  0  0  0  0  0  0
   58.4410   28.0810   46.5740 C   0  0  0  0  0  0  0  0  0  0  0  0
   58.7870   28.3290   47.7630 O   0  0  0  0  0  0  0  0  0  0  0  0
   58.0240   29.1830   45.6780 C   0  0  0  0  0  0  0  0  0  0  0  0
   57.4010   28.9040   44.4470 C   0  0  0  0  0  0  0  0  0  0  0  0
   57.0340   29.9440   43.5900 C   0  0  0  0  0  0  0  0  0  0  0  0
   57.2620   31.2710   43.9560 C   0  0  0  0  0  0  0  0  0  0  0  0
   57.8660   31.5660   45.1840 C   0  0  0  0  0  0  0  0  0  0  0  0
   58.1460   33.2350   45.6730 S   0  0  0  0  0  0  0  0  0  0  0  0
   58.3090   34.0770   44.4390 O   0  0  0  0  0  0  0  0  0  0  0  0
   56.9770   33.7710   46.4520 O   0  0  0  0  0  0  0  0  0  0  0  0
   59.5870   33.3210   46.6520 N   0  0  0  0  0  0  0  0  0  0  0  0
   60.7870   33.8780   46.0100 C   0  0  0  0  0  0  0  0  0  0  0  0
   62.0500   33.6060   46.8290 C   0  0  0  0  0  0  0  0  0  0  0  0
   61.8600   34.0880   48.2650 C   0  0  0  0  0  0  0  0  0  0  0  0
   60.6630   33.4220   48.8840 C   0  0  0  0  0  0  0  0  0  0  0  0
   60.6310   33.2020   50.2700 C   0  0  0  0  0  0  0  0  0  0  0  0
   59.5270   32.5860   50.8590 C   0  0  0  0  0  0  0  0  0  0  0  0
   58.4460   32.1910   50.0720 C   0  0  0  0  0  0  0  0  0  0  0  0
   58.4580   32.4210   48.6950 C   0  0  0  0  0  0  0  0  0  0  0  0
   59.5550   33.0630   48.0800 C   0  0  0  0  0  0  0  0  0  0  0  0
   58.2540   30.5240   46.0370 C   0  0  0  0  0  0  0  0  0  0  0  0
   56.0210   24.9050   47.1190 N   0  0  0  0  0  0  0  0  0  0  0  0
   55.4520   23.5920   46.8390 C   0  0  0  0  0  0  0  0  0  0  0  0
   56.1500   22.9860   45.6510 C   0  0  0  0  0  0  0  0  0  0  0  0
   55.6780   23.2420   44.3510 C   0  0  0  0  0  0  0  0  0  0  0  0
   56.3060   22.6600   43.2460 C   0  0  0  0  0  0  0  0  0  0  0  0
   57.4020   21.8140   43.4280 C   0  0  0  0  0  0  0  0  0  0  0  0
   57.8710   21.5440   44.7160 C   0  0  0  0  0  0  0  0  0  0  0  0
   57.2470   22.1210   45.8280 C   0  0  0  0  0  0  0  0  0  0  0  0
   57.7220   21.8280   47.1020 O   0  0  0  0  0  0  0  0  0  0  0  0
   57.6887   25.1514   44.9469 H   0  0  0  0  0  0  0  0  0  0  0  0
   57.1277   26.8066   44.4810 H   0  0  0  0  0  0  0  0  0  0  0  0
   57.2021   27.8613   44.1584 H   0  0  0  0  0  0  0  0  0  0  0  0
   56.5632   29.7160   42.6224 H   0  0  0  0  0  0  0  0  0  0  0  0
   56.9669   32.0862   43.2790 H   0  0  0  0  0  0  0  0  0  0  0  0
   60.9027   33.4218   45.0158 H   0  0  0  0  0  0  0  0  0  0  0  0
   60.6582   34.9678   45.9336 H   0  0  0  0  0  0  0  0  0  0  0  0
   62.2553   32.5253   46.8324 H   0  0  0  0  0  0  0  0  0  0  0  0
   62.8946   34.1468   46.3772 H   0  0  0  0  0  0  0  0  0  0  0  0
   62.7568   33.8414   48.8523 H   0  0  0  0  0  0  0  0  0  0  0  0
   61.7012   35.1765   48.2594 H   0  0  0  0  0  0  0  0  0  0  0  0
   61.4803   33.5168   50.8942 H   0  0  0  0  0  0  0  0  0  0  0  0
   59.5091   32.4117   51.9450 H   0  0  0  0  0  0  0  0  0  0  0  0
   57.5808   31.6965   50.5376 H   0  0  0  0  0  0  0  0  0  0  0  0
   57.6033   32.0985   48.0823 H   0  0  0  0  0  0  0  0  0  0  0  0
   58.7423   30.7563   46.9949 H   0  0  0  0  0  0  0  0  0  0  0  0
   55.5857   22.9400   47.7148 H   0  0  0  0  0  0  0  0  0  0  0  0
   54.3790   23.6963   46.6201 H   0  0  0  0  0  0  0  0  0  0  0  0
   54.8112   23.9029   44.2032 H   0  0  0  0  0  0  0  0  0  0  0  0
   55.9362   22.8688   42.2313 H   0  0  0  0  0  0  0  0  0  0  0  0
   57.8964   21.3599   42.5566 H   0  0  0  0  0  0  0  0  0  0  0  0
   58.7334   20.8758   44.8566 H   0  0  0  0  0  0  0  0  0  0  0  0
  1  2  2  0
  2  3  1  0
  3  4  1  0
  4  5  1  0
  5  6  2  0
  5  7  1  0
  7  8  2  0
  8  9  1  0
  9 10  2  0
 10 11  1  0
 11 12  1  0
 12 13  2  0
 12 14  2  0
 12 15  1  0
 15 16  1  0
 16 17  1  0
 17 18  1  0
 18 19  1  0
 19 20  2  0
 20 21  1  0
 21 22  2  0
 22 23  1  0
 23 24  2  0
 11 25  2  0
  2 26  1  0
 26 27  1  0
 27 28  1  0
 28 29  2  0
 29 30  1  0
 30 31  2  0
 31 32  1  0
 32 33  2  0
 33 34  1  0
 25  7  1  0
 33 28  1  0
 24 15  1  0
 24 19  1  0
  3 35  1  0
  3 36  1  0
  8 37  1  0
  9 38  1  0
 10 39  1  0
 16 40  1  0
 16 41  1  0
 17 42  1  0
 17 43  1  0
 18 44  1  0
 18 45  1  0
 20 46  1  0
 21 47  1  0
 22 48  1  0
 23 49  1  0
 25 50  1  0
 27 51  1  0
 27 52  1  0
 29 53  1  0
 30 54  1  0
 31 55  1  0
 32 56  1  0
M  CHG  3   4  -1  26  -1  34  -1
M  END
>  <UniqueID>  (60) 
56

>  <SMILES>  (60) 
O=C(C[N-]C(=O)c1cccc(S(=O)(=O)N2CCCc3ccccc32)c1)[N-]Cc1ccccc1[O-]

>  <Energy>  (60) 
61.21587902951929

>  <Genealogy>  (60) 
O=C(C[N-]C(=O)c1cccc(S(=O)(=O)N2CCCc3ccccc32)c1)[N-]Cc1ccccc1[O-] (protonated)
O=C(C[N-]C(=O)c1cccc(S(=O)(=O)N2CCCc3ccccc32)c1)[N-]Cc1ccccc1[O-] (3D coordinates assigned)
O=C(C[N-]C(=O)c1cccc(S(=O)(=O)N2CCCc3ccccc32)c1)[N-]Cc1ccccc1[O-] (nonaromatic ring conformer: 61.21587902951929 kcal/mol)

>  <smiles>  (60) 
O=C(CNC(=O)c1cccc(S(=O)(=O)N2CCCc3ccccc32)c1)NCc1ccccc1O

>  <score_type>  (60) 
oracle

>  <origin>  (60) 
adg

>  <m_score__min__energy>  (60) 
-16.73

>  <m_primary>  (60) 
energy

$$$$
60:0
     RDKit          3D

 45 47  0  0  0  0  0  0  0  0999 V2000
   55.2916   31.0856   44.3123 H   0  0  0  0  0  0  0  0  0  0  0  0
   56.3180   30.7360   44.1270 C   0  0  0  0  0  0  0  0  0  0  0  0
   56.6110   29.3000   44.2550 C   0  0  0  0  0  0  0  0  0  0  0  0
   57.3940   28.7730   43.4260 O   0  0  0  0  0  0  0  0  0  0  0  0
   55.9970   28.4620   45.2440 N   0  0  0  0  0  0  0  0  0  0  0  0
   56.6350   27.3430   45.9480 C   0  0  0  0  0  0  0  0  0  0  0  0
   56.9270   26.5756   45.2160 H   0  0  0  0  0  0  0  0  0  0  0  0
   55.9192   26.9274   46.6725 H   0  0  0  0  0  0  0  0  0  0  0  0
   57.8550   27.8070   46.6880 C   0  0  0  0  0  0  0  0  0  0  0  0
   58.3060   27.1110   47.6370 O   0  0  0  0  0  0  0  0  0  0  0  0
   58.5530   28.9870   46.2540 N   0  0  0  0  0  0  0  0  0  0  0  0
   58.3560   29.3590   45.3000 H   0  0  0  0  0  0  0  0  0  0  0  0
   59.5880   29.6120   47.0270 C   0  0  0  0  0  0  0  0  0  0  0  0
   60.6600   30.2370   46.3750 C   0  0  0  0  0  0  0  0  0  0  0  0
   60.7072   30.2327   45.2760 H   0  0  0  0  0  0  0  0  0  0  0  0
   61.6700   30.8660   47.1100 C   0  0  0  0  0  0  0  0  0  0  0  0
   62.5219   31.3280   46.5896 H   0  0  0  0  0  0  0  0  0  0  0  0
   61.5980   30.9080   48.5010 C   0  0  0  0  0  0  0  0  0  0  0  0
   62.8590   31.7560   49.4510 S   0  0  0  0  0  0  0  0  0  0  0  0
   62.9090   33.1410   48.3100 C   0  0  0  0  0  0  0  0  0  0  0  0
   62.2250   34.1280   48.5370 O   0  0  0  0  0  0  0  0  0  0  0  0
   63.7730   33.0940   47.0860 C   0  0  0  0  0  0  0  0  0  0  0  0
   64.8299   33.0365   47.3853 H   0  0  0  0  0  0  0  0  0  0  0  0
   63.5128   32.2087   46.4873 H   0  0  0  0  0  0  0  0  0  0  0  0
   63.6103   34.0023   46.4873 H   0  0  0  0  0  0  0  0  0  0  0  0
   60.5270   30.2900   49.1580 C   0  0  0  0  0  0  0  0  0  0  0  0
   60.4768   30.3082   50.2567 H   0  0  0  0  0  0  0  0  0  0  0  0
   59.5210   29.6500   48.4280 C   0  0  0  0  0  0  0  0  0  0  0  0
   58.6774   29.1765   48.9517 H   0  0  0  0  0  0  0  0  0  0  0  0
   57.2550   31.6340   43.7930 C   0  0  0  0  0  0  0  0  0  0  0  0
   57.5588   31.7011   42.7379 H   0  0  0  0  0  0  0  0  0  0  0  0
   57.9050   32.5430   44.7700 C   0  0  0  0  0  0  0  0  0  0  0  0
   58.5570   33.7430   44.3730 C   0  0  0  0  0  0  0  0  0  0  0  0
   58.5724   34.0302   43.3113 H   0  0  0  0  0  0  0  0  0  0  0  0
   59.1820   34.5650   45.3270 C   0  0  0  0  0  0  0  0  0  0  0  0
   59.6959   35.4904   45.0279 H   0  0  0  0  0  0  0  0  0  0  0  0
   59.1310   34.1730   46.6600 C   0  0  0  0  0  0  0  0  0  0  0  0
   58.5020   33.0360   47.0480 C   0  0  0  0  0  0  0  0  0  0  0  0
   57.8660   32.1980   46.1400 C   0  0  0  0  0  0  0  0  0  0  0  0
   57.3458   31.2899   46.4787 H   0  0  0  0  0  0  0  0  0  0  0  0
   58.6120   32.8930   48.4170 O   0  0  0  0  0  0  0  0  0  0  0  0
   59.3530   34.0120   48.9230 C   0  0  0  0  0  0  0  0  0  0  0  0
   58.7446   34.5877   49.6361 H   0  0  0  0  0  0  0  0  0  0  0  0
   60.2584   33.6974   49.4628 H   0  0  0  0  0  0  0  0  0  0  0  0
   59.6630   34.8060   47.7690 O   0  0  0  0  0  0  0  0  0  0  0  0
  1  2  1  0
  2  3  1  0
  3  4  2  0
  3  5  1  0
  5  6  1  0
  6  7  1  0
  6  8  1  0
  6  9  1  0
  9 10  2  0
  9 11  1  0
 11 12  1  0
 11 13  1  0
 13 14  2  0
 14 15  1  0
 14 16  1  0
 16 17  1  0
 16 18  2  0
 18 19  1  0
 19 20  1  0
 20 21  2  0
 20 22  1  0
 22 23  1  0
 22 24  1  0
 22 25  1  0
 18 26  1  0
 26 27  1  0
 26 28  2  0
 28 29  1  0
  2 30  2  0
 30 31  1  0
 30 32  1  0
 32 33  2  0
 33 34  1  0
 33 35  1  0
 35 36  1  0
 35 37  2  0
 37 38  1  0
 38 39  2  0
 39 40  1  0
 38 41  1  0
 41 42  1  0
 42 43  1  0
 42 44  1  0
 42 45  1  0
 28 13  1  0
 39 32  1  0
 45 37  1  0
M  CHG  1   5  -1
M  END
>  <UniqueID>  (61) 
57

>  <SMILES>  (61) 
CC(=O)Sc1ccc(NC(=O)C[N-]C(=O)/C=C/c2ccc3c(c2)OCO3)cc1

>  <Energy>  (61) 
73.721809117466

>  <Genealogy>  (61) 
CC(=O)Sc1ccc(NC(=O)C[N-]C(=O)C=Cc2ccc3c(c2)OCO3)cc1 (protonated)
CC(=O)Sc1ccc(NC(=O)C[N-]C(=O)/C=C/c2ccc3c(c2)OCO3)cc1 (cis-trans isomerization)
CC(=O)Sc1ccc(NC(=O)C[N-]C(=O)/C=C/c2ccc3c(c2)OCO3)cc1 (3D coordinates assigned)
CC(=O)Sc1ccc(NC(=O)C[N-]C(=O)/C=C/c2ccc3c(c2)OCO3)cc1 (nonaromatic ring conformer: 73.721809117466 kcal/mol)

>  <smiles>  (61) 
CC(=O)Sc1ccc(NC(=O)CNC(=O)C=Cc2ccc3c(c2)OCO3)cc1

>  <score_type>  (61) 
oracle

>  <origin>  (61) 
adg

>  <m_score__min__energy>  (61) 
-10.32

>  <m_primary>  (61) 
energy

$$$$
61:0
     RDKit          3D

 43 45  0  0  0  0  0  0  0  0999 V2000
   57.2080   22.7170   44.9470 C   0  0  0  0  0  0  0  0  0  0  0  0
   55.7860   22.9990   45.3200 C   0  0  0  0  0  0  0  0  0  0  0  0
   54.8590   22.0030   45.3110 N   0  0  0  0  0  0  0  0  0  0  0  0
   53.6300   22.4640   45.6240 C   0  0  0  0  0  0  0  0  0  0  0  0
   52.6120   21.7270   45.6740 O   0  0  0  0  0  0  0  0  0  0  0  0
   53.6220   24.1130   45.9240 S   0  0  0  0  0  0  0  0  0  0  0  0
   55.2820   24.2620   45.6690 C   0  0  0  0  0  0  0  0  0  0  0  0
   56.0070   25.5420   45.7580 C   0  0  0  0  0  0  0  0  0  0  0  0
   55.5630   26.4340   46.5290 O   0  0  0  0  0  0  0  0  0  0  0  0
   57.2070   25.7690   44.9980 N   0  0  0  0  0  0  0  0  0  0  0  0
   57.9310   27.0110   44.9990 C   0  0  0  0  0  0  0  0  0  0  0  0
   59.3070   27.0020   45.2580 C   0  0  0  0  0  0  0  0  0  0  0  0
   60.0320   28.1970   45.2670 C   0  0  0  0  0  0  0  0  0  0  0  0
   59.3840   29.4110   45.0270 C   0  0  0  0  0  0  0  0  0  0  0  0
   58.0030   29.4380   44.7900 C   0  0  0  0  0  0  0  0  0  0  0  0
   57.1830   30.9690   44.4760 S   0  0  0  0  0  0  0  0  0  0  0  0
   55.6980   30.7370   44.4230 O   0  0  0  0  0  0  0  0  0  0  0  0
   57.6180   31.4990   43.1380 O   0  0  0  0  0  0  0  0  0  0  0  0
   57.5420   32.1510   45.7140 N   0  0  0  0  0  0  0  0  0  0  0  0
   58.9810   32.1110   46.0580 C   0  0  0  0  0  0  0  0  0  0  0  0
   59.4110   33.3750   46.8090 C   0  0  0  0  0  0  0  0  0  0  0  0
   59.2200   34.6290   45.9380 C   0  0  0  0  0  0  0  0  0  0  0  0
   58.1280   34.4500   44.8690 C   0  0  0  0  0  0  0  0  0  0  0  0
   57.0270   33.4960   45.3540 C   0  0  0  0  0  0  0  0  0  0  0  0
   57.2770   28.2380   44.7950 C   0  0  0  0  0  0  0  0  0  0  0  0
   57.8098   22.5977   45.8600 H   0  0  0  0  0  0  0  0  0  0  0  0
   57.2549   21.7921   44.3534 H   0  0  0  0  0  0  0  0  0  0  0  0
   57.6043   23.5540   44.3534 H   0  0  0  0  0  0  0  0  0  0  0  0
   57.5480   25.0190   44.3580 H   0  0  0  0  0  0  0  0  0  0  0  0
   59.8202   26.0493   45.4555 H   0  0  0  0  0  0  0  0  0  0  0  0
   61.1142   28.1814   45.4633 H   0  0  0  0  0  0  0  0  0  0  0  0
   59.9594   30.3485   45.0240 H   0  0  0  0  0  0  0  0  0  0  0  0
   59.1728   31.2341   46.6938 H   0  0  0  0  0  0  0  0  0  0  0  0
   59.5588   32.0495   45.1240 H   0  0  0  0  0  0  0  0  0  0  0  0
   58.8039   33.4751   47.7208 H   0  0  0  0  0  0  0  0  0  0  0  0
   60.4776   33.2849   47.0625 H   0  0  0  0  0  0  0  0  0  0  0  0
   58.9402   35.4702   46.5892 H   0  0  0  0  0  0  0  0  0  0  0  0
   60.1690   34.8172   45.4146 H   0  0  0  0  0  0  0  0  0  0  0  0
   57.6808   35.4298   44.6454 H   0  0  0  0  0  0  0  0  0  0  0  0
   58.5898   34.0196   43.9682 H   0  0  0  0  0  0  0  0  0  0  0  0
   56.5471   33.9364   46.2404 H   0  0  0  0  0  0  0  0  0  0  0  0
   56.3163   33.3650   44.5247 H   0  0  0  0  0  0  0  0  0  0  0  0
   56.1884   28.2574   44.6382 H   0  0  0  0  0  0  0  0  0  0  0  0
  1  2  1  0
  2  3  1  0
  3  4  1  0
  4  5  2  0
  4  6  1  0
  6  7  1  0
  7  8  1  0
  8  9  2  0
  8 10  1  0
 10 11  1  0
 11 12  2  0
 12 13  1  0
 13 14  2  0
 14 15  1  0
 15 16  1  0
 16 17  2  0
 16 18  2  0
 16 19  1  0
 19 20  1  0
 20 21  1  0
 21 22  1  0
 22 23  1  0
 23 24  1  0
 15 25  2  0
  7  2  2  0
 25 11  1  0
 24 19  1  0
  1 26  1  0
  1 27  1  0
  1 28  1  0
 10 29  1  0
 12 30  1  0
 13 31  1  0
 14 32  1  0
 20 33  1  0
 20 34  1  0
 21 35  1  0
 21 36  1  0
 22 37  1  0
 22 38  1  0
 23 39  1  0
 23 40  1  0
 24 41  1  0
 24 42  1  0
 25 43  1  0
M  CHG  1   3  -1
M  END
>  <UniqueID>  (62) 
58

>  <SMILES>  (62) 
Cc1[n-]c(=O)sc1C(=O)Nc1cccc(S(=O)(=O)N2CCCCC2)c1

>  <Energy>  (62) 
85.09055890134219

>  <Genealogy>  (62) 
Cc1[n-]c(=O)sc1C(=O)Nc1cccc(S(=O)(=O)N2CCCCC2)c1 (protonated)
Cc1[n-]c(=O)sc1C(=O)Nc1cccc(S(=O)(=O)N2CCCCC2)c1 (3D coordinates assigned)
Cc1[n-]c(=O)sc1C(=O)Nc1cccc(S(=O)(=O)N2CCCCC2)c1 (nonaromatic ring conformer: 85.09055890134219 kcal/mol)

>  <smiles>  (62) 
Cc1[nH]c(=O)sc1C(=O)Nc1cccc(S(=O)(=O)N2CCCCC2)c1

>  <score_type>  (62) 
oracle

>  <origin>  (62) 
adg

>  <m_score__min__energy>  (62) 
-11.06

>  <m_primary>  (62) 
energy

$$$$
62:0
     RDKit          3D

 72 76  0  0  0  0  0  0  0  0999 V2000
   58.9500   24.7770   45.6570 O   0  0  0  0  0  0  0  0  0  0  0  0
   59.0390   25.9010   46.2190 C   0  0  0  0  0  0  0  0  0  0  0  0
   59.6750   25.9870   47.5030 N   0  0  0  0  0  0  0  0  0  0  0  0
   59.7460   27.1640   48.3250 C   0  0  0  0  0  0  0  0  0  0  0  0
   58.7710   28.1570   48.1770 C   0  0  0  0  0  0  0  0  0  0  0  0
   58.8340   29.3300   48.9370 C   0  0  0  0  0  0  0  0  0  0  0  0
   59.8700   29.5160   49.8650 C   0  0  0  0  0  0  0  0  0  0  0  0
   59.9670   31.0000   50.8130 S   0  0  0  0  0  0  0  0  0  0  0  0
   59.2170   32.0920   50.1020 O   0  0  0  0  0  0  0  0  0  0  0  0
   61.4080   31.4190   50.9050 O   0  0  0  0  0  0  0  0  0  0  0  0
   59.3160   30.8150   52.4290 N   0  0  0  0  0  0  0  0  0  0  0  0
   58.9140   29.4240   52.7330 C   0  0  0  0  0  0  0  0  0  0  0  0
   57.3950   29.2070   52.6410 C   0  0  0  0  0  0  0  0  0  0  0  0
   56.8260   30.0830   51.6970 O   0  0  0  0  0  0  0  0  0  0  0  0
   56.8790   31.4100   52.1820 C   0  0  0  0  0  0  0  0  0  0  0  0
   58.2690   31.8090   52.7320 C   0  0  0  0  0  0  0  0  0  0  0  0
   60.8320   28.5120   50.0340 C   0  0  0  0  0  0  0  0  0  0  0  0
   60.7580   27.3340   49.2890 C   0  0  0  0  0  0  0  0  0  0  0  0
   58.4800   27.0940   45.5510 C   0  0  0  0  0  0  0  0  0  0  0  0
   59.3160   27.9440   44.8110 C   0  0  0  0  0  0  0  0  0  0  0  0
   58.8320   29.1640   44.3310 C   0  0  0  0  0  0  0  0  0  0  0  0
   57.5000   29.5400   44.5680 C   0  0  0  0  0  0  0  0  0  0  0  0
   57.0150   30.9190   44.2040 C   0  0  0  0  0  0  0  0  0  0  0  0
   58.1500   31.8700   44.1410 N   0  0  0  0  0  0  0  0  0  0  0  0
   58.9530   31.8730   45.3790 C   0  0  0  0  0  0  0  0  0  0  0  0
   58.2560   32.6290   46.5260 C   0  0  0  0  0  0  0  0  0  0  0  0
   57.8880   34.0060   46.1430 N   0  0  0  0  0  0  0  0  0  0  0  0
   59.0580   34.9110   46.0910 C   0  0  0  0  0  0  0  0  0  0  0  0
   60.1480   34.4270   47.0110 C   0  0  0  0  0  0  0  0  0  0  0  0
   61.3040   33.8340   46.4800 C   0  0  0  0  0  0  0  0  0  0  0  0
   62.3050   33.3550   47.3300 C   0  0  0  0  0  0  0  0  0  0  0  0
   62.1570   33.4600   48.7160 C   0  0  0  0  0  0  0  0  0  0  0  0
   61.0050   34.0460   49.2570 C   0  0  0  0  0  0  0  0  0  0  0  0
   60.8430   34.1510   50.6360 O   0  0  0  0  0  0  0  0  0  0  0  0
   60.0030   34.5280   48.4050 C   0  0  0  0  0  0  0  0  0  0  0  0
   57.0840   34.0150   44.9030 C   0  0  0  0  0  0  0  0  0  0  0  0
   57.7560   33.2420   43.7520 C   0  0  0  0  0  0  0  0  0  0  0  0
   56.6440   28.6550   45.2390 C   0  0  0  0  0  0  0  0  0  0  0  0
   57.1300   27.4400   45.7270 C   0  0  0  0  0  0  0  0  0  0  0  0
   57.9501   28.0144   47.4588 H   0  0  0  0  0  0  0  0  0  0  0  0
   58.0686   30.1092   48.8066 H   0  0  0  0  0  0  0  0  0  0  0  0
   59.4087   28.7512   52.0171 H   0  0  0  0  0  0  0  0  0  0  0  0
   59.2157   29.2121   53.7694 H   0  0  0  0  0  0  0  0  0  0  0  0
   57.1958   28.1688   52.3369 H   0  0  0  0  0  0  0  0  0  0  0  0
   56.9477   29.4073   53.6258 H   0  0  0  0  0  0  0  0  0  0  0  0
   56.6209   32.0925   51.3589 H   0  0  0  0  0  0  0  0  0  0  0  0
   56.1675   31.4784   53.0181 H   0  0  0  0  0  0  0  0  0  0  0  0
   58.5596   32.7714   52.2854 H   0  0  0  0  0  0  0  0  0  0  0  0
   58.1835   31.8734   53.8268 H   0  0  0  0  0  0  0  0  0  0  0  0
   61.6492   28.6525   50.7568 H   0  0  0  0  0  0  0  0  0  0  0  0
   61.4944   26.5341   49.4559 H   0  0  0  0  0  0  0  0  0  0  0  0
   60.3561   27.6490   44.6080 H   0  0  0  0  0  0  0  0  0  0  0  0
   59.4974   29.8326   43.7651 H   0  0  0  0  0  0  0  0  0  0  0  0
   56.5200   30.8810   43.2224 H   0  0  0  0  0  0  0  0  0  0  0  0
   56.3072   31.2612   44.9734 H   0  0  0  0  0  0  0  0  0  0  0  0
   59.1229   30.8325   45.6930 H   0  0  0  0  0  0  0  0  0  0  0  0
   59.9011   32.3876   45.1639 H   0  0  0  0  0  0  0  0  0  0  0  0
   57.3431   32.0833   46.8067 H   0  0  0  0  0  0  0  0  0  0  0  0
   58.9610   32.6895   47.3682 H   0  0  0  0  0  0  0  0  0  0  0  0
   59.4432   34.9441   45.0612 H   0  0  0  0  0  0  0  0  0  0  0  0
   58.7431   35.9144   46.4136 H   0  0  0  0  0  0  0  0  0  0  0  0
   61.4228   33.7458   45.3900 H   0  0  0  0  0  0  0  0  0  0  0  0
   63.2104   32.8948   46.9076 H   0  0  0  0  0  0  0  0  0  0  0  0
   62.9460   33.0821   49.3828 H   0  0  0  0  0  0  0  0  0  0  0  0
   60.5550   33.3580   51.1980 H   0  0  0  0  0  0  0  0  0  0  0  0
   59.0983   34.9878   48.8293 H   0  0  0  0  0  0  0  0  0  0  0  0
   56.1077   33.5540   45.1135 H   0  0  0  0  0  0  0  0  0  0  0  0
   56.9794   35.0622   44.5829 H   0  0  0  0  0  0  0  0  0  0  0  0
   57.0507   33.1805   42.9101 H   0  0  0  0  0  0  0  0  0  0  0  0
   58.6716   33.7856   43.4759 H   0  0  0  0  0  0  0  0  0  0  0  0
   55.5856   28.9187   45.3816 H   0  0  0  0  0  0  0  0  0  0  0  0
   56.4523   26.7506   46.2518 H   0  0  0  0  0  0  0  0  0  0  0  0
  1  2  2  0
  2  3  1  0
  3  4  1  0
  4  5  2  0
  5  6  1  0
  6  7  2  0
  7  8  1  0
  8  9  2  0
  8 10  2  0
  8 11  1  0
 11 12  1  0
 12 13  1  0
 13 14  1  0
 14 15  1  0
 15 16  1  0
  7 17  1  0
 17 18  2  0
  2 19  1  0
 19 20  2  0
 20 21  1  0
 21 22  2  0
 22 23  1  0
 23 24  1  0
 24 25  1  0
 25 26  1  0
 26 27  1  0
 27 28  1  0
 28 29  1  0
 29 30  2  0
 30 31  1  0
 31 32  2  0
 32 33  1  0
 33 34  1  0
 33 35  2  0
 27 36  1  0
 36 37  1  0
 22 38  1  0
 38 39  2  0
 18  4  1  0
 39 19  1  0
 16 11  1  0
 37 24  1  0
 35 29  1  0
  5 40  1  0
  6 41  1  0
 12 42  1  0
 12 43  1  0
 13 44  1  0
 13 45  1  0
 15 46  1  0
 15 47  1  0
 16 48  1  0
 16 49  1  0
 17 50  1  0
 18 51  1  0
 20 52  1  0
 21 53  1  0
 23 54  1  0
 23 55  1  0
 25 56  1  0
 25 57  1  0
 26 58  1  0
 26 59  1  0
 28 60  1  0
 28 61  1  0
 30 62  1  0
 31 63  1  0
 32 64  1  0
 34 65  1  0
 35 66  1  0
 36 67  1  0
 36 68  1  0
 37 69  1  0
 37 70  1  0
 38 71  1  0
 39 72  1  0
M  CHG  1   3  -1
M  END
>  <UniqueID>  (63) 
59

>  <SMILES>  (63) 
O=C([N-]c1ccc(S(=O)(=O)N2CCOCC2)cc1)c1ccc(CN2CCN(Cc3cccc(O)c3)CC2)cc1

>  <Energy>  (63) 
100.90028393967445

>  <Genealogy>  (63) 
O=C([N-]c1ccc(S(=O)(=O)N2CCOCC2)cc1)c1ccc(CN2CCN(Cc3cccc(O)c3)CC2)cc1 (protonated)
O=C([N-]c1ccc(S(=O)(=O)N2CCOCC2)cc1)c1ccc(CN2CCN(Cc3cccc(O)c3)CC2)cc1 (3D coordinates assigned)
O=C([N-]c1ccc(S(=O)(=O)N2CCOCC2)cc1)c1ccc(CN2CCN(Cc3cccc(O)c3)CC2)cc1 (nonaromatic ring conformer: 100.90028393967445 kcal/mol)

>  <smiles>  (63) 
O=C(Nc1ccc(S(=O)(=O)N2CCOCC2)cc1)c1ccc(CN2CCN(Cc3cccc(O)c3)CC2)cc1

>  <score_type>  (63) 
oracle

>  <origin>  (63) 
adg

>  <m_score__min__energy>  (63) 
-10.470000000000001

>  <m_primary>  (63) 
energy

$$$$
63:0
     RDKit          3D

 39 41  0  0  0  0  0  0  0  0999 V2000
   56.2710   29.6080   42.2810 C   0  0  0  0  0  0  0  0  0  0  0  0
   56.9440   30.5080   43.0210 C   0  0  0  0  0  0  0  0  0  0  0  0
   57.6180   31.5320   42.3270 C   0  0  0  0  0  0  0  0  0  0  0  0
   58.1400   32.6330   43.0000 C   0  0  0  0  0  0  0  0  0  0  0  0
   58.0050   32.7470   44.3870 C   0  0  0  0  0  0  0  0  0  0  0  0
   58.5050   33.9460   45.1040 C   0  0  0  0  0  0  0  0  0  0  0  0
   58.1290   35.0870   44.7170 O   0  0  0  0  0  0  0  0  0  0  0  0
   59.4290   33.8530   46.2610 C   0  0  0  0  0  0  0  0  0  0  0  0
   60.8230   33.8610   46.0780 C   0  0  0  0  0  0  0  0  0  0  0  0
   61.6820   33.7540   47.1740 C   0  0  0  0  0  0  0  0  0  0  0  0
   61.1710   33.6270   48.4700 C   0  0  0  0  0  0  0  0  0  0  0  0
   62.0760   33.5250   49.5370 O   0  0  0  0  0  0  0  0  0  0  0  0
   63.4870   33.4060   49.3870 C   0  0  0  0  0  0  0  0  0  0  0  0
   59.7770   33.6030   48.6570 C   0  0  0  0  0  0  0  0  0  0  0  0
   58.9160   33.7070   47.5610 C   0  0  0  0  0  0  0  0  0  0  0  0
   57.3720   31.7180   45.0990 C   0  0  0  0  0  0  0  0  0  0  0  0
   56.9080   30.5490   44.4550 C   0  0  0  0  0  0  0  0  0  0  0  0
   56.4900   29.5380   45.2610 C   0  0  0  0  0  0  0  0  0  0  0  0
   57.2010   28.2740   45.5250 C   0  0  0  0  0  0  0  0  0  0  0  0
   58.5360   28.1470   45.4260 N   0  0  0  0  0  0  0  0  0  0  0  0
   58.7460   26.8380   45.6820 C   0  0  0  0  0  0  0  0  0  0  0  0
   59.8960   26.3260   45.6950 O   0  0  0  0  0  0  0  0  0  0  0  0
   57.6280   26.1190   45.9150 N   0  0  0  0  0  0  0  0  0  0  0  0
   56.6530   27.0360   45.7980 C   0  0  0  0  0  0  0  0  0  0  0  0
   55.2990   26.7270   45.9060 O   0  0  0  0  0  0  0  0  0  0  0  0
   55.7274   28.7879   42.7728 H   0  0  0  0  0  0  0  0  0  0  0  0
   56.2645   29.6924   41.1843 H   0  0  0  0  0  0  0  0  0  0  0  0
   57.7337   31.4604   41.2354 H   0  0  0  0  0  0  0  0  0  0  0  0
   58.6629   33.4196   42.4362 H   0  0  0  0  0  0  0  0  0  0  0  0
   61.2401   33.9522   45.0642 H   0  0  0  0  0  0  0  0  0  0  0  0
   62.7706   33.7697   47.0167 H   0  0  0  0  0  0  0  0  0  0  0  0
   63.9592   33.3662   50.3797 H   0  0  0  0  0  0  0  0  0  0  0  0
   63.7204   32.4850   48.8327 H   0  0  0  0  0  0  0  0  0  0  0  0
   63.8714   34.2749   48.8327 H   0  0  0  0  0  0  0  0  0  0  0  0
   59.3625   33.5019   49.6709 H   0  0  0  0  0  0  0  0  0  0  0  0
   57.8277   33.6743   47.7174 H   0  0  0  0  0  0  0  0  0  0  0  0
   57.2333   31.8234   46.1851 H   0  0  0  0  0  0  0  0  0  0  0  0
   55.5235   29.6768   45.7676 H   0  0  0  0  0  0  0  0  0  0  0  0
   54.9070   26.3460   46.7570 H   0  0  0  0  0  0  0  0  0  0  0  0
  1  2  2  0
  2  3  1  0
  3  4  2  0
  4  5  1  0
  5  6  1  0
  6  7  2  0
  6  8  1  0
  8  9  2  0
  9 10  1  0
 10 11  2  0
 11 12  1  0
 12 13  1  0
 11 14  1  0
 14 15  2  0
  5 16  2  0
 16 17  1  0
 17 18  2  3
 18 19  1  0
 19 20  1  0
 20 21  1  0
 21 22  2  0
 21 23  1  0
 23 24  1  0
 24 25  1  0
 17  2  1  0
 24 19  2  0
 15  8  1  0
  1 26  1  0
  1 27  1  0
  3 28  1  0
  4 29  1  0
  9 30  1  0
 10 31  1  0
 13 32  1  0
 13 33  1  0
 13 34  1  0
 14 35  1  0
 15 36  1  0
 16 37  1  0
 18 38  1  0
 25 39  1  0
M  CHG  2  20  -1  23  -1
M  END
>  <UniqueID>  (64) 
60

>  <SMILES>  (64) 
C=c1ccc(C(=O)c2ccc(OC)cc2)cc1=Cc1[n-]c(=O)[n-]c1O

>  <Energy>  (64) 
97.72171951193094

>  <Genealogy>  (64) 
C=c1ccc(C(=O)c2ccc(OC)cc2)cc1=Cc1[n-]c(=O)[n-]c1O (protonated)
C=c1ccc(C(=O)c2ccc(OC)cc2)cc1=Cc1[n-]c(=O)[n-]c1O (3D coordinates assigned)
C=c1ccc(C(=O)c2ccc(OC)cc2)cc1=Cc1[n-]c(=O)[n-]c1O (optimized conformer: 97.72171951193094 kcal/mol)

>  <smiles>  (64) 
C=c1ccc(C(=O)c2ccc(OC)cc2)cc1=Cc1[nH]c(=O)[nH]c1O

>  <score_type>  (64) 
oracle

>  <origin>  (64) 
adg

>  <m_score__min__energy>  (64) 
-12.44

>  <m_primary>  (64) 
energy

$$$$
64:0
     RDKit          3D

 45 48  0  0  0  0  0  0  0  0999 V2000
   64.5310   32.7900   49.1860 C   0  0  0  0  0  0  0  0  0  0  0  0
   63.5140   33.2170   48.1790 C   0  0  0  0  0  0  0  0  0  0  0  0
   63.7870   33.9330   47.1140 O   0  0  0  0  0  0  0  0  0  0  0  0
   62.7100   34.1920   46.4300 N   0  0  0  0  0  0  0  0  0  0  0  0
   61.6780   33.6070   47.0730 C   0  0  0  0  0  0  0  0  0  0  0  0
   60.2760   33.7340   46.6320 C   0  0  0  0  0  0  0  0  0  0  0  0
   59.2220   33.7240   47.5630 C   0  0  0  0  0  0  0  0  0  0  0  0
   57.8990   33.8580   47.1300 C   0  0  0  0  0  0  0  0  0  0  0  0
   57.6180   33.9900   45.7680 C   0  0  0  0  0  0  0  0  0  0  0  0
   58.6580   33.9800   44.8350 C   0  0  0  0  0  0  0  0  0  0  0  0
   59.9820   33.8450   45.2630 C   0  0  0  0  0  0  0  0  0  0  0  0
   62.1540   32.9720   48.2120 C   0  0  0  0  0  0  0  0  0  0  0  0
   61.3710   32.3180   49.3210 C   0  0  0  0  0  0  0  0  0  0  0  0
   60.8230   31.0410   48.8760 N   0  0  0  0  0  0  0  0  0  0  0  0
   60.0550   30.8460   47.7870 C   0  0  0  0  0  0  0  0  0  0  0  0
   59.7760   29.4950   47.6990 C   0  0  0  0  0  0  0  0  0  0  0  0
   58.9900   28.7860   46.6690 C   0  0  0  0  0  0  0  0  0  0  0  0
   59.1420   27.4070   46.4460 C   0  0  0  0  0  0  0  0  0  0  0  0
   58.3740   26.7830   45.4610 C   0  0  0  0  0  0  0  0  0  0  0  0
   57.4660   27.5270   44.7090 C   0  0  0  0  0  0  0  0  0  0  0  0
   57.3360   28.8970   44.9560 C   0  0  0  0  0  0  0  0  0  0  0  0
   56.2040   29.8610   44.0250 S   0  0  0  0  0  0  0  0  0  0  0  0
   56.6210   29.7840   42.3490 N   0  0  0  0  0  0  0  0  0  0  0  0
   56.2600   31.2900   44.4880 O   0  0  0  0  0  0  0  0  0  0  0  0
   54.8100   29.3350   44.2280 O   0  0  0  0  0  0  0  0  0  0  0  0
   58.0940   29.4870   45.9190 N   0  0  0  0  0  0  0  0  0  0  0  0
   60.4110   28.9260   48.7900 C   0  0  0  0  0  0  0  0  0  0  0  0
   61.0400   29.8880   49.4910 N   0  0  0  0  0  0  0  0  0  0  0  0
   64.1359   32.9559   50.1991 H   0  0  0  0  0  0  0  0  0  0  0  0
   64.7553   31.7217   49.0503 H   0  0  0  0  0  0  0  0  0  0  0  0
   65.4507   33.3779   49.0503 H   0  0  0  0  0  0  0  0  0  0  0  0
   59.4389   33.6104   48.6354 H   0  0  0  0  0  0  0  0  0  0  0  0
   57.0786   33.8595   47.8628 H   0  0  0  0  0  0  0  0  0  0  0  0
   56.5773   34.1019   45.4298 H   0  0  0  0  0  0  0  0  0  0  0  0
   58.4347   34.0785   43.7624 H   0  0  0  0  0  0  0  0  0  0  0  0
   60.7970   33.8256   44.5245 H   0  0  0  0  0  0  0  0  0  0  0  0
   62.0353   32.1468   50.1808 H   0  0  0  0  0  0  0  0  0  0  0  0
   60.5411   32.9802   49.6086 H   0  0  0  0  0  0  0  0  0  0  0  0
   59.7105   31.6245   47.0904 H   0  0  0  0  0  0  0  0  0  0  0  0
   59.8597   26.8243   47.0421 H   0  0  0  0  0  0  0  0  0  0  0  0
   58.4854   25.7040   45.2783 H   0  0  0  0  0  0  0  0  0  0  0  0
   56.8589   27.0419   43.9304 H   0  0  0  0  0  0  0  0  0  0  0  0
   57.5000   29.2240   42.2770 H   0  0  0  0  0  0  0  0  0  0  0  0
   55.8730   29.2340   41.8730 H   0  0  0  0  0  0  0  0  0  0  0  0
   60.4028   27.8558   49.0441 H   0  0  0  0  0  0  0  0  0  0  0  0
  1  2  1  0
  2  3  1  0
  3  4  1  0
  4  5  2  0
  5  6  1  0
  6  7  2  0
  7  8  1  0
  8  9  2  0
  9 10  1  0
 10 11  2  0
  5 12  1  0
 12 13  1  0
 13 14  1  0
 14 15  1  0
 15 16  2  0
 16 17  1  0
 17 18  2  0
 18 19  1  0
 19 20  2  0
 20 21  1  0
 21 22  1  0
 22 23  1  0
 22 24  2  0
 22 25  2  0
 21 26  2  0
 16 27  1  0
 27 28  2  0
 12  2  2  0
 28 14  1  0
 11  6  1  0
 26 17  1  0
  1 29  1  0
  1 30  1  0
  1 31  1  0
  7 32  1  0
  8 33  1  0
  9 34  1  0
 10 35  1  0
 11 36  1  0
 13 37  1  0
 13 38  1  0
 15 39  1  0
 18 40  1  0
 19 41  1  0
 20 42  1  0
 23 43  1  0
 23 44  1  0
 27 45  1  0
M  END
>  <UniqueID>  (65) 
61

>  <SMILES>  (65) 
Cc1onc(-c2ccccc2)c1Cn1cc(-c2cccc(S(N)(=O)=O)n2)cn1

>  <Energy>  (65) 
110.2761543323139

>  <Genealogy>  (65) 
Cc1onc(-c2ccccc2)c1Cn1cc(-c2cccc(S(N)(=O)=O)n2)cn1 (3D coordinates assigned)
Cc1onc(-c2ccccc2)c1Cn1cc(-c2cccc(S(N)(=O)=O)n2)cn1 (optimized conformer: 110.2761543323139 kcal/mol)

>  <smiles>  (65) 
Cc1onc(-c2ccccc2)c1Cn1cc(-c2cccc(S(N)(=O)=O)n2)cn1

>  <score_type>  (65) 
oracle

>  <origin>  (65) 
adg

>  <m_score__min__energy>  (65) 
-10.09

>  <m_primary>  (65) 
energy

$$$$
65:0
     RDKit          3D

 35 36  0  0  0  0  0  0  0  0999 V2000
   58.8461   34.7829   47.2939 H   0  0  0  0  0  0  0  0  0  0  0  0
   58.4530   33.9840   46.6480 C   0  0  0  0  0  0  0  0  0  0  0  0
   58.2510   32.6980   47.1570 C   0  0  0  0  0  0  0  0  0  0  0  0
   58.5660   32.3940   48.5870 C   0  0  0  0  0  0  0  0  0  0  0  0
   57.9297   33.0081   49.2412 H   0  0  0  0  0  0  0  0  0  0  0  0
   58.3763   31.3289   48.7858 H   0  0  0  0  0  0  0  0  0  0  0  0
   59.6237   32.6214   48.7858 H   0  0  0  0  0  0  0  0  0  0  0  0
   57.7800   31.7150   46.3410 N   0  0  0  0  0  0  0  0  0  0  0  0
   57.4910   31.9260   45.0280 C   0  0  0  0  0  0  0  0  0  0  0  0
   57.0350   30.9200   44.3320 N   0  0  0  0  0  0  0  0  0  0  0  0
   56.3130   29.7600   44.7780 C   0  0  0  0  0  0  0  0  0  0  0  0
   55.1050   29.5790   44.4690 O   0  0  0  0  0  0  0  0  0  0  0  0
   57.0330   28.7180   45.5760 C   0  0  0  0  0  0  0  0  0  0  0  0
   58.0185   28.5331   45.1237 H   0  0  0  0  0  0  0  0  0  0  0  0
   57.1502   29.0796   46.6082 H   0  0  0  0  0  0  0  0  0  0  0  0
   56.2720   27.4700   45.5970 N   0  0  0  0  0  0  0  0  0  0  0  0
   55.4080   27.3720   45.0150 H   0  0  0  0  0  0  0  0  0  0  0  0
   56.6740   26.3600   46.4040 C   0  0  0  0  0  0  0  0  0  0  0  0
   57.7270   26.4300   47.0970 O   0  0  0  0  0  0  0  0  0  0  0  0
   55.9000   25.1540   46.3730 N   0  0  0  0  0  0  0  0  0  0  0  0
   56.1130   24.0220   45.5180 C   0  0  0  0  0  0  0  0  0  0  0  0
   55.9550   24.0990   44.1200 C   0  0  0  0  0  0  0  0  0  0  0  0
   55.6420   25.0453   43.6546 H   0  0  0  0  0  0  0  0  0  0  0  0
   56.1950   22.9760   43.3230 C   0  0  0  0  0  0  0  0  0  0  0  0
   56.0592   23.0377   42.2332 H   0  0  0  0  0  0  0  0  0  0  0  0
   56.6070   21.7750   43.9070 C   0  0  0  0  0  0  0  0  0  0  0  0
   56.7878   20.8906   43.2784 H   0  0  0  0  0  0  0  0  0  0  0  0
   56.7890   21.6990   45.2900 C   0  0  0  0  0  0  0  0  0  0  0  0
   57.1207   20.7562   45.7494 H   0  0  0  0  0  0  0  0  0  0  0  0
   56.5500   22.8200   46.0910 C   0  0  0  0  0  0  0  0  0  0  0  0
   56.7060   22.7580   47.1781 H   0  0  0  0  0  0  0  0  0  0  0  0
   57.6630   33.2210   44.4930 C   0  0  0  0  0  0  0  0  0  0  0  0
   57.4154   33.4238   43.4406 H   0  0  0  0  0  0  0  0  0  0  0  0
   58.1500   34.2420   45.3110 C   0  0  0  0  0  0  0  0  0  0  0  0
   58.2951   35.2521   44.9004 H   0  0  0  0  0  0  0  0  0  0  0  0
  1  2  1  0
  2  3  2  0
  3  4  1  0
  4  5  1  0
  4  6  1  0
  4  7  1  0
  3  8  1  0
  8  9  1  0
  9 10  2  0
 10 11  1  0
 11 12  2  0
 11 13  1  0
 13 14  1  0
 13 15  1  0
 13 16  1  0
 16 17  1  0
 16 18  1  0
 18 19  2  0
 18 20  1  0
 20 21  1  0
 21 22  2  0
 22 23  1  0
 22 24  1  0
 24 25  1  0
 24 26  2  0
 26 27  1  0
 26 28  1  0
 28 29  1  0
 28 30  2  0
 30 31  1  0
  9 32  1  0
 32 33  1  0
 32 34  2  0
 34 35  1  0
 34  2  1  0
 30 21  1  0
M  CHG  2   8  -1  20  -1
M  END
>  <UniqueID>  (66) 
62

>  <SMILES>  (66) 
Cc1ccc/c(=N\C(=O)CNC(=O)[N-]c2ccccc2)[n-]1

>  <Energy>  (66) 
42.3796446789655

>  <Genealogy>  (66) 
Cc1cccc(=NC(=O)CNC(=O)[N-]c2ccccc2)[n-]1 (protonated)
Cc1ccc/c(=N\C(=O)CNC(=O)[N-]c2ccccc2)[n-]1 (cis-trans isomerization)
Cc1ccc/c(=N\C(=O)CNC(=O)[N-]c2ccccc2)[n-]1 (3D coordinates assigned)
Cc1ccc/c(=N\C(=O)CNC(=O)[N-]c2ccccc2)[n-]1 (optimized conformer: 42.3796446789655 kcal/mol)

>  <smiles>  (66) 
Cc1cccc(=NC(=O)CNC(=O)Nc2ccccc2)[nH]1

>  <score_type>  (66) 
oracle

>  <origin>  (66) 
adg

>  <m_score__min__energy>  (66) 
-10.789999999999999

>  <m_primary>  (66) 
energy

$$$$
66:0
     RDKit          3D

 59 62  0  0  0  0  0  0  0  0999 V2000
   57.3084   32.5896   52.3677 H   0  0  0  0  0  0  0  0  0  0  0  0
   56.2420   32.3200   52.3710 C   0  0  0  0  0  0  0  0  0  0  0  0
   55.4809   33.0842   52.1549 H   0  0  0  0  0  0  0  0  0  0  0  0
   55.8690   31.0570   52.6390 C   0  0  0  0  0  0  0  0  0  0  0  0
   54.5480   30.5920   52.6730 C   0  0  0  0  0  0  0  0  0  0  0  0
   53.4220   31.3050   52.4710 C   0  0  0  0  0  0  0  0  0  0  0  0
   53.1107   32.0114   53.2546 H   0  0  0  0  0  0  0  0  0  0  0  0
   52.5820   31.1960   51.2640 C   0  0  0  0  0  0  0  0  0  0  0  0
   52.6840   30.1860   50.3830 N   0  0  0  0  0  0  0  0  0  0  0  0
   51.6850   30.4300   49.5080 C   0  0  0  0  0  0  0  0  0  0  0  0
   51.4630   29.6930   48.5120 O   0  0  0  0  0  0  0  0  0  0  0  0
   50.9370   31.5180   49.7890 N   0  0  0  0  0  0  0  0  0  0  0  0
   51.5080   31.9850   50.9100 C   0  0  0  0  0  0  0  0  0  0  0  0
   51.0260   33.0790   51.6190 O   0  0  0  0  0  0  0  0  0  0  0  0
   54.6150   29.2530   53.0210 C   0  0  0  0  0  0  0  0  0  0  0  0
   53.7662   28.5648   53.1470 H   0  0  0  0  0  0  0  0  0  0  0  0
   55.9500   28.9490   53.1790 C   0  0  0  0  0  0  0  0  0  0  0  0
   56.4530   27.5960   53.5820 C   0  0  0  0  0  0  0  0  0  0  0  0
   56.4789   27.5264   54.6795 H   0  0  0  0  0  0  0  0  0  0  0  0
   55.7828   26.8213   53.1812 H   0  0  0  0  0  0  0  0  0  0  0  0
   57.4665   27.4472   53.1812 H   0  0  0  0  0  0  0  0  0  0  0  0
   56.7250   30.0320   52.9190 N   0  0  0  0  0  0  0  0  0  0  0  0
   58.1980   30.0680   53.0150 C   0  0  0  0  0  0  0  0  0  0  0  0
   58.5129   31.0885   53.2786 H   0  0  0  0  0  0  0  0  0  0  0  0
   58.5084   29.3473   53.7859 H   0  0  0  0  0  0  0  0  0  0  0  0
   58.8570   29.6730   51.7070 C   0  0  0  0  0  0  0  0  0  0  0  0
   58.5010   30.3650   50.5350 C   0  0  0  0  0  0  0  0  0  0  0  0
   57.7329   31.1509   50.5842 H   0  0  0  0  0  0  0  0  0  0  0  0
   59.1080   30.0710   49.3040 C   0  0  0  0  0  0  0  0  0  0  0  0
   58.7200   30.8340   48.0910 C   0  0  0  0  0  0  0  0  0  0  0  0
   58.4280   30.1940   47.0410 O   0  0  0  0  0  0  0  0  0  0  0  0
   58.7190   32.2850   48.0750 N   0  0  0  0  0  0  0  0  0  0  0  0
   58.3760   32.6270   49.0040 H   0  0  0  0  0  0  0  0  0  0  0  0
   57.7500   32.7980   47.0730 C   0  0  0  0  0  0  0  0  0  0  0  0
   57.7767   32.1529   46.1824 H   0  0  0  0  0  0  0  0  0  0  0  0
   56.7449   32.7926   47.5199 H   0  0  0  0  0  0  0  0  0  0  0  0
   58.0980   34.2340   46.6640 C   0  0  0  0  0  0  0  0  0  0  0  0
   57.3230   34.6102   45.9800 H   0  0  0  0  0  0  0  0  0  0  0  0
   58.1470   34.8529   47.5720 H   0  0  0  0  0  0  0  0  0  0  0  0
   59.4130   34.2930   45.9840 N   0  0  0  0  0  0  0  0  0  0  0  0
   59.9880   35.6420   46.0920 C   0  0  0  0  0  0  0  0  0  0  0  0
   60.1015   35.9083   47.1532 H   0  0  0  0  0  0  0  0  0  0  0  0
   60.9725   35.6613   45.6018 H   0  0  0  0  0  0  0  0  0  0  0  0
   59.3201   36.3656   45.6018 H   0  0  0  0  0  0  0  0  0  0  0  0
   60.3700   33.2550   46.4430 C   0  0  0  0  0  0  0  0  0  0  0  0
   60.2867   32.3801   45.7815 H   0  0  0  0  0  0  0  0  0  0  0  0
   61.3796   33.6904   46.4092 H   0  0  0  0  0  0  0  0  0  0  0  0
   60.0990   32.8080   47.8910 C   0  0  0  0  0  0  0  0  0  0  0  0
   60.8150   32.0160   48.1559 H   0  0  0  0  0  0  0  0  0  0  0  0
   60.2128   33.6886   48.5403 H   0  0  0  0  0  0  0  0  0  0  0  0
   60.0580   29.0420   49.2420 C   0  0  0  0  0  0  0  0  0  0  0  0
   60.5339   28.7953   48.2814 H   0  0  0  0  0  0  0  0  0  0  0  0
   60.4040   28.3290   50.3890 C   0  0  0  0  0  0  0  0  0  0  0  0
   61.1556   27.5284   50.3246 H   0  0  0  0  0  0  0  0  0  0  0  0
   59.8050   28.6200   51.6260 C   0  0  0  0  0  0  0  0  0  0  0  0
   60.2180   27.8240   52.8340 C   0  0  0  0  0  0  0  0  0  0  0  0
   59.9351   28.3692   53.7466 H   0  0  0  0  0  0  0  0  0  0  0  0
   59.7132   26.8468   52.8193 H   0  0  0  0  0  0  0  0  0  0  0  0
   61.3076   27.6741   52.8193 H   0  0  0  0  0  0  0  0  0  0  0  0
  1  2  1  0
  2  3  1  0
  2  4  2  0
  4  5  1  0
  5  6  2  0
  6  7  1  0
  6  8  1  0
  8  9  1  0
  9 10  1  0
 10 11  2  0
 10 12  1  0
 12 13  1  0
 13 14  1  0
  5 15  1  0
 15 16  1  0
 15 17  2  0
 17 18  1  0
 18 19  1  0
 18 20  1  0
 18 21  1  0
 17 22  1  0
 22 23  1  0
 23 24  1  0
 23 25  1  0
 23 26  1  0
 26 27  2  0
 27 28  1  0
 27 29  1  0
 29 30  1  0
 30 31  2  0
 30 32  1  0
 32 33  1  0
 32 34  1  0
 34 35  1  0
 34 36  1  0
 34 37  1  0
 37 38  1  0
 37 39  1  0
 37 40  1  0
 40 41  1  0
 41 42  1  0
 41 43  1  0
 41 44  1  0
 40 45  1  0
 45 46  1  0
 45 47  1  0
 45 48  1  0
 48 49  1  0
 48 50  1  0
 29 51  2  0
 51 52  1  0
 51 53  1  0
 53 54  1  0
 53 55  2  0
 55 56  1  0
 56 57  1  0
 56 58  1  0
 56 59  1  0
 22  4  1  0
 55 26  1  0
 13  8  2  0
 48 32  1  0
M  CHG  4   9  -1  12  -1  14  -1  32   1
M  END
>  <UniqueID>  (67) 
63

>  <SMILES>  (67) 
C=c1/c(=C/c2[n-]c(=O)[n-]c2[O-])cc(C)n1Cc1cc(C(=O)[NH+]2CCN(C)CC2)ccc1C

>  <Energy>  (67) 
145.40041423976294

>  <Genealogy>  (67) 
C=c1c(=Cc2[n-]c(=O)[n-]c2[O-])cc(C)n1Cc1cc(C(=O)[NH+]2CCN(C)CC2)ccc1C (protonated)
C=c1/c(=C/c2[n-]c(=O)[n-]c2[O-])cc(C)n1Cc1cc(C(=O)[NH+]2CCN(C)CC2)ccc1C (cis-trans isomerization)
C=c1/c(=C/c2[n-]c(=O)[n-]c2[O-])cc(C)n1Cc1cc(C(=O)[NH+]2CCN(C)CC2)ccc1C (3D coordinates assigned)
C=c1/c(=C/c2[n-]c(=O)[n-]c2[O-])cc(C)n1Cc1cc(C(=O)[NH+]2CCN(C)CC2)ccc1C (nonaromatic ring conformer: 145.40041423976294 kcal/mol)

>  <smiles>  (67) 
C=c1c(=Cc2[nH]c(=O)[nH]c2O)cc(C)n1Cc1cc(C(=O)N2CCN(C)CC2)ccc1C

>  <score_type>  (67) 
oracle

>  <origin>  (67) 
adg

>  <m_score__min__energy>  (67) 
-16.050000000000001

>  <m_primary>  (67) 
energy

$$$$
67:0
     RDKit          3D

 45 48  0  0  0  0  0  0  0  0999 V2000
   56.7220   29.7890   44.0000 C   0  0  0  0  0  0  0  0  0  0  0  0
   56.9790   30.4780   45.2200 O   0  0  0  0  0  0  0  0  0  0  0  0
   57.7280   31.6630   45.3220 C   0  0  0  0  0  0  0  0  0  0  0  0
   57.3990   32.8130   44.5750 C   0  0  0  0  0  0  0  0  0  0  0  0
   58.1260   33.9930   44.7360 C   0  0  0  0  0  0  0  0  0  0  0  0
   59.1840   34.0460   45.6420 C   0  0  0  0  0  0  0  0  0  0  0  0
   59.5290   32.9130   46.3810 C   0  0  0  0  0  0  0  0  0  0  0  0
   58.8210   31.7110   46.2160 C   0  0  0  0  0  0  0  0  0  0  0  0
   59.2240   30.5280   47.0050 C   0  0  0  0  0  0  0  0  0  0  0  0
   59.1670   29.2400   46.4580 C   0  0  0  0  0  0  0  0  0  0  0  0
   59.5890   28.1330   47.2100 C   0  0  0  0  0  0  0  0  0  0  0  0
   59.5980   26.8020   46.5560 C   0  0  0  0  0  0  0  0  0  0  0  0
   60.6770   26.3760   46.0590 O   0  0  0  0  0  0  0  0  0  0  0  0
   58.3900   26.0270   46.4040 N   0  0  0  0  0  0  0  0  0  0  0  0
   58.4470   24.5620   46.3050 C   0  0  0  0  0  0  0  0  0  0  0  0
   57.3040   23.9580   47.1130 C   0  0  0  0  0  0  0  0  0  0  0  0
   56.0360   24.5130   46.6650 N   0  0  0  0  0  0  0  0  0  0  0  0
   55.9230   25.8740   46.2420 C   0  0  0  0  0  0  0  0  0  0  0  0
   54.7850   26.3510   45.9940 O   0  0  0  0  0  0  0  0  0  0  0  0
   57.1450   26.7300   46.0450 C   0  0  0  0  0  0  0  0  0  0  0  0
   60.0500   28.3360   48.5340 C   0  0  0  0  0  0  0  0  0  0  0  0
   60.4290   27.2730   49.3830 C   0  0  0  0  0  0  0  0  0  0  0  0
   60.8860   27.5300   50.6790 C   0  0  0  0  0  0  0  0  0  0  0  0
   60.9630   28.8420   51.1510 C   0  0  0  0  0  0  0  0  0  0  0  0
   60.5720   29.9030   50.3340 C   0  0  0  0  0  0  0  0  0  0  0  0
   60.1080   29.6600   49.0360 C   0  0  0  0  0  0  0  0  0  0  0  0
   59.7070   30.7020   48.2630 N   0  0  0  0  0  0  0  0  0  0  0  0
   56.3454   28.7794   44.2214 H   0  0  0  0  0  0  0  0  0  0  0  0
   55.9695   30.3416   43.4183 H   0  0  0  0  0  0  0  0  0  0  0  0
   57.6526   29.7139   43.4183 H   0  0  0  0  0  0  0  0  0  0  0  0
   56.5634   32.7795   43.8604 H   0  0  0  0  0  0  0  0  0  0  0  0
   57.8635   34.8838   44.1464 H   0  0  0  0  0  0  0  0  0  0  0  0
   59.7475   34.9813   45.7748 H   0  0  0  0  0  0  0  0  0  0  0  0
   60.3617   32.9619   47.0981 H   0  0  0  0  0  0  0  0  0  0  0  0
   58.7899   29.0956   45.4348 H   0  0  0  0  0  0  0  0  0  0  0  0
   58.3515   24.2608   45.2513 H   0  0  0  0  0  0  0  0  0  0  0  0
   59.4084   24.2029   46.7009 H   0  0  0  0  0  0  0  0  0  0  0  0
   57.2947   22.8670   46.9731 H   0  0  0  0  0  0  0  0  0  0  0  0
   57.4477   24.1943   48.1777 H   0  0  0  0  0  0  0  0  0  0  0  0
   57.2004   27.0279   44.9876 H   0  0  0  0  0  0  0  0  0  0  0  0
   57.0515   27.6037   46.7068 H   0  0  0  0  0  0  0  0  0  0  0  0
   60.3642   26.2359   49.0222 H   0  0  0  0  0  0  0  0  0  0  0  0
   61.1861   26.6953   51.3296 H   0  0  0  0  0  0  0  0  0  0  0  0
   61.3324   29.0391   52.1682 H   0  0  0  0  0  0  0  0  0  0  0  0
   60.6286   30.9347   50.7114 H   0  0  0  0  0  0  0  0  0  0  0  0
  1  2  1  0
  2  3  1  0
  3  4  2  0
  4  5  1  0
  5  6  2  0
  6  7  1  0
  7  8  2  0
  8  9  1  0
  9 10  2  0
 10 11  1  0
 11 12  1  0
 12 13  2  0
 12 14  1  0
 14 15  1  0
 15 16  1  0
 16 17  1  0
 17 18  1  0
 18 19  2  0
 18 20  1  0
 11 21  2  0
 21 22  1  0
 22 23  2  0
 23 24  1  0
 24 25  2  0
 25 26  1  0
 26 27  2  0
  8  3  1  0
 27  9  1  0
 20 14  1  0
 26 21  1  0
  1 28  1  0
  1 29  1  0
  1 30  1  0
  4 31  1  0
  5 32  1  0
  6 33  1  0
  7 34  1  0
 10 35  1  0
 15 36  1  0
 15 37  1  0
 16 38  1  0
 16 39  1  0
 20 40  1  0
 20 41  1  0
 22 42  1  0
 23 43  1  0
 24 44  1  0
 25 45  1  0
M  CHG  1  17  -1
M  END
>  <UniqueID>  (68) 
64

>  <SMILES>  (68) 
COc1ccccc1-c1cc(C(=O)N2CC[N-]C(=O)C2)c2ccccc2n1

>  <Energy>  (68) 
63.65337709289794

>  <Genealogy>  (68) 
COc1ccccc1-c1cc(C(=O)N2CC[N-]C(=O)C2)c2ccccc2n1 (protonated)
COc1ccccc1-c1cc(C(=O)N2CC[N-]C(=O)C2)c2ccccc2n1 (3D coordinates assigned)
COc1ccccc1-c1cc(C(=O)N2CC[N-]C(=O)C2)c2ccccc2n1 (nonaromatic ring conformer: 63.65337709289794 kcal/mol)

>  <smiles>  (68) 
COc1ccccc1-c1cc(C(=O)N2CCNC(=O)C2)c2ccccc2n1

>  <score_type>  (68) 
oracle

>  <origin>  (68) 
adg

>  <m_score__min__energy>  (68) 
-10.41

>  <m_primary>  (68) 
energy

$$$$
68:0
     RDKit          3D

 42 44  0  0  0  0  0  0  0  0999 V2000
   55.1920   30.4270   52.5930 C   0  0  0  0  0  0  0  0  0  0  0  0
   56.4110   30.1230   51.9250 O   0  0  0  0  0  0  0  0  0  0  0  0
   57.4810   31.0190   51.7830 C   0  0  0  0  0  0  0  0  0  0  0  0
   57.3950   32.3660   52.1780 C   0  0  0  0  0  0  0  0  0  0  0  0
   58.4890   33.2210   52.0160 C   0  0  0  0  0  0  0  0  0  0  0  0
   59.6870   32.7480   51.4510 C   0  0  0  0  0  0  0  0  0  0  0  0
   60.8300   33.6020   51.2600 N   0  0  0  0  0  0  0  0  0  0  0  0
   61.8080   33.6040   49.8250 S   0  0  0  0  0  0  0  0  0  0  0  0
   62.4090   34.9700   49.6430 O   0  0  0  0  0  0  0  0  0  0  0  0
   62.9150   32.6000   49.9780 O   0  0  0  0  0  0  0  0  0  0  0  0
   60.8280   33.1610   48.4310 C   0  0  0  0  0  0  0  0  0  0  0  0
   59.9850   34.1010   47.8270 C   0  0  0  0  0  0  0  0  0  0  0  0
   59.1970   33.7380   46.7310 C   0  0  0  0  0  0  0  0  0  0  0  0
   59.2430   32.4280   46.2200 C   0  0  0  0  0  0  0  0  0  0  0  0
   58.4010   32.0520   45.0620 C   0  0  0  0  0  0  0  0  0  0  0  0
   57.4450   31.0960   45.1130 N   0  0  0  0  0  0  0  0  0  0  0  0
   56.8100   30.9360   43.9200 C   0  0  0  0  0  0  0  0  0  0  0  0
   55.7480   29.8960   43.7270 C   0  0  0  0  0  0  0  0  0  0  0  0
   55.6970   28.9960   44.8730 N   0  0  0  0  0  0  0  0  0  0  0  0
   56.7140   28.3300   45.2480 C   0  0  0  0  0  0  0  0  0  0  0  0
   58.0050   27.4890   45.7200 S   0  0  0  0  0  0  0  0  0  0  0  0
   57.2670   31.7560   42.8910 C   0  0  0  0  0  0  0  0  0  0  0  0
   58.4930   32.7180   43.5150 S   0  0  0  0  0  0  0  0  0  0  0  0
   60.0990   31.4920   46.8290 C   0  0  0  0  0  0  0  0  0  0  0  0
   60.8860   31.8580   47.9240 C   0  0  0  0  0  0  0  0  0  0  0  0
   59.7710   31.4010   51.0670 C   0  0  0  0  0  0  0  0  0  0  0  0
   58.6760   30.5460   51.2310 C   0  0  0  0  0  0  0  0  0  0  0  0
   55.3503   30.3875   53.6808 H   0  0  0  0  0  0  0  0  0  0  0  0
   54.8590   31.4357   52.3073 H   0  0  0  0  0  0  0  0  0  0  0  0
   54.4243   29.6928   52.3073 H   0  0  0  0  0  0  0  0  0  0  0  0
   56.4618   32.7489   52.6168 H   0  0  0  0  0  0  0  0  0  0  0  0
   58.4123   34.2716   52.3328 H   0  0  0  0  0  0  0  0  0  0  0  0
   61.1530   34.2010   52.0520 H   0  0  0  0  0  0  0  0  0  0  0  0
   59.9424   35.1290   48.2161 H   0  0  0  0  0  0  0  0  0  0  0  0
   58.5355   34.4827   46.2642 H   0  0  0  0  0  0  0  0  0  0  0  0
   54.7728   30.3919   43.6131 H   0  0  0  0  0  0  0  0  0  0  0  0
   55.9845   29.3104   42.8264 H   0  0  0  0  0  0  0  0  0  0  0  0
   56.8924   31.7706   41.8568 H   0  0  0  0  0  0  0  0  0  0  0  0
   60.1490   30.4643   46.4401 H   0  0  0  0  0  0  0  0  0  0  0  0
   61.5542   31.1186   48.3896 H   0  0  0  0  0  0  0  0  0  0  0  0
   60.7052   31.0143   50.6336 H   0  0  0  0  0  0  0  0  0  0  0  0
   58.7554   29.4929   50.9233 H   0  0  0  0  0  0  0  0  0  0  0  0
  1  2  1  0
  2  3  1  0
  3  4  2  0
  4  5  1  0
  5  6  2  0
  6  7  1  0
  7  8  1  0
  8  9  2  0
  8 10  2  0
  8 11  1  0
 11 12  2  0
 12 13  1  0
 13 14  2  0
 14 15  1  0
 15 16  2  0
 16 17  1  0
 17 18  1  0
 18 19  1  0
 19 20  2  0
 20 21  2  0
 17 22  2  0
 22 23  1  0
 14 24  1  0
 24 25  2  0
  6 26  1  0
 26 27  2  0
 27  3  1  0
 25 11  1  0
 23 15  1  0
  1 28  1  0
  1 29  1  0
  1 30  1  0
  4 31  1  0
  5 32  1  0
  7 33  1  0
 12 34  1  0
 13 35  1  0
 18 36  1  0
 18 37  1  0
 22 38  1  0
 24 39  1  0
 25 40  1  0
 26 41  1  0
 27 42  1  0
M  END
>  <UniqueID>  (69) 
65

>  <SMILES>  (69) 
COc1ccc(NS(=O)(=O)c2ccc(-c3nc(CN=C=S)cs3)cc2)cc1

>  <Energy>  (69) 
73.884242378857

>  <Genealogy>  (69) 
COc1ccc(NS(=O)(=O)c2ccc(-c3nc(CN=C=S)cs3)cc2)cc1 (3D coordinates assigned)
COc1ccc(NS(=O)(=O)c2ccc(-c3nc(CN=C=S)cs3)cc2)cc1 (optimized conformer: 73.884242378857 kcal/mol)

>  <smiles>  (69) 
COc1ccc(NS(=O)(=O)c2ccc(-c3nc(CN=C=S)cs3)cc2)cc1

>  <score_type>  (69) 
oracle

>  <origin>  (69) 
adg

>  <m_score__min__energy>  (69) 
-8.3800000000000008

>  <m_primary>  (69) 
energy

$$$$
69:0
     RDKit          3D

 63 66  0  0  0  0  0  0  0  0999 V2000
   61.0300   33.8860   51.6580 O   0  0  0  0  0  0  0  0  0  0  0  0
   60.7220   33.1930   50.6480 C   0  0  0  0  0  0  0  0  0  0  0  0
   61.4640   33.3970   49.3490 C   0  0  0  0  0  0  0  0  0  0  0  0
   60.6250   32.9680   48.1720 C   0  0  0  0  0  0  0  0  0  0  0  0
   59.4120   33.6210   47.8950 C   0  0  0  0  0  0  0  0  0  0  0  0
   58.5810   33.1630   46.8700 C   0  0  0  0  0  0  0  0  0  0  0  0
   58.9430   32.0370   46.1010 C   0  0  0  0  0  0  0  0  0  0  0  0
   58.0610   31.5230   45.0740 N   0  0  0  0  0  0  0  0  0  0  0  0
   57.8700   30.0730   44.8850 C   0  0  0  0  0  0  0  0  0  0  0  0
   57.0610   29.7910   43.6230 C   0  0  0  0  0  0  0  0  0  0  0  0
   55.3220   29.7140   44.0150 Cl  0  0  0  0  0  0  0  0  0  0  0  0
   57.3980   32.4470   44.1420 C   0  0  0  0  0  0  0  0  0  0  0  0
   58.2850   32.7280   42.9300 C   0  0  0  0  0  0  0  0  0  0  0  0
   57.4140   32.3140   41.4300 Cl  0  0  0  0  0  0  0  0  0  0  0  0
   60.1670   31.3960   46.3750 C   0  0  0  0  0  0  0  0  0  0  0  0
   60.9980   31.8530   47.4030 C   0  0  0  0  0  0  0  0  0  0  0  0
   59.7000   32.1990   50.7900 N   0  0  0  0  0  0  0  0  0  0  0  0
   59.5940   31.1070   50.0930 C   0  0  0  0  0  0  0  0  0  0  0  0
   58.5530   30.8180   49.2800 N   0  0  0  0  0  0  0  0  0  0  0  0
   58.6830   29.5880   48.7200 C   0  0  0  0  0  0  0  0  0  0  0  0
   59.8310   28.8970   49.1010 C   0  0  0  0  0  0  0  0  0  0  0  0
   60.2690   27.5650   48.5810 C   0  0  0  0  0  0  0  0  0  0  0  0
   59.5670   27.2710   47.2850 C   0  0  0  0  0  0  0  0  0  0  0  0
   60.1350   27.6570   46.0640 C   0  0  0  0  0  0  0  0  0  0  0  0
   59.4450   27.4370   44.8690 C   0  0  0  0  0  0  0  0  0  0  0  0
   58.1690   26.8630   44.8880 C   0  0  0  0  0  0  0  0  0  0  0  0
   57.5720   26.4980   46.1080 C   0  0  0  0  0  0  0  0  0  0  0  0
   56.1910   25.9520   46.1370 C   0  0  0  0  0  0  0  0  0  0  0  0
   55.2090   26.7290   45.9960 O   0  0  0  0  0  0  0  0  0  0  0  0
   55.9380   24.5430   46.2740 N   0  0  0  0  0  0  0  0  0  0  0  0
   56.4370   23.5850   45.5430 C   0  0  0  0  0  0  0  0  0  0  0  0
   56.3760   23.5920   44.1320 C   0  0  0  0  0  0  0  0  0  0  0  0
   56.9280   22.5310   43.4110 C   0  0  0  0  0  0  0  0  0  0  0  0
   57.5540   21.4830   44.0880 C   0  0  0  0  0  0  0  0  0  0  0  0
   57.6210   21.5150   45.4840 C   0  0  0  0  0  0  0  0  0  0  0  0
   57.0690   22.5520   46.1700 N   0  0  0  0  0  0  0  0  0  0  0  0
   58.2920   26.6860   47.3000 C   0  0  0  0  0  0  0  0  0  0  0  0
   60.7130   29.8590   50.1600 S   0  0  0  0  0  0  0  0  0  0  0  0
   61.7149   34.4626   49.2420 H   0  0  0  0  0  0  0  0  0  0  0  0
   62.3778   32.7849   49.3685 H   0  0  0  0  0  0  0  0  0  0  0  0
   59.1151   34.4980   48.4889 H   0  0  0  0  0  0  0  0  0  0  0  0
   57.6357   33.6850   46.6605 H   0  0  0  0  0  0  0  0  0  0  0  0
   58.8537   29.5884   44.7981 H   0  0  0  0  0  0  0  0  0  0  0  0
   57.3209   29.6748   45.7510 H   0  0  0  0  0  0  0  0  0  0  0  0
   57.2342   30.5949   42.8924 H   0  0  0  0  0  0  0  0  0  0  0  0
   57.3780   28.8265   43.1997 H   0  0  0  0  0  0  0  0  0  0  0  0
   56.4534   31.9983   43.8008 H   0  0  0  0  0  0  0  0  0  0  0  0
   57.2058   33.3957   44.6646 H   0  0  0  0  0  0  0  0  0  0  0  0
   58.5526   33.7948   42.9136 H   0  0  0  0  0  0  0  0  0  0  0  0
   59.1967   32.1165   42.9994 H   0  0  0  0  0  0  0  0  0  0  0  0
   60.4725   30.5268   45.7741 H   0  0  0  0  0  0  0  0  0  0  0  0
   61.9473   31.3374   47.6102 H   0  0  0  0  0  0  0  0  0  0  0  0
   57.9420   29.1710   48.0221 H   0  0  0  0  0  0  0  0  0  0  0  0
   61.3561   27.5775   48.4133 H   0  0  0  0  0  0  0  0  0  0  0  0
   60.0174   26.7864   49.3162 H   0  0  0  0  0  0  0  0  0  0  0  0
   61.1260   28.1341   46.0459 H   0  0  0  0  0  0  0  0  0  0  0  0
   59.9064   27.7160   43.9102 H   0  0  0  0  0  0  0  0  0  0  0  0
   57.6300   26.6964   43.9437 H   0  0  0  0  0  0  0  0  0  0  0  0
   55.8961   24.4290   43.6036 H   0  0  0  0  0  0  0  0  0  0  0  0
   56.8697   22.5212   42.3126 H   0  0  0  0  0  0  0  0  0  0  0  0
   57.9897   20.6415   43.5294 H   0  0  0  0  0  0  0  0  0  0  0  0
   58.1208   20.7004   46.0286 H   0  0  0  0  0  0  0  0  0  0  0  0
   57.8504   26.3705   48.2568 H   0  0  0  0  0  0  0  0  0  0  0  0
  1  2  2  0
  2  3  1  0
  3  4  1  0
  4  5  2  0
  5  6  1  0
  6  7  2  0
  7  8  1  0
  8  9  1  0
  9 10  1  0
 10 11  1  0
  8 12  1  0
 12 13  1  0
 13 14  1  0
  7 15  1  0
 15 16  2  0
  2 17  1  0
 17 18  2  3
 18 19  1  0
 19 20  1  0
 20 21  2  0
 21 22  1  0
 22 23  1  0
 23 24  2  0
 24 25  1  0
 25 26  2  0
 26 27  1  0
 27 28  1  0
 28 29  2  0
 28 30  1  0
 30 31  2  3
 31 32  1  0
 32 33  2  0
 33 34  1  0
 34 35  2  0
 35 36  1  0
 27 37  2  0
 21 38  1  0
 16  4  1  0
 38 18  1  0
 37 23  1  0
 36 31  1  0
  3 39  1  0
  3 40  1  0
  5 41  1  0
  6 42  1  0
  9 43  1  0
  9 44  1  0
 10 45  1  0
 10 46  1  0
 12 47  1  0
 12 48  1  0
 13 49  1  0
 13 50  1  0
 15 51  1  0
 16 52  1  0
 20 53  1  0
 22 54  1  0
 22 55  1  0
 24 56  1  0
 25 57  1  0
 26 58  1  0
 32 59  1  0
 33 60  1  0
 34 61  1  0
 35 62  1  0
 37 63  1  0
M  CHG  2  19  -1  36  -1
M  END
>  <UniqueID>  (70) 
66

>  <SMILES>  (70) 
O=C(Cc1ccc(N(CCCl)CCCl)cc1)N=c1[n-]cc(Cc2cccc(C(=O)N=c3cccc[n-]3)c2)s1

>  <Energy>  (70) 
105.59736109345202

>  <Genealogy>  (70) 
O=C(Cc1ccc(N(CCCl)CCCl)cc1)N=c1[n-]cc(Cc2cccc(C(=O)N=c3cccc[n-]3)c2)s1 (protonated)
O=C(Cc1ccc(N(CCCl)CCCl)cc1)N=c1[n-]cc(Cc2cccc(C(=O)N=c3cccc[n-]3)c2)s1 (3D coordinates assigned)
O=C(Cc1ccc(N(CCCl)CCCl)cc1)N=c1[n-]cc(Cc2cccc(C(=O)N=c3cccc[n-]3)c2)s1 (optimized conformer: 105.59736109345202 kcal/mol)

>  <smiles>  (70) 
O=C(Cc1ccc(N(CCCl)CCCl)cc1)N=c1[nH]cc(Cc2cccc(C(=O)N=c3cccc[nH]3)c2)s1

>  <score_type>  (70) 
oracle

>  <origin>  (70) 
adg

>  <m_score__min__energy>  (70) 
-12.07

>  <m_primary>  (70) 
energy

$$$$
70:0
     RDKit          3D

 44 45  0  0  0  0  0  0  0  0999 V2000
   56.7650   24.4660   45.3680 C   0  0  0  0  0  0  0  0  0  0  0  0
   56.3170   25.7840   45.9270 C   0  0  0  0  0  0  0  0  0  0  0  0
   55.1200   26.0190   46.0110 O   0  0  0  0  0  0  0  0  0  0  0  0
   57.3120   26.7970   46.4240 C   0  0  0  0  0  0  0  0  0  0  0  0
   57.0730   28.1430   45.8060 C   0  0  0  0  0  0  0  0  0  0  0  0
   55.9680   28.4670   45.1130 N   0  0  0  0  0  0  0  0  0  0  0  0
   56.1300   29.7650   44.8010 C   0  0  0  0  0  0  0  0  0  0  0  0
   55.2780   30.4280   44.1530 O   0  0  0  0  0  0  0  0  0  0  0  0
   57.2850   30.2960   45.2510 N   0  0  0  0  0  0  0  0  0  0  0  0
   57.8920   29.2590   45.8680 C   0  0  0  0  0  0  0  0  0  0  0  0
   59.2000   29.3630   46.5990 C   0  0  0  0  0  0  0  0  0  0  0  0
   58.9870   29.6420   48.0620 C   0  0  0  0  0  0  0  0  0  0  0  0
   58.4380   28.7650   48.7800 O   0  0  0  0  0  0  0  0  0  0  0  0
   59.3350   30.9010   48.6520 N   0  0  0  0  0  0  0  0  0  0  0  0
   60.3420   31.7780   48.1330 C   0  0  0  0  0  0  0  0  0  0  0  0
   61.6780   31.6330   48.5640 C   0  0  0  0  0  0  0  0  0  0  0  0
   62.0560   30.5810   49.5720 C   0  0  0  0  0  0  0  0  0  0  0  0
   62.6790   32.4380   48.0020 C   0  0  0  0  0  0  0  0  0  0  0  0
   62.3650   33.3980   47.0360 C   0  0  0  0  0  0  0  0  0  0  0  0
   63.4550   34.2030   46.3930 C   0  0  0  0  0  0  0  0  0  0  0  0
   61.0370   33.5520   46.6220 C   0  0  0  0  0  0  0  0  0  0  0  0
   60.0100   32.7720   47.1810 C   0  0  0  0  0  0  0  0  0  0  0  0
   58.6150   33.0180   46.7350 C   0  0  0  0  0  0  0  0  0  0  0  0
   58.2640   33.2390   45.2950 C   0  0  0  0  0  0  0  0  0  0  0  0
   57.6850   33.0280   47.5860 O   0  0  0  0  0  0  0  0  0  0  0  0
   56.9989   23.7779   46.1938 H   0  0  0  0  0  0  0  0  0  0  0  0
   55.9620   24.0377   44.7502 H   0  0  0  0  0  0  0  0  0  0  0  0
   57.6627   24.6158   44.7502 H   0  0  0  0  0  0  0  0  0  0  0  0
   57.2207   26.8830   47.5168 H   0  0  0  0  0  0  0  0  0  0  0  0
   58.3208   26.4599   46.1436 H   0  0  0  0  0  0  0  0  0  0  0  0
   55.1510   27.8550   44.8880 H   0  0  0  0  0  0  0  0  0  0  0  0
   59.7475   28.4151   46.4908 H   0  0  0  0  0  0  0  0  0  0  0  0
   59.7746   30.1953   46.1665 H   0  0  0  0  0  0  0  0  0  0  0  0
   61.9132   30.9783   50.5877 H   0  0  0  0  0  0  0  0  0  0  0  0
   61.4203   29.6942   49.4324 H   0  0  0  0  0  0  0  0  0  0  0  0
   63.1107   30.3016   49.4324 H   0  0  0  0  0  0  0  0  0  0  0  0
   63.7230   32.3126   48.3250 H   0  0  0  0  0  0  0  0  0  0  0  0
   64.0791   34.6639   47.1728 H   0  0  0  0  0  0  0  0  0  0  0  0
   64.0762   33.5453   45.7673 H   0  0  0  0  0  0  0  0  0  0  0  0
   63.0091   34.9902   45.7673 H   0  0  0  0  0  0  0  0  0  0  0  0
   60.7934   34.2944   45.8477 H   0  0  0  0  0  0  0  0  0  0  0  0
   57.3348   33.8241   45.2297 H   0  0  0  0  0  0  0  0  0  0  0  0
   59.0783   33.7876   44.7991 H   0  0  0  0  0  0  0  0  0  0  0  0
   58.1212   32.2675   44.7991 H   0  0  0  0  0  0  0  0  0  0  0  0
  1  2  1  0
  2  3  2  0
  2  4  1  0
  4  5  1  0
  5  6  1  0
  6  7  1  0
  7  8  2  0
  7  9  1  0
  9 10  1  0
 10 11  1  0
 11 12  1  0
 12 13  2  0
 12 14  1  0
 14 15  1  0
 15 16  2  0
 16 17  1  0
 16 18  1  0
 18 19  2  0
 19 20  1  0
 19 21  1  0
 21 22  2  0
 22 23  1  0
 23 24  1  0
 23 25  2  0
 10  5  2  0
 22 15  1  0
  1 26  1  0
  1 27  1  0
  1 28  1  0
  4 29  1  0
  4 30  1  0
  6 31  1  0
 11 32  1  0
 11 33  1  0
 17 34  1  0
 17 35  1  0
 17 36  1  0
 18 37  1  0
 20 38  1  0
 20 39  1  0
 20 40  1  0
 21 41  1  0
 24 42  1  0
 24 43  1  0
 24 44  1  0
M  CHG  2   9  -1  14  -1
M  END
>  <UniqueID>  (71) 
67

>  <SMILES>  (71) 
CC(=O)Cc1[nH]c(=O)[n-]c1CC(=O)[N-]c1c(C)cc(C)cc1C(C)=O

>  <Energy>  (71) 
72.56516551991956

>  <Genealogy>  (71) 
CC(=O)Cc1[nH]c(=O)[n-]c1CC(=O)[N-]c1c(C)cc(C)cc1C(C)=O (protonated)
CC(=O)Cc1[nH]c(=O)[n-]c1CC(=O)[N-]c1c(C)cc(C)cc1C(C)=O (3D coordinates assigned)
CC(=O)Cc1[nH]c(=O)[n-]c1CC(=O)[N-]c1c(C)cc(C)cc1C(C)=O (optimized conformer: 72.56516551991956 kcal/mol)

>  <smiles>  (71) 
CC(=O)Cc1[nH]c(=O)[nH]c1CC(=O)Nc1c(C)cc(C)cc1C(C)=O

>  <score_type>  (71) 
oracle

>  <origin>  (71) 
adg

>  <m_score__min__energy>  (71) 
-11.779999999999999

>  <m_primary>  (71) 
energy

$$$$
71:0
     RDKit          3D

 44 45  0  0  0  0  0  0  0  0999 V2000
   54.7930   26.3460   46.0330 N   0  0  0  0  0  0  0  0  0  0  0  0
   55.9750   25.0870   46.0730 S   0  0  0  0  0  0  0  0  0  0  0  0
   55.4500   23.9370   46.8860 O   0  0  0  0  0  0  0  0  0  0  0  0
   56.2540   24.6230   44.6710 O   0  0  0  0  0  0  0  0  0  0  0  0
   57.4730   25.7140   46.8130 C   0  0  0  0  0  0  0  0  0  0  0  0
   57.6180   27.2170   46.5620 C   0  0  0  0  0  0  0  0  0  0  0  0
   56.9510   27.5980   45.3080 N   0  0  0  0  0  0  0  0  0  0  0  0
   57.8760   28.1770   44.3170 C   0  0  0  0  0  0  0  0  0  0  0  0
   57.7490   29.6800   44.2250 C   0  0  0  0  0  0  0  0  0  0  0  0
   57.3320   30.2880   43.0300 C   0  0  0  0  0  0  0  0  0  0  0  0
   57.1880   31.6750   42.9580 C   0  0  0  0  0  0  0  0  0  0  0  0
   57.4580   32.4670   44.0770 C   0  0  0  0  0  0  0  0  0  0  0  0
   57.8850   31.8770   45.2750 C   0  0  0  0  0  0  0  0  0  0  0  0
   58.1260   32.7300   46.4900 C   0  0  0  0  0  0  0  0  0  0  0  0
   59.5590   32.9590   46.6640 N   0  0  0  0  0  0  0  0  0  0  0  0
   60.4020   32.0400   47.3760 C   0  0  0  0  0  0  0  0  0  0  0  0
   59.9730   30.8830   47.6460 O   0  0  0  0  0  0  0  0  0  0  0  0
   61.7730   32.4200   47.7890 C   0  0  0  0  0  0  0  0  0  0  0  0
   62.4500   33.4570   47.1170 C   0  0  0  0  0  0  0  0  0  0  0  0
   63.7460   33.8180   47.4940 C   0  0  0  0  0  0  0  0  0  0  0  0
   64.3860   33.1440   48.5370 C   0  0  0  0  0  0  0  0  0  0  0  0
   63.7320   32.1060   49.2020 C   0  0  0  0  0  0  0  0  0  0  0  0
   64.3590   31.4430   50.2060 F   0  0  0  0  0  0  0  0  0  0  0  0
   62.4330   31.7420   48.8310 C   0  0  0  0  0  0  0  0  0  0  0  0
   58.0270   30.4810   45.3450 C   0  0  0  0  0  0  0  0  0  0  0  0
   55.1510   27.0820   45.3840 H   0  0  0  0  0  0  0  0  0  0  0  0
   57.4431   25.5311   47.8973 H   0  0  0  0  0  0  0  0  0  0  0  0
   58.3320   25.1973   46.3600 H   0  0  0  0  0  0  0  0  0  0  0  0
   57.1613   27.7688   47.3968 H   0  0  0  0  0  0  0  0  0  0  0  0
   58.6874   27.4625   46.4842 H   0  0  0  0  0  0  0  0  0  0  0  0
   56.4950   26.7500   44.8970 H   0  0  0  0  0  0  0  0  0  0  0  0
   58.9071   27.9260   44.6064 H   0  0  0  0  0  0  0  0  0  0  0  0
   57.6218   27.7565   43.3328 H   0  0  0  0  0  0  0  0  0  0  0  0
   57.1178   29.6688   42.1464 H   0  0  0  0  0  0  0  0  0  0  0  0
   56.8614   32.1450   42.0186 H   0  0  0  0  0  0  0  0  0  0  0  0
   57.3350   33.5585   44.0177 H   0  0  0  0  0  0  0  0  0  0  0  0
   57.6154   33.6961   46.3639 H   0  0  0  0  0  0  0  0  0  0  0  0
   57.7326   32.2131   47.3777 H   0  0  0  0  0  0  0  0  0  0  0  0
   59.9760   33.8060   46.2180 H   0  0  0  0  0  0  0  0  0  0  0  0
   61.9546   33.9862   46.2896 H   0  0  0  0  0  0  0  0  0  0  0  0
   64.2633   34.6343   46.9687 H   0  0  0  0  0  0  0  0  0  0  0  0
   65.4054   33.4315   48.8340 H   0  0  0  0  0  0  0  0  0  0  0  0
   61.9243   30.9207   49.3570 H   0  0  0  0  0  0  0  0  0  0  0  0
   58.3581   30.0120   46.2833 H   0  0  0  0  0  0  0  0  0  0  0  0
  1  2  1  0
  2  3  2  0
  2  4  2  0
  2  5  1  0
  5  6  1  0
  6  7  1  0
  7  8  1  0
  8  9  1  0
  9 10  2  0
 10 11  1  0
 11 12  2  0
 12 13  1  0
 13 14  1  0
 14 15  1  0
 15 16  1  0
 16 17  2  0
 16 18  1  0
 18 19  2  0
 19 20  1  0
 20 21  2  0
 21 22  1  0
 22 23  1  0
 22 24  2  0
 13 25  2  0
 25  9  1  0
 24 18  1  0
  1 26  1  0
  5 27  1  0
  5 28  1  0
  6 29  1  0
  6 30  1  0
  7 31  1  0
  8 32  1  0
  8 33  1  0
 10 34  1  0
 11 35  1  0
 12 36  1  0
 14 37  1  0
 14 38  1  0
 15 39  1  0
 19 40  1  0
 20 41  1  0
 21 42  1  0
 24 43  1  0
 25 44  1  0
M  CHG  1   1  -1
M  END
>  <UniqueID>  (72) 
68

>  <SMILES>  (72) 
[NH-]S(=O)(=O)CCNCc1cccc(CNC(=O)c2cccc(F)c2)c1

>  <Energy>  (72) 
37.342487315736584

>  <Genealogy>  (72) 
[NH-]S(=O)(=O)CCNCc1cccc(CNC(=O)c2cccc(F)c2)c1 (protonated)
[NH-]S(=O)(=O)CCNCc1cccc(CNC(=O)c2cccc(F)c2)c1 (3D coordinates assigned)
[NH-]S(=O)(=O)CCNCc1cccc(CNC(=O)c2cccc(F)c2)c1 (optimized conformer: 37.342487315736584 kcal/mol)

>  <smiles>  (72) 
NS(=O)(=O)CCNCc1cccc(CNC(=O)c2cccc(F)c2)c1

>  <score_type>  (72) 
oracle

>  <origin>  (72) 
adg

>  <m_score__min__energy>  (72) 
-11.68

>  <m_primary>  (72) 
energy

$$$$
72:0
     RDKit          3D

 48 50  0  0  0  0  0  0  0  0999 V2000
   57.7930   27.8200   43.4820 C   0  0  0  0  0  0  0  0  0  0  0  0
   57.6590   29.1780   44.1140 C   0  0  0  0  0  0  0  0  0  0  0  0
   58.6760   29.6960   44.9220 C   0  0  0  0  0  0  0  0  0  0  0  0
   58.5550   30.9350   45.4900 N   0  0  0  0  0  0  0  0  0  0  0  0
   59.6580   31.4570   46.3120 C   0  0  0  0  0  0  0  0  0  0  0  0
   59.3220   31.3710   47.7770 C   0  0  0  0  0  0  0  0  0  0  0  0
   59.0710   30.1260   48.3700 C   0  0  0  0  0  0  0  0  0  0  0  0
   58.8360   30.0310   49.7430 C   0  0  0  0  0  0  0  0  0  0  0  0
   58.8330   31.1840   50.5460 C   0  0  0  0  0  0  0  0  0  0  0  0
   58.7290   31.0500   52.0440 C   0  0  0  0  0  0  0  0  0  0  0  0
   57.3280   30.7630   52.5090 C   0  0  0  0  0  0  0  0  0  0  0  0
   56.6000   31.7200   52.8820 O   0  0  0  0  0  0  0  0  0  0  0  0
   56.8120   29.4300   52.5940 N   0  0  0  0  0  0  0  0  0  0  0  0
   55.5940   29.0300   53.2940 C   0  0  0  0  0  0  0  0  0  0  0  0
   54.4010   29.7730   52.7520 C   0  0  0  0  0  0  0  0  0  0  0  0
   53.4030   30.2470   53.6200 C   0  0  0  0  0  0  0  0  0  0  0  0
   52.3590   31.0380   53.1340 C   0  0  0  0  0  0  0  0  0  0  0  0
   52.2950   31.3750   51.7690 C   0  0  0  0  0  0  0  0  0  0  0  0
   51.2360   32.2670   51.2550 C   0  0  0  0  0  0  0  0  0  0  0  0
   50.5700   32.9900   52.0430 O   0  0  0  0  0  0  0  0  0  0  0  0
   50.9790   32.3430   49.8900 O   0  0  0  0  0  0  0  0  0  0  0  0
   53.2820   30.8850   50.8990 C   0  0  0  0  0  0  0  0  0  0  0  0
   54.3320   30.1060   51.3890 C   0  0  0  0  0  0  0  0  0  0  0  0
   59.0600   32.4350   49.9460 C   0  0  0  0  0  0  0  0  0  0  0  0
   59.2870   32.5290   48.5690 C   0  0  0  0  0  0  0  0  0  0  0  0
   57.4140   31.6660   45.2860 C   0  0  0  0  0  0  0  0  0  0  0  0
   57.2650   32.7960   45.8260 O   0  0  0  0  0  0  0  0  0  0  0  0
   56.4270   31.1830   44.4900 N   0  0  0  0  0  0  0  0  0  0  0  0
   56.5250   29.9670   43.8970 C   0  0  0  0  0  0  0  0  0  0  0  0
   55.5870   29.5600   43.1610 O   0  0  0  0  0  0  0  0  0  0  0  0
   57.8685   27.0552   44.2690 H   0  0  0  0  0  0  0  0  0  0  0  0
   56.9105   27.6176   42.8574 H   0  0  0  0  0  0  0  0  0  0  0  0
   58.6981   27.7940   42.8574 H   0  0  0  0  0  0  0  0  0  0  0  0
   59.5833   29.1009   45.1030 H   0  0  0  0  0  0  0  0  0  0  0  0
   60.5649   30.8665   46.1150 H   0  0  0  0  0  0  0  0  0  0  0  0
   59.8231   32.5125   46.0501 H   0  0  0  0  0  0  0  0  0  0  0  0
   59.0591   29.2178   47.7495 H   0  0  0  0  0  0  0  0  0  0  0  0
   58.6520   29.0471   50.1991 H   0  0  0  0  0  0  0  0  0  0  0  0
   59.3824   30.2270   52.3692 H   0  0  0  0  0  0  0  0  0  0  0  0
   59.0328   32.0114   52.4837 H   0  0  0  0  0  0  0  0  0  0  0  0
   55.4383   27.9494   53.1594 H   0  0  0  0  0  0  0  0  0  0  0  0
   55.7047   29.2691   54.3620 H   0  0  0  0  0  0  0  0  0  0  0  0
   53.4439   29.9935   54.6896 H   0  0  0  0  0  0  0  0  0  0  0  0
   51.5816   31.3999   53.8230 H   0  0  0  0  0  0  0  0  0  0  0  0
   53.2277   31.1162   49.8249 H   0  0  0  0  0  0  0  0  0  0  0  0
   55.1128   29.7496   50.7011 H   0  0  0  0  0  0  0  0  0  0  0  0
   59.0591   33.3455   50.5632 H   0  0  0  0  0  0  0  0  0  0  0  0
   59.4387   33.5147   48.1050 H   0  0  0  0  0  0  0  0  0  0  0  0
  1  2  1  0
  2  3  2  0
  3  4  1  0
  4  5  1  0
  5  6  1  0
  6  7  2  0
  7  8  1  0
  8  9  2  0
  9 10  1  0
 10 11  1  0
 11 12  2  0
 11 13  1  0
 13 14  1  0
 14 15  1  0
 15 16  2  0
 16 17  1  0
 17 18  2  0
 18 19  1  0
 19 20  2  0
 19 21  1  0
 18 22  1  0
 22 23  2  0
  9 24  1  0
 24 25  2  0
  4 26  1  0
 26 27  2  0
 26 28  1  0
 28 29  1  0
 29 30  2  0
 29  2  1  0
 25  6  1  0
 23 15  1  0
  1 31  1  0
  1 32  1  0
  1 33  1  0
  3 34  1  0
  5 35  1  0
  5 36  1  0
  7 37  1  0
  8 38  1  0
 10 39  1  0
 10 40  1  0
 14 41  1  0
 14 42  1  0
 16 43  1  0
 17 44  1  0
 22 45  1  0
 23 46  1  0
 24 47  1  0
 25 48  1  0
M  CHG  3  13  -1  21  -1  28  -1
M  END
>  <UniqueID>  (73) 
69

>  <SMILES>  (73) 
Cc1cn(Cc2ccc(CC(=O)[N-]Cc3ccc(C(=O)[O-])cc3)cc2)c(=O)[n-]c1=O

>  <Energy>  (73) 
47.646580922160915

>  <Genealogy>  (73) 
Cc1cn(Cc2ccc(CC(=O)[N-]Cc3ccc(C(=O)[O-])cc3)cc2)c(=O)[n-]c1=O (protonated)
Cc1cn(Cc2ccc(CC(=O)[N-]Cc3ccc(C(=O)[O-])cc3)cc2)c(=O)[n-]c1=O (3D coordinates assigned)
Cc1cn(Cc2ccc(CC(=O)[N-]Cc3ccc(C(=O)[O-])cc3)cc2)c(=O)[n-]c1=O (optimized conformer: 47.646580922160915 kcal/mol)

>  <smiles>  (73) 
Cc1cn(Cc2ccc(CC(=O)NCc3ccc(C(=O)O)cc3)cc2)c(=O)[nH]c1=O

>  <score_type>  (73) 
oracle

>  <origin>  (73) 
adg

>  <m_score__min__energy>  (73) 
-14.890000000000001

>  <m_primary>  (73) 
energy

$$$$
73:0
     RDKit          3D

 39 42  0  0  0  0  0  0  0  0999 V2000
   57.0250   32.0377   52.1147 H   0  0  0  0  0  0  0  0  0  0  0  0
   55.9410   31.9240   52.2630 C   0  0  0  0  0  0  0  0  0  0  0  0
   55.2871   32.8083   52.2409 H   0  0  0  0  0  0  0  0  0  0  0  0
   55.4160   30.7060   52.4710 C   0  0  0  0  0  0  0  0  0  0  0  0
   54.0690   30.3710   52.6780 C   0  0  0  0  0  0  0  0  0  0  0  0
   52.9540   31.1090   52.5180 C   0  0  0  0  0  0  0  0  0  0  0  0
   52.6298   31.7195   53.3737 H   0  0  0  0  0  0  0  0  0  0  0  0
   52.1310   31.1710   51.3000 C   0  0  0  0  0  0  0  0  0  0  0  0
   52.2090   30.2730   50.3040 N   0  0  0  0  0  0  0  0  0  0  0  0
   51.3900   30.7820   49.3580 C   0  0  0  0  0  0  0  0  0  0  0  0
   51.1840   30.2060   48.2580 O   0  0  0  0  0  0  0  0  0  0  0  0
   50.8190   31.9630   49.6780 N   0  0  0  0  0  0  0  0  0  0  0  0
   51.3100   32.2040   50.9040 C   0  0  0  0  0  0  0  0  0  0  0  0
   51.0370   33.3550   51.6330 O   0  0  0  0  0  0  0  0  0  0  0  0
   53.9950   29.0890   53.0980 N   0  0  0  0  0  0  0  0  0  0  0  0
   55.2700   28.6590   53.0920 C   0  0  0  0  0  0  0  0  0  0  0  0
   55.5920   27.4820   53.4070 O   0  0  0  0  0  0  0  0  0  0  0  0
   56.1580   29.5970   52.7040 N   0  0  0  0  0  0  0  0  0  0  0  0
   57.5850   29.4330   52.6030 C   0  0  0  0  0  0  0  0  0  0  0  0
   58.2680   28.6130   53.5140 C   0  0  0  0  0  0  0  0  0  0  0  0
   57.7100   28.0864   54.3022 H   0  0  0  0  0  0  0  0  0  0  0  0
   59.6520   28.4630   53.4240 C   0  0  0  0  0  0  0  0  0  0  0  0
   60.1811   27.8153   54.1386 H   0  0  0  0  0  0  0  0  0  0  0  0
   60.3680   29.1330   52.4290 C   0  0  0  0  0  0  0  0  0  0  0  0
   61.4589   29.0081   52.3632 H   0  0  0  0  0  0  0  0  0  0  0  0
   59.7040   29.9660   51.5110 C   0  0  0  0  0  0  0  0  0  0  0  0
   60.4660   30.6810   50.4570 C   0  0  0  0  0  0  0  0  0  0  0  0
   61.7390   30.2910   50.0300 C   0  0  0  0  0  0  0  0  0  0  0  0
   62.3111   29.4307   50.4077 H   0  0  0  0  0  0  0  0  0  0  0  0
   62.2440   31.3660   48.8380 S   0  0  0  0  0  0  0  0  0  0  0  0
   60.8310   32.2720   48.8930 C   0  0  0  0  0  0  0  0  0  0  0  0
   60.5880   33.5200   48.1110 C   0  0  0  0  0  0  0  0  0  0  0  0
   60.4245   34.3599   48.8023 H   0  0  0  0  0  0  0  0  0  0  0  0
   61.4618   33.7316   47.4772 H   0  0  0  0  0  0  0  0  0  0  0  0
   59.6986   33.3883   47.4772 H   0  0  0  0  0  0  0  0  0  0  0  0
   59.9800   31.7870   49.8220 N   0  0  0  0  0  0  0  0  0  0  0  0
   59.0650   32.2380   50.0440 H   0  0  0  0  0  0  0  0  0  0  0  0
   58.3080   30.1120   51.6100 C   0  0  0  0  0  0  0  0  0  0  0  0
   57.7776   30.7653   50.9015 H   0  0  0  0  0  0  0  0  0  0  0  0
  1  2  1  0
  2  3  1  0
  2  4  2  0
  4  5  1  0
  5  6  2  0
  6  7  1  0
  6  8  1  0
  8  9  1  0
  9 10  1  0
 10 11  2  0
 10 12  1  0
 12 13  1  0
 13 14  1  0
  5 15  1  0
 15 16  1  0
 16 17  2  0
 16 18  1  0
 18 19  1  0
 19 20  2  0
 20 21  1  0
 20 22  1  0
 22 23  1  0
 22 24  2  0
 24 25  1  0
 24 26  1  0
 26 27  1  0
 27 28  2  0
 28 29  1  0
 28 30  1  0
 30 31  1  0
 31 32  1  0
 32 33  1  0
 32 34  1  0
 32 35  1  0
 31 36  2  0
 36 37  1  0
 26 38  2  0
 38 39  1  0
 18  4  1  0
 38 19  1  0
 13  8  2  0
 36 27  1  0
M  CHG  5   9  -1  12  -1  14  -1  15  -1  36   1
M  END
>  <UniqueID>  (74) 
70

>  <SMILES>  (74) 
C=c1/c(=C\c2[n-]c(=O)[n-]c2[O-])[n-]c(=O)n1-c1cccc(-c2csc(C)[nH+]2)c1

>  <Energy>  (74) 
155.00340078188466

>  <Genealogy>  (74) 
C=c1c(=Cc2[n-]c(=O)[n-]c2[O-])[n-]c(=O)n1-c1cccc(-c2csc(C)[nH+]2)c1 (protonated)
C=c1/c(=C\c2[n-]c(=O)[n-]c2[O-])[n-]c(=O)n1-c1cccc(-c2csc(C)[nH+]2)c1 (cis-trans isomerization)
C=c1/c(=C\c2[n-]c(=O)[n-]c2[O-])[n-]c(=O)n1-c1cccc(-c2csc(C)[nH+]2)c1 (3D coordinates assigned)
C=c1/c(=C\c2[n-]c(=O)[n-]c2[O-])[n-]c(=O)n1-c1cccc(-c2csc(C)[nH+]2)c1 (optimized conformer: 155.00340078188466 kcal/mol)

>  <smiles>  (74) 
C=c1c(=Cc2[nH]c(=O)[nH]c2O)[nH]c(=O)n1-c1cccc(-c2csc(C)n2)c1

>  <score_type>  (74) 
oracle

>  <origin>  (74) 
adg

>  <m_score__min__energy>  (74) 
-17.210000000000001

>  <m_primary>  (74) 
energy

$$$$
74:0
     RDKit          3D

 52 55  0  0  0  0  0  0  0  0999 V2000
   63.7340   31.6710   46.9230 N   0  0  0  0  0  0  0  0  0  0  0  0
   62.8440   32.3920   47.7790 C   0  0  0  0  0  0  0  0  0  0  0  0
   63.2930   33.5250   48.4670 C   0  0  0  0  0  0  0  0  0  0  0  0
   62.4280   34.2200   49.3140 C   0  0  0  0  0  0  0  0  0  0  0  0
   61.1010   33.8060   49.4560 C   0  0  0  0  0  0  0  0  0  0  0  0
   60.6280   32.6800   48.7610 C   0  0  0  0  0  0  0  0  0  0  0  0
   59.2200   32.2400   48.9350 C   0  0  0  0  0  0  0  0  0  0  0  0
   58.9540   31.3400   49.7740 O   0  0  0  0  0  0  0  0  0  0  0  0
   58.1470   32.7680   48.1410 N   0  0  0  0  0  0  0  0  0  0  0  0
   58.0720   32.7640   46.7080 C   0  0  0  0  0  0  0  0  0  0  0  0
   58.2550   33.9670   46.0160 C   0  0  0  0  0  0  0  0  0  0  0  0
   58.1760   33.9960   44.6210 C   0  0  0  0  0  0  0  0  0  0  0  0
   57.9180   32.8220   43.9100 C   0  0  0  0  0  0  0  0  0  0  0  0
   57.7440   31.6100   44.5900 C   0  0  0  0  0  0  0  0  0  0  0  0
   57.4390   30.1050   43.6590 S   0  0  0  0  0  0  0  0  0  0  0  0
   58.4000   29.0480   44.7630 C   0  0  0  0  0  0  0  0  0  0  0  0
   59.7780   29.2840   44.8820 C   0  0  0  0  0  0  0  0  0  0  0  0
   60.5540   28.5370   45.7690 C   0  0  0  0  0  0  0  0  0  0  0  0
   59.9560   27.5680   46.5740 C   0  0  0  0  0  0  0  0  0  0  0  0
   58.5800   27.3440   46.4940 C   0  0  0  0  0  0  0  0  0  0  0  0
   57.7890   28.0710   45.5880 C   0  0  0  0  0  0  0  0  0  0  0  0
   56.3320   27.8380   45.5870 C   0  0  0  0  0  0  0  0  0  0  0  0
   55.5570   28.7670   45.2340 O   0  0  0  0  0  0  0  0  0  0  0  0
   55.8110   26.5580   45.9560 N   0  0  0  0  0  0  0  0  0  0  0  0
   56.3640   25.2710   45.6460 C   0  0  0  0  0  0  0  0  0  0  0  0
   57.0210   25.1170   44.4180 C   0  0  0  0  0  0  0  0  0  0  0  0
   57.5980   23.8950   44.0680 C   0  0  0  0  0  0  0  0  0  0  0  0
   57.5390   22.8170   44.9500 C   0  0  0  0  0  0  0  0  0  0  0  0
   56.9200   22.9650   46.1930 C   0  0  0  0  0  0  0  0  0  0  0  0
   56.3460   24.1910   46.5580 C   0  0  0  0  0  0  0  0  0  0  0  0
   55.8000   24.3400   47.8310 O   0  0  0  0  0  0  0  0  0  0  0  0
   57.8480   31.5780   45.9860 C   0  0  0  0  0  0  0  0  0  0  0  0
   61.5190   31.9630   47.9390 C   0  0  0  0  0  0  0  0  0  0  0  0
   64.7110   32.0050   46.7620 H   0  0  0  0  0  0  0  0  0  0  0  0
   63.4270   30.7890   46.4540 H   0  0  0  0  0  0  0  0  0  0  0  0
   64.3302   33.8687   48.3400 H   0  0  0  0  0  0  0  0  0  0  0  0
   62.7920   35.0959   49.8711 H   0  0  0  0  0  0  0  0  0  0  0  0
   60.4220   34.3653   50.1163 H   0  0  0  0  0  0  0  0  0  0  0  0
   58.4618   34.8931   46.5724 H   0  0  0  0  0  0  0  0  0  0  0  0
   58.3172   34.9447   44.0824 H   0  0  0  0  0  0  0  0  0  0  0  0
   57.8512   32.8493   42.8124 H   0  0  0  0  0  0  0  0  0  0  0  0
   60.2513   30.0658   44.2698 H   0  0  0  0  0  0  0  0  0  0  0  0
   61.6380   28.7126   45.8333 H   0  0  0  0  0  0  0  0  0  0  0  0
   60.5688   26.9795   47.2727 H   0  0  0  0  0  0  0  0  0  0  0  0
   58.1112   26.5920   47.1457 H   0  0  0  0  0  0  0  0  0  0  0  0
   57.0827   25.9674   43.7230 H   0  0  0  0  0  0  0  0  0  0  0  0
   58.0996   23.7826   43.0955 H   0  0  0  0  0  0  0  0  0  0  0  0
   57.9800   21.8499   44.6668 H   0  0  0  0  0  0  0  0  0  0  0  0
   56.8825   22.1147   46.8899 H   0  0  0  0  0  0  0  0  0  0  0  0
   55.5120   25.2440   48.1880 H   0  0  0  0  0  0  0  0  0  0  0  0
   57.7541   30.6211   46.5203 H   0  0  0  0  0  0  0  0  0  0  0  0
   61.1722   31.0584   47.4180 H   0  0  0  0  0  0  0  0  0  0  0  0
  1  2  1  0
  2  3  2  0
  3  4  1  0
  4  5  2  0
  5  6  1  0
  6  7  1  0
  7  8  2  0
  7  9  1  0
  9 10  1  0
 10 11  2  0
 11 12  1  0
 12 13  2  0
 13 14  1  0
 14 15  1  0
 15 16  1  0
 16 17  2  0
 17 18  1  0
 18 19  2  0
 19 20  1  0
 20 21  2  0
 21 22  1  0
 22 23  2  0
 22 24  1  0
 24 25  1  0
 25 26  2  0
 26 27  1  0
 27 28  2  0
 28 29  1  0
 29 30  2  0
 30 31  1  0
 14 32  2  0
  6 33  2  0
 33  2  1  0
 32 10  1  0
 21 16  1  0
 30 25  1  0
  1 34  1  0
  1 35  1  0
  3 36  1  0
  4 37  1  0
  5 38  1  0
 11 39  1  0
 12 40  1  0
 13 41  1  0
 17 42  1  0
 18 43  1  0
 19 44  1  0
 20 45  1  0
 26 46  1  0
 27 47  1  0
 28 48  1  0
 29 49  1  0
 31 50  1  0
 32 51  1  0
 33 52  1  0
M  CHG  2   9  -1  24  -1
M  END
>  <UniqueID>  (75) 
71

>  <SMILES>  (75) 
Nc1cccc(C(=O)[N-]c2cccc(Sc3ccccc3C(=O)[N-]c3ccccc3O)c2)c1

>  <Energy>  (75) 
63.11568370582202

>  <Genealogy>  (75) 
Nc1cccc(C(=O)[N-]c2cccc(Sc3ccccc3C(=O)[N-]c3ccccc3O)c2)c1 (protonated)
Nc1cccc(C(=O)[N-]c2cccc(Sc3ccccc3C(=O)[N-]c3ccccc3O)c2)c1 (3D coordinates assigned)
Nc1cccc(C(=O)[N-]c2cccc(Sc3ccccc3C(=O)[N-]c3ccccc3O)c2)c1 (optimized conformer: 63.11568370582202 kcal/mol)

>  <smiles>  (75) 
Nc1cccc(C(=O)Nc2cccc(Sc3ccccc3C(=O)Nc3ccccc3O)c2)c1

>  <score_type>  (75) 
oracle

>  <origin>  (75) 
adg

>  <m_score__min__energy>  (75) 
-13.94

>  <m_primary>  (75) 
energy

$$$$
75:0
     RDKit          3D

 41 43  0  0  0  0  0  0  0  0999 V2000
   56.7780   30.4420   44.7590 O   0  0  0  0  0  0  0  0  0  0  0  0
   56.9380   29.2930   45.2540 C   0  0  0  0  0  0  0  0  0  0  0  0
   55.8980   28.4230   45.2360 N   0  0  0  0  0  0  0  0  0  0  0  0
   56.0100   27.1690   45.7330 C   0  0  0  0  0  0  0  0  0  0  0  0
   54.9080   26.3190   45.7000 O   0  0  0  0  0  0  0  0  0  0  0  0
   57.2300   26.7370   46.2750 C   0  0  0  0  0  0  0  0  0  0  0  0
   57.3820   25.3210   46.7920 C   0  0  0  0  0  0  0  0  0  0  0  0
   56.9780   24.3110   45.7440 C   0  0  0  0  0  0  0  0  0  0  0  0
   57.8790   23.9620   44.7210 C   0  0  0  0  0  0  0  0  0  0  0  0
   57.5260   23.0130   43.7590 C   0  0  0  0  0  0  0  0  0  0  0  0
   56.2720   22.4010   43.8050 C   0  0  0  0  0  0  0  0  0  0  0  0
   55.9240   21.4560   42.8470 O   0  0  0  0  0  0  0  0  0  0  0  0
   55.3670   22.7400   44.8140 C   0  0  0  0  0  0  0  0  0  0  0  0
   55.7110   23.6910   45.7800 C   0  0  0  0  0  0  0  0  0  0  0  0
   54.7890   24.0160   46.7680 O   0  0  0  0  0  0  0  0  0  0  0  0
   58.3000   27.6540   46.2990 C   0  0  0  0  0  0  0  0  0  0  0  0
   59.4100   27.3010   46.7860 O   0  0  0  0  0  0  0  0  0  0  0  0
   58.1410   28.9240   45.8000 N   0  0  0  0  0  0  0  0  0  0  0  0
   59.2770   29.8670   45.7960 C   0  0  0  0  0  0  0  0  0  0  0  0
   59.2000   30.7940   47.0130 C   0  0  0  0  0  0  0  0  0  0  0  0
   60.4130   31.6830   47.0800 C   0  0  0  0  0  0  0  0  0  0  0  0
   60.3010   33.0560   46.7990 C   0  0  0  0  0  0  0  0  0  0  0  0
   61.4220   33.8860   46.8940 C   0  0  0  0  0  0  0  0  0  0  0  0
   62.6580   33.3560   47.2770 C   0  0  0  0  0  0  0  0  0  0  0  0
   63.7700   34.1840   47.3700 O   0  0  0  0  0  0  0  0  0  0  0  0
   62.7730   31.9940   47.5700 C   0  0  0  0  0  0  0  0  0  0  0  0
   61.6540   31.1610   47.4770 C   0  0  0  0  0  0  0  0  0  0  0  0
   54.7720   25.6120   46.4120 H   0  0  0  0  0  0  0  0  0  0  0  0
   58.4330   25.1507   47.0682 H   0  0  0  0  0  0  0  0  0  0  0  0
   56.7264   25.1970   47.6665 H   0  0  0  0  0  0  0  0  0  0  0  0
   58.8687   24.4402   44.6787 H   0  0  0  0  0  0  0  0  0  0  0  0
   58.2375   22.7472   42.9634 H   0  0  0  0  0  0  0  0  0  0  0  0
   54.3795   22.2567   44.8488 H   0  0  0  0  0  0  0  0  0  0  0  0
   60.2194   29.3006   45.8298 H   0  0  0  0  0  0  0  0  0  0  0  0
   59.2361   30.4740   44.8796 H   0  0  0  0  0  0  0  0  0  0  0  0
   58.2979   31.4187   46.9350 H   0  0  0  0  0  0  0  0  0  0  0  0
   59.1600   30.1796   47.9246 H   0  0  0  0  0  0  0  0  0  0  0  0
   59.3291   33.4782   46.5037 H   0  0  0  0  0  0  0  0  0  0  0  0
   61.3315   34.9585   46.6669 H   0  0  0  0  0  0  0  0  0  0  0  0
   63.7446   31.5773   47.8739 H   0  0  0  0  0  0  0  0  0  0  0  0
   61.7466   30.0913   47.7161 H   0  0  0  0  0  0  0  0  0  0  0  0
  1  2  2  0
  2  3  1  0
  3  4  1  0
  4  5  1  0
  4  6  2  0
  6  7  1  0
  7  8  1  0
  8  9  2  0
  9 10  1  0
 10 11  2  0
 11 12  1  0
 11 13  1  0
 13 14  2  0
 14 15  1  0
  6 16  1  0
 16 17  2  0
 16 18  1  0
 18 19  1  0
 19 20  1  0
 20 21  1  0
 21 22  2  0
 22 23  1  0
 23 24  2  0
 24 25  1  0
 24 26  1  0
 26 27  2  0
 18  2  1  0
 27 21  1  0
 14  8  1  0
  5 28  1  0
  7 29  1  0
  7 30  1  0
  9 31  1  0
 10 32  1  0
 13 33  1  0
 19 34  1  0
 19 35  1  0
 20 36  1  0
 20 37  1  0
 22 38  1  0
 23 39  1  0
 26 40  1  0
 27 41  1  0
M  CHG  4   3  -1  12  -1  15  -1  25  -1
M  END
>  <UniqueID>  (76) 
72

>  <SMILES>  (76) 
O=c1[n-]c(O)c(Cc2ccc([O-])cc2[O-])c(=O)n1CCc1ccc([O-])cc1

>  <Energy>  (76) 
46.43763172334442

>  <Genealogy>  (76) 
O=c1[n-]c(O)c(Cc2ccc([O-])cc2[O-])c(=O)n1CCc1ccc([O-])cc1 (protonated)
O=c1[n-]c(O)c(Cc2ccc([O-])cc2[O-])c(=O)n1CCc1ccc([O-])cc1 (3D coordinates assigned)
O=c1[n-]c(O)c(Cc2ccc([O-])cc2[O-])c(=O)n1CCc1ccc([O-])cc1 (optimized conformer: 46.43763172334442 kcal/mol)

>  <smiles>  (76) 
O=c1[nH]c(O)c(Cc2ccc(O)cc2O)c(=O)n1CCc1ccc(O)cc1

>  <score_type>  (76) 
oracle

>  <origin>  (76) 
adg

>  <m_score__min__energy>  (76) 
-15.539999999999999

>  <m_primary>  (76) 
energy

$$$$
76:0
     RDKit          3D

 52 55  0  0  0  0  0  0  0  0999 V2000
   58.1662   24.2994   43.3201 H   0  0  0  0  0  0  0  0  0  0  0  0
   57.8120   24.9440   44.1380 C   0  0  0  0  0  0  0  0  0  0  0  0
   58.4968   25.6681   44.6036 H   0  0  0  0  0  0  0  0  0  0  0  0
   56.5440   24.8470   44.5680 C   0  0  0  0  0  0  0  0  0  0  0  0
   55.9140   25.5770   45.5900 C   0  0  0  0  0  0  0  0  0  0  0  0
   56.3310   26.6620   46.2690 C   0  0  0  0  0  0  0  0  0  0  0  0
   56.1154   26.6927   47.3472 H   0  0  0  0  0  0  0  0  0  0  0  0
   57.0490   27.8090   45.6960 C   0  0  0  0  0  0  0  0  0  0  0  0
   58.3940   27.8850   45.6160 N   0  0  0  0  0  0  0  0  0  0  0  0
   58.6130   29.1100   45.0890 C   0  0  0  0  0  0  0  0  0  0  0  0
   59.7650   29.5440   44.8270 O   0  0  0  0  0  0  0  0  0  0  0  0
   57.4840   29.8170   44.8700 N   0  0  0  0  0  0  0  0  0  0  0  0
   57.3490   31.1160   44.2110 C   0  0  0  0  0  0  0  0  0  0  0  0
   57.8738   31.0920   43.2445 H   0  0  0  0  0  0  0  0  0  0  0  0
   56.2830   31.3324   44.0473 H   0  0  0  0  0  0  0  0  0  0  0  0
   57.9480   32.1900   45.0790 C   0  0  0  0  0  0  0  0  0  0  0  0
   58.3230   33.4220   44.5220 C   0  0  0  0  0  0  0  0  0  0  0  0
   58.2295   33.5843   43.4381 H   0  0  0  0  0  0  0  0  0  0  0  0
   58.8150   34.4440   45.3390 C   0  0  0  0  0  0  0  0  0  0  0  0
   59.1142   35.4055   44.8964 H   0  0  0  0  0  0  0  0  0  0  0  0
   58.9270   34.2450   46.7180 C   0  0  0  0  0  0  0  0  0  0  0  0
   59.3164   35.0493   47.3595 H   0  0  0  0  0  0  0  0  0  0  0  0
   58.5450   33.0260   47.2820 C   0  0  0  0  0  0  0  0  0  0  0  0
   58.6319   32.8717   48.3677 H   0  0  0  0  0  0  0  0  0  0  0  0
   58.0520   32.0010   46.4680 C   0  0  0  0  0  0  0  0  0  0  0  0
   57.7448   31.0445   46.9160 H   0  0  0  0  0  0  0  0  0  0  0  0
   56.4970   28.9970   45.2620 C   0  0  0  0  0  0  0  0  0  0  0  0
   55.1440   29.3160   45.2340 O   0  0  0  0  0  0  0  0  0  0  0  0
   54.7100   25.0230   45.8450 N   0  0  0  0  0  0  0  0  0  0  0  0
   54.6080   24.0120   44.9610 C   0  0  0  0  0  0  0  0  0  0  0  0
   53.6040   23.2540   44.9070 O   0  0  0  0  0  0  0  0  0  0  0  0
   55.6820   23.8860   44.1560 N   0  0  0  0  0  0  0  0  0  0  0  0
   55.8970   22.8300   43.1590 C   0  0  0  0  0  0  0  0  0  0  0  0
   54.9303   22.5444   42.7187 H   0  0  0  0  0  0  0  0  0  0  0  0
   56.5705   23.2089   42.3762 H   0  0  0  0  0  0  0  0  0  0  0  0
   56.5210   21.6310   43.7990 C   0  0  0  0  0  0  0  0  0  0  0  0
   56.0170   20.4890   43.6200 O   0  0  0  0  0  0  0  0  0  0  0  0
   57.6930   21.7890   44.6040 N   0  0  0  0  0  0  0  0  0  0  0  0
   57.8170   21.2700   45.9610 C   0  0  0  0  0  0  0  0  0  0  0  0
   57.8724   20.1720   45.9260 H   0  0  0  0  0  0  0  0  0  0  0  0
   58.7300   21.6787   46.4187 H   0  0  0  0  0  0  0  0  0  0  0  0
   56.6290   21.6810   46.7870 C   0  0  0  0  0  0  0  0  0  0  0  0
   55.4610   20.8990   46.8030 C   0  0  0  0  0  0  0  0  0  0  0  0
   55.4181   19.9663   46.2214 H   0  0  0  0  0  0  0  0  0  0  0  0
   54.3540   21.3020   47.5550 C   0  0  0  0  0  0  0  0  0  0  0  0
   53.4437   20.6846   47.5666 H   0  0  0  0  0  0  0  0  0  0  0  0
   54.4020   22.4880   48.2920 C   0  0  0  0  0  0  0  0  0  0  0  0
   53.5302   22.8027   48.8844 H   0  0  0  0  0  0  0  0  0  0  0  0
   55.5560   23.2740   48.2770 C   0  0  0  0  0  0  0  0  0  0  0  0
   55.5918   24.2079   48.8571 H   0  0  0  0  0  0  0  0  0  0  0  0
   56.6660   22.8760   47.5260 C   0  0  0  0  0  0  0  0  0  0  0  0
   57.5716   23.5003   47.5134 H   0  0  0  0  0  0  0  0  0  0  0  0
  1  2  1  0
  2  3  1  0
  2  4  2  0
  4  5  1  0
  5  6  2  0
  6  7  1  0
  6  8  1  0
  8  9  1  0
  9 10  1  0
 10 11  2  0
 10 12  1  0
 12 13  1  0
 13 14  1  0
 13 15  1  0
 13 16  1  0
 16 17  2  0
 17 18  1  0
 17 19  1  0
 19 20  1  0
 19 21  2  0
 21 22  1  0
 21 23  1  0
 23 24  1  0
 23 25  2  0
 25 26  1  0
 12 27  1  0
 27 28  1  0
  5 29  1  0
 29 30  1  0
 30 31  2  0
 30 32  1  0
 32 33  1  0
 33 34  1  0
 33 35  1  0
 33 36  1  0
 36 37  2  0
 36 38  1  0
 38 39  1  0
 39 40  1  0
 39 41  1  0
 39 42  1  0
 42 43  2  0
 43 44  1  0
 43 45  1  0
 45 46  1  0
 45 47  2  0
 47 48  1  0
 47 49  1  0
 49 50  1  0
 49 51  2  0
 51 52  1  0
 32  4  1  0
 51 42  1  0
 27  8  2  0
 25 16  1  0
M  CHG  4   9  -1  28  -1  29  -1  38  -1
M  END
>  <UniqueID>  (77) 
73

>  <SMILES>  (77) 
C=c1/c(=C\c2[n-]c(=O)n(Cc3ccccc3)c2[O-])[n-]c(=O)n1CC(=O)[N-]Cc1ccccc1

>  <Energy>  (77) 
127.3687742336264

>  <Genealogy>  (77) 
C=c1c(=Cc2[n-]c(=O)n(Cc3ccccc3)c2[O-])[n-]c(=O)n1CC(=O)[N-]Cc1ccccc1 (protonated)
C=c1/c(=C\c2[n-]c(=O)n(Cc3ccccc3)c2[O-])[n-]c(=O)n1CC(=O)[N-]Cc1ccccc1 (cis-trans isomerization)
C=c1/c(=C\c2[n-]c(=O)n(Cc3ccccc3)c2[O-])[n-]c(=O)n1CC(=O)[N-]Cc1ccccc1 (3D coordinates assigned)
C=c1/c(=C\c2[n-]c(=O)n(Cc3ccccc3)c2[O-])[n-]c(=O)n1CC(=O)[N-]Cc1ccccc1 (optimized conformer: 127.3687742336264 kcal/mol)

>  <smiles>  (77) 
C=c1c(=Cc2[nH]c(=O)n(Cc3ccccc3)c2O)[nH]c(=O)n1CC(=O)NCc1ccccc1

>  <score_type>  (77) 
oracle

>  <origin>  (77) 
adg

>  <m_score__min__energy>  (77) 
-16.98

>  <m_primary>  (77) 
energy

$$$$
77:0
     RDKit          3D

 48 50  0  0  0  0  0  0  0  0999 V2000
   59.2650   26.8380   47.7500 H   0  0  0  0  0  0  0  0  0  0  0  0
   58.7310   26.1290   47.2610 O   0  0  0  0  0  0  0  0  0  0  0  0
   57.4940   26.4360   46.7020 C   0  0  0  0  0  0  0  0  0  0  0  0
   56.4130   25.6430   46.7880 N   0  0  0  0  0  0  0  0  0  0  0  0
   55.4820   26.3370   46.0960 C   0  0  0  0  0  0  0  0  0  0  0  0
   54.3060   25.9190   45.9360 O   0  0  0  0  0  0  0  0  0  0  0  0
   55.9130   27.5110   45.5850 N   0  0  0  0  0  0  0  0  0  0  0  0
   57.1940   27.5740   45.9950 C   0  0  0  0  0  0  0  0  0  0  0  0
   58.1500   28.6280   45.6080 C   0  0  0  0  0  0  0  0  0  0  0  0
   59.2189   28.3730   45.6570 H   0  0  0  0  0  0  0  0  0  0  0  0
   57.8360   29.8830   45.1970 C   0  0  0  0  0  0  0  0  0  0  0  0
   58.1500   30.9420   46.0750 C   0  0  0  0  0  0  0  0  0  0  0  0
   58.5007   30.7130   47.0922 H   0  0  0  0  0  0  0  0  0  0  0  0
   58.0240   32.2790   45.6770 C   0  0  0  0  0  0  0  0  0  0  0  0
   58.3800   33.3870   46.5940 C   0  0  0  0  0  0  0  0  0  0  0  0
   57.8280   34.5120   46.4500 O   0  0  0  0  0  0  0  0  0  0  0  0
   59.3380   33.1990   47.6510 N   0  0  0  0  0  0  0  0  0  0  0  0
   60.7280   33.6190   47.4690 C   0  0  0  0  0  0  0  0  0  0  0  0
   60.7999   34.2846   46.5962 H   0  0  0  0  0  0  0  0  0  0  0  0
   61.0720   34.1563   48.3651 H   0  0  0  0  0  0  0  0  0  0  0  0
   61.6040   32.3800   47.2430 C   0  0  0  0  0  0  0  0  0  0  0  0
   61.3329   31.9251   46.2788 H   0  0  0  0  0  0  0  0  0  0  0  0
   62.6555   32.7028   47.2506 H   0  0  0  0  0  0  0  0  0  0  0  0
   61.4290   31.3700   48.3140 N   0  0  0  0  0  0  0  0  0  0  0  0
   62.1010   31.7770   49.5630 C   0  0  0  0  0  0  0  0  0  0  0  0
   61.5171   31.4234   50.4256 H   0  0  0  0  0  0  0  0  0  0  0  0
   63.1087   31.3373   49.5973 H   0  0  0  0  0  0  0  0  0  0  0  0
   62.1782   32.8738   49.5973 H   0  0  0  0  0  0  0  0  0  0  0  0
   59.9970   30.9910   48.4730 C   0  0  1  0  0  0  0  0  0  0  0  0
   59.6954   30.5534   47.5099 H   0  0  0  0  0  0  0  0  0  0  0  0
   59.7740   29.8830   49.5230 C   0  0  0  0  0  0  0  0  0  0  0  0
   60.6239   29.8722   50.2213 H   0  0  0  0  0  0  0  0  0  0  0  0
   58.8375   30.0918   50.0609 H   0  0  0  0  0  0  0  0  0  0  0  0
   59.6670   28.6170   48.9050 O   0  0  0  0  0  0  0  0  0  0  0  0
   60.7060   27.7820   49.3620 C   0  0  0  0  0  0  0  0  0  0  0  0
   60.7142   27.7754   50.4619 H   0  0  0  0  0  0  0  0  0  0  0  0
   60.5448   26.7593   48.9904 H   0  0  0  0  0  0  0  0  0  0  0  0
   61.6701   28.1595   48.9904 H   0  0  0  0  0  0  0  0  0  0  0  0
   59.0870   32.2160   48.7070 C   0  0  0  0  0  0  0  0  0  0  0  0
   58.0326   31.9040   48.6786 H   0  0  0  0  0  0  0  0  0  0  0  0
   59.3033   32.6599   49.6899 H   0  0  0  0  0  0  0  0  0  0  0  0
   57.5400   32.5480   44.3950 C   0  0  0  0  0  0  0  0  0  0  0  0
   57.4801   33.5869   44.0385 H   0  0  0  0  0  0  0  0  0  0  0  0
   57.1440   31.5340   43.5890 N   0  0  0  0  0  0  0  0  0  0  0  0
   57.2290   30.2240   43.9470 C   0  0  0  0  0  0  0  0  0  0  0  0
   56.6000   29.3450   43.1550 C   0  0  0  0  0  0  0  0  0  0  0  0
   56.6316   28.2711   43.3912 H   0  0  0  0  0  0  0  0  0  0  0  0
   56.0520   29.6973   42.2686 H   0  0  0  0  0  0  0  0  0  0  0  0
  1  2  1  0
  2  3  1  0
  3  4  1  0
  4  5  1  0
  5  6  2  0
  5  7  1  0
  7  8  1  0
  8  9  1  0
  9 10  1  0
  9 11  2  0
 11 12  1  0
 12 13  1  0
 12 14  2  0
 14 15  1  0
 15 16  2  0
 15 17  1  0
 17 18  1  0
 18 19  1  0
 18 20  1  0
 18 21  1  0
 21 22  1  0
 21 23  1  0
 21 24  1  0
 24 25  1  0
 25 26  1  0
 25 27  1  0
 25 28  1  0
 24 29  1  0
 29 30  1  6
 29 31  1  0
 31 32  1  0
 31 33  1  0
 31 34  1  0
 34 35  1  0
 35 36  1  0
 35 37  1  0
 35 38  1  0
 29 39  1  0
 39 40  1  0
 39 41  1  0
 14 42  1  0
 42 43  1  0
 42 44  2  0
 44 45  1  0
 45 46  2  0
 46 47  1  0
 46 48  1  0
  8  3  2  0
 45 11  1  0
 39 17  1  0
M  CHG  2   4  -1   7  -1
M  END
>  <UniqueID>  (78) 
74

>  <SMILES>  (78) 
C=c1ncc(C(=O)N2CCN(C)[C@@H](COC)C2)c/c1=C/c1[n-]c(=O)[n-]c1O

>  <Energy>  (78) 
108.38962617733259

>  <Genealogy>  (78) 
C=c1ncc(C(=O)N2CCN(C)C(COC)C2)cc1=Cc1[n-]c(=O)[n-]c1O (protonated)
C=c1ncc(C(=O)N2CCN(C)[C@@H](COC)C2)cc1=Cc1[n-]c(=O)[n-]c1O (chirality)
C=c1ncc(C(=O)N2CCN(C)[C@@H](COC)C2)c/c1=C/c1[n-]c(=O)[n-]c1O (cis-trans isomerization)
C=c1ncc(C(=O)N2CCN(C)[C@@H](COC)C2)c/c1=C/c1[n-]c(=O)[n-]c1O (3D coordinates assigned)
C=c1ncc(C(=O)N2CCN(C)[C@@H](COC)C2)c/c1=C/c1[n-]c(=O)[n-]c1O (nonaromatic ring conformer: 108.38962617733259 kcal/mol)

>  <smiles>  (78) 
C=c1ncc(C(=O)N2CCN(C)C(COC)C2)cc1=Cc1[nH]c(=O)[nH]c1O

>  <score_type>  (78) 
oracle

>  <origin>  (78) 
adg

>  <m_score__min__energy>  (78) 
-12.18

>  <m_primary>  (78) 
energy

$$$$
78:0
     RDKit          3D

 55 58  0  0  0  0  0  0  0  0999 V2000
   53.8390   28.4680   54.1010 C   0  0  0  0  0  0  0  0  0  0  0  0
   54.4420   29.3210   53.2580 C   0  0  0  0  0  0  0  0  0  0  0  0
   53.8670   30.4390   52.6350 C   0  0  0  0  0  0  0  0  0  0  0  0
   52.5810   30.8270   52.5280 C   0  0  0  0  0  0  0  0  0  0  0  0
   51.8500   31.0290   51.2660 C   0  0  0  0  0  0  0  0  0  0  0  0
   51.8580   30.1710   50.2290 N   0  0  0  0  0  0  0  0  0  0  0  0
   51.1820   30.8370   49.2680 C   0  0  0  0  0  0  0  0  0  0  0  0
   50.9640   30.3460   48.1290 O   0  0  0  0  0  0  0  0  0  0  0  0
   50.7690   32.0730   49.6190 N   0  0  0  0  0  0  0  0  0  0  0  0
   51.2120   32.1840   50.8820 C   0  0  0  0  0  0  0  0  0  0  0  0
   51.0420   33.3190   51.6660 O   0  0  0  0  0  0  0  0  0  0  0  0
   54.9140   31.1550   52.0810 C   0  0  0  0  0  0  0  0  0  0  0  0
   56.0660   30.4410   52.3310 C   0  0  0  0  0  0  0  0  0  0  0  0
   57.4100   30.8890   51.9080 C   0  0  0  0  0  0  0  0  0  0  0  0
   58.0200   31.7260   52.6290 O   0  0  0  0  0  0  0  0  0  0  0  0
   58.0800   30.2830   50.7760 N   0  0  0  0  0  0  0  0  0  0  0  0
   59.1410   29.3640   51.2530 C   0  0  0  0  0  0  0  0  0  0  0  0
   60.1050   28.9480   50.1200 C   0  0  0  0  0  0  0  0  0  0  0  0
   59.5010   29.2320   48.8070 N   0  0  0  0  0  0  0  0  0  0  0  0
   60.2170   28.6020   47.6770 C   0  0  0  0  0  0  0  0  0  0  0  0
   59.3060   28.0230   46.6150 C   0  0  0  0  0  0  0  0  0  0  0  0
   59.5860   28.2180   45.2530 C   0  0  0  0  0  0  0  0  0  0  0  0
   58.7390   27.6890   44.2780 C   0  0  0  0  0  0  0  0  0  0  0  0
   57.6080   26.9590   44.6480 C   0  0  0  0  0  0  0  0  0  0  0  0
   57.3170   26.7410   46.0070 C   0  0  0  0  0  0  0  0  0  0  0  0
   56.1170   25.9700   46.4050 C   0  0  0  0  0  0  0  0  0  0  0  0
   56.2260   24.9420   47.1260 O   0  0  0  0  0  0  0  0  0  0  0  0
   54.8530   26.3670   45.9820 O   0  0  0  0  0  0  0  0  0  0  0  0
   58.1780   27.2710   46.9840 C   0  0  0  0  0  0  0  0  0  0  0  0
   59.2660   30.6800   48.6210 C   0  0  0  0  0  0  0  0  0  0  0  0
   58.6430   31.3180   49.8830 C   0  0  0  0  0  0  0  0  0  0  0  0
   55.7790   29.3070   53.0140 N   0  0  0  0  0  0  0  0  0  0  0  0
   56.7330   28.2740   53.4340 C   0  0  0  0  0  0  0  0  0  0  0  0
   54.4023   27.6240   54.5257 H   0  0  0  0  0  0  0  0  0  0  0  0
   52.7816   28.6130   54.3671 H   0  0  0  0  0  0  0  0  0  0  0  0
   52.0306   31.0082   53.4630 H   0  0  0  0  0  0  0  0  0  0  0  0
   54.8406   32.1119   51.5434 H   0  0  0  0  0  0  0  0  0  0  0  0
   57.3870   29.7180   50.2320 H   0  0  0  0  0  0  0  0  0  0  0  0
   59.7182   29.8684   52.0419 H   0  0  0  0  0  0  0  0  0  0  0  0
   58.6538   28.4540   51.6332 H   0  0  0  0  0  0  0  0  0  0  0  0
   61.0445   29.5119   50.2172 H   0  0  0  0  0  0  0  0  0  0  0  0
   60.3044   27.8690   50.1971 H   0  0  0  0  0  0  0  0  0  0  0  0
   60.8570   29.3627   47.2061 H   0  0  0  0  0  0  0  0  0  0  0  0
   60.7925   27.7624   48.0940 H   0  0  0  0  0  0  0  0  0  0  0  0
   60.4765   28.7900   44.9532 H   0  0  0  0  0  0  0  0  0  0  0  0
   58.9636   27.8480   43.2130 H   0  0  0  0  0  0  0  0  0  0  0  0
   56.9413   26.5524   43.8733 H   0  0  0  0  0  0  0  0  0  0  0  0
   57.9662   27.0950   48.0490 H   0  0  0  0  0  0  0  0  0  0  0  0
   60.2256   31.1735   48.4072 H   0  0  0  0  0  0  0  0  0  0  0  0
   58.5638   30.8116   47.7846 H   0  0  0  0  0  0  0  0  0  0  0  0
   59.4203   31.8768   50.4249 H   0  0  0  0  0  0  0  0  0  0  0  0
   57.8312   31.9917   49.5713 H   0  0  0  0  0  0  0  0  0  0  0  0
   56.7700   28.2340   54.5326 H   0  0  0  0  0  0  0  0  0  0  0  0
   56.4122   27.2975   53.0421 H   0  0  0  0  0  0  0  0  0  0  0  0
   57.7319   28.5162   53.0421 H   0  0  0  0  0  0  0  0  0  0  0  0
  1  2  2  0
  2  3  1  0
  3  4  2  3
  4  5  1  0
  5  6  1  0
  6  7  1  0
  7  8  2  0
  7  9  1  0
  9 10  1  0
 10 11  1  0
  3 12  1  0
 12 13  2  0
 13 14  1  0
 14 15  2  0
 14 16  1  0
 16 17  1  0
 17 18  1  0
 18 19  1  0
 19 20  1  0
 20 21  1  0
 21 22  2  0
 22 23  1  0
 23 24  2  0
 24 25  1  0
 25 26  1  0
 26 27  2  0
 26 28  1  0
 25 29  2  0
 19 30  1  0
 30 31  1  0
 13 32  1  0
 32 33  1  0
 32  2  1  0
 10  5  2  0
 31 16  1  0
 29 21  1  0
  1 34  1  0
  1 35  1  0
  4 36  1  0
 12 37  1  0
 16 38  1  0
 17 39  1  0
 17 40  1  0
 18 41  1  0
 18 42  1  0
 20 43  1  0
 20 44  1  0
 22 45  1  0
 23 46  1  0
 24 47  1  0
 29 48  1  0
 30 49  1  0
 30 50  1  0
 31 51  1  0
 31 52  1  0
 33 53  1  0
 33 54  1  0
 33 55  1  0
M  CHG  5   6  -1   9  -1  11  -1  16   1  28  -1
M  END
>  <UniqueID>  (79) 
75

>  <SMILES>  (79) 
C=c1c(=Cc2[n-]c(=O)[n-]c2[O-])cc(C(=O)[NH+]2CCN(Cc3cccc(C(=O)[O-])c3)CC2)n1C

>  <Energy>  (79) 
146.12843043566355

>  <Genealogy>  (79) 
C=c1c(=Cc2[n-]c(=O)[n-]c2[O-])cc(C(=O)[NH+]2CCN(Cc3cccc(C(=O)[O-])c3)CC2)n1C (protonated)
C=c1c(=Cc2[n-]c(=O)[n-]c2[O-])cc(C(=O)[NH+]2CCN(Cc3cccc(C(=O)[O-])c3)CC2)n1C (3D coordinates assigned)
C=c1c(=Cc2[n-]c(=O)[n-]c2[O-])cc(C(=O)[NH+]2CCN(Cc3cccc(C(=O)[O-])c3)CC2)n1C (nonaromatic ring conformer: 146.12843043566355 kcal/mol)

>  <smiles>  (79) 
C=c1c(=Cc2[nH]c(=O)[nH]c2O)cc(C(=O)N2CCN(Cc3cccc(C(=O)O)c3)CC2)n1C

>  <score_type>  (79) 
oracle

>  <origin>  (79) 
adg

>  <m_score__min__energy>  (79) 
-20.789999999999999

>  <m_primary>  (79) 
energy

$$$$
79:0
     RDKit          3D

 57 60  0  0  1  0  0  0  0  0999 V2000
   67.6310   33.7630   50.8650 C   0  0  0  0  0  0  0  0  0  0  0  0
   66.9510   32.7230   51.3430 C   0  0  0  0  0  0  0  0  0  0  0  0
   67.5100   31.3520   51.2740 C   0  0  0  0  0  0  0  0  0  0  0  0
   65.5940   32.9360   51.9620 C   0  0  0  0  0  0  0  0  0  0  0  0
   64.6280   33.2170   50.9510 N   0  0  0  0  0  0  0  0  0  0  0  0
   64.8620   32.4150   49.7480 C   0  0  0  0  0  0  0  0  0  0  0  0
   64.5320   33.2850   48.5890 C   0  0  0  0  0  0  0  0  0  0  0  0
   63.0850   33.5630   48.4090 C   0  0  0  0  0  0  0  0  0  0  0  0
   62.7860   33.4810   47.0610 C   0  0  0  0  0  0  0  0  0  0  0  0
   61.4840   33.7050   46.6490 C   0  0  0  0  0  0  0  0  0  0  0  0
   60.4990   34.0050   47.5780 C   0  0  0  0  0  0  0  0  0  0  0  0
   59.1750   34.2260   47.0980 N   0  0  0  0  0  0  0  0  0  0  0  0
   58.7200   33.5780   46.1030 C   0  0  0  0  0  0  0  0  0  0  0  0
   58.9690   34.0560   44.8710 N   0  0  0  0  0  0  0  0  0  0  0  0
   58.5410   33.4590   43.7430 C   0  0  0  0  0  0  0  0  0  0  0  0
   57.8050   32.2860   43.8700 C   0  0  0  0  0  0  0  0  0  0  0  0
   57.3600   31.6620   42.7620 F   0  0  0  0  0  0  0  0  0  0  0  0
   57.5520   31.7980   45.1570 C   0  0  0  0  0  0  0  0  0  0  0  0
   56.8680   30.7130   45.2240 N   0  0  0  0  0  0  0  0  0  0  0  0
   57.5650   29.4830   45.0480 C   0  0  0  0  0  0  0  0  0  0  0  0
   58.4330   29.1160   46.0680 C   0  0  0  0  0  0  0  0  0  0  0  0
   59.1480   27.9320   45.9750 C   0  0  0  0  0  0  0  0  0  0  0  0
   58.9900   27.1410   44.8750 C   0  0  0  0  0  0  0  0  0  0  0  0
   58.1260   27.5110   43.8640 C   0  0  0  0  0  0  0  0  0  0  0  0
   58.0170   26.6590   42.7820 O   0  0  0  0  0  0  0  0  0  0  0  0
   57.4000   28.6880   43.9340 C   0  0  0  0  0  0  0  0  0  0  0  0
   58.0050   32.4360   46.2570 N   0  0  0  0  0  0  0  0  0  0  0  0
   60.8080   34.0840   48.9210 C   0  0  0  0  0  0  0  0  0  0  0  0
   62.1060   33.8610   49.3320 C   0  0  0  0  0  0  0  0  0  0  0  0
   62.3090   33.9740   50.7950 C   0  0  0  0  0  0  0  0  0  0  0  0
   63.2690   32.9740   51.3460 C   0  0  0  0  0  0  0  0  0  0  0  0
   67.2023   34.7743   50.9237 H   0  0  0  0  0  0  0  0  0  0  0  0
   68.6215   33.6109   50.4113 H   0  0  0  0  0  0  0  0  0  0  0  0
   67.6665   30.9681   52.2929 H   0  0  0  0  0  0  0  0  0  0  0  0
   66.8075   30.6961   50.7389 H   0  0  0  0  0  0  0  0  0  0  0  0
   68.4708   31.3743   50.7389 H   0  0  0  0  0  0  0  0  0  0  0  0
   65.2964   32.0273   52.5059 H   0  0  0  0  0  0  0  0  0  0  0  0
   65.6462   33.7891   52.6544 H   0  0  0  0  0  0  0  0  0  0  0  0
   65.9152   32.1011   49.6996 H   0  0  0  0  0  0  0  0  0  0  0  0
   64.2440   31.5050   49.7506 H   0  0  0  0  0  0  0  0  0  0  0  0
   65.0504   34.2457   48.7242 H   0  0  0  0  0  0  0  0  0  0  0  0
   64.8555   32.7386   47.6908 H   0  0  0  0  0  0  0  0  0  0  0  0
   63.5706   33.2416   46.3282 H   0  0  0  0  0  0  0  0  0  0  0  0
   61.2294   33.6449   45.5806 H   0  0  0  0  0  0  0  0  0  0  0  0
   59.5190   34.9310   44.7630 H   0  0  0  0  0  0  0  0  0  0  0  0
   58.7659   33.8847   42.7540 H   0  0  0  0  0  0  0  0  0  0  0  0
   58.5530   29.7640   46.9487 H   0  0  0  0  0  0  0  0  0  0  0  0
   59.8357   27.6335   46.7800 H   0  0  0  0  0  0  0  0  0  0  0  0
   59.5554   26.2010   44.7929 H   0  0  0  0  0  0  0  0  0  0  0  0
   57.0600   26.4520   42.4610 H   0  0  0  0  0  0  0  0  0  0  0  0
   56.7130   28.9795   43.1259 H   0  0  0  0  0  0  0  0  0  0  0  0
   57.8160   32.0740   47.2010 H   0  0  0  0  0  0  0  0  0  0  0  0
   60.0262   34.3227   49.6571 H   0  0  0  0  0  0  0  0  0  0  0  0
   62.6919   34.9813   51.0157 H   0  0  0  0  0  0  0  0  0  0  0  0
   61.3359   33.7815   51.2705 H   0  0  0  0  0  0  0  0  0  0  0  0
   63.2134   33.0043   52.4442 H   0  0  0  0  0  0  0  0  0  0  0  0
   62.9829   31.9906   50.9447 H   0  0  0  0  0  0  0  0  0  0  0  0
  1  2  2  0
  2  3  1  0
  2  4  1  0
  4  5  1  0
  5  6  1  0
  6  7  1  0
  7  8  1  0
  8  9  2  0
  9 10  1  0
 10 11  2  0
 11 12  1  0
 12 13  2  0
 13 14  1  0
 14 15  1  0
 15 16  2  0
 16 17  1  0
 16 18  1  0
 18 19  2  0
 19 20  1  0
 20 21  2  0
 21 22  1  0
 22 23  2  0
 23 24  1  0
 24 25  1  0
 24 26  2  0
 18 27  1  0
 11 28  1  0
 28 29  2  0
 29 30  1  0
 30 31  1  0
 31  5  1  0
 29  8  1  0
 27 13  1  0
 26 20  1  0
  1 32  1  0
  1 33  1  0
  3 34  1  0
  3 35  1  0
  3 36  1  0
  4 37  1  0
  4 38  1  0
  6 39  1  0
  6 40  1  0
  7 41  1  0
  7 42  1  0
  9 43  1  0
 10 44  1  0
 14 45  1  0
 15 46  1  0
 21 47  1  0
 22 48  1  0
 23 49  1  0
 25 50  1  0
 26 51  1  0
 27 52  1  0
 28 53  1  0
 30 54  1  0
 30 55  1  0
 31 56  1  0
 31 57  1  0
M  END
>  <smiles>  (80) 
C=C(C)CN1CCc2ccc(N=c3[nH]cc(F)c(=Nc4cccc(O)c4)[nH]3)cc2CC1

>  <score_type>  (80) 
oracle

>  <origin>  (80) 
adg

>  <m_score__min__energy>  (80) 
-8.8599999999999994

>  <m_primary>  (80) 
energy

$$$$
80:0
     RDKit          3D

 23 24  0  0  0  0  0  0  0  0999 V2000
   56.8260   33.5301   45.0857 H   0  0  0  0  0  0  0  0  0  0  0  0
   57.4300   32.6290   45.2680 C   0  0  0  0  0  0  0  0  0  0  0  0
   57.0330   31.3880   44.8760 N   0  0  0  0  0  0  0  0  0  0  0  0
   57.9410   30.4440   45.2050 C   0  0  0  0  0  0  0  0  0  0  0  0
   57.7770   29.1920   44.8920 N   0  0  0  0  0  0  0  0  0  0  0  0
   56.6960   28.3490   45.3180 C   0  0  0  0  0  0  0  0  0  0  0  0
   55.5160   28.7150   45.0770 O   0  0  0  0  0  0  0  0  0  0  0  0
   56.9210   27.0950   46.0760 C   0  0  0  0  0  0  0  0  0  0  0  0
   55.9010   26.1380   46.2510 C   0  0  0  0  0  0  0  0  0  0  0  0
   54.6420   26.3270   45.6930 O   0  0  0  0  0  0  0  0  0  0  0  0
   56.1460   25.0020   46.9570 N   0  0  0  0  0  0  0  0  0  0  0  0
   57.3640   24.7420   47.5010 C   0  0  0  0  0  0  0  0  0  0  0  0
   57.5450   23.6790   48.1510 O   0  0  0  0  0  0  0  0  0  0  0  0
   58.4100   25.6500   47.3360 C   0  0  0  0  0  0  0  0  0  0  0  0
   59.3997   25.4422   47.7689 H   0  0  0  0  0  0  0  0  0  0  0  0
   58.1880   26.8250   46.6160 C   0  0  0  0  0  0  0  0  0  0  0  0
   59.0094   27.5422   46.4712 H   0  0  0  0  0  0  0  0  0  0  0  0
   59.2910   31.1110   45.9740 S   0  0  0  0  0  0  0  0  0  0  0  0
   58.6590   32.6690   45.9170 C   0  0  0  0  0  0  0  0  0  0  0  0
   59.3650   33.9010   46.3740 C   0  0  0  0  0  0  0  0  0  0  0  0
   59.3806   33.9282   47.4736 H   0  0  0  0  0  0  0  0  0  0  0  0
   60.3968   33.8951   45.9927 H   0  0  0  0  0  0  0  0  0  0  0  0
   58.8383   34.7882   45.9927 H   0  0  0  0  0  0  0  0  0  0  0  0
  1  2  1  0
  2  3  1  0
  3  4  1  0
  4  5  2  0
  5  6  1  0
  6  7  2  0
  6  8  1  0
  8  9  2  0
  9 10  1  0
  9 11  1  0
 11 12  1  0
 12 13  2  0
 12 14  1  0
 14 15  1  0
 14 16  2  0
 16 17  1  0
  4 18  1  0
 18 19  1  0
 19 20  1  0
 20 21  1  0
 20 22  1  0
 20 23  1  0
 19  2  2  0
 16  8  1  0
M  CHG  3   3  -1  10  -1  11  -1
M  END
>  <UniqueID>  (81) 
76

>  <SMILES>  (81) 
Cc1c[n-]/c(=N/C(=O)c2ccc(=O)[n-]c2[O-])s1

>  <Energy>  (81) 
63.55093524228322

>  <Genealogy>  (81) 
Cc1c[n-]c(=NC(=O)c2ccc(=O)[n-]c2[O-])s1 (protonated)
Cc1c[n-]/c(=N/C(=O)c2ccc(=O)[n-]c2[O-])s1 (cis-trans isomerization)
Cc1c[n-]/c(=N/C(=O)c2ccc(=O)[n-]c2[O-])s1 (3D coordinates assigned)
Cc1c[n-]/c(=N/C(=O)c2ccc(=O)[n-]c2[O-])s1 (optimized conformer: 63.55093524228322 kcal/mol)

>  <smiles>  (81) 
Cc1c[nH]c(=NC(=O)c2ccc(=O)[nH]c2O)s1

>  <score_type>  (81) 
oracle

>  <origin>  (81) 
adg

>  <m_score__min__energy>  (81) 
-13.970000000000001

>  <m_primary>  (81) 
energy

$$$$
81:0
     RDKit          3D

 38 39  0  0  0  0  0  0  0  0999 V2000
   56.4770   29.6660   43.3010 C   0  0  0  0  0  0  0  0  0  0  0  0
   56.2730   29.6090   44.7820 C   0  0  0  0  0  0  0  0  0  0  0  0
   55.1050   29.6910   45.2500 O   0  0  0  0  0  0  0  0  0  0  0  0
   57.4140   29.3990   45.7000 C   0  0  0  0  0  0  0  0  0  0  0  0
   58.2950   30.4750   45.8880 C   0  0  0  0  0  0  0  0  0  0  0  0
   58.0290   31.7000   45.2780 O   0  0  0  0  0  0  0  0  0  0  0  0
   59.4580   30.3250   46.6530 C   0  0  0  0  0  0  0  0  0  0  0  0
   60.4260   31.4750   46.7790 C   0  0  0  0  0  0  0  0  0  0  0  0
   59.7910   29.0670   47.1800 C   0  0  0  0  0  0  0  0  0  0  0  0
   61.0740   28.9120   47.7150 O   0  0  0  0  0  0  0  0  0  0  0  0
   58.8570   27.9960   47.1160 C   0  0  0  0  0  0  0  0  0  0  0  0
   59.0510   26.7920   47.8430 C   0  0  0  0  0  0  0  0  0  0  0  0
   60.0830   26.6410   48.7600 O   0  0  0  0  0  0  0  0  0  0  0  0
   58.1670   25.7280   47.6970 C   0  0  0  0  0  0  0  0  0  0  0  0
   57.0390   25.8400   46.8920 C   0  0  0  0  0  0  0  0  0  0  0  0
   56.1240   24.6880   46.7720 C   0  0  0  0  0  0  0  0  0  0  0  0
   55.5970   24.2130   47.8120 O   0  0  0  0  0  0  0  0  0  0  0  0
   55.8320   24.0800   45.5060 N   0  0  0  0  0  0  0  0  0  0  0  0
   56.7580   23.9900   44.3800 C   0  0  0  0  0  0  0  0  0  0  0  0
   57.2610   22.5550   44.2090 C   0  0  0  0  0  0  0  0  0  0  0  0
   56.2870   21.7510   43.4070 C   0  0  0  0  0  0  0  0  0  0  0  0
   55.7720   22.2380   42.3660 O   0  0  0  0  0  0  0  0  0  0  0  0
   55.9120   20.4850   43.8360 O   0  0  0  0  0  0  0  0  0  0  0  0
   56.7460   27.0620   46.2690 C   0  0  0  0  0  0  0  0  0  0  0  0
   55.5190   27.1850   45.6220 O   0  0  0  0  0  0  0  0  0  0  0  0
   57.6630   28.1510   46.3430 C   0  0  0  0  0  0  0  0  0  0  0  0
   57.5158   29.9562   43.0849 H   0  0  0  0  0  0  0  0  0  0  0  0
   56.2743   28.6768   42.8646 H   0  0  0  0  0  0  0  0  0  0  0  0
   55.7909   30.4068   42.8646 H   0  0  0  0  0  0  0  0  0  0  0  0
   60.6055   31.6883   47.8431 H   0  0  0  0  0  0  0  0  0  0  0  0
   61.3763   31.2093   46.2929 H   0  0  0  0  0  0  0  0  0  0  0  0
   60.0021   32.3661   46.2929 H   0  0  0  0  0  0  0  0  0  0  0  0
   61.3220   28.1740   48.3600 H   0  0  0  0  0  0  0  0  0  0  0  0
   58.3633   24.7839   48.2263 H   0  0  0  0  0  0  0  0  0  0  0  0
   56.2411   24.3037   43.4611 H   0  0  0  0  0  0  0  0  0  0  0  0
   57.6188   24.6463   44.5757 H   0  0  0  0  0  0  0  0  0  0  0  0
   58.2311   22.5707   43.6906 H   0  0  0  0  0  0  0  0  0  0  0  0
   57.3696   22.0951   45.2023 H   0  0  0  0  0  0  0  0  0  0  0  0
  1  2  1  0
  2  3  2  0
  2  4  1  0
  4  5  2  0
  5  6  1  0
  5  7  1  0
  7  8  1  0
  7  9  2  0
  9 10  1  0
  9 11  1  0
 11 12  2  0
 12 13  1  0
 12 14  1  0
 14 15  2  0
 15 16  1  0
 16 17  2  0
 16 18  1  0
 18 19  1  0
 19 20  1  0
 20 21  1  0
 21 22  2  0
 21 23  1  0
 15 24  1  0
 24 25  1  0
 24 26  2  0
 26  4  1  0
 26 11  1  0
  1 27  1  0
  1 28  1  0
  1 29  1  0
  8 30  1  0
  8 31  1  0
  8 32  1  0
 10 33  1  0
 14 34  1  0
 19 35  1  0
 19 36  1  0
 20 37  1  0
 20 38  1  0
M  CHG  5   6  -1  13  -1  18  -1  23  -1  25  -1
M  END
>  <UniqueID>  (82) 
77

>  <SMILES>  (82) 
CC(=O)c1c([O-])c(C)c(O)c2c([O-])cc(C(=O)[N-]CCC(=O)[O-])c([O-])c12

>  <Energy>  (82) 
65.45528126272549

>  <Genealogy>  (82) 
CC(=O)c1c([O-])c(C)c(O)c2c([O-])cc(C(=O)[N-]CCC(=O)[O-])c([O-])c12 (protonated)
CC(=O)c1c([O-])c(C)c(O)c2c([O-])cc(C(=O)[N-]CCC(=O)[O-])c([O-])c12 (3D coordinates assigned)
CC(=O)c1c([O-])c(C)c(O)c2c([O-])cc(C(=O)[N-]CCC(=O)[O-])c([O-])c12 (optimized conformer: 65.45528126272549 kcal/mol)

>  <smiles>  (82) 
CC(=O)c1c(O)c(C)c(O)c2c(O)cc(C(=O)NCCC(=O)O)c(O)c12

>  <score_type>  (82) 
oracle

>  <origin>  (82) 
adg

>  <m_score__min__energy>  (82) 
-15.44

>  <m_primary>  (82) 
energy

$$$$
82:0
     RDKit          3D

 36 38  0  0  0  0  0  0  0  0999 V2000
   63.0775   30.7404   47.9166 H   0  0  0  0  0  0  0  0  0  0  0  0
   62.4780   31.6010   47.5850 C   0  0  0  0  0  0  0  0  0  0  0  0
   61.1210   31.5430   47.6360 N   0  0  0  0  0  0  0  0  0  0  0  0
   60.3450   32.5860   47.2320 C   0  0  0  0  0  0  0  0  0  0  0  0
   58.5610   32.4430   47.3000 S   0  0  0  0  0  0  0  0  0  0  0  0
   58.3450   32.3400   45.4900 C   0  0  0  0  0  0  0  0  0  0  0  0
   59.3301   32.2250   45.0143 H   0  0  0  0  0  0  0  0  0  0  0  0
   57.8577   33.2612   45.1380 H   0  0  0  0  0  0  0  0  0  0  0  0
   57.4820   31.1670   45.1270 C   0  0  0  0  0  0  0  0  0  0  0  0
   56.3020   31.2900   44.4940 N   0  0  0  0  0  0  0  0  0  0  0  0
   55.8710   30.0170   44.3880 C   0  0  0  0  0  0  0  0  0  0  0  0
   54.7810   29.7130   43.8380 O   0  0  0  0  0  0  0  0  0  0  0  0
   56.7020   29.0950   44.9150 N   0  0  0  0  0  0  0  0  0  0  0  0
   57.7200   29.8310   45.3960 C   0  0  0  0  0  0  0  0  0  0  0  0
   58.9330   29.2330   46.0400 C   0  0  0  0  0  0  0  0  0  0  0  0
   59.4894   30.0206   46.5692 H   0  0  0  0  0  0  0  0  0  0  0  0
   59.5682   28.7833   45.2626 H   0  0  0  0  0  0  0  0  0  0  0  0
   58.5290   28.1740   47.0140 C   0  0  0  0  0  0  0  0  0  0  0  0
   59.2930   27.8900   47.9760 O   0  0  0  0  0  0  0  0  0  0  0  0
   57.2880   27.4780   46.8150 N   0  0  0  0  0  0  0  0  0  0  0  0
   57.1340   26.2600   46.3800 C   0  0  0  0  0  0  0  0  0  0  0  0
   58.1840   25.3910   46.3210 N   0  0  0  0  0  0  0  0  0  0  0  0
   58.0430   24.1170   45.8690 C   0  0  0  0  0  0  0  0  0  0  0  0
   58.9138   23.4457   45.8364 H   0  0  0  0  0  0  0  0  0  0  0  0
   56.7930   23.6600   45.4460 C   0  0  0  0  0  0  0  0  0  0  0  0
   56.6722   22.6300   45.0792 H   0  0  0  0  0  0  0  0  0  0  0  0
   55.6990   24.5250   45.4940 C   0  0  0  0  0  0  0  0  0  0  0  0
   54.7083   24.1790   45.1641 H   0  0  0  0  0  0  0  0  0  0  0  0
   55.8640   25.8320   45.9620 C   0  0  0  0  0  0  0  0  0  0  0  0
   54.7720   26.6920   46.0090 O   0  0  0  0  0  0  0  0  0  0  0  0
   60.9430   33.7590   46.7610 C   0  0  0  0  0  0  0  0  0  0  0  0
   60.3231   34.6102   46.4428 H   0  0  0  0  0  0  0  0  0  0  0  0
   62.3360   33.8380   46.6990 C   0  0  0  0  0  0  0  0  0  0  0  0
   62.8207   34.7524   46.3262 H   0  0  0  0  0  0  0  0  0  0  0  0
   63.1120   32.7520   47.1120 C   0  0  0  0  0  0  0  0  0  0  0  0
   64.2098   32.8030   47.0651 H   0  0  0  0  0  0  0  0  0  0  0  0
  1  2  1  0
  2  3  2  0
  3  4  1  0
  4  5  1  0
  5  6  1  0
  6  7  1  0
  6  8  1  0
  6  9  1  0
  9 10  1  0
 10 11  1  0
 11 12  2  0
 11 13  1  0
 13 14  1  0
 14 15  1  0
 15 16  1  0
 15 17  1  0
 15 18  1  0
 18 19  2  0
 18 20  1  0
 20 21  2  0
 21 22  1  0
 22 23  1  0
 23 24  1  0
 23 25  2  0
 25 26  1  0
 25 27  1  0
 27 28  1  0
 27 29  2  0
 29 30  1  0
  4 31  2  0
 31 32  1  0
 31 33  1  0
 33 34  1  0
 33 35  2  0
 35 36  1  0
 35  2  1  0
 14  9  2  0
 29 21  1  0
M  CHG  4  10  -1  13  -1  22  -1  30  -1
M  END
>  <UniqueID>  (83) 
78

>  <SMILES>  (83) 
O=C(Cc1[n-]c(=O)[n-]c1CSc1ccccn1)/N=c1\[n-]cccc1[O-]

>  <Energy>  (83) 
62.891849588225085

>  <Genealogy>  (83) 
O=C(Cc1[n-]c(=O)[n-]c1CSc1ccccn1)N=c1[n-]cccc1[O-] (protonated)
O=C(Cc1[n-]c(=O)[n-]c1CSc1ccccn1)/N=c1\[n-]cccc1[O-] (cis-trans isomerization)
O=C(Cc1[n-]c(=O)[n-]c1CSc1ccccn1)/N=c1\[n-]cccc1[O-] (3D coordinates assigned)
O=C(Cc1[n-]c(=O)[n-]c1CSc1ccccn1)/N=c1\[n-]cccc1[O-] (optimized conformer: 62.891849588225085 kcal/mol)

>  <smiles>  (83) 
O=C(Cc1[nH]c(=O)[nH]c1CSc1ccccn1)N=c1[nH]cccc1O

>  <score_type>  (83) 
oracle

>  <origin>  (83) 
adg

>  <m_score__min__energy>  (83) 
-15.890000000000001

>  <m_primary>  (83) 
energy

$$$$
83:0
     RDKit          3D

 60 63  0  0  0  0  0  0  0  0999 V2000
   64.2908   30.8985   47.1037 H   0  0  0  0  0  0  0  0  0  0  0  0
   63.4500   31.5980   47.2210 C   0  0  0  0  0  0  0  0  0  0  0  0
   62.1580   31.1090   47.4280 C   0  0  0  0  0  0  0  0  0  0  0  0
   61.9832   30.0242   47.4801 H   0  0  0  0  0  0  0  0  0  0  0  0
   61.0870   31.9960   47.5690 C   0  0  0  0  0  0  0  0  0  0  0  0
   60.0707   31.6059   47.7269 H   0  0  0  0  0  0  0  0  0  0  0  0
   61.3020   33.3850   47.5100 C   0  0  0  0  0  0  0  0  0  0  0  0
   60.1410   34.3430   47.6640 C   0  0  0  0  0  0  0  0  0  0  0  0
   60.5399   35.3680   47.6784 H   0  0  0  0  0  0  0  0  0  0  0  0
   59.6294   34.0699   48.5987 H   0  0  0  0  0  0  0  0  0  0  0  0
   59.0830   34.2500   46.5360 C   0  0  0  0  0  0  0  0  0  0  0  0
   58.8008   35.2893   46.3120 H   0  0  0  0  0  0  0  0  0  0  0  0
   59.6480   33.6200   45.2540 C   0  0  0  0  0  0  0  0  0  0  0  0
   59.9544   32.5848   45.4649 H   0  0  0  0  0  0  0  0  0  0  0  0
   60.5121   34.2127   44.9194 H   0  0  0  0  0  0  0  0  0  0  0  0
   58.5890   33.6160   44.1390 C   0  0  0  0  0  0  0  0  0  0  0  0
   58.9865   33.0581   43.2784 H   0  0  0  0  0  0  0  0  0  0  0  0
   58.3745   34.6637   43.8813 H   0  0  0  0  0  0  0  0  0  0  0  0
   57.3170   32.9910   44.5610 N   0  0  0  0  0  0  0  0  0  0  0  0
   57.1410   31.5590   44.2310 C   0  0  0  0  0  0  0  0  0  0  0  0
   57.3365   31.4233   43.1571 H   0  0  0  0  0  0  0  0  0  0  0  0
   56.1109   31.2892   44.5067 H   0  0  0  0  0  0  0  0  0  0  0  0
   58.0600   30.6420   45.0030 C   0  0  0  0  0  0  0  0  0  0  0  0
   57.8030   30.3570   46.3540 C   0  0  0  0  0  0  0  0  0  0  0  0
   56.9089   30.7711   46.8429 H   0  0  0  0  0  0  0  0  0  0  0  0
   58.6900   29.5410   47.0830 C   0  0  0  0  0  0  0  0  0  0  0  0
   58.5620   29.2840   48.3580 N   0  0  0  0  0  0  0  0  0  0  0  0
   59.2740   29.7730   49.5080 C   0  0  0  0  0  0  0  0  0  0  0  0
   60.3190   29.1670   49.8650 O   0  0  0  0  0  0  0  0  0  0  0  0
   58.8220   30.9120   50.3290 C   0  0  0  0  0  0  0  0  0  0  0  0
   59.5000   32.1370   50.1900 C   0  0  0  0  0  0  0  0  0  0  0  0
   60.3118   32.2306   49.4536 H   0  0  0  0  0  0  0  0  0  0  0  0
   59.1510   33.2350   50.9790 C   0  0  0  0  0  0  0  0  0  0  0  0
   59.6658   34.1973   50.8414 H   0  0  0  0  0  0  0  0  0  0  0  0
   58.1490   33.1110   51.9420 C   0  0  0  0  0  0  0  0  0  0  0  0
   57.8678   33.9783   52.5575 H   0  0  0  0  0  0  0  0  0  0  0  0
   57.5030   31.8870   52.1250 C   0  0  0  0  0  0  0  0  0  0  0  0
   56.7296   31.7917   52.9014 H   0  0  0  0  0  0  0  0  0  0  0  0
   57.8280   30.7770   51.3310 C   0  0  0  0  0  0  0  0  0  0  0  0
   57.1940   29.5640   51.6250 O   0  0  0  0  0  0  0  0  0  0  0  0
   56.3600   29.3500   52.7560 C   0  0  0  0  0  0  0  0  0  0  0  0
   56.9442   29.4999   53.6759 H   0  0  0  0  0  0  0  0  0  0  0  0
   55.5220   30.0622   52.7336 H   0  0  0  0  0  0  0  0  0  0  0  0
   55.9684   28.3223   52.7336 H   0  0  0  0  0  0  0  0  0  0  0  0
   59.8040   29.0110   46.4210 C   0  0  0  0  0  0  0  0  0  0  0  0
   60.5169   28.3760   46.9674 H   0  0  0  0  0  0  0  0  0  0  0  0
   60.0110   29.2870   45.0700 C   0  0  0  0  0  0  0  0  0  0  0  0
   60.8810   28.8585   44.5509 H   0  0  0  0  0  0  0  0  0  0  0  0
   59.1440   30.0820   44.3920 N   0  0  0  0  0  0  0  0  0  0  0  0
   59.3330   30.2750   43.3820 H   0  0  0  0  0  0  0  0  0  0  0  0
   56.7710   33.4530   45.8560 C   0  0  0  0  0  0  0  0  0  0  0  0
   55.9642   32.7692   46.1585 H   0  0  0  0  0  0  0  0  0  0  0  0
   56.4096   34.4814   45.7086 H   0  0  0  0  0  0  0  0  0  0  0  0
   57.8200   33.4960   46.9780 C   0  0  0  0  0  0  0  0  0  0  0  0
   58.0949   32.4664   47.2506 H   0  0  0  0  0  0  0  0  0  0  0  0
   57.3847   34.0247   47.8388 H   0  0  0  0  0  0  0  0  0  0  0  0
   62.6060   33.8680   47.3120 C   0  0  0  0  0  0  0  0  0  0  0  0
   62.7885   34.9521   47.2739 H   0  0  0  0  0  0  0  0  0  0  0  0
   63.6740   32.9760   47.1630 C   0  0  0  0  0  0  0  0  0  0  0  0
   64.6917   33.3604   46.9999 H   0  0  0  0  0  0  0  0  0  0  0  0
  1  2  1  0
  2  3  2  0
  3  4  1  0
  3  5  1  0
  5  6  1  0
  5  7  2  0
  7  8  1  0
  8  9  1  0
  8 10  1  0
  8 11  1  0
 11 12  1  0
 11 13  1  0
 13 14  1  0
 13 15  1  0
 13 16  1  0
 16 17  1  0
 16 18  1  0
 16 19  1  0
 19 20  1  0
 20 21  1  0
 20 22  1  0
 20 23  1  0
 23 24  2  0
 24 25  1  0
 24 26  1  0
 26 27  2  0
 27 28  1  0
 28 29  2  0
 28 30  1  0
 30 31  2  0
 31 32  1  0
 31 33  1  0
 33 34  1  0
 33 35  2  0
 35 36  1  0
 35 37  1  0
 37 38  1  0
 37 39  2  0
 39 40  1  0
 40 41  1  0
 41 42  1  0
 41 43  1  0
 41 44  1  0
 26 45  1  0
 45 46  1  0
 45 47  2  0
 47 48  1  0
 47 49  1  0
 49 50  1  0
 19 51  1  0
 51 52  1  0
 51 53  1  0
 51 54  1  0
 54 55  1  0
 54 56  1  0
  7 57  1  0
 57 58  1  0
 57 59  2  0
 59 60  1  0
 59  2  1  0
 54 11  1  0
 49 23  1  0
 39 30  1  0
M  END
>  <UniqueID>  (84) 
79

>  <SMILES>  (84) 
COc1ccccc1C(=O)/N=c1/cc[nH]c(CN2CCC(Cc3ccccc3)CC2)c1

>  <Energy>  (84) 
85.67064176045399

>  <Genealogy>  (84) 
COc1ccccc1C(=O)/N=c1/cc[nH]c(CN2CCC(Cc3ccccc3)CC2)c1 (cis-trans isomerization)
COc1ccccc1C(=O)/N=c1/cc[nH]c(CN2CCC(Cc3ccccc3)CC2)c1 (3D coordinates assigned)
COc1ccccc1C(=O)/N=c1/cc[nH]c(CN2CCC(Cc3ccccc3)CC2)c1 (nonaromatic ring conformer: 85.67064176045399 kcal/mol)

>  <smiles>  (84) 
COc1ccccc1C(=O)N=c1cc[nH]c(CN2CCC(Cc3ccccc3)CC2)c1

>  <score_type>  (84) 
oracle

>  <origin>  (84) 
adg

>  <m_score__min__energy>  (84) 
-10.359999999999999

>  <m_primary>  (84) 
energy

$$$$
84:0
     RDKit          3D

 51 54  0  0  0  0  0  0  0  0999 V2000
   61.6020   27.2230   51.9510 C   0  0  0  0  0  0  0  0  0  0  0  0
   61.1490   27.7730   50.6300 C   0  0  0  0  0  0  0  0  0  0  0  0
   60.7840   26.9020   49.5950 C   0  0  0  0  0  0  0  0  0  0  0  0
   60.3930   27.4070   48.3510 C   0  0  0  0  0  0  0  0  0  0  0  0
   60.3680   28.7940   48.1190 C   0  0  0  0  0  0  0  0  0  0  0  0
   59.9560   29.3220   46.7960 C   0  0  0  0  0  0  0  0  0  0  0  0
   60.6400   30.2310   46.2510 O   0  0  0  0  0  0  0  0  0  0  0  0
   58.8190   28.7770   46.1070 N   0  0  0  0  0  0  0  0  0  0  0  0
   58.1160   29.4630   45.0560 C   0  0  0  0  0  0  0  0  0  0  0  0
   57.3820   28.7200   44.1190 C   0  0  0  0  0  0  0  0  0  0  0  0
   56.6730   29.3650   43.1040 C   0  0  0  0  0  0  0  0  0  0  0  0
   56.6870   30.7580   43.0150 C   0  0  0  0  0  0  0  0  0  0  0  0
   57.4190   31.5180   43.9430 C   0  0  0  0  0  0  0  0  0  0  0  0
   57.4340   32.9530   43.8960 N   0  0  0  0  0  0  0  0  0  0  0  0
   57.5640   33.8350   45.0190 C   0  0  0  0  0  0  0  0  0  0  0  0
   56.6420   34.6620   45.2460 O   0  0  0  0  0  0  0  0  0  0  0  0
   58.7190   33.7620   45.9460 C   0  0  0  0  0  0  0  0  0  0  0  0
   58.5470   33.3690   47.2840 C   0  0  0  0  0  0  0  0  0  0  0  0
   59.6420   33.3030   48.1510 C   0  0  0  0  0  0  0  0  0  0  0  0
   60.9320   33.6420   47.7030 C   0  0  0  0  0  0  0  0  0  0  0  0
   62.1030   33.5700   48.6110 C   0  0  0  0  0  0  0  0  0  0  0  0
   62.0960   34.0930   49.7900 N   0  0  0  0  0  0  0  0  0  0  0  0
   63.3800   33.8690   50.4440 C   0  0  0  0  0  0  0  0  0  0  0  0
   64.2110   33.0720   49.4280 C   0  0  0  0  0  0  0  0  0  0  0  0
   63.3270   32.9340   48.2870 N   0  0  0  0  0  0  0  0  0  0  0  0
   61.0970   34.0470   46.3660 C   0  0  0  0  0  0  0  0  0  0  0  0
   60.0020   34.1120   45.5000 C   0  0  0  0  0  0  0  0  0  0  0  0
   58.1060   30.8680   44.9750 C   0  0  0  0  0  0  0  0  0  0  0  0
   60.7610   29.6630   49.1530 C   0  0  0  0  0  0  0  0  0  0  0  0
   61.1520   29.1560   50.3960 C   0  0  0  0  0  0  0  0  0  0  0  0
   61.1324   27.7932   52.7661 H   0  0  0  0  0  0  0  0  0  0  0  0
   61.3096   26.1654   52.0275 H   0  0  0  0  0  0  0  0  0  0  0  0
   62.6961   27.3074   52.0275 H   0  0  0  0  0  0  0  0  0  0  0  0
   60.8051   25.8149   49.7619 H   0  0  0  0  0  0  0  0  0  0  0  0
   60.1027   26.7140   47.5476 H   0  0  0  0  0  0  0  0  0  0  0  0
   58.5620   27.7820   46.2980 H   0  0  0  0  0  0  0  0  0  0  0  0
   57.3651   27.6221   44.1846 H   0  0  0  0  0  0  0  0  0  0  0  0
   56.1020   28.7741   42.3727 H   0  0  0  0  0  0  0  0  0  0  0  0
   56.1234   31.2622   42.2162 H   0  0  0  0  0  0  0  0  0  0  0  0
   57.5430   33.1112   47.6523 H   0  0  0  0  0  0  0  0  0  0  0  0
   59.4936   32.9831   49.1929 H   0  0  0  0  0  0  0  0  0  0  0  0
   63.8681   34.8272   50.6756 H   0  0  0  0  0  0  0  0  0  0  0  0
   63.2693   33.3327   51.3980 H   0  0  0  0  0  0  0  0  0  0  0  0
   65.1235   33.6209   49.1521 H   0  0  0  0  0  0  0  0  0  0  0  0
   64.5486   32.1025   49.8231 H   0  0  0  0  0  0  0  0  0  0  0  0
   63.5510   32.3930   47.4240 H   0  0  0  0  0  0  0  0  0  0  0  0
   62.0984   34.3154   45.9983 H   0  0  0  0  0  0  0  0  0  0  0  0
   60.1475   34.4403   44.4603 H   0  0  0  0  0  0  0  0  0  0  0  0
   58.6432   31.4610   45.7298 H   0  0  0  0  0  0  0  0  0  0  0  0
   60.7607   30.7497   48.9824 H   0  0  0  0  0  0  0  0  0  0  0  0
   61.4636   29.8453   51.1946 H   0  0  0  0  0  0  0  0  0  0  0  0
  1  2  1  0
  2  3  2  0
  3  4  1  0
  4  5  2  0
  5  6  1  0
  6  7  2  0
  6  8  1  0
  8  9  1  0
  9 10  2  0
 10 11  1  0
 11 12  2  0
 12 13  1  0
 13 14  1  0
 14 15  1  0
 15 16  2  0
 15 17  1  0
 17 18  2  0
 18 19  1  0
 19 20  2  0
 20 21  1  0
 21 22  2  0
 22 23  1  0
 23 24  1  0
 24 25  1  0
 20 26  1  0
 26 27  2  0
 13 28  2  0
  5 29  1  0
 29 30  2  0
 30  2  1  0
 28  9  1  0
 27 17  1  0
 25 21  1  0
  1 31  1  0
  1 32  1  0
  1 33  1  0
  3 34  1  0
  4 35  1  0
  8 36  1  0
 10 37  1  0
 11 38  1  0
 12 39  1  0
 18 40  1  0
 19 41  1  0
 23 42  1  0
 23 43  1  0
 24 44  1  0
 24 45  1  0
 25 46  1  0
 26 47  1  0
 27 48  1  0
 28 49  1  0
 29 50  1  0
 30 51  1  0
M  CHG  1  14  -1
M  END
>  <UniqueID>  (85) 
80

>  <SMILES>  (85) 
Cc1ccc(C(=O)Nc2cccc([N-]C(=O)c3ccc(C4=NCCN4)cc3)c2)cc1

>  <Energy>  (85) 
79.78941378165483

>  <Genealogy>  (85) 
Cc1ccc(C(=O)Nc2cccc([N-]C(=O)c3ccc(C4=NCCN4)cc3)c2)cc1 (protonated)
Cc1ccc(C(=O)Nc2cccc([N-]C(=O)c3ccc(C4=NCCN4)cc3)c2)cc1 (3D coordinates assigned)
Cc1ccc(C(=O)Nc2cccc([N-]C(=O)c3ccc(C4=NCCN4)cc3)c2)cc1 (nonaromatic ring conformer: 79.78941378165483 kcal/mol)

>  <smiles>  (85) 
Cc1ccc(C(=O)Nc2cccc(NC(=O)c3ccc(C4=NCCN4)cc3)c2)cc1

>  <score_type>  (85) 
oracle

>  <origin>  (85) 
adg

>  <m_score__min__energy>  (85) 
-10.23

>  <m_primary>  (85) 
energy

$$$$
85:0
     RDKit          3D

 63 66  0  0  0  0  0  0  0  0999 V2000
   55.2838   28.1005   54.5419 H   0  0  0  0  0  0  0  0  0  0  0  0
   54.5720   28.8230   54.1160 C   0  0  0  0  0  0  0  0  0  0  0  0
   53.5169   28.8040   54.4266 H   0  0  0  0  0  0  0  0  0  0  0  0
   54.9910   29.7280   53.2170 C   0  0  0  0  0  0  0  0  0  0  0  0
   54.1830   30.6980   52.6040 C   0  0  0  0  0  0  0  0  0  0  0  0
   52.8430   30.8040   52.5190 C   0  0  0  0  0  0  0  0  0  0  0  0
   52.2768   30.8250   53.4619 H   0  0  0  0  0  0  0  0  0  0  0  0
   52.0750   30.8940   51.2670 C   0  0  0  0  0  0  0  0  0  0  0  0
   52.1640   30.0170   50.2510 N   0  0  0  0  0  0  0  0  0  0  0  0
   51.4090   30.5820   49.2840 C   0  0  0  0  0  0  0  0  0  0  0  0
   51.2360   30.0440   48.1600 O   0  0  0  0  0  0  0  0  0  0  0  0
   50.8670   31.7750   49.6120 N   0  0  0  0  0  0  0  0  0  0  0  0
   51.3110   31.9630   50.8650 C   0  0  0  0  0  0  0  0  0  0  0  0
   51.0290   33.0920   51.6240 O   0  0  0  0  0  0  0  0  0  0  0  0
   55.0390   31.5900   51.9950 C   0  0  0  0  0  0  0  0  0  0  0  0
   54.7603   32.5235   51.4842 H   0  0  0  0  0  0  0  0  0  0  0  0
   56.3100   31.0860   52.1500 C   0  0  0  0  0  0  0  0  0  0  0  0
   57.4970   31.6950   51.5230 C   0  0  0  0  0  0  0  0  0  0  0  0
   57.7990   32.8800   51.8240 O   0  0  0  0  0  0  0  0  0  0  0  0
   58.2890   30.9800   50.5550 N   0  0  0  0  0  0  0  0  0  0  0  0
   58.8070   29.6490   50.8180 C   0  0  0  0  0  0  0  0  0  0  0  0
   59.6690   29.7003   51.4994 H   0  0  0  0  0  0  0  0  0  0  0  0
   58.0541   29.0073   51.2990 H   0  0  0  0  0  0  0  0  0  0  0  0
   59.2320   29.1000   49.4650 C   0  0  0  0  0  0  0  0  0  0  0  0
   60.1844   28.5569   49.5541 H   0  0  0  0  0  0  0  0  0  0  0  0
   58.4912   28.3921   49.0648 H   0  0  0  0  0  0  0  0  0  0  0  0
   59.3960   30.3140   48.5560 C   0  0  0  0  0  0  0  0  0  0  0  0
   60.4532   30.6135   48.5043 H   0  0  0  0  0  0  0  0  0  0  0  0
   59.0696   30.0966   47.5283 H   0  0  0  0  0  0  0  0  0  0  0  0
   58.5560   31.4290   49.1900 C   0  0  2  0  0  0  0  0  0  0  0  0
   57.6273   31.6031   48.6269 H   0  0  0  0  0  0  0  0  0  0  0  0
   59.3040   32.7830   49.1810 C   0  0  0  0  0  0  0  0  0  0  0  0
   59.2663   33.2142   50.1923 H   0  0  0  0  0  0  0  0  0  0  0  0
   60.3395   32.5921   48.8627 H   0  0  0  0  0  0  0  0  0  0  0  0
   58.7090   33.7510   48.2280 N   0  0  0  0  0  0  0  0  0  0  0  0
   57.5640   33.1630   47.4810 C   0  0  0  0  0  0  0  0  0  0  0  0
   57.4470   32.1156   47.7961 H   0  0  0  0  0  0  0  0  0  0  0  0
   56.6824   33.7777   47.7156 H   0  0  0  0  0  0  0  0  0  0  0  0
   57.7320   33.1920   45.9480 C   0  0  0  0  0  0  0  0  0  0  0  0
   56.9778   32.5310   45.4961 H   0  0  0  0  0  0  0  0  0  0  0  0
   57.6038   34.2319   45.6130 H   0  0  0  0  0  0  0  0  0  0  0  0
   59.0740   32.7410   45.5270 N   0  0  0  0  0  0  0  0  0  0  0  0
   59.2100   31.2770   45.6030 C   0  0  0  0  0  0  0  0  0  0  0  0
   59.2389   30.9657   46.6576 H   0  0  0  0  0  0  0  0  0  0  0  0
   58.3521   30.8027   45.1041 H   0  0  0  0  0  0  0  0  0  0  0  0
   60.1406   30.9688   45.1041 H   0  0  0  0  0  0  0  0  0  0  0  0
   60.1830   33.4410   46.2210 C   0  0  0  0  0  0  0  0  0  0  0  0
   60.8492   32.6852   46.6626 H   0  0  0  0  0  0  0  0  0  0  0  0
   60.6942   34.0607   45.4696 H   0  0  0  0  0  0  0  0  0  0  0  0
   59.7090   34.3870   47.3410 C   0  0  0  0  0  0  0  0  0  0  0  0
   60.5791   34.6842   47.9448 H   0  0  0  0  0  0  0  0  0  0  0  0
   59.2326   35.2578   46.8668 H   0  0  0  0  0  0  0  0  0  0  0  0
   56.3010   29.9500   52.8940 N   0  0  0  0  0  0  0  0  0  0  0  0
   57.5190   29.2610   53.3850 C   0  0  0  0  0  0  0  0  0  0  0  0
   58.2943   29.3833   52.6143 H   0  0  0  0  0  0  0  0  0  0  0  0
   57.3220   27.7420   53.5340 C   0  0  0  0  0  0  0  0  0  0  0  0
   57.2880   27.4797   54.6017 H   0  0  0  0  0  0  0  0  0  0  0  0
   56.3779   27.4458   53.0534 H   0  0  0  0  0  0  0  0  0  0  0  0
   58.1593   27.2148   53.0534 H   0  0  0  0  0  0  0  0  0  0  0  0
   58.0450   29.9150   54.6670 C   0  0  0  0  0  0  0  0  0  0  0  0
   57.6271   29.3954   55.5418 H   0  0  0  0  0  0  0  0  0  0  0  0
   59.1426   29.8467   54.6898 H   0  0  0  0  0  0  0  0  0  0  0  0
   57.7429   30.9725   54.6898 H   0  0  0  0  0  0  0  0  0  0  0  0
  1  2  1  0
  2  3  1  0
  2  4  2  0
  4  5  1  0
  5  6  2  0
  6  7  1  0
  6  8  1  0
  8  9  1  0
  9 10  1  0
 10 11  2  0
 10 12  1  0
 12 13  1  0
 13 14  1  0
  5 15  1  0
 15 16  1  0
 15 17  2  0
 17 18  1  0
 18 19  2  0
 18 20  1  0
 20 21  1  0
 21 22  1  0
 21 23  1  0
 21 24  1  0
 24 25  1  0
 24 26  1  0
 24 27  1  0
 27 28  1  0
 27 29  1  0
 27 30  1  0
 30 31  1  6
 30 32  1  0
 32 33  1  0
 32 34  1  0
 32 35  1  0
 35 36  1  0
 36 37  1  0
 36 38  1  0
 36 39  1  0
 39 40  1  0
 39 41  1  0
 39 42  1  0
 42 43  1  0
 43 44  1  0
 43 45  1  0
 43 46  1  0
 42 47  1  0
 47 48  1  0
 47 49  1  0
 47 50  1  0
 50 51  1  0
 50 52  1  0
 17 53  1  0
 53 54  1  0
 54 55  1  0
 54 56  1  0
 56 57  1  0
 56 58  1  0
 56 59  1  0
 54 60  1  0
 60 61  1  0
 60 62  1  0
 60 63  1  0
 53  4  1  0
 13  8  2  0
 30 20  1  0
 50 35  1  0
M  CHG  3   9  -1  12  -1  14  -1
M  END
>  <UniqueID>  (86) 
81

>  <SMILES>  (86) 
C=c1/c(=C\c2[n-]c(=O)[n-]c2[O-])cc(C(=O)N2CCC[C@@H]2CN2CCN(C)CC2)n1C(C)C

>  <Energy>  (86) 
150.5559374714071

>  <Genealogy>  (86) 
C=c1c(=Cc2[n-]c(=O)[n-]c2[O-])cc(C(=O)N2CCCC2CN2CCN(C)CC2)n1C(C)C (protonated)
C=c1c(=Cc2[n-]c(=O)[n-]c2[O-])cc(C(=O)N2CCC[C@@H]2CN2CCN(C)CC2)n1C(C)C (chirality)
C=c1/c(=C\c2[n-]c(=O)[n-]c2[O-])cc(C(=O)N2CCC[C@@H]2CN2CCN(C)CC2)n1C(C)C (cis-trans isomerization)
C=c1/c(=C\c2[n-]c(=O)[n-]c2[O-])cc(C(=O)N2CCC[C@@H]2CN2CCN(C)CC2)n1C(C)C (3D coordinates assigned)
C=c1/c(=C\c2[n-]c(=O)[n-]c2[O-])cc(C(=O)N2CCC[C@@H]2CN2CCN(C)CC2)n1C(C)C (nonaromatic ring conformer: 150.5559374714071 kcal/mol)

>  <smiles>  (86) 
C=c1c(=Cc2[nH]c(=O)[nH]c2O)cc(C(=O)N2CCCC2CN2CCN(C)CC2)n1C(C)C

>  <score_type>  (86) 
oracle

>  <origin>  (86) 
adg

>  <m_score__min__energy>  (86) 
-17.93

>  <m_primary>  (86) 
energy

$$$$
86:0
     RDKit          3D

 59 63  0  0  0  0  0  0  0  0999 V2000
   58.7395   32.7837   48.2891 H   0  0  0  0  0  0  0  0  0  0  0  0
   58.6260   32.8320   47.1960 C   0  0  0  0  0  0  0  0  0  0  0  0
   57.7440   32.0120   46.5720 N   0  0  0  0  0  0  0  0  0  0  0  0
   57.5740   32.0170   45.2210 C   0  0  0  0  0  0  0  0  0  0  0  0
   56.6860   31.2180   44.7020 N   0  0  0  0  0  0  0  0  0  0  0  0
   56.6350   29.7940   44.8570 C   0  0  0  0  0  0  0  0  0  0  0  0
   55.5270   29.1920   44.8640 O   0  0  0  0  0  0  0  0  0  0  0  0
   57.8990   29.0340   45.0880 C   0  0  0  0  0  0  0  0  0  0  0  0
   57.6829   27.9557   45.1094 H   0  0  0  0  0  0  0  0  0  0  0  0
   58.6125   29.2419   44.2770 H   0  0  0  0  0  0  0  0  0  0  0  0
   58.4710   29.4450   46.3680 N   0  0  0  0  0  0  0  0  0  0  0  0
   58.5190   30.4690   46.5750 H   0  0  0  0  0  0  0  0  0  0  0  0
   58.9550   28.5130   47.3440 C   0  0  0  0  0  0  0  0  0  0  0  0
   58.5250   27.3260   47.3440 O   0  0  0  0  0  0  0  0  0  0  0  0
   59.9240   28.9450   48.3770 C   0  0  0  0  0  0  0  0  0  0  0  0
   60.5080   30.2240   48.3250 C   0  0  0  0  0  0  0  0  0  0  0  0
   60.2536   30.9070   47.5011 H   0  0  0  0  0  0  0  0  0  0  0  0
   61.4080   30.6330   49.3110 C   0  0  0  0  0  0  0  0  0  0  0  0
   61.8664   31.6313   49.2543 H   0  0  0  0  0  0  0  0  0  0  0  0
   61.7310   29.7730   50.3770 C   0  0  0  0  0  0  0  0  0  0  0  0
   62.6210   30.1550   51.3920 O   0  0  0  0  0  0  0  0  0  0  0  0
   63.8520   29.5390   51.6670 C   0  0  0  0  0  0  0  0  0  0  0  0
   63.9400   28.2100   52.1240 C   0  0  0  0  0  0  0  0  0  0  0  0
   63.0231   27.6250   52.2886 H   0  0  0  0  0  0  0  0  0  0  0  0
   65.1880   27.6320   52.3690 C   0  0  0  0  0  0  0  0  0  0  0  0
   65.2515   26.5985   52.7403 H   0  0  0  0  0  0  0  0  0  0  0  0
   66.3550   28.3650   52.1430 C   0  0  0  0  0  0  0  0  0  0  0  0
   67.3369   27.9089   52.3373 H   0  0  0  0  0  0  0  0  0  0  0  0
   66.2760   29.6780   51.6700 C   0  0  0  0  0  0  0  0  0  0  0  0
   67.1959   30.2526   51.4866 H   0  0  0  0  0  0  0  0  0  0  0  0
   65.0290   30.2610   51.4300 C   0  0  0  0  0  0  0  0  0  0  0  0
   64.9711   31.2927   51.0528 H   0  0  0  0  0  0  0  0  0  0  0  0
   61.1830   28.4860   50.4110 C   0  0  0  0  0  0  0  0  0  0  0  0
   61.4599   27.7943   51.2203 H   0  0  0  0  0  0  0  0  0  0  0  0
   60.2850   28.0750   49.4210 C   0  0  0  0  0  0  0  0  0  0  0  0
   59.8573   27.0623   49.4593 H   0  0  0  0  0  0  0  0  0  0  0  0
   58.3270   32.9180   44.4400 C   0  0  0  0  0  0  0  0  0  0  0  0
   58.2013   32.9436   43.3475 H   0  0  0  0  0  0  0  0  0  0  0  0
   59.2330   33.7770   45.0640 C   0  0  0  0  0  0  0  0  0  0  0  0
   59.8225   34.4844   44.4622 H   0  0  0  0  0  0  0  0  0  0  0  0
   59.3930   33.7400   46.4550 C   0  0  0  0  0  0  0  0  0  0  0  0
   60.3570   34.6710   47.1410 C   0  0  0  0  0  0  0  0  0  0  0  0
   60.5199   35.5550   46.5069 H   0  0  0  0  0  0  0  0  0  0  0  0
   59.9321   34.9725   48.1098 H   0  0  0  0  0  0  0  0  0  0  0  0
   61.6690   33.9860   47.3790 C   0  0  0  0  0  0  0  0  0  0  0  0
   62.5320   33.4940   46.4000 C   0  0  0  0  0  0  0  0  0  0  0  0
   62.3242   33.4984   45.3198 H   0  0  0  0  0  0  0  0  0  0  0  0
   63.6600   33.0110   46.9670 N   0  0  0  0  0  0  0  0  0  0  0  0
   64.4820   32.5970   46.4720 H   0  0  0  0  0  0  0  0  0  0  0  0
   63.5200   33.1960   48.2920 C   0  0  0  0  0  0  0  0  0  0  0  0
   64.4400   32.8750   49.2900 C   0  0  0  0  0  0  0  0  0  0  0  0
   65.4020   32.4008   49.0455 H   0  0  0  0  0  0  0  0  0  0  0  0
   64.0950   33.1790   50.6230 C   0  0  0  0  0  0  0  0  0  0  0  0
   64.7943   32.9359   51.4365 H   0  0  0  0  0  0  0  0  0  0  0  0
   62.8590   33.7930   50.9220 C   0  0  0  0  0  0  0  0  0  0  0  0
   62.6025   34.0243   51.9664 H   0  0  0  0  0  0  0  0  0  0  0  0
   61.9530   34.1110   49.8930 C   0  0  0  0  0  0  0  0  0  0  0  0
   60.9898   34.5945   50.1130 H   0  0  0  0  0  0  0  0  0  0  0  0
   62.3180   33.7920   48.5830 C   0  0  0  0  0  0  0  0  0  0  0  0
  1  2  1  0
  2  3  1  0
  3  4  1  0
  4  5  2  0
  5  6  1  0
  6  7  2  0
  6  8  1  0
  8  9  1  0
  8 10  1  0
  8 11  1  0
 11 12  1  0
 11 13  1  0
 13 14  2  0
 13 15  1  0
 15 16  2  0
 16 17  1  0
 16 18  1  0
 18 19  1  0
 18 20  2  0
 20 21  1  0
 21 22  1  0
 22 23  2  0
 23 24  1  0
 23 25  1  0
 25 26  1  0
 25 27  2  0
 27 28  1  0
 27 29  1  0
 29 30  1  0
 29 31  2  0
 31 32  1  0
 20 33  1  0
 33 34  1  0
 33 35  2  0
 35 36  1  0
  4 37  1  0
 37 38  1  0
 37 39  2  0
 39 40  1  0
 39 41  1  0
 41 42  1  0
 42 43  1  0
 42 44  1  0
 42 45  1  0
 45 46  2  0
 46 47  1  0
 46 48  1  0
 48 49  1  0
 48 50  1  0
 50 51  2  0
 51 52  1  0
 51 53  1  0
 53 54  1  0
 53 55  2  0
 55 56  1  0
 55 57  1  0
 57 58  1  0
 57 59  2  0
 41  2  2  0
 59 45  1  0
 35 15  1  0
 59 50  1  0
 31 22  1  0
M  CHG  1   3  -1
M  END
>  <UniqueID>  (87) 
82

>  <SMILES>  (87) 
O=C(CNC(=O)c1ccc(Oc2ccccc2)cc1)/N=c1\ccc(Cc2c[nH]c3ccccc23)c[n-]1

>  <Energy>  (87) 
113.02410858133298

>  <Genealogy>  (87) 
O=C(CNC(=O)c1ccc(Oc2ccccc2)cc1)N=c1ccc(Cc2c[nH]c3ccccc23)c[n-]1 (protonated)
O=C(CNC(=O)c1ccc(Oc2ccccc2)cc1)/N=c1\ccc(Cc2c[nH]c3ccccc23)c[n-]1 (cis-trans isomerization)
O=C(CNC(=O)c1ccc(Oc2ccccc2)cc1)/N=c1\ccc(Cc2c[nH]c3ccccc23)c[n-]1 (3D coordinates assigned)
O=C(CNC(=O)c1ccc(Oc2ccccc2)cc1)/N=c1\ccc(Cc2c[nH]c3ccccc23)c[n-]1 (optimized conformer: 113.02410858133298 kcal/mol)

>  <smiles>  (87) 
O=C(CNC(=O)c1ccc(Oc2ccccc2)cc1)N=c1ccc(Cc2c[nH]c3ccccc23)c[nH]1

>  <score_type>  (87) 
oracle

>  <origin>  (87) 
adg

>  <m_score__min__energy>  (87) 
-10.9

>  <m_primary>  (87) 
energy

$$$$
87:0
     RDKit          3D

 73 77  0  0  0  0  0  0  0  0999 V2000
   60.5770   26.4920   47.3030 O   0  0  0  0  0  0  0  0  0  0  0  0
   59.6960   27.0670   46.6060 C   0  0  0  0  0  0  0  0  0  0  0  0
   59.0980   26.3160   45.4810 C   0  0  0  0  0  0  0  0  0  0  0  0
   57.8200   25.8840   45.4160 C   0  0  0  0  0  0  0  0  0  0  0  0
   56.7120   26.7820   45.8400 C   0  0  0  0  0  0  0  0  0  0  0  0
   55.5430   26.3220   45.9270 O   0  0  0  0  0  0  0  0  0  0  0  0
   56.9700   28.1770   46.0790 N   0  0  0  0  0  0  0  0  0  0  0  0
   57.0570   29.2430   45.1170 C   0  0  0  0  0  0  0  0  0  0  0  0
   56.6550   28.9840   43.7990 C   0  0  0  0  0  0  0  0  0  0  0  0
   56.6970   29.9900   42.8350 C   0  0  0  0  0  0  0  0  0  0  0  0
   57.1330   31.2710   43.1780 C   0  0  0  0  0  0  0  0  0  0  0  0
   57.5570   31.5460   44.4850 C   0  0  0  0  0  0  0  0  0  0  0  0
   58.0460   33.1850   44.9390 S   0  0  0  0  0  0  0  0  0  0  0  0
   58.8490   33.7840   43.8160 O   0  0  0  0  0  0  0  0  0  0  0  0
   56.8120   34.0230   45.1310 O   0  0  0  0  0  0  0  0  0  0  0  0
   58.9620   33.2180   46.4340 N   0  0  0  0  0  0  0  0  0  0  0  0
   58.1380   32.7680   47.5710 C   0  0  0  0  0  0  0  0  0  0  0  0
   58.8960   32.9550   48.9020 C   0  0  0  0  0  0  0  0  0  0  0  0
   60.2430   33.3310   48.6780 O   0  0  0  0  0  0  0  0  0  0  0  0
   60.2820   34.5860   48.0200 C   0  0  0  0  0  0  0  0  0  0  0  0
   59.5090   34.5610   46.6840 C   0  0  0  0  0  0  0  0  0  0  0  0
   57.5450   30.5200   45.4450 C   0  0  0  0  0  0  0  0  0  0  0  0
   57.4710   24.5650   44.8400 C   0  0  0  0  0  0  0  0  0  0  0  0
   56.6600   24.4820   43.6930 C   0  0  0  0  0  0  0  0  0  0  0  0
   56.3660   23.2340   43.1350 C   0  0  0  0  0  0  0  0  0  0  0  0
   56.8780   22.0660   43.7130 C   0  0  0  0  0  0  0  0  0  0  0  0
   57.6930   22.1470   44.8460 C   0  0  0  0  0  0  0  0  0  0  0  0
   57.9730   23.3890   45.4190 C   0  0  0  0  0  0  0  0  0  0  0  0
   59.3750   28.4440   46.8570 N   0  0  0  0  0  0  0  0  0  0  0  0
   59.6900   29.1050   48.0910 C   0  0  0  0  0  0  0  0  0  0  0  0
   58.8850   28.9410   49.2330 C   0  0  0  0  0  0  0  0  0  0  0  0
   59.2590   29.5230   50.4480 C   0  0  0  0  0  0  0  0  0  0  0  0
   60.4430   30.2590   50.5350 C   0  0  0  0  0  0  0  0  0  0  0  0
   61.2490   30.4520   49.4040 C   0  0  0  0  0  0  0  0  0  0  0  0
   62.5200   31.2150   49.5120 C   0  0  0  0  0  0  0  0  0  0  0  0
   63.3360   30.9490   50.4450 O   0  0  0  0  0  0  0  0  0  0  0  0
   62.8550   32.2410   48.5670 N   0  0  0  0  0  0  0  0  0  0  0  0
   62.8470   32.0480   47.1270 C   0  0  0  0  0  0  0  0  0  0  0  0
   63.1420   33.4190   46.5330 C   0  0  0  0  0  0  0  0  0  0  0  0
   63.7860   34.2300   47.6590 C   0  0  0  0  0  0  0  0  0  0  0  0
   63.4240   33.5160   48.9590 C   0  0  0  0  0  0  0  0  0  0  0  0
   60.8340   29.9080   48.1710 C   0  0  0  0  0  0  0  0  0  0  0  0
   59.7497   26.0900   44.6241 H   0  0  0  0  0  0  0  0  0  0  0  0
   56.3036   27.9787   43.5234 H   0  0  0  0  0  0  0  0  0  0  0  0
   56.3860   29.7741   41.8022 H   0  0  0  0  0  0  0  0  0  0  0  0
   57.1438   32.0675   42.4194 H   0  0  0  0  0  0  0  0  0  0  0  0
   57.2090   33.3564   47.5988 H   0  0  0  0  0  0  0  0  0  0  0  0
   57.9096   31.6998   47.4412 H   0  0  0  0  0  0  0  0  0  0  0  0
   58.3981   33.7394   49.4909 H   0  0  0  0  0  0  0  0  0  0  0  0
   58.8880   31.9978   49.4439 H   0  0  0  0  0  0  0  0  0  0  0  0
   59.8326   35.3456   48.6765 H   0  0  0  0  0  0  0  0  0  0  0  0
   61.3336   34.8228   47.8005 H   0  0  0  0  0  0  0  0  0  0  0  0
   58.6832   35.2863   46.7292 H   0  0  0  0  0  0  0  0  0  0  0  0
   60.1979   34.8238   45.8677 H   0  0  0  0  0  0  0  0  0  0  0  0
   57.9200   30.7173   46.4601 H   0  0  0  0  0  0  0  0  0  0  0  0
   56.2577   25.3980   43.2358 H   0  0  0  0  0  0  0  0  0  0  0  0
   55.7306   23.1697   42.2394 H   0  0  0  0  0  0  0  0  0  0  0  0
   56.6391   21.0853   43.2759 H   0  0  0  0  0  0  0  0  0  0  0  0
   58.1141   21.2312   45.2865 H   0  0  0  0  0  0  0  0  0  0  0  0
   58.5897   23.4462   46.3281 H   0  0  0  0  0  0  0  0  0  0  0  0
   59.0150   29.0270   46.0620 H   0  0  0  0  0  0  0  0  0  0  0  0
   57.9577   28.3526   49.1698 H   0  0  0  0  0  0  0  0  0  0  0  0
   58.6207   29.4013   51.3356 H   0  0  0  0  0  0  0  0  0  0  0  0
   60.7460   30.6913   51.5000 H   0  0  0  0  0  0  0  0  0  0  0  0
   63.6221   31.3257   46.8313 H   0  0  0  0  0  0  0  0  0  0  0  0
   61.8854   31.6476   46.7735 H   0  0  0  0  0  0  0  0  0  0  0  0
   63.8337   33.3275   45.6826 H   0  0  0  0  0  0  0  0  0  0  0  0
   62.2286   33.9026   46.1564 H   0  0  0  0  0  0  0  0  0  0  0  0
   64.8782   34.2592   47.5314 H   0  0  0  0  0  0  0  0  0  0  0  0
   63.4275   35.2699   47.6596 H   0  0  0  0  0  0  0  0  0  0  0  0
   64.3230   33.3610   49.5736 H   0  0  0  0  0  0  0  0  0  0  0  0
   62.7168   34.1060   49.5605 H   0  0  0  0  0  0  0  0  0  0  0  0
   61.4160   30.1170   47.2613 H   0  0  0  0  0  0  0  0  0  0  0  0
  1  2  2  0
  2  3  1  0
  3  4  2  3
  4  5  1  0
  5  6  2  0
  5  7  1  0
  7  8  1  0
  8  9  2  0
  9 10  1  0
 10 11  2  0
 11 12  1  0
 12 13  1  0
 13 14  2  0
 13 15  2  0
 13 16  1  0
 16 17  1  0
 17 18  1  0
 18 19  1  0
 19 20  1  0
 20 21  1  0
 12 22  2  0
  4 23  1  0
 23 24  2  0
 24 25  1  0
 25 26  2  0
 26 27  1  0
 27 28  2  0
  2 29  1  0
 29 30  1  0
 30 31  2  0
 31 32  1  0
 32 33  2  0
 33 34  1  0
 34 35  1  0
 35 36  2  0
 35 37  1  0
 37 38  1  0
 38 39  1  0
 39 40  1  0
 40 41  1  0
 34 42  2  0
 22  8  1  0
 28 23  1  0
 42 30  1  0
 21 16  1  0
 41 37  1  0
  3 43  1  0
  9 44  1  0
 10 45  1  0
 11 46  1  0
 17 47  1  0
 17 48  1  0
 18 49  1  0
 18 50  1  0
 20 51  1  0
 20 52  1  0
 21 53  1  0
 21 54  1  0
 22 55  1  0
 24 56  1  0
 25 57  1  0
 26 58  1  0
 27 59  1  0
 28 60  1  0
 29 61  1  0
 31 62  1  0
 32 63  1  0
 33 64  1  0
 38 65  1  0
 38 66  1  0
 39 67  1  0
 39 68  1  0
 40 69  1  0
 40 70  1  0
 41 71  1  0
 41 72  1  0
 42 73  1  0
M  CHG  1   7  -1
M  END
>  <UniqueID>  (88) 
83

>  <SMILES>  (88) 
O=C(C=C(C(=O)[N-]c1cccc(S(=O)(=O)N2CCOCC2)c1)c1ccccc1)Nc1cccc(C(=O)N2CCCC2)c1

>  <Energy>  (88) 
108.63110183134562

>  <Genealogy>  (88) 
O=C(C=C(C(=O)[N-]c1cccc(S(=O)(=O)N2CCOCC2)c1)c1ccccc1)Nc1cccc(C(=O)N2CCCC2)c1 (protonated)
O=C(C=C(C(=O)[N-]c1cccc(S(=O)(=O)N2CCOCC2)c1)c1ccccc1)Nc1cccc(C(=O)N2CCCC2)c1 (3D coordinates assigned)
O=C(C=C(C(=O)[N-]c1cccc(S(=O)(=O)N2CCOCC2)c1)c1ccccc1)Nc1cccc(C(=O)N2CCCC2)c1 (nonaromatic ring conformer: 108.63110183134562 kcal/mol)

>  <smiles>  (88) 
O=C(C=C(C(=O)Nc1cccc(S(=O)(=O)N2CCOCC2)c1)c1ccccc1)Nc1cccc(C(=O)N2CCCC2)c1

>  <score_type>  (88) 
oracle

>  <origin>  (88) 
adg

>  <m_score__min__energy>  (88) 
-12.869999999999999

>  <m_primary>  (88) 
energy

$$$$
88:0
     RDKit          3D

 50 53  0  0  0  0  0  0  0  0999 V2000
   62.4010   32.1540   49.3270 C   0  0  0  0  0  0  0  0  0  0  0  0
   61.7250   30.8060   49.3350 C   0  0  0  0  0  0  0  0  0  0  0  0
   61.7230   30.0560   50.5220 C   0  0  0  0  0  0  0  0  0  0  0  0
   61.1060   28.8070   50.5720 C   0  0  0  0  0  0  0  0  0  0  0  0
   60.4770   28.2930   49.4420 C   0  0  0  0  0  0  0  0  0  0  0  0
   60.4670   29.0170   48.2430 C   0  0  0  0  0  0  0  0  0  0  0  0
   59.7730   28.4710   47.1120 N   0  0  0  0  0  0  0  0  0  0  0  0
   58.3150   28.3410   47.1530 C   0  0  0  0  0  0  0  0  0  0  0  0
   57.8100   27.3850   46.0600 C   0  0  0  0  0  0  0  0  0  0  0  0
   58.3840   27.6730   44.7220 N   0  0  0  0  0  0  0  0  0  0  0  0
   57.4840   28.4360   43.8290 C   0  0  0  0  0  0  0  0  0  0  0  0
   57.2640   29.8470   44.2960 C   0  0  0  0  0  0  0  0  0  0  0  0
   56.0580   30.4390   44.3700 N   0  0  0  0  0  0  0  0  0  0  0  0
   56.2710   31.6510   44.8600 N   0  0  0  0  0  0  0  0  0  0  0  0
   57.5990   31.7520   45.0660 C   0  0  0  0  0  0  0  0  0  0  0  0
   58.2800   32.9350   45.6340 C   0  0  0  0  0  0  0  0  0  0  0  0
   58.6840   33.9770   44.7790 C   0  0  0  0  0  0  0  0  0  0  0  0
   59.3520   35.0930   45.2880 C   0  0  0  0  0  0  0  0  0  0  0  0
   59.6230   35.1840   46.6540 C   0  0  0  0  0  0  0  0  0  0  0  0
   59.2250   34.1590   47.5140 C   0  0  0  0  0  0  0  0  0  0  0  0
   58.5570   33.0370   47.0130 C   0  0  0  0  0  0  0  0  0  0  0  0
   58.1920   32.0540   47.8750 F   0  0  0  0  0  0  0  0  0  0  0  0
   58.2140   30.6460   44.7160 O   0  0  0  0  0  0  0  0  0  0  0  0
   59.7860   28.1610   44.6960 C   0  0  0  0  0  0  0  0  0  0  0  0
   60.5300   27.8880   46.0040 C   0  0  0  0  0  0  0  0  0  0  0  0
   61.1260   30.2670   48.1660 C   0  0  0  0  0  0  0  0  0  0  0  0
   61.1540   31.0320   46.8640 C   0  0  0  0  0  0  0  0  0  0  0  0
   62.5678   32.4867   50.3621 H   0  0  0  0  0  0  0  0  0  0  0  0
   63.3670   32.0767   48.8065 H   0  0  0  0  0  0  0  0  0  0  0  0
   61.7613   32.8819   48.8065 H   0  0  0  0  0  0  0  0  0  0  0  0
   62.2130   30.4579   51.4211 H   0  0  0  0  0  0  0  0  0  0  0  0
   61.1163   28.2266   51.5064 H   0  0  0  0  0  0  0  0  0  0  0  0
   59.9840   27.3109   49.4908 H   0  0  0  0  0  0  0  0  0  0  0  0
   58.0174   27.9498   48.1371 H   0  0  0  0  0  0  0  0  0  0  0  0
   57.8723   29.3329   46.9793 H   0  0  0  0  0  0  0  0  0  0  0  0
   58.0800   26.3568   46.3425 H   0  0  0  0  0  0  0  0  0  0  0  0
   56.7209   27.5198   45.9849 H   0  0  0  0  0  0  0  0  0  0  0  0
   57.9271   28.4634   42.8226 H   0  0  0  0  0  0  0  0  0  0  0  0
   56.5075   27.9296   43.8297 H   0  0  0  0  0  0  0  0  0  0  0  0
   58.4721   33.9121   43.7016 H   0  0  0  0  0  0  0  0  0  0  0  0
   59.6650   35.9016   44.6111 H   0  0  0  0  0  0  0  0  0  0  0  0
   60.1501   36.0632   47.0529 H   0  0  0  0  0  0  0  0  0  0  0  0
   59.4377   34.2341   48.5906 H   0  0  0  0  0  0  0  0  0  0  0  0
   60.3189   27.6571   43.8762 H   0  0  0  0  0  0  0  0  0  0  0  0
   59.7559   29.2511   44.5520 H   0  0  0  0  0  0  0  0  0  0  0  0
   60.6266   26.8026   46.1539 H   0  0  0  0  0  0  0  0  0  0  0  0
   61.5334   28.3369   45.9620 H   0  0  0  0  0  0  0  0  0  0  0  0
   61.1935   32.1111   47.0736 H   0  0  0  0  0  0  0  0  0  0  0  0
   62.0420   30.7382   46.2851 H   0  0  0  0  0  0  0  0  0  0  0  0
   60.2469   30.8039   46.2851 H   0  0  0  0  0  0  0  0  0  0  0  0
  1  2  1  0
  2  3  2  0
  3  4  1  0
  4  5  2  0
  5  6  1  0
  6  7  1  0
  7  8  1  0
  8  9  1  0
  9 10  1  0
 10 11  1  0
 11 12  1  0
 12 13  2  0
 13 14  1  0
 14 15  2  0
 15 16  1  0
 16 17  2  0
 17 18  1  0
 18 19  2  0
 19 20  1  0
 20 21  2  0
 21 22  1  0
 15 23  1  0
 10 24  1  0
 24 25  1  0
  6 26  2  0
 26 27  1  0
 26  2  1  0
 25  7  1  0
 23 12  1  0
 21 16  1  0
  1 28  1  0
  1 29  1  0
  1 30  1  0
  3 31  1  0
  4 32  1  0
  5 33  1  0
  8 34  1  0
  8 35  1  0
  9 36  1  0
  9 37  1  0
 11 38  1  0
 11 39  1  0
 17 40  1  0
 18 41  1  0
 19 42  1  0
 20 43  1  0
 24 44  1  0
 24 45  1  0
 25 46  1  0
 25 47  1  0
 27 48  1  0
 27 49  1  0
 27 50  1  0
M  END
>  <UniqueID>  (89) 
84

>  <SMILES>  (89) 
Cc1cccc(N2CCN(Cc3nnc(-c4ccccc4F)o3)CC2)c1C

>  <Energy>  (89) 
100.67588419307418

>  <Genealogy>  (89) 
Cc1cccc(N2CCN(Cc3nnc(-c4ccccc4F)o3)CC2)c1C (3D coordinates assigned)
Cc1cccc(N2CCN(Cc3nnc(-c4ccccc4F)o3)CC2)c1C (nonaromatic ring conformer: 100.67588419307418 kcal/mol)

>  <smiles>  (89) 
Cc1cccc(N2CCN(Cc3nnc(-c4ccccc4F)o3)CC2)c1C

>  <score_type>  (89) 
oracle

>  <origin>  (89) 
adg

>  <m_score__min__energy>  (89) 
-8.7699999999999996

>  <m_primary>  (89) 
energy

$$$$
89:0
     RDKit          3D

 59 62  0  0  0  0  0  0  0  0999 V2000
   59.3670   34.9730   48.3590 N   0  0  0  0  0  0  0  0  0  0  0  0
   59.0720   33.6530   47.8880 C   0  0  0  0  0  0  0  0  0  0  0  0
   59.1900   32.6820   48.6840 O   0  0  0  0  0  0  0  0  0  0  0  0
   58.6350   33.4080   46.4910 C   0  0  0  0  0  0  0  0  0  0  0  0
   59.2140   34.1090   45.4160 C   0  0  0  0  0  0  0  0  0  0  0  0
   58.8260   33.8320   44.1000 C   0  0  0  0  0  0  0  0  0  0  0  0
   57.8570   32.8600   43.8440 C   0  0  0  0  0  0  0  0  0  0  0  0
   57.2530   32.1650   44.8990 C   0  0  0  0  0  0  0  0  0  0  0  0
   56.2830   31.1540   44.5950 N   0  0  0  0  0  0  0  0  0  0  0  0
   56.4810   29.7390   44.6980 C   0  0  0  0  0  0  0  0  0  0  0  0
   55.5140   28.9700   44.9540 O   0  0  0  0  0  0  0  0  0  0  0  0
   57.8370   29.1630   44.4360 C   0  0  0  0  0  0  0  0  0  0  0  0
   58.6040   29.0300   45.7240 C   0  0  0  0  0  0  0  0  0  0  0  0
   59.7160   29.8490   45.9760 C   0  0  0  0  0  0  0  0  0  0  0  0
   60.4000   29.7560   47.1910 C   0  0  0  0  0  0  0  0  0  0  0  0
   59.9730   28.8600   48.1800 C   0  0  0  0  0  0  0  0  0  0  0  0
   60.7180   28.7850   49.4050 N   0  0  0  0  0  0  0  0  0  0  0  0
   60.2960   29.2410   50.6990 C   0  0  0  0  0  0  0  0  0  0  0  0
   59.6230   28.4910   51.4550 O   0  0  0  0  0  0  0  0  0  0  0  0
   60.5620   30.6630   51.1220 C   0  0  2  0  0  0  0  0  0  0  0  0
   59.2460   31.4550   51.2170 C   0  0  0  0  0  0  0  0  0  0  0  0
   59.4630   32.9160   51.6810 C   0  0  0  0  0  0  0  0  0  0  0  0
   60.9250   33.3780   51.5830 C   0  0  0  0  0  0  0  0  0  0  0  0
   61.5540   32.8270   50.3740 N   0  0  0  0  0  0  0  0  0  0  0  0
   62.1840   33.6690   49.3880 C   0  0  0  0  0  0  0  0  0  0  0  0
   61.8950   34.8970   49.3540 O   0  0  0  0  0  0  0  0  0  0  0  0
   63.2130   33.1060   48.4310 C   0  0  0  0  0  0  0  0  0  0  0  0
   63.2990   33.7850   47.0670 C   0  0  0  0  0  0  0  0  0  0  0  0
   62.6430   32.4160   47.1980 C   0  0  0  0  0  0  0  0  0  0  0  0
   61.5380   31.3710   50.1560 C   0  0  0  0  0  0  0  0  0  0  0  0
   58.8690   28.0270   47.9220 C   0  0  0  0  0  0  0  0  0  0  0  0
   58.1830   28.1220   46.7070 C   0  0  0  0  0  0  0  0  0  0  0  0
   57.6590   32.4290   46.2220 C   0  0  0  0  0  0  0  0  0  0  0  0
   59.7250   35.1100   49.3330 H   0  0  0  0  0  0  0  0  0  0  0  0
   59.1540   35.8220   47.7900 H   0  0  0  0  0  0  0  0  0  0  0  0
   59.9754   34.8785   45.6114 H   0  0  0  0  0  0  0  0  0  0  0  0
   59.2857   34.3815   43.2653 H   0  0  0  0  0  0  0  0  0  0  0  0
   57.5660   32.6386   42.8065 H   0  0  0  0  0  0  0  0  0  0  0  0
   57.7270   28.1705   43.9747 H   0  0  0  0  0  0  0  0  0  0  0  0
   58.3866   29.8335   43.7590 H   0  0  0  0  0  0  0  0  0  0  0  0
   60.0506   30.5675   45.2132 H   0  0  0  0  0  0  0  0  0  0  0  0
   61.2799   30.3907   47.3723 H   0  0  0  0  0  0  0  0  0  0  0  0
   61.0327   30.6283   52.1156 H   0  0  0  0  0  0  0  0  0  0  0  0
   58.7697   31.4672   50.2255 H   0  0  0  0  0  0  0  0  0  0  0  0
   58.6113   30.9583   51.9656 H   0  0  0  0  0  0  0  0  0  0  0  0
   58.8462   33.5761   51.0535 H   0  0  0  0  0  0  0  0  0  0  0  0
   59.1781   32.9647   52.7424 H   0  0  0  0  0  0  0  0  0  0  0  0
   60.9563   34.4767   51.5398 H   0  0  0  0  0  0  0  0  0  0  0  0
   61.4735   33.0199   52.4667 H   0  0  0  0  0  0  0  0  0  0  0  0
   63.9406   32.8405   49.2121 H   0  0  0  0  0  0  0  0  0  0  0  0
   62.6839   34.6717   46.8541 H   0  0  0  0  0  0  0  0  0  0  0  0
   64.1124   34.2028   46.4556 H   0  0  0  0  0  0  0  0  0  0  0  0
   61.5542   32.3145   47.0789 H   0  0  0  0  0  0  0  0  0  0  0  0
   62.7871   31.4361   46.7194 H   0  0  0  0  0  0  0  0  0  0  0  0
   61.2259   31.1683   49.1209 H   0  0  0  0  0  0  0  0  0  0  0  0
   62.5502   30.9834   50.3437 H   0  0  0  0  0  0  0  0  0  0  0  0
   58.5441   27.2980   48.6790 H   0  0  0  0  0  0  0  0  0  0  0  0
   57.3085   27.4812   46.5211 H   0  0  0  0  0  0  0  0  0  0  0  0
   57.2095   31.8652   47.0527 H   0  0  0  0  0  0  0  0  0  0  0  0
  1  2  1  0
  2  3  2  0
  2  4  1  0
  4  5  2  0
  5  6  1  0
  6  7  2  0
  7  8  1  0
  8  9  1  0
  9 10  1  0
 10 11  2  0
 10 12  1  0
 12 13  1  0
 13 14  2  0
 14 15  1  0
 15 16  2  0
 16 17  1  0
 17 18  1  0
 18 19  2  0
 18 20  1  0
 20 21  1  0
 21 22  1  0
 22 23  1  0
 23 24  1  0
 24 25  1  0
 25 26  2  0
 25 27  1  0
 27 28  1  0
 28 29  1  0
 24 30  1  0
 16 31  1  0
 31 32  2  0
  8 33  2  0
 33  4  1  0
 32 13  1  0
 30 20  1  0
 29 27  1  0
  1 34  1  0
  1 35  1  0
  5 36  1  0
  6 37  1  0
  7 38  1  0
 12 39  1  0
 12 40  1  0
 14 41  1  0
 15 42  1  0
 20 43  1  1
 21 44  1  0
 21 45  1  0
 22 46  1  0
 22 47  1  0
 23 48  1  0
 23 49  1  0
 27 50  1  0
 28 51  1  0
 28 52  1  0
 29 53  1  0
 29 54  1  0
 30 55  1  0
 30 56  1  0
 31 57  1  0
 32 58  1  0
 33 59  1  0
M  CHG  2   9  -1  17  -1
M  END
>  <UniqueID>  (90) 
85

>  <SMILES>  (90) 
NC(=O)c1cccc([N-]C(=O)Cc2ccc([N-]C(=O)[C@@H]3CCCN(C(=O)C4CC4)C3)cc2)c1

>  <Energy>  (90) 
336.01512304786206

>  <Genealogy>  (90) 
NC(=O)c1cccc([N-]C(=O)Cc2ccc([N-]C(=O)C3CCCN(C(=O)C4CC4)C3)cc2)c1 (protonated)
NC(=O)c1cccc([N-]C(=O)Cc2ccc([N-]C(=O)[C@@H]3CCCN(C(=O)C4CC4)C3)cc2)c1 (chirality)
NC(=O)c1cccc([N-]C(=O)Cc2ccc([N-]C(=O)[C@@H]3CCCN(C(=O)C4CC4)C3)cc2)c1 (3D coordinates assigned)
NC(=O)c1cccc([N-]C(=O)Cc2ccc([N-]C(=O)[C@@H]3CCCN(C(=O)C4CC4)C3)cc2)c1 (nonaromatic ring conformer: 336.01512304786206 kcal/mol)

>  <smiles>  (90) 
NC(=O)c1cccc(NC(=O)Cc2ccc(NC(=O)C3CCCN(C(=O)C4CC4)C3)cc2)c1

>  <score_type>  (90) 
oracle

>  <origin>  (90) 
adg

>  <m_score__min__energy>  (90) 
-13.039999999999999

>  <m_primary>  (90) 
energy

$$$$
90:0
     RDKit          3D

 50 52  0  0  0  0  0  0  0  0999 V2000
   59.5040   27.8310   48.6380 C   0  0  0  0  0  0  0  0  0  0  0  0
   60.3180   29.0630   48.4350 C   0  0  0  0  0  0  0  0  0  0  0  0
   61.1320   29.4770   49.4490 C   0  0  0  0  0  0  0  0  0  0  0  0
   61.9070   30.6090   49.3160 C   0  0  0  0  0  0  0  0  0  0  0  0
   61.8540   31.3310   48.1360 C   0  0  0  0  0  0  0  0  0  0  0  0
   62.8030   32.7770   47.8890 S   0  0  0  0  0  0  0  0  0  0  0  0
   63.6450   32.6530   46.6260 O   0  0  0  0  0  0  0  0  0  0  0  0
   63.7890   32.9230   49.0110 O   0  0  0  0  0  0  0  0  0  0  0  0
   61.8560   34.1800   47.6880 N   0  0  0  0  0  0  0  0  0  0  0  0
   61.1810   34.5080   48.8990 C   0  0  0  0  0  0  0  0  0  0  0  0
   59.7440   34.0950   48.9750 C   0  0  0  0  0  0  0  0  0  0  0  0
   59.0890   34.0340   47.7670 O   0  0  0  0  0  0  0  0  0  0  0  0
   59.7390   34.8410   46.8180 C   0  0  0  0  0  0  0  0  0  0  0  0
   61.0740   34.1950   46.4970 C   0  0  0  0  0  0  0  0  0  0  0  0
   61.0350   30.9230   47.1040 C   0  0  0  0  0  0  0  0  0  0  0  0
   60.2640   29.7880   47.2490 C   0  0  0  0  0  0  0  0  0  0  0  0
   59.4130   29.3530   46.1920 N   0  0  0  0  0  0  0  0  0  0  0  0
   59.7240   28.1660   45.4420 C   0  0  0  0  0  0  0  0  0  0  0  0
   60.7640   27.5570   45.7740 O   0  0  0  0  0  0  0  0  0  0  0  0
   58.8050   27.7670   44.3600 C   0  0  0  0  0  0  0  0  0  0  0  0
   57.2670   28.7040   44.4760 S   0  0  0  0  0  0  0  0  0  0  0  0
   57.4690   30.4350   44.2280 C   0  0  0  0  0  0  0  0  0  0  0  0
   57.1750   31.2610   45.2700 N   0  0  0  0  0  0  0  0  0  0  0  0
   57.3010   32.5790   45.1780 C   0  0  0  0  0  0  0  0  0  0  0  0
   56.9810   33.3930   46.3000 N   0  0  0  0  0  0  0  0  0  0  0  0
   57.7390   33.1610   44.0100 C   0  0  0  0  0  0  0  0  0  0  0  0
   58.0390   32.3490   42.9520 C   0  0  0  0  0  0  0  0  0  0  0  0
   58.4440   32.8160   41.8560 O   0  0  0  0  0  0  0  0  0  0  0  0
   57.8900   31.0220   43.1090 N   0  0  0  0  0  0  0  0  0  0  0  0
   59.3816   27.6458   49.7154 H   0  0  0  0  0  0  0  0  0  0  0  0
   58.5155   27.9641   48.1742 H   0  0  0  0  0  0  0  0  0  0  0  0
   60.0142   26.9739   48.1742 H   0  0  0  0  0  0  0  0  0  0  0  0
   61.1701   28.8998   50.3846 H   0  0  0  0  0  0  0  0  0  0  0  0
   62.5605   30.9352   50.1385 H   0  0  0  0  0  0  0  0  0  0  0  0
   61.7167   34.0206   49.7269 H   0  0  0  0  0  0  0  0  0  0  0  0
   61.1799   35.6067   48.9529 H   0  0  0  0  0  0  0  0  0  0  0  0
   59.7002   33.0977   49.4369 H   0  0  0  0  0  0  0  0  0  0  0  0
   59.2327   34.8727   49.5613 H   0  0  0  0  0  0  0  0  0  0  0  0
   59.1284   34.9117   45.9057 H   0  0  0  0  0  0  0  0  0  0  0  0
   59.8886   35.8561   47.2145 H   0  0  0  0  0  0  0  0  0  0  0  0
   60.9147   33.1659   46.1425 H   0  0  0  0  0  0  0  0  0  0  0  0
   61.5915   34.7609   45.7083 H   0  0  0  0  0  0  0  0  0  0  0  0
   60.9966   31.5005   46.1686 H   0  0  0  0  0  0  0  0  0  0  0  0
   58.5740   29.9310   45.9970 H   0  0  0  0  0  0  0  0  0  0  0  0
   59.2796   27.9656   43.3877 H   0  0  0  0  0  0  0  0  0  0  0  0
   58.5812   26.6942   44.4549 H   0  0  0  0  0  0  0  0  0  0  0  0
   57.6690   33.5570   47.0790 H   0  0  0  0  0  0  0  0  0  0  0  0
   56.0400   33.8420   46.3550 H   0  0  0  0  0  0  0  0  0  0  0  0
   57.8450   34.2529   43.9299 H   0  0  0  0  0  0  0  0  0  0  0  0
   58.1200   30.4270   42.2860 H   0  0  0  0  0  0  0  0  0  0  0  0
  1  2  1  0
  2  3  2  0
  3  4  1  0
  4  5  2  0
  5  6  1  0
  6  7  2  0
  6  8  2  0
  6  9  1  0
  9 10  1  0
 10 11  1  0
 11 12  1  0
 12 13  1  0
 13 14  1  0
  5 15  1  0
 15 16  2  0
 16 17  1  0
 17 18  1  0
 18 19  2  0
 18 20  1  0
 20 21  1  0
 21 22  1  0
 22 23  2  0
 23 24  1  0
 24 25  1  0
 24 26  2  0
 26 27  1  0
 27 28  2  0
 27 29  1  0
 16  2  1  0
 29 22  1  0
 14  9  1  0
  1 30  1  0
  1 31  1  0
  1 32  1  0
  3 33  1  0
  4 34  1  0
 10 35  1  0
 10 36  1  0
 11 37  1  0
 11 38  1  0
 13 39  1  0
 13 40  1  0
 14 41  1  0
 14 42  1  0
 15 43  1  0
 17 44  1  0
 20 45  1  0
 20 46  1  0
 25 47  1  0
 25 48  1  0
 26 49  1  0
 29 50  1  0
M  END
>  <smiles>  (91) 
Cc1ccc(S(=O)(=O)N2CCOCC2)cc1NC(=O)CSc1nc(N)cc(=O)[nH]1

>  <score_type>  (91) 
oracle

>  <origin>  (91) 
adg

>  <m_score__min__energy>  (91) 
-9.7200000000000006

>  <m_primary>  (91) 
energy

$$$$
91:0
     RDKit          3D

 53 56  0  0  0  0  0  0  0  0999 V2000
   54.7790   29.6410   43.3240 O   0  0  0  0  0  0  0  0  0  0  0  0
   55.7950   29.8510   44.0400 C   0  0  0  0  0  0  0  0  0  0  0  0
   55.9840   29.0960   45.2440 N   0  0  0  0  0  0  0  0  0  0  0  0
   56.6970   28.0190   45.4380 C   0  0  0  0  0  0  0  0  0  0  0  0
   58.0360   28.1000   45.2060 N   0  0  0  0  0  0  0  0  0  0  0  0
   58.8760   27.0480   45.3840 C   0  0  0  0  0  0  0  0  0  0  0  0
   58.3780   25.8230   45.8230 C   0  0  0  0  0  0  0  0  0  0  0  0
   57.0100   25.6870   46.0480 C   0  0  0  0  0  0  0  0  0  0  0  0
   56.1510   26.7720   45.8460 C   0  0  0  0  0  0  0  0  0  0  0  0
   54.7850   26.5690   46.0020 O   0  0  0  0  0  0  0  0  0  0  0  0
   56.7240   30.9560   43.6990 C   0  0  0  0  0  0  0  0  0  0  0  0
   56.9990   31.2690   42.3540 C   0  0  0  0  0  0  0  0  0  0  0  0
   57.8580   32.3240   42.0350 C   0  0  0  0  0  0  0  0  0  0  0  0
   58.4520   33.0760   43.0510 C   0  0  0  0  0  0  0  0  0  0  0  0
   58.1980   32.7730   44.3930 C   0  0  0  0  0  0  0  0  0  0  0  0
   58.9430   33.7350   45.6670 S   0  0  0  0  0  0  0  0  0  0  0  0
   59.1310   35.1390   45.1570 O   0  0  0  0  0  0  0  0  0  0  0  0
   58.0440   33.7650   46.8750 O   0  0  0  0  0  0  0  0  0  0  0  0
   60.4910   33.0530   46.1070 N   0  0  0  0  0  0  0  0  0  0  0  0
   60.3230   32.1460   47.2520 C   0  0  0  0  0  0  0  0  0  0  0  0
   61.6340   31.4010   47.5050 C   0  0  0  0  0  0  0  0  0  0  0  0
   62.7480   32.3430   47.6660 N   0  0  0  0  0  0  0  0  0  0  0  0
   63.9180   31.9530   48.4620 C   0  0  0  0  0  0  0  0  0  0  0  0
   64.1230   32.9360   49.5830 C   0  0  0  0  0  0  0  0  0  0  0  0
   63.0420   33.6710   50.0990 C   0  0  0  0  0  0  0  0  0  0  0  0
   63.2320   34.5420   51.1740 C   0  0  0  0  0  0  0  0  0  0  0  0
   64.4990   34.6830   51.7460 C   0  0  0  0  0  0  0  0  0  0  0  0
   64.6800   35.5240   52.7930 F   0  0  0  0  0  0  0  0  0  0  0  0
   65.5780   33.9540   51.2410 C   0  0  0  0  0  0  0  0  0  0  0  0
   65.3920   33.0820   50.1660 C   0  0  0  0  0  0  0  0  0  0  0  0
   62.7220   33.6020   46.9650 C   0  0  0  0  0  0  0  0  0  0  0  0
   63.7670   34.2990   46.8620 O   0  0  0  0  0  0  0  0  0  0  0  0
   61.4230   34.1450   46.4430 C   0  0  0  0  0  0  0  0  0  0  0  0
   57.3320   31.7170   44.7140 C   0  0  0  0  0  0  0  0  0  0  0  0
   59.9510   27.1631   45.1813 H   0  0  0  0  0  0  0  0  0  0  0  0
   59.0568   24.9736   45.9899 H   0  0  0  0  0  0  0  0  0  0  0  0
   56.6037   24.7223   46.3859 H   0  0  0  0  0  0  0  0  0  0  0  0
   56.5349   30.6795   41.5496 H   0  0  0  0  0  0  0  0  0  0  0  0
   58.0668   32.5627   40.9817 H   0  0  0  0  0  0  0  0  0  0  0  0
   59.1222   33.9098   42.7950 H   0  0  0  0  0  0  0  0  0  0  0  0
   60.0534   32.7285   48.1453 H   0  0  0  0  0  0  0  0  0  0  0  0
   59.5245   31.4217   47.0335 H   0  0  0  0  0  0  0  0  0  0  0  0
   61.5356   30.7994   48.4206 H   0  0  0  0  0  0  0  0  0  0  0  0
   61.8430   30.7533   46.6409 H   0  0  0  0  0  0  0  0  0  0  0  0
   63.7559   30.9492   48.8817 H   0  0  0  0  0  0  0  0  0  0  0  0
   64.8095   31.9460   47.8177 H   0  0  0  0  0  0  0  0  0  0  0  0
   62.0421   33.5598   49.6543 H   0  0  0  0  0  0  0  0  0  0  0  0
   62.3830   35.1179   51.5710 H   0  0  0  0  0  0  0  0  0  0  0  0
   66.5756   34.0668   51.6905 H   0  0  0  0  0  0  0  0  0  0  0  0
   66.2438   32.5068   49.7741 H   0  0  0  0  0  0  0  0  0  0  0  0
   60.9654   34.7846   47.2121 H   0  0  0  0  0  0  0  0  0  0  0  0
   61.6268   34.7250   45.5308 H   0  0  0  0  0  0  0  0  0  0  0  0
   57.1266   31.4820   45.7688 H   0  0  0  0  0  0  0  0  0  0  0  0
  1  2  2  0
  2  3  1  0
  3  4  2  3
  4  5  1  0
  5  6  1  0
  6  7  2  0
  7  8  1  0
  8  9  2  0
  9 10  1  0
  2 11  1  0
 11 12  2  0
 12 13  1  0
 13 14  2  0
 14 15  1  0
 15 16  1  0
 16 17  2  0
 16 18  2  0
 16 19  1  0
 19 20  1  0
 20 21  1  0
 21 22  1  0
 22 23  1  0
 23 24  1  0
 24 25  2  0
 25 26  1  0
 26 27  2  0
 27 28  1  0
 27 29  1  0
 29 30  2  0
 22 31  1  0
 31 32  2  0
 31 33  1  0
 15 34  2  0
  9  4  1  0
 34 11  1  0
 33 19  1  0
 30 24  1  0
  6 35  1  0
  7 36  1  0
  8 37  1  0
 12 38  1  0
 13 39  1  0
 14 40  1  0
 20 41  1  0
 20 42  1  0
 21 43  1  0
 21 44  1  0
 23 45  1  0
 23 46  1  0
 25 47  1  0
 26 48  1  0
 29 49  1  0
 30 50  1  0
 33 51  1  0
 33 52  1  0
 34 53  1  0
M  CHG  2   5  -1  10  -1
M  END
>  <UniqueID>  (92) 
86

>  <SMILES>  (92) 
O=C(N=c1[n-]cccc1[O-])c1cccc(S(=O)(=O)N2CCN(Cc3ccc(F)cc3)C(=O)C2)c1

>  <Energy>  (92) 
68.17413923987559

>  <Genealogy>  (92) 
O=C(N=c1[n-]cccc1[O-])c1cccc(S(=O)(=O)N2CCN(Cc3ccc(F)cc3)C(=O)C2)c1 (protonated)
O=C(N=c1[n-]cccc1[O-])c1cccc(S(=O)(=O)N2CCN(Cc3ccc(F)cc3)C(=O)C2)c1 (3D coordinates assigned)
O=C(N=c1[n-]cccc1[O-])c1cccc(S(=O)(=O)N2CCN(Cc3ccc(F)cc3)C(=O)C2)c1 (nonaromatic ring conformer: 68.17413923987559 kcal/mol)

>  <smiles>  (92) 
O=C(N=c1[nH]cccc1O)c1cccc(S(=O)(=O)N2CCN(Cc3ccc(F)cc3)C(=O)C2)c1

>  <score_type>  (92) 
oracle

>  <origin>  (92) 
adg

>  <m_score__min__energy>  (92) 
-15.9

>  <m_primary>  (92) 
energy

$$$$
