0:0
     RDKit          3D

 56 59  0  0  0  0  0  0  0  0999 V2000
   57.8330   26.0720   44.3890 C   0  0  0  0  0  0  0  0  0  0  0  0
   58.2410   27.1200   43.3600 C   0  0  0  0  0  0  0  0  0  0  0  0
   57.7270   28.4780   43.7530 C   0  0  0  0  0  0  0  0  0  0  0  0
   58.3840   29.2230   44.7410 C   0  0  0  0  0  0  0  0  0  0  0  0
   57.8610   30.4720   45.1120 C   0  0  0  0  0  0  0  0  0  0  0  0
   58.5040   31.2900   46.1150 N   0  0  0  0  0  0  0  0  0  0  0  0
   57.9420   32.5960   46.4730 C   0  0  0  0  0  0  0  0  0  0  0  0
   59.0410   33.6520   46.4290 C   0  0  0  0  0  0  0  0  0  0  0  0
   60.2210   33.2300   47.2600 C   0  0  0  0  0  0  0  0  0  0  0  0
   61.0790   34.2060   47.7860 C   0  0  0  0  0  0  0  0  0  0  0  0
   62.2030   33.8360   48.5270 C   0  0  0  0  0  0  0  0  0  0  0  0
   62.5000   32.4820   48.7410 C   0  0  0  0  0  0  0  0  0  0  0  0
   63.6520   32.1010   49.5190 N   0  0  0  0  0  0  0  0  0  0  0  0
   63.5460   31.0320   50.5190 C   0  0  0  0  0  0  0  0  0  0  0  0
   64.7650   31.0520   51.4640 C   0  0  2  0  0  0  0  0  0  0  0  0
   64.5120   30.2010   52.7100 C   0  0  0  0  0  0  0  0  0  0  0  0
   65.0810   32.4360   51.8520 N   0  0  0  0  0  0  0  0  0  0  0  0
   65.4610   33.2970   50.7060 C   0  0  1  0  0  0  0  0  0  0  0  0
   66.9810   33.4670   50.6820 C   0  0  0  0  0  0  0  0  0  0  0  0
   64.9430   32.7750   49.3430 C   0  0  0  0  0  0  0  0  0  0  0  0
   61.6470   31.5020   48.2070 C   0  0  0  0  0  0  0  0  0  0  0  0
   60.5160   31.8630   47.4590 C   0  0  0  0  0  0  0  0  0  0  0  0
   59.6330   30.7670   46.9020 C   0  0  0  0  0  0  0  0  0  0  0  0
   56.7230   30.9120   44.5090 N   0  0  0  0  0  0  0  0  0  0  0  0
   56.0890   30.1750   43.5610 C   0  0  0  0  0  0  0  0  0  0  0  0
   56.5860   28.9670   43.1910 N   0  0  0  0  0  0  0  0  0  0  0  0
   57.9888   26.4723   45.4017 H   0  0  0  0  0  0  0  0  0  0  0  0
   56.7709   25.8196   44.2539 H   0  0  0  0  0  0  0  0  0  0  0  0
   58.4448   25.1679   44.2539 H   0  0  0  0  0  0  0  0  0  0  0  0
   59.3385   27.1541   43.2948 H   0  0  0  0  0  0  0  0  0  0  0  0
   57.8096   26.8464   42.3858 H   0  0  0  0  0  0  0  0  0  0  0  0
   59.2958   28.8352   45.2188 H   0  0  0  0  0  0  0  0  0  0  0  0
   57.1490   32.8622   45.7586 H   0  0  0  0  0  0  0  0  0  0  0  0
   57.5204   32.5478   47.4879 H   0  0  0  0  0  0  0  0  0  0  0  0
   59.3652   33.7918   45.3872 H   0  0  0  0  0  0  0  0  0  0  0  0
   58.6421   34.5930   46.8356 H   0  0  0  0  0  0  0  0  0  0  0  0
   60.8651   35.2711   47.6136 H   0  0  0  0  0  0  0  0  0  0  0  0
   62.8604   34.6120   48.9460 H   0  0  0  0  0  0  0  0  0  0  0  0
   62.6288   31.1777   51.1085 H   0  0  0  0  0  0  0  0  0  0  0  0
   63.5142   30.0624   50.0006 H   0  0  0  0  0  0  0  0  0  0  0  0
   65.6225   30.6224   50.9254 H   0  0  0  0  0  0  0  0  0  0  0  0
   64.6921   30.8066   53.6104 H   0  0  0  0  0  0  0  0  0  0  0  0
   63.4701   29.8482   52.7077 H   0  0  0  0  0  0  0  0  0  0  0  0
   65.1919   29.3363   52.7077 H   0  0  0  0  0  0  0  0  0  0  0  0
   64.2390   32.8550   52.3170 H   0  0  0  0  0  0  0  0  0  0  0  0
   64.9739   34.2720   50.8546 H   0  0  0  0  0  0  0  0  0  0  0  0
   67.3615   33.5096   51.7132 H   0  0  0  0  0  0  0  0  0  0  0  0
   67.4371   32.6143   50.1578 H   0  0  0  0  0  0  0  0  0  0  0  0
   67.2374   34.3994   50.1578 H   0  0  0  0  0  0  0  0  0  0  0  0
   64.8200   33.6220   48.6520 H   0  0  0  0  0  0  0  0  0  0  0  0
   65.6699   32.0590   48.9319 H   0  0  0  0  0  0  0  0  0  0  0  0
   61.8684   30.4381   48.3774 H   0  0  0  0  0  0  0  0  0  0  0  0
   60.2425   30.1191   46.2549 H   0  0  0  0  0  0  0  0  0  0  0  0
   59.2142   30.2129   47.7550 H   0  0  0  0  0  0  0  0  0  0  0  0
   55.1706   30.5576   43.0918 H   0  0  0  0  0  0  0  0  0  0  0  0
   56.0780   28.4110   42.4660 H   0  0  0  0  0  0  0  0  0  0  0  0
  1  2  1  0
  2  3  1  0
  3  4  2  0
  4  5  1  0
  5  6  1  0
  6  7  1  0
  7  8  1  0
  8  9  1  0
  9 10  2  0
 10 11  1  0
 11 12  2  0
 12 13  1  0
 13 14  1  0
 14 15  1  0
 15 16  1  0
 15 17  1  0
 17 18  1  0
 18 19  1  0
 18 20  1  0
 12 21  1  0
 21 22  2  0
 22 23  1  0
  5 24  2  0
 24 25  1  0
 25 26  2  0
 26  3  1  0
 23  6  1  0
 22  9  1  0
 20 13  1  0
  1 27  1  0
  1 28  1  0
  1 29  1  0
  2 30  1  0
  2 31  1  0
  4 32  1  0
  7 33  1  0
  7 34  1  0
  8 35  1  0
  8 36  1  0
 10 37  1  0
 11 38  1  0
 14 39  1  0
 14 40  1  0
 15 41  1  6
 16 42  1  0
 16 43  1  0
 16 44  1  0
 17 45  1  0
 18 46  1  1
 19 47  1  0
 19 48  1  0
 19 49  1  0
 20 50  1  0
 20 51  1  0
 21 52  1  0
 23 53  1  0
 23 54  1  0
 25 55  1  0
 26 56  1  0
M  CHG  1  26   1
M  END
>  <UniqueID>  (1) 
1

>  <SMILES>  (1) 
CCc1cc(N2CCc3ccc(N4C[C@H](C)N[C@@H](C)C4)cc3C2)nc[nH+]1

>  <Energy>  (1) 
64.10394285876097

>  <Genealogy>  (1) 
CCc1cc(N2CCc3ccc(N4CC(C)NC(C)C4)cc3C2)nc[nH+]1 (protonated)
CCc1cc(N2CCc3ccc(N4C[C@H](C)N[C@@H](C)C4)cc3C2)nc[nH+]1 (chirality)
CCc1cc(N2CCc3ccc(N4C[C@H](C)N[C@@H](C)C4)cc3C2)nc[nH+]1 (3D coordinates assigned)
CCc1cc(N2CCc3ccc(N4C[C@H](C)N[C@@H](C)C4)cc3C2)nc[nH+]1 (nonaromatic ring conformer: 64.10394285876097 kcal/mol)

>  <smiles>  (1) 
CCc1cc(N2CCc3ccc(N4CC(C)NC(C)C4)cc3C2)ncn1

>  <score_type>  (1) 
oracle

>  <origin>  (1) 
adg

>  <m_score__min__energy>  (1) 
-7.1600000000000001

>  <m_primary>  (1) 
energy

$$$$
1:0
     RDKit          3D

 58 60  0  0  0  0  0  0  0  0999 V2000
   61.1080   28.6050   44.5410 C   0  0  0  0  0  0  0  0  0  0  0  0
   60.5640   28.6610   45.9660 C   0  0  0  0  0  0  0  0  0  0  0  0
   59.1910   28.1200   46.0160 N   0  0  0  0  0  0  0  0  0  0  0  0
   58.1420   28.8720   45.5520 C   0  0  0  0  0  0  0  0  0  0  0  0
   58.3790   30.1710   44.9830 N   0  0  0  0  0  0  0  0  0  0  0  0
   57.4150   31.2140   44.7780 C   0  0  0  0  0  0  0  0  0  0  0  0
   56.1930   30.9200   44.8380 O   0  0  0  0  0  0  0  0  0  0  0  0
   57.8140   32.6060   44.3600 C   0  0  0  0  0  0  0  0  0  0  0  0
   57.5490   33.6390   45.4660 C   0  0  0  0  0  0  0  0  0  0  0  0
   58.7520   34.4660   45.7170 N   0  0  0  0  0  0  0  0  0  0  0  0
   60.0110   33.7920   45.2950 C   0  0  0  0  0  0  0  0  0  0  0  0
   60.8430   33.2220   46.4630 C   0  0  0  0  0  0  0  0  0  0  0  0
   59.9720   32.8360   47.5760 N   0  0  0  0  0  0  0  0  0  0  0  0
   60.1120   31.5510   48.2050 C   0  0  0  0  0  0  0  0  0  0  0  0
   59.0140   30.6770   48.2630 C   0  0  0  0  0  0  0  0  0  0  0  0
   59.1360   29.4320   48.8800 C   0  0  0  0  0  0  0  0  0  0  0  0
   60.3560   29.0440   49.4370 C   0  0  0  0  0  0  0  0  0  0  0  0
   61.4600   29.8940   49.3700 C   0  0  0  0  0  0  0  0  0  0  0  0
   61.3510   31.1540   48.7490 C   0  0  0  0  0  0  0  0  0  0  0  0
   62.4470   32.0240   48.6400 O   0  0  0  0  0  0  0  0  0  0  0  0
   63.4690   31.9180   47.6550 C   0  0  0  0  0  0  0  0  0  0  0  0
   59.0120   33.8080   48.1050 C   0  0  0  0  0  0  0  0  0  0  0  0
   58.8070   34.9610   47.1090 C   0  0  0  0  0  0  0  0  0  0  0  0
   56.8580   28.3300   45.5360 C   0  0  0  0  0  0  0  0  0  0  0  0
   56.6500   27.0520   46.0400 C   0  0  0  0  0  0  0  0  0  0  0  0
   55.4840   26.5690   46.0160 O   0  0  0  0  0  0  0  0  0  0  0  0
   57.6980   26.3310   46.5430 N   0  0  0  0  0  0  0  0  0  0  0  0
   57.4680   24.9690   47.0540 C   0  0  0  0  0  0  0  0  0  0  0  0
   58.9690   26.8480   46.4930 C   0  0  0  0  0  0  0  0  0  0  0  0
   59.9460   26.1470   46.8830 O   0  0  0  0  0  0  0  0  0  0  0  0
   62.2018   28.4924   44.5703 H   0  0  0  0  0  0  0  0  0  0  0  0
   60.6651   27.7477   44.0129 H   0  0  0  0  0  0  0  0  0  0  0  0
   60.8491   29.5345   44.0129 H   0  0  0  0  0  0  0  0  0  0  0  0
   61.2124   28.0648   46.6249 H   0  0  0  0  0  0  0  0  0  0  0  0
   60.5462   29.7091   46.2995 H   0  0  0  0  0  0  0  0  0  0  0  0
   58.8875   32.6105   44.1201 H   0  0  0  0  0  0  0  0  0  0  0  0
   57.2087   32.8837   43.4845 H   0  0  0  0  0  0  0  0  0  0  0  0
   56.7205   34.2932   45.1566 H   0  0  0  0  0  0  0  0  0  0  0  0
   57.2913   33.1039   46.3919 H   0  0  0  0  0  0  0  0  0  0  0  0
   59.7498   32.9634   44.6204 H   0  0  0  0  0  0  0  0  0  0  0  0
   60.6323   34.5575   44.8072 H   0  0  0  0  0  0  0  0  0  0  0  0
   61.3974   32.3382   46.1144 H   0  0  0  0  0  0  0  0  0  0  0  0
   61.5420   33.9964   46.8117 H   0  0  0  0  0  0  0  0  0  0  0  0
   58.0528   30.9759   47.8195 H   0  0  0  0  0  0  0  0  0  0  0  0
   58.2702   28.7552   48.9278 H   0  0  0  0  0  0  0  0  0  0  0  0
   60.4469   28.0650   49.9302 H   0  0  0  0  0  0  0  0  0  0  0  0
   62.4204   29.5790   49.8041 H   0  0  0  0  0  0  0  0  0  0  0  0
   64.4461   31.8167   48.1499 H   0  0  0  0  0  0  0  0  0  0  0  0
   63.2827   31.0344   47.0269 H   0  0  0  0  0  0  0  0  0  0  0  0
   63.4680   32.8211   47.0269 H   0  0  0  0  0  0  0  0  0  0  0  0
   58.0490   33.3064   48.2809 H   0  0  0  0  0  0  0  0  0  0  0  0
   59.4044   34.2181   49.0473 H   0  0  0  0  0  0  0  0  0  0  0  0
   57.8628   35.4740   47.3443 H   0  0  0  0  0  0  0  0  0  0  0  0
   59.6584   35.6518   47.1981 H   0  0  0  0  0  0  0  0  0  0  0  0
   56.0165   28.9091   45.1279 H   0  0  0  0  0  0  0  0  0  0  0  0
   57.4707   24.9847   48.1539 H   0  0  0  0  0  0  0  0  0  0  0  0
   56.4952   24.6021   46.6949 H   0  0  0  0  0  0  0  0  0  0  0  0
   58.2664   24.3030   46.6949 H   0  0  0  0  0  0  0  0  0  0  0  0
  1  2  1  0
  2  3  1  0
  3  4  1  0
  4  5  1  0
  5  6  1  0
  6  7  2  0
  6  8  1  0
  8  9  1  0
  9 10  1  0
 10 11  1  0
 11 12  1  0
 12 13  1  0
 13 14  1  0
 14 15  2  0
 15 16  1  0
 16 17  2  0
 17 18  1  0
 18 19  2  0
 19 20  1  0
 20 21  1  0
 13 22  1  0
 22 23  1  0
  4 24  2  0
 24 25  1  0
 25 26  2  0
 25 27  1  0
 27 28  1  0
 27 29  1  0
 29 30  2  0
 29  3  1  0
 23 10  1  0
 19 14  1  0
  1 31  1  0
  1 32  1  0
  1 33  1  0
  2 34  1  0
  2 35  1  0
  8 36  1  0
  8 37  1  0
  9 38  1  0
  9 39  1  0
 11 40  1  0
 11 41  1  0
 12 42  1  0
 12 43  1  0
 15 44  1  0
 16 45  1  0
 17 46  1  0
 18 47  1  0
 21 48  1  0
 21 49  1  0
 21 50  1  0
 22 51  1  0
 22 52  1  0
 23 53  1  0
 23 54  1  0
 24 55  1  0
 28 56  1  0
 28 57  1  0
 28 58  1  0
M  CHG  1   5  -1
M  END
>  <UniqueID>  (2) 
2

>  <SMILES>  (2) 
CCn1c([N-]C(=O)CCN2CCN(c3ccccc3OC)CC2)cc(=O)n(C)c1=O

>  <Energy>  (2) 
78.80328202270731

>  <Genealogy>  (2) 
CCn1c([N-]C(=O)CCN2CCN(c3ccccc3OC)CC2)cc(=O)n(C)c1=O (protonated)
CCn1c([N-]C(=O)CCN2CCN(c3ccccc3OC)CC2)cc(=O)n(C)c1=O (3D coordinates assigned)
CCn1c([N-]C(=O)CCN2CCN(c3ccccc3OC)CC2)cc(=O)n(C)c1=O (nonaromatic ring conformer: 78.80328202270731 kcal/mol)

>  <smiles>  (2) 
CCn1c(NC(=O)CCN2CCN(c3ccccc3OC)CC2)cc(=O)n(C)c1=O

>  <score_type>  (2) 
oracle

>  <origin>  (2) 
adg

>  <m_score__min__energy>  (2) 
-10.289999999999999

>  <m_primary>  (2) 
energy

$$$$
2:0
     RDKit          3D

 47 49  0  0  0  0  0  0  0  0999 V2000
   55.8760   29.3400   44.5600 C   0  0  0  0  0  0  0  0  0  0  0  0
   56.7240   30.4570   44.0440 C   0  0  0  0  0  0  0  0  0  0  0  0
   56.6780   30.8170   42.6950 C   0  0  0  0  0  0  0  0  0  0  0  0
   57.4650   31.8890   42.2600 C   0  0  0  0  0  0  0  0  0  0  0  0
   57.3910   32.3380   40.8310 C   0  0  0  0  0  0  0  0  0  0  0  0
   58.2340   32.5690   43.1560 N   0  0  0  0  0  0  0  0  0  0  0  0
   58.2780   32.1980   44.4690 C   0  0  0  0  0  0  0  0  0  0  0  0
   59.0830   32.9260   45.4150 N   0  0  0  0  0  0  0  0  0  0  0  0
   59.5560   34.2840   45.1220 C   0  0  0  0  0  0  0  0  0  0  0  0
   59.2710   35.2210   46.3040 C   0  0  0  0  0  0  0  0  0  0  0  0
   59.4060   34.5360   47.6820 C   0  0  0  0  0  0  0  0  0  0  0  0
   60.1980   33.2090   47.6470 C   0  0  2  0  0  0  0  0  0  0  0  0
   61.6820   33.4020   47.3710 C   0  0  0  0  0  0  0  0  0  0  0  0
   62.0880   33.4820   46.1790 O   0  0  0  0  0  0  0  0  0  0  0  0
   62.6420   33.4970   48.4460 N   0  0  0  0  0  0  0  0  0  0  0  0
   62.3210   34.2230   49.6820 C   0  0  0  0  0  0  0  0  0  0  0  0
   63.1920   33.7090   50.8320 C   0  0  0  0  0  0  0  0  0  0  0  0
   64.5610   33.7370   50.4760 O   0  0  0  0  0  0  0  0  0  0  0  0
   64.7960   32.8230   49.4240 C   0  0  0  0  0  0  0  0  0  0  0  0
   64.0600   33.2560   48.1520 C   0  0  0  0  0  0  0  0  0  0  0  0
   59.5430   32.2400   46.6320 C   0  0  0  0  0  0  0  0  0  0  0  0
   57.5130   31.1580   44.8980 N   0  0  0  0  0  0  0  0  0  0  0  0
   55.8845   29.3512   45.6599 H   0  0  0  0  0  0  0  0  0  0  0  0
   54.8443   29.4664   44.2000 H   0  0  0  0  0  0  0  0  0  0  0  0
   56.2750   28.3802   44.2000 H   0  0  0  0  0  0  0  0  0  0  0  0
   56.0363   30.2690   41.9893 H   0  0  0  0  0  0  0  0  0  0  0  0
   57.2122   33.4228   40.7963 H   0  0  0  0  0  0  0  0  0  0  0  0
   58.3394   32.1063   40.3243 H   0  0  0  0  0  0  0  0  0  0  0  0
   56.5671   31.8142   40.3243 H   0  0  0  0  0  0  0  0  0  0  0  0
   58.7670   33.4080   42.8350 H   0  0  0  0  0  0  0  0  0  0  0  0
   60.6396   34.2571   44.9349 H   0  0  0  0  0  0  0  0  0  0  0  0
   59.0264   34.6607   44.2345 H   0  0  0  0  0  0  0  0  0  0  0  0
   59.9809   36.0602   46.2617 H   0  0  0  0  0  0  0  0  0  0  0  0
   58.2263   35.5519   46.2090 H   0  0  0  0  0  0  0  0  0  0  0  0
   59.9207   35.2286   48.3641 H   0  0  0  0  0  0  0  0  0  0  0  0
   58.3876   34.2912   48.0180 H   0  0  0  0  0  0  0  0  0  0  0  0
   60.1488   32.7650   48.6522 H   0  0  0  0  0  0  0  0  0  0  0  0
   62.5098   35.2965   49.5336 H   0  0  0  0  0  0  0  0  0  0  0  0
   61.2618   34.0617   49.9310 H   0  0  0  0  0  0  0  0  0  0  0  0
   63.0359   34.3458   51.7153 H   0  0  0  0  0  0  0  0  0  0  0  0
   62.9063   32.6702   51.0539 H   0  0  0  0  0  0  0  0  0  0  0  0
   65.8758   32.7795   49.2187 H   0  0  0  0  0  0  0  0  0  0  0  0
   64.4235   31.8334   49.7271 H   0  0  0  0  0  0  0  0  0  0  0  0
   64.5137   34.1808   47.7663 H   0  0  0  0  0  0  0  0  0  0  0  0
   64.1407   32.4572   47.4001 H   0  0  0  0  0  0  0  0  0  0  0  0
   60.2805   31.4748   46.3483 H   0  0  0  0  0  0  0  0  0  0  0  0
   58.6626   31.7929   47.1168 H   0  0  0  0  0  0  0  0  0  0  0  0
  1  2  1  0
  2  3  2  0
  3  4  1  0
  4  5  1  0
  4  6  2  0
  6  7  1  0
  7  8  1  0
  8  9  1  0
  9 10  1  0
 10 11  1  0
 11 12  1  0
 12 13  1  0
 13 14  2  0
 13 15  1  0
 15 16  1  0
 16 17  1  0
 17 18  1  0
 18 19  1  0
 19 20  1  0
 12 21  1  0
  7 22  2  0
 22  2  1  0
 21  8  1  0
 20 15  1  0
  1 23  1  0
  1 24  1  0
  1 25  1  0
  3 26  1  0
  5 27  1  0
  5 28  1  0
  5 29  1  0
  6 30  1  0
  9 31  1  0
  9 32  1  0
 10 33  1  0
 10 34  1  0
 11 35  1  0
 11 36  1  0
 12 37  1  1
 16 38  1  0
 16 39  1  0
 17 40  1  0
 17 41  1  0
 19 42  1  0
 19 43  1  0
 20 44  1  0
 20 45  1  0
 21 46  1  0
 21 47  1  0
M  CHG  1   6   1
M  END
>  <UniqueID>  (3) 
3

>  <SMILES>  (3) 
Cc1cc(C)[nH+]c(N2CCC[C@H](C(=O)N3CCOCC3)C2)n1

>  <Energy>  (3) 
54.75301628420819

>  <Genealogy>  (3) 
Cc1cc(C)[nH+]c(N2CCCC(C(=O)N3CCOCC3)C2)n1 (protonated)
Cc1cc(C)[nH+]c(N2CCC[C@H](C(=O)N3CCOCC3)C2)n1 (chirality)
Cc1cc(C)[nH+]c(N2CCC[C@H](C(=O)N3CCOCC3)C2)n1 (3D coordinates assigned)
Cc1cc(C)[nH+]c(N2CCC[C@H](C(=O)N3CCOCC3)C2)n1 (nonaromatic ring conformer: 54.75301628420819 kcal/mol)

>  <smiles>  (3) 
Cc1cc(C)nc(N2CCCC(C(=O)N3CCOCC3)C2)n1

>  <score_type>  (3) 
oracle

>  <origin>  (3) 
adg

>  <m_score__min__energy>  (3) 
-6.4100000000000001

>  <m_primary>  (3) 
energy

$$$$
3:0
     RDKit          3D

 41 44  0  0  0  0  0  0  0  0999 V2000
   52.4570   24.8870   44.9350 O   0  0  0  0  0  0  0  0  0  0  0  0
   53.1510   23.8700   45.2000 C   0  0  0  0  0  0  0  0  0  0  0  0
   52.5030   22.5970   45.3280 N   0  0  0  0  0  0  0  0  0  0  0  0
   52.3980   21.8290   46.5680 C   0  0  0  0  0  0  0  0  0  0  0  0
   53.7490   21.6770   47.2240 C   0  0  0  0  0  0  0  0  0  0  0  0
   54.1530   22.5740   48.2270 C   0  0  0  0  0  0  0  0  0  0  0  0
   55.3780   22.3980   48.8760 C   0  0  0  0  0  0  0  0  0  0  0  0
   56.2120   21.3320   48.5270 C   0  0  0  0  0  0  0  0  0  0  0  0
   57.3950   21.1580   49.1640 F   0  0  0  0  0  0  0  0  0  0  0  0
   55.8230   20.4430   47.5190 C   0  0  0  0  0  0  0  0  0  0  0  0
   54.6010   20.6180   46.8640 C   0  0  0  0  0  0  0  0  0  0  0  0
   54.6100   24.0040   45.3270 C   0  0  0  0  0  0  0  0  0  0  0  0
   55.4090   22.9420   45.0280 N   0  0  0  0  0  0  0  0  0  0  0  0
   56.7310   23.0790   45.0740 N   0  0  0  0  0  0  0  0  0  0  0  0
   57.6540   22.1550   44.7690 C   0  0  0  0  0  0  0  0  0  0  0  0
   58.9090   22.7360   44.8850 C   0  0  0  0  0  0  0  0  0  0  0  0
   58.7190   24.0600   45.2690 C   0  0  0  0  0  0  0  0  0  0  0  0
   57.3490   24.2270   45.3800 C   0  0  0  0  0  0  0  0  0  0  0  0
   56.6050   25.3700   45.6960 C   0  0  0  0  0  0  0  0  0  0  0  0
   57.2550   26.6640   45.9960 C   0  0  0  0  0  0  0  0  0  0  0  0
   58.0780   26.8030   47.1260 C   0  0  0  0  0  0  0  0  0  0  0  0
   58.6950   28.0270   47.4030 C   0  0  0  0  0  0  0  0  0  0  0  0
   58.4950   29.1200   46.5550 C   0  0  0  0  0  0  0  0  0  0  0  0
   59.2710   30.6550   46.9030 Cl  0  0  0  0  0  0  0  0  0  0  0  0
   57.6760   28.9900   45.4290 C   0  0  0  0  0  0  0  0  0  0  0  0
   57.0580   27.7690   45.1500 C   0  0  0  0  0  0  0  0  0  0  0  0
   55.1990   25.2420   45.6760 C   0  0  0  0  0  0  0  0  0  0  0  0
   54.3920   26.3340   45.9830 O   0  0  0  0  0  0  0  0  0  0  0  0
   51.7192   22.3510   47.2584 H   0  0  0  0  0  0  0  0  0  0  0  0
   52.0088   20.8282   46.3294 H   0  0  0  0  0  0  0  0  0  0  0  0
   53.5029   23.4176   48.5023 H   0  0  0  0  0  0  0  0  0  0  0  0
   55.6869   23.1006   49.6640 H   0  0  0  0  0  0  0  0  0  0  0  0
   56.4799   19.6053   47.2418 H   0  0  0  0  0  0  0  0  0  0  0  0
   54.3044   19.9244   46.0634 H   0  0  0  0  0  0  0  0  0  0  0  0
   57.4509   21.1142   44.4767 H   0  0  0  0  0  0  0  0  0  0  0  0
   59.8752   22.2414   44.7064 H   0  0  0  0  0  0  0  0  0  0  0  0
   59.4965   24.8174   45.4475 H   0  0  0  0  0  0  0  0  0  0  0  0
   58.2378   25.9453   47.7959 H   0  0  0  0  0  0  0  0  0  0  0  0
   59.3385   28.1298   48.2892 H   0  0  0  0  0  0  0  0  0  0  0  0
   57.5183   29.8505   44.7622 H   0  0  0  0  0  0  0  0  0  0  0  0
   56.4138   27.6716   44.2637 H   0  0  0  0  0  0  0  0  0  0  0  0
  1  2  2  0
  2  3  1  0
  3  4  1  0
  4  5  1  0
  5  6  2  0
  6  7  1  0
  7  8  2  0
  8  9  1  0
  8 10  1  0
 10 11  2  0
  2 12  1  0
 12 13  2  0
 13 14  1  0
 14 15  1  0
 15 16  2  0
 16 17  1  0
 17 18  2  0
 18 19  1  0
 19 20  1  0
 20 21  2  0
 21 22  1  0
 22 23  2  0
 23 24  1  0
 23 25  1  0
 25 26  2  0
 19 27  2  0
 27 28  1  0
 11  5  1  0
 27 12  1  0
 18 14  1  0
 26 20  1  0
  4 29  1  0
  4 30  1  0
  6 31  1  0
  7 32  1  0
 10 33  1  0
 11 34  1  0
 15 35  1  0
 16 36  1  0
 17 37  1  0
 21 38  1  0
 22 39  1  0
 25 40  1  0
 26 41  1  0
M  CHG  2   3  -1  28  -1
M  END
>  <UniqueID>  (4) 
4

>  <SMILES>  (4) 
O=C([N-]Cc1ccc(F)cc1)c1nn2cccc2c(-c2ccc(Cl)cc2)c1[O-]

>  <Energy>  (4) 
85.36822133242335

>  <Genealogy>  (4) 
O=C([N-]Cc1ccc(F)cc1)c1nn2cccc2c(-c2ccc(Cl)cc2)c1[O-] (protonated)
O=C([N-]Cc1ccc(F)cc1)c1nn2cccc2c(-c2ccc(Cl)cc2)c1[O-] (3D coordinates assigned)
O=C([N-]Cc1ccc(F)cc1)c1nn2cccc2c(-c2ccc(Cl)cc2)c1[O-] (optimized conformer: 85.36822133242335 kcal/mol)

>  <smiles>  (4) 
O=C(NCc1ccc(F)cc1)c1nn2cccc2c(-c2ccc(Cl)cc2)c1O

>  <score_type>  (4) 
oracle

>  <origin>  (4) 
adg

>  <m_score__min__energy>  (4) 
-13.27

>  <m_primary>  (4) 
energy

$$$$
4:0
     RDKit          3D

 38 39  0  0  0  0  0  0  0  0999 V2000
   57.3390   28.8820   43.5080 C   0  0  0  0  0  0  0  0  0  0  0  0
   58.4280   29.1260   44.5070 C   0  0  0  0  0  0  0  0  0  0  0  0
   59.2720   28.1080   44.9440 C   0  0  0  0  0  0  0  0  0  0  0  0
   60.3590   28.7630   46.0420 S   0  0  0  0  0  0  0  0  0  0  0  0
   59.7760   30.3360   45.9900 C   0  0  0  0  0  0  0  0  0  0  0  0
   58.6970   30.3730   45.1120 C   0  0  0  0  0  0  0  0  0  0  0  0
   57.8180   31.8660   44.7570 S   0  0  0  0  0  0  0  0  0  0  0  0
   58.1830   32.2960   43.3650 O   0  0  0  0  0  0  0  0  0  0  0  0
   56.3370   31.6090   44.8180 O   0  0  0  0  0  0  0  0  0  0  0  0
   58.2210   33.1230   45.9120 N   0  0  2  0  0  0  0  0  0  0  0  0
   57.0200   33.4570   46.6960 C   0  0  0  0  0  0  0  0  0  0  0  0
   58.7340   34.3340   45.2220 C   0  0  0  0  0  0  0  0  0  0  0  0
   59.8720   35.0100   46.0040 C   0  0  0  0  0  0  0  0  0  0  0  0
   60.1370   34.3010   47.2140 O   0  0  0  0  0  0  0  0  0  0  0  0
   61.4060   33.9030   47.6650 C   0  0  0  0  0  0  0  0  0  0  0  0
   61.7720   33.9160   49.0270 C   0  0  0  0  0  0  0  0  0  0  0  0
   63.0520   33.5080   49.4160 C   0  0  0  0  0  0  0  0  0  0  0  0
   63.9760   33.0880   48.4560 C   0  0  0  0  0  0  0  0  0  0  0  0
   63.6230   33.0770   47.1050 C   0  0  0  0  0  0  0  0  0  0  0  0
   62.3440   33.4840   46.7120 C   0  0  0  0  0  0  0  0  0  0  0  0
   56.3974   28.6710   44.0362 H   0  0  0  0  0  0  0  0  0  0  0  0
   57.2135   29.7743   42.8771 H   0  0  0  0  0  0  0  0  0  0  0  0
   57.6063   28.0215   42.8771 H   0  0  0  0  0  0  0  0  0  0  0  0
   59.2329   27.0561   44.6246 H   0  0  0  0  0  0  0  0  0  0  0  0
   60.1779   31.1911   46.5533 H   0  0  0  0  0  0  0  0  0  0  0  0
   58.9440   32.7550   46.5710 H   0  0  0  0  0  0  0  0  0  0  0  0
   57.2529   33.3922   47.7691 H   0  0  0  0  0  0  0  0  0  0  0  0
   56.6956   34.4794   46.4523 H   0  0  0  0  0  0  0  0  0  0  0  0
   56.2143   32.7488   46.4523 H   0  0  0  0  0  0  0  0  0  0  0  0
   59.1097   34.0438   44.2297 H   0  0  0  0  0  0  0  0  0  0  0  0
   57.9056   35.0533   45.1420 H   0  0  0  0  0  0  0  0  0  0  0  0
   60.7807   35.0205   45.3842 H   0  0  0  0  0  0  0  0  0  0  0  0
   59.5708   36.0383   46.2529 H   0  0  0  0  0  0  0  0  0  0  0  0
   61.0483   34.2482   49.7859 H   0  0  0  0  0  0  0  0  0  0  0  0
   63.3317   33.5178   50.4798 H   0  0  0  0  0  0  0  0  0  0  0  0
   64.9816   32.7660   48.7644 H   0  0  0  0  0  0  0  0  0  0  0  0
   64.3515   32.7480   46.3493 H   0  0  0  0  0  0  0  0  0  0  0  0
   62.0721   33.4751   45.6462 H   0  0  0  0  0  0  0  0  0  0  0  0
  1  2  1  0
  2  3  2  0
  3  4  1  0
  4  5  1  0
  5  6  2  0
  6  7  1  0
  7  8  2  0
  7  9  2  0
  7 10  1  0
 10 11  1  0
 10 12  1  0
 12 13  1  0
 13 14  1  0
 14 15  1  0
 15 16  2  0
 16 17  1  0
 17 18  2  0
 18 19  1  0
 19 20  2  0
  6  2  1  0
 20 15  1  0
  1 21  1  0
  1 22  1  0
  1 23  1  0
  3 24  1  0
  5 25  1  0
 10 26  1  1
 11 27  1  0
 11 28  1  0
 11 29  1  0
 12 30  1  0
 12 31  1  0
 13 32  1  0
 13 33  1  0
 16 34  1  0
 17 35  1  0
 18 36  1  0
 19 37  1  0
 20 38  1  0
M  CHG  1  10   1
M  END
>  <UniqueID>  (5) 
5

>  <SMILES>  (5) 
Cc1cscc1S(=O)(=O)[N@H+](C)CCOc1ccccc1

>  <Energy>  (5) 
63.01373349886143

>  <Genealogy>  (5) 
Cc1cscc1S(=O)(=O)[NH+](C)CCOc1ccccc1 (protonated)
Cc1cscc1S(=O)(=O)[N@H+](C)CCOc1ccccc1 (chirality)
Cc1cscc1S(=O)(=O)[N@H+](C)CCOc1ccccc1 (3D coordinates assigned)
Cc1cscc1S(=O)(=O)[N@H+](C)CCOc1ccccc1 (optimized conformer: 63.01373349886143 kcal/mol)

>  <smiles>  (5) 
Cc1cscc1S(=O)(=O)N(C)CCOc1ccccc1

>  <score_type>  (5) 
oracle

>  <origin>  (5) 
adg

>  <m_score__min__energy>  (5) 
-5.0499999999999998

>  <m_primary>  (5) 
energy

$$$$
5:0
     RDKit          3D

 43 45  0  0  0  0  0  0  0  0999 V2000
   59.1870   34.9730   44.9010 C   0  0  0  0  0  0  0  0  0  0  0  0
   58.8200   34.1630   46.0550 N   0  0  0  0  0  0  0  0  0  0  0  0
   59.1010   34.4590   47.3110 N   0  0  0  0  0  0  0  0  0  0  0  0
   58.5470   33.5440   48.0940 N   0  0  0  0  0  0  0  0  0  0  0  0
   57.8890   32.6540   47.3610 N   0  0  0  0  0  0  0  0  0  0  0  0
   58.0630   33.0560   46.0900 C   0  0  0  0  0  0  0  0  0  0  0  0
   57.3480   32.2340   44.6630 S   0  0  0  0  0  0  0  0  0  0  0  0
   57.4220   30.5640   45.3970 C   0  0  0  0  0  0  0  0  0  0  0  0
   56.2580   29.7460   44.9230 C   0  0  0  0  0  0  0  0  0  0  0  0
   55.3590   30.2970   44.2330 O   0  0  0  0  0  0  0  0  0  0  0  0
   56.1690   28.3400   45.1840 N   0  0  0  0  0  0  0  0  0  0  0  0
   57.2730   27.5150   45.5770 C   0  0  0  0  0  0  0  0  0  0  0  0
   58.5710   28.0240   45.4400 C   0  0  0  0  0  0  0  0  0  0  0  0
   59.6750   27.2570   45.8170 C   0  0  0  0  0  0  0  0  0  0  0  0
   59.4920   25.9660   46.3130 C   0  0  0  0  0  0  0  0  0  0  0  0
   58.2040   25.4380   46.4310 C   0  0  0  0  0  0  0  0  0  0  0  0
   57.0810   26.2050   46.0760 C   0  0  0  0  0  0  0  0  0  0  0  0
   55.7330   25.5980   46.1510 C   0  0  0  0  0  0  0  0  0  0  0  0
   54.7220   26.3320   45.9990 O   0  0  0  0  0  0  0  0  0  0  0  0
   55.5360   24.1950   46.3800 N   0  0  0  0  0  0  0  0  0  0  0  0
   55.6590   23.1350   45.3770 C   0  0  0  0  0  0  0  0  0  0  0  0
   55.4990   23.7030   43.9760 C   0  0  0  0  0  0  0  0  0  0  0  0
   56.3150   22.7910   43.0670 C   0  0  0  0  0  0  0  0  0  0  0  0
   57.2860   22.0280   43.9670 C   0  0  0  0  0  0  0  0  0  0  0  0
   57.0510   22.5250   45.3890 C   0  0  0  0  0  0  0  0  0  0  0  0
   59.6184   35.9251   45.2436 H   0  0  0  0  0  0  0  0  0  0  0  0
   59.9279   34.4321   44.2940 H   0  0  0  0  0  0  0  0  0  0  0  0
   58.2918   35.1734   44.2940 H   0  0  0  0  0  0  0  0  0  0  0  0
   58.3593   30.0740   45.0947 H   0  0  0  0  0  0  0  0  0  0  0  0
   57.3830   30.6482   46.4931 H   0  0  0  0  0  0  0  0  0  0  0  0
   58.7213   29.0347   45.0327 H   0  0  0  0  0  0  0  0  0  0  0  0
   60.6898   27.6709   45.7229 H   0  0  0  0  0  0  0  0  0  0  0  0
   60.3625   25.3634   46.6114 H   0  0  0  0  0  0  0  0  0  0  0  0
   58.0675   24.4126   46.8052 H   0  0  0  0  0  0  0  0  0  0  0  0
   54.8844   22.3930   45.6209 H   0  0  0  0  0  0  0  0  0  0  0  0
   54.4404   23.6951   43.6773 H   0  0  0  0  0  0  0  0  0  0  0  0
   55.8420   24.7466   43.9188 H   0  0  0  0  0  0  0  0  0  0  0  0
   55.6521   22.0874   42.5422 H   0  0  0  0  0  0  0  0  0  0  0  0
   56.8554   23.3725   42.3055 H   0  0  0  0  0  0  0  0  0  0  0  0
   57.0894   20.9474   43.9061 H   0  0  0  0  0  0  0  0  0  0  0  0
   58.3277   22.1969   43.6568 H   0  0  0  0  0  0  0  0  0  0  0  0
   57.0989   21.6888   46.1020 H   0  0  0  0  0  0  0  0  0  0  0  0
   57.8146   23.2531   45.6999 H   0  0  0  0  0  0  0  0  0  0  0  0
  1  2  1  0
  2  3  1  0
  3  4  2  0
  4  5  1  0
  5  6  2  0
  6  7  1  0
  7  8  1  0
  8  9  1  0
  9 10  2  0
  9 11  1  0
 11 12  1  0
 12 13  2  0
 13 14  1  0
 14 15  2  0
 15 16  1  0
 16 17  2  0
 17 18  1  0
 18 19  2  0
 18 20  1  0
 20 21  1  0
 21 22  1  0
 22 23  1  0
 23 24  1  0
 24 25  1  0
  6  2  1  0
 17 12  1  0
 25 21  1  0
  1 26  1  0
  1 27  1  0
  1 28  1  0
  8 29  1  0
  8 30  1  0
 13 31  1  0
 14 32  1  0
 15 33  1  0
 16 34  1  0
 21 35  1  0
 22 36  1  0
 22 37  1  0
 23 38  1  0
 23 39  1  0
 24 40  1  0
 24 41  1  0
 25 42  1  0
 25 43  1  0
M  CHG  2  11  -1  20  -1
M  END
>  <UniqueID>  (6) 
6

>  <SMILES>  (6) 
Cn1nnnc1SCC(=O)[N-]c1ccccc1C(=O)[N-]C1CCCC1

>  <Energy>  (6) 
87.66627325536871

>  <Genealogy>  (6) 
Cn1nnnc1SCC(=O)[N-]c1ccccc1C(=O)[N-]C1CCCC1 (protonated)
Cn1nnnc1SCC(=O)[N-]c1ccccc1C(=O)[N-]C1CCCC1 (3D coordinates assigned)
Cn1nnnc1SCC(=O)[N-]c1ccccc1C(=O)[N-]C1CCCC1 (nonaromatic ring conformer: 87.66627325536871 kcal/mol)

>  <smiles>  (6) 
Cn1nnnc1SCC(=O)Nc1ccccc1C(=O)NC1CCCC1

>  <score_type>  (6) 
oracle

>  <origin>  (6) 
adg

>  <m_score__min__energy>  (6) 
-13.67

>  <m_primary>  (6) 
energy

$$$$
6:0
     RDKit          3D

 35 37  0  0  1  0  0  0  0  0999 V2000
   56.6330   34.6470   45.0120 N   0  0  0  0  0  0  0  0  0  0  0  0
   57.4780   33.6730   45.2160 C   0  0  0  0  0  0  0  0  0  0  0  0
   58.4970   33.8710   46.0840 N   0  0  0  0  0  0  0  0  0  0  0  0
   59.4190   32.9290   46.3600 C   0  0  0  0  0  0  0  0  0  0  0  0
   60.5150   33.1400   47.2940 C   0  0  0  0  0  0  0  0  0  0  0  0
   60.3730   33.9770   48.3980 C   0  0  0  0  0  0  0  0  0  0  0  0
   61.4120   34.1810   49.2860 C   0  0  0  0  0  0  0  0  0  0  0  0
   62.6240   33.5780   49.1320 C   0  0  0  0  0  0  0  0  0  0  0  0
   62.7920   32.7440   48.0460 C   0  0  0  0  0  0  0  0  0  0  0  0
   61.7380   32.5380   47.1450 C   0  0  0  0  0  0  0  0  0  0  0  0
   59.2770   31.7220   45.7040 C   0  0  0  0  0  0  0  0  0  0  0  0
   58.2300   31.4960   44.8020 C   0  0  0  0  0  0  0  0  0  0  0  0
   58.0930   30.3700   44.1870 N   0  0  0  0  0  0  0  0  0  0  0  0
   57.9950   29.1980   44.9740 C   0  0  0  0  0  0  0  0  0  0  0  0
   59.1150   28.6790   45.6300 C   0  0  0  0  0  0  0  0  0  0  0  0
   58.9820   27.5190   46.3990 C   0  0  0  0  0  0  0  0  0  0  0  0
   57.7550   26.8770   46.5200 C   0  0  0  0  0  0  0  0  0  0  0  0
   56.6450   27.4070   45.8590 C   0  0  0  0  0  0  0  0  0  0  0  0
   55.4020   26.7590   45.9780 O   0  0  0  0  0  0  0  0  0  0  0  0
   56.7760   28.5540   45.0970 C   0  0  0  0  0  0  0  0  0  0  0  0
   57.3470   32.4800   44.5750 N   0  0  0  0  0  0  0  0  0  0  0  0
   55.9270   34.8020   45.7600 H   0  0  0  0  0  0  0  0  0  0  0  0
   58.5330   34.8060   46.5350 H   0  0  0  0  0  0  0  0  0  0  0  0
   59.4130   34.4868   48.5668 H   0  0  0  0  0  0  0  0  0  0  0  0
   61.2556   34.8512   50.1441 H   0  0  0  0  0  0  0  0  0  0  0  0
   63.4404   33.7502   49.8488 H   0  0  0  0  0  0  0  0  0  0  0  0
   63.7561   32.2390   47.8866 H   0  0  0  0  0  0  0  0  0  0  0  0
   61.8979   31.8687   46.2868 H   0  0  0  0  0  0  0  0  0  0  0  0
   60.0039   30.9188   45.8947 H   0  0  0  0  0  0  0  0  0  0  0  0
   60.0912   29.1783   45.5420 H   0  0  0  0  0  0  0  0  0  0  0  0
   59.8616   27.1081   46.9161 H   0  0  0  0  0  0  0  0  0  0  0  0
   57.6598   25.9649   47.1275 H   0  0  0  0  0  0  0  0  0  0  0  0
   55.1250   26.3410   46.8750 H   0  0  0  0  0  0  0  0  0  0  0  0
   55.8953   28.9618   44.5793 H   0  0  0  0  0  0  0  0  0  0  0  0
   56.5580   32.3520   43.9130 H   0  0  0  0  0  0  0  0  0  0  0  0
  1  2  2  3
  2  3  1  0
  3  4  1  0
  4  5  1  0
  5  6  2  0
  6  7  1  0
  7  8  2  0
  8  9  1  0
  9 10  2  0
  4 11  2  0
 11 12  1  0
 12 13  2  0
 13 14  1  0
 14 15  2  0
 15 16  1  0
 16 17  2  0
 17 18  1  0
 18 19  1  0
 18 20  2  0
 12 21  1  0
 21  2  1  0
 10  5  1  0
 20 14  1  0
  1 22  1  0
  3 23  1  0
  6 24  1  0
  7 25  1  0
  8 26  1  0
  9 27  1  0
 10 28  1  0
 11 29  1  0
 15 30  1  0
 16 31  1  0
 17 32  1  0
 19 33  1  0
 20 34  1  0
 21 35  1  0
M  END
>  <smiles>  (7) 
N=c1[nH]c(-c2ccccc2)cc(=Nc2cccc(O)c2)[nH]1

>  <score_type>  (7) 
oracle

>  <origin>  (7) 
adg

>  <m_score__min__energy>  (7) 
-8.8599999999999994

>  <m_primary>  (7) 
energy

$$$$
7:0
     RDKit          3D

 55 58  0  0  0  0  0  0  0  0999 V2000
   57.6830   33.1110   44.8010 C   0  0  0  0  0  0  0  0  0  0  0  0
   57.7710   32.5140   43.4000 C   0  0  0  0  0  0  0  0  0  0  0  0
   58.1470   31.1040   43.4670 N   0  0  0  0  0  0  0  0  0  0  0  0
   57.3320   30.1180   44.1170 C   0  0  0  0  0  0  0  0  0  0  0  0
   56.2400   30.4480   44.6550 O   0  0  0  0  0  0  0  0  0  0  0  0
   57.7430   28.6780   44.1100 C   0  0  0  0  0  0  0  0  0  0  0  0
   58.1420   28.2620   45.4590 N   0  0  0  0  0  0  0  0  0  0  0  0
   57.9400   27.0520   46.0570 C   0  0  0  0  0  0  0  0  0  0  0  0
   57.1350   25.9580   45.4840 C   0  0  0  0  0  0  0  0  0  0  0  0
   55.8880   25.6180   46.0350 C   0  0  0  0  0  0  0  0  0  0  0  0
   55.1380   24.5730   45.4860 C   0  0  0  0  0  0  0  0  0  0  0  0
   55.6320   23.8540   44.3940 C   0  0  0  0  0  0  0  0  0  0  0  0
   56.8820   24.1710   43.8570 C   0  0  0  0  0  0  0  0  0  0  0  0
   57.6360   25.2150   44.4030 C   0  0  0  0  0  0  0  0  0  0  0  0
   58.6280   26.9020   47.2190 N   0  0  0  0  0  0  0  0  0  0  0  0
   59.2730   28.0750   47.3440 C   0  0  0  0  0  0  0  0  0  0  0  0
   60.1500   28.4500   48.3570 C   0  0  0  0  0  0  0  0  0  0  0  0
   60.7620   29.7110   48.2620 C   0  0  0  0  0  0  0  0  0  0  0  0
   60.5000   30.5640   47.1570 C   0  0  0  0  0  0  0  0  0  0  0  0
   61.1350   31.8530   47.0700 N   0  0  0  0  0  0  0  0  0  0  0  0
   60.4040   33.0320   46.5930 C   0  0  0  0  0  0  0  0  0  0  0  0
   60.4360   34.1430   47.6570 C   0  0  0  0  0  0  0  0  0  0  0  0
   61.6780   34.1610   48.4740 N   0  0  0  0  0  0  0  0  0  0  0  0
   61.4490   33.6350   49.8310 C   0  0  0  0  0  0  0  0  0  0  0  0
   62.8250   33.4980   47.8150 C   0  0  0  0  0  0  0  0  0  0  0  0
   62.5280   32.0220   47.4970 C   0  0  0  0  0  0  0  0  0  0  0  0
   59.5950   30.1460   46.1550 C   0  0  0  0  0  0  0  0  0  0  0  0
   58.9980   28.8900   46.2880 C   0  0  0  0  0  0  0  0  0  0  0  0
   57.8007   32.3122   45.5480 H   0  0  0  0  0  0  0  0  0  0  0  0
   58.4809   33.8566   44.9326 H   0  0  0  0  0  0  0  0  0  0  0  0
   56.7039   33.5947   44.9326 H   0  0  0  0  0  0  0  0  0  0  0  0
   56.7924   32.6045   42.9059 H   0  0  0  0  0  0  0  0  0  0  0  0
   58.5365   33.0594   42.8285 H   0  0  0  0  0  0  0  0  0  0  0  0
   59.0180   30.7990   42.9770 H   0  0  0  0  0  0  0  0  0  0  0  0
   56.8976   28.0598   43.7736 H   0  0  0  0  0  0  0  0  0  0  0  0
   58.5952   28.5497   43.4264 H   0  0  0  0  0  0  0  0  0  0  0  0
   55.5006   26.1753   46.9006 H   0  0  0  0  0  0  0  0  0  0  0  0
   54.1578   24.3166   45.9143 H   0  0  0  0  0  0  0  0  0  0  0  0
   55.0365   23.0386   43.9575 H   0  0  0  0  0  0  0  0  0  0  0  0
   57.2740   23.5987   43.0033 H   0  0  0  0  0  0  0  0  0  0  0  0
   58.6245   25.4547   43.9842 H   0  0  0  0  0  0  0  0  0  0  0  0
   60.3575   27.7807   49.2049 H   0  0  0  0  0  0  0  0  0  0  0  0
   61.4520   30.0415   49.0524 H   0  0  0  0  0  0  0  0  0  0  0  0
   60.8725   33.4006   45.6685 H   0  0  0  0  0  0  0  0  0  0  0  0
   59.3584   32.7516   46.3980 H   0  0  0  0  0  0  0  0  0  0  0  0
   60.3431   35.1133   47.1471 H   0  0  0  0  0  0  0  0  0  0  0  0
   59.6029   33.9466   48.3479 H   0  0  0  0  0  0  0  0  0  0  0  0
   61.7733   34.3799   50.5726 H   0  0  0  0  0  0  0  0  0  0  0  0
   60.3779   33.4247   49.9668 H   0  0  0  0  0  0  0  0  0  0  0  0
   62.0248   32.7077   49.9668 H   0  0  0  0  0  0  0  0  0  0  0  0
   63.0500   34.0259   46.8765 H   0  0  0  0  0  0  0  0  0  0  0  0
   63.6816   33.5330   48.5042 H   0  0  0  0  0  0  0  0  0  0  0  0
   63.1961   31.6850   46.6907 H   0  0  0  0  0  0  0  0  0  0  0  0
   62.6940   31.4245   48.4055 H   0  0  0  0  0  0  0  0  0  0  0  0
   59.3670   30.7918   45.2942 H   0  0  0  0  0  0  0  0  0  0  0  0
  1  2  1  0
  2  3  1  0
  3  4  1  0
  4  5  2  0
  4  6  1  0
  6  7  1  0
  7  8  1  0
  8  9  1  0
  9 10  2  0
 10 11  1  0
 11 12  2  0
 12 13  1  0
 13 14  2  0
  8 15  2  0
 15 16  1  0
 16 17  2  0
 17 18  1  0
 18 19  2  0
 19 20  1  0
 20 21  1  0
 21 22  1  0
 22 23  1  0
 23 24  1  0
 23 25  1  0
 25 26  1  0
 19 27  1  0
 27 28  2  0
 28  7  1  0
 14  9  1  0
 28 16  1  0
 26 20  1  0
  1 29  1  0
  1 30  1  0
  1 31  1  0
  2 32  1  0
  2 33  1  0
  3 34  1  0
  6 35  1  0
  6 36  1  0
 10 37  1  0
 11 38  1  0
 12 39  1  0
 13 40  1  0
 14 41  1  0
 17 42  1  0
 18 43  1  0
 21 44  1  0
 21 45  1  0
 22 46  1  0
 22 47  1  0
 24 48  1  0
 24 49  1  0
 24 50  1  0
 25 51  1  0
 25 52  1  0
 26 53  1  0
 26 54  1  0
 27 55  1  0
M  END
>  <UniqueID>  (8) 
7

>  <SMILES>  (8) 
CCNC(=O)Cn1c(-c2ccccc2)nc2ccc(N3CCN(C)CC3)cc21

>  <Energy>  (8) 
104.48196388824412

>  <Genealogy>  (8) 
CCNC(=O)Cn1c(-c2ccccc2)nc2ccc(N3CCN(C)CC3)cc21 (3D coordinates assigned)
CCNC(=O)Cn1c(-c2ccccc2)nc2ccc(N3CCN(C)CC3)cc21 (nonaromatic ring conformer: 104.48196388824412 kcal/mol)

>  <smiles>  (8) 
CCNC(=O)Cn1c(-c2ccccc2)nc2ccc(N3CCN(C)CC3)cc21

>  <score_type>  (8) 
oracle

>  <origin>  (8) 
adg

>  <m_score__min__energy>  (8) 
-8.5999999999999996

>  <m_primary>  (8) 
energy

$$$$
8:0
     RDKit          3D

 42 44  0  0  0  0  0  0  0  0999 V2000
   60.6155   25.4342   46.2037 H   0  0  0  0  0  0  0  0  0  0  0  0
   59.9760   26.0870   46.8160 C   0  0  0  0  0  0  0  0  0  0  0  0
   60.5080   26.8070   47.7590 N   0  0  0  0  0  0  0  0  0  0  0  0
   60.5060   28.2430   47.8470 C   0  0  0  0  0  0  0  0  0  0  0  0
   60.5300   28.9770   46.6550 C   0  0  0  0  0  0  0  0  0  0  0  0
   60.5554   28.4478   45.6910 H   0  0  0  0  0  0  0  0  0  0  0  0
   60.5220   30.3730   46.6760 C   0  0  0  0  0  0  0  0  0  0  0  0
   60.5567   30.9337   45.7303 H   0  0  0  0  0  0  0  0  0  0  0  0
   60.4700   31.0660   47.8960 C   0  0  0  0  0  0  0  0  0  0  0  0
   60.4760   32.5070   47.9190 N   0  0  0  0  0  0  0  0  0  0  0  0
   59.2920   33.2410   48.3790 C   0  0  0  0  0  0  0  0  0  0  0  0
   59.2720   33.2413   49.4788 H   0  0  0  0  0  0  0  0  0  0  0  0
   58.3931   32.7473   47.9812 H   0  0  0  0  0  0  0  0  0  0  0  0
   59.3230   34.6940   47.8740 C   0  0  0  0  0  0  0  0  0  0  0  0
   59.9558   35.2910   48.5471 H   0  0  0  0  0  0  0  0  0  0  0  0
   58.2903   35.0726   47.8611 H   0  0  0  0  0  0  0  0  0  0  0  0
   59.8630   34.7890   46.5010 N   0  0  0  0  0  0  0  0  0  0  0  0
   58.9580   34.1740   45.5140 C   0  0  0  0  0  0  0  0  0  0  0  0
   58.1583   33.6305   46.0385 H   0  0  0  0  0  0  0  0  0  0  0  0
   58.5153   34.9590   44.8834 H   0  0  0  0  0  0  0  0  0  0  0  0
   59.5249   33.4733   44.8834 H   0  0  0  0  0  0  0  0  0  0  0  0
   61.2510   34.2700   46.3770 C   0  0  0  0  0  0  0  0  0  0  0  0
   61.9443   35.1231   46.4175 H   0  0  0  0  0  0  0  0  0  0  0  0
   61.3036   33.7266   45.4220 H   0  0  0  0  0  0  0  0  0  0  0  0
   61.6470   33.2710   47.4810 C   0  0  0  0  0  0  0  0  0  0  0  0
   62.0618   33.8224   48.3377 H   0  0  0  0  0  0  0  0  0  0  0  0
   62.3992   32.5752   47.0810 H   0  0  0  0  0  0  0  0  0  0  0  0
   60.4400   30.3340   49.0940 C   0  0  0  0  0  0  0  0  0  0  0  0
   60.4076   30.8648   50.0569 H   0  0  0  0  0  0  0  0  0  0  0  0
   60.4510   28.9350   49.0730 C   0  0  0  0  0  0  0  0  0  0  0  0
   60.4166   28.3729   50.0179 H   0  0  0  0  0  0  0  0  0  0  0  0
   58.5230   26.1360   46.5580 C   0  0  0  0  0  0  0  0  0  0  0  0
   57.6650   25.1060   46.9920 C   0  0  0  0  0  0  0  0  0  0  0  0
   58.0767   24.2431   47.5360 H   0  0  0  0  0  0  0  0  0  0  0  0
   56.2920   25.1760   46.7340 C   0  0  0  0  0  0  0  0  0  0  0  0
   55.6274   24.3683   47.0745 H   0  0  0  0  0  0  0  0  0  0  0  0
   55.7630   26.2710   46.0440 C   0  0  0  0  0  0  0  0  0  0  0  0
   54.3990   26.3370   45.7900 O   0  0  0  0  0  0  0  0  0  0  0  0
   56.6060   27.2960   45.6100 C   0  0  0  0  0  0  0  0  0  0  0  0
   56.1890   28.1569   45.0668 H   0  0  0  0  0  0  0  0  0  0  0  0
   57.9810   27.2300   45.8650 C   0  0  0  0  0  0  0  0  0  0  0  0
   58.6405   28.0401   45.5203 H   0  0  0  0  0  0  0  0  0  0  0  0
  1  2  1  0
  2  3  2  0
  3  4  1  0
  4  5  2  0
  5  6  1  0
  5  7  1  0
  7  8  1  0
  7  9  2  0
  9 10  1  0
 10 11  1  0
 11 12  1  0
 11 13  1  0
 11 14  1  0
 14 15  1  0
 14 16  1  0
 14 17  1  0
 17 18  1  0
 18 19  1  0
 18 20  1  0
 18 21  1  0
 17 22  1  0
 22 23  1  0
 22 24  1  0
 22 25  1  0
 25 26  1  0
 25 27  1  0
  9 28  1  0
 28 29  1  0
 28 30  2  0
 30 31  1  0
  2 32  1  0
 32 33  2  0
 33 34  1  0
 33 35  1  0
 35 36  1  0
 35 37  2  0
 37 38  1  0
 37 39  1  0
 39 40  1  0
 39 41  2  0
 41 42  1  0
 30  4  1  0
 41 32  1  0
 25 10  1  0
M  CHG  1  38  -1
M  END
>  <UniqueID>  (9) 
8

>  <SMILES>  (9) 
CN1CCN(c2ccc(/N=C/c3ccc([O-])cc3)cc2)CC1

>  <Energy>  (9) 
57.63413200951415

>  <Genealogy>  (9) 
CN1CCN(c2ccc(N=Cc3ccc([O-])cc3)cc2)CC1 (protonated)
CN1CCN(c2ccc(/N=C/c3ccc([O-])cc3)cc2)CC1 (cis-trans isomerization)
CN1CCN(c2ccc(/N=C/c3ccc([O-])cc3)cc2)CC1 (3D coordinates assigned)
CN1CCN(c2ccc(/N=C/c3ccc([O-])cc3)cc2)CC1 (nonaromatic ring conformer: 57.63413200951415 kcal/mol)

>  <smiles>  (9) 
CN1CCN(c2ccc(N=Cc3ccc(O)cc3)cc2)CC1

>  <score_type>  (9) 
oracle

>  <origin>  (9) 
adg

>  <m_score__min__energy>  (9) 
-10.859999999999999

>  <m_primary>  (9) 
energy

$$$$
9:0
     RDKit          3D

 31 33  0  0  0  0  0  0  0  0999 V2000
   56.5811   34.3228   44.5469 H   0  0  0  0  0  0  0  0  0  0  0  0
   57.4770   33.7450   44.8180 C   0  0  0  0  0  0  0  0  0  0  0  0
   58.6310   34.3900   45.0400 C   0  0  0  0  0  0  0  0  0  0  0  0
   58.9623   35.1155   44.2825 H   0  0  0  0  0  0  0  0  0  0  0  0
   59.4970   34.1980   46.2340 C   0  0  0  0  0  0  0  0  0  0  0  0
   60.8630   33.8500   46.1540 C   0  0  0  0  0  0  0  0  0  0  0  0
   61.3342   33.7085   45.1702 H   0  0  0  0  0  0  0  0  0  0  0  0
   61.6210   33.6840   47.3180 C   0  0  0  0  0  0  0  0  0  0  0  0
   62.6844   33.4122   47.2453 H   0  0  0  0  0  0  0  0  0  0  0  0
   61.0330   33.8620   48.5710 C   0  0  0  0  0  0  0  0  0  0  0  0
   61.6325   33.7310   49.4839 H   0  0  0  0  0  0  0  0  0  0  0  0
   59.6850   34.2060   48.6650 C   0  0  0  0  0  0  0  0  0  0  0  0
   59.2217   34.3455   49.6529 H   0  0  0  0  0  0  0  0  0  0  0  0
   58.9210   34.3740   47.5060 C   0  0  0  0  0  0  0  0  0  0  0  0
   57.8586   34.6466   47.5893 H   0  0  0  0  0  0  0  0  0  0  0  0
   57.3830   32.2820   44.9290 C   0  0  0  0  0  0  0  0  0  0  0  0
   56.2700   31.5810   44.6480 N   0  0  0  0  0  0  0  0  0  0  0  0
   56.5680   30.3090   44.8630 N   0  0  0  0  0  0  0  0  0  0  0  0
   57.8540   30.2820   45.2660 C   0  0  0  0  0  0  0  0  0  0  0  0
   58.5970   29.0550   45.6140 C   0  0  0  0  0  0  0  0  0  0  0  0
   59.9900   28.9860   45.4350 C   0  0  0  0  0  0  0  0  0  0  0  0
   60.5337   29.8527   45.0311 H   0  0  0  0  0  0  0  0  0  0  0  0
   60.6870   27.8210   45.7680 C   0  0  0  0  0  0  0  0  0  0  0  0
   61.7769   27.7740   45.6267 H   0  0  0  0  0  0  0  0  0  0  0  0
   60.0020   26.7160   46.2800 C   0  0  0  0  0  0  0  0  0  0  0  0
   60.5527   25.8000   46.5401 H   0  0  0  0  0  0  0  0  0  0  0  0
   58.6160   26.7740   46.4620 C   0  0  0  0  0  0  0  0  0  0  0  0
   57.7570   25.3870   47.1040 Cl  0  0  0  0  0  0  0  0  0  0  0  0
   57.9150   27.9400   46.1300 C   0  0  0  0  0  0  0  0  0  0  0  0
   56.8253   27.9832   46.2738 H   0  0  0  0  0  0  0  0  0  0  0  0
   58.3600   31.4920   45.3080 O   0  0  0  0  0  0  0  0  0  0  0  0
  1  2  1  0
  2  3  2  0
  3  4  1  0
  3  5  1  0
  5  6  2  0
  6  7  1  0
  6  8  1  0
  8  9  1  0
  8 10  2  0
 10 11  1  0
 10 12  1  0
 12 13  1  0
 12 14  2  0
 14 15  1  0
  2 16  1  0
 16 17  2  0
 17 18  1  0
 18 19  2  0
 19 20  1  0
 20 21  2  0
 21 22  1  0
 21 23  1  0
 23 24  1  0
 23 25  2  0
 25 26  1  0
 25 27  1  0
 27 28  1  0
 27 29  2  0
 29 30  1  0
 19 31  1  0
 14  5  1  0
 31 16  1  0
 29 20  1  0
M  END
>  <UniqueID>  (10) 
9

>  <SMILES>  (10) 
Clc1cccc(-c2nnc(/C=C/c3ccccc3)o2)c1

>  <Energy>  (10) 
69.39545262022017

>  <Genealogy>  (10) 
Clc1cccc(-c2nnc(/C=C/c3ccccc3)o2)c1 (cis-trans isomerization)
Clc1cccc(-c2nnc(/C=C/c3ccccc3)o2)c1 (3D coordinates assigned)
Clc1cccc(-c2nnc(/C=C/c3ccccc3)o2)c1 (optimized conformer: 69.39545262022017 kcal/mol)

>  <smiles>  (10) 
Clc1cccc(-c2nnc(C=Cc3ccccc3)o2)c1

>  <score_type>  (10) 
oracle

>  <origin>  (10) 
adg

>  <m_score__min__energy>  (10) 
-7.9900000000000002

>  <m_primary>  (10) 
energy

$$$$
10:0
     RDKit          3D

 22 23  0  0  0  0  0  0  0  0999 V2000
   57.7740   32.3810   43.1810 C   0  0  0  0  0  0  0  0  0  0  0  0
   57.4010   31.2280   44.4860 S   0  0  0  0  0  0  0  0  0  0  0  0
   55.9330   30.9070   44.5020 O   0  0  0  0  0  0  0  0  0  0  0  0
   57.7710   31.8580   45.7990 O   0  0  0  0  0  0  0  0  0  0  0  0
   58.3270   29.7730   44.2810 N   0  0  0  0  0  0  0  0  0  0  0  0
   58.1290   28.5660   45.0390 C   0  0  0  0  0  0  0  0  0  0  0  0
   59.2610   27.9240   45.6150 C   0  0  0  0  0  0  0  0  0  0  0  0
   59.1220   26.7410   46.3680 C   0  0  0  0  0  0  0  0  0  0  0  0
   57.8400   26.2300   46.5250 C   0  0  0  0  0  0  0  0  0  0  0  0
   57.4410   25.1280   47.1910 N   0  0  0  0  0  0  0  0  0  0  0  0
   56.1160   25.0780   47.0460 N   0  0  0  0  0  0  0  0  0  0  0  0
   55.6910   26.1030   46.3190 N   0  0  0  0  0  0  0  0  0  0  0  0
   54.3770   26.3410   45.9880 O   0  0  0  0  0  0  0  0  0  0  0  0
   56.7540   26.8380   45.9810 C   0  0  0  0  0  0  0  0  0  0  0  0
   56.8390   28.0060   45.2330 C   0  0  0  0  0  0  0  0  0  0  0  0
   58.0847   33.3415   43.6180 H   0  0  0  0  0  0  0  0  0  0  0  0
   58.5884   31.9804   42.5595 H   0  0  0  0  0  0  0  0  0  0  0  0
   56.8793   32.5333   42.5595 H   0  0  0  0  0  0  0  0  0  0  0  0
   59.0390   29.7760   43.5170 H   0  0  0  0  0  0  0  0  0  0  0  0
   60.2611   28.3585   45.4700 H   0  0  0  0  0  0  0  0  0  0  0  0
   59.9948   26.2417   46.8141 H   0  0  0  0  0  0  0  0  0  0  0  0
   55.9413   28.4785   44.8076 H   0  0  0  0  0  0  0  0  0  0  0  0
  1  2  1  0
  2  3  2  0
  2  4  2  0
  2  5  1  0
  5  6  1  0
  6  7  2  0
  7  8  1  0
  8  9  2  0
  9 10  1  0
 10 11  2  0
 11 12  1  0
 12 13  1  0
 12 14  1  0
 14 15  2  0
 15  6  1  0
 14  9  1  0
  1 16  1  0
  1 17  1  0
  1 18  1  0
  5 19  1  0
  7 20  1  0
  8 21  1  0
 15 22  1  0
M  CHG  1  13  -1
M  END
>  <UniqueID>  (11) 
10

>  <SMILES>  (11) 
CS(=O)(=O)Nc1ccc2nnn([O-])c2c1

>  <Energy>  (11) 
67.1083385897098

>  <Genealogy>  (11) 
CS(=O)(=O)Nc1ccc2nnn([O-])c2c1 (protonated)
CS(=O)(=O)Nc1ccc2nnn([O-])c2c1 (3D coordinates assigned)
CS(=O)(=O)Nc1ccc2nnn([O-])c2c1 (optimized conformer: 67.1083385897098 kcal/mol)

>  <smiles>  (11) 
CS(=O)(=O)Nc1ccc2nnn(O)c2c1

>  <score_type>  (11) 
oracle

>  <origin>  (11) 
adg

>  <m_score__min__energy>  (11) 
-10.880000000000001

>  <m_primary>  (11) 
energy

$$$$
11:0
     RDKit          3D

 51 55  0  0  0  0  0  0  0  0999 V2000
   57.7990   33.6193   42.7688 H   0  0  0  0  0  0  0  0  0  0  0  0
   57.7660   32.7020   43.3750 C   0  0  0  0  0  0  0  0  0  0  0  0
   57.5860   31.4610   42.7560 C   0  0  0  0  0  0  0  0  0  0  0  0
   57.4821   31.4022   41.6625 H   0  0  0  0  0  0  0  0  0  0  0  0
   57.5380   30.2950   43.5260 C   0  0  0  0  0  0  0  0  0  0  0  0
   57.4067   29.3191   43.0357 H   0  0  0  0  0  0  0  0  0  0  0  0
   57.6570   30.3660   44.9240 C   0  0  0  0  0  0  0  0  0  0  0  0
   57.6330   29.1400   45.7420 C   0  0  0  0  0  0  0  0  0  0  0  0
   56.7160   28.1850   45.4360 N   0  0  0  0  0  0  0  0  0  0  0  0
   56.6440   27.0200   46.1260 C   0  0  0  0  0  0  0  0  0  0  0  0
   55.7480   26.1390   45.7990 N   0  0  0  0  0  0  0  0  0  0  0  0
   56.0360   24.7270   45.5730 C   0  0  0  0  0  0  0  0  0  0  0  0
   56.1405   24.2146   46.5408 H   0  0  0  0  0  0  0  0  0  0  0  0
   55.2123   24.2713   45.0039 H   0  0  0  0  0  0  0  0  0  0  0  0
   56.9724   24.6303   45.0039 H   0  0  0  0  0  0  0  0  0  0  0  0
   57.5140   26.7870   47.1440 N   0  0  0  0  0  0  0  0  0  0  0  0
   58.4520   27.7040   47.4970 C   0  0  0  0  0  0  0  0  0  0  0  0
   58.5440   28.9210   46.7990 C   0  0  0  0  0  0  0  0  0  0  0  0
   59.6600   29.9060   47.1050 C   0  0  0  0  0  0  0  0  0  0  0  0
   59.2273   30.9160   47.1573 H   0  0  0  0  0  0  0  0  0  0  0  0
   60.4038   29.8096   46.3004 H   0  0  0  0  0  0  0  0  0  0  0  0
   60.3590   29.6330   48.3730 N   0  0  0  0  0  0  0  0  0  0  0  0
   61.4740   30.4760   48.7320 C   0  0  0  0  0  0  0  0  0  0  0  0
   62.2070   30.1620   49.7090 O   0  0  0  0  0  0  0  0  0  0  0  0
   61.8170   31.6840   47.9450 C   0  0  0  0  0  0  0  0  0  0  0  0
   63.1290   31.8070   47.4610 C   0  0  0  0  0  0  0  0  0  0  0  0
   63.8546   31.0013   47.6462 H   0  0  0  0  0  0  0  0  0  0  0  0
   63.5230   32.9390   46.7480 C   0  0  0  0  0  0  0  0  0  0  0  0
   64.5540   33.0189   46.3729 H   0  0  0  0  0  0  0  0  0  0  0  0
   62.6160   33.9690   46.5090 C   0  0  0  0  0  0  0  0  0  0  0  0
   62.9362   34.8624   45.9529 H   0  0  0  0  0  0  0  0  0  0  0  0
   61.2970   33.8720   46.9740 C   0  0  0  0  0  0  0  0  0  0  0  0
   60.3860   34.9090   46.7180 C   0  0  0  0  0  0  0  0  0  0  0  0
   60.7135   35.8026   46.1664 H   0  0  0  0  0  0  0  0  0  0  0  0
   59.0660   34.8100   47.1610 C   0  0  0  0  0  0  0  0  0  0  0  0
   58.3583   35.6287   46.9637 H   0  0  0  0  0  0  0  0  0  0  0  0
   58.6420   33.6760   47.8530 C   0  0  0  0  0  0  0  0  0  0  0  0
   57.5983   33.6001   48.1920 H   0  0  0  0  0  0  0  0  0  0  0  0
   59.5370   32.6350   48.1180 C   0  0  0  0  0  0  0  0  0  0  0  0
   59.1912   31.7419   48.6592 H   0  0  0  0  0  0  0  0  0  0  0  0
   60.8810   32.7220   47.6960 C   0  0  0  0  0  0  0  0  0  0  0  0
   59.8440   28.6340   49.3210 C   0  0  0  0  0  0  0  0  0  0  0  0
   58.9730   29.0494   49.8491 H   0  0  0  0  0  0  0  0  0  0  0  0
   60.6355   28.3821   50.0422 H   0  0  0  0  0  0  0  0  0  0  0  0
   59.4270   27.3700   48.5790 C   0  0  0  0  0  0  0  0  0  0  0  0
   58.9583   26.6710   49.2873 H   0  0  0  0  0  0  0  0  0  0  0  0
   60.3180   26.9079   48.1288 H   0  0  0  0  0  0  0  0  0  0  0  0
   57.8560   31.6120   45.5370 C   0  0  0  0  0  0  0  0  0  0  0  0
   57.9747   31.6732   46.6289 H   0  0  0  0  0  0  0  0  0  0  0  0
   57.9040   32.7770   44.7640 C   0  0  0  0  0  0  0  0  0  0  0  0
   58.0505   33.7530   45.2497 H   0  0  0  0  0  0  0  0  0  0  0  0
  1  2  1  0
  2  3  2  0
  3  4  1  0
  3  5  1  0
  5  6  1  0
  5  7  2  0
  7  8  1  0
  8  9  2  0
  9 10  1  0
 10 11  2  0
 11 12  1  0
 12 13  1  0
 12 14  1  0
 12 15  1  0
 10 16  1  0
 16 17  1  0
 17 18  2  0
 18 19  1  0
 19 20  1  0
 19 21  1  0
 19 22  1  0
 22 23  1  0
 23 24  2  0
 23 25  1  0
 25 26  2  0
 26 27  1  0
 26 28  1  0
 28 29  1  0
 28 30  2  0
 30 31  1  0
 30 32  1  0
 32 33  2  0
 33 34  1  0
 33 35  1  0
 35 36  1  0
 35 37  2  0
 37 38  1  0
 37 39  1  0
 39 40  1  0
 39 41  2  0
 22 42  1  0
 42 43  1  0
 42 44  1  0
 42 45  1  0
 45 46  1  0
 45 47  1  0
  7 48  1  0
 48 49  1  0
 48 50  2  0
 50 51  1  0
 50  2  1  0
 18  8  1  0
 41 25  1  0
 45 17  1  0
 41 32  1  0
M  CHG  1  16  -1
M  END
>  <UniqueID>  (12) 
11

>  <SMILES>  (12) 
C/N=c1/nc(-c2ccccc2)c2c([n-]1)CCN(C(=O)c1cccc3ccccc13)C2

>  <Energy>  (12) 
77.60526797760879

>  <Genealogy>  (12) 
CN=c1nc(-c2ccccc2)c2c([n-]1)CCN(C(=O)c1cccc3ccccc13)C2 (protonated)
C/N=c1/nc(-c2ccccc2)c2c([n-]1)CCN(C(=O)c1cccc3ccccc13)C2 (cis-trans isomerization)
C/N=c1/nc(-c2ccccc2)c2c([n-]1)CCN(C(=O)c1cccc3ccccc13)C2 (3D coordinates assigned)
C/N=c1/nc(-c2ccccc2)c2c([n-]1)CCN(C(=O)c1cccc3ccccc13)C2 (nonaromatic ring conformer: 77.60526797760879 kcal/mol)

>  <smiles>  (12) 
CN=c1nc(-c2ccccc2)c2c([nH]1)CCN(C(=O)c1cccc3ccccc13)C2

>  <score_type>  (12) 
oracle

>  <origin>  (12) 
adg

>  <m_score__min__energy>  (12) 
-10.92

>  <m_primary>  (12) 
energy

$$$$
12:0
     RDKit          3D

 36 38  0  0  0  0  0  0  0  0999 V2000
   59.7104   35.8127   44.9126 H   0  0  0  0  0  0  0  0  0  0  0  0
   59.2690   34.9630   45.4540 C   0  0  0  0  0  0  0  0  0  0  0  0
   58.6670   33.9550   44.7720 N   0  0  0  0  0  0  0  0  0  0  0  0
   58.1080   32.8900   45.4100 C   0  0  0  0  0  0  0  0  0  0  0  0
   57.4780   31.8240   44.5960 C   0  0  0  0  0  0  0  0  0  0  0  0
   56.9810   30.7290   45.2330 N   0  0  0  0  0  0  0  0  0  0  0  0
   56.4080   29.6980   44.5540 C   0  0  0  0  0  0  0  0  0  0  0  0
   55.9180   28.6680   45.1790 N   0  0  0  0  0  0  0  0  0  0  0  0
   56.6410   27.5100   45.6320 C   0  0  0  0  0  0  0  0  0  0  0  0
   58.0280   27.6060   45.7950 C   0  0  0  0  0  0  0  0  0  0  0  0
   58.5413   28.5468   45.5472 H   0  0  0  0  0  0  0  0  0  0  0  0
   58.7700   26.5150   46.2710 C   0  0  0  0  0  0  0  0  0  0  0  0
   60.2610   26.6150   46.3980 C   0  0  0  0  0  0  0  0  0  0  0  0
   60.5379   26.6336   47.4624 H   0  0  0  0  0  0  0  0  0  0  0  0
   60.7294   25.7463   45.9124 H   0  0  0  0  0  0  0  0  0  0  0  0
   60.6092   27.5385   45.9124 H   0  0  0  0  0  0  0  0  0  0  0  0
   58.1160   25.3110   46.5660 C   0  0  0  0  0  0  0  0  0  0  0  0
   58.6977   24.4446   46.9137 H   0  0  0  0  0  0  0  0  0  0  0  0
   56.7250   25.2030   46.4210 C   0  0  0  0  0  0  0  0  0  0  0  0
   56.0210   23.9350   46.8040 C   0  0  0  0  0  0  0  0  0  0  0  0
   55.9775   23.8566   47.9003 H   0  0  0  0  0  0  0  0  0  0  0  0
   54.9994   23.9453   46.3963 H   0  0  0  0  0  0  0  0  0  0  0  0
   56.5699   23.0733   46.3963 H   0  0  0  0  0  0  0  0  0  0  0  0
   55.9880   26.3140   45.9840 C   0  0  0  0  0  0  0  0  0  0  0  0
   54.8920   26.2498   45.9160 H   0  0  0  0  0  0  0  0  0  0  0  0
   56.3100   29.7620   43.2010 N   0  0  0  0  0  0  0  0  0  0  0  0
   56.7940   30.8270   42.5130 C   0  0  0  0  0  0  0  0  0  0  0  0
   56.7107   30.8568   41.4166 H   0  0  0  0  0  0  0  0  0  0  0  0
   57.3970   31.8840   43.1950 C   0  0  0  0  0  0  0  0  0  0  0  0
   57.8011   32.7475   42.6464 H   0  0  0  0  0  0  0  0  0  0  0  0
   58.1780   32.8380   46.8150 C   0  0  0  0  0  0  0  0  0  0  0  0
   57.7479   31.9839   47.3586 H   0  0  0  0  0  0  0  0  0  0  0  0
   58.7800   33.8490   47.4970 N   0  0  0  0  0  0  0  0  0  0  0  0
   58.8310   33.8070   48.5390 H   0  0  0  0  0  0  0  0  0  0  0  0
   59.3230   34.9120   46.8460 C   0  0  0  0  0  0  0  0  0  0  0  0
   59.8008   35.7247   47.4128 H   0  0  0  0  0  0  0  0  0  0  0  0
  1  2  1  0
  2  3  2  0
  3  4  1  0
  4  5  1  0
  5  6  2  0
  6  7  1  0
  7  8  2  0
  8  9  1  0
  9 10  2  0
 10 11  1  0
 10 12  1  0
 12 13  1  0
 13 14  1  0
 13 15  1  0
 13 16  1  0
 12 17  2  0
 17 18  1  0
 17 19  1  0
 19 20  1  0
 20 21  1  0
 20 22  1  0
 20 23  1  0
 19 24  2  0
 24 25  1  0
  7 26  1  0
 26 27  1  0
 27 28  1  0
 27 29  2  0
 29 30  1  0
  4 31  2  0
 31 32  1  0
 31 33  1  0
 33 34  1  0
 33 35  2  0
 35 36  1  0
 35  2  1  0
 29  5  1  0
 24  9  1  0
M  CHG  2  26  -1  33   1
M  END
>  <UniqueID>  (13) 
12

>  <SMILES>  (13) 
Cc1cc(C)cc(/N=c2\nc(-c3c[nH+]ccn3)cc[n-]2)c1

>  <Energy>  (13) 
47.57130071915595

>  <Genealogy>  (13) 
Cc1cc(C)cc(N=c2nc(-c3c[nH+]ccn3)cc[n-]2)c1 (protonated)
Cc1cc(C)cc(/N=c2\nc(-c3c[nH+]ccn3)cc[n-]2)c1 (cis-trans isomerization)
Cc1cc(C)cc(/N=c2\nc(-c3c[nH+]ccn3)cc[n-]2)c1 (3D coordinates assigned)
Cc1cc(C)cc(/N=c2\nc(-c3c[nH+]ccn3)cc[n-]2)c1 (optimized conformer: 47.57130071915595 kcal/mol)

>  <smiles>  (13) 
Cc1cc(C)cc(N=c2nc(-c3cnccn3)cc[nH]2)c1

>  <score_type>  (13) 
oracle

>  <origin>  (13) 
adg

>  <m_score__min__energy>  (13) 
-7.5599999999999996

>  <m_primary>  (13) 
energy

$$$$
13:0
     RDKit          3D

 39 42  0  0  0  0  0  0  0  0999 V2000
   58.0550   32.3640   42.5390 C   0  0  0  0  0  0  0  0  0  0  0  0
   58.1780   32.7050   44.0020 C   0  0  0  0  0  0  0  0  0  0  0  0
   58.7970   33.9170   44.3570 C   0  0  0  0  0  0  0  0  0  0  0  0
   58.8980   34.3010   45.6960 C   0  0  0  0  0  0  0  0  0  0  0  0
   59.4890   35.4770   46.0210 F   0  0  0  0  0  0  0  0  0  0  0  0
   58.3870   33.4790   46.6970 C   0  0  0  0  0  0  0  0  0  0  0  0
   57.7850   32.2640   46.3670 C   0  0  0  0  0  0  0  0  0  0  0  0
   57.6870   31.8490   45.0250 C   0  0  0  0  0  0  0  0  0  0  0  0
   57.0670   30.5320   44.7380 C   0  0  0  0  0  0  0  0  0  0  0  0
   55.8200   30.3920   44.8630 O   0  0  0  0  0  0  0  0  0  0  0  0
   57.8870   29.4000   44.4180 N   0  0  0  0  0  0  0  0  0  0  0  0
   58.0930   28.2380   45.2340 C   0  0  0  0  0  0  0  0  0  0  0  0
   59.3970   27.9120   45.6200 C   0  0  0  0  0  0  0  0  0  0  0  0
   59.6390   26.7850   46.4090 C   0  0  0  0  0  0  0  0  0  0  0  0
   58.5810   25.9610   46.7960 C   0  0  0  0  0  0  0  0  0  0  0  0
   57.2750   26.2420   46.3790 C   0  0  0  0  0  0  0  0  0  0  0  0
   56.2440   25.3800   46.7810 O   0  0  0  0  0  0  0  0  0  0  0  0
   55.3910   24.6860   45.9140 C   0  0  0  0  0  0  0  0  0  0  0  0
   54.0290   24.7960   45.9920 N   0  0  0  0  0  0  0  0  0  0  0  0
   53.2060   24.1270   45.1220 C   0  0  0  0  0  0  0  0  0  0  0  0
   53.7310   23.3330   44.1410 N   0  0  0  0  0  0  0  0  0  0  0  0
   55.0800   23.2320   44.0580 C   0  0  0  0  0  0  0  0  0  0  0  0
   55.7780   22.5130   43.1660 N   0  0  0  0  0  0  0  0  0  0  0  0
   57.0650   22.7060   43.4470 N   0  0  0  0  0  0  0  0  0  0  0  0
   57.1760   23.5410   44.5100 C   0  0  0  0  0  0  0  0  0  0  0  0
   55.9080   23.8830   44.9070 C   0  0  0  0  0  0  0  0  0  0  0  0
   57.0320   27.3930   45.6060 C   0  0  0  0  0  0  0  0  0  0  0  0
   57.6835   31.3341   42.4325 H   0  0  0  0  0  0  0  0  0  0  0  0
   57.3510   33.0593   42.0584 H   0  0  0  0  0  0  0  0  0  0  0  0
   59.0407   32.4498   42.0584 H   0  0  0  0  0  0  0  0  0  0  0  0
   59.2060   34.5695   43.5715 H   0  0  0  0  0  0  0  0  0  0  0  0
   58.4580   33.7880   47.7503 H   0  0  0  0  0  0  0  0  0  0  0  0
   57.3822   31.6228   47.1649 H   0  0  0  0  0  0  0  0  0  0  0  0
   60.2368   28.5466   45.3005 H   0  0  0  0  0  0  0  0  0  0  0  0
   60.6650   26.5465   46.7258 H   0  0  0  0  0  0  0  0  0  0  0  0
   58.7749   25.0853   47.4328 H   0  0  0  0  0  0  0  0  0  0  0  0
   52.1148   24.2303   45.2146 H   0  0  0  0  0  0  0  0  0  0  0  0
   58.1144   23.8827   44.9711 H   0  0  0  0  0  0  0  0  0  0  0  0
   56.0058   27.6331   45.2909 H   0  0  0  0  0  0  0  0  0  0  0  0
  1  2  1  0
  2  3  2  0
  3  4  1  0
  4  5  1  0
  4  6  2  0
  6  7  1  0
  7  8  2  0
  8  9  1  0
  9 10  2  0
  9 11  1  0
 11 12  1  0
 12 13  2  0
 13 14  1  0
 14 15  2  0
 15 16  1  0
 16 17  1  0
 17 18  1  0
 18 19  2  0
 19 20  1  0
 20 21  2  0
 21 22  1  0
 22 23  1  0
 23 24  1  0
 24 25  2  0
 25 26  1  0
 16 27  2  0
  8  2  1  0
 27 12  1  0
 26 18  1  0
 26 22  2  0
  1 28  1  0
  1 29  1  0
  1 30  1  0
  3 31  1  0
  6 32  1  0
  7 33  1  0
 13 34  1  0
 14 35  1  0
 15 36  1  0
 20 37  1  0
 25 38  1  0
 27 39  1  0
M  CHG  2  11  -1  23  -1
M  END
>  <UniqueID>  (14) 
13

>  <SMILES>  (14) 
Cc1cc(F)ccc1C(=O)[N-]c1cccc(Oc2ncnc3[n-]ncc23)c1

>  <Energy>  (14) 
98.23854332805996

>  <Genealogy>  (14) 
Cc1cc(F)ccc1C(=O)[N-]c1cccc(Oc2ncnc3[n-]ncc23)c1 (protonated)
Cc1cc(F)ccc1C(=O)[N-]c1cccc(Oc2ncnc3[n-]ncc23)c1 (3D coordinates assigned)
Cc1cc(F)ccc1C(=O)[N-]c1cccc(Oc2ncnc3[n-]ncc23)c1 (optimized conformer: 98.23854332805996 kcal/mol)

>  <smiles>  (14) 
Cc1cc(F)ccc1C(=O)Nc1cccc(Oc2ncnc3[nH]ncc23)c1

>  <score_type>  (14) 
oracle

>  <origin>  (14) 
adg

>  <m_score__min__energy>  (14) 
-11.880000000000001

>  <m_primary>  (14) 
energy

$$$$
14:0
     RDKit          3D

 43 44  0  0  0  0  0  0  0  0999 V2000
   62.0990   33.5420   46.8300 C   0  0  0  0  0  0  0  0  0  0  0  0
   60.7560   34.0140   46.7990 O   0  0  0  0  0  0  0  0  0  0  0  0
   59.6700   33.2790   46.3000 C   0  0  0  0  0  0  0  0  0  0  0  0
   58.7740   33.9160   45.4340 C   0  0  0  0  0  0  0  0  0  0  0  0
   57.6780   33.2250   44.9110 C   0  0  0  0  0  0  0  0  0  0  0  0
   57.4710   31.8780   45.2300 C   0  0  0  0  0  0  0  0  0  0  0  0
   56.3210   31.2090   44.6950 N   0  0  0  0  0  0  0  0  0  0  0  0
   56.1940   29.7960   44.4900 C   0  0  0  0  0  0  0  0  0  0  0  0
   55.1500   29.1870   44.8450 O   0  0  0  0  0  0  0  0  0  0  0  0
   57.3290   29.0330   43.8630 C   0  0  0  0  0  0  0  0  0  0  0  0
   57.7760   27.8810   44.6800 N   0  0  0  0  0  0  0  0  0  0  0  0
   59.2470   27.7710   44.7090 C   0  0  0  0  0  0  0  0  0  0  0  0
   57.2060   27.9080   46.0430 C   0  0  0  0  0  0  0  0  0  0  0  0
   56.3680   26.6900   46.2800 C   0  0  0  0  0  0  0  0  0  0  0  0
   55.1390   26.7120   45.9990 O   0  0  0  0  0  0  0  0  0  0  0  0
   56.9780   25.5060   46.8050 N   0  0  0  0  0  0  0  0  0  0  0  0
   57.3970   24.3670   46.0390 C   0  0  0  0  0  0  0  0  0  0  0  0
   58.7590   24.1100   45.7960 C   0  0  0  0  0  0  0  0  0  0  0  0
   59.1420   23.0130   45.0200 C   0  0  0  0  0  0  0  0  0  0  0  0
   58.1760   22.1670   44.4760 C   0  0  0  0  0  0  0  0  0  0  0  0
   56.8190   22.4240   44.6940 C   0  0  0  0  0  0  0  0  0  0  0  0
   55.8860   21.6000   44.1510 F   0  0  0  0  0  0  0  0  0  0  0  0
   56.4260   23.5270   45.4660 C   0  0  0  0  0  0  0  0  0  0  0  0
   54.7130   23.8390   45.7200 Cl  0  0  0  0  0  0  0  0  0  0  0  0
   58.3560   31.2380   46.1160 C   0  0  0  0  0  0  0  0  0  0  0  0
   59.4490   31.9300   46.6430 C   0  0  0  0  0  0  0  0  0  0  0  0
   62.4235   33.4279   47.8748 H   0  0  0  0  0  0  0  0  0  0  0  0
   62.1577   32.5694   46.3196 H   0  0  0  0  0  0  0  0  0  0  0  0
   62.7533   34.2640   46.3196 H   0  0  0  0  0  0  0  0  0  0  0  0
   58.9340   34.9699   45.1627 H   0  0  0  0  0  0  0  0  0  0  0  0
   56.9731   33.7431   44.2441 H   0  0  0  0  0  0  0  0  0  0  0  0
   57.0002   28.6598   42.8819 H   0  0  0  0  0  0  0  0  0  0  0  0
   58.1805   29.7239   43.7765 H   0  0  0  0  0  0  0  0  0  0  0  0
   59.5922   27.7452   45.7531 H   0  0  0  0  0  0  0  0  0  0  0  0
   59.5558   26.8473   44.1978 H   0  0  0  0  0  0  0  0  0  0  0  0
   59.6897   28.6385   44.1978 H   0  0  0  0  0  0  0  0  0  0  0  0
   58.0240   27.9343   46.7780 H   0  0  0  0  0  0  0  0  0  0  0  0
   56.5750   28.8027   46.1493 H   0  0  0  0  0  0  0  0  0  0  0  0
   59.5257   24.7758   46.2189 H   0  0  0  0  0  0  0  0  0  0  0  0
   60.2087   22.8161   44.8376 H   0  0  0  0  0  0  0  0  0  0  0  0
   58.4816   21.2976   43.8754 H   0  0  0  0  0  0  0  0  0  0  0  0
   58.1867   30.1876   46.3953 H   0  0  0  0  0  0  0  0  0  0  0  0
   60.1407   31.4195   47.3292 H   0  0  0  0  0  0  0  0  0  0  0  0
  1  2  1  0
  2  3  1  0
  3  4  2  0
  4  5  1  0
  5  6  2  0
  6  7  1  0
  7  8  1  0
  8  9  2  0
  8 10  1  0
 10 11  1  0
 11 12  1  0
 11 13  1  0
 13 14  1  0
 14 15  2  0
 14 16  1  0
 16 17  1  0
 17 18  2  0
 18 19  1  0
 19 20  2  0
 20 21  1  0
 21 22  1  0
 21 23  2  0
 23 24  1  0
  6 25  1  0
 25 26  2  0
 26  3  1  0
 23 17  1  0
  1 27  1  0
  1 28  1  0
  1 29  1  0
  4 30  1  0
  5 31  1  0
 10 32  1  0
 10 33  1  0
 12 34  1  0
 12 35  1  0
 12 36  1  0
 13 37  1  0
 13 38  1  0
 18 39  1  0
 19 40  1  0
 20 41  1  0
 25 42  1  0
 26 43  1  0
M  CHG  2   7  -1  16  -1
M  END
>  <UniqueID>  (15) 
14

>  <SMILES>  (15) 
COc1ccc([N-]C(=O)CN(C)CC(=O)[N-]c2cccc(F)c2Cl)cc1

>  <Energy>  (15) 
51.105977734024144

>  <Genealogy>  (15) 
COc1ccc([N-]C(=O)CN(C)CC(=O)[N-]c2cccc(F)c2Cl)cc1 (protonated)
COc1ccc([N-]C(=O)CN(C)CC(=O)[N-]c2cccc(F)c2Cl)cc1 (3D coordinates assigned)
COc1ccc([N-]C(=O)CN(C)CC(=O)[N-]c2cccc(F)c2Cl)cc1 (optimized conformer: 51.105977734024144 kcal/mol)

>  <smiles>  (15) 
COc1ccc(NC(=O)CN(C)CC(=O)Nc2cccc(F)c2Cl)cc1

>  <score_type>  (15) 
oracle

>  <origin>  (15) 
adg

>  <m_score__min__energy>  (15) 
-11.32

>  <m_primary>  (15) 
energy

$$$$
15:0
     RDKit          3D

 55 57  0  0  0  0  0  0  0  0999 V2000
   65.0120   33.3470   50.3160 C   0  0  0  0  0  0  0  0  0  0  0  0
   64.7970   32.8950   48.9830 O   0  0  0  0  0  0  0  0  0  0  0  0
   63.5810   33.0110   48.2900 C   0  0  0  0  0  0  0  0  0  0  0  0
   63.4720   33.7370   47.0900 C   0  0  0  0  0  0  0  0  0  0  0  0
   62.2480   33.8270   46.4270 C   0  0  0  0  0  0  0  0  0  0  0  0
   61.1110   33.1890   46.9430 C   0  0  0  0  0  0  0  0  0  0  0  0
   59.8100   33.2780   46.2400 C   0  0  0  0  0  0  0  0  0  0  0  0
   59.2340   34.4570   45.8010 C   0  0  0  0  0  0  0  0  0  0  0  0
   58.0370   34.1160   45.2060 C   0  0  0  0  0  0  0  0  0  0  0  0
   57.9220   32.7410   45.3090 C   0  0  0  0  0  0  0  0  0  0  0  0
   56.7230   31.9520   44.8460 C   0  0  0  0  0  0  0  0  0  0  0  0
   57.1260   30.6750   44.0970 C   0  0  0  0  0  0  0  0  0  0  0  0
   56.5160   29.4510   44.7100 C   0  0  0  0  0  0  0  0  0  0  0  0
   57.2490   28.4980   45.0830 O   0  0  0  0  0  0  0  0  0  0  0  0
   55.1420   29.3780   44.8980 O   0  0  0  0  0  0  0  0  0  0  0  0
   59.0080   32.2290   45.9350 N   0  0  0  0  0  0  0  0  0  0  0  0
   59.1840   30.8670   46.3580 C   0  0  0  0  0  0  0  0  0  0  0  0
   59.9950   29.9940   45.6220 C   0  0  0  0  0  0  0  0  0  0  0  0
   60.1840   28.6770   46.0490 C   0  0  0  0  0  0  0  0  0  0  0  0
   59.5630   28.2120   47.2240 C   0  0  0  0  0  0  0  0  0  0  0  0
   59.7640   26.7870   47.7040 C   0  0  0  0  0  0  0  0  0  0  0  0
   60.3050   25.8950   46.5810 C   0  0  0  0  0  0  0  0  0  0  0  0
   60.6790   26.7430   48.9330 C   0  0  0  0  0  0  0  0  0  0  0  0
   58.7540   29.0940   47.9600 C   0  0  0  0  0  0  0  0  0  0  0  0
   58.5680   30.4100   47.5310 C   0  0  0  0  0  0  0  0  0  0  0  0
   61.2130   32.4780   48.1480 C   0  0  0  0  0  0  0  0  0  0  0  0
   62.4470   32.3810   48.8240 C   0  0  0  0  0  0  0  0  0  0  0  0
   62.5830   31.6690   50.0260 O   0  0  0  0  0  0  0  0  0  0  0  0
   61.8970   30.4580   50.3310 C   0  0  0  0  0  0  0  0  0  0  0  0
   64.6503   32.5866   51.0238 H   0  0  0  0  0  0  0  0  0  0  0  0
   66.0870   33.5160   50.4770 H   0  0  0  0  0  0  0  0  0  0  0  0
   64.4648   34.2876   50.4770 H   0  0  0  0  0  0  0  0  0  0  0  0
   64.3579   34.2371   46.6717 H   0  0  0  0  0  0  0  0  0  0  0  0
   62.1742   34.4027   45.4926 H   0  0  0  0  0  0  0  0  0  0  0  0
   59.6499   35.4699   45.9061 H   0  0  0  0  0  0  0  0  0  0  0  0
   57.3150   34.8031   44.7406 H   0  0  0  0  0  0  0  0  0  0  0  0
   56.1214   31.6734   45.7237 H   0  0  0  0  0  0  0  0  0  0  0  0
   56.1489   32.5842   44.1527 H   0  0  0  0  0  0  0  0  0  0  0  0
   56.7903   30.7545   43.0525 H   0  0  0  0  0  0  0  0  0  0  0  0
   58.2200   30.5764   44.1558 H   0  0  0  0  0  0  0  0  0  0  0  0
   60.4858   30.3470   44.7030 H   0  0  0  0  0  0  0  0  0  0  0  0
   60.8222   27.9990   45.4633 H   0  0  0  0  0  0  0  0  0  0  0  0
   58.7814   26.3919   48.0013 H   0  0  0  0  0  0  0  0  0  0  0  0
   60.8284   25.0320   47.0182 H   0  0  0  0  0  0  0  0  0  0  0  0
   59.4695   25.5407   45.9594 H   0  0  0  0  0  0  0  0  0  0  0  0
   61.0053   26.4722   45.9594 H   0  0  0  0  0  0  0  0  0  0  0  0
   60.0673   26.7724   49.8468 H   0  0  0  0  0  0  0  0  0  0  0  0
   61.2700   25.8154   48.9171 H   0  0  0  0  0  0  0  0  0  0  0  0
   61.3563   27.6096   48.9171 H   0  0  0  0  0  0  0  0  0  0  0  0
   58.2635   28.7455   48.8808 H   0  0  0  0  0  0  0  0  0  0  0  0
   57.9343   31.0918   48.1172 H   0  0  0  0  0  0  0  0  0  0  0  0
   60.3214   31.9912   48.5700 H   0  0  0  0  0  0  0  0  0  0  0  0
   61.8299   30.3395   51.4225 H   0  0  0  0  0  0  0  0  0  0  0  0
   60.8843   30.4925   49.9030 H   0  0  0  0  0  0  0  0  0  0  0  0
   62.4472   29.6071   49.9030 H   0  0  0  0  0  0  0  0  0  0  0  0
  1  2  1  0
  2  3  1  0
  3  4  2  0
  4  5  1  0
  5  6  2  0
  6  7  1  0
  7  8  2  0
  8  9  1  0
  9 10  2  0
 10 11  1  0
 11 12  1  0
 12 13  1  0
 13 14  2  0
 13 15  1  0
 10 16  1  0
 16 17  1  0
 17 18  2  0
 18 19  1  0
 19 20  2  0
 20 21  1  0
 21 22  1  0
 21 23  1  0
 20 24  1  0
 24 25  2  0
  6 26  1  0
 26 27  2  0
 27 28  1  0
 28 29  1  0
 27  3  1  0
 16  7  1  0
 25 17  1  0
  1 30  1  0
  1 31  1  0
  1 32  1  0
  4 33  1  0
  5 34  1  0
  8 35  1  0
  9 36  1  0
 11 37  1  0
 11 38  1  0
 12 39  1  0
 12 40  1  0
 18 41  1  0
 19 42  1  0
 21 43  1  0
 22 44  1  0
 22 45  1  0
 22 46  1  0
 23 47  1  0
 23 48  1  0
 23 49  1  0
 24 50  1  0
 25 51  1  0
 26 52  1  0
 29 53  1  0
 29 54  1  0
 29 55  1  0
M  CHG  1  15  -1
M  END
>  <UniqueID>  (16) 
15

>  <SMILES>  (16) 
COc1ccc(-c2ccc(CCC(=O)[O-])n2-c2ccc(C(C)C)cc2)cc1OC

>  <Energy>  (16) 
84.75209229058616

>  <Genealogy>  (16) 
COc1ccc(-c2ccc(CCC(=O)[O-])n2-c2ccc(C(C)C)cc2)cc1OC (protonated)
COc1ccc(-c2ccc(CCC(=O)[O-])n2-c2ccc(C(C)C)cc2)cc1OC (3D coordinates assigned)
COc1ccc(-c2ccc(CCC(=O)[O-])n2-c2ccc(C(C)C)cc2)cc1OC (optimized conformer: 84.75209229058616 kcal/mol)

>  <smiles>  (16) 
COc1ccc(-c2ccc(CCC(=O)O)n2-c2ccc(C(C)C)cc2)cc1OC

>  <score_type>  (16) 
oracle

>  <origin>  (16) 
adg

>  <m_score__min__energy>  (16) 
-10.289999999999999

>  <m_primary>  (16) 
energy

$$$$
16:0
     RDKit          3D

 27 29  0  0  1  0  0  0  0  0999 V2000
   55.6380   30.4670   44.4930 O   0  0  0  0  0  0  0  0  0  0  0  0
   56.9320   30.8420   43.8160 S   0  0  0  0  0  0  0  0  0  0  0  0
   56.6420   31.2910   42.3930 O   0  0  0  0  0  0  0  0  0  0  0  0
   57.8980   29.4330   43.7540 N   0  0  0  0  0  0  0  0  0  0  0  0
   57.6590   28.4210   44.3950 C   0  0  0  0  0  0  0  0  0  0  0  0
   56.9820   28.2070   45.6150 N   0  0  0  0  0  0  0  0  0  0  0  0
   56.8670   27.0500   46.0730 C   0  0  0  0  0  0  0  0  0  0  0  0
   57.3750   25.9260   45.4400 N   0  0  0  0  0  0  0  0  0  0  0  0
   58.1510   26.6850   43.9260 S   0  0  0  0  0  0  0  0  0  0  0  0
   57.6890   32.1440   44.6510 C   0  0  0  0  0  0  0  0  0  0  0  0
   57.7940   33.4200   44.1500 C   0  0  0  0  0  0  0  0  0  0  0  0
   58.4190   34.4190   44.8810 C   0  0  0  0  0  0  0  0  0  0  0  0
   58.9490   34.1670   46.1240 C   0  0  0  0  0  0  0  0  0  0  0  0
   58.8480   32.8870   46.6370 C   0  0  0  0  0  0  0  0  0  0  0  0
   59.3630   32.5710   47.8850 C   0  0  0  0  0  0  0  0  0  0  0  0
   59.2630   31.2850   48.4050 C   0  0  0  0  0  0  0  0  0  0  0  0
   58.6390   30.3480   47.6390 C   0  0  0  0  0  0  0  0  0  0  0  0
   58.1460   30.6720   46.4300 N   0  0  0  0  0  0  0  0  0  0  0  0
   58.2260   31.9110   45.8990 C   0  0  0  0  0  0  0  0  0  0  0  0
   56.6120   29.1130   46.0590 H   0  0  0  0  0  0  0  0  0  0  0  0
   56.3357   26.9166   47.0269 H   0  0  0  0  0  0  0  0  0  0  0  0
   57.3777   33.6510   43.1584 H   0  0  0  0  0  0  0  0  0  0  0  0
   58.4920   35.4319   44.4583 H   0  0  0  0  0  0  0  0  0  0  0  0
   59.4423   34.9655   46.6976 H   0  0  0  0  0  0  0  0  0  0  0  0
   59.8610   33.3537   48.4761 H   0  0  0  0  0  0  0  0  0  0  0  0
   59.6715   31.0349   49.3952 H   0  0  0  0  0  0  0  0  0  0  0  0
   58.5372   29.3181   48.0117 H   0  0  0  0  0  0  0  0  0  0  0  0
  1  2  2  0
  2  3  2  0
  2  4  1  0
  4  5  2  0
  5  6  1  0
  6  7  1  0
  7  8  2  0
  8  9  1  0
  2 10  1  0
 10 11  2  0
 11 12  1  0
 12 13  2  0
 13 14  1  0
 14 15  2  0
 15 16  1  0
 16 17  2  0
 17 18  1  0
 18 19  2  0
  9  5  1  0
 19 10  1  0
 19 14  1  0
  6 20  1  0
  7 21  1  0
 11 22  1  0
 12 23  1  0
 13 24  1  0
 15 25  1  0
 16 26  1  0
 17 27  1  0
M  END
>  <smiles>  (17) 
O=S(=O)(N=c1[nH]cns1)c1cccc2cccnc12

>  <score_type>  (17) 
oracle

>  <origin>  (17) 
adg

>  <m_score__min__energy>  (17) 
-6.8799999999999999

>  <m_primary>  (17) 
energy

$$$$
17:0
     RDKit          3D

 26 27  0  0  0  0  0  0  0  0999 V2000
   55.1660   29.4800   45.1130 O   0  0  0  0  0  0  0  0  0  0  0  0
   56.0890   29.9880   44.1880 C   0  0  0  0  0  0  0  0  0  0  0  0
   57.4610   29.4000   44.4360 C   0  0  0  0  0  0  0  0  0  0  0  0
   57.7210   28.0780   44.0260 C   0  0  0  0  0  0  0  0  0  0  0  0
   58.9660   27.4920   44.2550 C   0  0  0  0  0  0  0  0  0  0  0  0
   59.9770   28.2170   44.8830 C   0  0  0  0  0  0  0  0  0  0  0  0
   59.7530   29.5400   45.2660 C   0  0  0  0  0  0  0  0  0  0  0  0
   58.5100   30.1530   45.0320 C   0  0  0  0  0  0  0  0  0  0  0  0
   58.3520   31.5790   45.3990 C   0  0  0  0  0  0  0  0  0  0  0  0
   57.8790   32.5030   44.4530 C   0  0  0  0  0  0  0  0  0  0  0  0
   57.7150   33.8470   44.8030 C   0  0  0  0  0  0  0  0  0  0  0  0
   58.0120   34.2750   46.1000 C   0  0  0  0  0  0  0  0  0  0  0  0
   58.4710   33.3590   47.0510 C   0  0  0  0  0  0  0  0  0  0  0  0
   58.7510   33.7740   48.3110 F   0  0  0  0  0  0  0  0  0  0  0  0
   58.6370   32.0140   46.7050 C   0  0  0  0  0  0  0  0  0  0  0  0
   55.5150   29.7160   46.0110 H   0  0  0  0  0  0  0  0  0  0  0  0
   55.7621   29.7291   43.1701 H   0  0  0  0  0  0  0  0  0  0  0  0
   56.1430   31.0809   44.3007 H   0  0  0  0  0  0  0  0  0  0  0  0
   56.9334   27.5010   43.5194 H   0  0  0  0  0  0  0  0  0  0  0  0
   59.1503   26.4546   43.9390 H   0  0  0  0  0  0  0  0  0  0  0  0
   60.9520   27.7461   45.0769 H   0  0  0  0  0  0  0  0  0  0  0  0
   60.5571   30.1088   45.7558 H   0  0  0  0  0  0  0  0  0  0  0  0
   57.6368   32.1685   43.4335 H   0  0  0  0  0  0  0  0  0  0  0  0
   57.3517   34.5685   44.0564 H   0  0  0  0  0  0  0  0  0  0  0  0
   57.8845   35.3331   46.3725 H   0  0  0  0  0  0  0  0  0  0  0  0
   58.9918   31.2942   47.4574 H   0  0  0  0  0  0  0  0  0  0  0  0
  1  2  1  0
  2  3  1  0
  3  4  2  0
  4  5  1  0
  5  6  2  0
  6  7  1  0
  7  8  2  0
  8  9  1  0
  9 10  2  0
 10 11  1  0
 11 12  2  0
 12 13  1  0
 13 14  1  0
 13 15  2  0
  8  3  1  0
 15  9  1  0
  1 16  1  0
  2 17  1  0
  2 18  1  0
  4 19  1  0
  5 20  1  0
  6 21  1  0
  7 22  1  0
 10 23  1  0
 11 24  1  0
 12 25  1  0
 15 26  1  0
M  END
>  <UniqueID>  (18) 
16

>  <SMILES>  (18) 
OCc1ccccc1-c1cccc(F)c1

>  <Energy>  (18) 
35.067337955533496

>  <Genealogy>  (18) 
OCc1ccccc1-c1cccc(F)c1 (3D coordinates assigned)
OCc1ccccc1-c1cccc(F)c1 (optimized conformer: 35.067337955533496 kcal/mol)

>  <smiles>  (18) 
OCc1ccccc1-c1cccc(F)c1

>  <score_type>  (18) 
oracle

>  <origin>  (18) 
adg

>  <m_score__min__energy>  (18) 
-6.9199999999999999

>  <m_primary>  (18) 
energy

$$$$
18:0
     RDKit          3D

 47 49  0  0  0  0  0  0  0  0999 V2000
   63.0420   31.5900   47.5940 C   0  0  0  0  0  0  0  0  0  0  0  0
   61.5920   31.7790   47.5940 N   0  0  0  0  0  0  0  0  0  0  0  0
   60.7190   30.6340   47.6060 C   0  0  0  0  0  0  0  0  0  0  0  0
   60.7260   29.7190   46.5360 C   0  0  0  0  0  0  0  0  0  0  0  0
   59.8260   28.6500   46.5090 C   0  0  0  0  0  0  0  0  0  0  0  0
   58.8810   28.5020   47.5300 C   0  0  0  0  0  0  0  0  0  0  0  0
   57.9250   27.4340   47.4690 N   0  0  0  0  0  0  0  0  0  0  0  0
   57.8720   26.4370   46.6240 C   0  0  0  0  0  0  0  0  0  0  0  0
   58.1190   25.1930   47.1180 N   0  0  0  0  0  0  0  0  0  0  0  0
   58.0050   24.0670   46.3670 C   0  0  0  0  0  0  0  0  0  0  0  0
   57.6110   24.1550   45.0350 C   0  0  0  0  0  0  0  0  0  0  0  0
   57.3900   25.4100   44.4710 C   0  0  0  0  0  0  0  0  0  0  0  0
   57.5480   26.5730   45.2400 C   0  0  0  0  0  0  0  0  0  0  0  0
   57.5310   27.8630   44.5220 C   0  0  0  0  0  0  0  0  0  0  0  0
   57.8750   27.8950   43.3100 O   0  0  0  0  0  0  0  0  0  0  0  0
   57.1460   29.0650   45.2090 N   0  0  0  0  0  0  0  0  0  0  0  0
   57.3840   30.3850   44.6900 C   0  0  0  0  0  0  0  0  0  0  0  0
   57.2110   30.6820   43.3260 C   0  0  0  0  0  0  0  0  0  0  0  0
   57.4810   31.9680   42.8440 C   0  0  0  0  0  0  0  0  0  0  0  0
   57.9110   32.9680   43.7200 C   0  0  0  0  0  0  0  0  0  0  0  0
   58.0550   32.6890   45.0820 C   0  0  0  0  0  0  0  0  0  0  0  0
   57.7820   31.4070   45.5660 C   0  0  0  0  0  0  0  0  0  0  0  0
   58.9050   29.3750   48.6280 C   0  0  0  0  0  0  0  0  0  0  0  0
   59.8110   30.4380   48.6600 C   0  0  0  0  0  0  0  0  0  0  0  0
   60.9470   33.3920   47.4730 S   0  0  0  0  0  0  0  0  0  0  0  0
   59.2680   33.4310   48.0680 C   0  0  0  0  0  0  0  0  0  0  0  0
   61.7930   34.3360   48.2790 O   0  0  0  0  0  0  0  0  0  0  0  0
   60.9370   33.8330   46.0350 O   0  0  0  0  0  0  0  0  0  0  0  0
   63.4056   31.5426   48.6311 H   0  0  0  0  0  0  0  0  0  0  0  0
   63.2895   30.6520   47.0755 H   0  0  0  0  0  0  0  0  0  0  0  0
   63.5217   32.4332   47.0755 H   0  0  0  0  0  0  0  0  0  0  0  0
   61.4460   29.8465   45.7142 H   0  0  0  0  0  0  0  0  0  0  0  0
   59.8607   27.9238   45.6835 H   0  0  0  0  0  0  0  0  0  0  0  0
   58.2242   23.0851   46.8117 H   0  0  0  0  0  0  0  0  0  0  0  0
   57.4755   23.2437   44.4340 H   0  0  0  0  0  0  0  0  0  0  0  0
   57.0896   25.4895   43.4158 H   0  0  0  0  0  0  0  0  0  0  0  0
   56.9160   28.9820   46.2260 H   0  0  0  0  0  0  0  0  0  0  0  0
   56.8620   29.9003   42.6352 H   0  0  0  0  0  0  0  0  0  0  0  0
   57.3545   32.1916   41.7744 H   0  0  0  0  0  0  0  0  0  0  0  0
   58.1361   33.9746   43.3378 H   0  0  0  0  0  0  0  0  0  0  0  0
   58.3834   33.4791   45.7732 H   0  0  0  0  0  0  0  0  0  0  0  0
   57.8797   31.1971   46.6414 H   0  0  0  0  0  0  0  0  0  0  0  0
   58.2087   29.2221   49.4658 H   0  0  0  0  0  0  0  0  0  0  0  0
   59.8134   31.1271   49.5174 H   0  0  0  0  0  0  0  0  0  0  0  0
   59.2687   33.4310   49.1680 H   0  0  0  0  0  0  0  0  0  0  0  0
   58.7702   34.3410   47.7017 H   0  0  0  0  0  0  0  0  0  0  0  0
   58.7285   32.5451   47.7017 H   0  0  0  0  0  0  0  0  0  0  0  0
  1  2  1  0
  2  3  1  0
  3  4  2  0
  4  5  1  0
  5  6  2  0
  6  7  1  0
  7  8  2  3
  8  9  1  0
  9 10  1  0
 10 11  2  0
 11 12  1  0
 12 13  2  0
 13 14  1  0
 14 15  2  0
 14 16  1  0
 16 17  1  0
 17 18  2  0
 18 19  1  0
 19 20  2  0
 20 21  1  0
 21 22  2  0
  6 23  1  0
 23 24  2  0
  2 25  1  0
 25 26  1  0
 25 27  2  0
 25 28  2  0
 24  3  1  0
 13  8  1  0
 22 17  1  0
  1 29  1  0
  1 30  1  0
  1 31  1  0
  4 32  1  0
  5 33  1  0
 10 34  1  0
 11 35  1  0
 12 36  1  0
 16 37  1  0
 18 38  1  0
 19 39  1  0
 20 40  1  0
 21 41  1  0
 22 42  1  0
 23 43  1  0
 24 44  1  0
 26 45  1  0
 26 46  1  0
 26 47  1  0
M  CHG  1   9  -1
M  END
>  <UniqueID>  (19) 
17

>  <SMILES>  (19) 
CN(c1ccc(N=c2[n-]cccc2C(=O)Nc2ccccc2)cc1)S(C)(=O)=O

>  <Energy>  (19) 
71.31620874403154

>  <Genealogy>  (19) 
CN(c1ccc(N=c2[n-]cccc2C(=O)Nc2ccccc2)cc1)S(C)(=O)=O (protonated)
CN(c1ccc(N=c2[n-]cccc2C(=O)Nc2ccccc2)cc1)S(C)(=O)=O (3D coordinates assigned)
CN(c1ccc(N=c2[n-]cccc2C(=O)Nc2ccccc2)cc1)S(C)(=O)=O (optimized conformer: 71.31620874403154 kcal/mol)

>  <smiles>  (19) 
CN(c1ccc(N=c2[nH]cccc2C(=O)Nc2ccccc2)cc1)S(C)(=O)=O

>  <score_type>  (19) 
oracle

>  <origin>  (19) 
adg

>  <m_score__min__energy>  (19) 
-9.6899999999999995

>  <m_primary>  (19) 
energy

$$$$
19:0
     RDKit          3D

 35 37  0  0  0  0  0  0  0  0999 V2000
   55.6970   29.0510   45.1190 O   0  0  0  0  0  0  0  0  0  0  0  0
   56.9040   29.8880   44.8020 S   0  0  0  0  0  0  0  0  0  0  0  0
   57.3870   29.5530   43.4200 O   0  0  0  0  0  0  0  0  0  0  0  0
   56.4610   31.5640   44.8540 N   0  0  0  0  0  0  0  0  0  0  0  0
   57.3420   32.6430   45.1940 C   0  0  0  0  0  0  0  0  0  0  0  0
   57.3830   33.1970   46.4890 C   0  0  0  0  0  0  0  0  0  0  0  0
   58.2670   34.2400   46.7800 C   0  0  0  0  0  0  0  0  0  0  0  0
   59.1140   34.7410   45.7880 C   0  0  0  0  0  0  0  0  0  0  0  0
   59.0760   34.2000   44.5010 C   0  0  0  0  0  0  0  0  0  0  0  0
   58.1940   33.1560   44.2030 C   0  0  0  0  0  0  0  0  0  0  0  0
   58.1710   32.6370   42.9500 F   0  0  0  0  0  0  0  0  0  0  0  0
   58.1990   29.5630   45.9510 C   0  0  0  0  0  0  0  0  0  0  0  0
   58.2530   28.3430   46.6310 C   0  0  0  0  0  0  0  0  0  0  0  0
   59.2460   28.1070   47.5270 N   0  0  0  0  0  0  0  0  0  0  0  0
   60.2080   29.0310   47.7940 C   0  0  0  0  0  0  0  0  0  0  0  0
   60.2020   30.2710   47.1330 C   0  0  0  0  0  0  0  0  0  0  0  0
   61.2440   31.2900   47.4180 C   0  0  0  0  0  0  0  0  0  0  0  0
   61.2260   32.5350   46.7620 C   0  0  0  0  0  0  0  0  0  0  0  0
   62.2070   33.4950   47.0340 C   0  0  0  0  0  0  0  0  0  0  0  0
   63.2140   33.2240   47.9630 C   0  0  0  0  0  0  0  0  0  0  0  0
   63.2420   31.9920   48.6220 C   0  0  0  0  0  0  0  0  0  0  0  0
   62.2650   31.0300   48.3530 C   0  0  0  0  0  0  0  0  0  0  0  0
   59.1830   30.5250   46.2000 C   0  0  0  0  0  0  0  0  0  0  0  0
   56.7173   32.8075   47.2733 H   0  0  0  0  0  0  0  0  0  0  0  0
   58.2959   34.6677   47.7930 H   0  0  0  0  0  0  0  0  0  0  0  0
   59.8099   35.5606   46.0205 H   0  0  0  0  0  0  0  0  0  0  0  0
   59.7414   34.5959   43.7196 H   0  0  0  0  0  0  0  0  0  0  0  0
   57.4906   27.5734   46.4403 H   0  0  0  0  0  0  0  0  0  0  0  0
   60.9938   28.8066   48.5303 H   0  0  0  0  0  0  0  0  0  0  0  0
   60.4349   32.7550   46.0300 H   0  0  0  0  0  0  0  0  0  0  0  0
   62.1850   34.4648   46.5153 H   0  0  0  0  0  0  0  0  0  0  0  0
   63.9845   33.9797   48.1758 H   0  0  0  0  0  0  0  0  0  0  0  0
   64.0349   31.7791   49.3541 H   0  0  0  0  0  0  0  0  0  0  0  0
   62.2934   30.0623   48.8753 H   0  0  0  0  0  0  0  0  0  0  0  0
   59.1590   31.4847   45.6630 H   0  0  0  0  0  0  0  0  0  0  0  0
  1  2  2  0
  2  3  2  0
  2  4  1  0
  4  5  1  0
  5  6  2  0
  6  7  1  0
  7  8  2  0
  8  9  1  0
  9 10  2  0
 10 11  1  0
  2 12  1  0
 12 13  2  0
 13 14  1  0
 14 15  2  0
 15 16  1  0
 16 17  1  0
 17 18  2  0
 18 19  1  0
 19 20  2  0
 20 21  1  0
 21 22  2  0
 16 23  2  0
 10  5  1  0
 23 12  1  0
 22 17  1  0
  6 24  1  0
  7 25  1  0
  8 26  1  0
  9 27  1  0
 13 28  1  0
 15 29  1  0
 18 30  1  0
 19 31  1  0
 20 32  1  0
 21 33  1  0
 22 34  1  0
 23 35  1  0
M  CHG  1   4  -1
M  END
>  <UniqueID>  (20) 
18

>  <SMILES>  (20) 
O=S(=O)([N-]c1ccccc1F)c1cncc(-c2ccccc2)c1

>  <Energy>  (20) 
46.973111239250684

>  <Genealogy>  (20) 
O=S(=O)([N-]c1ccccc1F)c1cncc(-c2ccccc2)c1 (protonated)
O=S(=O)([N-]c1ccccc1F)c1cncc(-c2ccccc2)c1 (3D coordinates assigned)
O=S(=O)([N-]c1ccccc1F)c1cncc(-c2ccccc2)c1 (optimized conformer: 46.973111239250684 kcal/mol)

>  <smiles>  (20) 
O=S(=O)(Nc1ccccc1F)c1cncc(-c2ccccc2)c1

>  <score_type>  (20) 
oracle

>  <origin>  (20) 
adg

>  <m_score__min__energy>  (20) 
-9.7899999999999991

>  <m_primary>  (20) 
energy

$$$$
20:0
     RDKit          3D

 39 41  0  0  0  0  0  0  0  0999 V2000
   58.4753   33.4785   41.9168 H   0  0  0  0  0  0  0  0  0  0  0  0
   58.0350   32.6870   42.5410 C   0  0  0  0  0  0  0  0  0  0  0  0
   58.0920   32.7830   43.9340 C   0  0  0  0  0  0  0  0  0  0  0  0
   58.5879   33.6442   44.4057 H   0  0  0  0  0  0  0  0  0  0  0  0
   60.6920   32.3670   46.8080 C   0  0  0  0  0  0  0  0  0  0  0  0
   60.0528   32.7813   46.0144 H   0  0  0  0  0  0  0  0  0  0  0  0
   60.3560   31.1450   47.4060 C   0  0  0  0  0  0  0  0  0  0  0  0
   56.3190   29.6290   44.9210 N   0  0  0  0  0  0  0  0  0  0  0  0
   56.9180   28.5740   45.4130 C   0  0  0  0  0  0  0  0  0  0  0  0
   58.2960   28.5380   45.7720 C   0  0  0  0  0  0  0  0  0  0  0  0
   59.1020   29.7210   45.8980 N   0  0  0  0  0  0  0  0  0  0  0  0
   59.1830   30.4510   46.9470 N   0  0  0  0  0  0  0  0  0  0  0  0
   56.8550   30.7000   44.1290 C   0  0  0  0  0  0  0  0  0  0  0  0
   57.5190   31.7850   44.7290 C   0  0  0  0  0  0  0  0  0  0  0  0
   57.5878   31.8488   45.8250 H   0  0  0  0  0  0  0  0  0  0  0  0
   61.8350   33.0630   47.2140 C   0  0  0  0  0  0  0  0  0  0  0  0
   62.0783   34.0335   46.7570 H   0  0  0  0  0  0  0  0  0  0  0  0
   62.6690   32.5270   48.2000 C   0  0  0  0  0  0  0  0  0  0  0  0
   64.1040   33.4000   48.7060 Cl  0  0  0  0  0  0  0  0  0  0  0  0
   62.3670   31.2860   48.7680 C   0  0  0  0  0  0  0  0  0  0  0  0
   63.0298   30.8567   49.5338 H   0  0  0  0  0  0  0  0  0  0  0  0
   56.8470   30.5860   42.7340 C   0  0  0  0  0  0  0  0  0  0  0  0
   56.3887   29.7059   42.2592 H   0  0  0  0  0  0  0  0  0  0  0  0
   58.8820   27.3110   46.1230 C   0  0  0  0  0  0  0  0  0  0  0  0
   60.2550   27.2810   46.4200 O   0  0  0  0  0  0  0  0  0  0  0  0
   60.8110   26.7280   47.6070 C   0  0  0  0  0  0  0  0  0  0  0  0
   60.3408   27.1957   48.4846 H   0  0  0  0  0  0  0  0  0  0  0  0
   60.6277   25.6436   47.6271 H   0  0  0  0  0  0  0  0  0  0  0  0
   61.8944   26.9172   47.6271 H   0  0  0  0  0  0  0  0  0  0  0  0
   58.0800   26.1620   46.2020 C   0  0  0  0  0  0  0  0  0  0  0  0
   58.5273   25.1909   46.4606 H   0  0  0  0  0  0  0  0  0  0  0  0
   56.7160   26.2600   45.9510 C   0  0  0  0  0  0  0  0  0  0  0  0
   56.0755   25.3722   46.0584 H   0  0  0  0  0  0  0  0  0  0  0  0
   56.1690   27.4450   45.5740 N   0  0  0  0  0  0  0  0  0  0  0  0
   55.1460   27.4670   45.3580 H   0  0  0  0  0  0  0  0  0  0  0  0
   61.2230   30.5890   48.3640 C   0  0  0  0  0  0  0  0  0  0  0  0
   61.0008   29.6026   48.7972 H   0  0  0  0  0  0  0  0  0  0  0  0
   57.4190   31.5860   41.9410 C   0  0  0  0  0  0  0  0  0  0  0  0
   57.3838   31.5056   40.8445 H   0  0  0  0  0  0  0  0  0  0  0  0
  1  2  1  0
  2  3  2  0
  3  4  1  0
  3  5  1  0
  5  6  1  0
  5  7  2  0
  7  8  1  0
  8  9  2  0
  9 10  1  0
 10 11  1  0
 11 12  2  0
 12 13  1  0
 13 14  2  0
 14 15  1  0
 14 16  1  0
 16 17  1  0
 16 18  2  0
 18 19  1  0
 18 20  1  0
 20 21  1  0
 20 22  2  0
 22 23  1  0
 10 24  2  0
 24 25  1  0
 25 26  1  0
 26 27  1  0
 26 28  1  0
 26 29  1  0
 24 30  1  0
 30 31  1  0
 30 32  2  0
 32 33  1  0
 32 34  1  0
 34 35  1  0
  7 36  1  0
 36 37  1  0
 36 38  2  0
 38 39  1  0
 38  2  1  0
 34  9  1  0
 22 13  1  0
M  END
>  <UniqueID>  (21) 
19

>  <SMILES>  (21) 
COc1cc[nH]/c(=N/c2ccccc2)c1/N=N\c1ccc(Cl)cc1

>  <Energy>  (21) 
69.20435788375737

>  <Genealogy>  (21) 
COc1cc[nH]/c(=N/c2ccccc2)c1/N=N\c1ccc(Cl)cc1 (cis-trans isomerization)
COc1cc[nH]/c(=N/c2ccccc2)c1/N=N\c1ccc(Cl)cc1 (3D coordinates assigned)
COc1cc[nH]/c(=N/c2ccccc2)c1/N=N\c1ccc(Cl)cc1 (optimized conformer: 69.20435788375737 kcal/mol)

>  <smiles>  (21) 
COc1cc[nH]c(=Nc2ccccc2)c1N=Nc1ccc(Cl)cc1

>  <score_type>  (21) 
oracle

>  <origin>  (21) 
adg

>  <m_score__min__energy>  (21) 
-7.46

>  <m_primary>  (21) 
energy

$$$$
21:0
     RDKit          3D

 48 50  0  0  0  0  0  0  0  0999 V2000
   54.6130   29.4030   45.2560 H   0  0  0  0  0  0  0  0  0  0  0  0
   55.5110   28.9500   44.9740 N   0  0  0  0  0  0  0  0  0  0  0  0
   56.7160   29.7080   44.8760 C   0  0  0  0  0  0  0  0  0  0  0  0
   56.8450   30.5380   43.9360 O   0  0  0  0  0  0  0  0  0  0  0  0
   57.8020   29.5270   45.8680 C   0  0  0  0  0  0  0  0  0  0  0  0
   57.7780   28.4470   46.7690 C   0  0  0  0  0  0  0  0  0  0  0  0
   56.9455   27.7286   46.7382 H   0  0  0  0  0  0  0  0  0  0  0  0
   58.8040   28.2800   47.7030 C   0  0  0  0  0  0  0  0  0  0  0  0
   58.7723   27.4307   48.4013 H   0  0  0  0  0  0  0  0  0  0  0  0
   59.8710   29.1830   47.7580 C   0  0  0  0  0  0  0  0  0  0  0  0
   60.8740   28.9710   48.7150 O   0  0  0  0  0  0  0  0  0  0  0  0
   60.6710   28.3210   49.9660 C   0  0  0  0  0  0  0  0  0  0  0  0
   60.1708   27.3551   49.8021 H   0  0  0  0  0  0  0  0  0  0  0  0
   61.6410   28.1488   50.4553 H   0  0  0  0  0  0  0  0  0  0  0  0
   59.8160   29.1860   50.8350 C   0  0  0  0  0  0  0  0  0  0  0  0
   59.3100   28.7060   51.8840 O   0  0  0  0  0  0  0  0  0  0  0  0
   59.5570   30.5460   50.4560 N   0  0  0  0  0  0  0  0  0  0  0  0
   60.0110   30.9220   49.5920 H   0  0  0  0  0  0  0  0  0  0  0  0
   58.7710   31.4660   51.2760 C   0  0  0  0  0  0  0  0  0  0  0  0
   57.7247   31.4452   50.9373 H   0  0  0  0  0  0  0  0  0  0  0  0
   58.8431   31.1474   52.3264 H   0  0  0  0  0  0  0  0  0  0  0  0
   59.3060   32.8990   51.1630 C   0  0  0  0  0  0  0  0  0  0  0  0
   58.9704   33.3243   50.2056 H   0  0  0  0  0  0  0  0  0  0  0  0
   58.9164   33.4651   52.0219 H   0  0  0  0  0  0  0  0  0  0  0  0
   60.8440   32.9720   51.2210 C   0  0  0  0  0  0  0  0  0  0  0  0
   61.1454   34.0193   51.3707 H   0  0  0  0  0  0  0  0  0  0  0  0
   61.1852   32.3395   52.0538 H   0  0  0  0  0  0  0  0  0  0  0  0
   61.4580   32.4740   49.9910 N   0  0  0  0  0  0  0  0  0  0  0  0
   61.5170   32.8810   48.7470 C   0  0  0  0  0  0  0  0  0  0  0  0
   62.8170   33.0440   48.2460 C   0  0  0  0  0  0  0  0  0  0  0  0
   63.6764   32.7564   48.8695 H   0  0  0  0  0  0  0  0  0  0  0  0
   63.0380   33.5620   46.9770 C   0  0  0  0  0  0  0  0  0  0  0  0
   64.0661   33.6901   46.6076 H   0  0  0  0  0  0  0  0  0  0  0  0
   61.9920   33.9090   46.1950 N   0  0  0  0  0  0  0  0  0  0  0  0
   60.7060   33.7480   46.5980 C   0  0  0  0  0  0  0  0  0  0  0  0
   59.6840   34.1130   45.7160 C   0  0  0  0  0  0  0  0  0  0  0  0
   59.9367   34.5521   44.7396 H   0  0  0  0  0  0  0  0  0  0  0  0
   58.3500   33.9250   46.0640 C   0  0  0  0  0  0  0  0  0  0  0  0
   57.0750   34.3790   44.9480 Cl  0  0  0  0  0  0  0  0  0  0  0  0
   58.0320   33.3540   47.2920 C   0  0  0  0  0  0  0  0  0  0  0  0
   56.9779   33.1899   47.5603 H   0  0  0  0  0  0  0  0  0  0  0  0
   59.0400   32.9870   48.1880 C   0  0  0  0  0  0  0  0  0  0  0  0
   58.7665   32.5224   49.1468 H   0  0  0  0  0  0  0  0  0  0  0  0
   60.4080   33.2020   47.8850 C   0  0  0  0  0  0  0  0  0  0  0  0
   59.9010   30.2640   46.8590 C   0  0  0  0  0  0  0  0  0  0  0  0
   60.7353   30.9801   46.8918 H   0  0  0  0  0  0  0  0  0  0  0  0
   58.8760   30.4330   45.9240 C   0  0  0  0  0  0  0  0  0  0  0  0
   58.9097   31.2823   45.2257 H   0  0  0  0  0  0  0  0  0  0  0  0
  1  2  1  0
  2  3  1  0
  3  4  2  0
  3  5  1  0
  5  6  2  0
  6  7  1  0
  6  8  1  0
  8  9  1  0
  8 10  2  0
 10 11  1  0
 11 12  1  0
 12 13  1  0
 12 14  1  0
 12 15  1  0
 15 16  2  0
 15 17  1  0
 17 18  1  0
 17 19  1  0
 19 20  1  0
 19 21  1  0
 19 22  1  0
 22 23  1  0
 22 24  1  0
 22 25  1  0
 25 26  1  0
 25 27  1  0
 25 28  1  0
 28 29  2  0
 29 30  1  0
 30 31  1  0
 30 32  2  0
 32 33  1  0
 32 34  1  0
 34 35  1  0
 35 36  2  0
 36 37  1  0
 36 38  1  0
 38 39  1  0
 38 40  2  0
 40 41  1  0
 40 42  1  0
 42 43  1  0
 42 44  2  0
 10 45  1  0
 45 46  1  0
 45 47  2  0
 47 48  1  0
 47  5  1  0
 44 29  1  0
 44 35  1  0
M  CHG  2   2  -1  34  -1
M  END
>  <UniqueID>  (22) 
20

>  <SMILES>  (22) 
[NH-]C(=O)c1ccc(OCC(=O)NCCC/N=c2/cc[n-]c3cc(Cl)ccc23)cc1

>  <Energy>  (22) 
65.10582865008584

>  <Genealogy>  (22) 
[NH-]C(=O)c1ccc(OCC(=O)NCCCN=c2cc[n-]c3cc(Cl)ccc23)cc1 (protonated)
[NH-]C(=O)c1ccc(OCC(=O)NCCC/N=c2/cc[n-]c3cc(Cl)ccc23)cc1 (cis-trans isomerization)
[NH-]C(=O)c1ccc(OCC(=O)NCCC/N=c2/cc[n-]c3cc(Cl)ccc23)cc1 (3D coordinates assigned)
[NH-]C(=O)c1ccc(OCC(=O)NCCC/N=c2/cc[n-]c3cc(Cl)ccc23)cc1 (optimized conformer: 65.10582865008584 kcal/mol)

>  <smiles>  (22) 
NC(=O)c1ccc(OCC(=O)NCCCN=c2cc[nH]c3cc(Cl)ccc23)cc1

>  <score_type>  (22) 
oracle

>  <origin>  (22) 
adg

>  <m_score__min__energy>  (22) 
-12.369999999999999

>  <m_primary>  (22) 
energy

$$$$
22:0
     RDKit          3D

 42 43  0  0  1  0  0  0  0  0999 V2000
   60.1640   26.4520   46.4220 C   0  0  0  0  0  0  0  0  0  0  0  0
   58.7530   26.8200   46.1320 C   0  0  0  0  0  0  0  0  0  0  0  0
   58.4450   28.0580   45.6060 C   0  0  0  0  0  0  0  0  0  0  0  0
   56.4740   26.1820   46.1550 C   0  0  0  0  0  0  0  0  0  0  0  0
   55.5280   25.3560   46.3880 N   0  0  0  0  0  0  0  0  0  0  0  0
   57.3890   30.6390   45.2000 C   0  0  0  0  0  0  0  0  0  0  0  0
   57.4480   31.6710   44.2620 C   0  0  0  0  0  0  0  0  0  0  0  0
   58.1150   32.8400   44.5750 C   0  0  0  0  0  0  0  0  0  0  0  0
   58.7340   33.0300   45.7990 C   0  0  0  0  0  0  0  0  0  0  0  0
   59.5440   34.5410   46.0830 S   0  0  0  0  0  0  0  0  0  0  0  0
   61.2520   34.2220   46.4490 C   0  0  0  0  0  0  0  0  0  0  0  0
   58.8990   35.2630   47.2480 O   0  0  0  0  0  0  0  0  0  0  0  0
   59.4040   35.4200   44.8800 O   0  0  0  0  0  0  0  0  0  0  0  0
   58.6790   32.0080   46.7350 C   0  0  0  0  0  0  0  0  0  0  0  0
   58.0140   30.8510   46.4120 C   0  0  0  0  0  0  0  0  0  0  0  0
   56.1530   27.3940   45.6380 N   0  0  0  0  0  0  0  0  0  0  0  0
   57.0970   28.3090   45.3700 C   0  0  0  0  0  0  0  0  0  0  0  0
   56.7020   29.4340   44.8800 N   0  0  0  0  0  0  0  0  0  0  0  0
   54.9770   24.5930   45.3050 C   0  0  0  0  0  0  0  0  0  0  0  0
   54.2720   23.3620   45.8170 C   0  0  0  0  0  0  0  0  0  0  0  0
   56.1930   24.0690   44.5250 C   0  0  0  0  0  0  0  0  0  0  0  0
   57.7760   25.9350   46.3850 N   0  0  0  0  0  0  0  0  0  0  0  0
   60.3162   26.4123   47.5107 H   0  0  0  0  0  0  0  0  0  0  0  0
   60.3832   25.4666   45.9849 H   0  0  0  0  0  0  0  0  0  0  0  0
   60.8365   27.2048   45.9849 H   0  0  0  0  0  0  0  0  0  0  0  0
   59.2219   28.8048   45.3856 H   0  0  0  0  0  0  0  0  0  0  0  0
   56.9666   31.5544   43.2798 H   0  0  0  0  0  0  0  0  0  0  0  0
   58.1556   33.6459   43.8275 H   0  0  0  0  0  0  0  0  0  0  0  0
   61.3946   34.1954   47.5394 H   0  0  0  0  0  0  0  0  0  0  0  0
   61.5449   33.2536   46.0172 H   0  0  0  0  0  0  0  0  0  0  0  0
   61.8747   35.0194   46.0172 H   0  0  0  0  0  0  0  0  0  0  0  0
   59.1593   32.1223   47.7180 H   0  0  0  0  0  0  0  0  0  0  0  0
   57.9773   30.0472   47.1621 H   0  0  0  0  0  0  0  0  0  0  0  0
   55.1410   27.6170   45.4460 H   0  0  0  0  0  0  0  0  0  0  0  0
   54.2768   25.2117   44.7246 H   0  0  0  0  0  0  0  0  0  0  0  0
   54.2756   23.3682   46.9170 H   0  0  0  0  0  0  0  0  0  0  0  0
   53.2337   23.3563   45.4537 H   0  0  0  0  0  0  0  0  0  0  0  0
   54.7925   22.4636   45.4537 H   0  0  0  0  0  0  0  0  0  0  0  0
   56.9665   23.7357   45.2325 H   0  0  0  0  0  0  0  0  0  0  0  0
   55.8860   23.2233   43.8921 H   0  0  0  0  0  0  0  0  0  0  0  0
   56.5969   24.8730   43.8921 H   0  0  0  0  0  0  0  0  0  0  0  0
   58.0330   25.0050   46.7830 H   0  0  0  0  0  0  0  0  0  0  0  0
  1  2  1  0
  2  3  2  0
  3  4  1  0
  4  5  2  0
  5  6  1  0
  6  7  2  0
  7  8  1  0
  8  9  2  0
  9 10  1  0
 10 11  1  0
 10 12  2  0
 10 13  2  0
  9 14  1  0
 14 15  2  0
  4 16  1  0
 16 17  1  0
 17 18  2  0
 18 19  1  0
 19 20  1  0
 19 21  1  0
 17 22  1  0
 22  2  1  0
 15  6  1  0
  1 23  1  0
  1 24  1  0
  1 25  1  0
  3 26  1  0
  7 27  1  0
  8 28  1  0
 11 29  1  0
 11 30  1  0
 11 31  1  0
 14 32  1  0
 15 33  1  0
 16 34  1  0
 19 35  1  0
 20 36  1  0
 20 37  1  0
 20 38  1  0
 21 39  1  0
 21 40  1  0
 21 41  1  0
 22 42  1  0
M  END
>  <smiles>  (23) 
Cc1cc(=Nc2ccc(S(C)(=O)=O)cc2)[nH]c(=NC(C)C)[nH]1

>  <score_type>  (23) 
oracle

>  <origin>  (23) 
adg

>  <m_score__min__energy>  (23) 
-8.0299999999999994

>  <m_primary>  (23) 
energy

$$$$
23:0
     RDKit          3D

 25 26  0  0  0  0  0  0  0  0999 V2000
   58.0360   32.5100   43.1390 O   0  0  0  0  0  0  0  0  0  0  0  0
   57.6030   32.4160   44.3170 C   0  0  0  0  0  0  0  0  0  0  0  0
   56.4600   31.5880   44.5690 N   0  0  0  0  0  0  0  0  0  0  0  0
   56.3640   29.8900   44.2180 S   0  0  0  0  0  0  0  0  0  0  0  0
   55.1430   29.3190   44.8820 O   0  0  0  0  0  0  0  0  0  0  0  0
   56.2530   29.6870   42.7340 O   0  0  0  0  0  0  0  0  0  0  0  0
   57.7760   29.0530   44.8400 C   0  0  0  0  0  0  0  0  0  0  0  0
   59.0960   29.3460   44.5360 C   0  0  0  0  0  0  0  0  0  0  0  0
   60.0070   28.5480   45.2380 C   0  0  0  0  0  0  0  0  0  0  0  0
   59.4040   27.6310   46.0900 C   0  0  0  0  0  0  0  0  0  0  0  0
   57.7340   27.8140   45.9740 S   0  0  0  0  0  0  0  0  0  0  0  0
   58.2760   33.1720   45.3890 C   0  0  0  0  0  0  0  0  0  0  0  0
   59.0310   34.3140   45.0750 C   0  0  0  0  0  0  0  0  0  0  0  0
   59.6500   35.0490   46.0900 C   0  0  0  0  0  0  0  0  0  0  0  0
   59.5370   34.6390   47.4210 C   0  0  0  0  0  0  0  0  0  0  0  0
   58.8110   33.4880   47.7380 C   0  0  0  0  0  0  0  0  0  0  0  0
   58.1870   32.7520   46.7270 C   0  0  0  0  0  0  0  0  0  0  0  0
   59.3963   30.1239   43.8185 H   0  0  0  0  0  0  0  0  0  0  0  0
   61.0975   28.6384   45.1257 H   0  0  0  0  0  0  0  0  0  0  0  0
   59.9287   26.9079   46.7317 H   0  0  0  0  0  0  0  0  0  0  0  0
   59.1355   34.6310   44.0269 H   0  0  0  0  0  0  0  0  0  0  0  0
   60.2270   35.9517   45.8406 H   0  0  0  0  0  0  0  0  0  0  0  0
   60.0195   35.2223   48.2191 H   0  0  0  0  0  0  0  0  0  0  0  0
   58.7305   33.1606   48.7851 H   0  0  0  0  0  0  0  0  0  0  0  0
   57.6244   31.8411   46.9795 H   0  0  0  0  0  0  0  0  0  0  0  0
  1  2  2  0
  2  3  1  0
  3  4  1  0
  4  5  2  0
  4  6  2  0
  4  7  1  0
  7  8  2  0
  8  9  1  0
  9 10  2  0
 10 11  1  0
  2 12  1  0
 12 13  2  0
 13 14  1  0
 14 15  2  0
 15 16  1  0
 16 17  2  0
 11  7  1  0
 17 12  1  0
  8 18  1  0
  9 19  1  0
 10 20  1  0
 13 21  1  0
 14 22  1  0
 15 23  1  0
 16 24  1  0
 17 25  1  0
M  CHG  1   3  -1
M  END
>  <UniqueID>  (24) 
21

>  <SMILES>  (24) 
O=C([N-]S(=O)(=O)c1cccs1)c1ccccc1

>  <Energy>  (24) 
57.40652516188849

>  <Genealogy>  (24) 
O=C([N-]S(=O)(=O)c1cccs1)c1ccccc1 (protonated)
O=C([N-]S(=O)(=O)c1cccs1)c1ccccc1 (3D coordinates assigned)
O=C([N-]S(=O)(=O)c1cccs1)c1ccccc1 (optimized conformer: 57.40652516188849 kcal/mol)

>  <smiles>  (24) 
O=C(NS(=O)(=O)c1cccs1)c1ccccc1

>  <score_type>  (24) 
oracle

>  <origin>  (24) 
adg

>  <m_score__min__energy>  (24) 
-8.9199999999999999

>  <m_primary>  (24) 
energy

$$$$
24:0
     RDKit          3D

 58 60  0  0  0  0  0  0  0  0999 V2000
   57.4398   26.3024   48.2887 H   0  0  0  0  0  0  0  0  0  0  0  0
   57.7240   26.5530   47.2560 C   0  0  0  0  0  0  0  0  0  0  0  0
   59.1030   27.0110   47.0100 C   0  0  0  0  0  0  0  0  0  0  0  0
   59.9350   26.1840   46.5510 O   0  0  0  0  0  0  0  0  0  0  0  0
   59.5420   28.3890   47.3250 C   0  0  0  0  0  0  0  0  0  0  0  0
   58.9250   29.0900   48.3780 C   0  0  0  0  0  0  0  0  0  0  0  0
   58.1590   28.5928   48.9911 H   0  0  0  0  0  0  0  0  0  0  0  0
   59.2800   30.4140   48.6490 C   0  0  0  0  0  0  0  0  0  0  0  0
   58.8043   30.9499   49.4835 H   0  0  0  0  0  0  0  0  0  0  0  0
   60.2370   31.0580   47.8630 C   0  0  0  0  0  0  0  0  0  0  0  0
   60.5083   32.1031   48.0732 H   0  0  0  0  0  0  0  0  0  0  0  0
   60.8500   30.3760   46.8100 C   0  0  0  0  0  0  0  0  0  0  0  0
   61.5983   30.8881   46.1873 H   0  0  0  0  0  0  0  0  0  0  0  0
   60.5160   29.0440   46.5440 C   0  0  0  0  0  0  0  0  0  0  0  0
   61.1140   28.4160   45.4990 F   0  0  0  0  0  0  0  0  0  0  0  0
   58.1510   26.3670   43.7100 C   0  0  0  0  0  0  0  0  0  0  0  0
   59.2150   26.2844   43.9766 H   0  0  0  0  0  0  0  0  0  0  0  0
   57.2600   25.2510   44.1260 C   0  0  0  0  0  0  0  0  0  0  0  0
   55.8340   24.1590   45.7920 C   0  0  0  0  0  0  0  0  0  0  0  0
   55.2130   24.2380   47.0550 O   0  0  0  0  0  0  0  0  0  0  0  0
   55.2240   23.2540   48.0820 C   0  0  0  0  0  0  0  0  0  0  0  0
   55.2185   23.7491   49.0643 H   0  0  0  0  0  0  0  0  0  0  0  0
   54.3329   22.6159   47.9880 H   0  0  0  0  0  0  0  0  0  0  0  0
   56.1291   22.6360   47.9880 H   0  0  0  0  0  0  0  0  0  0  0  0
   55.6410   23.0730   44.9010 C   0  0  0  0  0  0  0  0  0  0  0  0
   54.8700   21.9700   45.2880 O   0  0  0  0  0  0  0  0  0  0  0  0
   55.4390   20.7480   45.7510 C   0  0  0  0  0  0  0  0  0  0  0  0
   55.4432   20.7390   46.8510 H   0  0  0  0  0  0  0  0  0  0  0  0
   54.8423   19.9018   45.3797 H   0  0  0  0  0  0  0  0  0  0  0  0
   56.4707   20.6600   45.3797 H   0  0  0  0  0  0  0  0  0  0  0  0
   56.2420   23.0890   43.6290 C   0  0  0  0  0  0  0  0  0  0  0  0
   56.0990   21.9720   42.7910 O   0  0  0  0  0  0  0  0  0  0  0  0
   57.0250   20.8930   42.7080 C   0  0  0  0  0  0  0  0  0  0  0  0
   57.3027   20.5694   43.7220 H   0  0  0  0  0  0  0  0  0  0  0  0
   56.5621   20.0532   42.1690 H   0  0  0  0  0  0  0  0  0  0  0  0
   57.9253   21.2231   42.1690 H   0  0  0  0  0  0  0  0  0  0  0  0
   56.9950   24.2040   43.2350 C   0  0  0  0  0  0  0  0  0  0  0  0
   57.3845   24.2572   42.2077 H   0  0  0  0  0  0  0  0  0  0  0  0
   57.5340   28.8180   43.6090 C   0  0  0  0  0  0  0  0  0  0  0  0
   57.7720   27.4680   43.0370 C   0  0  0  0  0  0  0  0  0  0  0  0
   57.6231   27.3575   41.9527 H   0  0  0  0  0  0  0  0  0  0  0  0
   56.7950   26.4230   46.2990 C   0  0  0  0  0  0  0  0  0  0  0  0
   56.0816   27.2496   46.1652 H   0  0  0  0  0  0  0  0  0  0  0  0
   56.6580   25.2420   45.4040 C   0  0  0  0  0  0  0  0  0  0  0  0
   58.5460   29.5540   44.2510 C   0  0  0  0  0  0  0  0  0  0  0  0
   59.5596   29.1339   44.3294 H   0  0  0  0  0  0  0  0  0  0  0  0
   58.2750   30.8140   44.7900 C   0  0  0  0  0  0  0  0  0  0  0  0
   59.0819   31.3861   45.2714 H   0  0  0  0  0  0  0  0  0  0  0  0
   56.9880   31.3540   44.7230 C   0  0  0  0  0  0  0  0  0  0  0  0
   56.7690   32.6240   45.2760 O   0  0  0  0  0  0  0  0  0  0  0  0
   57.7950   33.5800   45.5260 C   0  0  0  0  0  0  0  0  0  0  0  0
   57.9259   33.7020   46.6113 H   0  0  0  0  0  0  0  0  0  0  0  0
   58.7380   33.2310   45.0799 H   0  0  0  0  0  0  0  0  0  0  0  0
   57.5134   34.5452   45.0799 H   0  0  0  0  0  0  0  0  0  0  0  0
   55.9640   30.6100   44.1080 C   0  0  0  0  0  0  0  0  0  0  0  0
   54.9455   31.0217   44.0525 H   0  0  0  0  0  0  0  0  0  0  0  0
   56.2360   29.3490   43.5670 C   0  0  0  0  0  0  0  0  0  0  0  0
   55.4245   28.7682   43.1042 H   0  0  0  0  0  0  0  0  0  0  0  0
  1  2  1  0
  2  3  1  0
  3  4  2  0
  3  5  1  0
  5  6  2  0
  6  7  1  0
  6  8  1  0
  8  9  1  0
  8 10  2  0
 10 11  1  0
 10 12  1  0
 12 13  1  0
 12 14  2  0
 14 15  1  0
  2 16  2  0
 16 17  1  0
 16 18  1  0
 18 19  2  0
 19 20  1  0
 20 21  1  0
 21 22  1  0
 21 23  1  0
 21 24  1  0
 19 25  1  0
 25 26  1  0
 26 27  1  0
 27 28  1  0
 27 29  1  0
 27 30  1  0
 25 31  2  0
 31 32  1  0
 32 33  1  0
 33 34  1  0
 33 35  1  0
 33 36  1  0
 31 37  1  0
 37 38  1  0
 37 39  2  0
 39 40  1  0
 40 41  1  0
 40 42  2  0
 42 43  1  0
 42 44  1  0
 44 45  2  0
 45 46  1  0
 45 47  1  0
 47 48  1  0
 47 49  2  0
 49 50  1  0
 50 51  1  0
 51 52  1  0
 51 53  1  0
 51 54  1  0
 49 55  1  0
 55 56  1  0
 55 57  2  0
 57 58  1  0
 14  5  1  0
 39 18  1  0
 57 44  1  0
M  END
>  <UniqueID>  (25) 
22

>  <SMILES>  (25) 
COc1ccc(/C=C\c2cc(OC)c(OC)c(OC)c2/C=C\C(=O)c2ccccc2F)cc1

>  <Energy>  (25) 
89.54432159817591

>  <Genealogy>  (25) 
COc1ccc(/C=C\c2cc(OC)c(OC)c(OC)c2/C=C\C(=O)c2ccccc2F)cc1 (cis-trans isomerization)
COc1ccc(/C=C\c2cc(OC)c(OC)c(OC)c2/C=C\C(=O)c2ccccc2F)cc1 (3D coordinates assigned)
COc1ccc(/C=C\c2cc(OC)c(OC)c(OC)c2/C=C\C(=O)c2ccccc2F)cc1 (optimized conformer: 89.54432159817591 kcal/mol)

>  <smiles>  (25) 
COc1ccc(C=Cc2cc(OC)c(OC)c(OC)c2C=CC(=O)c2ccccc2F)cc1

>  <score_type>  (25) 
oracle

>  <origin>  (25) 
adg

>  <m_score__min__energy>  (25) 
-8.7599999999999998

>  <m_primary>  (25) 
energy

$$$$
25:0
     RDKit          3D

 43 44  0  0  0  0  0  0  0  0999 V2000
   60.4200   28.9440   48.3910 C   0  0  0  0  0  0  0  0  0  0  0  0
   59.9410   30.3400   48.6570 C   0  0  0  0  0  0  0  0  0  0  0  0
   58.9120   30.5700   49.5830 C   0  0  0  0  0  0  0  0  0  0  0  0
   58.4910   31.8720   49.8550 C   0  0  0  0  0  0  0  0  0  0  0  0
   59.1000   32.9570   49.2180 C   0  0  0  0  0  0  0  0  0  0  0  0
   60.1500   32.7430   48.3030 C   0  0  0  0  0  0  0  0  0  0  0  0
   60.8050   33.7930   47.6380 O   0  0  0  0  0  0  0  0  0  0  0  0
   60.6960   34.0910   46.2450 C   0  0  0  0  0  0  0  0  0  0  0  0
   59.5380   35.0650   45.9910 C   0  0  0  0  0  0  0  0  0  0  0  0
   58.5680   34.5500   44.9200 C   0  0  0  0  0  0  0  0  0  0  0  0
   58.0020   33.2070   45.2780 C   0  0  0  0  0  0  0  0  0  0  0  0
   57.1590   33.1240   46.2120 O   0  0  0  0  0  0  0  0  0  0  0  0
   58.3610   32.0470   44.5100 N   0  0  0  0  0  0  0  0  0  0  0  0
   57.9820   30.7040   44.8550 C   0  0  0  0  0  0  0  0  0  0  0  0
   56.6830   30.2600   44.5680 C   0  0  0  0  0  0  0  0  0  0  0  0
   56.2950   28.9540   44.8740 C   0  0  0  0  0  0  0  0  0  0  0  0
   57.2070   28.0670   45.4630 C   0  0  0  0  0  0  0  0  0  0  0  0
   56.7220   26.4150   45.8320 S   0  0  0  0  0  0  0  0  0  0  0  0
   55.0040   26.3410   45.9920 N   0  0  0  0  0  0  0  0  0  0  0  0
   57.1620   25.4960   44.7280 O   0  0  0  0  0  0  0  0  0  0  0  0
   57.3670   25.9710   47.1150 O   0  0  0  0  0  0  0  0  0  0  0  0
   58.5150   28.4950   45.7230 C   0  0  0  0  0  0  0  0  0  0  0  0
   58.9030   29.8020   45.4180 C   0  0  0  0  0  0  0  0  0  0  0  0
   60.5640   31.4330   48.0330 C   0  0  0  0  0  0  0  0  0  0  0  0
   60.5968   28.4287   49.3466 H   0  0  0  0  0  0  0  0  0  0  0  0
   59.6577   28.3982   47.8156 H   0  0  0  0  0  0  0  0  0  0  0  0
   61.3568   28.9812   47.8156 H   0  0  0  0  0  0  0  0  0  0  0  0
   58.4360   29.7213   50.0959 H   0  0  0  0  0  0  0  0  0  0  0  0
   57.6765   32.0454   50.5737 H   0  0  0  0  0  0  0  0  0  0  0  0
   58.7586   33.9807   49.4316 H   0  0  0  0  0  0  0  0  0  0  0  0
   61.6350   34.5472   45.8982 H   0  0  0  0  0  0  0  0  0  0  0  0
   60.5016   33.1576   45.6964 H   0  0  0  0  0  0  0  0  0  0  0  0
   58.9840   35.2084   46.9304 H   0  0  0  0  0  0  0  0  0  0  0  0
   59.9673   36.0109   45.6292 H   0  0  0  0  0  0  0  0  0  0  0  0
   57.7412   35.2678   44.8141 H   0  0  0  0  0  0  0  0  0  0  0  0
   59.1249   34.4453   43.9772 H   0  0  0  0  0  0  0  0  0  0  0  0
   58.8430   32.2000   43.5950 H   0  0  0  0  0  0  0  0  0  0  0  0
   55.9636   30.9465   44.0978 H   0  0  0  0  0  0  0  0  0  0  0  0
   55.2706   28.6201   44.6522 H   0  0  0  0  0  0  0  0  0  0  0  0
   54.7310   27.0660   46.6920 H   0  0  0  0  0  0  0  0  0  0  0  0
   59.2402   27.7988   46.1695 H   0  0  0  0  0  0  0  0  0  0  0  0
   59.9343   30.1275   45.6192 H   0  0  0  0  0  0  0  0  0  0  0  0
   61.3866   31.2580   47.3240 H   0  0  0  0  0  0  0  0  0  0  0  0
  1  2  1  0
  2  3  2  0
  3  4  1  0
  4  5  2  0
  5  6  1  0
  6  7  1  0
  7  8  1  0
  8  9  1  0
  9 10  1  0
 10 11  1  0
 11 12  2  0
 11 13  1  0
 13 14  1  0
 14 15  2  0
 15 16  1  0
 16 17  2  0
 17 18  1  0
 18 19  1  0
 18 20  2  0
 18 21  2  0
 17 22  1  0
 22 23  2  0
  6 24  2  0
 24  2  1  0
 23 14  1  0
  1 25  1  0
  1 26  1  0
  1 27  1  0
  3 28  1  0
  4 29  1  0
  5 30  1  0
  8 31  1  0
  8 32  1  0
  9 33  1  0
  9 34  1  0
 10 35  1  0
 10 36  1  0
 13 37  1  0
 15 38  1  0
 16 39  1  0
 19 40  1  0
 22 41  1  0
 23 42  1  0
 24 43  1  0
M  CHG  1  19  -1
M  END
>  <UniqueID>  (26) 
23

>  <SMILES>  (26) 
Cc1cccc(OCCCC(=O)Nc2ccc(S([NH-])(=O)=O)cc2)c1

>  <Energy>  (26) 
40.9305491406897

>  <Genealogy>  (26) 
Cc1cccc(OCCCC(=O)Nc2ccc(S([NH-])(=O)=O)cc2)c1 (protonated)
Cc1cccc(OCCCC(=O)Nc2ccc(S([NH-])(=O)=O)cc2)c1 (3D coordinates assigned)
Cc1cccc(OCCCC(=O)Nc2ccc(S([NH-])(=O)=O)cc2)c1 (optimized conformer: 40.9305491406897 kcal/mol)

>  <smiles>  (26) 
Cc1cccc(OCCCC(=O)Nc2ccc(S(N)(=O)=O)cc2)c1

>  <score_type>  (26) 
oracle

>  <origin>  (26) 
adg

>  <m_score__min__energy>  (26) 
-10.81

>  <m_primary>  (26) 
energy

$$$$
26:0
     RDKit          3D

 49 52  0  0  0  0  0  0  0  0999 V2000
   60.1374   35.2080   46.5356 H   0  0  0  0  0  0  0  0  0  0  0  0
   59.4130   34.4600   46.1810 C   0  0  0  0  0  0  0  0  0  0  0  0
   58.6900   33.6980   47.1010 C   0  0  0  0  0  0  0  0  0  0  0  0
   58.8457   33.8458   48.1798 H   0  0  0  0  0  0  0  0  0  0  0  0
   57.7680   32.7470   46.6520 C   0  0  0  0  0  0  0  0  0  0  0  0
   57.2001   32.1499   47.3807 H   0  0  0  0  0  0  0  0  0  0  0  0
   57.5630   32.5500   45.2800 C   0  0  0  0  0  0  0  0  0  0  0  0
   56.6300   31.5830   44.8780 O   0  0  0  0  0  0  0  0  0  0  0  0
   56.7230   30.8310   43.6710 C   0  0  0  0  0  0  0  0  0  0  0  0
   57.3516   31.3723   42.9486 H   0  0  0  0  0  0  0  0  0  0  0  0
   55.7179   30.6901   43.2469 H   0  0  0  0  0  0  0  0  0  0  0  0
   57.3470   29.4690   43.9700 C   0  0  0  0  0  0  0  0  0  0  0  0
   58.4415   29.5618   43.9116 H   0  0  0  0  0  0  0  0  0  0  0  0
   56.9619   28.7544   43.2277 H   0  0  0  0  0  0  0  0  0  0  0  0
   56.9710   28.9440   45.3620 C   0  0  0  0  0  0  0  0  0  0  0  0
   56.1938   28.1723   45.2593 H   0  0  0  0  0  0  0  0  0  0  0  0
   56.5976   29.7828   45.9678 H   0  0  0  0  0  0  0  0  0  0  0  0
   58.1400   28.3640   46.0290 N   0  0  0  0  0  0  0  0  0  0  0  0
   58.9490   28.9510   46.8680 C   0  0  0  0  0  0  0  0  0  0  0  0
   59.7830   30.0590   46.3650 C   0  0  0  0  0  0  0  0  0  0  0  0
   59.6810   30.4230   45.1620 O   0  0  0  0  0  0  0  0  0  0  0  0
   60.7410   30.7380   47.2490 C   0  0  0  0  0  0  0  0  0  0  0  0
   61.4830   31.7700   46.7640 N   0  0  0  0  0  0  0  0  0  0  0  0
   62.3960   32.4320   47.5220 C   0  0  0  0  0  0  0  0  0  0  0  0
   63.3370   33.7080   46.7610 Cl  0  0  0  0  0  0  0  0  0  0  0  0
   62.6020   32.0510   48.8630 C   0  0  0  0  0  0  0  0  0  0  0  0
   63.5770   32.7430   49.7360 C   0  0  0  0  0  0  0  0  0  0  0  0
   64.9350   32.3980   49.7070 C   0  0  0  0  0  0  0  0  0  0  0  0
   65.2879   31.5963   49.0416 H   0  0  0  0  0  0  0  0  0  0  0  0
   65.8380   33.0780   50.5280 C   0  0  0  0  0  0  0  0  0  0  0  0
   66.9038   32.8061   50.5148 H   0  0  0  0  0  0  0  0  0  0  0  0
   65.4020   34.0760   51.3440 N   0  0  0  0  0  0  0  0  0  0  0  0
   66.0900   34.5760   51.9520 H   0  0  0  0  0  0  0  0  0  0  0  0
   64.0910   34.4390   51.3830 C   0  0  0  0  0  0  0  0  0  0  0  0
   63.7663   35.2507   52.0506 H   0  0  0  0  0  0  0  0  0  0  0  0
   63.1570   33.7840   50.5780 C   0  0  0  0  0  0  0  0  0  0  0  0
   62.0985   34.0822   50.6037 H   0  0  0  0  0  0  0  0  0  0  0  0
   61.8580   30.9780   49.3750 C   0  0  0  0  0  0  0  0  0  0  0  0
   62.0160   30.6518   50.4136 H   0  0  0  0  0  0  0  0  0  0  0  0
   60.9130   30.3160   48.5740 C   0  0  0  0  0  0  0  0  0  0  0  0
   60.1170   29.1890   49.1100 C   0  0  0  0  0  0  0  0  0  0  0  0
   60.3650   28.7370   50.2610 O   0  0  0  0  0  0  0  0  0  0  0  0
   58.9710   28.5880   48.3400 C   0  0  0  0  0  0  0  0  0  0  0  0
   59.0364   27.4931   48.4238 H   0  0  0  0  0  0  0  0  0  0  0  0
   58.0486   28.9963   48.7787 H   0  0  0  0  0  0  0  0  0  0  0  0
   58.2970   33.3230   44.3570 C   0  0  0  0  0  0  0  0  0  0  0  0
   58.1455   33.1783   43.2771 H   0  0  0  0  0  0  0  0  0  0  0  0
   59.2170   34.2730   44.8110 C   0  0  0  0  0  0  0  0  0  0  0  0
   59.7875   34.8742   44.0877 H   0  0  0  0  0  0  0  0  0  0  0  0
  1  2  1  0
  2  3  2  0
  3  4  1  0
  3  5  1  0
  5  6  1  0
  5  7  2  0
  7  8  1  0
  8  9  1  0
  9 10  1  0
  9 11  1  0
  9 12  1  0
 12 13  1  0
 12 14  1  0
 12 15  1  0
 15 16  1  0
 15 17  1  0
 15 18  1  0
 18 19  2  0
 19 20  1  0
 20 21  2  0
 20 22  1  0
 22 23  2  0
 23 24  1  0
 24 25  1  0
 24 26  2  0
 26 27  1  0
 27 28  2  0
 28 29  1  0
 28 30  1  0
 30 31  1  0
 30 32  2  0
 32 33  1  0
 32 34  1  0
 34 35  1  0
 34 36  2  0
 36 37  1  0
 26 38  1  0
 38 39  1  0
 38 40  2  0
 40 41  1  0
 41 42  2  0
 41 43  1  0
 43 44  1  0
 43 45  1  0
  7 46  1  0
 46 47  1  0
 46 48  2  0
 48 49  1  0
 48  2  1  0
 43 19  1  0
 40 22  1  0
 36 27  1  0
M  CHG  1  32   1
M  END
>  <UniqueID>  (27) 
24

>  <SMILES>  (27) 
O=C1C/C(=N\CCCOc2ccccc2)C(=O)c2nc(Cl)c(-c3cc[nH+]cc3)cc21

>  <Energy>  (27) 
60.94112454932315

>  <Genealogy>  (27) 
O=C1CC(=NCCCOc2ccccc2)C(=O)c2nc(Cl)c(-c3cc[nH+]cc3)cc21 (protonated)
O=C1C/C(=N\CCCOc2ccccc2)C(=O)c2nc(Cl)c(-c3cc[nH+]cc3)cc21 (cis-trans isomerization)
O=C1C/C(=N\CCCOc2ccccc2)C(=O)c2nc(Cl)c(-c3cc[nH+]cc3)cc21 (3D coordinates assigned)
O=C1C/C(=N\CCCOc2ccccc2)C(=O)c2nc(Cl)c(-c3cc[nH+]cc3)cc21 (nonaromatic ring conformer: 60.94112454932315 kcal/mol)

>  <smiles>  (27) 
O=C1CC(=NCCCOc2ccccc2)C(=O)c2nc(Cl)c(-c3ccncc3)cc21

>  <score_type>  (27) 
oracle

>  <origin>  (27) 
adg

>  <m_score__min__energy>  (27) 
-7.4699999999999998

>  <m_primary>  (27) 
energy

$$$$
27:0
     RDKit          3D

 50 53  0  0  0  0  0  0  0  0999 V2000
   57.2930   28.3210   43.7000 O   0  0  0  0  0  0  0  0  0  0  0  0
   56.5980   28.6700   44.6890 C   0  0  0  0  0  0  0  0  0  0  0  0
   56.2050   30.0380   44.8600 N   0  0  0  0  0  0  0  0  0  0  0  0
   56.9770   31.2010   44.5270 C   0  0  0  0  0  0  0  0  0  0  0  0
   57.4080   31.3630   43.2040 C   0  0  0  0  0  0  0  0  0  0  0  0
   58.1450   32.4920   42.8330 C   0  0  0  0  0  0  0  0  0  0  0  0
   58.4430   33.4760   43.7790 C   0  0  0  0  0  0  0  0  0  0  0  0
   57.9960   33.3360   45.0950 C   0  0  0  0  0  0  0  0  0  0  0  0
   57.2590   32.2080   45.4710 C   0  0  0  0  0  0  0  0  0  0  0  0
   56.2090   27.6780   45.6450 N   0  0  0  0  0  0  0  0  0  0  0  0
   56.7230   26.3400   45.7310 C   0  0  0  0  0  0  0  0  0  0  0  0
   55.9170   25.2290   45.4220 C   0  0  0  0  0  0  0  0  0  0  0  0
   56.4530   23.9400   45.4450 C   0  0  0  0  0  0  0  0  0  0  0  0
   57.7990   23.7460   45.7570 C   0  0  0  0  0  0  0  0  0  0  0  0
   58.6150   24.8420   46.0430 C   0  0  0  0  0  0  0  0  0  0  0  0
   58.0850   26.1430   46.0330 C   0  0  0  0  0  0  0  0  0  0  0  0
   58.9360   27.2580   46.3420 N   0  0  0  0  0  0  0  0  0  0  0  0
   59.7710   27.8470   45.2880 C   0  0  0  0  0  0  0  0  0  0  0  0
   59.8580   29.3680   45.4690 C   0  0  0  0  0  0  0  0  0  0  0  0
   60.0380   29.7400   46.8820 N   0  0  0  0  0  0  0  0  0  0  0  0
   59.9240   31.1220   47.2720 C   0  0  0  0  0  0  0  0  0  0  0  0
   58.9420   31.5230   48.1950 C   0  0  0  0  0  0  0  0  0  0  0  0
   58.8440   32.8630   48.5820 C   0  0  0  0  0  0  0  0  0  0  0  0
   59.7240   33.8120   48.0580 C   0  0  0  0  0  0  0  0  0  0  0  0
   60.7090   33.4220   47.1460 C   0  0  0  0  0  0  0  0  0  0  0  0
   60.8110   32.0830   46.7550 C   0  0  0  0  0  0  0  0  0  0  0  0
   60.2340   28.6910   47.8900 C   0  0  0  0  0  0  0  0  0  0  0  0
   59.1340   27.6360   47.7500 C   0  0  0  0  0  0  0  0  0  0  0  0
   57.1652   30.5974   42.4524 H   0  0  0  0  0  0  0  0  0  0  0  0
   58.4906   32.6055   41.7949 H   0  0  0  0  0  0  0  0  0  0  0  0
   59.0291   34.3601   43.4878 H   0  0  0  0  0  0  0  0  0  0  0  0
   58.2241   34.1148   45.8376 H   0  0  0  0  0  0  0  0  0  0  0  0
   56.8990   32.1071   46.5055 H   0  0  0  0  0  0  0  0  0  0  0  0
   54.8587   25.3767   45.1609 H   0  0  0  0  0  0  0  0  0  0  0  0
   55.8126   23.0753   45.2166 H   0  0  0  0  0  0  0  0  0  0  0  0
   58.2174   22.7289   45.7776 H   0  0  0  0  0  0  0  0  0  0  0  0
   59.6784   24.6861   46.2774 H   0  0  0  0  0  0  0  0  0  0  0  0
   60.7817   27.4163   45.3419 H   0  0  0  0  0  0  0  0  0  0  0  0
   59.3209   27.6272   44.3087 H   0  0  0  0  0  0  0  0  0  0  0  0
   60.7122   29.7475   44.8891 H   0  0  0  0  0  0  0  0  0  0  0  0
   58.9141   29.8093   45.1164 H   0  0  0  0  0  0  0  0  0  0  0  0
   58.2481   30.7796   48.6143 H   0  0  0  0  0  0  0  0  0  0  0  0
   58.0711   33.1706   49.3017 H   0  0  0  0  0  0  0  0  0  0  0  0
   59.6422   34.8658   48.3626 H   0  0  0  0  0  0  0  0  0  0  0  0
   61.4045   34.1689   46.7355 H   0  0  0  0  0  0  0  0  0  0  0  0
   61.5893   31.7800   46.0392 H   0  0  0  0  0  0  0  0  0  0  0  0
   61.2161   28.2185   47.7411 H   0  0  0  0  0  0  0  0  0  0  0  0
   60.1893   29.1358   48.8951 H   0  0  0  0  0  0  0  0  0  0  0  0
   59.4185   26.7424   48.3249 H   0  0  0  0  0  0  0  0  0  0  0  0
   58.1938   28.0599   48.1325 H   0  0  0  0  0  0  0  0  0  0  0  0
  1  2  2  0
  2  3  1  0
  3  4  1  0
  4  5  2  0
  5  6  1  0
  6  7  2  0
  7  8  1  0
  8  9  2  0
  2 10  1  0
 10 11  1  0
 11 12  2  0
 12 13  1  0
 13 14  2  0
 14 15  1  0
 15 16  2  0
 16 17  1  0
 17 18  1  0
 18 19  1  0
 19 20  1  0
 20 21  1  0
 21 22  2  0
 22 23  1  0
 23 24  2  0
 24 25  1  0
 25 26  2  0
 20 27  1  0
 27 28  1  0
  9  4  1  0
 16 11  1  0
 28 17  1  0
 26 21  1  0
  5 29  1  0
  6 30  1  0
  7 31  1  0
  8 32  1  0
  9 33  1  0
 12 34  1  0
 13 35  1  0
 14 36  1  0
 15 37  1  0
 18 38  1  0
 18 39  1  0
 19 40  1  0
 19 41  1  0
 22 42  1  0
 23 43  1  0
 24 44  1  0
 25 45  1  0
 26 46  1  0
 27 47  1  0
 27 48  1  0
 28 49  1  0
 28 50  1  0
M  CHG  2   3  -1  10  -1
M  END
>  <UniqueID>  (28) 
25

>  <SMILES>  (28) 
O=C([N-]c1ccccc1)[N-]c1ccccc1N1CCN(c2ccccc2)CC1

>  <Energy>  (28) 
70.07633425925519

>  <Genealogy>  (28) 
O=C([N-]c1ccccc1)[N-]c1ccccc1N1CCN(c2ccccc2)CC1 (protonated)
O=C([N-]c1ccccc1)[N-]c1ccccc1N1CCN(c2ccccc2)CC1 (3D coordinates assigned)
O=C([N-]c1ccccc1)[N-]c1ccccc1N1CCN(c2ccccc2)CC1 (nonaromatic ring conformer: 70.07633425925519 kcal/mol)

>  <smiles>  (28) 
O=C(Nc1ccccc1)Nc1ccccc1N1CCN(c2ccccc2)CC1

>  <score_type>  (28) 
oracle

>  <origin>  (28) 
adg

>  <m_score__min__energy>  (28) 
-11.81

>  <m_primary>  (28) 
energy

$$$$
28:0
     RDKit          3D

 48 50  0  0  0  0  0  0  0  0999 V2000
   58.5170   23.1780   45.6010 C   0  0  0  0  0  0  0  0  0  0  0  0
   58.3970   24.3690   46.3720 O   0  0  0  0  0  0  0  0  0  0  0  0
   58.0320   25.6180   45.8480 C   0  0  0  0  0  0  0  0  0  0  0  0
   57.5760   26.6740   46.6580 C   0  0  0  0  0  0  0  0  0  0  0  0
   57.2240   27.9010   46.0870 C   0  0  0  0  0  0  0  0  0  0  0  0
   57.3260   28.0900   44.7010 C   0  0  0  0  0  0  0  0  0  0  0  0
   56.8670   29.6240   43.9650 S   0  0  0  0  0  0  0  0  0  0  0  0
   55.8520   30.2910   44.8510 O   0  0  0  0  0  0  0  0  0  0  0  0
   56.2360   29.3700   42.6240 O   0  0  0  0  0  0  0  0  0  0  0  0
   58.2870   30.6360   43.8000 N   0  0  2  0  0  0  0  0  0  0  0  0
   59.1000   30.6260   45.0370 C   0  0  0  0  0  0  0  0  0  0  0  0
   58.4710   31.4400   46.1850 C   0  0  0  0  0  0  0  0  0  0  0  0
   57.7810   32.7450   45.7120 C   0  0  1  0  0  0  0  0  0  0  0  0
   58.0110   33.9110   46.6960 C   0  0  0  0  0  0  0  0  0  0  0  0
   59.4120   33.9020   47.2570 C   0  0  0  0  0  0  0  0  0  0  0  0
   59.6150   33.8920   48.6470 C   0  0  0  0  0  0  0  0  0  0  0  0
   60.9120   33.8570   49.1710 C   0  0  0  0  0  0  0  0  0  0  0  0
   62.0130   33.8290   48.3110 C   0  0  0  0  0  0  0  0  0  0  0  0
   61.8200   33.8350   46.9270 C   0  0  0  0  0  0  0  0  0  0  0  0
   60.5250   33.8700   46.4000 C   0  0  0  0  0  0  0  0  0  0  0  0
   58.2510   33.1300   44.3040 C   0  0  0  0  0  0  0  0  0  0  0  0
   57.9410   31.9990   43.3060 C   0  0  0  0  0  0  0  0  0  0  0  0
   57.7750   27.0380   43.8940 C   0  0  0  0  0  0  0  0  0  0  0  0
   58.1280   25.8120   44.4650 C   0  0  0  0  0  0  0  0  0  0  0  0
   58.6042   22.3125   46.2743 H   0  0  0  0  0  0  0  0  0  0  0  0
   57.6261   23.0606   44.9665 H   0  0  0  0  0  0  0  0  0  0  0  0
   59.4134   23.2407   44.9665 H   0  0  0  0  0  0  0  0  0  0  0  0
   57.4959   26.5338   47.7461 H   0  0  0  0  0  0  0  0  0  0  0  0
   56.8659   28.7208   46.7271 H   0  0  0  0  0  0  0  0  0  0  0  0
   58.8700   30.1740   43.0630 H   0  0  0  0  0  0  0  0  0  0  0  0
   59.2163   29.5842   45.3703 H   0  0  0  0  0  0  0  0  0  0  0  0
   60.0661   31.0937   44.7964 H   0  0  0  0  0  0  0  0  0  0  0  0
   57.7205   30.8116   46.6869 H   0  0  0  0  0  0  0  0  0  0  0  0
   59.2888   31.7328   46.8599 H   0  0  0  0  0  0  0  0  0  0  0  0
   56.6994   32.5470   45.6823 H   0  0  0  0  0  0  0  0  0  0  0  0
   57.8451   34.8612   46.1673 H   0  0  0  0  0  0  0  0  0  0  0  0
   57.3065   33.7964   47.5330 H   0  0  0  0  0  0  0  0  0  0  0  0
   58.7503   33.9118   49.3267 H   0  0  0  0  0  0  0  0  0  0  0  0
   61.0649   33.8515   50.2603 H   0  0  0  0  0  0  0  0  0  0  0  0
   63.0323   33.8022   48.7237 H   0  0  0  0  0  0  0  0  0  0  0  0
   62.6877   33.8122   46.2512 H   0  0  0  0  0  0  0  0  0  0  0  0
   60.3772   33.8725   45.3100 H   0  0  0  0  0  0  0  0  0  0  0  0
   57.7314   34.0460   43.9864 H   0  0  0  0  0  0  0  0  0  0  0  0
   59.3377   33.2994   44.3247 H   0  0  0  0  0  0  0  0  0  0  0  0
   56.8642   32.0218   43.0825 H   0  0  0  0  0  0  0  0  0  0  0  0
   58.5647   32.1811   42.4184 H   0  0  0  0  0  0  0  0  0  0  0  0
   57.8504   27.1768   42.8054 H   0  0  0  0  0  0  0  0  0  0  0  0
   58.4840   24.9932   43.8225 H   0  0  0  0  0  0  0  0  0  0  0  0
  1  2  1  0
  2  3  1  0
  3  4  2  0
  4  5  1  0
  5  6  2  0
  6  7  1  0
  7  8  2  0
  7  9  2  0
  7 10  1  0
 10 11  1  0
 11 12  1  0
 12 13  1  0
 13 14  1  0
 14 15  1  0
 15 16  2  0
 16 17  1  0
 17 18  2  0
 18 19  1  0
 19 20  2  0
 13 21  1  0
 21 22  1  0
  6 23  1  0
 23 24  2  0
 24  3  1  0
 22 10  1  0
 20 15  1  0
  1 25  1  0
  1 26  1  0
  1 27  1  0
  4 28  1  0
  5 29  1  0
 10 30  1  6
 11 31  1  0
 11 32  1  0
 12 33  1  0
 12 34  1  0
 13 35  1  6
 14 36  1  0
 14 37  1  0
 16 38  1  0
 17 39  1  0
 18 40  1  0
 19 41  1  0
 20 42  1  0
 21 43  1  0
 21 44  1  0
 22 45  1  0
 22 46  1  0
 23 47  1  0
 24 48  1  0
M  CHG  1  10   1
M  END
>  <UniqueID>  (29) 
26

>  <SMILES>  (29) 
COc1ccc(S(=O)(=O)[NH+]2CCC(Cc3ccccc3)CC2)cc1

>  <Energy>  (29) 
54.54816553937478

>  <Genealogy>  (29) 
COc1ccc(S(=O)(=O)[NH+]2CCC(Cc3ccccc3)CC2)cc1 (protonated)
COc1ccc(S(=O)(=O)[NH+]2CCC(Cc3ccccc3)CC2)cc1 (3D coordinates assigned)
COc1ccc(S(=O)(=O)[NH+]2CCC(Cc3ccccc3)CC2)cc1 (nonaromatic ring conformer: 54.54816553937478 kcal/mol)

>  <smiles>  (29) 
COc1ccc(S(=O)(=O)N2CCC(Cc3ccccc3)CC2)cc1

>  <score_type>  (29) 
oracle

>  <origin>  (29) 
adg

>  <m_score__min__energy>  (29) 
-7.3899999999999997

>  <m_primary>  (29) 
energy

$$$$
29:0
     RDKit          3D

 50 53  0  0  0  0  0  0  0  0999 V2000
   57.9550   21.0960   44.9070 C   0  0  0  0  0  0  0  0  0  0  0  0
   56.3590   21.5610   44.2660 S   0  0  0  0  0  0  0  0  0  0  0  0
   56.2680   21.0960   42.8400 O   0  0  0  0  0  0  0  0  0  0  0  0
   55.2860   20.8860   45.0750 O   0  0  0  0  0  0  0  0  0  0  0  0
   56.1540   23.2950   44.3280 N   0  0  0  0  0  0  0  0  0  0  0  0
   57.3530   23.9640   43.7750 C   0  0  0  0  0  0  0  0  0  0  0  0
   57.4370   25.4320   44.2040 C   0  0  0  0  0  0  0  0  0  0  0  0
   57.4480   25.5290   45.6680 N   0  0  0  0  0  0  0  0  0  0  0  0
   58.1350   26.6150   46.3220 C   0  0  0  0  0  0  0  0  0  0  0  0
   59.0400   26.3410   47.3630 C   0  0  0  0  0  0  0  0  0  0  0  0
   59.7180   27.3780   48.0070 C   0  0  0  0  0  0  0  0  0  0  0  0
   59.5100   28.6990   47.6150 C   0  0  0  0  0  0  0  0  0  0  0  0
   58.6050   28.9900   46.5920 C   0  0  0  0  0  0  0  0  0  0  0  0
   57.8950   27.9560   45.9510 C   0  0  0  0  0  0  0  0  0  0  0  0
   56.9370   28.2520   44.9240 N   0  0  0  0  0  0  0  0  0  0  0  0
   56.2760   29.5080   44.7190 C   0  0  0  0  0  0  0  0  0  0  0  0
   55.1460   29.6860   45.2470 O   0  0  0  0  0  0  0  0  0  0  0  0
   56.9210   30.6190   43.9740 C   0  0  0  0  0  0  0  0  0  0  0  0
   56.9160   30.6030   42.5670 C   0  0  0  0  0  0  0  0  0  0  0  0
   57.5240   31.6290   41.8400 C   0  0  0  0  0  0  0  0  0  0  0  0
   58.1480   32.6870   42.5010 C   0  0  0  0  0  0  0  0  0  0  0  0
   58.1730   32.7220   43.9000 C   0  0  0  0  0  0  0  0  0  0  0  0
   58.7940   33.7760   44.5830 C   0  0  0  0  0  0  0  0  0  0  0  0
   58.8010   33.7930   45.9780 C   0  0  0  0  0  0  0  0  0  0  0  0
   58.1820   32.7570   46.6800 C   0  0  0  0  0  0  0  0  0  0  0  0
   57.5810   31.7410   46.0060 N   0  0  0  0  0  0  0  0  0  0  0  0
   57.5620   31.6850   44.6450 C   0  0  0  0  0  0  0  0  0  0  0  0
   56.9140   24.4150   46.4600 C   0  0  0  0  0  0  0  0  0  0  0  0
   55.7710   23.7330   45.6950 C   0  0  0  0  0  0  0  0  0  0  0  0
   57.9252   21.1047   46.0066 H   0  0  0  0  0  0  0  0  0  0  0  0
   58.2113   20.0858   44.5551 H   0  0  0  0  0  0  0  0  0  0  0  0
   58.7138   21.8104   44.5551 H   0  0  0  0  0  0  0  0  0  0  0  0
   58.2504   23.4374   44.1318 H   0  0  0  0  0  0  0  0  0  0  0  0
   57.2850   23.9330   42.6775 H   0  0  0  0  0  0  0  0  0  0  0  0
   58.3600   25.8761   43.8029 H   0  0  0  0  0  0  0  0  0  0  0  0
   56.5618   25.9721   43.8137 H   0  0  0  0  0  0  0  0  0  0  0  0
   59.2154   25.3002   47.6728 H   0  0  0  0  0  0  0  0  0  0  0  0
   60.4175   27.1518   48.8252 H   0  0  0  0  0  0  0  0  0  0  0  0
   60.0588   29.5128   48.1115 H   0  0  0  0  0  0  0  0  0  0  0  0
   58.4455   30.0341   46.2846 H   0  0  0  0  0  0  0  0  0  0  0  0
   56.4281   29.7737   42.0340 H   0  0  0  0  0  0  0  0  0  0  0  0
   57.5107   31.6025   40.7404 H   0  0  0  0  0  0  0  0  0  0  0  0
   58.6207   33.4943   41.9224 H   0  0  0  0  0  0  0  0  0  0  0  0
   59.2755   34.5891   44.0200 H   0  0  0  0  0  0  0  0  0  0  0  0
   59.2901   34.6157   46.5202 H   0  0  0  0  0  0  0  0  0  0  0  0
   58.1806   32.7629   47.7800 H   0  0  0  0  0  0  0  0  0  0  0  0
   57.7144   23.6843   46.6482 H   0  0  0  0  0  0  0  0  0  0  0  0
   56.5312   24.8005   47.4165 H   0  0  0  0  0  0  0  0  0  0  0  0
   55.4474   22.8503   46.2660 H   0  0  0  0  0  0  0  0  0  0  0  0
   54.9665   24.4750   45.5845 H   0  0  0  0  0  0  0  0  0  0  0  0
  1  2  1  0
  2  3  2  0
  2  4  2  0
  2  5  1  0
  5  6  1  0
  6  7  1  0
  7  8  1  0
  8  9  1  0
  9 10  2  0
 10 11  1  0
 11 12  2  0
 12 13  1  0
 13 14  2  0
 14 15  1  0
 15 16  1  0
 16 17  2  0
 16 18  1  0
 18 19  2  0
 19 20  1  0
 20 21  2  0
 21 22  1  0
 22 23  2  0
 23 24  1  0
 24 25  2  0
 25 26  1  0
 26 27  2  0
  8 28  1  0
 28 29  1  0
 29  5  1  0
 14  9  1  0
 27 18  1  0
 27 22  1  0
  1 30  1  0
  1 31  1  0
  1 32  1  0
  6 33  1  0
  6 34  1  0
  7 35  1  0
  7 36  1  0
 10 37  1  0
 11 38  1  0
 12 39  1  0
 13 40  1  0
 19 41  1  0
 20 42  1  0
 21 43  1  0
 23 44  1  0
 24 45  1  0
 25 46  1  0
 28 47  1  0
 28 48  1  0
 29 49  1  0
 29 50  1  0
M  CHG  1  15  -1
M  END
>  <UniqueID>  (30) 
27

>  <SMILES>  (30) 
CS(=O)(=O)N1CCN(c2ccccc2[N-]C(=O)c2cccc3cccnc23)CC1

>  <Energy>  (30) 
70.7485340964352

>  <Genealogy>  (30) 
CS(=O)(=O)N1CCN(c2ccccc2[N-]C(=O)c2cccc3cccnc23)CC1 (protonated)
CS(=O)(=O)N1CCN(c2ccccc2[N-]C(=O)c2cccc3cccnc23)CC1 (3D coordinates assigned)
CS(=O)(=O)N1CCN(c2ccccc2[N-]C(=O)c2cccc3cccnc23)CC1 (nonaromatic ring conformer: 70.7485340964352 kcal/mol)

>  <smiles>  (30) 
CS(=O)(=O)N1CCN(c2ccccc2NC(=O)c2cccc3cccnc23)CC1

>  <score_type>  (30) 
oracle

>  <origin>  (30) 
adg

>  <m_score__min__energy>  (30) 
-11.289999999999999

>  <m_primary>  (30) 
energy

$$$$
30:0
     RDKit          3D

 30 31  0  0  0  0  0  0  0  0999 V2000
   60.9770   31.0672   46.9626 H   0  0  0  0  0  0  0  0  0  0  0  0
   60.0820   31.5150   46.5060 C   0  0  0  0  0  0  0  0  0  0  0  0
   59.6590   33.1420   46.5400 S   0  0  0  0  0  0  0  0  0  0  0  0
   58.2760   32.9170   45.6110 C   0  0  0  0  0  0  0  0  0  0  0  0
   57.2970   33.9870   45.2670 C   0  0  0  0  0  0  0  0  0  0  0  0
   56.8946   34.4268   46.1915 H   0  0  0  0  0  0  0  0  0  0  0  0
   57.7996   34.7682   44.6778 H   0  0  0  0  0  0  0  0  0  0  0  0
   56.4743   33.5556   44.6778 H   0  0  0  0  0  0  0  0  0  0  0  0
   58.1050   31.6180   45.2860 N   0  0  0  0  0  0  0  0  0  0  0  0
   59.0970   30.8380   45.7970 C   0  0  0  0  0  0  0  0  0  0  0  0
   59.1920   29.4380   45.5190 N   0  0  0  0  0  0  0  0  0  0  0  0
   58.3340   28.5040   45.8240 C   0  0  0  0  0  0  0  0  0  0  0  0
   58.6790   27.2530   46.8730 S   0  0  0  0  0  0  0  0  0  0  0  0
   57.2570   26.4090   46.7380 N   0  0  0  0  0  0  0  0  0  0  0  0
   56.9040   25.2120   47.4960 C   0  0  0  0  0  0  0  0  0  0  0  0
   55.9869   25.4045   48.0720 H   0  0  0  0  0  0  0  0  0  0  0  0
   57.7311   24.9627   48.1770 H   0  0  0  0  0  0  0  0  0  0  0  0
   56.6680   24.0390   46.5520 C   0  0  0  0  0  0  0  0  0  0  0  0
   56.4845   23.1270   47.1391 H   0  0  0  0  0  0  0  0  0  0  0  0
   55.7941   24.2488   45.9178 H   0  0  0  0  0  0  0  0  0  0  0  0
   57.5551   23.8945   45.9178 H   0  0  0  0  0  0  0  0  0  0  0  0
   56.4540   27.1150   45.9010 C   0  0  0  0  0  0  0  0  0  0  0  0
   55.1490   26.7140   45.6270 O   0  0  0  0  0  0  0  0  0  0  0  0
   57.0150   28.3000   45.3670 C   0  0  0  0  0  0  0  0  0  0  0  0
   56.1880   29.2610   44.6140 C   0  0  0  0  0  0  0  0  0  0  0  0
   55.1520   29.7370   45.1490 O   0  0  0  0  0  0  0  0  0  0  0  0
   56.6170   29.7730   43.2740 C   0  0  0  0  0  0  0  0  0  0  0  0
   57.3182   30.6098   43.4085 H   0  0  0  0  0  0  0  0  0  0  0  0
   57.1124   28.9658   42.7145 H   0  0  0  0  0  0  0  0  0  0  0  0
   55.7356   30.1195   42.7145 H   0  0  0  0  0  0  0  0  0  0  0  0
  1  2  1  0
  2  3  1  0
  3  4  1  0
  4  5  1  0
  5  6  1  0
  5  7  1  0
  5  8  1  0
  4  9  2  0
  9 10  1  0
 10 11  1  0
 11 12  2  0
 12 13  1  0
 13 14  1  0
 14 15  1  0
 15 16  1  0
 15 17  1  0
 15 18  1  0
 18 19  1  0
 18 20  1  0
 18 21  1  0
 14 22  1  0
 22 23  1  0
 22 24  2  0
 24 25  1  0
 25 26  2  0
 25 27  1  0
 27 28  1  0
 27 29  1  0
 27 30  1  0
 10  2  2  0
 24 12  1  0
M  CHG  1  23  -1
M  END
>  <UniqueID>  (31) 
28

>  <SMILES>  (31) 
CCn1s/c(=N/c2csc(C)n2)c(C(C)=O)c1[O-]

>  <Energy>  (31) 
102.255652896779

>  <Genealogy>  (31) 
CCn1sc(=Nc2csc(C)n2)c(C(C)=O)c1[O-] (protonated)
CCn1s/c(=N/c2csc(C)n2)c(C(C)=O)c1[O-] (cis-trans isomerization)
CCn1s/c(=N/c2csc(C)n2)c(C(C)=O)c1[O-] (3D coordinates assigned)
CCn1s/c(=N/c2csc(C)n2)c(C(C)=O)c1[O-] (optimized conformer: 102.255652896779 kcal/mol)

>  <smiles>  (31) 
CCn1sc(=Nc2csc(C)n2)c(C(C)=O)c1O

>  <score_type>  (31) 
oracle

>  <origin>  (31) 
adg

>  <m_score__min__energy>  (31) 
-9.8900000000000006

>  <m_primary>  (31) 
energy

$$$$
31:0
     RDKit          3D

 35 37  0  0  0  0  0  0  0  0999 V2000
   59.6550   25.0960   46.0210 C   0  0  0  0  0  0  0  0  0  0  0  0
   58.5900   26.1250   45.7780 C   0  0  0  0  0  0  0  0  0  0  0  0
   58.9190   27.3610   45.2170 C   0  0  0  0  0  0  0  0  0  0  0  0
   57.9100   28.3020   44.9470 C   0  0  0  0  0  0  0  0  0  0  0  0
   58.2970   29.6360   44.3440 C   0  0  0  0  0  0  0  0  0  0  0  0
   58.9780   30.5250   45.3630 C   0  0  0  0  0  0  0  0  0  0  0  0
   60.1420   30.0600   45.9960 C   0  0  0  0  0  0  0  0  0  0  0  0
   60.8180   30.8510   46.9190 C   0  0  0  0  0  0  0  0  0  0  0  0
   60.3490   32.1300   47.2330 C   0  0  0  0  0  0  0  0  0  0  0  0
   61.0390   32.9210   48.1660 C   0  0  0  0  0  0  0  0  0  0  0  0
   60.5770   34.1990   48.4820 C   0  0  0  0  0  0  0  0  0  0  0  0
   59.4260   34.6980   47.8710 C   0  0  0  0  0  0  0  0  0  0  0  0
   58.7290   33.9230   46.9410 C   0  0  0  0  0  0  0  0  0  0  0  0
   59.1780   32.6280   46.6070 C   0  0  0  0  0  0  0  0  0  0  0  0
   58.4920   31.8200   45.6650 C   0  0  0  0  0  0  0  0  0  0  0  0
   57.0270   32.4160   44.8690 Cl  0  0  0  0  0  0  0  0  0  0  0  0
   56.6060   28.0080   45.2550 N   0  0  0  0  0  0  0  0  0  0  0  0
   55.6240   28.9570   45.0310 O   0  0  0  0  0  0  0  0  0  0  0  0
   56.2680   26.7910   45.7870 C   0  0  0  0  0  0  0  0  0  0  0  0
   55.0650   26.5190   46.0510 O   0  0  0  0  0  0  0  0  0  0  0  0
   57.2510   25.8330   46.0450 C   0  0  0  0  0  0  0  0  0  0  0  0
   59.7944   24.9613   47.1038 H   0  0  0  0  0  0  0  0  0  0  0  0
   59.3515   24.1403   45.5687 H   0  0  0  0  0  0  0  0  0  0  0  0
   60.5997   25.4321   45.5687 H   0  0  0  0  0  0  0  0  0  0  0  0
   59.9680   27.5983   44.9863 H   0  0  0  0  0  0  0  0  0  0  0  0
   58.9849   29.4629   43.5033 H   0  0  0  0  0  0  0  0  0  0  0  0
   57.3814   30.1401   44.0011 H   0  0  0  0  0  0  0  0  0  0  0  0
   60.5245   29.0563   45.7586 H   0  0  0  0  0  0  0  0  0  0  0  0
   61.7274   30.4678   47.4050 H   0  0  0  0  0  0  0  0  0  0  0  0
   61.9471   32.5315   48.6494 H   0  0  0  0  0  0  0  0  0  0  0  0
   61.1209   34.8142   49.2139 H   0  0  0  0  0  0  0  0  0  0  0  0
   59.0658   35.7064   48.1229 H   0  0  0  0  0  0  0  0  0  0  0  0
   57.8227   34.3257   46.4652 H   0  0  0  0  0  0  0  0  0  0  0  0
   54.7490   28.9640   45.5410 H   0  0  0  0  0  0  0  0  0  0  0  0
   56.9714   24.8521   46.4570 H   0  0  0  0  0  0  0  0  0  0  0  0
  1  2  1  0
  2  3  1  0
  3  4  2  0
  4  5  1  0
  5  6  1  0
  6  7  2  0
  7  8  1  0
  8  9  2  0
  9 10  1  0
 10 11  2  0
 11 12  1  0
 12 13  2  0
 13 14  1  0
 14 15  2  0
 15 16  1  0
  4 17  1  0
 17 18  1  0
 17 19  1  0
 19 20  2  0
 19 21  1  0
 21  2  2  0
 15  6  1  0
 14  9  1  0
  1 22  1  0
  1 23  1  0
  1 24  1  0
  3 25  1  0
  5 26  1  0
  5 27  1  0
  7 28  1  0
  8 29  1  0
 10 30  1  0
 11 31  1  0
 12 32  1  0
 13 33  1  0
 18 34  1  0
 21 35  1  0
M  END
>  <UniqueID>  (32) 
29

>  <SMILES>  (32) 
Cc1cc(Cc2ccc3ccccc3c2Cl)n(O)c(=O)c1

>  <Energy>  (32) 
45.507937919914205

>  <Genealogy>  (32) 
Cc1cc(Cc2ccc3ccccc3c2Cl)n(O)c(=O)c1 (3D coordinates assigned)
Cc1cc(Cc2ccc3ccccc3c2Cl)n(O)c(=O)c1 (optimized conformer: 45.507937919914205 kcal/mol)

>  <smiles>  (32) 
Cc1cc(Cc2ccc3ccccc3c2Cl)n(O)c(=O)c1

>  <score_type>  (32) 
oracle

>  <origin>  (32) 
adg

>  <m_score__min__energy>  (32) 
-9.6199999999999992

>  <m_primary>  (32) 
energy

$$$$
32:0
     RDKit          3D

 29 32  0  0  0  0  0  0  0  0999 V2000
   59.9620   35.7110   46.0190 C   0  0  0  0  0  0  0  0  0  0  0  0
   59.3490   34.4730   46.4900 N   0  0  0  0  0  0  0  0  0  0  0  0
   58.7440   33.5130   45.7580 C   0  0  0  0  0  0  0  0  0  0  0  0
   58.5270   33.4960   44.4200 N   0  0  0  0  0  0  0  0  0  0  0  0
   57.9050   32.4000   43.8860 C   0  0  0  0  0  0  0  0  0  0  0  0
   57.6520   32.3310   42.5120 C   0  0  0  0  0  0  0  0  0  0  0  0
   57.0190   31.2070   41.9740 C   0  0  0  0  0  0  0  0  0  0  0  0
   56.6360   30.1450   42.8010 C   0  0  0  0  0  0  0  0  0  0  0  0
   56.8820   30.1960   44.1770 C   0  0  0  0  0  0  0  0  0  0  0  0
   57.5140   31.3130   44.7330 C   0  0  0  0  0  0  0  0  0  0  0  0
   57.7610   31.3680   46.0790 N   0  0  0  0  0  0  0  0  0  0  0  0
   58.3700   32.4770   46.5600 C   0  0  0  0  0  0  0  0  0  0  0  0
   58.7380   32.7450   47.8210 N   0  0  0  0  0  0  0  0  0  0  0  0
   58.6110   32.0280   48.9630 C   0  0  0  0  0  0  0  0  0  0  0  0
   59.1280   32.5780   50.1450 C   0  0  0  0  0  0  0  0  0  0  0  0
   59.7590   33.8380   50.1100 C   0  0  0  0  0  0  0  0  0  0  0  0
   59.8720   34.5470   48.9010 C   0  0  0  0  0  0  0  0  0  0  0  0
   59.3360   33.9610   47.7520 C   0  0  0  0  0  0  0  0  0  0  0  0
   60.2645   36.3219   46.8823 H   0  0  0  0  0  0  0  0  0  0  0  0
   60.8466   35.4735   45.4099 H   0  0  0  0  0  0  0  0  0  0  0  0
   59.2369   36.2706   45.4099 H   0  0  0  0  0  0  0  0  0  0  0  0
   57.9511   33.1611   41.8551 H   0  0  0  0  0  0  0  0  0  0  0  0
   56.8205   31.1568   40.8932 H   0  0  0  0  0  0  0  0  0  0  0  0
   56.1387   29.2653   42.3665 H   0  0  0  0  0  0  0  0  0  0  0  0
   56.5785   29.3579   44.8216 H   0  0  0  0  0  0  0  0  0  0  0  0
   58.1177   31.0448   48.9634 H   0  0  0  0  0  0  0  0  0  0  0  0
   59.0416   32.0291   51.0943 H   0  0  0  0  0  0  0  0  0  0  0  0
   60.1663   34.2701   51.0360 H   0  0  0  0  0  0  0  0  0  0  0  0
   60.3655   35.5293   48.8615 H   0  0  0  0  0  0  0  0  0  0  0  0
  1  2  1  0
  2  3  1  0
  3  4  2  0
  4  5  1  0
  5  6  2  0
  6  7  1  0
  7  8  2  0
  8  9  1  0
  9 10  2  0
 10 11  1  0
 11 12  2  0
 12 13  1  0
 13 14  1  0
 14 15  2  0
 15 16  1  0
 16 17  2  0
 17 18  1  0
 18  2  2  0
 12  3  1  0
 18 13  1  0
 10  5  1  0
  1 19  1  0
  1 20  1  0
  1 21  1  0
  6 22  1  0
  7 23  1  0
  8 24  1  0
  9 25  1  0
 14 26  1  0
 15 27  1  0
 16 28  1  0
 17 29  1  0
M  CHG  1   2   1
M  END
>  <UniqueID>  (33) 
30

>  <SMILES>  (33) 
C[n+]1c2nc3ccccc3nc2n2ccccc21

>  <Energy>  (33) 
86.07918405984158

>  <Genealogy>  (33) 
C[n+]1c2nc3ccccc3nc2n2ccccc21 (3D coordinates assigned)
C[n+]1c2nc3ccccc3nc2n2ccccc21 (optimized conformer: 86.07918405984158 kcal/mol)

>  <smiles>  (33) 
C[n+]1c2nc3ccccc3nc2n2ccccc21

>  <score_type>  (33) 
oracle

>  <origin>  (33) 
adg

>  <m_score__min__energy>  (33) 
-5.4100000000000001

>  <m_primary>  (33) 
energy

$$$$
33:0
     RDKit          3D

 31 32  0  0  0  0  0  0  0  0999 V2000
   59.6106   32.6954   47.3767 H   0  0  0  0  0  0  0  0  0  0  0  0
   59.0120   32.5590   46.4640 C   0  0  0  0  0  0  0  0  0  0  0  0
   58.4610   31.3080   46.1740 C   0  0  0  0  0  0  0  0  0  0  0  0
   58.6322   30.4623   46.8562 H   0  0  0  0  0  0  0  0  0  0  0  0
   57.6910   31.1270   45.0170 C   0  0  0  0  0  0  0  0  0  0  0  0
   57.0070   29.5460   44.6530 S   0  0  0  0  0  0  0  0  0  0  0  0
   55.5210   29.5990   44.8670 O   0  0  0  0  0  0  0  0  0  0  0  0
   57.2830   29.1660   43.2240 O   0  0  0  0  0  0  0  0  0  0  0  0
   57.6890   28.3430   45.7000 N   0  0  0  0  0  0  0  0  0  0  0  0
   57.1350   27.2010   45.9730 C   0  0  0  0  0  0  0  0  0  0  0  0
   57.9490   25.9260   46.7080 S   0  0  0  0  0  0  0  0  0  0  0  0
   56.5570   24.9720   46.6400 C   0  0  0  0  0  0  0  0  0  0  0  0
   56.4410   23.5910   47.1980 C   0  0  0  0  0  0  0  0  0  0  0  0
   55.4014   23.4138   47.5106 H   0  0  0  0  0  0  0  0  0  0  0  0
   57.1189   23.4989   48.0594 H   0  0  0  0  0  0  0  0  0  0  0  0
   56.8330   22.5540   46.1520 C   0  0  0  0  0  0  0  0  0  0  0  0
   57.1790   21.6388   46.6547 H   0  0  0  0  0  0  0  0  0  0  0  0
   55.9613   22.3198   45.5232 H   0  0  0  0  0  0  0  0  0  0  0  0
   57.6416   22.9550   45.5232 H   0  0  0  0  0  0  0  0  0  0  0  0
   55.5220   25.6450   46.0870 N   0  0  0  0  0  0  0  0  0  0  0  0
   55.8450   26.8800   45.7100 N   0  0  0  0  0  0  0  0  0  0  0  0
   55.1470   27.5130   45.2660 H   0  0  0  0  0  0  0  0  0  0  0  0
   57.4640   32.2130   44.1600 C   0  0  0  0  0  0  0  0  0  0  0  0
   56.8525   32.0791   43.2555 H   0  0  0  0  0  0  0  0  0  0  0  0
   58.0120   33.4650   44.4510 C   0  0  0  0  0  0  0  0  0  0  0  0
   57.8213   34.3156   43.7801 H   0  0  0  0  0  0  0  0  0  0  0  0
   58.8050   33.6420   45.5960 C   0  0  0  0  0  0  0  0  0  0  0  0
   59.3620   34.9950   45.9280 C   0  0  0  0  0  0  0  0  0  0  0  0
   59.4108   35.1134   47.0205 H   0  0  0  0  0  0  0  0  0  0  0  0
   60.3723   35.0899   45.5034 H   0  0  0  0  0  0  0  0  0  0  0  0
   58.7113   35.7737   45.5034 H   0  0  0  0  0  0  0  0  0  0  0  0
  1  2  1  0
  2  3  2  0
  3  4  1  0
  3  5  1  0
  5  6  1  0
  6  7  2  0
  6  8  2  0
  6  9  1  0
  9 10  2  0
 10 11  1  0
 11 12  1  0
 12 13  1  0
 13 14  1  0
 13 15  1  0
 13 16  1  0
 16 17  1  0
 16 18  1  0
 16 19  1  0
 12 20  2  0
 20 21  1  0
 21 22  1  0
  5 23  2  0
 23 24  1  0
 23 25  1  0
 25 26  1  0
 25 27  2  0
 27 28  1  0
 28 29  1  0
 28 30  1  0
 28 31  1  0
 27  2  1  0
 21 10  1  0
M  END
>  <UniqueID>  (34) 
31

>  <SMILES>  (34) 
CCc1n[nH]/c(=N\S(=O)(=O)c2ccc(C)cc2)s1

>  <Energy>  (34) 
63.31345744136346

>  <Genealogy>  (34) 
CCc1n[nH]/c(=N\S(=O)(=O)c2ccc(C)cc2)s1 (cis-trans isomerization)
CCc1n[nH]/c(=N\S(=O)(=O)c2ccc(C)cc2)s1 (3D coordinates assigned)
CCc1n[nH]/c(=N\S(=O)(=O)c2ccc(C)cc2)s1 (optimized conformer: 63.31345744136346 kcal/mol)

>  <smiles>  (34) 
CCc1n[nH]c(=NS(=O)(=O)c2ccc(C)cc2)s1

>  <score_type>  (34) 
oracle

>  <origin>  (34) 
adg

>  <m_score__min__energy>  (34) 
-8.1300000000000008

>  <m_primary>  (34) 
energy

$$$$
34:0
     RDKit          3D

 50 53  0  0  0  0  0  0  0  0999 V2000
   66.6850   30.8790   51.7480 C   0  0  0  0  0  0  0  0  0  0  0  0
   65.5240   31.2840   50.8970 C   0  0  0  0  0  0  0  0  0  0  0  0
   65.6370   32.3580   50.0090 C   0  0  0  0  0  0  0  0  0  0  0  0
   64.5350   32.7320   49.2380 C   0  0  0  0  0  0  0  0  0  0  0  0
   63.3190   32.0370   49.3600 C   0  0  0  0  0  0  0  0  0  0  0  0
   62.1350   32.4300   48.5540 C   0  0  0  0  0  0  0  0  0  0  0  0
   61.8640   33.8000   48.2990 C   0  0  0  0  0  0  0  0  0  0  0  0
   60.7570   34.1840   47.5230 C   0  0  0  0  0  0  0  0  0  0  0  0
   59.9180   33.1820   47.0210 C   0  0  0  0  0  0  0  0  0  0  0  0
   60.1620   31.8560   47.2910 C   0  0  0  0  0  0  0  0  0  0  0  0
   61.2700   31.4430   48.0310 C   0  0  0  0  0  0  0  0  0  0  0  0
   59.1720   31.1360   46.6500 C   0  0  0  0  0  0  0  0  0  0  0  0
   59.0150   29.7130   46.5950 N   0  0  0  0  0  0  0  0  0  0  0  0
   57.8380   29.0820   46.0680 C   0  0  0  0  0  0  0  0  0  0  0  0
   57.0720   29.7320   45.3040 O   0  0  0  0  0  0  0  0  0  0  0  0
   57.5330   27.6630   46.3730 C   0  0  0  0  0  0  0  0  0  0  0  0
   58.4380   26.8610   47.0900 C   0  0  0  0  0  0  0  0  0  0  0  0
   58.1260   25.5290   47.3690 C   0  0  0  0  0  0  0  0  0  0  0  0
   56.9070   25.0060   46.9370 C   0  0  0  0  0  0  0  0  0  0  0  0
   56.0340   25.7920   46.2550 N   0  0  0  0  0  0  0  0  0  0  0  0
   56.3120   27.0920   45.9700 C   0  0  0  0  0  0  0  0  0  0  0  0
   58.3800   32.0580   45.9870 C   0  0  0  0  0  0  0  0  0  0  0  0
   58.8300   33.3160   46.2250 N   0  0  0  0  0  0  0  0  0  0  0  0
   58.2350   34.5540   45.6950 C   0  0  0  0  0  0  0  0  0  0  0  0
   56.9880   34.2350   44.8670 C   0  0  0  0  0  0  0  0  0  0  0  0
   59.2630   35.3320   44.8670 C   0  0  0  0  0  0  0  0  0  0  0  0
   63.2500   30.9680   50.2700 C   0  0  0  0  0  0  0  0  0  0  0  0
   64.3390   30.6220   51.0070 N   0  0  0  0  0  0  0  0  0  0  0  0
   66.4124   30.9741   52.8094 H   0  0  0  0  0  0  0  0  0  0  0  0
   66.9525   29.8345   51.5303 H   0  0  0  0  0  0  0  0  0  0  0  0
   67.5441   31.5305   51.5303 H   0  0  0  0  0  0  0  0  0  0  0  0
   66.5874   32.9044   49.9185 H   0  0  0  0  0  0  0  0  0  0  0  0
   64.6183   33.5725   48.5333 H   0  0  0  0  0  0  0  0  0  0  0  0
   62.5293   34.5713   48.7143 H   0  0  0  0  0  0  0  0  0  0  0  0
   60.5549   35.2451   47.3153 H   0  0  0  0  0  0  0  0  0  0  0  0
   61.4656   30.3743   48.2032 H   0  0  0  0  0  0  0  0  0  0  0  0
   59.8580   29.1240   46.7820 H   0  0  0  0  0  0  0  0  0  0  0  0
   59.3942   27.2839   47.4320 H   0  0  0  0  0  0  0  0  0  0  0  0
   58.8351   24.8976   47.9245 H   0  0  0  0  0  0  0  0  0  0  0  0
   56.6527   23.9569   47.1487 H   0  0  0  0  0  0  0  0  0  0  0  0
   55.5782   27.7007   45.4213 H   0  0  0  0  0  0  0  0  0  0  0  0
   57.5124   31.8074   45.3589 H   0  0  0  0  0  0  0  0  0  0  0  0
   57.9300   35.1885   46.5402 H   0  0  0  0  0  0  0  0  0  0  0  0
   56.1457   34.0195   45.5408 H   0  0  0  0  0  0  0  0  0  0  0  0
   56.7384   35.0982   44.2325 H   0  0  0  0  0  0  0  0  0  0  0  0
   57.1836   33.3580   44.2325 H   0  0  0  0  0  0  0  0  0  0  0  0
   59.9559   35.8564   45.5415 H   0  0  0  0  0  0  0  0  0  0  0  0
   59.8276   34.6329   44.2325 H   0  0  0  0  0  0  0  0  0  0  0  0
   58.7436   36.0652   44.2325 H   0  0  0  0  0  0  0  0  0  0  0  0
   62.3102   30.4084   50.3865 H   0  0  0  0  0  0  0  0  0  0  0  0
  1  2  1  0
  2  3  2  0
  3  4  1  0
  4  5  2  0
  5  6  1  0
  6  7  2  0
  7  8  1  0
  8  9  2  0
  9 10  1  0
 10 11  2  0
 10 12  1  0
 12 13  1  0
 13 14  1  0
 14 15  2  0
 14 16  1  0
 16 17  2  0
 17 18  1  0
 18 19  2  0
 19 20  1  0
 20 21  2  0
 12 22  2  0
 22 23  1  0
 23 24  1  0
 24 25  1  0
 24 26  1  0
  5 27  1  0
 27 28  2  0
 28  2  1  0
 11  6  1  0
 21 16  1  0
 23  9  1  0
  1 29  1  0
  1 30  1  0
  1 31  1  0
  3 32  1  0
  4 33  1  0
  7 34  1  0
  8 35  1  0
 11 36  1  0
 13 37  1  0
 17 38  1  0
 18 39  1  0
 19 40  1  0
 21 41  1  0
 22 42  1  0
 24 43  1  0
 25 44  1  0
 25 45  1  0
 25 46  1  0
 26 47  1  0
 26 48  1  0
 26 49  1  0
 27 50  1  0
M  END
>  <UniqueID>  (35) 
32

>  <SMILES>  (35) 
Cc1ccc(-c2ccc3c(c2)c(NC(=O)c2cccnc2)cn3C(C)C)cn1

>  <Energy>  (35) 
96.52247942276344

>  <Genealogy>  (35) 
Cc1ccc(-c2ccc3c(c2)c(NC(=O)c2cccnc2)cn3C(C)C)cn1 (3D coordinates assigned)
Cc1ccc(-c2ccc3c(c2)c(NC(=O)c2cccnc2)cn3C(C)C)cn1 (optimized conformer: 96.52247942276344 kcal/mol)

>  <smiles>  (35) 
Cc1ccc(-c2ccc3c(c2)c(NC(=O)c2cccnc2)cn3C(C)C)cn1

>  <score_type>  (35) 
oracle

>  <origin>  (35) 
adg

>  <m_score__min__energy>  (35) 
-7.9400000000000004

>  <m_primary>  (35) 
energy

$$$$
35:0
     RDKit          3D

 49 53  0  0  0  0  0  0  0  0999 V2000
   55.1300   29.3450   44.3070 N   0  0  0  0  0  0  0  0  0  0  0  0
   56.3670   29.8030   44.8580 C   0  0  0  0  0  0  0  0  0  0  0  0
   56.8550   31.0790   44.5420 C   0  0  0  0  0  0  0  0  0  0  0  0
   58.0580   31.5310   45.0930 C   0  0  0  0  0  0  0  0  0  0  0  0
   58.7840   30.7080   45.9620 C   0  0  0  0  0  0  0  0  0  0  0  0
   60.0060   31.1830   46.5540 C   0  0  0  0  0  0  0  0  0  0  0  0
   61.0270   31.5810   47.0560 C   0  0  0  0  0  0  0  0  0  0  0  0
   62.2480   32.0540   47.6490 C   0  0  0  0  0  0  0  0  0  0  0  0
   63.3320   32.5780   46.9630 C   0  0  0  0  0  0  0  0  0  0  0  0
   64.3000   32.9470   47.8290 N   0  0  0  0  0  0  0  0  0  0  0  0
   63.8330   32.6620   49.0620 C   0  0  0  0  0  0  0  0  0  0  0  0
   62.5790   32.1110   48.9900 C   0  0  0  0  0  0  0  0  0  0  0  0
   61.8900   31.7420   50.1500 C   0  0  0  0  0  0  0  0  0  0  0  0
   60.5780   31.1690   50.0950 N   0  0  0  0  0  0  0  0  0  0  0  0
   59.3980   32.0290   50.0800 C   0  0  0  0  0  0  0  0  0  0  0  0
   58.3340   31.4430   51.0170 C   0  0  0  0  0  0  0  0  0  0  0  0
   58.0930   30.0790   50.7220 O   0  0  0  0  0  0  0  0  0  0  0  0
   59.2580   29.3180   50.9870 C   0  0  0  0  0  0  0  0  0  0  0  0
   60.4000   29.7190   50.0430 C   0  0  0  0  0  0  0  0  0  0  0  0
   62.4930   31.9460   51.3590 N   0  0  0  0  0  0  0  0  0  0  0  0
   63.7480   32.4950   51.4620 C   0  0  0  0  0  0  0  0  0  0  0  0
   64.3340   32.6900   52.7220 C   0  0  0  0  0  0  0  0  0  0  0  0
   65.6100   33.2520   52.8260 C   0  0  0  0  0  0  0  0  0  0  0  0
   66.3110   33.6240   51.6760 C   0  0  0  0  0  0  0  0  0  0  0  0
   65.7450   33.4380   50.4120 C   0  0  0  0  0  0  0  0  0  0  0  0
   64.4630   32.8740   50.2940 C   0  0  0  0  0  0  0  0  0  0  0  0
   58.3070   29.4270   46.2700 C   0  0  0  0  0  0  0  0  0  0  0  0
   57.1020   28.9760   45.7210 C   0  0  0  0  0  0  0  0  0  0  0  0
   54.7910   28.3760   44.4940 H   0  0  0  0  0  0  0  0  0  0  0  0
   54.5560   29.9640   43.6870 H   0  0  0  0  0  0  0  0  0  0  0  0
   56.2887   31.7275   43.8574 H   0  0  0  0  0  0  0  0  0  0  0  0
   58.4342   32.5341   44.8434 H   0  0  0  0  0  0  0  0  0  0  0  0
   63.3949   32.6789   45.8694 H   0  0  0  0  0  0  0  0  0  0  0  0
   65.2170   33.3760   47.5730 H   0  0  0  0  0  0  0  0  0  0  0  0
   59.6736   33.0376   50.4216 H   0  0  0  0  0  0  0  0  0  0  0  0
   58.9972   32.0883   49.0573 H   0  0  0  0  0  0  0  0  0  0  0  0
   58.6831   31.5299   52.0565 H   0  0  0  0  0  0  0  0  0  0  0  0
   57.3974   32.0025   50.8767 H   0  0  0  0  0  0  0  0  0  0  0  0
   59.5725   29.4910   52.0268 H   0  0  0  0  0  0  0  0  0  0  0  0
   59.0271   28.2544   50.8277 H   0  0  0  0  0  0  0  0  0  0  0  0
   61.3296   29.2224   50.3580 H   0  0  0  0  0  0  0  0  0  0  0  0
   60.1555   29.4127   49.0152 H   0  0  0  0  0  0  0  0  0  0  0  0
   61.9750   31.6700   52.2250 H   0  0  0  0  0  0  0  0  0  0  0  0
   63.7874   32.3996   53.6313 H   0  0  0  0  0  0  0  0  0  0  0  0
   66.0637   33.4018   53.8168 H   0  0  0  0  0  0  0  0  0  0  0  0
   67.3143   34.0659   51.7662 H   0  0  0  0  0  0  0  0  0  0  0  0
   66.3021   33.7326   49.5104 H   0  0  0  0  0  0  0  0  0  0  0  0
   58.8811   28.7749   46.9447 H   0  0  0  0  0  0  0  0  0  0  0  0
   56.7297   27.9705   45.9665 H   0  0  0  0  0  0  0  0  0  0  0  0
  1  2  1  0
  2  3  2  0
  3  4  1  0
  4  5  2  0
  5  6  1  0
  6  7  3  0
  7  8  1  0
  8  9  2  0
  9 10  1  0
 10 11  1  0
 11 12  2  0
 12 13  1  0
 13 14  1  0
 14 15  1  0
 15 16  1  0
 16 17  1  0
 17 18  1  0
 18 19  1  0
 13 20  2  0
 20 21  1  0
 21 22  2  0
 22 23  1  0
 23 24  2  0
 24 25  1  0
 25 26  2  0
  5 27  1  0
 27 28  2  0
 28  2  1  0
 12  8  1  0
 19 14  1  0
 26 21  1  0
 26 11  1  0
  1 29  1  0
  1 30  1  0
  3 31  1  0
  4 32  1  0
  9 33  1  0
 10 34  1  0
 15 35  1  0
 15 36  1  0
 16 37  1  0
 16 38  1  0
 18 39  1  0
 18 40  1  0
 19 41  1  0
 19 42  1  0
 20 43  1  0
 22 44  1  0
 23 45  1  0
 24 46  1  0
 25 47  1  0
 27 48  1  0
 28 49  1  0
M  CHG  1  20   1
M  END
>  <UniqueID>  (36) 
33

>  <SMILES>  (36) 
Nc1ccc(C#Cc2c[nH]c3c2c(N2CCOCC2)[nH+]c2ccccc23)cc1

>  <Energy>  (36) 
92.85690999948314

>  <Genealogy>  (36) 
Nc1ccc(C#Cc2c[nH]c3c2c(N2CCOCC2)[nH+]c2ccccc23)cc1 (protonated)
Nc1ccc(C#Cc2c[nH]c3c2c(N2CCOCC2)[nH+]c2ccccc23)cc1 (3D coordinates assigned)
Nc1ccc(C#Cc2c[nH]c3c2c(N2CCOCC2)[nH+]c2ccccc23)cc1 (nonaromatic ring conformer: 92.85690999948314 kcal/mol)

>  <smiles>  (36) 
Nc1ccc(C#Cc2c[nH]c3c2c(N2CCOCC2)nc2ccccc23)cc1

>  <score_type>  (36) 
oracle

>  <origin>  (36) 
adg

>  <m_score__min__energy>  (36) 
-6.6799999999999997

>  <m_primary>  (36) 
energy

$$$$
36:0
     RDKit          3D

 23 24  0  0  0  0  0  0  0  0999 V2000
   56.7670   29.8950   42.9310 O   0  0  0  0  0  0  0  0  0  0  0  0
   56.6460   29.9880   44.4250 S   0  0  0  0  0  0  0  0  0  0  0  0
   55.5190   29.1060   44.8840 O   0  0  0  0  0  0  0  0  0  0  0  0
   56.3040   31.6300   44.8670 N   0  0  0  0  0  0  0  0  0  0  0  0
   57.2870   32.6120   45.2220 C   0  0  0  0  0  0  0  0  0  0  0  0
   58.1390   33.1000   44.2230 C   0  0  0  0  0  0  0  0  0  0  0  0
   59.1150   34.0540   44.5260 C   0  0  0  0  0  0  0  0  0  0  0  0
   59.2460   34.5280   45.8340 C   0  0  0  0  0  0  0  0  0  0  0  0
   58.4000   34.0510   46.8370 C   0  0  0  0  0  0  0  0  0  0  0  0
   57.4230   33.0970   46.5370 C   0  0  0  0  0  0  0  0  0  0  0  0
   58.1560   29.4750   45.1530 C   0  0  0  0  0  0  0  0  0  0  0  0
   59.1910   28.8280   44.4960 C   0  0  0  0  0  0  0  0  0  0  0  0
   60.2800   28.5570   45.3330 C   0  0  0  0  0  0  0  0  0  0  0  0
   60.1000   28.9890   46.6410 C   0  0  0  0  0  0  0  0  0  0  0  0
   58.5850   29.7110   46.7590 S   0  0  0  0  0  0  0  0  0  0  0  0
   58.0394   32.7297   43.1920 H   0  0  0  0  0  0  0  0  0  0  0  0
   59.7797   34.4314   43.7349 H   0  0  0  0  0  0  0  0  0  0  0  0
   60.0155   35.2768   46.0733 H   0  0  0  0  0  0  0  0  0  0  0  0
   58.5024   34.4267   47.8658 H   0  0  0  0  0  0  0  0  0  0  0  0
   56.7586   32.7242   47.3305 H   0  0  0  0  0  0  0  0  0  0  0  0
   59.1600   28.5564   43.4305 H   0  0  0  0  0  0  0  0  0  0  0  0
   61.1927   28.0495   44.9873 H   0  0  0  0  0  0  0  0  0  0  0  0
   60.8251   28.8778   47.4606 H   0  0  0  0  0  0  0  0  0  0  0  0
  1  2  2  0
  2  3  2  0
  2  4  1  0
  4  5  1  0
  5  6  2  0
  6  7  1  0
  7  8  2  0
  8  9  1  0
  9 10  2  0
  2 11  1  0
 11 12  2  0
 12 13  1  0
 13 14  2  0
 14 15  1  0
 10  5  1  0
 15 11  1  0
  6 16  1  0
  7 17  1  0
  8 18  1  0
  9 19  1  0
 10 20  1  0
 12 21  1  0
 13 22  1  0
 14 23  1  0
M  CHG  1   4  -1
M  END
>  <UniqueID>  (37) 
34

>  <SMILES>  (37) 
O=S(=O)([N-]c1ccccc1)c1cccs1

>  <Energy>  (37) 
52.565039400762195

>  <Genealogy>  (37) 
O=S(=O)([N-]c1ccccc1)c1cccs1 (protonated)
O=S(=O)([N-]c1ccccc1)c1cccs1 (3D coordinates assigned)
O=S(=O)([N-]c1ccccc1)c1cccs1 (optimized conformer: 52.565039400762195 kcal/mol)

>  <smiles>  (37) 
O=S(=O)(Nc1ccccc1)c1cccs1

>  <score_type>  (37) 
oracle

>  <origin>  (37) 
adg

>  <m_score__min__energy>  (37) 
-7.9000000000000004

>  <m_primary>  (37) 
energy

$$$$
37:0
     RDKit          3D

 34 35  0  0  0  0  0  0  0  0999 V2000
   59.2680   35.3340   47.1190 C   0  0  0  0  0  0  0  0  0  0  0  0
   59.1950   33.9100   46.7370 C   0  0  0  0  0  0  0  0  0  0  0  0
   60.2010   32.5920   47.5280 S   0  0  0  0  0  0  0  0  0  0  0  0
   59.4560   31.3300   46.4690 C   0  0  0  0  0  0  0  0  0  0  0  0
   59.7930   29.9420   46.5340 N   0  0  0  0  0  0  0  0  0  0  0  0
   59.5620   29.2840   47.7600 C   0  0  0  0  0  0  0  0  0  0  0  0
   59.0660   29.9370   48.7300 O   0  0  0  0  0  0  0  0  0  0  0  0
   59.8580   27.8550   48.0300 C   0  0  0  0  0  0  0  0  0  0  0  0
   60.4850   27.1670   46.4880 S   0  0  0  0  0  0  0  0  0  0  0  0
   59.2190   27.2310   45.2450 C   0  0  0  0  0  0  0  0  0  0  0  0
   58.8070   28.2740   44.5190 N   0  0  0  0  0  0  0  0  0  0  0  0
   57.8390   27.8180   43.6910 C   0  0  0  0  0  0  0  0  0  0  0  0
   57.2450   28.6090   42.8520 N   0  0  0  0  0  0  0  0  0  0  0  0
   57.6590   26.5250   43.9040 N   0  0  0  0  0  0  0  0  0  0  0  0
   58.5080   26.1380   44.8660 N   0  0  0  0  0  0  0  0  0  0  0  0
   58.5720   31.9550   45.6600 C   0  0  0  0  0  0  0  0  0  0  0  0
   57.7670   31.1630   44.6800 C   0  0  0  0  0  0  0  0  0  0  0  0
   56.6440   30.7020   44.9460 O   0  0  0  0  0  0  0  0  0  0  0  0
   58.2570   30.9070   43.3980 O   0  0  0  0  0  0  0  0  0  0  0  0
   58.4300   33.2920   45.7890 C   0  0  0  0  0  0  0  0  0  0  0  0
   57.4990   34.1570   44.9450 C   0  0  0  0  0  0  0  0  0  0  0  0
   59.2724   35.4197   48.2156 H   0  0  0  0  0  0  0  0  0  0  0  0
   60.1900   35.7757   46.7130 H   0  0  0  0  0  0  0  0  0  0  0  0
   58.3960   35.8677   46.7130 H   0  0  0  0  0  0  0  0  0  0  0  0
   60.1860   29.4030   45.7490 H   0  0  0  0  0  0  0  0  0  0  0  0
   60.6158   27.7663   48.8223 H   0  0  0  0  0  0  0  0  0  0  0  0
   58.9601   27.3186   48.3706 H   0  0  0  0  0  0  0  0  0  0  0  0
   56.7480   29.4440   43.1960 H   0  0  0  0  0  0  0  0  0  0  0  0
   56.9720   25.9230   43.4010 H   0  0  0  0  0  0  0  0  0  0  0  0
   58.6100   25.1820   45.2580 H   0  0  0  0  0  0  0  0  0  0  0  0
   58.5510   29.9520   43.1420 H   0  0  0  0  0  0  0  0  0  0  0  0
   56.8549   34.7554   45.6061 H   0  0  0  0  0  0  0  0  0  0  0  0
   58.0967   34.8276   44.3102 H   0  0  0  0  0  0  0  0  0  0  0  0
   56.8741   33.5117   44.3102 H   0  0  0  0  0  0  0  0  0  0  0  0
  1  2  1  0
  2  3  1  0
  3  4  1  0
  4  5  1  0
  5  6  1  0
  6  7  2  0
  6  8  1  0
  8  9  1  0
  9 10  1  0
 10 11  2  0
 11 12  1  0
 12 13  2  3
 12 14  1  0
 14 15  1  0
  4 16  2  0
 16 17  1  0
 17 18  2  0
 17 19  1  0
 16 20  1  0
 20 21  1  0
 20  2  2  0
 15 10  1  0
  1 22  1  0
  1 23  1  0
  1 24  1  0
  5 25  1  0
  8 26  1  0
  8 27  1  0
 13 28  1  0
 14 29  1  0
 15 30  1  0
 19 31  1  0
 21 32  1  0
 21 33  1  0
 21 34  1  0
M  END
>  <smiles>  (38) 
Cc1sc(NC(=O)CSc2nc(=N)[nH][nH]2)c(C(=O)O)c1C

>  <score_type>  (38) 
oracle

>  <origin>  (38) 
adg

>  <m_score__min__energy>  (38) 
-7.2300000000000004

>  <m_primary>  (38) 
energy

$$$$
38:0
     RDKit          3D

 29 31  0  0  0  0  0  0  0  0999 V2000
   58.9730   32.1000   49.1630 O   0  0  0  0  0  0  0  0  0  0  0  0
   58.8980   31.3850   48.1130 C   0  0  0  0  0  0  0  0  0  0  0  0
   59.2100   30.0830   48.1830 N   0  0  0  0  0  0  0  0  0  0  0  0
   59.1420   29.3000   47.0900 C   0  0  0  0  0  0  0  0  0  0  0  0
   59.4490   27.9530   47.0910 O   0  0  0  0  0  0  0  0  0  0  0  0
   58.6660   26.9330   46.6200 C   0  0  0  0  0  0  0  0  0  0  0  0
   59.1230   25.7010   46.2310 C   0  0  0  0  0  0  0  0  0  0  0  0
   58.2150   24.7700   45.7750 C   0  0  0  0  0  0  0  0  0  0  0  0
   56.8630   25.0170   45.6900 C   0  0  0  0  0  0  0  0  0  0  0  0
   56.3980   26.2560   46.0800 C   0  0  0  0  0  0  0  0  0  0  0  0
   55.0390   26.5830   46.0210 O   0  0  0  0  0  0  0  0  0  0  0  0
   57.2930   27.1820   46.5310 C   0  0  0  0  0  0  0  0  0  0  0  0
   58.7550   29.8460   45.9250 N   0  0  0  0  0  0  0  0  0  0  0  0
   58.4310   31.1470   45.8010 C   0  0  0  0  0  0  0  0  0  0  0  0
   58.0400   31.6450   44.5730 C   0  0  0  0  0  0  0  0  0  0  0  0
   57.7120   32.9950   44.4790 C   0  0  0  0  0  0  0  0  0  0  0  0
   57.7830   33.8070   45.6120 C   0  0  0  0  0  0  0  0  0  0  0  0
   58.1710   33.3130   46.8340 C   0  0  0  0  0  0  0  0  0  0  0  0
   58.5000   31.9560   46.9190 C   0  0  0  0  0  0  0  0  0  0  0  0
   59.5180   29.6070   49.0650 H   0  0  0  0  0  0  0  0  0  0  0  0
   60.1950   25.4596   46.2818 H   0  0  0  0  0  0  0  0  0  0  0  0
   58.5879   23.7829   45.4642 H   0  0  0  0  0  0  0  0  0  0  0  0
   56.1711   24.2458   45.3204 H   0  0  0  0  0  0  0  0  0  0  0  0
   54.7500   27.4730   46.3670 H   0  0  0  0  0  0  0  0  0  0  0  0
   56.9173   28.1691   46.8385 H   0  0  0  0  0  0  0  0  0  0  0  0
   57.9890   30.9905   43.6904 H   0  0  0  0  0  0  0  0  0  0  0  0
   57.3978   33.4203   43.5145 H   0  0  0  0  0  0  0  0  0  0  0  0
   57.5211   34.8718   45.5242 H   0  0  0  0  0  0  0  0  0  0  0  0
   58.2214   33.9648   47.7187 H   0  0  0  0  0  0  0  0  0  0  0  0
  1  2  2  0
  2  3  1  0
  3  4  1  0
  4  5  1  0
  5  6  1  0
  6  7  2  0
  7  8  1  0
  8  9  2  0
  9 10  1  0
 10 11  1  0
 10 12  2  0
  4 13  2  0
 13 14  1  0
 14 15  2  0
 15 16  1  0
 16 17  2  0
 17 18  1  0
 18 19  2  0
 19  2  1  0
 12  6  1  0
 19 14  1  0
  3 20  1  0
  7 21  1  0
  8 22  1  0
  9 23  1  0
 11 24  1  0
 12 25  1  0
 15 26  1  0
 16 27  1  0
 17 28  1  0
 18 29  1  0
M  END
>  <smiles>  (39) 
O=c1[nH]c(Oc2cccc(O)c2)nc2ccccc12

>  <score_type>  (39) 
oracle

>  <origin>  (39) 
adg

>  <m_score__min__energy>  (39) 
-8.1899999999999995

>  <m_primary>  (39) 
energy

$$$$
39:0
     RDKit          3D

 34 36  0  0  0  0  0  0  0  0999 V2000
   55.5060   23.0860   47.6580 C   0  0  0  0  0  0  0  0  0  0  0  0
   55.6130   23.8480   46.4610 O   0  0  0  0  0  0  0  0  0  0  0  0
   56.4270   24.9830   46.3080 C   0  0  0  0  0  0  0  0  0  0  0  0
   57.8300   24.9130   46.4130 C   0  0  0  0  0  0  0  0  0  0  0  0
   58.6120   26.0660   46.2620 C   0  0  0  0  0  0  0  0  0  0  0  0
   58.0020   27.2970   45.9550 C   0  0  0  0  0  0  0  0  0  0  0  0
   56.6020   27.3700   45.8780 C   0  0  0  0  0  0  0  0  0  0  0  0
   55.8190   26.2240   46.0470 C   0  0  0  0  0  0  0  0  0  0  0  0
   54.4320   26.3390   45.9530 O   0  0  0  0  0  0  0  0  0  0  0  0
   58.8730   28.4960   45.7790 C   0  0  0  0  0  0  0  0  0  0  0  0
   58.4160   29.7040   45.0540 C   0  0  0  0  0  0  0  0  0  0  0  0
   58.7520   30.9900   45.5130 C   0  0  0  0  0  0  0  0  0  0  0  0
   58.2960   32.1240   44.8340 C   0  0  0  0  0  0  0  0  0  0  0  0
   57.4910   31.9850   43.7000 C   0  0  0  0  0  0  0  0  0  0  0  0
   57.1360   30.7110   43.2470 C   0  0  0  0  0  0  0  0  0  0  0  0
   57.5900   29.5750   43.9230 C   0  0  0  0  0  0  0  0  0  0  0  0
   60.1040   28.4540   46.2030 N   0  0  0  0  0  0  0  0  0  0  0  0
   60.6600   27.3120   46.9310 C   0  0  0  0  0  0  0  0  0  0  0  0
   60.1140   25.9930   46.3680 C   0  0  0  0  0  0  0  0  0  0  0  0
   55.5997   23.7536   48.5272 H   0  0  0  0  0  0  0  0  0  0  0  0
   54.5284   22.5826   47.6860 H   0  0  0  0  0  0  0  0  0  0  0  0
   56.3072   22.3328   47.6860 H   0  0  0  0  0  0  0  0  0  0  0  0
   58.3151   23.9466   46.6149 H   0  0  0  0  0  0  0  0  0  0  0  0
   56.1167   28.3377   45.6829 H   0  0  0  0  0  0  0  0  0  0  0  0
   53.8030   25.6650   46.3750 H   0  0  0  0  0  0  0  0  0  0  0  0
   59.3769   31.1044   46.4110 H   0  0  0  0  0  0  0  0  0  0  0  0
   58.5712   33.1268   45.1928 H   0  0  0  0  0  0  0  0  0  0  0  0
   57.1368   32.8779   43.1640 H   0  0  0  0  0  0  0  0  0  0  0  0
   56.4984   30.6024   42.3572 H   0  0  0  0  0  0  0  0  0  0  0  0
   57.2998   28.5749   43.5686 H   0  0  0  0  0  0  0  0  0  0  0  0
   61.7557   27.3203   46.8337 H   0  0  0  0  0  0  0  0  0  0  0  0
   60.3707   27.3919   47.9893 H   0  0  0  0  0  0  0  0  0  0  0  0
   60.5424   25.8167   45.3703 H   0  0  0  0  0  0  0  0  0  0  0  0
   60.3910   25.1684   47.0413 H   0  0  0  0  0  0  0  0  0  0  0  0
  1  2  1  0
  2  3  1  0
  3  4  2  0
  4  5  1  0
  5  6  2  0
  6  7  1  0
  7  8  2  0
  8  9  1  0
  6 10  1  0
 10 11  1  0
 11 12  2  0
 12 13  1  0
 13 14  2  0
 14 15  1  0
 15 16  2  0
 10 17  2  0
 17 18  1  0
 18 19  1  0
  8  3  1  0
 16 11  1  0
 19  5  1  0
  1 20  1  0
  1 21  1  0
  1 22  1  0
  4 23  1  0
  7 24  1  0
  9 25  1  0
 12 26  1  0
 13 27  1  0
 14 28  1  0
 15 29  1  0
 16 30  1  0
 18 31  1  0
 18 32  1  0
 19 33  1  0
 19 34  1  0
M  END
>  <UniqueID>  (40) 
35

>  <SMILES>  (40) 
COc1cc2c(cc1O)C(c1ccccc1)=NCC2

>  <Energy>  (40) 
43.4139458521397

>  <Genealogy>  (40) 
COc1cc2c(cc1O)C(c1ccccc1)=NCC2 (3D coordinates assigned)
COc1cc2c(cc1O)C(c1ccccc1)=NCC2 (nonaromatic ring conformer: 43.4139458521397 kcal/mol)

>  <smiles>  (40) 
COc1cc2c(cc1O)C(c1ccccc1)=NCC2

>  <score_type>  (40) 
oracle

>  <origin>  (40) 
adg

>  <m_score__min__energy>  (40) 
-7.2699999999999996

>  <m_primary>  (40) 
energy

$$$$
40:0
     RDKit          3D

 38 40  0  0  1  0  0  0  0  0999 V2000
   56.3720   29.4400   42.8480 C   0  0  0  0  0  0  0  0  0  0  0  0
   57.4900   29.4980   43.8270 C   0  0  0  0  0  0  0  0  0  0  0  0
   57.6890   30.9100   44.3460 C   0  0  0  0  0  0  0  0  0  0  0  0
   57.3980   31.9740   43.4730 C   0  0  0  0  0  0  0  0  0  0  0  0
   57.7730   33.4900   44.4990 S   0  0  0  0  0  0  0  0  0  0  0  0
   58.2680   32.4940   45.9590 C   0  0  0  0  0  0  0  0  0  0  0  0
   58.7060   32.9280   47.1970 C   0  0  0  0  0  0  0  0  0  0  0  0
   58.8150   34.1690   47.4890 N   0  0  0  0  0  0  0  0  0  0  0  0
   59.9360   34.9660   47.0460 C   0  0  0  0  0  0  0  0  0  0  0  0
   61.1500   34.1820   47.4830 C   0  0  0  0  0  0  0  0  0  0  0  0
   62.1390   33.8270   46.5870 C   0  0  0  0  0  0  0  0  0  0  0  0
   63.2600   33.1270   46.9070 C   0  0  0  0  0  0  0  0  0  0  0  0
   63.4390   32.7350   48.2200 C   0  0  0  0  0  0  0  0  0  0  0  0
   62.4580   33.0810   49.1370 C   0  0  0  0  0  0  0  0  0  0  0  0
   61.3270   33.7910   48.7910 C   0  0  0  0  0  0  0  0  0  0  0  0
   60.3380   34.1440   49.6940 O   0  0  0  0  0  0  0  0  0  0  0  0
   60.2110   33.4960   50.9490 C   0  0  0  0  0  0  0  0  0  0  0  0
   59.0170   31.9960   48.1180 N   0  0  0  0  0  0  0  0  0  0  0  0
   58.8770   30.7190   47.7600 C   0  0  0  0  0  0  0  0  0  0  0  0
   58.4560   30.2880   46.5690 N   0  0  0  0  0  0  0  0  0  0  0  0
   58.1180   31.1950   45.5710 C   0  0  0  0  0  0  0  0  0  0  0  0
   55.4146   29.3903   43.3873 H   0  0  0  0  0  0  0  0  0  0  0  0
   56.3907   30.3403   42.2163 H   0  0  0  0  0  0  0  0  0  0  0  0
   56.4838   28.5464   42.2163 H   0  0  0  0  0  0  0  0  0  0  0  0
   57.2615   28.8331   44.6730 H   0  0  0  0  0  0  0  0  0  0  0  0
   58.4134   29.1780   43.3222 H   0  0  0  0  0  0  0  0  0  0  0  0
   57.0364   31.9252   42.4353 H   0  0  0  0  0  0  0  0  0  0  0  0
   59.9217   35.0840   45.9524 H   0  0  0  0  0  0  0  0  0  0  0  0
   59.9198   35.9825   47.4660 H   0  0  0  0  0  0  0  0  0  0  0  0
   62.0106   34.1327   45.5382 H   0  0  0  0  0  0  0  0  0  0  0  0
   64.0069   32.8786   46.1386 H   0  0  0  0  0  0  0  0  0  0  0  0
   64.3298   32.1675   48.5274 H   0  0  0  0  0  0  0  0  0  0  0  0
   62.5873   32.7760   50.1859 H   0  0  0  0  0  0  0  0  0  0  0  0
   60.3547   34.2291   51.7564 H   0  0  0  0  0  0  0  0  0  0  0  0
   59.2085   33.0509   51.0320 H   0  0  0  0  0  0  0  0  0  0  0  0
   60.9713   32.7054   51.0320 H   0  0  0  0  0  0  0  0  0  0  0  0
   59.3450   32.3290   49.0490 H   0  0  0  0  0  0  0  0  0  0  0  0
   59.1301   29.9556   48.5104 H   0  0  0  0  0  0  0  0  0  0  0  0
  1  2  1  0
  2  3  1  0
  3  4  2  0
  4  5  1  0
  5  6  1  0
  6  7  1  0
  7  8  2  0
  8  9  1  0
  9 10  1  0
 10 11  2  0
 11 12  1  0
 12 13  2  0
 13 14  1  0
 14 15  2  0
 15 16  1  0
 16 17  1  0
  7 18  1  0
 18 19  1  0
 19 20  2  0
 20 21  1  0
 21  3  1  0
 21  6  2  0
 15 10  1  0
  1 22  1  0
  1 23  1  0
  1 24  1  0
  2 25  1  0
  2 26  1  0
  4 27  1  0
  9 28  1  0
  9 29  1  0
 11 30  1  0
 12 31  1  0
 13 32  1  0
 14 33  1  0
 17 34  1  0
 17 35  1  0
 17 36  1  0
 18 37  1  0
 19 38  1  0
M  END
>  <smiles>  (41) 
CCc1csc2c(=NCc3ccccc3OC)[nH]cnc12

>  <score_type>  (41) 
oracle

>  <origin>  (41) 
adg

>  <m_score__min__energy>  (41) 
-7.1399999999999997

>  <m_primary>  (41) 
energy

$$$$
41:0
     RDKit          3D

 58 61  0  0  0  0  0  0  0  0999 V2000
   60.1256   36.3774   47.1138 H   0  0  0  0  0  0  0  0  0  0  0  0
   59.6430   35.7450   46.3540 C   0  0  0  0  0  0  0  0  0  0  0  0
   59.2491   36.1969   45.4317 H   0  0  0  0  0  0  0  0  0  0  0  0
   59.5350   34.4240   46.5520 C   0  0  0  0  0  0  0  0  0  0  0  0
   58.8830   33.5680   45.5260 C   0  0  0  0  0  0  0  0  0  0  0  0
   59.0340   33.8410   44.1570 C   0  0  0  0  0  0  0  0  0  0  0  0
   59.6574   34.6851   43.8269 H   0  0  0  0  0  0  0  0  0  0  0  0
   58.3900   33.0370   43.2190 C   0  0  0  0  0  0  0  0  0  0  0  0
   58.5084   33.2441   42.1452 H   0  0  0  0  0  0  0  0  0  0  0  0
   57.6170   31.9990   43.6270 N   0  0  0  0  0  0  0  0  0  0  0  0
   57.4460   31.6880   44.9390 C   0  0  0  0  0  0  0  0  0  0  0  0
   56.6540   30.6980   45.2390 N   0  0  0  0  0  0  0  0  0  0  0  0
   56.2090   29.6270   44.3910 C   0  0  0  0  0  0  0  0  0  0  0  0
   54.9890   29.3180   44.3220 O   0  0  0  0  0  0  0  0  0  0  0  0
   57.2210   28.8210   43.6420 C   0  0  0  0  0  0  0  0  0  0  0  0
   56.7306   27.9419   43.1985 H   0  0  0  0  0  0  0  0  0  0  0  0
   57.6618   29.4425   42.8486 H   0  0  0  0  0  0  0  0  0  0  0  0
   58.3100   28.3660   44.5750 C   0  0  0  0  0  0  0  0  0  0  0  0
   59.5590   29.0060   44.5670 C   0  0  0  0  0  0  0  0  0  0  0  0
   59.7334   29.8594   43.8952 H   0  0  0  0  0  0  0  0  0  0  0  0
   60.5810   28.5630   45.4090 C   0  0  0  0  0  0  0  0  0  0  0  0
   61.5568   29.0707   45.4003 H   0  0  0  0  0  0  0  0  0  0  0  0
   60.3690   27.4780   46.2620 C   0  0  0  0  0  0  0  0  0  0  0  0
   61.1768   27.1367   46.9260 H   0  0  0  0  0  0  0  0  0  0  0  0
   59.1240   26.8190   46.2750 C   0  0  0  0  0  0  0  0  0  0  0  0
   58.8590   25.7320   47.1190 O   0  0  0  0  0  0  0  0  0  0  0  0
   57.5830   25.1100   47.2500 C   0  0  0  0  0  0  0  0  0  0  0  0
   57.3405   24.9918   48.3164 H   0  0  0  0  0  0  0  0  0  0  0  0
   56.8184   25.7365   46.7673 H   0  0  0  0  0  0  0  0  0  0  0  0
   57.6055   24.1218   46.7673 H   0  0  0  0  0  0  0  0  0  0  0  0
   58.1080   27.2610   45.4180 C   0  0  0  0  0  0  0  0  0  0  0  0
   57.1411   26.7367   45.4051 H   0  0  0  0  0  0  0  0  0  0  0  0
   58.0830   32.4810   45.9170 C   0  0  0  0  0  0  0  0  0  0  0  0
   57.9535   32.2485   46.9843 H   0  0  0  0  0  0  0  0  0  0  0  0
   60.1240   33.8180   47.7730 C   0  0  0  0  0  0  0  0  0  0  0  0
   59.4650   33.5710   48.9750 C   0  0  0  0  0  0  0  0  0  0  0  0
   58.4036   33.7905   49.1625 H   0  0  0  0  0  0  0  0  0  0  0  0
   60.3120   33.0220   49.8840 N   0  0  0  0  0  0  0  0  0  0  0  0
   59.9550   32.5620   51.2360 C   0  0  0  0  0  0  0  0  0  0  0  0
   60.8819   32.3475   51.7881 H   0  0  0  0  0  0  0  0  0  0  0  0
   59.1310   31.2770   51.1520 C   0  0  0  0  0  0  0  0  0  0  0  0
   58.9026   30.9208   52.1674 H   0  0  0  0  0  0  0  0  0  0  0  0
   58.1927   31.4776   50.6141 H   0  0  0  0  0  0  0  0  0  0  0  0
   59.7048   30.5080   50.6141 H   0  0  0  0  0  0  0  0  0  0  0  0
   59.2020   33.6510   52.0090 C   0  0  0  0  0  0  0  0  0  0  0  0
   59.3193   33.4814   53.0895 H   0  0  0  0  0  0  0  0  0  0  0  0
   59.6120   34.6373   51.7461 H   0  0  0  0  0  0  0  0  0  0  0  0
   58.1345   33.6157   51.7461 H   0  0  0  0  0  0  0  0  0  0  0  0
   61.4990   32.8890   49.2510 C   0  0  0  0  0  0  0  0  0  0  0  0
   62.6780   32.3140   49.7330 C   0  0  0  0  0  0  0  0  0  0  0  0
   62.7429   31.9193   50.7577 H   0  0  0  0  0  0  0  0  0  0  0  0
   63.7760   32.2590   48.8610 C   0  0  0  0  0  0  0  0  0  0  0  0
   64.7234   31.8184   49.2049 H   0  0  0  0  0  0  0  0  0  0  0  0
   63.6790   32.7490   47.5850 N   0  0  0  0  0  0  0  0  0  0  0  0
   64.5090   32.6920   46.9540 H   0  0  0  0  0  0  0  0  0  0  0  0
   62.5210   33.2970   47.1120 C   0  0  0  0  0  0  0  0  0  0  0  0
   62.4560   33.6713   46.0797 H   0  0  0  0  0  0  0  0  0  0  0  0
   61.4220   33.3710   47.9690 C   0  0  0  0  0  0  0  0  0  0  0  0
  1  2  1  0
  2  3  1  0
  2  4  2  0
  4  5  1  0
  5  6  1  0
  6  7  1  0
  6  8  2  0
  8  9  1  0
  8 10  1  0
 10 11  1  0
 11 12  2  0
 12 13  1  0
 13 14  2  0
 13 15  1  0
 15 16  1  0
 15 17  1  0
 15 18  1  0
 18 19  2  0
 19 20  1  0
 19 21  1  0
 21 22  1  0
 21 23  2  0
 23 24  1  0
 23 25  1  0
 25 26  1  0
 26 27  1  0
 27 28  1  0
 27 29  1  0
 27 30  1  0
 25 31  2  0
 31 32  1  0
 11 33  1  0
 33 34  1  0
  4 35  1  0
 35 36  2  0
 36 37  1  0
 36 38  1  0
 38 39  1  0
 39 40  1  0
 39 41  1  0
 41 42  1  0
 41 43  1  0
 41 44  1  0
 39 45  1  0
 45 46  1  0
 45 47  1  0
 45 48  1  0
 38 49  1  0
 49 50  2  0
 50 51  1  0
 50 52  1  0
 52 53  1  0
 52 54  2  0
 54 55  1  0
 54 56  1  0
 56 57  1  0
 56 58  2  0
 33  5  2  0
 58 35  1  0
 31 18  1  0
 58 49  1  0
M  CHG  2  10  -1  54   1
M  END
>  <UniqueID>  (42) 
36

>  <SMILES>  (42) 
C=C(c1cc[n-]/c(=N/C(=O)Cc2cccc(OC)c2)c1)c1cn(C(C)C)c2cc[nH+]cc12

>  <Energy>  (42) 
101.96622286063732

>  <Genealogy>  (42) 
C=C(c1cc[n-]c(=NC(=O)Cc2cccc(OC)c2)c1)c1cn(C(C)C)c2cc[nH+]cc12 (protonated)
C=C(c1cc[n-]/c(=N/C(=O)Cc2cccc(OC)c2)c1)c1cn(C(C)C)c2cc[nH+]cc12 (cis-trans isomerization)
C=C(c1cc[n-]/c(=N/C(=O)Cc2cccc(OC)c2)c1)c1cn(C(C)C)c2cc[nH+]cc12 (3D coordinates assigned)
C=C(c1cc[n-]/c(=N/C(=O)Cc2cccc(OC)c2)c1)c1cn(C(C)C)c2cc[nH+]cc12 (optimized conformer: 101.96622286063732 kcal/mol)

>  <smiles>  (42) 
C=C(c1cc[nH]c(=NC(=O)Cc2cccc(OC)c2)c1)c1cn(C(C)C)c2ccncc12

>  <score_type>  (42) 
oracle

>  <origin>  (42) 
adg

>  <m_score__min__energy>  (42) 
-10.140000000000001

>  <m_primary>  (42) 
energy

$$$$
42:0
     RDKit          3D

 49 52  0  0  0  0  0  0  0  0999 V2000
   57.6050   30.9360   51.2950 C   0  0  0  0  0  0  0  0  0  0  0  0
   58.4340   32.0690   50.7670 C   0  0  0  0  0  0  0  0  0  0  0  0
   59.2190   32.8380   51.6380 C   0  0  0  0  0  0  0  0  0  0  0  0
   60.0230   33.8650   51.1380 C   0  0  0  0  0  0  0  0  0  0  0  0
   60.0560   34.1270   49.7660 C   0  0  0  0  0  0  0  0  0  0  0  0
   59.2770   33.3670   48.8780 C   0  0  0  0  0  0  0  0  0  0  0  0
   59.3650   33.6350   47.3910 C   0  0  0  0  0  0  0  0  0  0  0  0
   59.3370   32.3820   46.5960 N   0  0  0  0  0  0  0  0  0  0  0  0
   60.3960   31.4850   46.5410 C   0  0  0  0  0  0  0  0  0  0  0  0
   61.7900   31.7650   47.1190 C   0  0  0  0  0  0  0  0  0  0  0  0
   61.9610   31.3420   48.5990 C   0  0  0  0  0  0  0  0  0  0  0  0
   62.9250   32.2740   49.3480 C   0  0  0  0  0  0  0  0  0  0  0  0
   64.0800   32.6120   48.5090 N   0  0  0  0  0  0  0  0  0  0  0  0
   63.7120   33.4460   47.3480 C   0  0  0  0  0  0  0  0  0  0  0  0
   62.2860   33.1940   46.8070 C   0  0  0  0  0  0  0  0  0  0  0  0
   60.2380   30.3000   45.8730 N   0  0  0  0  0  0  0  0  0  0  0  0
   59.0910   29.9860   45.2200 C   0  0  0  0  0  0  0  0  0  0  0  0
   58.9690   28.7600   44.5440 C   0  0  0  0  0  0  0  0  0  0  0  0
   57.7930   28.4500   43.8560 C   0  0  0  0  0  0  0  0  0  0  0  0
   56.7340   29.3600   43.8360 C   0  0  0  0  0  0  0  0  0  0  0  0
   56.8470   30.5810   44.5050 C   0  0  0  0  0  0  0  0  0  0  0  0
   58.0290   30.9010   45.2030 C   0  0  0  0  0  0  0  0  0  0  0  0
   58.1810   32.1090   45.8960 C   0  0  0  0  0  0  0  0  0  0  0  0
   57.2370   32.9500   45.8770 O   0  0  0  0  0  0  0  0  0  0  0  0
   58.4830   32.3220   49.3870 C   0  0  0  0  0  0  0  0  0  0  0  0
   57.6179   30.9537   52.3948 H   0  0  0  0  0  0  0  0  0  0  0  0
   56.5697   31.0421   50.9387 H   0  0  0  0  0  0  0  0  0  0  0  0
   58.0194   29.9814   50.9387 H   0  0  0  0  0  0  0  0  0  0  0  0
   59.2016   32.6319   52.7184 H   0  0  0  0  0  0  0  0  0  0  0  0
   60.6320   34.4693   51.8265 H   0  0  0  0  0  0  0  0  0  0  0  0
   60.6960   34.9335   49.3788 H   0  0  0  0  0  0  0  0  0  0  0  0
   58.5130   34.2636   47.0927 H   0  0  0  0  0  0  0  0  0  0  0  0
   60.3218   34.1405   47.1936 H   0  0  0  0  0  0  0  0  0  0  0  0
   62.4727   31.0924   46.5791 H   0  0  0  0  0  0  0  0  0  0  0  0
   60.9792   31.3720   49.0941 H   0  0  0  0  0  0  0  0  0  0  0  0
   62.3814   30.3257   48.6190 H   0  0  0  0  0  0  0  0  0  0  0  0
   62.3944   33.1982   49.6204 H   0  0  0  0  0  0  0  0  0  0  0  0
   63.2839   31.7582   50.2509 H   0  0  0  0  0  0  0  0  0  0  0  0
   64.5210   31.7250   48.1670 H   0  0  0  0  0  0  0  0  0  0  0  0
   63.7851   34.5023   47.6462 H   0  0  0  0  0  0  0  0  0  0  0  0
   64.4067   33.1801   46.5377 H   0  0  0  0  0  0  0  0  0  0  0  0
   61.5982   33.9171   47.2698 H   0  0  0  0  0  0  0  0  0  0  0  0
   62.3129   33.3119   45.7137 H   0  0  0  0  0  0  0  0  0  0  0  0
   61.0250   29.6110   45.8440 H   0  0  0  0  0  0  0  0  0  0  0  0
   59.8022   28.0419   44.5565 H   0  0  0  0  0  0  0  0  0  0  0  0
   57.7013   27.4884   43.3297 H   0  0  0  0  0  0  0  0  0  0  0  0
   55.8095   29.1150   43.2926 H   0  0  0  0  0  0  0  0  0  0  0  0
   56.0106   31.2953   44.4870 H   0  0  0  0  0  0  0  0  0  0  0  0
   57.8957   31.6980   48.6973 H   0  0  0  0  0  0  0  0  0  0  0  0
  1  2  1  0
  2  3  2  0
  3  4  1  0
  4  5  2  0
  5  6  1  0
  6  7  1  0
  7  8  1  0
  8  9  1  0
  9 10  1  0
 10 11  1  0
 11 12  1  0
 12 13  1  0
 13 14  1  0
 14 15  1  0
  9 16  2  0
 16 17  1  0
 17 18  2  0
 18 19  1  0
 19 20  2  0
 20 21  1  0
 21 22  2  0
 22 23  1  0
 23 24  2  0
  6 25  2  0
 25  2  1  0
 23  8  1  0
 15 10  1  0
 22 17  1  0
  1 26  1  0
  1 27  1  0
  1 28  1  0
  3 29  1  0
  4 30  1  0
  5 31  1  0
  7 32  1  0
  7 33  1  0
 10 34  1  0
 11 35  1  0
 11 36  1  0
 12 37  1  0
 12 38  1  0
 13 39  1  0
 14 40  1  0
 14 41  1  0
 15 42  1  0
 15 43  1  0
 16 44  1  0
 18 45  1  0
 19 46  1  0
 20 47  1  0
 21 48  1  0
 25 49  1  0
M  CHG  1  16   1
M  END
>  <UniqueID>  (43) 
37

>  <SMILES>  (43) 
Cc1cccc(Cn2c(C3CCNCC3)[nH+]c3ccccc3c2=O)c1

>  <Energy>  (43) 
74.2639573220749

>  <Genealogy>  (43) 
Cc1cccc(Cn2c(C3CCNCC3)[nH+]c3ccccc3c2=O)c1 (protonated)
Cc1cccc(Cn2c(C3CCNCC3)[nH+]c3ccccc3c2=O)c1 (3D coordinates assigned)
Cc1cccc(Cn2c(C3CCNCC3)[nH+]c3ccccc3c2=O)c1 (nonaromatic ring conformer: 74.2639573220749 kcal/mol)

>  <smiles>  (43) 
Cc1cccc(Cn2c(C3CCNCC3)nc3ccccc3c2=O)c1

>  <score_type>  (43) 
oracle

>  <origin>  (43) 
adg

>  <m_score__min__energy>  (43) 
-6.7599999999999998

>  <m_primary>  (43) 
energy

$$$$
43:0
     RDKit          3D

 23 23  0  0  0  0  0  0  0  0999 V2000
   55.5090   29.7580   43.6800 C   0  0  0  0  0  0  0  0  0  0  0  0
   55.5550   28.9860   44.8750 O   0  0  0  0  0  0  0  0  0  0  0  0
   56.7070   28.3540   45.3710 C   0  0  0  0  0  0  0  0  0  0  0  0
   57.9780   28.9600   45.3040 C   0  0  0  0  0  0  0  0  0  0  0  0
   59.1000   28.3000   45.8070 C   0  0  0  0  0  0  0  0  0  0  0  0
   58.9700   27.0360   46.3810 C   0  0  0  0  0  0  0  0  0  0  0  0
   57.7160   26.4240   46.4530 C   0  0  0  0  0  0  0  0  0  0  0  0
   56.5770   27.0770   45.9480 C   0  0  0  0  0  0  0  0  0  0  0  0
   55.2720   26.4800   46.0040 N   0  0  0  0  0  0  0  0  0  0  0  0
   54.9170   24.7890   45.8450 S   0  0  0  0  0  0  0  0  0  0  0  0
   55.7870   24.1100   44.4470 C   0  0  0  0  0  0  0  0  0  0  0  0
   55.2960   24.0610   47.1040 O   0  0  0  0  0  0  0  0  0  0  0  0
   53.4410   24.6270   45.6170 O   0  0  0  0  0  0  0  0  0  0  0  0
   55.4454   30.8260   43.9356 H   0  0  0  0  0  0  0  0  0  0  0  0
   56.4196   29.5757   43.0904 H   0  0  0  0  0  0  0  0  0  0  0  0
   54.6265   29.4689   43.0904 H   0  0  0  0  0  0  0  0  0  0  0  0
   58.0859   29.9576   44.8532 H   0  0  0  0  0  0  0  0  0  0  0  0
   60.0891   28.7780   45.7505 H   0  0  0  0  0  0  0  0  0  0  0  0
   59.8564   26.5196   46.7779 H   0  0  0  0  0  0  0  0  0  0  0  0
   57.6190   25.4267   46.9068 H   0  0  0  0  0  0  0  0  0  0  0  0
   56.6078   23.4694   44.8018 H   0  0  0  0  0  0  0  0  0  0  0  0
   55.0927   23.5126   43.8379 H   0  0  0  0  0  0  0  0  0  0  0  0
   56.1978   24.9287   43.8379 H   0  0  0  0  0  0  0  0  0  0  0  0
  1  2  1  0
  2  3  1  0
  3  4  2  0
  4  5  1  0
  5  6  2  0
  6  7  1  0
  7  8  2  0
  8  9  1  0
  9 10  1  0
 10 11  1  0
 10 12  2  0
 10 13  2  0
  8  3  1  0
  1 14  1  0
  1 15  1  0
  1 16  1  0
  4 17  1  0
  5 18  1  0
  6 19  1  0
  7 20  1  0
 11 21  1  0
 11 22  1  0
 11 23  1  0
M  CHG  1   9  -1
M  END
>  <UniqueID>  (44) 
38

>  <SMILES>  (44) 
COc1ccccc1[N-]S(C)(=O)=O

>  <Energy>  (44) 
19.945787708197596

>  <Genealogy>  (44) 
COc1ccccc1[N-]S(C)(=O)=O (protonated)
COc1ccccc1[N-]S(C)(=O)=O (3D coordinates assigned)
COc1ccccc1[N-]S(C)(=O)=O (optimized conformer: 19.945787708197596 kcal/mol)

>  <smiles>  (44) 
COc1ccccc1NS(C)(=O)=O

>  <score_type>  (44) 
oracle

>  <origin>  (44) 
adg

>  <m_score__min__energy>  (44) 
-7.9500000000000002

>  <m_primary>  (44) 
energy

$$$$
44:0
     RDKit          3D

 40 41  0  0  0  0  0  0  0  0999 V2000
   58.0210   32.5990   41.6920 O   0  0  0  0  0  0  0  0  0  0  0  0
   58.0630   32.3990   42.9380 C   0  0  0  0  0  0  0  0  0  0  0  0
   57.4430   31.2420   43.5030 N   0  0  0  0  0  0  0  0  0  0  0  0
   56.6010   30.3570   42.7000 C   0  0  0  0  0  0  0  0  0  0  0  0
   55.5050   29.7180   43.5570 C   0  0  0  0  0  0  0  0  0  0  0  0
   55.9170   29.6810   44.9620 N   0  0  0  0  0  0  0  0  0  0  0  0
   57.1140   28.4450   45.2330 S   0  0  0  0  0  0  0  0  0  0  0  0
   56.4690   27.2850   45.9370 O   0  0  0  0  0  0  0  0  0  0  0  0
   57.6460   27.9590   43.9130 O   0  0  0  0  0  0  0  0  0  0  0  0
   58.4390   29.0580   46.2220 C   0  0  0  0  0  0  0  0  0  0  0  0
   59.3770   29.9400   45.6690 C   0  0  0  0  0  0  0  0  0  0  0  0
   60.4610   30.3850   46.4340 C   0  0  0  0  0  0  0  0  0  0  0  0
   60.6140   29.9480   47.7520 C   0  0  0  0  0  0  0  0  0  0  0  0
   59.6840   29.0640   48.3080 C   0  0  0  0  0  0  0  0  0  0  0  0
   58.5980   28.6200   47.5470 C   0  0  0  0  0  0  0  0  0  0  0  0
   58.6970   33.3160   43.7820 O   0  0  0  0  0  0  0  0  0  0  0  0
   57.9910   34.1400   44.7080 C   0  0  0  0  0  0  0  0  0  0  0  0
   58.4850   33.8860   46.1070 C   0  0  0  0  0  0  0  0  0  0  0  0
   59.5930   34.5970   46.5980 C   0  0  0  0  0  0  0  0  0  0  0  0
   60.0750   34.3470   47.8860 C   0  0  0  0  0  0  0  0  0  0  0  0
   59.4600   33.3830   48.6890 C   0  0  0  0  0  0  0  0  0  0  0  0
   58.3640   32.6660   48.2050 C   0  0  0  0  0  0  0  0  0  0  0  0
   57.8770   32.9130   46.9170 C   0  0  0  0  0  0  0  0  0  0  0  0
   57.5230   31.0970   44.5350 H   0  0  0  0  0  0  0  0  0  0  0  0
   56.1330   30.9399   41.8930 H   0  0  0  0  0  0  0  0  0  0  0  0
   57.2305   29.5576   42.2820 H   0  0  0  0  0  0  0  0  0  0  0  0
   54.5815   30.3084   43.4648 H   0  0  0  0  0  0  0  0  0  0  0  0
   55.3305   28.6897   43.2075 H   0  0  0  0  0  0  0  0  0  0  0  0
   59.2609   30.2836   44.6305 H   0  0  0  0  0  0  0  0  0  0  0  0
   61.1934   31.0797   45.9970 H   0  0  0  0  0  0  0  0  0  0  0  0
   61.4661   30.2993   48.3525 H   0  0  0  0  0  0  0  0  0  0  0  0
   59.8068   28.7176   49.3448 H   0  0  0  0  0  0  0  0  0  0  0  0
   57.8666   27.9262   47.9871 H   0  0  0  0  0  0  0  0  0  0  0  0
   58.1530   35.1973   44.4512 H   0  0  0  0  0  0  0  0  0  0  0  0
   56.9182   33.9025   44.6562 H   0  0  0  0  0  0  0  0  0  0  0  0
   60.0828   35.3530   45.9666 H   0  0  0  0  0  0  0  0  0  0  0  0
   60.9395   34.9098   48.2679 H   0  0  0  0  0  0  0  0  0  0  0  0
   59.8395   33.1888   49.7030 H   0  0  0  0  0  0  0  0  0  0  0  0
   57.8826   31.9056   48.8375 H   0  0  0  0  0  0  0  0  0  0  0  0
   57.0156   32.3437   46.5377 H   0  0  0  0  0  0  0  0  0  0  0  0
  1  2  2  0
  2  3  1  0
  3  4  1  0
  4  5  1  0
  5  6  1  0
  6  7  1  0
  7  8  2  0
  7  9  2  0
  7 10  1  0
 10 11  2  0
 11 12  1  0
 12 13  2  0
 13 14  1  0
 14 15  2  0
  2 16  1  0
 16 17  1  0
 17 18  1  0
 18 19  2  0
 19 20  1  0
 20 21  2  0
 21 22  1  0
 22 23  2  0
 15 10  1  0
 23 18  1  0
  3 24  1  0
  4 25  1  0
  4 26  1  0
  5 27  1  0
  5 28  1  0
 11 29  1  0
 12 30  1  0
 13 31  1  0
 14 32  1  0
 15 33  1  0
 17 34  1  0
 17 35  1  0
 19 36  1  0
 20 37  1  0
 21 38  1  0
 22 39  1  0
 23 40  1  0
M  CHG  1   6  -1
M  END
>  <UniqueID>  (45) 
39

>  <SMILES>  (45) 
O=C(NCC[N-]S(=O)(=O)c1ccccc1)OCc1ccccc1

>  <Energy>  (45) 
31.322870485038028

>  <Genealogy>  (45) 
O=C(NCC[N-]S(=O)(=O)c1ccccc1)OCc1ccccc1 (protonated)
O=C(NCC[N-]S(=O)(=O)c1ccccc1)OCc1ccccc1 (3D coordinates assigned)
O=C(NCC[N-]S(=O)(=O)c1ccccc1)OCc1ccccc1 (optimized conformer: 31.322870485038028 kcal/mol)

>  <smiles>  (45) 
O=C(NCCNS(=O)(=O)c1ccccc1)OCc1ccccc1

>  <score_type>  (45) 
oracle

>  <origin>  (45) 
adg

>  <m_score__min__energy>  (45) 
-9.2899999999999991

>  <m_primary>  (45) 
energy

$$$$
45:0
     RDKit          3D

 35 37  0  0  0  0  0  0  0  0999 V2000
   60.7270   26.7460   48.3590 C   0  0  0  0  0  0  0  0  0  0  0  0
   59.9270   26.2570   47.2870 O   0  0  0  0  0  0  0  0  0  0  0  0
   58.8700   26.9690   46.7000 C   0  0  0  0  0  0  0  0  0  0  0  0
   58.8690   28.3730   46.5970 C   0  0  0  0  0  0  0  0  0  0  0  0
   57.7910   29.0360   46.0040 C   0  0  0  0  0  0  0  0  0  0  0  0
   56.6930   28.3080   45.5060 C   0  0  0  0  0  0  0  0  0  0  0  0
   55.5820   28.9230   44.9060 O   0  0  0  0  0  0  0  0  0  0  0  0
   55.6180   29.7150   43.7190 C   0  0  0  0  0  0  0  0  0  0  0  0
   56.5510   30.8780   43.8840 C   0  0  0  0  0  0  0  0  0  0  0  0
   57.3020   31.3490   42.7970 C   0  0  0  0  0  0  0  0  0  0  0  0
   58.1590   32.4380   42.9710 C   0  0  0  0  0  0  0  0  0  0  0  0
   58.2670   33.0470   44.2270 C   0  0  0  0  0  0  0  0  0  0  0  0
   59.1160   34.1430   44.4360 C   0  0  0  0  0  0  0  0  0  0  0  0
   59.2010   34.7280   45.7030 C   0  0  0  0  0  0  0  0  0  0  0  0
   58.4400   34.2260   46.7640 C   0  0  0  0  0  0  0  0  0  0  0  0
   57.5910   33.1330   46.5630 C   0  0  0  0  0  0  0  0  0  0  0  0
   57.4990   32.5400   45.3000 C   0  0  0  0  0  0  0  0  0  0  0  0
   56.6720   31.4790   45.1000 N   0  0  0  0  0  0  0  0  0  0  0  0
   56.7020   26.9120   45.6060 C   0  0  0  0  0  0  0  0  0  0  0  0
   57.7800   26.2480   46.1990 C   0  0  0  0  0  0  0  0  0  0  0  0
   60.2669   26.4648   49.3178 H   0  0  0  0  0  0  0  0  0  0  0  0
   61.7344   26.3091   48.2936 H   0  0  0  0  0  0  0  0  0  0  0  0
   60.7976   27.8418   48.2936 H   0  0  0  0  0  0  0  0  0  0  0  0
   59.7207   28.9510   46.9851 H   0  0  0  0  0  0  0  0  0  0  0  0
   57.8002   30.1332   45.9257 H   0  0  0  0  0  0  0  0  0  0  0  0
   55.9623   29.0924   42.8801 H   0  0  0  0  0  0  0  0  0  0  0  0
   54.6066   30.0992   43.5201 H   0  0  0  0  0  0  0  0  0  0  0  0
   57.2165   30.8637   41.8136 H   0  0  0  0  0  0  0  0  0  0  0  0
   58.7481   32.8165   42.1227 H   0  0  0  0  0  0  0  0  0  0  0  0
   59.7146   34.5422   43.6040 H   0  0  0  0  0  0  0  0  0  0  0  0
   59.8690   35.5865   45.8662 H   0  0  0  0  0  0  0  0  0  0  0  0
   58.5095   34.6917   47.7581 H   0  0  0  0  0  0  0  0  0  0  0  0
   56.9949   32.7393   47.3995 H   0  0  0  0  0  0  0  0  0  0  0  0
   55.8533   26.3320   45.2145 H   0  0  0  0  0  0  0  0  0  0  0  0
   57.7714   25.1505   46.2724 H   0  0  0  0  0  0  0  0  0  0  0  0
  1  2  1  0
  2  3  1  0
  3  4  2  0
  4  5  1  0
  5  6  2  0
  6  7  1  0
  7  8  1  0
  8  9  1  0
  9 10  2  0
 10 11  1  0
 11 12  2  0
 12 13  1  0
 13 14  2  0
 14 15  1  0
 15 16  2  0
 16 17  1  0
 17 18  2  0
  6 19  1  0
 19 20  2  0
 20  3  1  0
 18  9  1  0
 17 12  1  0
  1 21  1  0
  1 22  1  0
  1 23  1  0
  4 24  1  0
  5 25  1  0
  8 26  1  0
  8 27  1  0
 10 28  1  0
 11 29  1  0
 13 30  1  0
 14 31  1  0
 15 32  1  0
 16 33  1  0
 19 34  1  0
 20 35  1  0
M  END
>  <UniqueID>  (46) 
40

>  <SMILES>  (46) 
COc1ccc(OCc2ccc3ccccc3n2)cc1

>  <Energy>  (46) 
39.29052389011878

>  <Genealogy>  (46) 
COc1ccc(OCc2ccc3ccccc3n2)cc1 (3D coordinates assigned)
COc1ccc(OCc2ccc3ccccc3n2)cc1 (optimized conformer: 39.29052389011878 kcal/mol)

>  <smiles>  (46) 
COc1ccc(OCc2ccc3ccccc3n2)cc1

>  <score_type>  (46) 
oracle

>  <origin>  (46) 
adg

>  <m_score__min__energy>  (46) 
-7.7599999999999998

>  <m_primary>  (46) 
energy

$$$$
46:0
     RDKit          3D

 27 29  0  0  0  0  0  0  0  0999 V2000
   59.4960   24.8270   46.0020 C   0  0  0  0  0  0  0  0  0  0  0  0
   59.1380   26.2730   45.8720 C   0  0  0  0  0  0  0  0  0  0  0  0
   60.2400   27.5400   46.0840 S   0  0  0  0  0  0  0  0  0  0  0  0
   59.1200   28.7500   45.7860 C   0  0  0  0  0  0  0  0  0  0  0  0
   59.3480   30.0860   45.7900 N   0  0  0  0  0  0  0  0  0  0  0  0
   58.3110   30.9390   45.5210 C   0  0  0  0  0  0  0  0  0  0  0  0
   58.4990   32.4100   45.5130 C   0  0  0  0  0  0  0  0  0  0  0  0
   57.7770   33.3080   44.7020 C   0  0  0  0  0  0  0  0  0  0  0  0
   58.1430   34.6360   44.8730 C   0  0  0  0  0  0  0  0  0  0  0  0
   59.3630   34.6990   46.0230 S   0  0  0  0  0  0  0  0  0  0  0  0
   59.4430   33.0480   46.3170 C   0  0  0  0  0  0  0  0  0  0  0  0
   57.0720   30.4270   45.2460 N   0  0  0  0  0  0  0  0  0  0  0  0
   56.8270   29.0870   45.2360 C   0  0  0  0  0  0  0  0  0  0  0  0
   55.6680   28.6680   44.9770 O   0  0  0  0  0  0  0  0  0  0  0  0
   57.8790   28.2060   45.5160 C   0  0  0  0  0  0  0  0  0  0  0  0
   57.8710   26.7950   45.5620 C   0  0  0  0  0  0  0  0  0  0  0  0
   56.6530   25.9510   45.3050 C   0  0  0  0  0  0  0  0  0  0  0  0
   59.5621   24.5599   47.0670 H   0  0  0  0  0  0  0  0  0  0  0  0
   58.7228   24.2128   45.5173 H   0  0  0  0  0  0  0  0  0  0  0  0
   60.4664   24.6445   45.5173 H   0  0  0  0  0  0  0  0  0  0  0  0
   60.3130   30.4310   45.9840 H   0  0  0  0  0  0  0  0  0  0  0  0
   56.9953   32.9863   43.9982 H   0  0  0  0  0  0  0  0  0  0  0  0
   57.7083   35.4980   44.3457 H   0  0  0  0  0  0  0  0  0  0  0  0
   60.1248   32.5532   47.0243 H   0  0  0  0  0  0  0  0  0  0  0  0
   56.2104   25.6443   46.2642 H   0  0  0  0  0  0  0  0  0  0  0  0
   55.9173   26.5339   44.7314 H   0  0  0  0  0  0  0  0  0  0  0  0
   56.9404   25.0575   44.7314 H   0  0  0  0  0  0  0  0  0  0  0  0
  1  2  1  0
  2  3  1  0
  3  4  1  0
  4  5  1  0
  5  6  1  0
  6  7  1  0
  7  8  1  0
  8  9  2  0
  9 10  1  0
 10 11  1  0
  6 12  2  0
 12 13  1  0
 13 14  2  0
 13 15  1  0
 15 16  1  0
 16 17  1  0
 16  2  2  0
 15  4  2  0
 11  7  2  0
  1 18  1  0
  1 19  1  0
  1 20  1  0
  5 21  1  0
  8 22  1  0
  9 23  1  0
 11 24  1  0
 17 25  1  0
 17 26  1  0
 17 27  1  0
M  END
>  <UniqueID>  (47) 
41

>  <SMILES>  (47) 
Cc1sc2[nH]c(-c3ccsc3)nc(=O)c2c1C

>  <Energy>  (47) 
89.43079296714366

>  <Genealogy>  (47) 
Cc1sc2[nH]c(-c3ccsc3)nc(=O)c2c1C (3D coordinates assigned)
Cc1sc2[nH]c(-c3ccsc3)nc(=O)c2c1C (optimized conformer: 89.43079296714366 kcal/mol)

>  <smiles>  (47) 
Cc1sc2[nH]c(-c3ccsc3)nc(=O)c2c1C

>  <score_type>  (47) 
oracle

>  <origin>  (47) 
adg

>  <m_score__min__energy>  (47) 
-6.5499999999999998

>  <m_primary>  (47) 
energy

$$$$
47:0
     RDKit          3D

 34 35  0  0  0  0  0  0  0  0999 V2000
   55.1380   29.3390   44.8370 N   0  0  0  0  0  0  0  0  0  0  0  0
   56.5970   30.0800   44.2780 S   0  0  0  0  0  0  0  0  0  0  0  0
   56.6420   29.9750   42.7790 O   0  0  0  0  0  0  0  0  0  0  0  0
   56.6010   31.5270   44.6820 O   0  0  0  0  0  0  0  0  0  0  0  0
   58.0080   29.2720   44.9740 C   0  0  0  0  0  0  0  0  0  0  0  0
   58.5040   28.1100   44.3600 C   0  0  0  0  0  0  0  0  0  0  0  0
   59.6280   27.4610   44.8750 C   0  0  0  0  0  0  0  0  0  0  0  0
   60.2630   27.9590   46.0120 C   0  0  0  0  0  0  0  0  0  0  0  0
   59.7780   29.1090   46.6370 C   0  0  0  0  0  0  0  0  0  0  0  0
   58.6560   29.7810   46.1240 C   0  0  0  0  0  0  0  0  0  0  0  0
   58.1510   30.9410   46.8000 N   0  0  0  0  0  0  0  0  0  0  0  0
   58.9400   31.5970   48.1980 S   0  0  0  0  0  0  0  0  0  0  0  0
   59.0960   30.4890   49.2030 O   0  0  0  0  0  0  0  0  0  0  0  0
   58.1200   32.6910   48.8230 O   0  0  0  0  0  0  0  0  0  0  0  0
   60.5340   32.2420   47.7540 C   0  0  0  0  0  0  0  0  0  0  0  0
   61.6670   31.5250   48.1760 C   0  0  0  0  0  0  0  0  0  0  0  0
   62.9520   31.9510   47.8440 C   0  0  0  0  0  0  0  0  0  0  0  0
   63.1290   33.0990   47.0800 C   0  0  0  0  0  0  0  0  0  0  0  0
   62.0230   33.8330   46.6540 C   0  0  0  0  0  0  0  0  0  0  0  0
   60.7110   33.4400   46.9970 C   0  0  0  0  0  0  0  0  0  0  0  0
   59.5480   34.2740   46.4860 C   0  0  0  0  0  0  0  0  0  0  0  0
   59.9870   35.2680   45.6360 F   0  0  0  0  0  0  0  0  0  0  0  0
   58.6450   33.5010   45.7760 F   0  0  0  0  0  0  0  0  0  0  0  0
   58.8780   34.8410   47.5530 F   0  0  0  0  0  0  0  0  0  0  0  0
   55.1460   28.3530   44.4940 H   0  0  0  0  0  0  0  0  0  0  0  0
   58.0032   27.7083   43.4668 H   0  0  0  0  0  0  0  0  0  0  0  0
   60.0130   26.5556   44.3830 H   0  0  0  0  0  0  0  0  0  0  0  0
   61.1472   27.4450   46.4170 H   0  0  0  0  0  0  0  0  0  0  0  0
   60.2784   29.4922   47.5385 H   0  0  0  0  0  0  0  0  0  0  0  0
   57.4880   31.5720   46.2990 H   0  0  0  0  0  0  0  0  0  0  0  0
   61.5375   30.6133   48.7777 H   0  0  0  0  0  0  0  0  0  0  0  0
   63.8266   31.3785   48.1867 H   0  0  0  0  0  0  0  0  0  0  0  0
   64.1434   33.4287   46.8112 H   0  0  0  0  0  0  0  0  0  0  0  0
   62.1750   34.7333   46.0405 H   0  0  0  0  0  0  0  0  0  0  0  0
  1  2  1  0
  2  3  2  0
  2  4  2  0
  2  5  1  0
  5  6  2  0
  6  7  1  0
  7  8  2  0
  8  9  1  0
  9 10  2  0
 10 11  1  0
 11 12  1  0
 12 13  2  0
 12 14  2  0
 12 15  1  0
 15 16  2  0
 16 17  1  0
 17 18  2  0
 18 19  1  0
 19 20  2  0
 20 21  1  0
 21 22  1  0
 21 23  1  0
 21 24  1  0
 10  5  1  0
 20 15  1  0
  1 25  1  0
  6 26  1  0
  7 27  1  0
  8 28  1  0
  9 29  1  0
 11 30  1  0
 16 31  1  0
 17 32  1  0
 18 33  1  0
 19 34  1  0
M  CHG  1   1  -1
M  END
>  <UniqueID>  (48) 
42

>  <SMILES>  (48) 
[NH-]S(=O)(=O)c1ccccc1NS(=O)(=O)c1ccccc1C(F)(F)F

>  <Energy>  (48) 
47.70414476671021

>  <Genealogy>  (48) 
[NH-]S(=O)(=O)c1ccccc1NS(=O)(=O)c1ccccc1C(F)(F)F (protonated)
[NH-]S(=O)(=O)c1ccccc1NS(=O)(=O)c1ccccc1C(F)(F)F (3D coordinates assigned)
[NH-]S(=O)(=O)c1ccccc1NS(=O)(=O)c1ccccc1C(F)(F)F (optimized conformer: 47.70414476671021 kcal/mol)

>  <smiles>  (48) 
NS(=O)(=O)c1ccccc1NS(=O)(=O)c1ccccc1C(F)(F)F

>  <score_type>  (48) 
oracle

>  <origin>  (48) 
adg

>  <m_score__min__energy>  (48) 
-10.92

>  <m_primary>  (48) 
energy

$$$$
48:0
     RDKit          3D

 33 35  0  0  0  0  0  0  0  0999 V2000
   58.9650   35.2720   47.4900 O   0  0  0  0  0  0  0  0  0  0  0  0
   59.6240   34.2910   47.0500 C   0  0  0  0  0  0  0  0  0  0  0  0
   59.0110   33.4090   46.0400 C   0  0  0  0  0  0  0  0  0  0  0  0
   58.8500   33.7300   44.6920 C   0  0  0  0  0  0  0  0  0  0  0  0
   58.2080   32.6430   44.1420 C   0  0  0  0  0  0  0  0  0  0  0  0
   57.7880   32.4040   42.8350 C   0  0  0  0  0  0  0  0  0  0  0  0
   57.1360   31.1850   42.5690 C   0  0  0  0  0  0  0  0  0  0  0  0
   56.9210   30.2480   43.6040 C   0  0  0  0  0  0  0  0  0  0  0  0
   57.3550   30.5200   44.9140 C   0  0  0  0  0  0  0  0  0  0  0  0
   58.0000   31.7340   45.1460 C   0  0  0  0  0  0  0  0  0  0  0  0
   58.4830   32.1910   46.3140 N   0  0  0  0  0  0  0  0  0  0  0  0
   60.9450   34.0370   47.5600 N   0  0  0  0  0  0  0  0  0  0  0  0
   61.2010   34.2440   48.9920 C   0  0  0  0  0  0  0  0  0  0  0  0
   62.6480   33.8950   49.3660 C   0  0  0  0  0  0  0  0  0  0  0  0
   63.0750   32.6000   48.6700 C   0  0  0  0  0  0  0  0  0  0  0  0
   62.9990   32.7090   47.1330 C   0  0  0  0  0  0  0  0  0  0  0  0
   62.0700   33.8320   46.6370 C   0  0  0  0  0  0  0  0  0  0  0  0
   59.1668   34.6506   44.1801 H   0  0  0  0  0  0  0  0  0  0  0  0
   57.9600   33.1427   42.0383 H   0  0  0  0  0  0  0  0  0  0  0  0
   56.7918   30.9607   41.5486 H   0  0  0  0  0  0  0  0  0  0  0  0
   56.4105   29.2988   43.3839 H   0  0  0  0  0  0  0  0  0  0  0  0
   57.1910   29.7989   45.7283 H   0  0  0  0  0  0  0  0  0  0  0  0
   58.4300   31.7140   47.2400 H   0  0  0  0  0  0  0  0  0  0  0  0
   61.0136   35.2995   49.2387 H   0  0  0  0  0  0  0  0  0  0  0  0
   60.5308   33.5816   49.5595 H   0  0  0  0  0  0  0  0  0  0  0  0
   63.3124   34.7132   49.0510 H   0  0  0  0  0  0  0  0  0  0  0  0
   62.7143   33.7564   50.4552 H   0  0  0  0  0  0  0  0  0  0  0  0
   64.1113   32.3690   48.9575 H   0  0  0  0  0  0  0  0  0  0  0  0
   62.3838   31.8046   48.9856 H   0  0  0  0  0  0  0  0  0  0  0  0
   64.0115   32.9005   46.7480 H   0  0  0  0  0  0  0  0  0  0  0  0
   62.5819   31.7604   46.7639 H   0  0  0  0  0  0  0  0  0  0  0  0
   62.6457   34.7661   46.5598 H   0  0  0  0  0  0  0  0  0  0  0  0
   61.6670   33.5428   45.6552 H   0  0  0  0  0  0  0  0  0  0  0  0
  1  2  2  0
  2  3  1  0
  3  4  2  0
  4  5  1  0
  5  6  2  0
  6  7  1  0
  7  8  2  0
  8  9  1  0
  9 10  2  0
 10 11  1  0
  2 12  1  0
 12 13  1  0
 13 14  1  0
 14 15  1  0
 15 16  1  0
 16 17  1  0
 11  3  1  0
 17 12  1  0
 10  5  1  0
  4 18  1  0
  6 19  1  0
  7 20  1  0
  8 21  1  0
  9 22  1  0
 11 23  1  0
 13 24  1  0
 13 25  1  0
 14 26  1  0
 14 27  1  0
 15 28  1  0
 15 29  1  0
 16 30  1  0
 16 31  1  0
 17 32  1  0
 17 33  1  0
M  END
>  <UniqueID>  (49) 
43

>  <SMILES>  (49) 
O=C(c1cc2ccccc2[nH]1)N1CCCCC1

>  <Energy>  (49) 
70.47486400825242

>  <Genealogy>  (49) 
O=C(c1cc2ccccc2[nH]1)N1CCCCC1 (3D coordinates assigned)
O=C(c1cc2ccccc2[nH]1)N1CCCCC1 (nonaromatic ring conformer: 70.47486400825242 kcal/mol)

>  <smiles>  (49) 
O=C(c1cc2ccccc2[nH]1)N1CCCCC1

>  <score_type>  (49) 
oracle

>  <origin>  (49) 
adg

>  <m_score__min__energy>  (49) 
-6.75

>  <m_primary>  (49) 
energy

$$$$
49:0
     RDKit          3D

 47 50  0  0  0  0  0  0  0  0999 V2000
   60.7840   26.3900   46.3910 C   0  0  0  0  0  0  0  0  0  0  0  0
   59.1180   27.1020   46.2340 S   0  0  0  0  0  0  0  0  0  0  0  0
   59.6460   28.7320   46.7690 C   0  0  0  0  0  0  0  0  0  0  0  0
   60.4870   28.9290   47.8040 N   0  0  0  0  0  0  0  0  0  0  0  0
   60.5820   30.2410   47.9560 N   0  0  0  0  0  0  0  0  0  0  0  0
   59.8110   30.8290   47.0230 C   0  0  0  0  0  0  0  0  0  0  0  0
   59.6570   32.2930   46.8930 C   0  0  0  0  0  0  0  0  0  0  0  0
   58.3570   32.8240   46.9300 C   0  0  0  0  0  0  0  0  0  0  0  0
   58.1440   34.1920   46.7570 C   0  0  0  0  0  0  0  0  0  0  0  0
   59.2260   35.0470   46.5490 C   0  0  0  0  0  0  0  0  0  0  0  0
   60.5250   34.5390   46.5340 C   0  0  0  0  0  0  0  0  0  0  0  0
   60.7630   33.1670   46.7320 C   0  0  0  0  0  0  0  0  0  0  0  0
   62.1970   32.6840   46.7710 C   0  0  0  0  0  0  0  0  0  0  0  0
   62.4930   32.0690   48.0260 O   0  0  0  0  0  0  0  0  0  0  0  0
   63.1820   32.6830   49.0840 C   0  0  0  0  0  0  0  0  0  0  0  0
   62.5920   33.6610   49.9110 C   0  0  0  0  0  0  0  0  0  0  0  0
   63.3270   34.2430   50.9480 C   0  0  0  0  0  0  0  0  0  0  0  0
   64.6510   33.8560   51.1710 C   0  0  0  0  0  0  0  0  0  0  0  0
   65.2410   32.8850   50.3590 C   0  0  0  0  0  0  0  0  0  0  0  0
   64.5090   32.3020   49.3210 C   0  0  0  0  0  0  0  0  0  0  0  0
   59.1990   29.9000   46.2560 N   0  0  0  0  0  0  0  0  0  0  0  0
   58.2190   30.0970   45.2210 C   0  0  0  0  0  0  0  0  0  0  0  0
   58.4560   31.0150   44.1860 C   0  0  0  0  0  0  0  0  0  0  0  0
   57.4960   31.2200   43.1910 C   0  0  0  0  0  0  0  0  0  0  0  0
   56.2910   30.5110   43.2240 C   0  0  0  0  0  0  0  0  0  0  0  0
   56.0480   29.5950   44.2510 C   0  0  0  0  0  0  0  0  0  0  0  0
   57.0070   29.3870   45.2470 C   0  0  0  0  0  0  0  0  0  0  0  0
   61.0376   26.2816   47.4559 H   0  0  0  0  0  0  0  0  0  0  0  0
   60.8081   25.4030   45.9060 H   0  0  0  0  0  0  0  0  0  0  0  0
   61.5140   27.0547   45.9060 H   0  0  0  0  0  0  0  0  0  0  0  0
   61.1660   30.7140   48.6800 H   0  0  0  0  0  0  0  0  0  0  0  0
   57.4995   32.1555   47.0968 H   0  0  0  0  0  0  0  0  0  0  0  0
   57.1215   34.5966   46.7847 H   0  0  0  0  0  0  0  0  0  0  0  0
   59.0549   36.1229   46.3966 H   0  0  0  0  0  0  0  0  0  0  0  0
   61.3729   35.2192   46.3654 H   0  0  0  0  0  0  0  0  0  0  0  0
   62.3525   31.9515   45.9652 H   0  0  0  0  0  0  0  0  0  0  0  0
   62.8633   33.5489   46.6372 H   0  0  0  0  0  0  0  0  0  0  0  0
   61.5495   33.9671   49.7395 H   0  0  0  0  0  0  0  0  0  0  0  0
   62.8625   35.0066   51.5892 H   0  0  0  0  0  0  0  0  0  0  0  0
   65.2286   34.3162   51.9862 H   0  0  0  0  0  0  0  0  0  0  0  0
   66.2825   32.5789   50.5365 H   0  0  0  0  0  0  0  0  0  0  0  0
   64.9788   31.5375   48.6848 H   0  0  0  0  0  0  0  0  0  0  0  0
   59.4019   31.5758   44.1578 H   0  0  0  0  0  0  0  0  0  0  0  0
   57.6884   31.9395   42.3815 H   0  0  0  0  0  0  0  0  0  0  0  0
   55.5349   30.6743   42.4419 H   0  0  0  0  0  0  0  0  0  0  0  0
   55.1006   29.0366   44.2759 H   0  0  0  0  0  0  0  0  0  0  0  0
   56.8118   28.6650   46.0536 H   0  0  0  0  0  0  0  0  0  0  0  0
  1  2  1  0
  2  3  1  0
  3  4  2  0
  4  5  1  0
  5  6  2  0
  6  7  1  0
  7  8  2  0
  8  9  1  0
  9 10  2  0
 10 11  1  0
 11 12  2  0
 12 13  1  0
 13 14  1  0
 14 15  1  0
 15 16  2  0
 16 17  1  0
 17 18  2  0
 18 19  1  0
 19 20  2  0
  6 21  1  0
 21 22  1  0
 22 23  2  0
 23 24  1  0
 24 25  2  0
 25 26  1  0
 26 27  2  0
 21  3  1  0
 27 22  1  0
 12  7  1  0
 20 15  1  0
  1 28  1  0
  1 29  1  0
  1 30  1  0
  5 31  1  0
  8 32  1  0
  9 33  1  0
 10 34  1  0
 11 35  1  0
 13 36  1  0
 13 37  1  0
 16 38  1  0
 17 39  1  0
 18 40  1  0
 19 41  1  0
 20 42  1  0
 23 43  1  0
 24 44  1  0
 25 45  1  0
 26 46  1  0
 27 47  1  0
M  CHG  1   5   1
M  END
>  <UniqueID>  (50) 
44

>  <SMILES>  (50) 
CSc1n[nH+]c(-c2ccccc2COc2ccccc2)n1-c1ccccc1

>  <Energy>  (50) 
93.54506405502212

>  <Genealogy>  (50) 
CSc1n[nH+]c(-c2ccccc2COc2ccccc2)n1-c1ccccc1 (protonated)
CSc1n[nH+]c(-c2ccccc2COc2ccccc2)n1-c1ccccc1 (3D coordinates assigned)
CSc1n[nH+]c(-c2ccccc2COc2ccccc2)n1-c1ccccc1 (optimized conformer: 93.54506405502212 kcal/mol)

>  <smiles>  (50) 
CSc1nnc(-c2ccccc2COc2ccccc2)n1-c1ccccc1

>  <score_type>  (50) 
oracle

>  <origin>  (50) 
adg

>  <m_score__min__energy>  (50) 
-6.2300000000000004

>  <m_primary>  (50) 
energy

$$$$
50:0
     RDKit          3D

 33 34  0  0  0  0  0  0  0  0999 V2000
   55.5210   25.2300   45.6110 C   0  0  0  0  0  0  0  0  0  0  0  0
   55.4430   26.6440   45.7620 O   0  0  0  0  0  0  0  0  0  0  0  0
   56.5340   27.5160   45.6260 C   0  0  0  0  0  0  0  0  0  0  0  0
   57.8170   27.0240   45.8840 C   0  0  0  0  0  0  0  0  0  0  0  0
   58.9310   27.8580   45.7710 C   0  0  0  0  0  0  0  0  0  0  0  0
   58.7730   29.1960   45.4020 C   0  0  0  0  0  0  0  0  0  0  0  0
   57.4890   29.7110   45.1440 C   0  0  0  0  0  0  0  0  0  0  0  0
   57.2650   31.0510   44.7880 O   0  0  0  0  0  0  0  0  0  0  0  0
   57.5820   31.6420   43.5280 C   0  0  0  0  0  0  0  0  0  0  0  0
   58.0640   33.0920   43.6840 C   0  0  0  0  0  0  0  0  0  0  0  0
   57.3670   33.8350   44.8330 C   0  0  0  0  0  0  0  0  0  0  0  0
   58.2590   34.0120   45.9780 N   0  0  0  0  0  0  0  0  0  0  0  0
   59.3770   34.7540   46.0280 C   0  0  0  0  0  0  0  0  0  0  0  0
   59.9100   34.6310   47.2920 C   0  0  0  0  0  0  0  0  0  0  0  0
   59.1330   33.8130   48.0330 N   0  0  0  0  0  0  0  0  0  0  0  0
   58.1360   33.4520   47.1980 C   0  0  0  0  0  0  0  0  0  0  0  0
   56.3780   28.8630   45.2440 C   0  0  0  0  0  0  0  0  0  0  0  0
   55.5471   24.7562   46.6034 H   0  0  0  0  0  0  0  0  0  0  0  0
   54.6413   24.8714   45.0565 H   0  0  0  0  0  0  0  0  0  0  0  0
   56.4348   24.9703   45.0565 H   0  0  0  0  0  0  0  0  0  0  0  0
   57.9497   25.9724   46.1781 H   0  0  0  0  0  0  0  0  0  0  0  0
   59.9364   27.4602   45.9732 H   0  0  0  0  0  0  0  0  0  0  0  0
   59.6541   29.8485   45.3129 H   0  0  0  0  0  0  0  0  0  0  0  0
   58.3767   31.0522   43.0478 H   0  0  0  0  0  0  0  0  0  0  0  0
   56.6693   31.6489   42.9140 H   0  0  0  0  0  0  0  0  0  0  0  0
   59.1467   33.0826   43.8782 H   0  0  0  0  0  0  0  0  0  0  0  0
   57.8189   33.6226   42.7521 H   0  0  0  0  0  0  0  0  0  0  0  0
   57.0446   34.8240   44.4752 H   0  0  0  0  0  0  0  0  0  0  0  0
   56.5043   33.2349   45.1580 H   0  0  0  0  0  0  0  0  0  0  0  0
   59.7934   35.3538   45.2053 H   0  0  0  0  0  0  0  0  0  0  0  0
   60.8283   35.1239   47.6438 H   0  0  0  0  0  0  0  0  0  0  0  0
   57.3152   32.7766   47.4812 H   0  0  0  0  0  0  0  0  0  0  0  0
   55.3737   29.2531   45.0220 H   0  0  0  0  0  0  0  0  0  0  0  0
  1  2  1  0
  2  3  1  0
  3  4  2  0
  4  5  1  0
  5  6  2  0
  6  7  1  0
  7  8  1  0
  8  9  1  0
  9 10  1  0
 10 11  1  0
 11 12  1  0
 12 13  1  0
 13 14  2  0
 14 15  1  0
 15 16  2  0
  7 17  2  0
 17  3  1  0
 16 12  1  0
  1 18  1  0
  1 19  1  0
  1 20  1  0
  4 21  1  0
  5 22  1  0
  6 23  1  0
  9 24  1  0
  9 25  1  0
 10 26  1  0
 10 27  1  0
 11 28  1  0
 11 29  1  0
 13 30  1  0
 14 31  1  0
 16 32  1  0
 17 33  1  0
M  END
>  <UniqueID>  (51) 
45

>  <SMILES>  (51) 
COc1cccc(OCCCn2ccnc2)c1

>  <Energy>  (51) 
55.43973297146825

>  <Genealogy>  (51) 
COc1cccc(OCCCn2ccnc2)c1 (3D coordinates assigned)
COc1cccc(OCCCn2ccnc2)c1 (optimized conformer: 55.43973297146825 kcal/mol)

>  <smiles>  (51) 
COc1cccc(OCCCn2ccnc2)c1

>  <score_type>  (51) 
oracle

>  <origin>  (51) 
adg

>  <m_score__min__energy>  (51) 
-5.3700000000000001

>  <m_primary>  (51) 
energy

$$$$
51:0
     RDKit          3D

 34 36  0  0  0  0  0  0  0  0999 V2000
   55.5120   25.2970   45.9660 C   0  0  0  0  0  0  0  0  0  0  0  0
   55.6110   26.7090   46.1250 O   0  0  0  0  0  0  0  0  0  0  0  0
   56.6610   27.4900   45.6200 C   0  0  0  0  0  0  0  0  0  0  0  0
   58.0150   27.1710   45.8430 C   0  0  0  0  0  0  0  0  0  0  0  0
   59.0250   27.9850   45.3200 C   0  0  0  0  0  0  0  0  0  0  0  0
   58.6960   29.1180   44.5720 C   0  0  0  0  0  0  0  0  0  0  0  0
   57.3540   29.4420   44.3470 C   0  0  0  0  0  0  0  0  0  0  0  0
   56.9310   30.9010   43.3960 S   0  0  0  0  0  0  0  0  0  0  0  0
   57.6840   31.9970   44.5930 C   0  0  0  0  0  0  0  0  0  0  0  0
   57.7280   31.7200   45.9220 N   0  0  0  0  0  0  0  0  0  0  0  0
   58.3510   32.8010   46.4250 C   0  0  0  0  0  0  0  0  0  0  0  0
   58.6630   33.0600   47.7570 C   0  0  0  0  0  0  0  0  0  0  0  0
   59.3240   34.2790   48.0580 C   0  0  0  0  0  0  0  0  0  0  0  0
   59.6800   34.6300   49.3680 O   0  0  0  0  0  0  0  0  0  0  0  0
   59.7100   33.7200   50.4630 C   0  0  0  0  0  0  0  0  0  0  0  0
   59.6390   35.1810   47.0130 C   0  0  0  0  0  0  0  0  0  0  0  0
   59.3070   34.8840   45.6780 C   0  0  0  0  0  0  0  0  0  0  0  0
   58.6610   33.6770   45.4290 C   0  0  0  0  0  0  0  0  0  0  0  0
   58.2460   33.1830   44.2580 N   0  0  0  0  0  0  0  0  0  0  0  0
   56.3420   28.6280   44.8680 C   0  0  0  0  0  0  0  0  0  0  0  0
   55.4784   24.8180   46.9557 H   0  0  0  0  0  0  0  0  0  0  0  0
   54.5946   25.0541   45.4098 H   0  0  0  0  0  0  0  0  0  0  0  0
   56.3865   24.9284   45.4098 H   0  0  0  0  0  0  0  0  0  0  0  0
   58.2787   26.2790   46.4302 H   0  0  0  0  0  0  0  0  0  0  0  0
   60.0807   27.7325   45.4981 H   0  0  0  0  0  0  0  0  0  0  0  0
   59.4922   29.7553   44.1600 H   0  0  0  0  0  0  0  0  0  0  0  0
   58.4054   32.3429   48.5503 H   0  0  0  0  0  0  0  0  0  0  0  0
   59.6914   34.2827   51.4080 H   0  0  0  0  0  0  0  0  0  0  0  0
   58.8332   33.0576   50.4134 H   0  0  0  0  0  0  0  0  0  0  0  0
   60.6285   33.1168   50.4134 H   0  0  0  0  0  0  0  0  0  0  0  0
   60.1500   36.1264   47.2477 H   0  0  0  0  0  0  0  0  0  0  0  0
   59.5492   35.5803   44.8616 H   0  0  0  0  0  0  0  0  0  0  0  0
   58.3270   33.6130   43.3100 H   0  0  0  0  0  0  0  0  0  0  0  0
   55.2878   28.8837   44.6856 H   0  0  0  0  0  0  0  0  0  0  0  0
  1  2  1  0
  2  3  1  0
  3  4  2  0
  4  5  1  0
  5  6  2  0
  6  7  1  0
  7  8  1  0
  8  9  1  0
  9 10  2  0
 10 11  1  0
 11 12  2  0
 12 13  1  0
 13 14  1  0
 14 15  1  0
 13 16  2  0
 16 17  1  0
 17 18  2  0
 18 19  1  0
  7 20  2  0
 20  3  1  0
 19  9  1  0
 18 11  1  0
  1 21  1  0
  1 22  1  0
  1 23  1  0
  4 24  1  0
  5 25  1  0
  6 26  1  0
 12 27  1  0
 15 28  1  0
 15 29  1  0
 15 30  1  0
 16 31  1  0
 17 32  1  0
 19 33  1  0
 20 34  1  0
M  END
>  <UniqueID>  (52) 
46

>  <SMILES>  (52) 
COc1cccc(Sc2nc3cc(OC)ccc3[nH]2)c1

>  <Energy>  (52) 
66.81229254227762

>  <Genealogy>  (52) 
COc1cccc(Sc2nc3cc(OC)ccc3[nH]2)c1 (3D coordinates assigned)
COc1cccc(Sc2nc3cc(OC)ccc3[nH]2)c1 (optimized conformer: 66.81229254227762 kcal/mol)

>  <smiles>  (52) 
COc1cccc(Sc2nc3cc(OC)ccc3[nH]2)c1

>  <score_type>  (52) 
oracle

>  <origin>  (52) 
adg

>  <m_score__min__energy>  (52) 
-6.9199999999999999

>  <m_primary>  (52) 
energy

$$$$
52:0
     RDKit          3D

 53 57  0  0  0  0  0  0  0  0999 V2000
   56.7910   30.6130   43.5850 C   0  0  0  0  0  0  0  0  0  0  0  0
   56.7810   31.2280   44.8690 O   0  0  0  0  0  0  0  0  0  0  0  0
   57.6420   32.2650   45.2580 C   0  0  0  0  0  0  0  0  0  0  0  0
   57.3780   33.6180   44.9600 C   0  0  0  0  0  0  0  0  0  0  0  0
   58.2710   34.6170   45.3620 C   0  0  0  0  0  0  0  0  0  0  0  0
   59.4280   34.2830   46.0730 C   0  0  0  0  0  0  0  0  0  0  0  0
   59.6880   32.9480   46.3850 C   0  0  0  0  0  0  0  0  0  0  0  0
   58.8110   31.9390   45.9600 C   0  0  0  0  0  0  0  0  0  0  0  0
   59.1230   30.6070   46.2480 O   0  0  0  0  0  0  0  0  0  0  0  0
   60.4250   30.2290   46.7060 C   0  0  2  0  0  0  0  0  0  0  0  0
   60.3500   28.8380   47.3520 C   0  0  0  0  0  0  0  0  0  0  0  0
   59.0820   28.1620   46.9940 N   0  0  0  0  0  0  0  0  0  0  0  0
   58.8090   28.2010   45.5520 C   0  0  1  0  0  0  0  0  0  0  0  0
   59.6510   27.0830   44.9230 C   0  0  0  0  0  0  0  0  0  0  0  0
   59.8270   26.0750   46.0450 C   0  0  0  0  0  0  0  0  0  0  0  0
   59.1140   26.7140   47.2470 C   0  0  2  0  0  0  0  0  0  0  0  0
   57.6500   26.2200   47.3420 C   0  0  0  0  0  0  0  0  0  0  0  0
   56.6580   27.0630   46.4760 C   0  0  2  0  0  0  0  0  0  0  0  0
   55.5580   26.2370   45.9630 N   0  0  0  0  0  0  0  0  0  0  0  0
   55.6170   24.9740   45.6510 C   0  0  0  0  0  0  0  0  0  0  0  0
   56.4550   24.5730   44.6580 N   0  0  0  0  0  0  0  0  0  0  0  0
   56.5470   23.2650   44.3030 C   0  0  0  0  0  0  0  0  0  0  0  0
   55.7720   22.3100   44.9600 C   0  0  0  0  0  0  0  0  0  0  0  0
   54.9170   22.7340   45.9760 C   0  0  0  0  0  0  0  0  0  0  0  0
   54.8550   24.0510   46.3020 N   0  0  0  0  0  0  0  0  0  0  0  0
   57.2960   27.9350   45.3450 C   0  0  0  0  0  0  0  0  0  0  0  0
   60.9600   31.2900   47.6890 C   0  0  0  0  0  0  0  0  0  0  0  0
   60.8220   32.5970   47.1240 O   0  0  0  0  0  0  0  0  0  0  0  0
   56.8088   29.5194   43.7024 H   0  0  0  0  0  0  0  0  0  0  0  0
   55.8879   30.9076   43.0303 H   0  0  0  0  0  0  0  0  0  0  0  0
   57.6840   30.9368   43.0303 H   0  0  0  0  0  0  0  0  0  0  0  0
   56.4655   33.8891   44.4088 H   0  0  0  0  0  0  0  0  0  0  0  0
   58.0623   35.6691   45.1179 H   0  0  0  0  0  0  0  0  0  0  0  0
   60.1305   35.0698   46.3852 H   0  0  0  0  0  0  0  0  0  0  0  0
   61.1261   30.1760   45.8601 H   0  0  0  0  0  0  0  0  0  0  0  0
   61.1957   28.2298   46.9987 H   0  0  0  0  0  0  0  0  0  0  0  0
   60.3929   28.9531   48.4451 H   0  0  0  0  0  0  0  0  0  0  0  0
   59.0611   29.1688   45.0938 H   0  0  0  0  0  0  0  0  0  0  0  0
   60.6253   27.4691   44.5887 H   0  0  0  0  0  0  0  0  0  0  0  0
   59.1742   26.6453   44.0336 H   0  0  0  0  0  0  0  0  0  0  0  0
   60.8936   25.9178   46.2634 H   0  0  0  0  0  0  0  0  0  0  0  0
   59.4160   25.0871   45.7899 H   0  0  0  0  0  0  0  0  0  0  0  0
   59.6389   26.4535   48.1779 H   0  0  0  0  0  0  0  0  0  0  0  0
   57.3301   26.2748   48.3930 H   0  0  0  0  0  0  0  0  0  0  0  0
   57.6269   25.1902   46.9561 H   0  0  0  0  0  0  0  0  0  0  0  0
   56.2584   27.8050   47.1830 H   0  0  0  0  0  0  0  0  0  0  0  0
   57.2320   22.9596   43.4983 H   0  0  0  0  0  0  0  0  0  0  0  0
   55.8339   21.2472   44.6831 H   0  0  0  0  0  0  0  0  0  0  0  0
   54.2938   22.0035   46.5126 H   0  0  0  0  0  0  0  0  0  0  0  0
   56.7731   28.9022   45.3136 H   0  0  0  0  0  0  0  0  0  0  0  0
   57.1906   27.3745   44.4044 H   0  0  0  0  0  0  0  0  0  0  0  0
   60.3890   31.2372   48.6277 H   0  0  0  0  0  0  0  0  0  0  0  0
   62.0241   31.0936   47.8869 H   0  0  0  0  0  0  0  0  0  0  0  0
  1  2  1  0
  2  3  1  0
  3  4  2  0
  4  5  1  0
  5  6  2  0
  6  7  1  0
  7  8  2  0
  8  9  1  0
  9 10  1  0
 10 11  1  0
 11 12  1  0
 12 13  1  0
 13 14  1  0
 14 15  1  0
 15 16  1  0
 16 17  1  0
 17 18  1  0
 18 19  1  0
 19 20  2  3
 20 21  1  0
 21 22  2  0
 22 23  1  0
 23 24  2  0
 24 25  1  0
 18 26  1  0
 10 27  1  0
 27 28  1  0
  8  3  1  0
 16 12  1  0
 25 20  1  0
 28  7  1  0
 26 13  1  0
  1 29  1  0
  1 30  1  0
  1 31  1  0
  4 32  1  0
  5 33  1  0
  6 34  1  0
 10 35  1  6
 11 36  1  0
 11 37  1  0
 13 38  1  6
 14 39  1  0
 14 40  1  0
 15 41  1  0
 15 42  1  0
 16 43  1  1
 17 44  1  0
 17 45  1  0
 18 46  1  1
 22 47  1  0
 23 48  1  0
 24 49  1  0
 26 50  1  0
 26 51  1  0
 27 52  1  0
 27 53  1  0
M  CHG  1  25  -1
M  END
>  <UniqueID>  (53) 
47

>  <SMILES>  (53) 
COc1cccc2c1O[C@H](CN1C3CC[C@H]1CC(N=c1nccc[n-]1)C3)CO2

>  <Energy>  (53) 
75.61359616311283

>  <Genealogy>  (53) 
COc1cccc2c1OC(CN1C3CCC1CC(N=c1nccc[n-]1)C3)CO2 (protonated)
COc1cccc2c1O[C@H](CN1C3CC[C@H]1CC(N=c1nccc[n-]1)C3)CO2 (chirality)
COc1cccc2c1O[C@H](CN1C3CC[C@H]1CC(N=c1nccc[n-]1)C3)CO2 (3D coordinates assigned)
COc1cccc2c1O[C@H](CN1C3CC[C@H]1CC(N=c1nccc[n-]1)C3)CO2 (nonaromatic ring conformer: 75.61359616311283 kcal/mol)

>  <smiles>  (53) 
COc1cccc2c1OC(CN1C3CCC1CC(N=c1nccc[nH]1)C3)CO2

>  <score_type>  (53) 
oracle

>  <origin>  (53) 
adg

>  <m_score__min__energy>  (53) 
-9.25

>  <m_primary>  (53) 
energy

$$$$
53:0
     RDKit          3D

 29 30  0  0  0  0  0  0  0  0999 V2000
   56.1900   25.9950   45.9980 C   0  0  0  0  0  0  0  0  0  0  0  0
   56.3640   27.4010   45.8540 O   0  0  0  0  0  0  0  0  0  0  0  0
   57.5900   28.0720   45.9970 C   0  0  0  0  0  0  0  0  0  0  0  0
   58.6590   27.5160   46.7280 C   0  0  0  0  0  0  0  0  0  0  0  0
   59.8670   28.2080   46.8500 C   0  0  0  0  0  0  0  0  0  0  0  0
   60.0210   29.4580   46.2490 C   0  0  0  0  0  0  0  0  0  0  0  0
   61.1940   30.1280   46.3690 F   0  0  0  0  0  0  0  0  0  0  0  0
   58.9690   30.0190   45.5210 C   0  0  0  0  0  0  0  0  0  0  0  0
   57.7520   29.3330   45.3910 C   0  0  0  0  0  0  0  0  0  0  0  0
   56.4270   30.0510   44.4710 S   0  0  0  0  0  0  0  0  0  0  0  0
   55.1490   29.3410   44.8190 O   0  0  0  0  0  0  0  0  0  0  0  0
   56.7160   29.9030   43.0030 O   0  0  0  0  0  0  0  0  0  0  0  0
   56.2700   31.7340   44.8560 N   0  0  0  0  0  0  0  0  0  0  0  0
   57.3580   32.6160   45.1610 C   0  0  0  0  0  0  0  0  0  0  0  0
   57.6510   33.0270   46.4720 C   0  0  0  0  0  0  0  0  0  0  0  0
   58.7240   33.8880   46.7090 C   0  0  0  0  0  0  0  0  0  0  0  0
   59.4970   34.3310   45.6340 C   0  0  0  0  0  0  0  0  0  0  0  0
   59.2020   33.9240   44.3710 N   0  0  0  0  0  0  0  0  0  0  0  0
   58.1620   33.0860   44.1150 C   0  0  0  0  0  0  0  0  0  0  0  0
   56.1581   25.7371   47.0669 H   0  0  0  0  0  0  0  0  0  0  0  0
   55.2474   25.6912   45.5192 H   0  0  0  0  0  0  0  0  0  0  0  0
   57.0301   25.4706   45.5192 H   0  0  0  0  0  0  0  0  0  0  0  0
   58.5419   26.5318   47.2052 H   0  0  0  0  0  0  0  0  0  0  0  0
   60.6976   27.7668   47.4205 H   0  0  0  0  0  0  0  0  0  0  0  0
   59.0954   31.0037   45.0472 H   0  0  0  0  0  0  0  0  0  0  0  0
   57.0354   32.6707   47.3111 H   0  0  0  0  0  0  0  0  0  0  0  0
   58.9583   34.2143   47.7330 H   0  0  0  0  0  0  0  0  0  0  0  0
   60.3449   35.0095   45.8091 H   0  0  0  0  0  0  0  0  0  0  0  0
   57.9512   32.7757   43.0810 H   0  0  0  0  0  0  0  0  0  0  0  0
  1  2  1  0
  2  3  1  0
  3  4  2  0
  4  5  1  0
  5  6  2  0
  6  7  1  0
  6  8  1  0
  8  9  2  0
  9 10  1  0
 10 11  2  0
 10 12  2  0
 10 13  1  0
 13 14  1  0
 14 15  2  0
 15 16  1  0
 16 17  2  0
 17 18  1  0
 18 19  2  0
  9  3  1  0
 19 14  1  0
  1 20  1  0
  1 21  1  0
  1 22  1  0
  4 23  1  0
  5 24  1  0
  8 25  1  0
 15 26  1  0
 16 27  1  0
 17 28  1  0
 19 29  1  0
M  CHG  1  13  -1
M  END
>  <UniqueID>  (54) 
48

>  <SMILES>  (54) 
COc1ccc(F)cc1S(=O)(=O)[N-]c1cccnc1

>  <Energy>  (54) 
34.66742087222339

>  <Genealogy>  (54) 
COc1ccc(F)cc1S(=O)(=O)[N-]c1cccnc1 (protonated)
COc1ccc(F)cc1S(=O)(=O)[N-]c1cccnc1 (3D coordinates assigned)
COc1ccc(F)cc1S(=O)(=O)[N-]c1cccnc1 (optimized conformer: 34.66742087222339 kcal/mol)

>  <smiles>  (54) 
COc1ccc(F)cc1S(=O)(=O)Nc1cccnc1

>  <score_type>  (54) 
oracle

>  <origin>  (54) 
adg

>  <m_score__min__energy>  (54) 
-8.0299999999999994

>  <m_primary>  (54) 
energy

$$$$
54:0
     RDKit          3D

 36 37  0  0  0  0  0  0  0  0999 V2000
   63.3070   33.8310   47.8060 O   0  0  0  0  0  0  0  0  0  0  0  0
   62.2060   33.7610   48.4120 C   0  0  0  0  0  0  0  0  0  0  0  0
   60.9280   33.7790   47.6760 C   0  0  0  0  0  0  0  0  0  0  0  0
   60.8660   34.2130   46.3410 C   0  0  0  0  0  0  0  0  0  0  0  0
   59.6460   34.2230   45.6570 C   0  0  0  0  0  0  0  0  0  0  0  0
   58.4710   33.8020   46.3000 C   0  0  0  0  0  0  0  0  0  0  0  0
   57.1580   33.7910   45.5660 C   0  0  0  0  0  0  0  0  0  0  0  0
   56.8850   32.4560   45.0390 N   0  0  0  0  0  0  0  0  0  0  0  0
   57.4420   31.9850   43.8040 C   0  0  0  0  0  0  0  0  0  0  0  0
   58.1680   32.7420   43.1040 O   0  0  0  0  0  0  0  0  0  0  0  0
   57.1230   30.6070   43.3130 C   0  0  0  0  0  0  0  0  0  0  0  0
   57.6400   29.5800   44.2820 C   0  0  0  0  0  0  0  0  0  0  0  0
   59.0070   29.5330   44.5960 C   0  0  0  0  0  0  0  0  0  0  0  0
   59.4940   28.5590   45.4690 C   0  0  0  0  0  0  0  0  0  0  0  0
   58.6250   27.6190   46.0290 C   0  0  0  0  0  0  0  0  0  0  0  0
   57.2530   27.6410   45.7170 C   0  0  0  0  0  0  0  0  0  0  0  0
   56.3560   26.6700   46.2860 N   0  0  0  0  0  0  0  0  0  0  0  0
   55.1410   26.6800   45.9960 O   0  0  0  0  0  0  0  0  0  0  0  0
   56.8220   25.7100   47.1530 O   0  0  0  0  0  0  0  0  0  0  0  0
   56.7710   28.6270   44.8370 C   0  0  0  0  0  0  0  0  0  0  0  0
   58.5340   33.3640   47.6310 C   0  0  0  0  0  0  0  0  0  0  0  0
   59.7540   33.3550   48.3140 C   0  0  0  0  0  0  0  0  0  0  0  0
   62.1968   33.6851   49.5093 H   0  0  0  0  0  0  0  0  0  0  0  0
   61.7818   34.5467   45.8311 H   0  0  0  0  0  0  0  0  0  0  0  0
   59.6069   34.5620   44.6113 H   0  0  0  0  0  0  0  0  0  0  0  0
   56.3529   34.0802   46.2575 H   0  0  0  0  0  0  0  0  0  0  0  0
   57.2089   34.5034   44.7294 H   0  0  0  0  0  0  0  0  0  0  0  0
   56.2480   31.8280   45.5800 H   0  0  0  0  0  0  0  0  0  0  0  0
   56.0327   30.4989   43.2157 H   0  0  0  0  0  0  0  0  0  0  0  0
   57.6033   30.4532   42.3354 H   0  0  0  0  0  0  0  0  0  0  0  0
   59.6969   30.2662   44.1527 H   0  0  0  0  0  0  0  0  0  0  0  0
   60.5653   28.5313   45.7170 H   0  0  0  0  0  0  0  0  0  0  0  0
   59.0161   26.8564   46.7186 H   0  0  0  0  0  0  0  0  0  0  0  0
   55.7015   28.6517   44.5809 H   0  0  0  0  0  0  0  0  0  0  0  0
   57.6193   33.0260   48.1399 H   0  0  0  0  0  0  0  0  0  0  0  0
   59.7928   33.0130   49.3588 H   0  0  0  0  0  0  0  0  0  0  0  0
  1  2  2  0
  2  3  1  0
  3  4  2  0
  4  5  1  0
  5  6  2  0
  6  7  1  0
  7  8  1  0
  8  9  1  0
  9 10  2  0
  9 11  1  0
 11 12  1  0
 12 13  2  0
 13 14  1  0
 14 15  2  0
 15 16  1  0
 16 17  1  0
 17 18  2  0
 17 19  1  0
 16 20  2  0
  6 21  1  0
 21 22  2  0
 22  3  1  0
 20 12  1  0
  2 23  1  0
  4 24  1  0
  5 25  1  0
  7 26  1  0
  7 27  1  0
  8 28  1  0
 11 29  1  0
 11 30  1  0
 13 31  1  0
 14 32  1  0
 15 33  1  0
 20 34  1  0
 21 35  1  0
 22 36  1  0
M  CHG  2  17   1  19  -1
M  END
>  <UniqueID>  (55) 
49

>  <SMILES>  (55) 
O=Cc1ccc(CNC(=O)Cc2cccc([N+](=O)[O-])c2)cc1

>  <Energy>  (55) 
32.6979050909089

>  <Genealogy>  (55) 
O=Cc1ccc(CNC(=O)Cc2cccc([N+](=O)[O-])c2)cc1 (3D coordinates assigned)
O=Cc1ccc(CNC(=O)Cc2cccc([N+](=O)[O-])c2)cc1 (optimized conformer: 32.6979050909089 kcal/mol)

>  <smiles>  (55) 
O=Cc1ccc(CNC(=O)Cc2cccc([N+](=O)[O-])c2)cc1

>  <score_type>  (55) 
oracle

>  <origin>  (55) 
adg

>  <m_score__min__energy>  (55) 
-8.0800000000000001

>  <m_primary>  (55) 
energy

$$$$
55:0
     RDKit          3D

 48 51  0  0  0  0  0  0  0  0999 V2000
   63.6980   34.1940   47.9630 F   0  0  0  0  0  0  0  0  0  0  0  0
   62.6790   33.3020   47.9740 C   0  0  0  0  0  0  0  0  0  0  0  0
   62.5630   32.2110   47.1160 C   0  0  0  0  0  0  0  0  0  0  0  0
   61.4020   31.4750   47.3640 C   0  0  0  0  0  0  0  0  0  0  0  0
   61.0080   30.3700   46.6760 N   0  0  0  0  0  0  0  0  0  0  0  0
   59.8300   29.7390   46.9900 C   0  0  0  0  0  0  0  0  0  0  0  0
   59.3690   28.6320   46.1820 N   0  0  0  0  0  0  0  0  0  0  0  0
   59.9300   28.4230   44.8430 C   0  0  0  0  0  0  0  0  0  0  0  0
   58.8750   27.8500   43.8710 C   0  0  0  0  0  0  0  0  0  0  0  0
   57.4920   28.2790   44.1880 N   0  0  0  0  0  0  0  0  0  0  0  0
   57.0570   29.5430   43.5500 C   0  0  0  0  0  0  0  0  0  0  0  0
   57.1540   30.7580   44.4890 C   0  0  0  0  0  0  0  0  0  0  0  0
   57.8010   31.9700   43.8150 C   0  0  0  0  0  0  0  0  0  0  0  0
   58.3070   32.9220   44.8670 C   0  0  0  0  0  0  0  0  0  0  0  0
   57.7790   32.8890   46.1680 C   0  0  0  0  0  0  0  0  0  0  0  0
   58.1860   33.8340   47.1170 C   0  0  0  0  0  0  0  0  0  0  0  0
   59.1090   34.8250   46.7690 C   0  0  0  0  0  0  0  0  0  0  0  0
   59.6290   34.8710   45.4720 C   0  0  0  0  0  0  0  0  0  0  0  0
   59.2300   33.9260   44.5230 C   0  0  0  0  0  0  0  0  0  0  0  0
   57.0560   28.1150   45.5990 C   0  0  0  0  0  0  0  0  0  0  0  0
   58.2150   27.8180   46.5590 C   0  0  0  0  0  0  0  0  0  0  0  0
   59.0310   30.2410   48.0520 C   0  0  0  0  0  0  0  0  0  0  0  0
   59.4390   31.3770   48.7620 C   0  0  0  0  0  0  0  0  0  0  0  0
   60.6300   31.9800   48.3930 C   0  0  0  0  0  0  0  0  0  0  0  0
   61.3560   33.3560   49.0280 S   0  0  0  0  0  0  0  0  0  0  0  0
   63.2974   31.9592   46.3367 H   0  0  0  0  0  0  0  0  0  0  0  0
   61.6090   30.0100   45.9010 H   0  0  0  0  0  0  0  0  0  0  0  0
   60.2906   29.3859   44.4521 H   0  0  0  0  0  0  0  0  0  0  0  0
   60.7548   27.6996   44.9231 H   0  0  0  0  0  0  0  0  0  0  0  0
   59.1199   28.1855   42.8524 H   0  0  0  0  0  0  0  0  0  0  0  0
   58.9061   26.7545   43.9650 H   0  0  0  0  0  0  0  0  0  0  0  0
   57.6922   29.7282   42.6712 H   0  0  0  0  0  0  0  0  0  0  0  0
   55.9984   29.4244   43.2756 H   0  0  0  0  0  0  0  0  0  0  0  0
   56.1401   31.0346   44.8137 H   0  0  0  0  0  0  0  0  0  0  0  0
   57.7879   30.4718   45.3412 H   0  0  0  0  0  0  0  0  0  0  0  0
   58.6414   31.6356   43.1890 H   0  0  0  0  0  0  0  0  0  0  0  0
   57.0555   32.4808   43.1878 H   0  0  0  0  0  0  0  0  0  0  0  0
   57.0435   32.1183   46.4420 H   0  0  0  0  0  0  0  0  0  0  0  0
   57.7790   33.7970   48.1383 H   0  0  0  0  0  0  0  0  0  0  0  0
   59.4259   35.5682   47.5155 H   0  0  0  0  0  0  0  0  0  0  0  0
   60.3533   35.6523   45.1981 H   0  0  0  0  0  0  0  0  0  0  0  0
   59.6394   33.9675   43.5029 H   0  0  0  0  0  0  0  0  0  0  0  0
   56.5631   29.0435   45.9228 H   0  0  0  0  0  0  0  0  0  0  0  0
   56.3746   27.2521   45.6324 H   0  0  0  0  0  0  0  0  0  0  0  0
   57.9126   28.0619   47.5881 H   0  0  0  0  0  0  0  0  0  0  0  0
   58.4792   26.7517   46.5022 H   0  0  0  0  0  0  0  0  0  0  0  0
   58.0902   29.7365   48.3171 H   0  0  0  0  0  0  0  0  0  0  0  0
   58.8323   31.7780   49.5873 H   0  0  0  0  0  0  0  0  0  0  0  0
  1  2  1  0
  2  3  2  0
  3  4  1  0
  4  5  2  0
  5  6  1  0
  6  7  1  0
  7  8  1  0
  8  9  1  0
  9 10  1  0
 10 11  1  0
 11 12  1  0
 12 13  1  0
 13 14  1  0
 14 15  2  0
 15 16  1  0
 16 17  2  0
 17 18  1  0
 18 19  2  0
 10 20  1  0
 20 21  1  0
  6 22  2  0
 22 23  1  0
 23 24  2  0
 24 25  1  0
 25  2  1  0
 24  4  1  0
 21  7  1  0
 19 14  1  0
  3 26  1  0
  5 27  1  0
  8 28  1  0
  8 29  1  0
  9 30  1  0
  9 31  1  0
 11 32  1  0
 11 33  1  0
 12 34  1  0
 12 35  1  0
 13 36  1  0
 13 37  1  0
 15 38  1  0
 16 39  1  0
 17 40  1  0
 18 41  1  0
 19 42  1  0
 20 43  1  0
 20 44  1  0
 21 45  1  0
 21 46  1  0
 22 47  1  0
 23 48  1  0
M  CHG  1   5   1
M  END
>  <UniqueID>  (56) 
50

>  <SMILES>  (56) 
Fc1cc2[nH+]c(N3CCN(CCCc4ccccc4)CC3)ccc2s1

>  <Energy>  (56) 
92.74895383421764

>  <Genealogy>  (56) 
Fc1cc2[nH+]c(N3CCN(CCCc4ccccc4)CC3)ccc2s1 (protonated)
Fc1cc2[nH+]c(N3CCN(CCCc4ccccc4)CC3)ccc2s1 (3D coordinates assigned)
Fc1cc2[nH+]c(N3CCN(CCCc4ccccc4)CC3)ccc2s1 (nonaromatic ring conformer: 92.74895383421764 kcal/mol)

>  <smiles>  (56) 
Fc1cc2nc(N3CCN(CCCc4ccccc4)CC3)ccc2s1

>  <score_type>  (56) 
oracle

>  <origin>  (56) 
adg

>  <m_score__min__energy>  (56) 
-6.2800000000000002

>  <m_primary>  (56) 
energy

$$$$
56:0
     RDKit          3D

 44 48  0  0  0  0  0  0  0  0999 V2000
   55.9910   29.3640   44.3540 C   0  0  0  0  0  0  0  0  0  0  0  0
   56.0770   30.0630   43.1560 C   0  0  0  0  0  0  0  0  0  0  0  0
   57.3970   31.1000   43.2440 S   0  0  0  0  0  0  0  0  0  0  0  0
   57.8860   30.6500   44.7920 C   0  0  0  0  0  0  0  0  0  0  0  0
   58.9810   31.2730   45.5670 C   0  0  0  0  0  0  0  0  0  0  0  0
   59.8220   30.4270   46.3050 C   0  0  0  0  0  0  0  0  0  0  0  0
   60.8290   30.9490   47.1130 C   0  0  0  0  0  0  0  0  0  0  0  0
   61.0230   32.3280   47.2040 C   0  0  0  0  0  0  0  0  0  0  0  0
   62.0580   32.8250   48.0590 N   0  0  0  0  0  0  0  0  0  0  0  0
   63.4540   32.8530   47.6750 C   0  0  0  0  0  0  0  0  0  0  0  0
   64.1950   33.3950   48.8980 C   0  0  2  0  0  0  0  0  0  0  0  0
   64.8490   32.3130   49.7500 C   0  0  0  0  0  0  0  0  0  0  0  0
   64.7500   32.7520   51.1400 N   0  0  0  0  0  0  0  0  0  0  0  0
   63.5480   33.5880   51.2370 C   0  0  0  0  0  0  0  0  0  0  0  0
   63.1440   34.0020   49.8140 C   0  0  2  0  0  0  0  0  0  0  0  0
   61.7930   33.4380   49.3470 C   0  0  0  0  0  0  0  0  0  0  0  0
   60.2130   33.2050   46.4510 C   0  0  0  0  0  0  0  0  0  0  0  0
   60.4160   34.5990   46.5030 C   0  0  0  0  0  0  0  0  0  0  0  0
   59.6350   35.4580   45.7330 C   0  0  0  0  0  0  0  0  0  0  0  0
   58.6510   34.9450   44.8900 C   0  0  0  0  0  0  0  0  0  0  0  0
   58.4320   33.5680   44.8230 C   0  0  0  0  0  0  0  0  0  0  0  0
   59.1890   32.6770   45.6140 C   0  0  0  0  0  0  0  0  0  0  0  0
   56.9920   29.6990   45.2730 C   0  0  0  0  0  0  0  0  0  0  0  0
   55.2097   28.6177   44.5605 H   0  0  0  0  0  0  0  0  0  0  0  0
   55.3978   29.9560   42.2974 H   0  0  0  0  0  0  0  0  0  0  0  0
   59.6843   29.3373   46.2447 H   0  0  0  0  0  0  0  0  0  0  0  0
   61.4772   30.2684   47.6845 H   0  0  0  0  0  0  0  0  0  0  0  0
   63.6028   33.5149   46.8091 H   0  0  0  0  0  0  0  0  0  0  0  0
   63.8195   31.8583   47.3801 H   0  0  0  0  0  0  0  0  0  0  0  0
   64.9676   34.0829   48.5240 H   0  0  0  0  0  0  0  0  0  0  0  0
   65.9047   32.1933   49.4651 H   0  0  0  0  0  0  0  0  0  0  0  0
   64.3507   31.3429   49.6063 H   0  0  0  0  0  0  0  0  0  0  0  0
   64.6810   31.9270   51.7810 H   0  0  0  0  0  0  0  0  0  0  0  0
   65.5960   33.3170   51.3880 H   0  0  0  0  0  0  0  0  0  0  0  0
   63.7629   34.4828   51.8397 H   0  0  0  0  0  0  0  0  0  0  0  0
   62.7318   33.0306   51.7199 H   0  0  0  0  0  0  0  0  0  0  0  0
   63.0645   35.0989   49.7927 H   0  0  0  0  0  0  0  0  0  0  0  0
   61.0532   34.2456   49.2443 H   0  0  0  0  0  0  0  0  0  0  0  0
   61.3792   32.7165   50.0669 H   0  0  0  0  0  0  0  0  0  0  0  0
   61.1979   35.0121   47.1572 H   0  0  0  0  0  0  0  0  0  0  0  0
   59.7955   36.5447   45.7906 H   0  0  0  0  0  0  0  0  0  0  0  0
   58.0451   35.6272   44.2756 H   0  0  0  0  0  0  0  0  0  0  0  0
   57.6605   33.1726   44.1459 H   0  0  0  0  0  0  0  0  0  0  0  0
   57.0646   29.2542   46.2765 H   0  0  0  0  0  0  0  0  0  0  0  0
  1  2  2  0
  2  3  1  0
  3  4  1  0
  4  5  1  0
  5  6  2  0
  6  7  1  0
  7  8  2  0
  8  9  1  0
  9 10  1  0
 10 11  1  0
 11 12  1  0
 12 13  1  0
 13 14  1  0
 14 15  1  0
 15 16  1  0
  8 17  1  0
 17 18  2  0
 18 19  1  0
 19 20  2  0
 20 21  1  0
 21 22  2  0
  4 23  2  0
 23  1  1  0
 22  5  1  0
 16  9  1  0
 22 17  1  0
 15 11  1  0
  1 24  1  0
  2 25  1  0
  6 26  1  0
  7 27  1  0
 10 28  1  0
 10 29  1  0
 11 30  1  6
 12 31  1  0
 12 32  1  0
 13 33  1  0
 13 34  1  0
 14 35  1  0
 14 36  1  0
 15 37  1  1
 16 38  1  0
 16 39  1  0
 18 40  1  0
 19 41  1  0
 20 42  1  0
 21 43  1  0
 23 44  1  0
M  CHG  1  13   1
M  END
>  <UniqueID>  (57) 
51

>  <SMILES>  (57) 
c1csc(-c2ccc(N3C[C@H]4C[NH2+]C[C@H]4C3)c3ccccc23)c1

>  <Energy>  (57) 
96.74641597272819

>  <Genealogy>  (57) 
c1csc(-c2ccc(N3CC4C[NH2+]CC4C3)c3ccccc23)c1 (protonated)
c1csc(-c2ccc(N3C[C@H]4C[NH2+]C[C@H]4C3)c3ccccc23)c1 (chirality)
c1csc(-c2ccc(N3C[C@H]4C[NH2+]C[C@H]4C3)c3ccccc23)c1 (3D coordinates assigned)
c1csc(-c2ccc(N3C[C@H]4C[NH2+]C[C@H]4C3)c3ccccc23)c1 (nonaromatic ring conformer: 96.74641597272819 kcal/mol)

>  <smiles>  (57) 
c1csc(-c2ccc(N3CC4CNCC4C3)c3ccccc23)c1

>  <score_type>  (57) 
oracle

>  <origin>  (57) 
adg

>  <m_score__min__energy>  (57) 
-7.0300000000000002

>  <m_primary>  (57) 
energy

$$$$
57:0
     RDKit          3D

 56 59  0  0  0  0  0  0  0  0999 V2000
   54.5140   26.3220   45.9840 O   0  0  0  0  0  0  0  0  0  0  0  0
   55.7720   26.3190   45.9920 C   0  0  0  0  0  0  0  0  0  0  0  0
   56.4600   25.0900   46.2580 N   0  0  0  0  0  0  0  0  0  0  0  0
   56.6830   24.0360   45.3130 C   0  0  0  0  0  0  0  0  0  0  0  0
   57.9280   23.4010   45.1990 C   0  0  0  0  0  0  0  0  0  0  0  0
   58.1060   22.3800   44.2640 C   0  0  0  0  0  0  0  0  0  0  0  0
   57.0410   22.0180   43.4370 C   0  0  0  0  0  0  0  0  0  0  0  0
   55.8490   22.6630   43.5420 N   0  0  0  0  0  0  0  0  0  0  0  0
   55.6510   23.6590   44.4460 C   0  0  0  0  0  0  0  0  0  0  0  0
   56.4720   27.5470   45.7520 N   0  0  0  0  0  0  0  0  0  0  0  0
   57.7980   27.8560   46.2060 C   0  0  0  0  0  0  0  0  0  0  0  0
   58.5520   26.8270   46.7850 C   0  0  0  0  0  0  0  0  0  0  0  0
   59.8300   27.0770   47.2840 C   0  0  0  0  0  0  0  0  0  0  0  0
   60.3790   28.3550   47.1880 C   0  0  0  0  0  0  0  0  0  0  0  0
   59.6610   29.3800   46.5700 C   0  0  0  0  0  0  0  0  0  0  0  0
   58.3720   29.1450   46.0540 C   0  0  0  0  0  0  0  0  0  0  0  0
   57.6820   30.2510   45.2870 C   0  0  0  0  0  0  0  0  0  0  0  0
   58.2360   31.5700   45.6520 N   0  0  0  0  0  0  0  0  0  0  0  0
   57.7700   31.9980   46.9840 C   0  0  0  0  0  0  0  0  0  0  0  0
   58.5780   33.2170   47.4650 C   0  0  0  0  0  0  0  0  0  0  0  0
   59.0700   34.1200   46.3050 C   0  0  0  0  0  0  0  0  0  0  0  0
   60.5280   33.7840   45.9010 C   0  0  0  0  0  0  0  0  0  0  0  0
   61.3530   33.3300   47.0810 C   0  0  0  0  0  0  0  0  0  0  0  0
   61.7910   31.9980   47.1640 C   0  0  0  0  0  0  0  0  0  0  0  0
   62.5390   31.5700   48.2660 C   0  0  0  0  0  0  0  0  0  0  0  0
   62.8500   32.4660   49.2930 C   0  0  0  0  0  0  0  0  0  0  0  0
   63.5730   32.0490   50.3610 F   0  0  0  0  0  0  0  0  0  0  0  0
   62.4110   33.7910   49.2200 C   0  0  0  0  0  0  0  0  0  0  0  0
   61.6640   34.2230   48.1200 C   0  0  0  0  0  0  0  0  0  0  0  0
   58.0940   34.0310   45.1130 C   0  0  0  0  0  0  0  0  0  0  0  0
   57.8870   32.5790   44.6230 C   0  0  0  0  0  0  0  0  0  0  0  0
   58.7635   23.7071   45.8457 H   0  0  0  0  0  0  0  0  0  0  0  0
   59.0749   21.8661   44.1797 H   0  0  0  0  0  0  0  0  0  0  0  0
   57.1665   21.2108   42.7004 H   0  0  0  0  0  0  0  0  0  0  0  0
   54.6779   24.1695   44.4961 H   0  0  0  0  0  0  0  0  0  0  0  0
   58.1320   25.8122   46.8466 H   0  0  0  0  0  0  0  0  0  0  0  0
   60.4052   26.2655   47.7536 H   0  0  0  0  0  0  0  0  0  0  0  0
   61.3791   28.5557   47.5998 H   0  0  0  0  0  0  0  0  0  0  0  0
   60.1068   30.3820   46.4851 H   0  0  0  0  0  0  0  0  0  0  0  0
   57.8258   30.0857   44.2090 H   0  0  0  0  0  0  0  0  0  0  0  0
   56.6111   30.2378   45.5381 H   0  0  0  0  0  0  0  0  0  0  0  0
   56.7051   32.2678   46.9268 H   0  0  0  0  0  0  0  0  0  0  0  0
   57.9108   31.1712   47.6957 H   0  0  0  0  0  0  0  0  0  0  0  0
   57.9408   33.8184   48.1301 H   0  0  0  0  0  0  0  0  0  0  0  0
   59.4702   32.8343   47.9823 H   0  0  0  0  0  0  0  0  0  0  0  0
   59.0811   35.1638   46.6519 H   0  0  0  0  0  0  0  0  0  0  0  0
   60.5119   32.9811   45.1493 H   0  0  0  0  0  0  0  0  0  0  0  0
   60.9875   34.6984   45.4977 H   0  0  0  0  0  0  0  0  0  0  0  0
   61.5450   31.2890   46.3598 H   0  0  0  0  0  0  0  0  0  0  0  0
   62.8830   30.5268   48.3245 H   0  0  0  0  0  0  0  0  0  0  0  0
   62.6537   34.4951   50.0295 H   0  0  0  0  0  0  0  0  0  0  0  0
   61.3185   35.2660   48.0679 H   0  0  0  0  0  0  0  0  0  0  0  0
   57.1212   34.4407   45.4225 H   0  0  0  0  0  0  0  0  0  0  0  0
   58.5292   34.6050   44.2817 H   0  0  0  0  0  0  0  0  0  0  0  0
   56.8302   32.4485   44.3470 H   0  0  0  0  0  0  0  0  0  0  0  0
   58.5556   32.4209   43.7640 H   0  0  0  0  0  0  0  0  0  0  0  0
  1  2  2  0
  2  3  1  0
  3  4  1  0
  4  5  2  0
  5  6  1  0
  6  7  2  0
  7  8  1  0
  8  9  2  0
  2 10  1  0
 10 11  1  0
 11 12  2  0
 12 13  1  0
 13 14  2  0
 14 15  1  0
 15 16  2  0
 16 17  1  0
 17 18  1  0
 18 19  1  0
 19 20  1  0
 20 21  1  0
 21 22  1  0
 22 23  1  0
 23 24  2  0
 24 25  1  0
 25 26  2  0
 26 27  1  0
 26 28  1  0
 28 29  2  0
 21 30  1  0
 30 31  1  0
  9  4  1  0
 16 11  1  0
 31 18  1  0
 29 23  1  0
  5 32  1  0
  6 33  1  0
  7 34  1  0
  9 35  1  0
 12 36  1  0
 13 37  1  0
 14 38  1  0
 15 39  1  0
 17 40  1  0
 17 41  1  0
 19 42  1  0
 19 43  1  0
 20 44  1  0
 20 45  1  0
 21 46  1  0
 22 47  1  0
 22 48  1  0
 24 49  1  0
 25 50  1  0
 28 51  1  0
 29 52  1  0
 30 53  1  0
 30 54  1  0
 31 55  1  0
 31 56  1  0
M  CHG  2   3  -1  10  -1
M  END
>  <UniqueID>  (58) 
52

>  <SMILES>  (58) 
O=C([N-]c1cccnc1)[N-]c1ccccc1CN1CCC(Cc2ccc(F)cc2)CC1

>  <Energy>  (58) 
74.69473564923737

>  <Genealogy>  (58) 
O=C([N-]c1cccnc1)[N-]c1ccccc1CN1CCC(Cc2ccc(F)cc2)CC1 (protonated)
O=C([N-]c1cccnc1)[N-]c1ccccc1CN1CCC(Cc2ccc(F)cc2)CC1 (3D coordinates assigned)
O=C([N-]c1cccnc1)[N-]c1ccccc1CN1CCC(Cc2ccc(F)cc2)CC1 (nonaromatic ring conformer: 74.69473564923737 kcal/mol)

>  <smiles>  (58) 
O=C(Nc1cccnc1)Nc1ccccc1CN1CCC(Cc2ccc(F)cc2)CC1

>  <score_type>  (58) 
oracle

>  <origin>  (58) 
adg

>  <m_score__min__energy>  (58) 
-13.4

>  <m_primary>  (58) 
energy

$$$$
58:0
     RDKit          3D

 34 36  0  0  0  0  0  0  0  0999 V2000
   57.9160   34.5870   44.8880 C   0  0  0  0  0  0  0  0  0  0  0  0
   57.3310   33.3930   45.6380 C   0  0  0  0  0  0  0  0  0  0  0  0
   58.3680   32.3040   45.8170 C   0  0  0  0  0  0  0  0  0  0  0  0
   59.5210   32.6070   46.5570 C   0  0  0  0  0  0  0  0  0  0  0  0
   60.5210   31.6440   46.7450 C   0  0  0  0  0  0  0  0  0  0  0  0
   61.7390   31.9730   47.5290 C   0  0  0  0  0  0  0  0  0  0  0  0
   62.0250   31.2830   48.7200 C   0  0  0  0  0  0  0  0  0  0  0  0
   63.1700   31.5920   49.4610 C   0  0  0  0  0  0  0  0  0  0  0  0
   64.0420   32.5930   49.0200 C   0  0  0  0  0  0  0  0  0  0  0  0
   65.4770   32.9790   49.9500 Cl  0  0  0  0  0  0  0  0  0  0  0  0
   63.7660   33.2850   47.8380 C   0  0  0  0  0  0  0  0  0  0  0  0
   62.6220   32.9790   47.0950 C   0  0  0  0  0  0  0  0  0  0  0  0
   60.3730   30.4040   46.1960 N   0  0  0  0  0  0  0  0  0  0  0  0
   59.2790   30.0700   45.4530 C   0  0  0  0  0  0  0  0  0  0  0  0
   59.1760   28.7830   44.9000 C   0  0  0  0  0  0  0  0  0  0  0  0
   58.0680   28.4310   44.1300 C   0  0  0  0  0  0  0  0  0  0  0  0
   57.0520   29.3570   43.9030 C   0  0  0  0  0  0  0  0  0  0  0  0
   57.1340   30.6410   44.4490 C   0  0  0  0  0  0  0  0  0  0  0  0
   58.2440   31.0170   45.2370 C   0  0  0  0  0  0  0  0  0  0  0  0
   58.2807   35.3313   45.6112 H   0  0  0  0  0  0  0  0  0  0  0  0
   58.7510   34.2498   44.2562 H   0  0  0  0  0  0  0  0  0  0  0  0
   57.1379   35.0402   44.2562 H   0  0  0  0  0  0  0  0  0  0  0  0
   56.9833   33.7249   46.6274 H   0  0  0  0  0  0  0  0  0  0  0  0
   56.4936   32.9868   45.0517 H   0  0  0  0  0  0  0  0  0  0  0  0
   59.6408   33.6096   46.9934 H   0  0  0  0  0  0  0  0  0  0  0  0
   61.3433   30.4945   49.0715 H   0  0  0  0  0  0  0  0  0  0  0  0
   63.3853   31.0471   50.3920 H   0  0  0  0  0  0  0  0  0  0  0  0
   64.4508   34.0728   47.4911 H   0  0  0  0  0  0  0  0  0  0  0  0
   62.4108   33.5280   46.1655 H   0  0  0  0  0  0  0  0  0  0  0  0
   61.1130   29.6830   46.3590 H   0  0  0  0  0  0  0  0  0  0  0  0
   59.9750   28.0476   45.0756 H   0  0  0  0  0  0  0  0  0  0  0  0
   57.9960   27.4206   43.7011 H   0  0  0  0  0  0  0  0  0  0  0  0
   56.1817   29.0764   43.2915 H   0  0  0  0  0  0  0  0  0  0  0  0
   56.3269   31.3650   44.2633 H   0  0  0  0  0  0  0  0  0  0  0  0
  1  2  1  0
  2  3  1  0
  3  4  2  0
  4  5  1  0
  5  6  1  0
  6  7  2  0
  7  8  1  0
  8  9  2  0
  9 10  1  0
  9 11  1  0
 11 12  2  0
  5 13  2  0
 13 14  1  0
 14 15  2  0
 15 16  1  0
 16 17  2  0
 17 18  1  0
 18 19  2  0
 19  3  1  0
 12  6  1  0
 19 14  1  0
  1 20  1  0
  1 21  1  0
  1 22  1  0
  2 23  1  0
  2 24  1  0
  4 25  1  0
  7 26  1  0
  8 27  1  0
 11 28  1  0
 12 29  1  0
 13 30  1  0
 15 31  1  0
 16 32  1  0
 17 33  1  0
 18 34  1  0
M  CHG  1  13   1
M  END
>  <UniqueID>  (59) 
53

>  <SMILES>  (59) 
CCc1cc(-c2ccc(Cl)cc2)[nH+]c2ccccc12

>  <Energy>  (59) 
44.264543279349205

>  <Genealogy>  (59) 
CCc1cc(-c2ccc(Cl)cc2)[nH+]c2ccccc12 (protonated)
CCc1cc(-c2ccc(Cl)cc2)[nH+]c2ccccc12 (3D coordinates assigned)
CCc1cc(-c2ccc(Cl)cc2)[nH+]c2ccccc12 (optimized conformer: 44.264543279349205 kcal/mol)

>  <smiles>  (59) 
CCc1cc(-c2ccc(Cl)cc2)nc2ccccc12

>  <score_type>  (59) 
oracle

>  <origin>  (59) 
adg

>  <m_score__min__energy>  (59) 
-5.8300000000000001

>  <m_primary>  (59) 
energy

$$$$
59:0
     RDKit          3D

 47 49  0  0  0  0  0  0  0  0999 V2000
   59.8130   34.5930   44.5300 O   0  0  0  0  0  0  0  0  0  0  0  0
   59.1100   34.2780   45.5280 C   0  0  0  0  0  0  0  0  0  0  0  0
   59.4710   34.8080   46.8830 C   0  0  0  0  0  0  0  0  0  0  0  0
   59.9340   33.7260   47.7590 N   0  0  0  0  0  0  0  0  0  0  0  0
   61.3300   33.5860   48.0890 C   0  0  0  0  0  0  0  0  0  0  0  0
   62.2760   33.3070   47.0880 C   0  0  0  0  0  0  0  0  0  0  0  0
   63.6330   33.1990   47.4090 C   0  0  0  0  0  0  0  0  0  0  0  0
   64.0570   33.3690   48.7300 C   0  0  0  0  0  0  0  0  0  0  0  0
   65.3720   33.2570   49.0420 F   0  0  0  0  0  0  0  0  0  0  0  0
   63.1230   33.6550   49.7300 C   0  0  0  0  0  0  0  0  0  0  0  0
   61.7660   33.7660   49.4120 C   0  0  0  0  0  0  0  0  0  0  0  0
   58.7640   32.6190   48.4190 S   0  0  0  0  0  0  0  0  0  0  0  0
   57.4100   32.9190   47.8370 O   0  0  0  0  0  0  0  0  0  0  0  0
   58.6910   32.7630   49.9150 O   0  0  0  0  0  0  0  0  0  0  0  0
   59.2450   30.9670   48.0440 C   0  0  0  0  0  0  0  0  0  0  0  0
   60.0410   30.6900   46.9220 C   0  0  0  0  0  0  0  0  0  0  0  0
   60.4410   29.3770   46.6520 C   0  0  0  0  0  0  0  0  0  0  0  0
   60.0490   28.3380   47.5020 C   0  0  0  0  0  0  0  0  0  0  0  0
   59.2610   28.6110   48.6230 C   0  0  0  0  0  0  0  0  0  0  0  0
   58.8620   29.9230   48.8960 C   0  0  0  0  0  0  0  0  0  0  0  0
   57.9730   33.4170   45.3720 N   0  0  0  0  0  0  0  0  0  0  0  0
   57.5910   32.8480   44.0830 C   0  0  0  0  0  0  0  0  0  0  0  0
   57.4060   31.3610   44.2060 C   0  0  0  0  0  0  0  0  0  0  0  0
   56.1260   30.8110   44.3780 C   0  0  0  0  0  0  0  0  0  0  0  0
   55.9630   29.4250   44.4750 C   0  0  0  0  0  0  0  0  0  0  0  0
   57.0750   28.5800   44.3950 C   0  0  0  0  0  0  0  0  0  0  0  0
   58.3510   29.1210   44.2160 C   0  0  0  0  0  0  0  0  0  0  0  0
   58.5180   30.5060   44.1210 C   0  0  0  0  0  0  0  0  0  0  0  0
   60.2724   35.5540   46.7767 H   0  0  0  0  0  0  0  0  0  0  0  0
   58.5777   35.2671   47.3316 H   0  0  0  0  0  0  0  0  0  0  0  0
   61.9476   33.1729   46.0468 H   0  0  0  0  0  0  0  0  0  0  0  0
   64.3679   32.9799   46.6204 H   0  0  0  0  0  0  0  0  0  0  0  0
   63.4563   33.7930   50.7692 H   0  0  0  0  0  0  0  0  0  0  0  0
   61.0359   33.9955   50.2022 H   0  0  0  0  0  0  0  0  0  0  0  0
   60.3510   31.5068   46.2536 H   0  0  0  0  0  0  0  0  0  0  0  0
   61.0638   29.1618   45.7712 H   0  0  0  0  0  0  0  0  0  0  0  0
   60.3612   27.3052   47.2879 H   0  0  0  0  0  0  0  0  0  0  0  0
   58.9542   27.7930   49.2914 H   0  0  0  0  0  0  0  0  0  0  0  0
   58.2458   30.1359   49.7820 H   0  0  0  0  0  0  0  0  0  0  0  0
   57.3930   33.1830   46.2090 H   0  0  0  0  0  0  0  0  0  0  0  0
   56.6478   33.3051   43.7493 H   0  0  0  0  0  0  0  0  0  0  0  0
   58.3866   33.0513   43.3511 H   0  0  0  0  0  0  0  0  0  0  0  0
   55.2486   31.4718   44.4367 H   0  0  0  0  0  0  0  0  0  0  0  0
   54.9586   28.9988   44.6144 H   0  0  0  0  0  0  0  0  0  0  0  0
   56.9451   27.4905   44.4729 H   0  0  0  0  0  0  0  0  0  0  0  0
   59.2251   28.4565   44.1498 H   0  0  0  0  0  0  0  0  0  0  0  0
   59.5239   30.9280   43.9792 H   0  0  0  0  0  0  0  0  0  0  0  0
  1  2  2  0
  2  3  1  0
  3  4  1  0
  4  5  1  0
  5  6  2  0
  6  7  1  0
  7  8  2  0
  8  9  1  0
  8 10  1  0
 10 11  2  0
  4 12  1  0
 12 13  2  0
 12 14  2  0
 12 15  1  0
 15 16  2  0
 16 17  1  0
 17 18  2  0
 18 19  1  0
 19 20  2  0
  2 21  1  0
 21 22  1  0
 22 23  1  0
 23 24  2  0
 24 25  1  0
 25 26  2  0
 26 27  1  0
 27 28  2  0
 11  5  1  0
 20 15  1  0
 28 23  1  0
  3 29  1  0
  3 30  1  0
  6 31  1  0
  7 32  1  0
 10 33  1  0
 11 34  1  0
 16 35  1  0
 17 36  1  0
 18 37  1  0
 19 38  1  0
 20 39  1  0
 21 40  1  0
 22 41  1  0
 22 42  1  0
 24 43  1  0
 25 44  1  0
 26 45  1  0
 27 46  1  0
 28 47  1  0
M  END
>  <UniqueID>  (60) 
54

>  <SMILES>  (60) 
O=C(CN(c1ccc(F)cc1)S(=O)(=O)c1ccccc1)NCc1ccccc1

>  <Energy>  (60) 
50.24635091464984

>  <Genealogy>  (60) 
O=C(CN(c1ccc(F)cc1)S(=O)(=O)c1ccccc1)NCc1ccccc1 (3D coordinates assigned)
O=C(CN(c1ccc(F)cc1)S(=O)(=O)c1ccccc1)NCc1ccccc1 (optimized conformer: 50.24635091464984 kcal/mol)

>  <smiles>  (60) 
O=C(CN(c1ccc(F)cc1)S(=O)(=O)c1ccccc1)NCc1ccccc1

>  <score_type>  (60) 
oracle

>  <origin>  (60) 
adg

>  <m_score__min__energy>  (60) 
-9.6999999999999993

>  <m_primary>  (60) 
energy

$$$$
60:0
     RDKit          3D

 36 37  0  0  0  0  0  0  0  0999 V2000
   60.0200   34.2790   49.3140 C   0  0  0  0  0  0  0  0  0  0  0  0
   59.3480   34.9360   48.2440 O   0  0  0  0  0  0  0  0  0  0  0  0
   58.9930   34.3190   47.0350 C   0  0  0  0  0  0  0  0  0  0  0  0
   59.6180   34.6360   45.8130 C   0  0  0  0  0  0  0  0  0  0  0  0
   59.2290   33.9920   44.6350 C   0  0  0  0  0  0  0  0  0  0  0  0
   58.2200   33.0170   44.6600 C   0  0  0  0  0  0  0  0  0  0  0  0
   57.7730   32.3570   43.3840 C   0  0  0  0  0  0  0  0  0  0  0  0
   57.9610   30.9090   43.4610 N   0  0  0  0  0  0  0  0  0  0  0  0
   56.9720   30.0580   44.0540 C   0  0  0  0  0  0  0  0  0  0  0  0
   55.8980   30.5460   44.5000 O   0  0  0  0  0  0  0  0  0  0  0  0
   57.2210   28.5870   44.1900 C   0  0  0  0  0  0  0  0  0  0  0  0
   58.2220   28.3430   45.1750 O   0  0  0  0  0  0  0  0  0  0  0  0
   59.3520   29.1510   45.3410 C   0  0  0  0  0  0  0  0  0  0  0  0
   60.1650   29.3250   44.3920 O   0  0  0  0  0  0  0  0  0  0  0  0
   59.5880   29.7970   46.6360 C   0  0  0  0  0  0  0  0  0  0  0  0
   60.7100   30.5180   46.9950 C   0  0  0  0  0  0  0  0  0  0  0  0
   60.4860   30.9310   48.2910 C   0  0  0  0  0  0  0  0  0  0  0  0
   59.2460   30.4370   48.6420 C   0  0  0  0  0  0  0  0  0  0  0  0
   58.7350   29.7660   47.6350 O   0  0  0  0  0  0  0  0  0  0  0  0
   57.5860   32.7150   45.8740 C   0  0  0  0  0  0  0  0  0  0  0  0
   57.9760   33.3580   47.0520 C   0  0  0  0  0  0  0  0  0  0  0  0
   59.6359   34.6546   50.2739 H   0  0  0  0  0  0  0  0  0  0  0  0
   59.8437   33.1953   49.2473 H   0  0  0  0  0  0  0  0  0  0  0  0
   61.0995   34.4797   49.2473 H   0  0  0  0  0  0  0  0  0  0  0  0
   60.4153   35.3933   45.7857 H   0  0  0  0  0  0  0  0  0  0  0  0
   59.7163   34.2508   43.6834 H   0  0  0  0  0  0  0  0  0  0  0  0
   56.7077   32.5750   43.2180 H   0  0  0  0  0  0  0  0  0  0  0  0
   58.3756   32.7493   42.5515 H   0  0  0  0  0  0  0  0  0  0  0  0
   58.8380   30.4780   43.0890 H   0  0  0  0  0  0  0  0  0  0  0  0
   56.2879   28.0873   44.4895 H   0  0  0  0  0  0  0  0  0  0  0  0
   57.5669   28.1921   43.2233 H   0  0  0  0  0  0  0  0  0  0  0  0
   61.5967   30.7203   46.3763 H   0  0  0  0  0  0  0  0  0  0  0  0
   61.1596   31.5328   48.9187 H   0  0  0  0  0  0  0  0  0  0  0  0
   58.7592   30.5831   49.6176 H   0  0  0  0  0  0  0  0  0  0  0  0
   56.7782   31.9688   45.8991 H   0  0  0  0  0  0  0  0  0  0  0  0
   57.4792   33.1065   48.0007 H   0  0  0  0  0  0  0  0  0  0  0  0
  1  2  1  0
  2  3  1  0
  3  4  2  0
  4  5  1  0
  5  6  2  0
  6  7  1  0
  7  8  1  0
  8  9  1  0
  9 10  2  0
  9 11  1  0
 11 12  1  0
 12 13  1  0
 13 14  2  0
 13 15  1  0
 15 16  2  0
 16 17  1  0
 17 18  2  0
 18 19  1  0
  6 20  1  0
 20 21  2  0
 21  3  1  0
 19 15  1  0
  1 22  1  0
  1 23  1  0
  1 24  1  0
  4 25  1  0
  5 26  1  0
  7 27  1  0
  7 28  1  0
  8 29  1  0
 11 30  1  0
 11 31  1  0
 16 32  1  0
 17 33  1  0
 18 34  1  0
 20 35  1  0
 21 36  1  0
M  END
>  <UniqueID>  (61) 
55

>  <SMILES>  (61) 
COc1ccc(CNC(=O)COC(=O)c2ccco2)cc1

>  <Energy>  (61) 
55.149930914453115

>  <Genealogy>  (61) 
COc1ccc(CNC(=O)COC(=O)c2ccco2)cc1 (3D coordinates assigned)
COc1ccc(CNC(=O)COC(=O)c2ccco2)cc1 (optimized conformer: 55.149930914453115 kcal/mol)

>  <smiles>  (61) 
COc1ccc(CNC(=O)COC(=O)c2ccco2)cc1

>  <score_type>  (61) 
oracle

>  <origin>  (61) 
adg

>  <m_score__min__energy>  (61) 
-6.3899999999999997

>  <m_primary>  (61) 
energy

$$$$
61:0
     RDKit          3D

 29 30  0  0  0  0  0  0  0  0999 V2000
   60.2875   31.7666   47.0132 H   0  0  0  0  0  0  0  0  0  0  0  0
   59.5190   32.2710   46.4090 C   0  0  0  0  0  0  0  0  0  0  0  0
   58.3780   31.5710   46.0030 C   0  0  0  0  0  0  0  0  0  0  0  0
   58.2592   30.5121   46.2764 H   0  0  0  0  0  0  0  0  0  0  0  0
   57.3860   32.2120   45.2500 C   0  0  0  0  0  0  0  0  0  0  0  0
   56.2290   31.4670   44.8450 N   0  0  0  0  0  0  0  0  0  0  0  0
   56.2060   30.0970   44.4190 C   0  0  0  0  0  0  0  0  0  0  0  0
   55.3050   29.3400   44.8670 O   0  0  0  0  0  0  0  0  0  0  0  0
   57.1930   29.5430   43.4280 C   0  0  0  0  0  0  0  0  0  0  0  0
   56.6970   28.7844   42.8047 H   0  0  0  0  0  0  0  0  0  0  0  0
   57.5660   30.3605   42.7934 H   0  0  0  0  0  0  0  0  0  0  0  0
   58.3170   28.9310   44.1330 N   0  0  0  0  0  0  0  0  0  0  0  0
   58.2350   28.0440   45.0840 C   0  0  0  0  0  0  0  0  0  0  0  0
   59.3410   27.8580   45.9240 C   0  0  0  0  0  0  0  0  0  0  0  0
   60.2563   28.4489   45.7722 H   0  0  0  0  0  0  0  0  0  0  0  0
   59.2750   26.9200   46.9530 C   0  0  0  0  0  0  0  0  0  0  0  0
   60.1385   26.7691   47.6175 H   0  0  0  0  0  0  0  0  0  0  0  0
   58.1130   26.1740   47.1380 C   0  0  0  0  0  0  0  0  0  0  0  0
   58.0522   25.4313   47.9471 H   0  0  0  0  0  0  0  0  0  0  0  0
   57.0270   26.3790   46.2860 C   0  0  0  0  0  0  0  0  0  0  0  0
   56.1051   25.7950   46.4241 H   0  0  0  0  0  0  0  0  0  0  0  0
   57.1030   27.2980   45.2850 N   0  0  0  0  0  0  0  0  0  0  0  0
   56.2640   27.4120   44.6730 H   0  0  0  0  0  0  0  0  0  0  0  0
   57.5710   33.5500   44.8610 C   0  0  0  0  0  0  0  0  0  0  0  0
   56.8165   34.0489   44.2351 H   0  0  0  0  0  0  0  0  0  0  0  0
   58.7120   34.2480   45.2680 C   0  0  0  0  0  0  0  0  0  0  0  0
   58.8459   35.2997   44.9747 H   0  0  0  0  0  0  0  0  0  0  0  0
   59.6830   33.6120   46.0470 C   0  0  0  0  0  0  0  0  0  0  0  0
   60.7890   34.2900   46.4390 F   0  0  0  0  0  0  0  0  0  0  0  0
  1  2  1  0
  2  3  2  0
  3  4  1  0
  3  5  1  0
  5  6  1  0
  6  7  1  0
  7  8  2  0
  7  9  1  0
  9 10  1  0
  9 11  1  0
  9 12  1  0
 12 13  2  0
 13 14  1  0
 14 15  1  0
 14 16  2  0
 16 17  1  0
 16 18  1  0
 18 19  1  0
 18 20  2  0
 20 21  1  0
 20 22  1  0
 22 23  1  0
  5 24  2  0
 24 25  1  0
 24 26  1  0
 26 27  1  0
 26 28  2  0
 28 29  1  0
 28  2  1  0
 22 13  1  0
M  CHG  1   6  -1
M  END
>  <UniqueID>  (62) 
56

>  <SMILES>  (62) 
O=C(C/N=c1/cccc[nH]1)[N-]c1ccc(F)cc1

>  <Energy>  (62) 
34.492584858511236

>  <Genealogy>  (62) 
O=C(CN=c1cccc[nH]1)[N-]c1ccc(F)cc1 (protonated)
O=C(C/N=c1/cccc[nH]1)[N-]c1ccc(F)cc1 (cis-trans isomerization)
O=C(C/N=c1/cccc[nH]1)[N-]c1ccc(F)cc1 (3D coordinates assigned)
O=C(C/N=c1/cccc[nH]1)[N-]c1ccc(F)cc1 (optimized conformer: 34.492584858511236 kcal/mol)

>  <smiles>  (62) 
O=C(CN=c1cccc[nH]1)Nc1ccc(F)cc1

>  <score_type>  (62) 
oracle

>  <origin>  (62) 
adg

>  <m_score__min__energy>  (62) 
-7.7199999999999998

>  <m_primary>  (62) 
energy

$$$$
62:0
     RDKit          3D

 43 45  0  0  0  0  0  0  0  0999 V2000
   56.8430   19.5900   43.1790 H   0  0  0  0  0  0  0  0  0  0  0  0
   56.2570   20.4010   43.0160 O   0  0  0  0  0  0  0  0  0  0  0  0
   56.6440   21.6730   43.4300 C   0  0  0  0  0  0  0  0  0  0  0  0
   55.9250   22.7900   42.9950 C   0  0  0  0  0  0  0  0  0  0  0  0
   55.0627   22.6596   42.3246 H   0  0  0  0  0  0  0  0  0  0  0  0
   56.2980   24.0730   43.4090 C   0  0  0  0  0  0  0  0  0  0  0  0
   55.7309   24.9477   43.0579 H   0  0  0  0  0  0  0  0  0  0  0  0
   57.3920   24.2500   44.2700 C   0  0  0  0  0  0  0  0  0  0  0  0
   57.7460   25.6110   44.7200 C   0  0  0  0  0  0  0  0  0  0  0  0
   57.1277   26.4648   44.4058 H   0  0  0  0  0  0  0  0  0  0  0  0
   58.7780   25.8130   45.4820 N   0  0  0  0  0  0  0  0  0  0  0  0
   59.0860   27.0450   46.1520 C   0  0  0  0  0  0  0  0  0  0  0  0
   59.6440   26.9740   47.4350 C   0  0  0  0  0  0  0  0  0  0  0  0
   59.8423   25.9913   47.8879 H   0  0  0  0  0  0  0  0  0  0  0  0
   59.9520   28.1380   48.1470 C   0  0  0  0  0  0  0  0  0  0  0  0
   60.6710   27.9920   49.7460 Cl  0  0  0  0  0  0  0  0  0  0  0  0
   59.6860   29.3940   47.5810 C   0  0  0  0  0  0  0  0  0  0  0  0
   60.0540   30.8810   48.4440 Cl  0  0  0  0  0  0  0  0  0  0  0  0
   59.0980   29.4740   46.3150 C   0  0  0  0  0  0  0  0  0  0  0  0
   58.8794   30.4590   45.8769 H   0  0  0  0  0  0  0  0  0  0  0  0
   58.7850   28.3120   45.6000 C   0  0  0  0  0  0  0  0  0  0  0  0
   58.1060   28.4360   44.3500 N   0  0  0  0  0  0  0  0  0  0  0  0
   56.8330   29.5880   44.1350 S   0  0  0  0  0  0  0  0  0  0  0  0
   56.2370   29.4380   42.7630 O   0  0  0  0  0  0  0  0  0  0  0  0
   55.7540   29.3260   45.1480 O   0  0  0  0  0  0  0  0  0  0  0  0
   57.4660   31.2160   44.3430 C   0  0  0  0  0  0  0  0  0  0  0  0
   58.0150   31.9060   43.2530 C   0  0  0  0  0  0  0  0  0  0  0  0
   58.0389   31.4329   42.2602 H   0  0  0  0  0  0  0  0  0  0  0  0
   58.5320   33.1930   43.4240 C   0  0  0  0  0  0  0  0  0  0  0  0
   58.9494   33.7344   42.5622 H   0  0  0  0  0  0  0  0  0  0  0  0
   58.5210   33.7980   44.6910 C   0  0  0  0  0  0  0  0  0  0  0  0
   59.0440   35.1920   44.8660 C   0  0  0  0  0  0  0  0  0  0  0  0
   59.1294   35.4196   45.9388 H   0  0  0  0  0  0  0  0  0  0  0  0
   60.0341   35.2741   44.3938 H   0  0  0  0  0  0  0  0  0  0  0  0
   58.3523   35.9051   44.3938 H   0  0  0  0  0  0  0  0  0  0  0  0
   57.9650   33.1080   45.7790 C   0  0  0  0  0  0  0  0  0  0  0  0
   57.9350   33.5823   46.7711 H   0  0  0  0  0  0  0  0  0  0  0  0
   57.4490   31.8200   45.6070 C   0  0  0  0  0  0  0  0  0  0  0  0
   57.0281   31.2789   46.4673 H   0  0  0  0  0  0  0  0  0  0  0  0
   58.1140   23.1230   44.7040 C   0  0  0  0  0  0  0  0  0  0  0  0
   58.9750   23.2499   45.3768 H   0  0  0  0  0  0  0  0  0  0  0  0
   57.7420   21.8430   44.2840 C   0  0  0  0  0  0  0  0  0  0  0  0
   58.3127   20.9665   44.6247 H   0  0  0  0  0  0  0  0  0  0  0  0
  1  2  1  0
  2  3  1  0
  3  4  2  0
  4  5  1  0
  4  6  1  0
  6  7  1  0
  6  8  2  0
  8  9  1  0
  9 10  1  0
  9 11  2  0
 11 12  1  0
 12 13  2  0
 13 14  1  0
 13 15  1  0
 15 16  1  0
 15 17  2  0
 17 18  1  0
 17 19  1  0
 19 20  1  0
 19 21  2  0
 21 22  1  0
 22 23  1  0
 23 24  2  0
 23 25  2  0
 23 26  1  0
 26 27  2  0
 27 28  1  0
 27 29  1  0
 29 30  1  0
 29 31  2  0
 31 32  1  0
 32 33  1  0
 32 34  1  0
 32 35  1  0
 31 36  1  0
 36 37  1  0
 36 38  2  0
 38 39  1  0
  8 40  1  0
 40 41  1  0
 40 42  2  0
 42 43  1  0
 42  3  1  0
 21 12  1  0
 38 26  1  0
M  CHG  1  22  -1
M  END
>  <UniqueID>  (63) 
57

>  <SMILES>  (63) 
Cc1ccc(S(=O)(=O)[N-]c2cc(Cl)c(Cl)cc2/N=C/c2ccc(O)cc2)cc1

>  <Energy>  (63) 
54.47513292445503

>  <Genealogy>  (63) 
Cc1ccc(S(=O)(=O)[N-]c2cc(Cl)c(Cl)cc2N=Cc2ccc(O)cc2)cc1 (protonated)
Cc1ccc(S(=O)(=O)[N-]c2cc(Cl)c(Cl)cc2/N=C/c2ccc(O)cc2)cc1 (cis-trans isomerization)
Cc1ccc(S(=O)(=O)[N-]c2cc(Cl)c(Cl)cc2/N=C/c2ccc(O)cc2)cc1 (3D coordinates assigned)
Cc1ccc(S(=O)(=O)[N-]c2cc(Cl)c(Cl)cc2/N=C/c2ccc(O)cc2)cc1 (optimized conformer: 54.47513292445503 kcal/mol)

>  <smiles>  (63) 
Cc1ccc(S(=O)(=O)Nc2cc(Cl)c(Cl)cc2N=Cc2ccc(O)cc2)cc1

>  <score_type>  (63) 
oracle

>  <origin>  (63) 
adg

>  <m_score__min__energy>  (63) 
-11.039999999999999

>  <m_primary>  (63) 
energy

$$$$
63:0
     RDKit          3D

 26 26  0  0  0  0  0  0  0  0999 V2000
   55.0663   30.8494   43.8489 H   0  0  0  0  0  0  0  0  0  0  0  0
   55.8560   30.2610   44.3390 C   0  0  0  0  0  0  0  0  0  0  0  0
   55.6280   29.0340   44.8790 N   0  0  0  0  0  0  0  0  0  0  0  0
   56.7490   28.5130   45.4250 C   0  0  0  0  0  0  0  0  0  0  0  0
   56.8190   27.3530   46.0090 N   0  0  0  0  0  0  0  0  0  0  0  0
   56.0060   26.1900   45.7770 C   0  0  0  0  0  0  0  0  0  0  0  0
   54.7690   26.2710   45.9960 O   0  0  0  0  0  0  0  0  0  0  0  0
   56.5620   24.8860   45.2860 C   0  0  0  0  0  0  0  0  0  0  0  0
   56.8310   24.2551   46.1460 H   0  0  0  0  0  0  0  0  0  0  0  0
   55.8051   24.3711   44.6760 H   0  0  0  0  0  0  0  0  0  0  0  0
   57.4575   25.0757   44.6760 H   0  0  0  0  0  0  0  0  0  0  0  0
   58.0670   29.5430   45.2660 S   0  0  0  0  0  0  0  0  0  0  0  0
   57.1670   30.7140   44.4550 C   0  0  0  0  0  0  0  0  0  0  0  0
   57.6960   32.0320   43.9540 C   0  0  0  0  0  0  0  0  0  0  0  0
   58.3853   31.8346   43.1198 H   0  0  0  0  0  0  0  0  0  0  0  0
   56.8257   32.6312   43.6481 H   0  0  0  0  0  0  0  0  0  0  0  0
   58.4200   32.8160   44.9830 N   0  0  0  0  0  0  0  0  0  0  0  0
   59.2970   32.2870   45.2080 H   0  0  0  0  0  0  0  0  0  0  0  0
   58.8280   34.1440   44.4900 C   0  0  0  0  0  0  0  0  0  0  0  0
   59.0313   34.8059   45.3448 H   0  0  0  0  0  0  0  0  0  0  0  0
   59.7371   34.0448   43.8787 H   0  0  0  0  0  0  0  0  0  0  0  0
   58.0200   34.5723   43.8787 H   0  0  0  0  0  0  0  0  0  0  0  0
   57.6530   32.9380   46.2360 C   0  0  0  0  0  0  0  0  0  0  0  0
   58.3328   32.8299   47.0940 H   0  0  0  0  0  0  0  0  0  0  0  0
   57.1680   33.9246   46.2745 H   0  0  0  0  0  0  0  0  0  0  0  0
   56.8859   32.1506   46.2745 H   0  0  0  0  0  0  0  0  0  0  0  0
  1  2  1  0
  2  3  1  0
  3  4  1  0
  4  5  2  0
  5  6  1  0
  6  7  2  0
  6  8  1  0
  8  9  1  0
  8 10  1  0
  8 11  1  0
  4 12  1  0
 12 13  1  0
 13 14  1  0
 14 15  1  0
 14 16  1  0
 14 17  1  0
 17 18  1  0
 17 19  1  0
 19 20  1  0
 19 21  1  0
 19 22  1  0
 17 23  1  0
 23 24  1  0
 23 25  1  0
 23 26  1  0
 13  2  2  0
M  CHG  2   3  -1  17   1
M  END
>  <UniqueID>  (64) 
58

>  <SMILES>  (64) 
CC(=O)/N=c1\[n-]cc(C[NH+](C)C)s1

>  <Energy>  (64) 
56.96050095329041

>  <Genealogy>  (64) 
CC(=O)N=c1[n-]cc(C[NH+](C)C)s1 (protonated)
CC(=O)/N=c1\[n-]cc(C[NH+](C)C)s1 (cis-trans isomerization)
CC(=O)/N=c1\[n-]cc(C[NH+](C)C)s1 (3D coordinates assigned)
CC(=O)/N=c1\[n-]cc(C[NH+](C)C)s1 (optimized conformer: 56.96050095329041 kcal/mol)

>  <smiles>  (64) 
CC(=O)N=c1[nH]cc(CN(C)C)s1

>  <score_type>  (64) 
oracle

>  <origin>  (64) 
adg

>  <m_score__min__energy>  (64) 
-5.71

>  <m_primary>  (64) 
energy

$$$$
64:0
     RDKit          3D

 27 29  0  0  0  0  0  0  0  0999 V2000
   60.4930   30.3060   47.7250 O   0  0  0  0  0  0  0  0  0  0  0  0
   60.7510   30.4140   46.5000 C   0  0  0  0  0  0  0  0  0  0  0  0
   59.9220   29.7540   45.4800 C   0  0  0  0  0  0  0  0  0  0  0  0
   60.1920   28.4930   44.9560 C   0  0  0  0  0  0  0  0  0  0  0  0
   59.1460   28.0920   44.2060 N   0  0  0  0  0  0  0  0  0  0  0  0
   58.2360   29.0490   44.2270 N   0  0  0  0  0  0  0  0  0  0  0  0
   57.0160   29.0110   43.6360 C   0  0  0  0  0  0  0  0  0  0  0  0
   56.1800   30.1200   43.7970 C   0  0  0  0  0  0  0  0  0  0  0  0
   56.6250   31.2020   44.5000 N   0  0  0  0  0  0  0  0  0  0  0  0
   57.8600   31.2370   45.0820 C   0  0  0  0  0  0  0  0  0  0  0  0
   58.3150   32.5010   45.6870 C   0  0  0  0  0  0  0  0  0  0  0  0
   58.7690   33.5470   44.8690 C   0  0  0  0  0  0  0  0  0  0  0  0
   59.2420   34.7330   45.4390 C   0  0  0  0  0  0  0  0  0  0  0  0
   59.2840   34.8730   46.8290 C   0  0  0  0  0  0  0  0  0  0  0  0
   58.8580   33.8260   47.6510 C   0  0  0  0  0  0  0  0  0  0  0  0
   58.3830   32.6390   47.0840 C   0  0  0  0  0  0  0  0  0  0  0  0
   58.6680   30.0870   44.9650 C   0  0  0  0  0  0  0  0  0  0  0  0
   61.6159   31.0154   46.1835 H   0  0  0  0  0  0  0  0  0  0  0  0
   61.1125   27.9155   45.1267 H   0  0  0  0  0  0  0  0  0  0  0  0
   59.0490   27.1760   43.7160 H   0  0  0  0  0  0  0  0  0  0  0  0
   56.6951   28.1373   43.0498 H   0  0  0  0  0  0  0  0  0  0  0  0
   55.1705   30.1205   43.3601 H   0  0  0  0  0  0  0  0  0  0  0  0
   58.7527   33.4335   43.7750 H   0  0  0  0  0  0  0  0  0  0  0  0
   59.5812   35.5562   44.7931 H   0  0  0  0  0  0  0  0  0  0  0  0
   59.6526   35.8079   47.2763 H   0  0  0  0  0  0  0  0  0  0  0  0
   58.8963   33.9356   48.7449 H   0  0  0  0  0  0  0  0  0  0  0  0
   58.0618   31.8112   47.7332 H   0  0  0  0  0  0  0  0  0  0  0  0
  1  2  2  0
  2  3  1  0
  3  4  1  0
  4  5  2  0
  5  6  1  0
  6  7  1  0
  7  8  2  0
  8  9  1  0
  9 10  2  0
 10 11  1  0
 11 12  2  0
 12 13  1  0
 13 14  2  0
 14 15  1  0
 15 16  2  0
 10 17  1  0
 17  3  2  0
 17  6  1  0
 16 11  1  0
  2 18  1  0
  4 19  1  0
  5 20  1  0
  7 21  1  0
  8 22  1  0
 12 23  1  0
 13 24  1  0
 14 25  1  0
 15 26  1  0
 16 27  1  0
M  CHG  1   5   1
M  END
>  <UniqueID>  (65) 
59

>  <SMILES>  (65) 
O=Cc1c[nH+]n2ccnc(-c3ccccc3)c12

>  <Energy>  (65) 
78.67322686444174

>  <Genealogy>  (65) 
O=Cc1c[nH+]n2ccnc(-c3ccccc3)c12 (protonated)
O=Cc1c[nH+]n2ccnc(-c3ccccc3)c12 (3D coordinates assigned)
O=Cc1c[nH+]n2ccnc(-c3ccccc3)c12 (optimized conformer: 78.67322686444174 kcal/mol)

>  <smiles>  (65) 
O=Cc1cnn2ccnc(-c3ccccc3)c12

>  <score_type>  (65) 
oracle

>  <origin>  (65) 
adg

>  <m_score__min__energy>  (65) 
-5.0599999999999996

>  <m_primary>  (65) 
energy

$$$$
65:0
     RDKit          3D

 41 43  0  0  0  0  0  0  0  0999 V2000
   60.1540   33.2130   51.0340 C   0  0  0  0  0  0  0  0  0  0  0  0
   60.2740   32.0410   50.2340 O   0  0  0  0  0  0  0  0  0  0  0  0
   59.7360   31.9030   48.9470 C   0  0  0  0  0  0  0  0  0  0  0  0
   58.6490   32.6770   48.4950 C   0  0  0  0  0  0  0  0  0  0  0  0
   58.1470   32.5000   47.2020 C   0  0  0  0  0  0  0  0  0  0  0  0
   58.7190   31.5520   46.3420 C   0  0  0  0  0  0  0  0  0  0  0  0
   58.1820   31.3560   44.9780 C   0  0  0  0  0  0  0  0  0  0  0  0
   57.7230   30.1650   44.4190 C   0  0  0  0  0  0  0  0  0  0  0  0
   57.5550   28.8510   45.0800 C   0  0  0  0  0  0  0  0  0  0  0  0
   58.6640   28.1520   45.5850 C   0  0  0  0  0  0  0  0  0  0  0  0
   58.4950   26.9140   46.2100 C   0  0  0  0  0  0  0  0  0  0  0  0
   57.2180   26.3620   46.3520 C   0  0  0  0  0  0  0  0  0  0  0  0
   57.0770   25.1250   46.9780 O   0  0  0  0  0  0  0  0  0  0  0  0
   56.1010   27.0620   45.8630 C   0  0  0  0  0  0  0  0  0  0  0  0
   54.8230   26.5310   45.9970 O   0  0  0  0  0  0  0  0  0  0  0  0
   56.2710   28.3010   45.2360 C   0  0  0  0  0  0  0  0  0  0  0  0
   57.3970   30.4470   43.1040 C   0  0  0  0  0  0  0  0  0  0  0  0
   57.6230   31.7490   42.8430 N   0  0  0  0  0  0  0  0  0  0  0  0
   57.4190   32.4020   41.5520 C   0  0  0  0  0  0  0  0  0  0  0  0
   58.1240   32.3080   43.9670 C   0  0  0  0  0  0  0  0  0  0  0  0
   58.5430   33.7460   44.0820 C   0  0  0  0  0  0  0  0  0  0  0  0
   59.8030   30.7820   46.7920 C   0  0  0  0  0  0  0  0  0  0  0  0
   60.3040   30.9580   48.0850 C   0  0  0  0  0  0  0  0  0  0  0  0
   60.1824   32.9352   52.0980 H   0  0  0  0  0  0  0  0  0  0  0  0
   60.9869   33.8960   50.8110 H   0  0  0  0  0  0  0  0  0  0  0  0
   59.2000   33.7131   50.8110 H   0  0  0  0  0  0  0  0  0  0  0  0
   58.1933   33.4236   49.1620 H   0  0  0  0  0  0  0  0  0  0  0  0
   57.2979   33.1085   46.8574 H   0  0  0  0  0  0  0  0  0  0  0  0
   59.6717   28.5821   45.4877 H   0  0  0  0  0  0  0  0  0  0  0  0
   59.3714   26.3704   46.5926 H   0  0  0  0  0  0  0  0  0  0  0  0
   56.1750   24.6760   47.0860 H   0  0  0  0  0  0  0  0  0  0  0  0
   55.3933   28.8488   44.8623 H   0  0  0  0  0  0  0  0  0  0  0  0
   57.0104   29.7158   42.3789 H   0  0  0  0  0  0  0  0  0  0  0  0
   57.0945   33.4406   41.7136 H   0  0  0  0  0  0  0  0  0  0  0  0
   58.3617   32.3964   40.9852 H   0  0  0  0  0  0  0  0  0  0  0  0
   56.6471   31.8607   40.9852 H   0  0  0  0  0  0  0  0  0  0  0  0
   58.6231   34.0208   45.1441 H   0  0  0  0  0  0  0  0  0  0  0  0
   59.5187   33.8839   43.5930 H   0  0  0  0  0  0  0  0  0  0  0  0
   57.7941   34.3864   43.5930 H   0  0  0  0  0  0  0  0  0  0  0  0
   60.2601   30.0369   46.1243 H   0  0  0  0  0  0  0  0  0  0  0  0
   61.1526   30.3481   48.4282 H   0  0  0  0  0  0  0  0  0  0  0  0
  1  2  1  0
  2  3  1  0
  3  4  2  0
  4  5  1  0
  5  6  2  0
  6  7  1  0
  7  8  1  0
  8  9  1  0
  9 10  2  0
 10 11  1  0
 11 12  2  0
 12 13  1  0
 12 14  1  0
 14 15  1  0
 14 16  2  0
  8 17  2  0
 17 18  1  0
 18 19  1  0
 18 20  1  0
 20 21  1  0
  6 22  1  0
 22 23  2  0
 23  3  1  0
 20  7  2  0
 16  9  1  0
  1 24  1  0
  1 25  1  0
  1 26  1  0
  4 27  1  0
  5 28  1  0
 10 29  1  0
 11 30  1  0
 13 31  1  0
 16 32  1  0
 17 33  1  0
 19 34  1  0
 19 35  1  0
 19 36  1  0
 21 37  1  0
 21 38  1  0
 21 39  1  0
 22 40  1  0
 23 41  1  0
M  CHG  1  15  -1
M  END
>  <UniqueID>  (66) 
60

>  <SMILES>  (66) 
COc1ccc(-c2c(-c3ccc(O)c([O-])c3)cn(C)c2C)cc1

>  <Energy>  (66) 
76.71299451431679

>  <Genealogy>  (66) 
COc1ccc(-c2c(-c3ccc(O)c([O-])c3)cn(C)c2C)cc1 (protonated)
COc1ccc(-c2c(-c3ccc(O)c([O-])c3)cn(C)c2C)cc1 (3D coordinates assigned)
COc1ccc(-c2c(-c3ccc(O)c([O-])c3)cn(C)c2C)cc1 (optimized conformer: 76.71299451431679 kcal/mol)

>  <smiles>  (66) 
COc1ccc(-c2c(-c3ccc(O)c(O)c3)cn(C)c2C)cc1

>  <score_type>  (66) 
oracle

>  <origin>  (66) 
adg

>  <m_score__min__energy>  (66) 
-9.8699999999999992

>  <m_primary>  (66) 
energy

$$$$
66:0
     RDKit          3D

 26 28  0  0  1  0  0  0  0  0999 V2000
   58.2630   25.6300   45.6920 C   0  0  0  0  0  0  0  0  0  0  0  0
   57.9800   27.0580   45.7440 N   0  0  0  0  0  0  0  0  0  0  0  0
   58.6950   27.9320   46.4520 C   0  0  0  0  0  0  0  0  0  0  0  0
   58.1700   29.2200   46.2930 C   0  0  0  0  0  0  0  0  0  0  0  0
   57.0870   29.0390   45.4340 C   0  0  0  0  0  0  0  0  0  0  0  0
   56.2890   29.9800   45.0010 N   0  0  0  0  0  0  0  0  0  0  0  0
   56.9030   30.9430   44.1520 C   0  0  0  0  0  0  0  0  0  0  0  0
   56.8190   30.6980   42.7830 C   0  0  0  0  0  0  0  0  0  0  0  0
   57.3980   31.6010   41.9260 C   0  0  0  0  0  0  0  0  0  0  0  0
   58.0280   32.6940   42.4070 N   0  0  0  0  0  0  0  0  0  0  0  0
   58.1110   32.9370   43.7310 C   0  0  0  0  0  0  0  0  0  0  0  0
   58.6630   33.9220   44.4860 N   0  0  0  0  0  0  0  0  0  0  0  0
   58.4550   33.6730   45.7700 N   0  0  0  0  0  0  0  0  0  0  0  0
   57.7620   32.5230   45.9210 C   0  0  0  0  0  0  0  0  0  0  0  0
   57.5470   32.0630   44.6390 C   0  0  0  0  0  0  0  0  0  0  0  0
   57.0000   27.7210   45.1200 N   0  0  0  0  0  0  0  0  0  0  0  0
   58.3414   25.2342   46.7153 H   0  0  0  0  0  0  0  0  0  0  0  0
   57.4496   25.1141   45.1607 H   0  0  0  0  0  0  0  0  0  0  0  0
   59.2116   25.4633   45.1607 H   0  0  0  0  0  0  0  0  0  0  0  0
   59.5689   27.6786   47.0702 H   0  0  0  0  0  0  0  0  0  0  0  0
   58.5290   30.1579   46.7420 H   0  0  0  0  0  0  0  0  0  0  0  0
   56.3029   29.8056   42.3993 H   0  0  0  0  0  0  0  0  0  0  0  0
   57.3483   31.4328   40.8401 H   0  0  0  0  0  0  0  0  0  0  0  0
   59.1610   34.7230   44.0310 H   0  0  0  0  0  0  0  0  0  0  0  0
   57.4392   32.0550   46.8627 H   0  0  0  0  0  0  0  0  0  0  0  0
   56.3000   27.2560   44.5000 H   0  0  0  0  0  0  0  0  0  0  0  0
  1  2  1  0
  2  3  1  0
  3  4  2  0
  4  5  1  0
  5  6  2  0
  6  7  1  0
  7  8  2  0
  8  9  1  0
  9 10  2  0
 10 11  1  0
 11 12  1  0
 12 13  1  0
 13 14  2  0
 14 15  1  0
  5 16  1  0
 16  2  1  0
 15  7  1  0
 15 11  2  0
  1 17  1  0
  1 18  1  0
  1 19  1  0
  3 20  1  0
  4 21  1  0
  8 22  1  0
  9 23  1  0
 12 24  1  0
 14 25  1  0
 16 26  1  0
M  END
>  <smiles>  (67) 
Cn1ccc(=Nc2ccnc3[nH]ncc23)[nH]1

>  <score_type>  (67) 
oracle

>  <origin>  (67) 
adg

>  <m_score__min__energy>  (67) 
-6.1699999999999999

>  <m_primary>  (67) 
energy

$$$$
67:0
     RDKit          3D

 35 37  0  0  1  0  0  0  0  0999 V2000
   56.4860   29.4530   42.7370 N   0  0  0  0  0  0  0  0  0  0  0  0
   56.3690   29.5990   44.1480 C   0  0  0  0  0  0  0  0  0  0  0  0
   55.2500   29.3660   44.6800 O   0  0  0  0  0  0  0  0  0  0  0  0
   57.5050   30.0040   44.9520 C   0  0  0  0  0  0  0  0  0  0  0  0
   58.4510   29.1110   45.4050 C   0  0  0  0  0  0  0  0  0  0  0  0
   59.5410   29.5130   46.1790 C   0  0  0  0  0  0  0  0  0  0  0  0
   59.7000   30.8410   46.5170 C   0  0  0  0  0  0  0  0  0  0  0  0
   58.7460   31.7280   46.0570 C   0  0  0  0  0  0  0  0  0  0  0  0
   58.8730   33.0650   46.3750 C   0  0  0  0  0  0  0  0  0  0  0  0
   59.8590   33.4440   47.0780 N   0  0  0  0  0  0  0  0  0  0  0  0
   61.2030   33.7130   46.6210 C   0  0  0  0  0  0  0  0  0  0  0  0
   62.2140   33.6040   47.7330 C   0  0  0  0  0  0  0  0  0  0  0  0
   63.4070   32.9330   47.5750 C   0  0  0  0  0  0  0  0  0  0  0  0
   64.3270   32.8470   48.6190 C   0  0  0  0  0  0  0  0  0  0  0  0
   64.0370   33.4460   49.8370 C   0  0  0  0  0  0  0  0  0  0  0  0
   62.8330   34.1290   50.0120 C   0  0  0  0  0  0  0  0  0  0  0  0
   61.9200   34.2080   48.9560 C   0  0  0  0  0  0  0  0  0  0  0  0
   57.9900   33.9880   45.9670 N   0  0  0  0  0  0  0  0  0  0  0  0
   56.9540   33.5950   45.2300 C   0  0  0  0  0  0  0  0  0  0  0  0
   56.7860   32.2870   44.8910 N   0  0  0  0  0  0  0  0  0  0  0  0
   57.6630   31.3340   45.2890 C   0  0  0  0  0  0  0  0  0  0  0  0
   57.4010   29.3990   42.2380 H   0  0  0  0  0  0  0  0  0  0  0  0
   55.6340   29.3940   42.1300 H   0  0  0  0  0  0  0  0  0  0  0  0
   58.3441   28.0467   45.1485 H   0  0  0  0  0  0  0  0  0  0  0  0
   60.2754   28.7686   46.5204 H   0  0  0  0  0  0  0  0  0  0  0  0
   60.5505   31.1794   47.1270 H   0  0  0  0  0  0  0  0  0  0  0  0
   61.4616   32.9886   45.8347 H   0  0  0  0  0  0  0  0  0  0  0  0
   61.2302   34.7443   46.2393 H   0  0  0  0  0  0  0  0  0  0  0  0
   63.6372   32.4577   46.6100 H   0  0  0  0  0  0  0  0  0  0  0  0
   65.2758   32.3084   48.4784 H   0  0  0  0  0  0  0  0  0  0  0  0
   64.7576   33.3822   50.6657 H   0  0  0  0  0  0  0  0  0  0  0  0
   62.6029   34.6036   50.9773 H   0  0  0  0  0  0  0  0  0  0  0  0
   60.9700   34.7463   49.0893 H   0  0  0  0  0  0  0  0  0  0  0  0
   58.0910   34.9770   46.2080 H   0  0  0  0  0  0  0  0  0  0  0  0
   56.2203   34.3401   44.8886 H   0  0  0  0  0  0  0  0  0  0  0  0
  1  2  1  0
  2  3  2  0
  2  4  1  0
  4  5  2  0
  5  6  1  0
  6  7  2  0
  7  8  1  0
  8  9  1  0
  9 10  2  0
 10 11  1  0
 11 12  1  0
 12 13  2  0
 13 14  1  0
 14 15  2  0
 15 16  1  0
 16 17  2  0
  9 18  1  0
 18 19  1  0
 19 20  2  0
 20 21  1  0
 21  4  1  0
 21  8  2  0
 17 12  1  0
  1 22  1  0
  1 23  1  0
  5 24  1  0
  6 25  1  0
  7 26  1  0
 11 27  1  0
 11 28  1  0
 13 29  1  0
 14 30  1  0
 15 31  1  0
 16 32  1  0
 17 33  1  0
 18 34  1  0
 19 35  1  0
M  END
>  <smiles>  (68) 
NC(=O)c1cccc2c(=NCc3ccccc3)[nH]cnc12

>  <score_type>  (68) 
oracle

>  <origin>  (68) 
adg

>  <m_score__min__energy>  (68) 
-8.0700000000000003

>  <m_primary>  (68) 
energy

$$$$
68:0
     RDKit          3D

 39 41  0  0  0  0  0  0  0  0999 V2000
   58.2430   33.3970   44.4480 C   0  0  0  0  0  0  0  0  0  0  0  0
   58.5170   32.0090   44.9620 C   0  0  0  0  0  0  0  0  0  0  0  0
   59.3050   31.7410   46.0920 C   0  0  0  0  0  0  0  0  0  0  0  0
   59.9220   32.7160   47.0170 C   0  0  0  0  0  0  0  0  0  0  0  0
   61.3190   32.8420   47.1060 C   0  0  0  0  0  0  0  0  0  0  0  0
   61.8900   33.7820   47.9700 C   0  0  0  0  0  0  0  0  0  0  0  0
   61.0720   34.6120   48.7410 C   0  0  0  0  0  0  0  0  0  0  0  0
   59.6810   34.5060   48.6460 C   0  0  0  0  0  0  0  0  0  0  0  0
   59.1070   33.5670   47.7830 C   0  0  0  0  0  0  0  0  0  0  0  0
   59.4410   30.0740   46.2710 S   0  0  0  0  0  0  0  0  0  0  0  0
   58.5070   29.6700   44.9350 C   0  0  0  0  0  0  0  0  0  0  0  0
   58.1000   28.3420   44.5810 N   0  0  0  0  0  0  0  0  0  0  0  0
   56.9860   27.6380   45.1440 C   0  0  0  0  0  0  0  0  0  0  0  0
   55.8810   28.2360   45.2450 O   0  0  0  0  0  0  0  0  0  0  0  0
   57.0840   26.2260   45.5750 C   0  0  0  0  0  0  0  0  0  0  0  0
   58.3430   25.6080   45.6550 C   0  0  0  0  0  0  0  0  0  0  0  0
   58.4520   24.2720   46.0540 C   0  0  0  0  0  0  0  0  0  0  0  0
   57.3070   23.5460   46.3890 C   0  0  0  0  0  0  0  0  0  0  0  0
   56.0510   24.1560   46.3330 C   0  0  0  0  0  0  0  0  0  0  0  0
   55.9350   25.4920   45.9350 C   0  0  0  0  0  0  0  0  0  0  0  0
   54.7080   26.0730   45.9300 F   0  0  0  0  0  0  0  0  0  0  0  0
   58.0420   30.8360   44.3260 C   0  0  0  0  0  0  0  0  0  0  0  0
   57.1360   30.8310   43.1550 C   0  0  0  0  0  0  0  0  0  0  0  0
   56.2370   29.7450   42.9270 N   0  0  0  0  0  0  0  0  0  0  0  0
   57.1550   31.7950   42.3430 O   0  0  0  0  0  0  0  0  0  0  0  0
   58.1077   34.0825   45.2976 H   0  0  0  0  0  0  0  0  0  0  0  0
   59.0917   33.7353   43.8354 H   0  0  0  0  0  0  0  0  0  0  0  0
   57.3294   33.3874   43.8354 H   0  0  0  0  0  0  0  0  0  0  0  0
   61.9666   32.1980   46.4930 H   0  0  0  0  0  0  0  0  0  0  0  0
   62.9842   33.8680   48.0427 H   0  0  0  0  0  0  0  0  0  0  0  0
   61.5223   35.3487   49.4226 H   0  0  0  0  0  0  0  0  0  0  0  0
   59.0375   35.1619   49.2507 H   0  0  0  0  0  0  0  0  0  0  0  0
   58.0123   33.4942   47.7034 H   0  0  0  0  0  0  0  0  0  0  0  0
   59.2489   26.1785   45.4022 H   0  0  0  0  0  0  0  0  0  0  0  0
   59.4407   23.7925   46.1040 H   0  0  0  0  0  0  0  0  0  0  0  0
   57.3938   22.4936   46.6971 H   0  0  0  0  0  0  0  0  0  0  0  0
   55.1510   23.5840   46.6027 H   0  0  0  0  0  0  0  0  0  0  0  0
   56.2810   28.8750   43.5020 H   0  0  0  0  0  0  0  0  0  0  0  0
   55.5680   29.7780   42.1250 H   0  0  0  0  0  0  0  0  0  0  0  0
  1  2  1  0
  2  3  2  0
  3  4  1  0
  4  5  2  0
  5  6  1  0
  6  7  2  0
  7  8  1  0
  8  9  2  0
  3 10  1  0
 10 11  1  0
 11 12  1  0
 12 13  1  0
 13 14  2  0
 13 15  1  0
 15 16  2  0
 16 17  1  0
 17 18  2  0
 18 19  1  0
 19 20  2  0
 20 21  1  0
 11 22  2  0
 22 23  1  0
 23 24  1  0
 23 25  2  0
 22  2  1  0
  9  4  1  0
 20 15  1  0
  1 26  1  0
  1 27  1  0
  1 28  1  0
  5 29  1  0
  6 30  1  0
  7 31  1  0
  8 32  1  0
  9 33  1  0
 16 34  1  0
 17 35  1  0
 18 36  1  0
 19 37  1  0
 24 38  1  0
 24 39  1  0
M  CHG  1  12  -1
M  END
>  <UniqueID>  (69) 
61

>  <SMILES>  (69) 
Cc1c(-c2ccccc2)sc([N-]C(=O)c2ccccc2F)c1C(N)=O

>  <Energy>  (69) 
82.41255308954271

>  <Genealogy>  (69) 
Cc1c(-c2ccccc2)sc([N-]C(=O)c2ccccc2F)c1C(N)=O (protonated)
Cc1c(-c2ccccc2)sc([N-]C(=O)c2ccccc2F)c1C(N)=O (3D coordinates assigned)
Cc1c(-c2ccccc2)sc([N-]C(=O)c2ccccc2F)c1C(N)=O (optimized conformer: 82.41255308954271 kcal/mol)

>  <smiles>  (69) 
Cc1c(-c2ccccc2)sc(NC(=O)c2ccccc2F)c1C(N)=O

>  <score_type>  (69) 
oracle

>  <origin>  (69) 
adg

>  <m_score__min__energy>  (69) 
-9.8900000000000006

>  <m_primary>  (69) 
energy

$$$$
69:0
     RDKit          3D

 24 25  0  0  0  0  0  0  0  0999 V2000
   57.8841   27.6461   43.3025 H   0  0  0  0  0  0  0  0  0  0  0  0
   57.5600   28.3980   44.0370 C   0  0  0  0  0  0  0  0  0  0  0  0
   57.8680   28.1780   45.4660 C   0  0  0  0  0  0  0  0  0  0  0  0
   58.9260   28.6700   45.9360 O   0  0  0  0  0  0  0  0  0  0  0  0
   56.9910   27.4590   46.3490 N   0  0  0  0  0  0  0  0  0  0  0  0
   56.3340   26.3800   46.0440 C   0  0  0  0  0  0  0  0  0  0  0  0
   54.9850   26.2970   45.9990 N   0  0  0  0  0  0  0  0  0  0  0  0
   54.5780   25.0560   45.6230 C   0  0  0  0  0  0  0  0  0  0  0  0
   53.5154   24.7851   45.5361 H   0  0  0  0  0  0  0  0  0  0  0  0
   55.6020   24.1530   45.3560 C   0  0  0  0  0  0  0  0  0  0  0  0
   55.4744   23.1076   45.0386 H   0  0  0  0  0  0  0  0  0  0  0  0
   57.0700   24.9380   45.6030 S   0  0  0  0  0  0  0  0  0  0  0  0
   56.9000   29.4810   43.6050 C   0  0  0  0  0  0  0  0  0  0  0  0
   56.0286   29.3273   42.9515 H   0  0  0  0  0  0  0  0  0  0  0  0
   57.2700   30.8700   43.9520 C   0  0  0  0  0  0  0  0  0  0  0  0
   57.0280   31.3000   45.2220 N   0  0  0  0  0  0  0  0  0  0  0  0
   57.3210   32.5630   45.6290 C   0  0  0  0  0  0  0  0  0  0  0  0
   57.1145   32.8683   46.6654 H   0  0  0  0  0  0  0  0  0  0  0  0
   57.8830   33.4720   44.7340 C   0  0  0  0  0  0  0  0  0  0  0  0
   58.1281   34.4938   45.0593 H   0  0  0  0  0  0  0  0  0  0  0  0
   58.1310   33.0710   43.4210 C   0  0  0  0  0  0  0  0  0  0  0  0
   58.5689   33.7795   42.7024 H   0  0  0  0  0  0  0  0  0  0  0  0
   57.8230   31.7700   43.0200 C   0  0  0  0  0  0  0  0  0  0  0  0
   58.0106   31.4500   41.9844 H   0  0  0  0  0  0  0  0  0  0  0  0
  1  2  1  0
  2  3  1  0
  3  4  2  0
  3  5  1  0
  5  6  2  3
  6  7  1  0
  7  8  1  0
  8  9  1  0
  8 10  2  0
 10 11  1  0
 10 12  1  0
  2 13  2  0
 13 14  1  0
 13 15  1  0
 15 16  2  0
 16 17  1  0
 17 18  1  0
 17 19  2  0
 19 20  1  0
 19 21  1  0
 21 22  1  0
 21 23  2  0
 23 24  1  0
 12  6  1  0
 23 15  1  0
M  CHG  1   7  -1
M  END
>  <UniqueID>  (70) 
62

>  <SMILES>  (70) 
O=C(/C=C/c1ccccn1)N=c1[n-]ccs1

>  <Energy>  (70) 
63.08082015416554

>  <Genealogy>  (70) 
O=C(C=Cc1ccccn1)N=c1[n-]ccs1 (protonated)
O=C(/C=C/c1ccccn1)N=c1[n-]ccs1 (cis-trans isomerization)
O=C(/C=C/c1ccccn1)N=c1[n-]ccs1 (3D coordinates assigned)
O=C(/C=C/c1ccccn1)N=c1[n-]ccs1 (optimized conformer: 63.08082015416554 kcal/mol)

>  <smiles>  (70) 
O=C(C=Cc1ccccn1)N=c1[nH]ccs1

>  <score_type>  (70) 
oracle

>  <origin>  (70) 
adg

>  <m_score__min__energy>  (70) 
-8.75

>  <m_primary>  (70) 
energy

$$$$
70:0
     RDKit          3D

 38 40  0  0  0  0  0  0  0  0999 V2000
   55.3880   26.2220   46.0090 O   0  0  0  0  0  0  0  0  0  0  0  0
   56.2710   27.1110   45.8620 C   0  0  0  0  0  0  0  0  0  0  0  0
   55.9260   28.3560   45.2480 N   0  0  0  0  0  0  0  0  0  0  0  0
   57.0290   29.2340   44.2420 S   0  0  0  0  0  0  0  0  0  0  0  0
   57.5950   28.3040   43.2060 O   0  0  0  0  0  0  0  0  0  0  0  0
   56.2940   30.3470   43.5510 O   0  0  0  0  0  0  0  0  0  0  0  0
   58.3100   29.9210   45.2340 C   0  0  0  0  0  0  0  0  0  0  0  0
   58.0840   31.0720   46.0000 C   0  0  0  0  0  0  0  0  0  0  0  0
   59.1120   31.6130   46.7790 C   0  0  0  0  0  0  0  0  0  0  0  0
   60.3830   31.0100   46.8040 C   0  0  0  0  0  0  0  0  0  0  0  0
   61.4760   31.5820   47.6320 C   0  0  0  0  0  0  0  0  0  0  0  0
   61.2610   31.9180   48.9800 C   0  0  0  0  0  0  0  0  0  0  0  0
   62.2980   32.4580   49.7420 C   0  0  0  0  0  0  0  0  0  0  0  0
   63.5470   32.6580   49.1560 C   0  0  0  0  0  0  0  0  0  0  0  0
   63.7500   32.3300   47.8510 N   0  0  0  0  0  0  0  0  0  0  0  0
   62.7550   31.8040   47.0860 C   0  0  0  0  0  0  0  0  0  0  0  0
   60.6010   29.8530   46.0310 C   0  0  0  0  0  0  0  0  0  0  0  0
   59.5710   29.3150   45.2530 C   0  0  0  0  0  0  0  0  0  0  0  0
   57.6560   26.8640   46.3250 C   0  0  0  0  0  0  0  0  0  0  0  0
   58.4960   25.9700   45.6330 C   0  0  0  0  0  0  0  0  0  0  0  0
   59.8010   25.7360   46.0760 C   0  0  0  0  0  0  0  0  0  0  0  0
   60.2830   26.3910   47.2120 C   0  0  0  0  0  0  0  0  0  0  0  0
   59.4610   27.2820   47.9060 C   0  0  0  0  0  0  0  0  0  0  0  0
   58.1550   27.5190   47.4670 C   0  0  0  0  0  0  0  0  0  0  0  0
   57.0944   31.5521   45.9888 H   0  0  0  0  0  0  0  0  0  0  0  0
   58.9253   32.5172   47.3769 H   0  0  0  0  0  0  0  0  0  0  0  0
   60.2730   31.7549   49.4353 H   0  0  0  0  0  0  0  0  0  0  0  0
   62.1312   32.7236   50.7963 H   0  0  0  0  0  0  0  0  0  0  0  0
   64.3703   33.0819   49.7498 H   0  0  0  0  0  0  0  0  0  0  0  0
   64.6900   32.4920   47.4250 H   0  0  0  0  0  0  0  0  0  0  0  0
   62.9511   31.5504   46.0337 H   0  0  0  0  0  0  0  0  0  0  0  0
   61.5888   29.3690   46.0393 H   0  0  0  0  0  0  0  0  0  0  0  0
   59.7530   28.4111   44.6531 H   0  0  0  0  0  0  0  0  0  0  0  0
   58.1224   25.4521   44.7373 H   0  0  0  0  0  0  0  0  0  0  0  0
   60.4493   25.0352   45.5295 H   0  0  0  0  0  0  0  0  0  0  0  0
   61.3098   26.2051   47.5599 H   0  0  0  0  0  0  0  0  0  0  0  0
   59.8420   27.7981   48.7996 H   0  0  0  0  0  0  0  0  0  0  0  0
   57.5128   28.2221   48.0177 H   0  0  0  0  0  0  0  0  0  0  0  0
  1  2  2  0
  2  3  1  0
  3  4  1  0
  4  5  2  0
  4  6  2  0
  4  7  1  0
  7  8  2  0
  8  9  1  0
  9 10  2  0
 10 11  1  0
 11 12  2  0
 12 13  1  0
 13 14  2  0
 14 15  1  0
 15 16  2  0
 10 17  1  0
 17 18  2  0
  2 19  1  0
 19 20  2  0
 20 21  1  0
 21 22  2  0
 22 23  1  0
 23 24  2  0
 18  7  1  0
 24 19  1  0
 16 11  1  0
  8 25  1  0
  9 26  1  0
 12 27  1  0
 13 28  1  0
 14 29  1  0
 15 30  1  0
 16 31  1  0
 17 32  1  0
 18 33  1  0
 20 34  1  0
 21 35  1  0
 22 36  1  0
 23 37  1  0
 24 38  1  0
M  CHG  2   3  -1  15   1
M  END
>  <UniqueID>  (71) 
63

>  <SMILES>  (71) 
O=C([N-]S(=O)(=O)c1ccc(-c2ccc[nH+]c2)cc1)c1ccccc1

>  <Energy>  (71) 
48.860346824088396

>  <Genealogy>  (71) 
O=C([N-]S(=O)(=O)c1ccc(-c2ccc[nH+]c2)cc1)c1ccccc1 (protonated)
O=C([N-]S(=O)(=O)c1ccc(-c2ccc[nH+]c2)cc1)c1ccccc1 (3D coordinates assigned)
O=C([N-]S(=O)(=O)c1ccc(-c2ccc[nH+]c2)cc1)c1ccccc1 (optimized conformer: 48.860346824088396 kcal/mol)

>  <smiles>  (71) 
O=C(NS(=O)(=O)c1ccc(-c2cccnc2)cc1)c1ccccc1

>  <score_type>  (71) 
oracle

>  <origin>  (71) 
adg

>  <m_score__min__energy>  (71) 
-9.3100000000000005

>  <m_primary>  (71) 
energy

$$$$
71:0
     RDKit          3D

 61 65  0  0  0  0  0  0  0  0999 V2000
   60.3250   28.0530   48.1330 C   0  0  0  0  0  0  0  0  0  0  0  0
   59.6370   27.7380   46.9260 O   0  0  0  0  0  0  0  0  0  0  0  0
   58.5140   26.9000   46.8430 C   0  0  0  0  0  0  0  0  0  0  0  0
   58.4920   25.6200   47.4350 C   0  0  0  0  0  0  0  0  0  0  0  0
   57.3640   24.8050   47.3110 C   0  0  0  0  0  0  0  0  0  0  0  0
   56.2510   25.2530   46.5980 C   0  0  0  0  0  0  0  0  0  0  0  0
   56.2590   26.5180   46.0100 C   0  0  0  0  0  0  0  0  0  0  0  0
   57.3850   27.3500   46.1340 C   0  0  0  0  0  0  0  0  0  0  0  0
   57.3850   28.6530   45.5240 N   0  0  0  0  0  0  0  0  0  0  0  0
   58.0910   29.7610   46.1750 C   0  0  0  0  0  0  0  0  0  0  0  0
   58.7560   30.6420   45.1170 C   0  0  0  0  0  0  0  0  0  0  0  0
   57.7860   30.9770   44.0660 N   0  0  0  0  0  0  0  0  0  0  0  0
   57.8060   32.2730   43.4410 C   0  0  0  0  0  0  0  0  0  0  0  0
   57.7940   32.3610   42.1820 O   0  0  0  0  0  0  0  0  0  0  0  0
   57.8390   33.5310   44.2700 C   0  0  0  0  0  0  0  0  0  0  0  0
   57.1270   33.3560   45.6190 C   0  0  0  0  0  0  0  0  0  0  0  0
   57.7470   34.2290   46.7180 C   0  0  0  0  0  0  0  0  0  0  0  0
   58.9790   33.6060   47.2250 N   0  0  0  0  0  0  0  0  0  0  0  0
   60.2650   34.0060   46.7100 C   0  0  0  0  0  0  0  0  0  0  0  0
   60.3380   34.8640   45.7880 O   0  0  0  0  0  0  0  0  0  0  0  0
   61.5030   33.4100   47.2640 C   0  0  0  0  0  0  0  0  0  0  0  0
   62.7610   33.7770   46.7560 C   0  0  0  0  0  0  0  0  0  0  0  0
   63.9280   33.2150   47.2770 C   0  0  0  0  0  0  0  0  0  0  0  0
   63.8590   32.2820   48.3100 C   0  0  0  0  0  0  0  0  0  0  0  0
   62.6160   31.9000   48.8360 C   0  0  0  0  0  0  0  0  0  0  0  0
   62.5470   30.9640   49.8760 C   0  0  0  0  0  0  0  0  0  0  0  0
   61.3100   30.5870   50.4000 C   0  0  0  0  0  0  0  0  0  0  0  0
   60.1320   31.1400   49.8960 C   0  0  0  0  0  0  0  0  0  0  0  0
   60.1750   32.0810   48.8510 C   0  0  0  0  0  0  0  0  0  0  0  0
   61.4240   32.4670   48.3120 C   0  0  0  0  0  0  0  0  0  0  0  0
   58.9260   32.6710   48.3200 C   0  0  0  0  0  0  0  0  0  0  0  0
   57.8140   32.3600   48.8300 O   0  0  0  0  0  0  0  0  0  0  0  0
   57.0760   29.8700   43.4150 C   0  0  0  0  0  0  0  0  0  0  0  0
   56.4210   28.9730   44.4660 C   0  0  0  0  0  0  0  0  0  0  0  0
   59.7031   27.7683   48.9945 H   0  0  0  0  0  0  0  0  0  0  0  0
   61.2754   27.5003   48.1682 H   0  0  0  0  0  0  0  0  0  0  0  0
   60.5277   29.1336   48.1682 H   0  0  0  0  0  0  0  0  0  0  0  0
   59.3671   25.2617   47.9970 H   0  0  0  0  0  0  0  0  0  0  0  0
   57.3531   23.8083   47.7762 H   0  0  0  0  0  0  0  0  0  0  0  0
   55.3658   24.6074   46.4995 H   0  0  0  0  0  0  0  0  0  0  0  0
   55.3804   26.8658   45.4469 H   0  0  0  0  0  0  0  0  0  0  0  0
   57.3737   30.3622   46.7529 H   0  0  0  0  0  0  0  0  0  0  0  0
   58.8612   29.3564   46.8481 H   0  0  0  0  0  0  0  0  0  0  0  0
   59.1182   31.5677   45.5880 H   0  0  0  0  0  0  0  0  0  0  0  0
   59.6012   30.0976   44.6706 H   0  0  0  0  0  0  0  0  0  0  0  0
   58.8879   33.8051   44.4561 H   0  0  0  0  0  0  0  0  0  0  0  0
   57.3126   34.3180   43.7101 H   0  0  0  0  0  0  0  0  0  0  0  0
   56.0693   33.6338   45.5002 H   0  0  0  0  0  0  0  0  0  0  0  0
   57.2324   32.3041   45.9230 H   0  0  0  0  0  0  0  0  0  0  0  0
   57.9844   35.2202   46.3043 H   0  0  0  0  0  0  0  0  0  0  0  0
   57.0287   34.3302   47.5449 H   0  0  0  0  0  0  0  0  0  0  0  0
   62.8267   34.5131   45.9412 H   0  0  0  0  0  0  0  0  0  0  0  0
   64.9065   33.5100   46.8703 H   0  0  0  0  0  0  0  0  0  0  0  0
   64.7831   31.8434   48.7145 H   0  0  0  0  0  0  0  0  0  0  0  0
   63.4708   30.5249   50.2807 H   0  0  0  0  0  0  0  0  0  0  0  0
   61.2631   29.8497   51.2150 H   0  0  0  0  0  0  0  0  0  0  0  0
   59.1626   30.8379   50.3190 H   0  0  0  0  0  0  0  0  0  0  0  0
   56.3001   30.2769   42.7499 H   0  0  0  0  0  0  0  0  0  0  0  0
   57.7950   29.2751   42.8327 H   0  0  0  0  0  0  0  0  0  0  0  0
   55.5587   29.4962   44.9050 H   0  0  0  0  0  0  0  0  0  0  0  0
   56.0876   28.0404   43.9874 H   0  0  0  0  0  0  0  0  0  0  0  0
  1  2  1  0
  2  3  1  0
  3  4  2  0
  4  5  1  0
  5  6  2  0
  6  7  1  0
  7  8  2  0
  8  9  1  0
  9 10  1  0
 10 11  1  0
 11 12  1  0
 12 13  1  0
 13 14  2  0
 13 15  1  0
 15 16  1  0
 16 17  1  0
 17 18  1  0
 18 19  1  0
 19 20  2  0
 19 21  1  0
 21 22  2  0
 22 23  1  0
 23 24  2  0
 24 25  1  0
 25 26  2  0
 26 27  1  0
 27 28  2  0
 28 29  1  0
 29 30  2  0
 29 31  1  0
 31 32  2  0
 12 33  1  0
 33 34  1  0
  8  3  1  0
 34  9  1  0
 31 18  1  0
 30 21  1  0
 30 25  1  0
  1 35  1  0
  1 36  1  0
  1 37  1  0
  4 38  1  0
  5 39  1  0
  6 40  1  0
  7 41  1  0
 10 42  1  0
 10 43  1  0
 11 44  1  0
 11 45  1  0
 15 46  1  0
 15 47  1  0
 16 48  1  0
 16 49  1  0
 17 50  1  0
 17 51  1  0
 22 52  1  0
 23 53  1  0
 24 54  1  0
 26 55  1  0
 27 56  1  0
 28 57  1  0
 33 58  1  0
 33 59  1  0
 34 60  1  0
 34 61  1  0
M  END
>  <UniqueID>  (72) 
64

>  <SMILES>  (72) 
COc1ccccc1N1CCN(C(=O)CCCN2C(=O)c3cccc4cccc(c34)C2=O)CC1

>  <Energy>  (72) 
72.89293432441261

>  <Genealogy>  (72) 
COc1ccccc1N1CCN(C(=O)CCCN2C(=O)c3cccc4cccc(c34)C2=O)CC1 (3D coordinates assigned)
COc1ccccc1N1CCN(C(=O)CCCN2C(=O)c3cccc4cccc(c34)C2=O)CC1 (nonaromatic ring conformer: 72.89293432441261 kcal/mol)

>  <smiles>  (72) 
COc1ccccc1N1CCN(C(=O)CCCN2C(=O)c3cccc4cccc(c34)C2=O)CC1

>  <score_type>  (72) 
oracle

>  <origin>  (72) 
adg

>  <m_score__min__energy>  (72) 
-9

>  <m_primary>  (72) 
energy

$$$$
72:0
     RDKit          3D

 31 32  0  0  0  0  0  0  0  0999 V2000
   54.8020   29.8520   43.8870 O   0  0  0  0  0  0  0  0  0  0  0  0
   55.8820   29.4850   44.4210 C   0  0  0  0  0  0  0  0  0  0  0  0
   55.8880   28.3160   45.2420 N   0  0  0  0  0  0  0  0  0  0  0  0
   57.0690   27.8660   45.9650 C   0  0  0  0  0  0  0  0  0  0  0  0
   56.9340   26.4500   46.2920 N   0  0  0  0  0  0  0  0  0  0  0  0
   55.8120   25.7080   46.3070 C   0  0  0  0  0  0  0  0  0  0  0  0
   54.5420   26.1600   45.9560 O   0  0  0  0  0  0  0  0  0  0  0  0
   56.1150   24.4360   46.7360 C   0  0  0  0  0  0  0  0  0  0  0  0
   57.4340   24.3670   47.0130 N   0  0  0  0  0  0  0  0  0  0  0  0
   57.8900   25.6090   46.7370 C   0  0  0  0  0  0  0  0  0  0  0  0
   59.0950   25.9430   46.8900 O   0  0  0  0  0  0  0  0  0  0  0  0
   57.1030   30.1940   44.1700 N   0  0  0  0  0  0  0  0  0  0  0  0
   57.5920   31.3370   44.8880 C   0  0  0  0  0  0  0  0  0  0  0  0
   57.5650   32.5860   44.2560 C   0  0  0  0  0  0  0  0  0  0  0  0
   58.0490   33.7230   44.9090 C   0  0  0  0  0  0  0  0  0  0  0  0
   58.5850   33.6220   46.2070 C   0  0  0  0  0  0  0  0  0  0  0  0
   59.0840   34.7310   46.9080 O   0  0  0  0  0  0  0  0  0  0  0  0
   60.0560   34.6640   47.9470 C   0  0  0  0  0  0  0  0  0  0  0  0
   59.4960   34.1050   49.0820 F   0  0  0  0  0  0  0  0  0  0  0  0
   61.1090   33.8730   47.5300 F   0  0  0  0  0  0  0  0  0  0  0  0
   58.6330   32.3680   46.8280 C   0  0  0  0  0  0  0  0  0  0  0  0
   58.1490   31.2310   46.1740 C   0  0  0  0  0  0  0  0  0  0  0  0
   57.9604   28.0133   45.3375 H   0  0  0  0  0  0  0  0  0  0  0  0
   57.1717   28.4468   46.8935 H   0  0  0  0  0  0  0  0  0  0  0  0
   54.3890   26.7150   45.1240 H   0  0  0  0  0  0  0  0  0  0  0  0
   55.3974   23.6085   46.8369 H   0  0  0  0  0  0  0  0  0  0  0  0
   57.1595   32.6732   43.2372 H   0  0  0  0  0  0  0  0  0  0  0  0
   58.0110   34.7009   44.4067 H   0  0  0  0  0  0  0  0  0  0  0  0
   60.4109   35.6794   48.1774 H   0  0  0  0  0  0  0  0  0  0  0  0
   59.0553   32.2766   47.8396 H   0  0  0  0  0  0  0  0  0  0  0  0
   58.2044   30.2497   46.6679 H   0  0  0  0  0  0  0  0  0  0  0  0
  1  2  2  0
  2  3  1  0
  3  4  1  0
  4  5  1  0
  5  6  1  0
  6  7  1  0
  6  8  2  0
  8  9  1  0
  9 10  1  0
 10 11  2  0
  2 12  1  0
 12 13  1  0
 13 14  2  0
 14 15  1  0
 15 16  2  0
 16 17  1  0
 17 18  1  0
 18 19  1  0
 18 20  1  0
 16 21  1  0
 21 22  2  0
 10  5  1  0
 22 13  1  0
  4 23  1  0
  4 24  1  0
  7 25  1  0
  8 26  1  0
 14 27  1  0
 15 28  1  0
 18 29  1  0
 21 30  1  0
 22 31  1  0
M  CHG  3   3  -1   9  -1  12  -1
M  END
>  <UniqueID>  (73) 
65

>  <SMILES>  (73) 
O=C([N-]Cn1c(O)c[n-]c1=O)[N-]c1ccc(OC(F)F)cc1

>  <Energy>  (73) 
63.073975429815036

>  <Genealogy>  (73) 
O=C([N-]Cn1c(O)c[n-]c1=O)[N-]c1ccc(OC(F)F)cc1 (protonated)
O=C([N-]Cn1c(O)c[n-]c1=O)[N-]c1ccc(OC(F)F)cc1 (3D coordinates assigned)
O=C([N-]Cn1c(O)c[n-]c1=O)[N-]c1ccc(OC(F)F)cc1 (optimized conformer: 63.073975429815036 kcal/mol)

>  <smiles>  (73) 
O=C(NCn1c(O)c[nH]c1=O)Nc1ccc(OC(F)F)cc1

>  <score_type>  (73) 
oracle

>  <origin>  (73) 
adg

>  <m_score__min__energy>  (73) 
-11.699999999999999

>  <m_primary>  (73) 
energy

$$$$
73:0
     RDKit          3D

 34 36  0  0  0  0  0  0  0  0999 V2000
   59.8380   35.4170   45.9240 O   0  0  0  0  0  0  0  0  0  0  0  0
   59.6450   34.2850   46.4450 C   0  0  0  0  0  0  0  0  0  0  0  0
   58.2330   33.8380   46.6920 C   0  0  0  0  0  0  0  0  0  0  0  0
   57.1610   34.2190   45.2650 S   0  0  0  0  0  0  0  0  0  0  0  0
   57.3940   32.6330   44.4690 C   0  0  0  0  0  0  0  0  0  0  0  0
   58.1030   32.4560   43.3370 N   0  0  0  0  0  0  0  0  0  0  0  0
   58.0480   31.1580   43.0930 N   0  0  0  0  0  0  0  0  0  0  0  0
   57.3290   30.5910   44.0760 C   0  0  0  0  0  0  0  0  0  0  0  0
   57.0420   29.1280   44.1870 C   0  0  0  0  0  0  0  0  0  0  0  0
   58.0830   28.4450   45.0270 C   0  0  0  0  0  0  0  0  0  0  0  0
   57.7050   27.4720   45.9690 C   0  0  0  0  0  0  0  0  0  0  0  0
   58.6760   26.8260   46.7420 C   0  0  0  0  0  0  0  0  0  0  0  0
   60.0280   27.1480   46.5820 C   0  0  0  0  0  0  0  0  0  0  0  0
   60.4100   28.1220   45.6550 C   0  0  0  0  0  0  0  0  0  0  0  0
   59.4410   28.7770   44.8880 C   0  0  0  0  0  0  0  0  0  0  0  0
   56.9130   31.4990   44.9260 O   0  0  0  0  0  0  0  0  0  0  0  0
   60.8130   33.4610   46.8130 C   0  0  0  0  0  0  0  0  0  0  0  0
   62.1530   33.8450   46.8200 C   0  0  0  0  0  0  0  0  0  0  0  0
   63.0250   32.8070   47.1720 C   0  0  0  0  0  0  0  0  0  0  0  0
   62.3860   31.6060   47.4470 C   0  0  0  0  0  0  0  0  0  0  0  0
   60.7330   31.8390   47.2560 S   0  0  0  0  0  0  0  0  0  0  0  0
   58.2258   32.7519   46.8664 H   0  0  0  0  0  0  0  0  0  0  0  0
   57.8465   34.3745   47.5711 H   0  0  0  0  0  0  0  0  0  0  0  0
   58.5010   30.6830   42.2800 H   0  0  0  0  0  0  0  0  0  0  0  0
   56.0546   28.9879   44.6512 H   0  0  0  0  0  0  0  0  0  0  0  0
   57.0559   28.6874   43.1792 H   0  0  0  0  0  0  0  0  0  0  0  0
   56.6426   27.2179   46.0986 H   0  0  0  0  0  0  0  0  0  0  0  0
   58.3760   26.0640   47.4764 H   0  0  0  0  0  0  0  0  0  0  0  0
   60.7907   26.6345   47.1859 H   0  0  0  0  0  0  0  0  0  0  0  0
   61.4734   28.3735   45.5286 H   0  0  0  0  0  0  0  0  0  0  0  0
   59.7437   29.5558   44.1725 H   0  0  0  0  0  0  0  0  0  0  0  0
   62.4919   34.8621   46.5736 H   0  0  0  0  0  0  0  0  0  0  0  0
   64.1165   32.9322   47.2256 H   0  0  0  0  0  0  0  0  0  0  0  0
   62.8762   30.6656   47.7391 H   0  0  0  0  0  0  0  0  0  0  0  0
  1  2  2  0
  2  3  1  0
  3  4  1  0
  4  5  1  0
  5  6  2  0
  6  7  1  0
  7  8  2  0
  8  9  1  0
  9 10  1  0
 10 11  2  0
 11 12  1  0
 12 13  2  0
 13 14  1  0
 14 15  2  0
  8 16  1  0
  2 17  1  0
 17 18  2  0
 18 19  1  0
 19 20  2  0
 20 21  1  0
 16  5  1  0
 21 17  1  0
 15 10  1  0
  3 22  1  0
  3 23  1  0
  7 24  1  0
  9 25  1  0
  9 26  1  0
 11 27  1  0
 12 28  1  0
 13 29  1  0
 14 30  1  0
 15 31  1  0
 18 32  1  0
 19 33  1  0
 20 34  1  0
M  CHG  1   7   1
M  END
>  <UniqueID>  (74) 
66

>  <SMILES>  (74) 
O=C(CSc1n[nH+]c(Cc2ccccc2)o1)c1cccs1

>  <Energy>  (74) 
87.04719658598165

>  <Genealogy>  (74) 
O=C(CSc1n[nH+]c(Cc2ccccc2)o1)c1cccs1 (protonated)
O=C(CSc1n[nH+]c(Cc2ccccc2)o1)c1cccs1 (3D coordinates assigned)
O=C(CSc1n[nH+]c(Cc2ccccc2)o1)c1cccs1 (optimized conformer: 87.04719658598165 kcal/mol)

>  <smiles>  (74) 
O=C(CSc1nnc(Cc2ccccc2)o1)c1cccs1

>  <score_type>  (74) 
oracle

>  <origin>  (74) 
adg

>  <m_score__min__energy>  (74) 
-6.7800000000000002

>  <m_primary>  (74) 
energy

$$$$
74:0
     RDKit          3D

 45 47  0  0  0  0  0  0  0  0999 V2000
   57.7260   32.3360   41.9940 C   0  0  0  0  0  0  0  0  0  0  0  0
   58.0800   32.2340   43.4480 C   0  0  0  0  0  0  0  0  0  0  0  0
   58.4190   33.3850   44.1730 C   0  0  0  0  0  0  0  0  0  0  0  0
   58.7760   33.2950   45.5280 C   0  0  0  0  0  0  0  0  0  0  0  0
   59.1480   34.4780   46.2640 N   0  0  0  0  0  0  0  0  0  0  0  0
   60.3340   34.2090   47.0320 C   0  0  0  0  0  0  0  0  0  0  0  0
   61.5170   33.7900   46.4020 C   0  0  0  0  0  0  0  0  0  0  0  0
   62.6500   33.5000   47.1700 C   0  0  0  0  0  0  0  0  0  0  0  0
   63.7340   33.1170   46.5680 N   0  0  0  0  0  0  0  0  0  0  0  0
   62.5840   33.6300   48.5730 C   0  0  0  0  0  0  0  0  0  0  0  0
   63.9580   33.2910   49.6210 Cl  0  0  0  0  0  0  0  0  0  0  0  0
   61.3820   34.0390   49.1610 C   0  0  0  0  0  0  0  0  0  0  0  0
   60.2990   34.3120   48.3880 N   0  0  0  0  0  0  0  0  0  0  0  0
   58.8230   32.0330   46.1450 C   0  0  0  0  0  0  0  0  0  0  0  0
   58.5070   30.8680   45.4250 C   0  0  0  0  0  0  0  0  0  0  0  0
   58.5700   29.5390   46.0820 C   0  0  0  0  0  0  0  0  0  0  0  0
   59.2640   29.3740   47.2940 C   0  0  0  0  0  0  0  0  0  0  0  0
   59.3220   28.1220   47.9100 C   0  0  0  0  0  0  0  0  0  0  0  0
   58.6930   27.0210   47.3270 C   0  0  0  0  0  0  0  0  0  0  0  0
   57.9960   27.1640   46.1160 C   0  0  0  0  0  0  0  0  0  0  0  0
   57.3340   26.0630   45.4770 N   0  0  0  0  0  0  0  0  0  0  0  0
   55.8690   25.3090   46.0160 S   0  0  0  0  0  0  0  0  0  0  0  0
   55.4290   23.9710   44.9270 C   0  0  0  0  0  0  0  0  0  0  0  0
   56.0360   24.8080   47.4230 O   0  0  0  0  0  0  0  0  0  0  0  0
   54.7660   26.3290   45.9950 O   0  0  0  0  0  0  0  0  0  0  0  0
   57.9400   28.4220   45.5020 C   0  0  0  0  0  0  0  0  0  0  0  0
   58.1400   30.9800   44.0730 C   0  0  0  0  0  0  0  0  0  0  0  0
   56.6734   32.6393   41.8933 H   0  0  0  0  0  0  0  0  0  0  0  0
   58.3711   33.0848   41.5112 H   0  0  0  0  0  0  0  0  0  0  0  0
   57.8738   31.3587   41.5112 H   0  0  0  0  0  0  0  0  0  0  0  0
   58.4052   34.3664   43.6764 H   0  0  0  0  0  0  0  0  0  0  0  0
   58.3710   34.7550   46.9090 H   0  0  0  0  0  0  0  0  0  0  0  0
   59.3110   35.2810   45.6130 H   0  0  0  0  0  0  0  0  0  0  0  0
   61.5528   33.6900   45.3071 H   0  0  0  0  0  0  0  0  0  0  0  0
   64.5580   32.7090   47.0610 H   0  0  0  0  0  0  0  0  0  0  0  0
   61.3138   34.1399   50.2542 H   0  0  0  0  0  0  0  0  0  0  0  0
   59.1105   31.9562   47.2040 H   0  0  0  0  0  0  0  0  0  0  0  0
   59.7641   30.2361   47.7595 H   0  0  0  0  0  0  0  0  0  0  0  0
   59.8658   28.0031   48.8588 H   0  0  0  0  0  0  0  0  0  0  0  0
   58.7433   26.0378   47.8176 H   0  0  0  0  0  0  0  0  0  0  0  0
   55.1402   23.0928   45.5232 H   0  0  0  0  0  0  0  0  0  0  0  0
   54.5843   24.2773   44.2925 H   0  0  0  0  0  0  0  0  0  0  0  0
   56.2907   23.7162   44.2925 H   0  0  0  0  0  0  0  0  0  0  0  0
   57.3959   28.5384   44.5531 H   0  0  0  0  0  0  0  0  0  0  0  0
   57.8971   30.0739   43.4986 H   0  0  0  0  0  0  0  0  0  0  0  0
  1  2  1  0
  2  3  2  0
  3  4  1  0
  4  5  1  0
  5  6  1  0
  6  7  2  0
  7  8  1  0
  8  9  2  3
  8 10  1  0
 10 11  1  0
 10 12  2  0
 12 13  1  0
  4 14  2  0
 14 15  1  0
 15 16  1  0
 16 17  2  0
 17 18  1  0
 18 19  2  0
 19 20  1  0
 20 21  1  0
 21 22  1  0
 22 23  1  0
 22 24  2  0
 22 25  2  0
 20 26  2  0
 15 27  2  0
 27  2  1  0
 13  6  1  0
 26 16  1  0
  1 28  1  0
  1 29  1  0
  1 30  1  0
  3 31  1  0
  5 32  1  0
  5 33  1  0
  7 34  1  0
  9 35  1  0
 12 36  1  0
 14 37  1  0
 17 38  1  0
 18 39  1  0
 19 40  1  0
 23 41  1  0
 23 42  1  0
 23 43  1  0
 26 44  1  0
 27 45  1  0
M  CHG  3   5   1  13  -1  21  -1
M  END
>  <UniqueID>  (75) 
67

>  <SMILES>  (75) 
Cc1cc([NH2+]c2cc(=N)c(Cl)c[n-]2)cc(-c2cccc([N-]S(C)(=O)=O)c2)c1

>  <Energy>  (75) 
54.89190649426315

>  <Genealogy>  (75) 
Cc1cc([NH2+]c2cc(=N)c(Cl)c[n-]2)cc(-c2cccc([N-]S(C)(=O)=O)c2)c1 (protonated)
Cc1cc([NH2+]c2cc(=N)c(Cl)c[n-]2)cc(-c2cccc([N-]S(C)(=O)=O)c2)c1 (3D coordinates assigned)
Cc1cc([NH2+]c2cc(=N)c(Cl)c[n-]2)cc(-c2cccc([N-]S(C)(=O)=O)c2)c1 (optimized conformer: 54.89190649426315 kcal/mol)

>  <smiles>  (75) 
Cc1cc(Nc2cc(=N)c(Cl)c[nH]2)cc(-c2cccc(NS(C)(=O)=O)c2)c1

>  <score_type>  (75) 
oracle

>  <origin>  (75) 
adg

>  <m_score__min__energy>  (75) 
-10.91

>  <m_primary>  (75) 
energy

$$$$
75:0
     RDKit          3D

 41 43  0  0  0  0  0  0  0  0999 V2000
   63.8100   33.4780   46.4240 N   0  0  0  0  0  0  0  0  0  0  0  0
   62.6870   33.5780   46.6840 C   0  0  0  0  0  0  0  0  0  0  0  0
   61.2870   33.7020   47.0080 C   0  0  0  0  0  0  0  0  0  0  0  0
   60.3380   33.4900   45.9990 C   0  0  0  0  0  0  0  0  0  0  0  0
   58.9700   33.5410   46.2890 C   0  0  0  0  0  0  0  0  0  0  0  0
   57.7930   33.2440   45.0120 S   0  0  0  0  0  0  0  0  0  0  0  0
   58.4600   33.4540   43.6820 O   0  0  0  0  0  0  0  0  0  0  0  0
   56.6480   34.2120   45.1330 O   0  0  0  0  0  0  0  0  0  0  0  0
   57.2010   31.6030   45.1190 N   0  0  0  0  0  0  0  0  0  0  0  0
   56.9380   31.0740   43.7670 C   0  0  0  0  0  0  0  0  0  0  0  0
   56.9240   29.5370   43.7800 C   0  0  0  0  0  0  0  0  0  0  0  0
   58.1440   28.9470   44.2140 O   0  0  0  0  0  0  0  0  0  0  0  0
   58.9490   29.8100   45.0040 C   0  0  0  0  0  0  0  0  0  0  0  0
   58.1270   30.7530   45.9010 C   0  0  0  0  0  0  0  0  0  0  0  0
   58.5480   33.7840   47.6020 C   0  0  0  0  0  0  0  0  0  0  0  0
   59.4890   33.9970   48.6140 C   0  0  0  0  0  0  0  0  0  0  0  0
   60.8590   33.9830   48.3250 C   0  0  0  0  0  0  0  0  0  0  0  0
   61.7960   34.2010   49.3930 N   0  0  0  0  0  0  0  0  0  0  0  0
   62.7400   33.2130   49.8480 C   0  0  0  0  0  0  0  0  0  0  0  0
   62.2670   32.0160   50.4050 C   0  0  0  0  0  0  0  0  0  0  0  0
   63.1630   31.0450   50.8630 C   0  0  0  0  0  0  0  0  0  0  0  0
   64.5400   31.2660   50.7780 C   0  0  0  0  0  0  0  0  0  0  0  0
   65.4010   30.3180   51.2250 F   0  0  0  0  0  0  0  0  0  0  0  0
   65.0250   32.4650   50.2390 C   0  0  0  0  0  0  0  0  0  0  0  0
   66.7530   32.7580   50.1380 Cl  0  0  0  0  0  0  0  0  0  0  0  0
   64.1280   33.4380   49.7810 C   0  0  0  0  0  0  0  0  0  0  0  0
   60.6709   33.2820   44.9714 H   0  0  0  0  0  0  0  0  0  0  0  0
   55.9614   31.4414   43.4189 H   0  0  0  0  0  0  0  0  0  0  0  0
   57.7362   31.4154   43.0914 H   0  0  0  0  0  0  0  0  0  0  0  0
   56.1209   29.2049   44.4544 H   0  0  0  0  0  0  0  0  0  0  0  0
   56.7681   29.2131   42.7404 H   0  0  0  0  0  0  0  0  0  0  0  0
   59.5969   29.1942   45.6451 H   0  0  0  0  0  0  0  0  0  0  0  0
   59.5294   30.4392   44.3132 H   0  0  0  0  0  0  0  0  0  0  0  0
   57.5406   30.1476   46.6079 H   0  0  0  0  0  0  0  0  0  0  0  0
   58.8297   31.4153   46.4279 H   0  0  0  0  0  0  0  0  0  0  0  0
   57.4738   33.8074   47.8377 H   0  0  0  0  0  0  0  0  0  0  0  0
   59.1505   34.1769   49.6450 H   0  0  0  0  0  0  0  0  0  0  0  0
   61.8610   35.1650   49.7910 H   0  0  0  0  0  0  0  0  0  0  0  0
   61.1839   31.8398   50.4821 H   0  0  0  0  0  0  0  0  0  0  0  0
   62.7831   30.1056   51.2909 H   0  0  0  0  0  0  0  0  0  0  0  0
   64.5099   34.3828   49.3668 H   0  0  0  0  0  0  0  0  0  0  0  0
  1  2  3  0
  2  3  1  0
  3  4  2  0
  4  5  1  0
  5  6  1  0
  6  7  2  0
  6  8  2  0
  6  9  1  0
  9 10  1  0
 10 11  1  0
 11 12  1  0
 12 13  1  0
 13 14  1  0
  5 15  2  0
 15 16  1  0
 16 17  2  0
 17 18  1  0
 18 19  1  0
 19 20  2  0
 20 21  1  0
 21 22  2  0
 22 23  1  0
 22 24  1  0
 24 25  1  0
 24 26  2  0
 17  3  1  0
 26 19  1  0
 14  9  1  0
  4 27  1  0
 10 28  1  0
 10 29  1  0
 11 30  1  0
 11 31  1  0
 13 32  1  0
 13 33  1  0
 14 34  1  0
 14 35  1  0
 15 36  1  0
 16 37  1  0
 18 38  1  0
 20 39  1  0
 21 40  1  0
 26 41  1  0
M  END
>  <UniqueID>  (76) 
68

>  <SMILES>  (76) 
N#Cc1cc(S(=O)(=O)N2CCOCC2)ccc1Nc1ccc(F)c(Cl)c1

>  <Energy>  (76) 
61.3454844555449

>  <Genealogy>  (76) 
N#Cc1cc(S(=O)(=O)N2CCOCC2)ccc1Nc1ccc(F)c(Cl)c1 (3D coordinates assigned)
N#Cc1cc(S(=O)(=O)N2CCOCC2)ccc1Nc1ccc(F)c(Cl)c1 (nonaromatic ring conformer: 61.3454844555449 kcal/mol)

>  <smiles>  (76) 
N#Cc1cc(S(=O)(=O)N2CCOCC2)ccc1Nc1ccc(F)c(Cl)c1

>  <score_type>  (76) 
oracle

>  <origin>  (76) 
adg

>  <m_score__min__energy>  (76) 
-8.7100000000000009

>  <m_primary>  (76) 
energy

$$$$
76:0
     RDKit          3D

 32 34  0  0  0  0  0  0  0  0999 V2000
   57.7618   31.9771   42.4479 H   0  0  0  0  0  0  0  0  0  0  0  0
   57.4140   31.3120   43.2520 C   0  0  0  0  0  0  0  0  0  0  0  0
   56.6520   29.8270   43.0410 S   0  0  0  0  0  0  0  0  0  0  0  0
   56.5000   29.5570   44.6970 C   0  0  0  0  0  0  0  0  0  0  0  0
   55.9650   28.5140   45.2540 N   0  0  0  0  0  0  0  0  0  0  0  0
   56.8500   27.1020   45.7400 S   0  0  0  0  0  0  0  0  0  0  0  0
   55.8960   26.0990   46.3210 O   0  0  0  0  0  0  0  0  0  0  0  0
   57.5160   26.5020   44.5310 O   0  0  0  0  0  0  0  0  0  0  0  0
   58.0470   27.5260   46.9590 C   0  0  0  0  0  0  0  0  0  0  0  0
   58.8950   26.5470   47.4920 C   0  0  0  0  0  0  0  0  0  0  0  0
   58.8100   25.5042   47.1525 H   0  0  0  0  0  0  0  0  0  0  0  0
   59.8490   26.8910   48.4540 C   0  0  0  0  0  0  0  0  0  0  0  0
   60.5124   26.1179   48.8689 H   0  0  0  0  0  0  0  0  0  0  0  0
   59.9630   28.2150   48.8910 C   0  0  0  0  0  0  0  0  0  0  0  0
   61.1780   28.6110   50.1000 Cl  0  0  0  0  0  0  0  0  0  0  0  0
   59.1120   29.2000   48.3630 C   0  0  0  0  0  0  0  0  0  0  0  0
   59.2210   30.8760   48.8850 Cl  0  0  0  0  0  0  0  0  0  0  0  0
   58.1550   28.8520   47.4020 C   0  0  0  0  0  0  0  0  0  0  0  0
   57.4849   29.6223   46.9927 H   0  0  0  0  0  0  0  0  0  0  0  0
   57.0190   30.5710   45.4170 N   0  0  0  0  0  0  0  0  0  0  0  0
   57.5300   31.5570   44.6260 C   0  0  0  0  0  0  0  0  0  0  0  0
   58.1600   32.7690   45.2120 C   0  0  0  0  0  0  0  0  0  0  0  0
   58.1790   32.9420   46.6080 C   0  0  0  0  0  0  0  0  0  0  0  0
   57.7270   32.1780   47.2577 H   0  0  0  0  0  0  0  0  0  0  0  0
   58.7670   34.0760   47.1780 C   0  0  0  0  0  0  0  0  0  0  0  0
   58.7787   34.1981   48.2711 H   0  0  0  0  0  0  0  0  0  0  0  0
   59.3390   35.0530   46.3610 C   0  0  0  0  0  0  0  0  0  0  0  0
   59.8021   35.9438   46.8104 H   0  0  0  0  0  0  0  0  0  0  0  0
   59.3230   34.8990   44.9740 C   0  0  0  0  0  0  0  0  0  0  0  0
   59.7730   35.6701   44.3314 H   0  0  0  0  0  0  0  0  0  0  0  0
   58.7370   33.7680   44.3990 C   0  0  0  0  0  0  0  0  0  0  0  0
   58.7254   33.6556   43.3048 H   0  0  0  0  0  0  0  0  0  0  0  0
  1  2  1  0
  2  3  1  0
  3  4  1  0
  4  5  2  0
  5  6  1  0
  6  7  2  0
  6  8  2  0
  6  9  1  0
  9 10  2  0
 10 11  1  0
 10 12  1  0
 12 13  1  0
 12 14  2  0
 14 15  1  0
 14 16  1  0
 16 17  1  0
 16 18  2  0
 18 19  1  0
  4 20  1  0
 20 21  1  0
 21 22  1  0
 22 23  2  0
 23 24  1  0
 23 25  1  0
 25 26  1  0
 25 27  2  0
 27 28  1  0
 27 29  1  0
 29 30  1  0
 29 31  2  0
 31 32  1  0
 21  2  2  0
 31 22  1  0
 18  9  1  0
M  CHG  1  20  -1
M  END
>  <UniqueID>  (77) 
69

>  <SMILES>  (77) 
O=S(=O)(/N=c1/[n-]c(-c2ccccc2)cs1)c1ccc(Cl)c(Cl)c1

>  <Energy>  (77) 
71.32892978601167

>  <Genealogy>  (77) 
O=S(=O)(N=c1[n-]c(-c2ccccc2)cs1)c1ccc(Cl)c(Cl)c1 (protonated)
O=S(=O)(/N=c1/[n-]c(-c2ccccc2)cs1)c1ccc(Cl)c(Cl)c1 (cis-trans isomerization)
O=S(=O)(/N=c1/[n-]c(-c2ccccc2)cs1)c1ccc(Cl)c(Cl)c1 (3D coordinates assigned)
O=S(=O)(/N=c1/[n-]c(-c2ccccc2)cs1)c1ccc(Cl)c(Cl)c1 (optimized conformer: 71.32892978601167 kcal/mol)

>  <smiles>  (77) 
O=S(=O)(N=c1[nH]c(-c2ccccc2)cs1)c1ccc(Cl)c(Cl)c1

>  <score_type>  (77) 
oracle

>  <origin>  (77) 
adg

>  <m_score__min__energy>  (77) 
-10.32

>  <m_primary>  (77) 
energy

$$$$
77:0
     RDKit          3D

 34 36  0  0  0  0  0  0  0  0999 V2000
   63.0121   34.1853   47.5107 H   0  0  0  0  0  0  0  0  0  0  0  0
   62.2300   33.4410   47.3000 C   0  0  0  0  0  0  0  0  0  0  0  0
   60.9420   33.8610   46.9600 C   0  0  0  0  0  0  0  0  0  0  0  0
   60.7148   34.9359   46.9048 H   0  0  0  0  0  0  0  0  0  0  0  0
   59.9310   32.9170   46.6870 C   0  0  0  0  0  0  0  0  0  0  0  0
   58.6190   33.3120   46.3760 O   0  0  0  0  0  0  0  0  0  0  0  0
   58.2700   34.1990   45.3180 C   0  0  0  0  0  0  0  0  0  0  0  0
   57.8980   35.1444   45.7398 H   0  0  0  0  0  0  0  0  0  0  0  0
   59.1570   34.3977   44.6985 H   0  0  0  0  0  0  0  0  0  0  0  0
   57.4854   33.7400   44.6985 H   0  0  0  0  0  0  0  0  0  0  0  0
   60.2380   31.5390   46.7480 C   0  0  0  0  0  0  0  0  0  0  0  0
   59.2110   30.5110   46.4510 C   0  0  0  0  0  0  0  0  0  0  0  0
   58.2030   30.7710   45.5050 C   0  0  0  0  0  0  0  0  0  0  0  0
   58.1824   31.7384   44.9819 H   0  0  0  0  0  0  0  0  0  0  0  0
   57.2270   29.8100   45.2240 C   0  0  0  0  0  0  0  0  0  0  0  0
   56.4453   30.0218   44.4796 H   0  0  0  0  0  0  0  0  0  0  0  0
   57.2440   28.5810   45.8880 C   0  0  0  0  0  0  0  0  0  0  0  0
   56.2990   27.6420   45.6190 N   0  0  0  0  0  0  0  0  0  0  0  0
   56.2980   26.4390   46.2590 C   0  0  0  0  0  0  0  0  0  0  0  0
   55.3930   25.5450   45.9990 N   0  0  0  0  0  0  0  0  0  0  0  0
   55.6390   24.3410   45.2130 C   0  0  0  0  0  0  0  0  0  0  0  0
   55.8127   23.4909   45.8891 H   0  0  0  0  0  0  0  0  0  0  0  0
   54.7649   24.1323   44.5786 H   0  0  0  0  0  0  0  0  0  0  0  0
   56.5249   24.4919   44.5786 H   0  0  0  0  0  0  0  0  0  0  0  0
   57.2570   26.1680   47.1840 N   0  0  0  0  0  0  0  0  0  0  0  0
   58.2240   27.0720   47.4880 C   0  0  0  0  0  0  0  0  0  0  0  0
   58.9895   26.8295   48.2398 H   0  0  0  0  0  0  0  0  0  0  0  0
   58.2430   28.3120   46.8420 C   0  0  0  0  0  0  0  0  0  0  0  0
   59.2210   29.2760   47.1240 C   0  0  0  0  0  0  0  0  0  0  0  0
   59.9982   29.0660   47.8736 H   0  0  0  0  0  0  0  0  0  0  0  0
   61.5380   31.1340   47.1000 C   0  0  0  0  0  0  0  0  0  0  0  0
   61.7774   30.0621   47.1607 H   0  0  0  0  0  0  0  0  0  0  0  0
   62.5270   32.0800   47.3730 C   0  0  0  0  0  0  0  0  0  0  0  0
   63.7780   31.6770   47.7060 F   0  0  0  0  0  0  0  0  0  0  0  0
  1  2  1  0
  2  3  2  0
  3  4  1  0
  3  5  1  0
  5  6  1  0
  6  7  1  0
  7  8  1  0
  7  9  1  0
  7 10  1  0
  5 11  2  0
 11 12  1  0
 12 13  1  0
 13 14  1  0
 13 15  2  0
 15 16  1  0
 15 17  1  0
 17 18  2  0
 18 19  1  0
 19 20  2  0
 20 21  1  0
 21 22  1  0
 21 23  1  0
 21 24  1  0
 19 25  1  0
 25 26  1  0
 26 27  1  0
 26 28  2  0
 28 29  1  0
 29 30  1  0
 11 31  1  0
 31 32  1  0
 31 33  2  0
 33 34  1  0
 33  2  1  0
 29 12  2  0
 28 17  1  0
M  CHG  1  25  -1
M  END
>  <UniqueID>  (78) 
70

>  <SMILES>  (78) 
C/N=c1\nc2ccc(-c3cc(F)ccc3OC)cc2c[n-]1

>  <Energy>  (78) 
44.74069238453965

>  <Genealogy>  (78) 
CN=c1nc2ccc(-c3cc(F)ccc3OC)cc2c[n-]1 (protonated)
C/N=c1\nc2ccc(-c3cc(F)ccc3OC)cc2c[n-]1 (cis-trans isomerization)
C/N=c1\nc2ccc(-c3cc(F)ccc3OC)cc2c[n-]1 (3D coordinates assigned)
C/N=c1\nc2ccc(-c3cc(F)ccc3OC)cc2c[n-]1 (optimized conformer: 44.74069238453965 kcal/mol)

>  <smiles>  (78) 
CN=c1nc2ccc(-c3cc(F)ccc3OC)cc2c[nH]1

>  <score_type>  (78) 
oracle

>  <origin>  (78) 
adg

>  <m_score__min__energy>  (78) 
-8.1199999999999992

>  <m_primary>  (78) 
energy

$$$$
78:0
     RDKit          3D

 50 52  0  0  0  0  0  0  0  0999 V2000
   63.4300   34.5620   51.1410 C   0  0  0  0  0  0  0  0  0  0  0  0
   62.8930   34.7160   49.8300 O   0  0  0  0  0  0  0  0  0  0  0  0
   62.4680   33.6550   49.0170 C   0  0  0  0  0  0  0  0  0  0  0  0
   63.3100   33.2360   47.9810 C   0  0  0  0  0  0  0  0  0  0  0  0
   62.9340   32.1830   47.1450 C   0  0  0  0  0  0  0  0  0  0  0  0
   61.7100   31.5390   47.3360 C   0  0  0  0  0  0  0  0  0  0  0  0
   60.8490   31.9430   48.3640 C   0  0  0  0  0  0  0  0  0  0  0  0
   59.5990   31.2570   48.5210 N   0  0  0  0  0  0  0  0  0  0  0  0
   59.3980   29.7060   49.2710 S   0  0  0  0  0  0  0  0  0  0  0  0
   58.1360   29.6860   50.0860 O   0  0  0  0  0  0  0  0  0  0  0  0
   60.5760   29.4240   50.1630 O   0  0  0  0  0  0  0  0  0  0  0  0
   59.2840   28.4780   48.0160 C   0  0  0  0  0  0  0  0  0  0  0  0
   60.0250   27.2900   48.1010 C   0  0  0  0  0  0  0  0  0  0  0  0
   59.9180   26.3250   47.0960 C   0  0  0  0  0  0  0  0  0  0  0  0
   59.0830   26.5450   45.9980 C   0  0  0  0  0  0  0  0  0  0  0  0
   58.3480   27.7360   45.8870 C   0  0  0  0  0  0  0  0  0  0  0  0
   57.5150   27.9460   44.7310 N   0  0  0  0  0  0  0  0  0  0  0  0
   57.7290   29.0080   43.7470 C   0  0  0  0  0  0  0  0  0  0  0  0
   57.4160   30.3420   44.3500 C   0  0  0  0  0  0  0  0  0  0  0  0
   58.3330   31.3050   44.7140 C   0  0  0  0  0  0  0  0  0  0  0  0
   57.5440   32.3700   45.1010 C   0  0  0  0  0  0  0  0  0  0  0  0
   58.0150   33.7240   45.5530 C   0  0  0  0  0  0  0  0  0  0  0  0
   59.3030   34.1050   44.8170 C   0  0  0  0  0  0  0  0  0  0  0  0
   58.2130   33.7600   47.0720 C   0  0  0  0  0  0  0  0  0  0  0  0
   56.2820   32.0350   44.9620 O   0  0  0  0  0  0  0  0  0  0  0  0
   56.1670   30.8200   44.5060 N   0  0  0  0  0  0  0  0  0  0  0  0
   58.4430   28.6930   46.9160 C   0  0  0  0  0  0  0  0  0  0  0  0
   61.2320   33.0030   49.2070 C   0  0  0  0  0  0  0  0  0  0  0  0
   62.6511   34.7854   51.8849 H   0  0  0  0  0  0  0  0  0  0  0  0
   63.7791   33.5275   51.2750 H   0  0  0  0  0  0  0  0  0  0  0  0
   64.2743   35.2542   51.2750 H   0  0  0  0  0  0  0  0  0  0  0  0
   64.2751   33.7399   47.8241 H   0  0  0  0  0  0  0  0  0  0  0  0
   63.6035   31.8600   46.3341 H   0  0  0  0  0  0  0  0  0  0  0  0
   61.4201   30.7090   46.6748 H   0  0  0  0  0  0  0  0  0  0  0  0
   60.6909   27.1179   48.9595 H   0  0  0  0  0  0  0  0  0  0  0  0
   60.4927   25.3899   47.1697 H   0  0  0  0  0  0  0  0  0  0  0  0
   59.0006   25.7784   45.2135 H   0  0  0  0  0  0  0  0  0  0  0  0
   56.7820   27.2340   44.5120 H   0  0  0  0  0  0  0  0  0  0  0  0
   58.7792   28.9943   43.4202 H   0  0  0  0  0  0  0  0  0  0  0  0
   57.0656   28.8387   42.8860 H   0  0  0  0  0  0  0  0  0  0  0  0
   59.4310   31.2403   44.6996 H   0  0  0  0  0  0  0  0  0  0  0  0
   57.2407   34.4650   45.3053 H   0  0  0  0  0  0  0  0  0  0  0  0
   60.0892   34.3376   45.5503 H   0  0  0  0  0  0  0  0  0  0  0  0
   59.6272   33.2643   44.1861 H   0  0  0  0  0  0  0  0  0  0  0  0
   59.1176   34.9868   44.1861 H   0  0  0  0  0  0  0  0  0  0  0  0
   57.2489   33.5847   47.5717 H   0  0  0  0  0  0  0  0  0  0  0  0
   58.9268   32.9769   47.3674 H   0  0  0  0  0  0  0  0  0  0  0  0
   58.6055   34.7442   47.3674 H   0  0  0  0  0  0  0  0  0  0  0  0
   57.8512   29.6183   46.8555 H   0  0  0  0  0  0  0  0  0  0  0  0
   60.5633   33.3248   50.0189 H   0  0  0  0  0  0  0  0  0  0  0  0
  1  2  1  0
  2  3  1  0
  3  4  2  0
  4  5  1  0
  5  6  2  0
  6  7  1  0
  7  8  1  0
  8  9  1  0
  9 10  2  0
  9 11  2  0
  9 12  1  0
 12 13  2  0
 13 14  1  0
 14 15  2  0
 15 16  1  0
 16 17  1  0
 17 18  1  0
 18 19  1  0
 19 20  1  0
 20 21  2  0
 21 22  1  0
 22 23  1  0
 22 24  1  0
 21 25  1  0
 25 26  1  0
 16 27  2  0
  7 28  2  0
 28  3  1  0
 27 12  1  0
 26 19  2  0
  1 29  1  0
  1 30  1  0
  1 31  1  0
  4 32  1  0
  5 33  1  0
  6 34  1  0
 13 35  1  0
 14 36  1  0
 15 37  1  0
 17 38  1  0
 18 39  1  0
 18 40  1  0
 20 41  1  0
 22 42  1  0
 23 43  1  0
 23 44  1  0
 23 45  1  0
 24 46  1  0
 24 47  1  0
 24 48  1  0
 27 49  1  0
 28 50  1  0
M  CHG  1   8  -1
M  END
>  <UniqueID>  (79) 
71

>  <SMILES>  (79) 
COc1cccc([N-]S(=O)(=O)c2cccc(NCc3cc(C(C)C)on3)c2)c1

>  <Energy>  (79) 
76.82532034364274

>  <Genealogy>  (79) 
COc1cccc([N-]S(=O)(=O)c2cccc(NCc3cc(C(C)C)on3)c2)c1 (protonated)
COc1cccc([N-]S(=O)(=O)c2cccc(NCc3cc(C(C)C)on3)c2)c1 (3D coordinates assigned)
COc1cccc([N-]S(=O)(=O)c2cccc(NCc3cc(C(C)C)on3)c2)c1 (optimized conformer: 76.82532034364274 kcal/mol)

>  <smiles>  (79) 
COc1cccc(NS(=O)(=O)c2cccc(NCc3cc(C(C)C)on3)c2)c1

>  <score_type>  (79) 
oracle

>  <origin>  (79) 
adg

>  <m_score__min__energy>  (79) 
-10.369999999999999

>  <m_primary>  (79) 
energy

$$$$
79:0
     RDKit          3D

 45 47  0  0  0  0  0  0  0  0999 V2000
   58.3710   34.2320   46.9040 C   0  0  0  0  0  0  0  0  0  0  0  0
   58.0760   33.3920   45.7080 C   0  0  0  0  0  0  0  0  0  0  0  0
   57.4770   32.1400   45.7260 C   0  0  0  0  0  0  0  0  0  0  0  0
   57.4100   31.5420   44.4590 C   0  0  0  0  0  0  0  0  0  0  0  0
   56.7020   29.9490   44.1950 S   0  0  0  0  0  0  0  0  0  0  0  0
   56.0700   29.9080   42.8310 O   0  0  0  0  0  0  0  0  0  0  0  0
   55.6480   29.7200   45.2410 O   0  0  0  0  0  0  0  0  0  0  0  0
   57.9530   28.7280   44.3200 N   0  0  0  0  0  0  0  0  0  0  0  0
   57.7340   27.8220   45.4720 C   0  0  0  0  0  0  0  0  0  0  0  0
   58.6030   28.1680   46.6940 C   0  0  0  0  0  0  0  0  0  0  0  0
   58.8270   29.6160   46.7470 N   0  0  0  0  0  0  0  0  0  0  0  0
   59.5730   30.0700   48.2590 S   0  0  0  0  0  0  0  0  0  0  0  0
   58.5230   30.5970   49.1970 O   0  0  0  0  0  0  0  0  0  0  0  0
   60.1950   28.8550   48.8900 O   0  0  0  0  0  0  0  0  0  0  0  0
   60.8190   31.3000   48.0250 C   0  0  0  0  0  0  0  0  0  0  0  0
   60.5800   32.6320   48.3940 C   0  0  0  0  0  0  0  0  0  0  0  0
   61.5660   33.6030   48.2000 C   0  0  0  0  0  0  0  0  0  0  0  0
   62.7970   33.2510   47.6370 C   0  0  0  0  0  0  0  0  0  0  0  0
   63.7520   34.1940   47.4490 F   0  0  0  0  0  0  0  0  0  0  0  0
   63.0410   31.9240   47.2700 C   0  0  0  0  0  0  0  0  0  0  0  0
   62.0570   30.9500   47.4630 C   0  0  0  0  0  0  0  0  0  0  0  0
   59.6440   30.0720   45.6070 C   0  0  0  0  0  0  0  0  0  0  0  0
   59.3040   29.3170   44.3020 C   0  0  0  0  0  0  0  0  0  0  0  0
   57.9510   32.3350   43.4460 C   0  0  0  0  0  0  0  0  0  0  0  0
   58.0770   31.9770   42.0010 C   0  0  0  0  0  0  0  0  0  0  0  0
   58.5470   33.7500   44.1340 S   0  0  0  0  0  0  0  0  0  0  0  0
   58.1679   33.6537   47.8174 H   0  0  0  0  0  0  0  0  0  0  0  0
   59.4288   34.5334   46.8885 H   0  0  0  0  0  0  0  0  0  0  0  0
   57.7340   35.1286   46.8885 H   0  0  0  0  0  0  0  0  0  0  0  0
   57.0937   31.6649   46.6411 H   0  0  0  0  0  0  0  0  0  0  0  0
   56.6762   27.8829   45.7676 H   0  0  0  0  0  0  0  0  0  0  0  0
   58.0169   26.8096   45.1479 H   0  0  0  0  0  0  0  0  0  0  0  0
   58.0898   27.8436   47.6113 H   0  0  0  0  0  0  0  0  0  0  0  0
   59.5711   27.6524   46.6103 H   0  0  0  0  0  0  0  0  0  0  0  0
   59.6134   32.9131   48.8375 H   0  0  0  0  0  0  0  0  0  0  0  0
   61.3736   34.6463   48.4907 H   0  0  0  0  0  0  0  0  0  0  0  0
   64.0093   31.6459   46.8285 H   0  0  0  0  0  0  0  0  0  0  0  0
   62.2532   29.9070   47.1739 H   0  0  0  0  0  0  0  0  0  0  0  0
   59.4652   31.1461   45.4510 H   0  0  0  0  0  0  0  0  0  0  0  0
   60.6984   29.8707   45.8471 H   0  0  0  0  0  0  0  0  0  0  0  0
   59.3690   30.0224   43.4604 H   0  0  0  0  0  0  0  0  0  0  0  0
   60.0243   28.4921   44.1986 H   0  0  0  0  0  0  0  0  0  0  0  0
   58.4409   30.9430   41.9098 H   0  0  0  0  0  0  0  0  0  0  0  0
   57.0942   32.0640   41.5146 H   0  0  0  0  0  0  0  0  0  0  0  0
   58.7886   32.6604   41.5146 H   0  0  0  0  0  0  0  0  0  0  0  0
  1  2  1  0
  2  3  2  0
  3  4  1  0
  4  5  1  0
  5  6  2  0
  5  7  2  0
  5  8  1  0
  8  9  1  0
  9 10  1  0
 10 11  1  0
 11 12  1  0
 12 13  2  0
 12 14  2  0
 12 15  1  0
 15 16  2  0
 16 17  1  0
 17 18  2  0
 18 19  1  0
 18 20  1  0
 20 21  2  0
 11 22  1  0
 22 23  1  0
  4 24  2  0
 24 25  1  0
 24 26  1  0
 26  2  1  0
 23  8  1  0
 21 15  1  0
  1 27  1  0
  1 28  1  0
  1 29  1  0
  3 30  1  0
  9 31  1  0
  9 32  1  0
 10 33  1  0
 10 34  1  0
 16 35  1  0
 17 36  1  0
 20 37  1  0
 21 38  1  0
 22 39  1  0
 22 40  1  0
 23 41  1  0
 23 42  1  0
 25 43  1  0
 25 44  1  0
 25 45  1  0
M  END
>  <UniqueID>  (80) 
72

>  <SMILES>  (80) 
Cc1cc(S(=O)(=O)N2CCN(S(=O)(=O)c3ccc(F)cc3)CC2)c(C)s1

>  <Energy>  (80) 
77.59805582317966

>  <Genealogy>  (80) 
Cc1cc(S(=O)(=O)N2CCN(S(=O)(=O)c3ccc(F)cc3)CC2)c(C)s1 (3D coordinates assigned)
Cc1cc(S(=O)(=O)N2CCN(S(=O)(=O)c3ccc(F)cc3)CC2)c(C)s1 (nonaromatic ring conformer: 77.59805582317966 kcal/mol)

>  <smiles>  (80) 
Cc1cc(S(=O)(=O)N2CCN(S(=O)(=O)c3ccc(F)cc3)CC2)c(C)s1

>  <score_type>  (80) 
oracle

>  <origin>  (80) 
adg

>  <m_score__min__energy>  (80) 
-10.380000000000001

>  <m_primary>  (80) 
energy

$$$$
80:0
     RDKit          3D

 60 64  0  0  0  0  0  0  0  0999 V2000
   63.5020   32.7630   46.7780 C   0  0  0  0  0  0  0  0  0  0  0  0
   63.4130   34.0530   47.3110 C   0  0  0  0  0  0  0  0  0  0  0  0
   63.0520   34.2350   48.6490 C   0  0  0  0  0  0  0  0  0  0  0  0
   62.7750   33.1250   49.4680 C   0  0  0  0  0  0  0  0  0  0  0  0
   62.3830   33.3090   50.8460 N   0  0  0  0  0  0  0  0  0  0  0  0
   63.0360   32.3310   51.7340 C   0  0  0  0  0  0  0  0  0  0  0  0
   62.1200   31.1390   52.0620 C   0  0  0  0  0  0  0  0  0  0  0  0
   60.8930   31.1990   51.2390 N   0  0  0  0  0  0  0  0  0  0  0  0
   59.7420   31.6730   52.0410 C   0  0  0  0  0  0  0  0  0  0  0  0
   58.3910   31.4800   51.3170 C   0  0  0  0  0  0  0  0  0  0  0  0
   58.5610   31.2570   49.8040 C   0  0  0  0  0  0  0  0  0  0  0  0
   59.0320   32.5260   49.1270 C   0  0  0  0  0  0  0  0  0  0  0  0
   59.5780   33.5930   49.7620 N   0  0  0  0  0  0  0  0  0  0  0  0
   59.8100   34.5560   48.8750 N   0  0  0  0  0  0  0  0  0  0  0  0
   59.4010   34.1030   47.6780 C   0  0  0  0  0  0  0  0  0  0  0  0
   59.4270   34.7710   46.4610 C   0  0  0  0  0  0  0  0  0  0  0  0
   58.9130   34.1030   45.3340 C   0  0  0  0  0  0  0  0  0  0  0  0
   58.3790   32.7860   45.4390 C   0  0  0  0  0  0  0  0  0  0  0  0
   57.8370   32.1150   44.2770 N   0  0  0  0  0  0  0  0  0  0  0  0
   56.9420   30.9690   44.3430 C   0  0  0  0  0  0  0  0  0  0  0  0
   56.7920   30.4740   42.9120 C   0  0  0  0  0  0  0  0  0  0  0  0
   57.2570   31.6230   42.0260 C   0  0  0  0  0  0  0  0  0  0  0  0
   58.1470   32.4900   42.9050 C   0  0  0  0  0  0  0  0  0  0  0  0
   58.3810   32.1450   46.7040 C   0  0  0  0  0  0  0  0  0  0  0  0
   58.9030   32.8400   47.7920 C   0  0  0  0  0  0  0  0  0  0  0  0
   59.5020   30.0570   49.5350 C   0  0  0  0  0  0  0  0  0  0  0  0
   60.5900   29.8950   50.6150 C   0  0  0  0  0  0  0  0  0  0  0  0
   62.8690   31.8320   48.9230 C   0  0  0  0  0  0  0  0  0  0  0  0
   63.2310   31.6550   47.5840 C   0  0  0  0  0  0  0  0  0  0  0  0
   63.7853   32.6211   45.7246 H   0  0  0  0  0  0  0  0  0  0  0  0
   63.6274   34.9255   46.6764 H   0  0  0  0  0  0  0  0  0  0  0  0
   62.9841   35.2515   49.0639 H   0  0  0  0  0  0  0  0  0  0  0  0
   62.6620   34.2720   51.1470 H   0  0  0  0  0  0  0  0  0  0  0  0
   61.3430   33.2450   50.9480 H   0  0  0  0  0  0  0  0  0  0  0  0
   63.9434   31.9544   51.2393 H   0  0  0  0  0  0  0  0  0  0  0  0
   63.2763   32.8412   52.6784 H   0  0  0  0  0  0  0  0  0  0  0  0
   62.6541   30.2009   51.8508 H   0  0  0  0  0  0  0  0  0  0  0  0
   61.8423   31.1805   53.1256 H   0  0  0  0  0  0  0  0  0  0  0  0
   59.7175   31.1123   52.9870 H   0  0  0  0  0  0  0  0  0  0  0  0
   59.8769   32.7514   52.2107 H   0  0  0  0  0  0  0  0  0  0  0  0
   57.8816   30.6053   51.7476 H   0  0  0  0  0  0  0  0  0  0  0  0
   57.8026   32.3990   51.4558 H   0  0  0  0  0  0  0  0  0  0  0  0
   57.5838   31.0050   49.3662 H   0  0  0  0  0  0  0  0  0  0  0  0
   59.8360   35.7890   46.3804 H   0  0  0  0  0  0  0  0  0  0  0  0
   58.9236   34.6059   44.3557 H   0  0  0  0  0  0  0  0  0  0  0  0
   57.3751   30.1813   44.9769 H   0  0  0  0  0  0  0  0  0  0  0  0
   55.9699   31.2404   44.7804 H   0  0  0  0  0  0  0  0  0  0  0  0
   57.4179   29.5847   42.7464 H   0  0  0  0  0  0  0  0  0  0  0  0
   55.7542   30.1849   42.6897 H   0  0  0  0  0  0  0  0  0  0  0  0
   57.8256   31.2382   41.1665 H   0  0  0  0  0  0  0  0  0  0  0  0
   56.4071   32.1932   41.6229 H   0  0  0  0  0  0  0  0  0  0  0  0
   59.2073   32.2963   42.6854 H   0  0  0  0  0  0  0  0  0  0  0  0
   57.9696   33.5612   42.7285 H   0  0  0  0  0  0  0  0  0  0  0  0
   57.9813   31.1271   46.8225 H   0  0  0  0  0  0  0  0  0  0  0  0
   58.8986   29.1378   49.5037 H   0  0  0  0  0  0  0  0  0  0  0  0
   60.0114   30.2445   48.5783 H   0  0  0  0  0  0  0  0  0  0  0  0
   60.2333   29.1976   51.3873 H   0  0  0  0  0  0  0  0  0  0  0  0
   61.5041   29.5028   50.1452 H   0  0  0  0  0  0  0  0  0  0  0  0
   62.6567   30.9557   49.5531 H   0  0  0  0  0  0  0  0  0  0  0  0
   63.3025   30.6407   47.1644 H   0  0  0  0  0  0  0  0  0  0  0  0
  1  2  2  0
  2  3  1  0
  3  4  2  0
  4  5  1  0
  5  6  1  0
  6  7  1  0
  7  8  1  0
  8  9  1  0
  9 10  1  0
 10 11  1  0
 11 12  1  0
 12 13  2  0
 13 14  1  0
 14 15  1  0
 15 16  2  0
 16 17  1  0
 17 18  2  0
 18 19  1  0
 19 20  1  0
 20 21  1  0
 21 22  1  0
 22 23  1  0
 18 24  1  0
 24 25  2  0
 11 26  1  0
 26 27  1  0
  4 28  1  0
 28 29  2  0
 29  1  1  0
 27  8  1  0
 25 12  1  0
 25 15  1  0
 23 19  1  0
  1 30  1  0
  2 31  1  0
  3 32  1  0
  5 33  1  0
  5 34  1  0
  6 35  1  0
  6 36  1  0
  7 37  1  0
  7 38  1  0
  9 39  1  0
  9 40  1  0
 10 41  1  0
 10 42  1  0
 11 43  1  0
 16 44  1  0
 17 45  1  0
 20 46  1  0
 20 47  1  0
 21 48  1  0
 21 49  1  0
 22 50  1  0
 22 51  1  0
 23 52  1  0
 23 53  1  0
 24 54  1  0
 26 55  1  0
 26 56  1  0
 27 57  1  0
 27 58  1  0
 28 59  1  0
 29 60  1  0
M  CHG  2   5   1  14  -1
M  END
>  <UniqueID>  (81) 
73

>  <SMILES>  (81) 
c1ccc([NH2+]CCN2CCC(c3n[n-]c4ccc(N5CCCC5)cc34)CC2)cc1

>  <Energy>  (81) 
109.5881881424875

>  <Genealogy>  (81) 
c1ccc([NH2+]CCN2CCC(c3n[n-]c4ccc(N5CCCC5)cc34)CC2)cc1 (protonated)
c1ccc([NH2+]CCN2CCC(c3n[n-]c4ccc(N5CCCC5)cc34)CC2)cc1 (3D coordinates assigned)
c1ccc([NH2+]CCN2CCC(c3n[n-]c4ccc(N5CCCC5)cc34)CC2)cc1 (nonaromatic ring conformer: 109.5881881424875 kcal/mol)

>  <smiles>  (81) 
c1ccc(NCCN2CCC(c3n[nH]c4ccc(N5CCCC5)cc34)CC2)cc1

>  <score_type>  (81) 
oracle

>  <origin>  (81) 
adg

>  <m_score__min__energy>  (81) 
-7.2000000000000002

>  <m_primary>  (81) 
energy

$$$$
81:0
     RDKit          3D

 26 27  0  0  0  0  0  0  0  0999 V2000
   60.0690   33.9940   49.2510 C   0  0  0  0  0  0  0  0  0  0  0  0
   59.4450   33.4180   48.0140 C   0  0  0  0  0  0  0  0  0  0  0  0
   58.6680   34.2270   47.1720 C   0  0  0  0  0  0  0  0  0  0  0  0
   58.1160   33.7010   46.0000 C   0  0  0  0  0  0  0  0  0  0  0  0
   58.3490   32.3620   45.6450 C   0  0  0  0  0  0  0  0  0  0  0  0
   57.7550   31.7990   44.4070 C   0  0  0  0  0  0  0  0  0  0  0  0
   57.9340   32.4760   43.1890 C   0  0  0  0  0  0  0  0  0  0  0  0
   57.3950   31.9450   42.0180 C   0  0  0  0  0  0  0  0  0  0  0  0
   56.6820   30.7520   42.0650 C   0  0  0  0  0  0  0  0  0  0  0  0
   56.5090   30.1050   43.2890 C   0  0  0  0  0  0  0  0  0  0  0  0
   57.0370   30.6300   44.4340 N   0  0  0  0  0  0  0  0  0  0  0  0
   56.8090   29.9910   45.6370 O   0  0  0  0  0  0  0  0  0  0  0  0
   59.1350   31.5570   46.4850 C   0  0  0  0  0  0  0  0  0  0  0  0
   59.6870   32.0840   47.6560 C   0  0  0  0  0  0  0  0  0  0  0  0
   59.5932   33.5548   50.1402 H   0  0  0  0  0  0  0  0  0  0  0  0
   61.1448   33.7648   49.2598 H   0  0  0  0  0  0  0  0  0  0  0  0
   59.9264   35.0847   49.2598 H   0  0  0  0  0  0  0  0  0  0  0  0
   58.4920   35.2805   47.4350 H   0  0  0  0  0  0  0  0  0  0  0  0
   57.4962   34.3389   45.3527 H   0  0  0  0  0  0  0  0  0  0  0  0
   58.4968   33.4207   43.1594 H   0  0  0  0  0  0  0  0  0  0  0  0
   57.5333   32.4679   41.0602 H   0  0  0  0  0  0  0  0  0  0  0  0
   56.2582   30.3222   41.1454 H   0  0  0  0  0  0  0  0  0  0  0  0
   55.9421   29.1633   43.3322 H   0  0  0  0  0  0  0  0  0  0  0  0
   55.8710   29.8480   45.9930 H   0  0  0  0  0  0  0  0  0  0  0  0
   59.3175   30.5051   46.2199 H   0  0  0  0  0  0  0  0  0  0  0  0
   60.3140   31.4495   48.2996 H   0  0  0  0  0  0  0  0  0  0  0  0
  1  2  1  0
  2  3  2  0
  3  4  1  0
  4  5  2  0
  5  6  1  0
  6  7  2  0
  7  8  1  0
  8  9  2  0
  9 10  1  0
 10 11  2  0
 11 12  1  0
  5 13  1  0
 13 14  2  0
 14  2  1  0
 11  6  1  0
  1 15  1  0
  1 16  1  0
  1 17  1  0
  3 18  1  0
  4 19  1  0
  7 20  1  0
  8 21  1  0
  9 22  1  0
 10 23  1  0
 12 24  1  0
 13 25  1  0
 14 26  1  0
M  CHG  1  11   1
M  END
>  <UniqueID>  (82) 
74

>  <SMILES>  (82) 
Cc1ccc(-c2cccc[n+]2O)cc1

>  <Energy>  (82) 
32.58211721488377

>  <Genealogy>  (82) 
Cc1ccc(-c2cccc[n+]2O)cc1 (protonated)
Cc1ccc(-c2cccc[n+]2O)cc1 (3D coordinates assigned)
Cc1ccc(-c2cccc[n+]2O)cc1 (optimized conformer: 32.58211721488377 kcal/mol)

>  <smiles>  (82) 
Cc1ccc(-c2cccc[n+]2[O-])cc1

>  <score_type>  (82) 
oracle

>  <origin>  (82) 
adg

>  <m_score__min__energy>  (82) 
-4.6399999999999997

>  <m_primary>  (82) 
energy

$$$$
82:0
     RDKit          3D

 45 47  0  0  0  0  0  0  0  0999 V2000
   59.3370   22.2190   44.8640 C   0  0  0  0  0  0  0  0  0  0  0  0
   59.0850   23.0760   45.9720 O   0  0  0  0  0  0  0  0  0  0  0  0
   58.4120   24.3040   45.8870 C   0  0  0  0  0  0  0  0  0  0  0  0
   59.0880   25.5250   45.7000 C   0  0  0  0  0  0  0  0  0  0  0  0
   58.3720   26.7230   45.6160 C   0  0  0  0  0  0  0  0  0  0  0  0
   56.9690   26.7220   45.7140 C   0  0  0  0  0  0  0  0  0  0  0  0
   56.1800   27.9180   45.6230 N   0  0  0  0  0  0  0  0  0  0  0  0
   56.5380   29.3620   44.7260 S   0  0  0  0  0  0  0  0  0  0  0  0
   57.0620   28.9430   43.3810 O   0  0  0  0  0  0  0  0  0  0  0  0
   55.2990   30.1830   44.5030 O   0  0  0  0  0  0  0  0  0  0  0  0
   57.7670   30.3160   45.5620 C   0  0  0  0  0  0  0  0  0  0  0  0
   57.9340   31.6740   45.2640 C   0  0  0  0  0  0  0  0  0  0  0  0
   58.9130   32.4230   45.9190 C   0  0  0  0  0  0  0  0  0  0  0  0
   59.7360   31.8300   46.8870 C   0  0  0  0  0  0  0  0  0  0  0  0
   60.7520   32.6120   47.5360 N   0  0  0  0  0  0  0  0  0  0  0  0
   60.3820   33.8420   48.2370 C   0  0  0  0  0  0  0  0  0  0  0  0
   61.4390   34.1620   49.2990 C   0  0  0  0  0  0  0  0  0  0  0  0
   62.7340   34.1760   48.7310 O   0  0  0  0  0  0  0  0  0  0  0  0
   63.0710   32.8810   48.2690 C   0  0  0  0  0  0  0  0  0  0  0  0
   62.1480   32.4530   47.1240 C   0  0  0  0  0  0  0  0  0  0  0  0
   59.5610   30.4670   47.2050 C   0  0  0  0  0  0  0  0  0  0  0  0
   60.3480   29.8370   48.2230 N   0  0  0  0  0  0  0  0  0  0  0  0
   58.5810   29.7200   46.5350 C   0  0  0  0  0  0  0  0  0  0  0  0
   56.3030   25.5060   45.9040 C   0  0  0  0  0  0  0  0  0  0  0  0
   57.0170   24.3080   45.9890 C   0  0  0  0  0  0  0  0  0  0  0  0
   59.6297   21.2236   45.2295 H   0  0  0  0  0  0  0  0  0  0  0  0
   58.4264   22.1321   44.2531 H   0  0  0  0  0  0  0  0  0  0  0  0
   60.1497   22.6389   44.2531 H   0  0  0  0  0  0  0  0  0  0  0  0
   60.1850   25.5364   45.6196 H   0  0  0  0  0  0  0  0  0  0  0  0
   58.9093   27.6721   45.4724 H   0  0  0  0  0  0  0  0  0  0  0  0
   57.2910   32.1525   44.5106 H   0  0  0  0  0  0  0  0  0  0  0  0
   59.0399   33.4877   45.6736 H   0  0  0  0  0  0  0  0  0  0  0  0
   60.3233   34.6712   47.5166 H   0  0  0  0  0  0  0  0  0  0  0  0
   59.4038   33.7077   48.7219 H   0  0  0  0  0  0  0  0  0  0  0  0
   61.2255   35.1494   49.7342 H   0  0  0  0  0  0  0  0  0  0  0  0
   61.4037   33.3849   50.0767 H   0  0  0  0  0  0  0  0  0  0  0  0
   64.1111   32.8855   47.9109 H   0  0  0  0  0  0  0  0  0  0  0  0
   62.9543   32.1695   49.0998 H   0  0  0  0  0  0  0  0  0  0  0  0
   62.3435   33.0801   46.2417 H   0  0  0  0  0  0  0  0  0  0  0  0
   62.3385   31.3988   46.8744 H   0  0  0  0  0  0  0  0  0  0  0  0
   60.4800   28.8010   48.2290 H   0  0  0  0  0  0  0  0  0  0  0  0
   60.7910   30.3850   48.9950 H   0  0  0  0  0  0  0  0  0  0  0  0
   58.4498   28.6547   46.7758 H   0  0  0  0  0  0  0  0  0  0  0  0
   55.2062   25.4932   45.9873 H   0  0  0  0  0  0  0  0  0  0  0  0
   56.4779   23.3607   46.1373 H   0  0  0  0  0  0  0  0  0  0  0  0
  1  2  1  0
  2  3  1  0
  3  4  2  0
  4  5  1  0
  5  6  2  0
  6  7  1  0
  7  8  1  0
  8  9  2  0
  8 10  2  0
  8 11  1  0
 11 12  2  0
 12 13  1  0
 13 14  2  0
 14 15  1  0
 15 16  1  0
 16 17  1  0
 17 18  1  0
 18 19  1  0
 19 20  1  0
 14 21  1  0
 21 22  1  0
 21 23  2  0
  6 24  1  0
 24 25  2  0
 25  3  1  0
 23 11  1  0
 20 15  1  0
  1 26  1  0
  1 27  1  0
  1 28  1  0
  4 29  1  0
  5 30  1  0
 12 31  1  0
 13 32  1  0
 16 33  1  0
 16 34  1  0
 17 35  1  0
 17 36  1  0
 19 37  1  0
 19 38  1  0
 20 39  1  0
 20 40  1  0
 22 41  1  0
 22 42  1  0
 23 43  1  0
 24 44  1  0
 25 45  1  0
M  CHG  1   7  -1
M  END
>  <UniqueID>  (83) 
75

>  <SMILES>  (83) 
COc1ccc([N-]S(=O)(=O)c2ccc(N3CCOCC3)c(N)c2)cc1

>  <Energy>  (83) 
56.88017271641756

>  <Genealogy>  (83) 
COc1ccc([N-]S(=O)(=O)c2ccc(N3CCOCC3)c(N)c2)cc1 (protonated)
COc1ccc([N-]S(=O)(=O)c2ccc(N3CCOCC3)c(N)c2)cc1 (3D coordinates assigned)
COc1ccc([N-]S(=O)(=O)c2ccc(N3CCOCC3)c(N)c2)cc1 (nonaromatic ring conformer: 56.88017271641756 kcal/mol)

>  <smiles>  (83) 
COc1ccc(NS(=O)(=O)c2ccc(N3CCOCC3)c(N)c2)cc1

>  <score_type>  (83) 
oracle

>  <origin>  (83) 
adg

>  <m_score__min__energy>  (83) 
-8.5199999999999996

>  <m_primary>  (83) 
energy

$$$$
83:0
     RDKit          3D

 50 51  0  0  1  0  0  0  0  0999 V2000
   62.7870   31.5800   47.4980 C   0  0  0  0  0  0  0  0  0  0  0  0
   61.4680   31.2830   48.0620 N   0  0  0  0  0  0  0  0  0  0  0  0
   60.9920   32.1030   49.1640 C   0  0  0  0  0  0  0  0  0  0  0  0
   60.6770   30.2210   47.5460 C   0  0  0  0  0  0  0  0  0  0  0  0
   60.7750   29.7660   46.2430 C   0  0  0  0  0  0  0  0  0  0  0  0
   59.9890   28.7360   45.7820 C   0  0  0  0  0  0  0  0  0  0  0  0
   59.0890   28.1570   46.6550 C   0  0  0  0  0  0  0  0  0  0  0  0
   58.2250   27.0350   46.1650 C   0  0  0  0  0  0  0  0  0  0  0  0
   57.6250   27.5330   44.8520 C   0  0  0  0  0  0  0  0  0  0  0  0
   56.7280   28.6320   45.1410 N   0  0  0  0  0  0  0  0  0  0  0  0
   56.4810   29.6140   44.1430 C   0  0  0  0  0  0  0  0  0  0  0  0
   56.4810   29.3370   42.8930 N   0  0  0  0  0  0  0  0  0  0  0  0
   56.2160   30.9810   44.4910 N   0  0  0  0  0  0  0  0  0  0  0  0
   57.1410   31.8460   44.6450 C   0  0  0  0  0  0  0  0  0  0  0  0
   57.9860   32.4500   43.8230 N   0  0  0  0  0  0  0  0  0  0  0  0
   58.8060   33.2850   44.3150 N   0  0  0  0  0  0  0  0  0  0  0  0
   58.9270   33.6230   45.4960 C   0  0  0  0  0  0  0  0  0  0  0  0
   59.7330   34.5180   46.3400 C   0  0  0  0  0  0  0  0  0  0  0  0
   59.6830   35.9040   45.7080 C   0  0  0  0  0  0  0  0  0  0  0  0
   61.1510   33.9840   46.2950 C   0  0  0  0  0  0  0  0  0  0  0  0
   59.2760   34.5880   47.7580 C   0  0  0  0  0  0  0  0  0  0  0  0
   57.5810   32.5620   46.2900 S   0  0  0  0  0  0  0  0  0  0  0  0
   58.9480   28.5680   47.9620 C   0  0  0  0  0  0  0  0  0  0  0  0
   59.7600   29.6080   48.3820 C   0  0  0  0  0  0  0  0  0  0  0  0
   63.5067   31.7420   48.3140 H   0  0  0  0  0  0  0  0  0  0  0  0
   63.1197   30.7343   46.8783 H   0  0  0  0  0  0  0  0  0  0  0  0
   62.7251   32.4867   46.8783 H   0  0  0  0  0  0  0  0  0  0  0  0
   61.2666   31.6299   50.1183 H   0  0  0  0  0  0  0  0  0  0  0  0
   61.4514   33.1007   49.1038 H   0  0  0  0  0  0  0  0  0  0  0  0
   59.8978   32.1989   49.1038 H   0  0  0  0  0  0  0  0  0  0  0  0
   61.4973   30.2384   45.5610 H   0  0  0  0  0  0  0  0  0  0  0  0
   60.0750   28.3822   44.7440 H   0  0  0  0  0  0  0  0  0  0  0  0
   58.8276   26.1306   45.9948 H   0  0  0  0  0  0  0  0  0  0  0  0
   57.4477   26.7665   46.8956 H   0  0  0  0  0  0  0  0  0  0  0  0
   58.4287   27.8766   44.1841 H   0  0  0  0  0  0  0  0  0  0  0  0
   57.0745   26.7188   44.3579 H   0  0  0  0  0  0  0  0  0  0  0  0
   56.2500   28.7380   46.0630 H   0  0  0  0  0  0  0  0  0  0  0  0
   56.3040   28.3620   42.5930 H   0  0  0  0  0  0  0  0  0  0  0  0
   57.9580   32.2200   42.7670 H   0  0  0  0  0  0  0  0  0  0  0  0
   59.6555   36.6672   46.4997 H   0  0  0  0  0  0  0  0  0  0  0  0
   60.5763   36.0549   45.0841 H   0  0  0  0  0  0  0  0  0  0  0  0
   58.7812   35.9902   45.0841 H   0  0  0  0  0  0  0  0  0  0  0  0
   61.5228   33.8440   47.3207 H   0  0  0  0  0  0  0  0  0  0  0  0
   61.1631   33.0197   45.7658 H   0  0  0  0  0  0  0  0  0  0  0  0
   61.7961   34.7008   45.7658 H   0  0  0  0  0  0  0  0  0  0  0  0
   60.1383   34.4559   48.4281 H   0  0  0  0  0  0  0  0  0  0  0  0
   58.8123   35.5676   47.9459 H   0  0  0  0  0  0  0  0  0  0  0  0
   58.5403   33.7921   47.9459 H   0  0  0  0  0  0  0  0  0  0  0  0
   58.2243   28.0924   48.6403 H   0  0  0  0  0  0  0  0  0  0  0  0
   59.6729   29.9606   49.4203 H   0  0  0  0  0  0  0  0  0  0  0  0
  1  2  1  0
  2  3  1  0
  2  4  1  0
  4  5  2  0
  5  6  1  0
  6  7  2  0
  7  8  1  0
  8  9  1  0
  9 10  1  0
 10 11  1  0
 11 12  2  0
 11 13  1  0
 13 14  2  0
 14 15  1  0
 15 16  1  0
 16 17  2  0
 17 18  1  0
 18 19  1  0
 18 20  1  0
 18 21  1  0
 17 22  1  0
  7 23  1  0
 23 24  2  0
 24  4  1  0
 22 14  1  0
  1 25  1  0
  1 26  1  0
  1 27  1  0
  3 28  1  0
  3 29  1  0
  3 30  1  0
  5 31  1  0
  6 32  1  0
  8 33  1  0
  8 34  1  0
  9 35  1  0
  9 36  1  0
 10 37  1  0
 12 38  1  0
 15 39  1  0
 19 40  1  0
 19 41  1  0
 19 42  1  0
 20 43  1  0
 20 44  1  0
 20 45  1  0
 21 46  1  0
 21 47  1  0
 21 48  1  0
 23 49  1  0
 24 50  1  0
M  END
>  <smiles>  (84) 
CN(C)c1ccc(CCNC(=N)N=c2[nH]nc(C(C)(C)C)s2)cc1

>  <score_type>  (84) 
oracle

>  <origin>  (84) 
adg

>  <m_score__min__energy>  (84) 
-8.8699999999999992

>  <m_primary>  (84) 
energy

$$$$
84:0
     RDKit          3D

 51 53  0  0  0  0  0  0  0  0999 V2000
   58.1380   32.6980   48.0380 C   0  0  0  0  0  0  0  0  0  0  0  0
   58.5910   33.9370   47.2680 C   0  0  0  0  0  0  0  0  0  0  0  0
   58.6420   33.6450   45.8180 N   0  0  0  0  0  0  0  0  0  0  0  0
   59.2320   34.7690   45.0560 C   0  0  0  0  0  0  0  0  0  0  0  0
   59.9770   35.7250   45.9880 C   0  0  0  0  0  0  0  0  0  0  0  0
   57.3010   33.2920   45.2910 C   0  0  0  0  0  0  0  0  0  0  0  0
   57.4010   32.0880   44.3510 C   0  0  0  0  0  0  0  0  0  0  0  0
   57.9460   30.9220   45.0690 N   0  0  0  0  0  0  0  0  0  0  0  0
   59.2060   30.9850   45.5210 N   0  0  0  0  0  0  0  0  0  0  0  0
   59.8230   29.9320   46.1310 C   0  0  0  0  0  0  0  0  0  0  0  0
   61.2450   30.1180   46.6240 C   0  0  0  0  0  0  0  0  0  0  0  0
   61.3580   31.3220   47.5260 C   0  0  0  0  0  0  0  0  0  0  0  0
   61.9230   32.5170   47.0460 C   0  0  0  0  0  0  0  0  0  0  0  0
   62.0370   33.6300   47.8840 C   0  0  0  0  0  0  0  0  0  0  0  0
   61.5970   33.5580   49.2080 C   0  0  0  0  0  0  0  0  0  0  0  0
   61.0480   32.3710   49.6980 C   0  0  0  0  0  0  0  0  0  0  0  0
   60.9330   31.2540   48.8640 C   0  0  0  0  0  0  0  0  0  0  0  0
   59.1070   28.7270   46.3120 C   0  0  0  0  0  0  0  0  0  0  0  0
   59.6680   27.5960   46.9430 C   0  0  0  0  0  0  0  0  0  0  0  0
   58.9240   26.4250   47.0980 C   0  0  0  0  0  0  0  0  0  0  0  0
   57.6140   26.3590   46.6290 C   0  0  0  0  0  0  0  0  0  0  0  0
   57.0400   27.4650   46.0030 C   0  0  0  0  0  0  0  0  0  0  0  0
   57.7760   28.6560   45.8400 C   0  0  0  0  0  0  0  0  0  0  0  0
   57.2100   29.7760   45.2130 C   0  0  0  0  0  0  0  0  0  0  0  0
   56.0230   29.7250   44.7830 O   0  0  0  0  0  0  0  0  0  0  0  0
   58.2088   32.8916   49.1185 H   0  0  0  0  0  0  0  0  0  0  0  0
   57.0960   32.4635   47.7750 H   0  0  0  0  0  0  0  0  0  0  0  0
   58.7830   31.8467   47.7750 H   0  0  0  0  0  0  0  0  0  0  0  0
   57.8810   34.7575   47.4490 H   0  0  0  0  0  0  0  0  0  0  0  0
   59.5947   34.2274   47.6120 H   0  0  0  0  0  0  0  0  0  0  0  0
   59.9362   34.3695   44.3113 H   0  0  0  0  0  0  0  0  0  0  0  0
   58.4214   35.3217   44.5586 H   0  0  0  0  0  0  0  0  0  0  0  0
   59.7671   35.4556   47.0336 H   0  0  0  0  0  0  0  0  0  0  0  0
   61.0584   35.6515   45.8005 H   0  0  0  0  0  0  0  0  0  0  0  0
   59.6415   36.7557   45.8005 H   0  0  0  0  0  0  0  0  0  0  0  0
   56.6350   33.0430   46.1303 H   0  0  0  0  0  0  0  0  0  0  0  0
   56.8981   34.1500   44.7328 H   0  0  0  0  0  0  0  0  0  0  0  0
   56.3995   31.8426   43.9679 H   0  0  0  0  0  0  0  0  0  0  0  0
   58.0723   32.3402   43.5169 H   0  0  0  0  0  0  0  0  0  0  0  0
   59.7430   31.8730   45.3950 H   0  0  0  0  0  0  0  0  0  0  0  0
   61.5509   29.2213   47.1829 H   0  0  0  0  0  0  0  0  0  0  0  0
   61.8976   30.2740   45.7524 H   0  0  0  0  0  0  0  0  0  0  0  0
   62.2769   32.5762   46.0062 H   0  0  0  0  0  0  0  0  0  0  0  0
   62.4738   34.5639   47.5004 H   0  0  0  0  0  0  0  0  0  0  0  0
   61.6830   34.4363   49.8646 H   0  0  0  0  0  0  0  0  0  0  0  0
   60.7054   32.3144   50.7418 H   0  0  0  0  0  0  0  0  0  0  0  0
   60.5082   30.3185   49.2569 H   0  0  0  0  0  0  0  0  0  0  0  0
   60.7018   27.6377   47.3164 H   0  0  0  0  0  0  0  0  0  0  0  0
   59.3738   25.5513   47.5923 H   0  0  0  0  0  0  0  0  0  0  0  0
   57.0319   25.4338   46.7525 H   0  0  0  0  0  0  0  0  0  0  0  0
   56.0054   27.4076   45.6338 H   0  0  0  0  0  0  0  0  0  0  0  0
  1  2  1  0
  2  3  1  0
  3  4  1  0
  4  5  1  0
  3  6  1  0
  6  7  1  0
  7  8  1  0
  8  9  1  0
  9 10  2  0
 10 11  1  0
 11 12  1  0
 12 13  2  0
 13 14  1  0
 14 15  2  0
 15 16  1  0
 16 17  2  0
 10 18  1  0
 18 19  2  0
 19 20  1  0
 20 21  2  0
 21 22  1  0
 22 23  2  0
 23 24  1  0
 24 25  2  0
 24  8  1  0
 17 12  1  0
 23 18  1  0
  1 26  1  0
  1 27  1  0
  1 28  1  0
  2 29  1  0
  2 30  1  0
  4 31  1  0
  4 32  1  0
  5 33  1  0
  5 34  1  0
  5 35  1  0
  6 36  1  0
  6 37  1  0
  7 38  1  0
  7 39  1  0
  9 40  1  0
 11 41  1  0
 11 42  1  0
 13 43  1  0
 14 44  1  0
 15 45  1  0
 16 46  1  0
 17 47  1  0
 19 48  1  0
 20 49  1  0
 21 50  1  0
 22 51  1  0
M  CHG  1   9   1
M  END
>  <UniqueID>  (85) 
76

>  <SMILES>  (85) 
CCN(CC)CCn1[nH+]c(Cc2ccccc2)c2ccccc2c1=O

>  <Energy>  (85) 
55.95137600636269

>  <Genealogy>  (85) 
CCN(CC)CCn1[nH+]c(Cc2ccccc2)c2ccccc2c1=O (protonated)
CCN(CC)CCn1[nH+]c(Cc2ccccc2)c2ccccc2c1=O (3D coordinates assigned)
CCN(CC)CCn1[nH+]c(Cc2ccccc2)c2ccccc2c1=O (optimized conformer: 55.95137600636269 kcal/mol)

>  <smiles>  (85) 
CCN(CC)CCn1nc(Cc2ccccc2)c2ccccc2c1=O

>  <score_type>  (85) 
oracle

>  <origin>  (85) 
adg

>  <m_score__min__energy>  (85) 
-6.25

>  <m_primary>  (85) 
energy

$$$$
85:0
     RDKit          3D

 42 44  0  0  0  0  0  0  0  0999 V2000
   57.6660   32.3890   42.5890 O   0  0  0  0  0  0  0  0  0  0  0  0
   57.7880   31.8460   43.7210 C   0  0  0  0  0  0  0  0  0  0  0  0
   57.1680   30.6160   43.9690 C   0  0  0  0  0  0  0  0  0  0  0  0
   56.2680   29.8040   42.6900 Cl  0  0  0  0  0  0  0  0  0  0  0  0
   57.2950   30.0360   45.2360 C   0  0  0  0  0  0  0  0  0  0  0  0
   56.6660   28.8290   45.5620 O   0  0  0  0  0  0  0  0  0  0  0  0
   57.3330   27.6010   45.6820 C   0  0  0  0  0  0  0  0  0  0  0  0
   56.5800   26.4510   45.9500 C   0  0  0  0  0  0  0  0  0  0  0  0
   57.2070   25.2070   46.0710 C   0  0  0  0  0  0  0  0  0  0  0  0
   58.5920   25.1010   45.9170 C   0  0  0  0  0  0  0  0  0  0  0  0
   59.1980   23.8940   46.0340 F   0  0  0  0  0  0  0  0  0  0  0  0
   59.3510   26.2420   45.6390 C   0  0  0  0  0  0  0  0  0  0  0  0
   58.7280   27.4870   45.5170 C   0  0  0  0  0  0  0  0  0  0  0  0
   58.0770   30.6730   46.1940 C   0  0  0  0  0  0  0  0  0  0  0  0
   58.6570   31.8670   45.9090 N   0  0  0  0  0  0  0  0  0  0  0  0
   58.5160   32.4550   44.7120 N   0  0  0  0  0  0  0  0  0  0  0  0
   59.0830   33.7990   44.5070 C   0  0  0  0  0  0  0  0  0  0  0  0
   58.8440   34.6890   45.7350 C   0  0  0  0  0  0  0  0  0  0  0  0
   59.8300   34.3900   46.8360 C   0  0  0  0  0  0  0  0  0  0  0  0
   59.4490   34.5250   48.1800 C   0  0  0  0  0  0  0  0  0  0  0  0
   60.3450   34.1970   49.2010 C   0  0  0  0  0  0  0  0  0  0  0  0
   61.6210   33.7210   48.8890 C   0  0  0  0  0  0  0  0  0  0  0  0
   62.0080   33.5470   47.5490 C   0  0  0  0  0  0  0  0  0  0  0  0
   63.3970   33.0690   47.2110 C   0  0  0  0  0  0  0  0  0  0  0  0
   64.3060   33.4800   48.1700 F   0  0  0  0  0  0  0  0  0  0  0  0
   63.7700   33.5870   45.9850 F   0  0  0  0  0  0  0  0  0  0  0  0
   63.4340   31.6860   47.1460 F   0  0  0  0  0  0  0  0  0  0  0  0
   61.1100   33.9020   46.5260 C   0  0  0  0  0  0  0  0  0  0  0  0
   55.4888   26.5268   46.0660 H   0  0  0  0  0  0  0  0  0  0  0  0
   56.6087   24.3098   46.2879 H   0  0  0  0  0  0  0  0  0  0  0  0
   60.4410   26.1594   45.5161 H   0  0  0  0  0  0  0  0  0  0  0  0
   59.3283   28.3807   45.2915 H   0  0  0  0  0  0  0  0  0  0  0  0
   58.2252   30.2101   47.1808 H   0  0  0  0  0  0  0  0  0  0  0  0
   59.2050   32.3360   46.6650 H   0  0  0  0  0  0  0  0  0  0  0  0
   60.1654   33.7102   44.3321 H   0  0  0  0  0  0  0  0  0  0  0  0
   58.5893   34.2594   43.6385 H   0  0  0  0  0  0  0  0  0  0  0  0
   58.9488   35.7430   45.4381 H   0  0  0  0  0  0  0  0  0  0  0  0
   57.8316   34.4874   46.1149 H   0  0  0  0  0  0  0  0  0  0  0  0
   58.4420   34.8901   48.4305 H   0  0  0  0  0  0  0  0  0  0  0  0
   60.0450   34.3138   50.2528 H   0  0  0  0  0  0  0  0  0  0  0  0
   62.3274   33.4808   49.6973 H   0  0  0  0  0  0  0  0  0  0  0  0
   61.4130   33.7964   45.4738 H   0  0  0  0  0  0  0  0  0  0  0  0
  1  2  2  0
  2  3  1  0
  3  4  1  0
  3  5  2  0
  5  6  1  0
  6  7  1  0
  7  8  2  0
  8  9  1  0
  9 10  2  0
 10 11  1  0
 10 12  1  0
 12 13  2  0
  5 14  1  0
 14 15  2  0
 15 16  1  0
 16 17  1  0
 17 18  1  0
 18 19  1  0
 19 20  2  0
 20 21  1  0
 21 22  2  0
 22 23  1  0
 23 24  1  0
 24 25  1  0
 24 26  1  0
 24 27  1  0
 23 28  2  0
 16  2  1  0
 28 19  1  0
 13  7  1  0
  8 29  1  0
  9 30  1  0
 12 31  1  0
 13 32  1  0
 14 33  1  0
 15 34  1  0
 17 35  1  0
 17 36  1  0
 18 37  1  0
 18 38  1  0
 20 39  1  0
 21 40  1  0
 22 41  1  0
 28 42  1  0
M  CHG  1  15   1
M  END
>  <UniqueID>  (86) 
77

>  <SMILES>  (86) 
O=c1c(Cl)c(Oc2ccc(F)cc2)c[nH+]n1CCc1cccc(C(F)(F)F)c1

>  <Energy>  (86) 
51.63369241817797

>  <Genealogy>  (86) 
O=c1c(Cl)c(Oc2ccc(F)cc2)c[nH+]n1CCc1cccc(C(F)(F)F)c1 (protonated)
O=c1c(Cl)c(Oc2ccc(F)cc2)c[nH+]n1CCc1cccc(C(F)(F)F)c1 (3D coordinates assigned)
O=c1c(Cl)c(Oc2ccc(F)cc2)c[nH+]n1CCc1cccc(C(F)(F)F)c1 (optimized conformer: 51.63369241817797 kcal/mol)

>  <smiles>  (86) 
O=c1c(Cl)c(Oc2ccc(F)cc2)cnn1CCc1cccc(C(F)(F)F)c1

>  <score_type>  (86) 
oracle

>  <origin>  (86) 
adg

>  <m_score__min__energy>  (86) 
-6.5

>  <m_primary>  (86) 
energy

$$$$
86:0
     RDKit          3D

 29 30  0  0  0  0  0  0  0  0999 V2000
   57.3870   27.9030   42.7580 N   0  0  0  0  0  0  0  0  0  0  0  0
   58.1380   26.6570   42.9300 C   0  0  0  0  0  0  0  0  0  0  0  0
   58.4400   26.3600   44.4090 C   0  0  0  0  0  0  0  0  0  0  0  0
   57.4080   27.0010   45.3590 C   0  0  0  0  0  0  0  0  0  0  0  0
   57.6900   28.4830   45.6940 C   0  0  1  0  0  0  0  0  0  0  0  0
   59.3380   28.9860   45.0830 S   0  0  0  0  0  0  0  0  0  0  0  0
   59.2670   30.6360   45.7930 C   0  0  0  0  0  0  0  0  0  0  0  0
   60.4030   31.1670   46.4150 C   0  0  0  0  0  0  0  0  0  0  0  0
   60.4020   32.4920   46.8620 C   0  0  0  0  0  0  0  0  0  0  0  0
   59.2670   33.2900   46.6870 C   0  0  0  0  0  0  0  0  0  0  0  0
   59.2710   34.9550   47.2400 Cl  0  0  0  0  0  0  0  0  0  0  0  0
   58.1210   32.7540   46.0870 C   0  0  0  0  0  0  0  0  0  0  0  0
   58.1090   31.4220   45.6580 C   0  0  0  0  0  0  0  0  0  0  0  0
   56.8870   30.8500   45.1800 N   0  0  0  0  0  0  0  0  0  0  0  0
   56.6440   29.4380   45.1640 C   0  0  0  0  0  0  0  0  0  0  0  0
   55.5140   29.0210   44.7960 O   0  0  0  0  0  0  0  0  0  0  0  0
   58.0390   28.7130   42.6600 H   0  0  0  0  0  0  0  0  0  0  0  0
   56.8080   27.8310   41.8890 H   0  0  0  0  0  0  0  0  0  0  0  0
   56.7450   28.0550   43.5670 H   0  0  0  0  0  0  0  0  0  0  0  0
   57.5469   25.8270   42.5155 H   0  0  0  0  0  0  0  0  0  0  0  0
   59.0982   26.7661   42.4046 H   0  0  0  0  0  0  0  0  0  0  0  0
   58.4303   25.2704   44.5598 H   0  0  0  0  0  0  0  0  0  0  0  0
   59.4249   26.7901   44.6436 H   0  0  0  0  0  0  0  0  0  0  0  0
   56.4171   26.9369   44.8858 H   0  0  0  0  0  0  0  0  0  0  0  0
   57.4642   26.4464   46.3073 H   0  0  0  0  0  0  0  0  0  0  0  0
   57.6568   28.5468   46.7916 H   0  0  0  0  0  0  0  0  0  0  0  0
   61.2973   30.5414   46.5523 H   0  0  0  0  0  0  0  0  0  0  0  0
   61.2951   32.9071   47.3519 H   0  0  0  0  0  0  0  0  0  0  0  0
   57.2277   33.3816   45.9525 H   0  0  0  0  0  0  0  0  0  0  0  0
  1  2  1  0
  2  3  1  0
  3  4  1  0
  4  5  1  0
  5  6  1  0
  6  7  1  0
  7  8  2  0
  8  9  1  0
  9 10  2  0
 10 11  1  0
 10 12  1  0
 12 13  2  0
 13 14  1  0
 14 15  1  0
 15 16  2  0
 15  5  1  0
 13  7  1  0
  1 17  1  0
  1 18  1  0
  1 19  1  0
  2 20  1  0
  2 21  1  0
  3 22  1  0
  3 23  1  0
  4 24  1  0
  4 25  1  0
  5 26  1  1
  8 27  1  0
  9 28  1  0
 12 29  1  0
M  CHG  2   1   1  14  -1
M  END
>  <UniqueID>  (87) 
78

>  <SMILES>  (87) 
[NH3+]CCC[C@H]1Sc2ccc(Cl)cc2[N-]C1=O

>  <Energy>  (87) 
30.541514143353492

>  <Genealogy>  (87) 
[NH3+]CCCC1Sc2ccc(Cl)cc2[N-]C1=O (protonated)
[NH3+]CCC[C@H]1Sc2ccc(Cl)cc2[N-]C1=O (chirality)
[NH3+]CCC[C@H]1Sc2ccc(Cl)cc2[N-]C1=O (3D coordinates assigned)
[NH3+]CCC[C@H]1Sc2ccc(Cl)cc2[N-]C1=O (nonaromatic ring conformer: 30.541514143353492 kcal/mol)

>  <smiles>  (87) 
NCCCC1Sc2ccc(Cl)cc2NC1=O

>  <score_type>  (87) 
oracle

>  <origin>  (87) 
adg

>  <m_score__min__energy>  (87) 
-7.5700000000000003

>  <m_primary>  (87) 
energy

$$$$
87:0
     RDKit          3D

 47 49  0  0  0  0  0  0  0  0999 V2000
   55.6730   31.8470   50.8400 H   0  0  0  0  0  0  0  0  0  0  0  0
   55.9760   30.9960   51.3660 N   0  0  0  0  0  0  0  0  0  0  0  0
   57.1690   30.5130   51.2430 C   0  0  0  0  0  0  0  0  0  0  0  0
   58.0240   31.0520   50.3340 N   0  0  0  0  0  0  0  0  0  0  0  0
   59.2890   30.5740   50.1800 C   0  0  0  0  0  0  0  0  0  0  0  0
   60.1920   31.1880   49.1790 C   0  0  0  0  0  0  0  0  0  0  0  0
   60.1150   30.9480   47.7980 C   0  0  0  0  0  0  0  0  0  0  0  0
   59.0890   30.1800   47.0650 C   0  0  0  0  0  0  0  0  0  0  0  0
   58.4080   30.7800   45.9970 C   0  0  0  0  0  0  0  0  0  0  0  0
   58.6377   31.8183   45.7157 H   0  0  0  0  0  0  0  0  0  0  0  0
   57.4390   30.0660   45.2880 C   0  0  0  0  0  0  0  0  0  0  0  0
   56.6090   30.8200   43.9400 Cl  0  0  0  0  0  0  0  0  0  0  0  0
   57.1360   28.7500   45.6480 C   0  0  0  0  0  0  0  0  0  0  0  0
   56.3811   28.1871   45.0794 H   0  0  0  0  0  0  0  0  0  0  0  0
   57.7910   28.1420   46.7330 C   0  0  0  0  0  0  0  0  0  0  0  0
   57.4990   26.7990   47.1460 N   0  0  0  0  0  0  0  0  0  0  0  0
   56.3870   25.7150   46.3740 S   0  0  0  0  0  0  0  0  0  0  0  0
   56.0060   24.6090   47.3170 O   0  0  0  0  0  0  0  0  0  0  0  0
   55.1490   26.4810   46.0030 O   0  0  0  0  0  0  0  0  0  0  0  0
   57.1120   25.0480   44.8910 C   0  0  0  0  0  0  0  0  0  0  0  0
   57.8970   24.3258   45.1594 H   0  0  0  0  0  0  0  0  0  0  0  0
   56.3353   24.5421   44.2987 H   0  0  0  0  0  0  0  0  0  0  0  0
   57.5515   25.8640   44.2987 H   0  0  0  0  0  0  0  0  0  0  0  0
   58.7610   28.8650   47.4430 C   0  0  0  0  0  0  0  0  0  0  0  0
   59.3640   28.2910   48.5160 F   0  0  0  0  0  0  0  0  0  0  0  0
   61.4050   31.7390   47.0620 S   0  0  0  0  0  0  0  0  0  0  0  0
   62.0080   32.3780   48.5030 C   0  0  0  0  0  0  0  0  0  0  0  0
   63.2560   33.2360   48.6530 C   0  0  0  0  0  0  0  0  0  0  0  0
   63.6920   33.7390   47.2650 C   0  0  0  0  0  0  0  0  0  0  0  0
   64.4083   34.5654   47.3829 H   0  0  0  0  0  0  0  0  0  0  0  0
   64.1683   32.9172   46.7102 H   0  0  0  0  0  0  0  0  0  0  0  0
   62.8109   34.0938   46.7102 H   0  0  0  0  0  0  0  0  0  0  0  0
   64.3850   32.3900   49.2740 C   0  0  0  0  0  0  0  0  0  0  0  0
   64.3192   32.4393   50.3709 H   0  0  0  0  0  0  0  0  0  0  0  0
   64.2822   31.3447   48.9471 H   0  0  0  0  0  0  0  0  0  0  0  0
   65.3593   32.7822   48.9471 H   0  0  0  0  0  0  0  0  0  0  0  0
   62.9950   34.4550   49.5650 C   0  0  0  0  0  0  0  0  0  0  0  0
   63.0612   34.1456   50.6185 H   0  0  0  0  0  0  0  0  0  0  0  0
   63.7472   35.2318   49.3630 H   0  0  0  0  0  0  0  0  0  0  0  0
   61.9907   34.8557   49.3630 H   0  0  0  0  0  0  0  0  0  0  0  0
   61.2400   31.9800   49.5460 N   0  0  0  0  0  0  0  0  0  0  0  0
   61.4580   32.2210   50.5380 H   0  0  0  0  0  0  0  0  0  0  0  0
   59.7140   29.4990   50.9730 C   0  0  0  0  0  0  0  0  0  0  0  0
   60.7297   29.0903   50.8664 H   0  0  0  0  0  0  0  0  0  0  0  0
   58.8230   28.9580   51.9000 C   0  0  0  0  0  0  0  0  0  0  0  0
   59.1339   28.1153   52.5351 H   0  0  0  0  0  0  0  0  0  0  0  0
   57.5720   29.4720   52.0180 N   0  0  0  0  0  0  0  0  0  0  0  0
  1  2  1  0
  2  3  2  0
  3  4  1  0
  4  5  2  0
  5  6  1  0
  6  7  2  0
  7  8  1  0
  8  9  2  0
  9 10  1  0
  9 11  1  0
 11 12  1  0
 11 13  2  0
 13 14  1  0
 13 15  1  0
 15 16  1  0
 16 17  1  0
 17 18  2  0
 17 19  2  0
 17 20  1  0
 20 21  1  0
 20 22  1  0
 20 23  1  0
 15 24  2  0
 24 25  1  0
  7 26  1  0
 26 27  1  0
 27 28  1  0
 28 29  1  0
 29 30  1  0
 29 31  1  0
 29 32  1  0
 28 33  1  0
 33 34  1  0
 33 35  1  0
 33 36  1  0
 28 37  1  0
 37 38  1  0
 37 39  1  0
 37 40  1  0
 27 41  2  0
 41 42  1  0
  5 43  1  0
 43 44  1  0
 43 45  2  0
 45 46  1  0
 45 47  1  0
 47  3  1  0
 41  6  1  0
 24  8  1  0
M  CHG  3  16  -1  41   1  47  -1
M  END
>  <UniqueID>  (88) 
79

>  <SMILES>  (88) 
[H]/N=c1/nc(-c2[nH+]c(C(C)(C)C)sc2-c2cc(Cl)cc([N-]S(C)(=O)=O)c2F)cc[n-]1

>  <Energy>  (88) 
82.41760389760525

>  <Genealogy>  (88) 
CC(C)(C)c1[nH+]c(-c2cc[n-]c(=N)n2)c(-c2cc(Cl)cc([N-]S(C)(=O)=O)c2F)s1 (protonated)
[H]/N=c1/nc(-c2[nH+]c(C(C)(C)C)sc2-c2cc(Cl)cc([N-]S(C)(=O)=O)c2F)cc[n-]1 (cis-trans isomerization)
[H]/N=c1/nc(-c2[nH+]c(C(C)(C)C)sc2-c2cc(Cl)cc([N-]S(C)(=O)=O)c2F)cc[n-]1 (3D coordinates assigned)
[H]/N=c1/nc(-c2[nH+]c(C(C)(C)C)sc2-c2cc(Cl)cc([N-]S(C)(=O)=O)c2F)cc[n-]1 (optimized conformer: 82.41760389760525 kcal/mol)

>  <smiles>  (88) 
CC(C)(C)c1nc(-c2cc[nH]c(=N)n2)c(-c2cc(Cl)cc(NS(C)(=O)=O)c2F)s1

>  <score_type>  (88) 
oracle

>  <origin>  (88) 
adg

>  <m_score__min__energy>  (88) 
-10.73

>  <m_primary>  (88) 
energy

$$$$
88:0
     RDKit          3D

 41 43  0  0  0  0  0  0  0  0999 V2000
   55.1280   26.4860   45.8660 N   0  0  0  0  0  0  0  0  0  0  0  0
   56.4790   26.6330   46.3230 C   0  0  0  0  0  0  0  0  0  0  0  0
   57.0570   25.5910   47.0630 C   0  0  0  0  0  0  0  0  0  0  0  0
   58.3910   25.6580   47.4670 C   0  0  0  0  0  0  0  0  0  0  0  0
   59.1700   26.7650   47.1260 C   0  0  0  0  0  0  0  0  0  0  0  0
   60.8780   26.8640   47.6610 S   0  0  0  0  0  0  0  0  0  0  0  0
   60.7310   28.5990   48.0880 C   0  0  0  0  0  0  0  0  0  0  0  0
   60.4890   28.9720   49.4150 C   0  0  0  0  0  0  0  0  0  0  0  0
   60.3960   30.3260   49.7390 C   0  0  0  0  0  0  0  0  0  0  0  0
   60.5380   31.2890   48.7390 C   0  0  0  0  0  0  0  0  0  0  0  0
   60.7740   30.8800   47.4240 C   0  0  0  0  0  0  0  0  0  0  0  0
   60.8640   29.5550   47.1250 N   0  0  0  0  0  0  0  0  0  0  0  0
   58.6090   27.8120   46.3890 C   0  0  0  0  0  0  0  0  0  0  0  0
   57.2570   27.7770   46.0040 C   0  0  0  0  0  0  0  0  0  0  0  0
   56.6870   28.9750   45.3490 C   0  0  0  0  0  0  0  0  0  0  0  0
   55.5180   28.9480   44.8770 O   0  0  0  0  0  0  0  0  0  0  0  0
   57.4390   30.1940   45.3230 N   0  0  0  0  0  0  0  0  0  0  0  0
   56.9440   31.4310   44.7330 C   0  0  0  0  0  0  0  0  0  0  0  0
   57.7340   32.5990   45.2560 C   0  0  0  0  0  0  0  0  0  0  0  0
   57.7910   32.8450   46.6370 C   0  0  0  0  0  0  0  0  0  0  0  0
   58.4890   33.9520   47.1280 C   0  0  0  0  0  0  0  0  0  0  0  0
   59.1340   34.8200   46.2440 C   0  0  0  0  0  0  0  0  0  0  0  0
   59.0800   34.5850   44.8670 C   0  0  0  0  0  0  0  0  0  0  0  0
   58.3800   33.4800   44.3720 C   0  0  0  0  0  0  0  0  0  0  0  0
   54.4340   25.8940   46.3730 H   0  0  0  0  0  0  0  0  0  0  0  0
   54.7690   27.0730   45.0810 H   0  0  0  0  0  0  0  0  0  0  0  0
   56.4520   24.7113   47.3278 H   0  0  0  0  0  0  0  0  0  0  0  0
   58.8291   24.8378   48.0547 H   0  0  0  0  0  0  0  0  0  0  0  0
   60.3732   28.2051   50.1951 H   0  0  0  0  0  0  0  0  0  0  0  0
   60.2114   30.6333   50.7790 H   0  0  0  0  0  0  0  0  0  0  0  0
   60.4649   32.3590   48.9835 H   0  0  0  0  0  0  0  0  0  0  0  0
   60.8874   31.6308   46.6281 H   0  0  0  0  0  0  0  0  0  0  0  0
   61.0460   29.2690   46.1370 H   0  0  0  0  0  0  0  0  0  0  0  0
   59.2324   28.6733   46.1069 H   0  0  0  0  0  0  0  0  0  0  0  0
   57.0481   31.3807   43.6391 H   0  0  0  0  0  0  0  0  0  0  0  0
   55.8849   31.5613   44.9999 H   0  0  0  0  0  0  0  0  0  0  0  0
   57.2840   32.1634   47.3359 H   0  0  0  0  0  0  0  0  0  0  0  0
   58.5304   34.1397   48.2111 H   0  0  0  0  0  0  0  0  0  0  0  0
   59.6851   35.6895   46.6318 H   0  0  0  0  0  0  0  0  0  0  0  0
   59.5885   35.2697   44.1723 H   0  0  0  0  0  0  0  0  0  0  0  0
   58.3350   33.3000   43.2878 H   0  0  0  0  0  0  0  0  0  0  0  0
  1  2  1  0
  2  3  2  0
  3  4  1  0
  4  5  2  0
  5  6  1  0
  6  7  1  0
  7  8  2  0
  8  9  1  0
  9 10  2  0
 10 11  1  0
 11 12  2  0
  5 13  1  0
 13 14  2  0
 14 15  1  0
 15 16  2  0
 15 17  1  0
 17 18  1  0
 18 19  1  0
 19 20  2  0
 20 21  1  0
 21 22  2  0
 22 23  1  0
 23 24  2  0
 14  2  1  0
 24 19  1  0
 12  7  1  0
  1 25  1  0
  1 26  1  0
  3 27  1  0
  4 28  1  0
  8 29  1  0
  9 30  1  0
 10 31  1  0
 11 32  1  0
 12 33  1  0
 13 34  1  0
 18 35  1  0
 18 36  1  0
 20 37  1  0
 21 38  1  0
 22 39  1  0
 23 40  1  0
 24 41  1  0
M  CHG  2  12   1  17  -1
M  END
>  <UniqueID>  (89) 
80

>  <SMILES>  (89) 
Nc1ccc(Sc2cccc[nH+]2)cc1C(=O)[N-]Cc1ccccc1

>  <Energy>  (89) 
41.2567473771167

>  <Genealogy>  (89) 
Nc1ccc(Sc2cccc[nH+]2)cc1C(=O)[N-]Cc1ccccc1 (protonated)
Nc1ccc(Sc2cccc[nH+]2)cc1C(=O)[N-]Cc1ccccc1 (3D coordinates assigned)
Nc1ccc(Sc2cccc[nH+]2)cc1C(=O)[N-]Cc1ccccc1 (optimized conformer: 41.2567473771167 kcal/mol)

>  <smiles>  (89) 
Nc1ccc(Sc2ccccn2)cc1C(=O)NCc1ccccc1

>  <score_type>  (89) 
oracle

>  <origin>  (89) 
adg

>  <m_score__min__energy>  (89) 
-8.8200000000000003

>  <m_primary>  (89) 
energy

$$$$
89:0
     RDKit          3D

 39 41  0  0  1  0  0  0  0  0999 V2000
   62.8600   33.7770   46.8790 C   0  0  0  0  0  0  0  0  0  0  0  0
   62.4420   33.3820   48.0760 C   0  0  0  0  0  0  0  0  0  0  0  0
   61.4610   34.1650   48.8800 C   0  0  0  0  0  0  0  0  0  0  0  0
   60.1340   33.6050   48.8100 N   0  0  0  0  0  0  0  0  0  0  0  0
   59.9000   32.4750   48.2490 C   0  0  0  0  0  0  0  0  0  0  0  0
   60.1040   31.3170   48.8850 N   0  0  0  0  0  0  0  0  0  0  0  0
   59.8650   30.1280   48.3120 C   0  0  0  0  0  0  0  0  0  0  0  0
   59.3950   30.0290   47.0350 N   0  0  0  0  0  0  0  0  0  0  0  0
   59.1810   31.1870   46.3710 C   0  0  0  0  0  0  0  0  0  0  0  0
   59.4230   32.4220   46.9480 C   0  0  0  0  0  0  0  0  0  0  0  0
   59.1140   33.3940   46.0390 C   0  0  0  0  0  0  0  0  0  0  0  0
   58.6940   32.7690   44.9350 N   0  0  0  0  0  0  0  0  0  0  0  0
   58.7350   31.4550   45.1330 N   0  0  0  0  0  0  0  0  0  0  0  0
   58.3550   30.4410   44.1630 C   0  0  1  0  0  0  0  0  0  0  0  0
   58.4690   29.2080   44.7930 O   0  0  0  0  0  0  0  0  0  0  0  0
   57.2100   28.9000   45.3010 C   0  0  2  0  0  0  0  0  0  0  0  0
   57.1020   27.4690   45.6910 C   0  0  0  0  0  0  0  0  0  0  0  0
   55.7630   27.1990   45.9660 O   0  0  0  0  0  0  0  0  0  0  0  0
   56.3370   29.2570   44.1150 C   0  0  1  0  0  0  0  0  0  0  0  0
   54.9920   29.3390   44.4420 O   0  0  0  0  0  0  0  0  0  0  0  0
   56.9210   30.6060   43.7550 C   0  0  2  0  0  0  0  0  0  0  0  0
   56.7600   30.8980   42.4030 O   0  0  0  0  0  0  0  0  0  0  0  0
   63.5854   33.1669   46.3208 H   0  0  0  0  0  0  0  0  0  0  0  0
   62.4808   34.7142   46.4457 H   0  0  0  0  0  0  0  0  0  0  0  0
   62.8345   32.4414   48.4898 H   0  0  0  0  0  0  0  0  0  0  0  0
   61.7882   34.1722   49.9302 H   0  0  0  0  0  0  0  0  0  0  0  0
   61.4213   35.1841   48.4679 H   0  0  0  0  0  0  0  0  0  0  0  0
   60.4620   31.3330   49.8600 H   0  0  0  0  0  0  0  0  0  0  0  0
   60.0528   29.2090   48.8865 H   0  0  0  0  0  0  0  0  0  0  0  0
   59.1952   34.4809   46.1872 H   0  0  0  0  0  0  0  0  0  0  0  0
   58.9969   30.5248   43.2736 H   0  0  0  0  0  0  0  0  0  0  0  0
   56.9424   29.4290   46.2276 H   0  0  0  0  0  0  0  0  0  0  0  0
   57.4503   26.8297   44.8663 H   0  0  0  0  0  0  0  0  0  0  0  0
   57.7231   27.2655   46.5758 H   0  0  0  0  0  0  0  0  0  0  0  0
   55.1740   27.5420   45.2370 H   0  0  0  0  0  0  0  0  0  0  0  0
   56.3453   28.5141   43.3038 H   0  0  0  0  0  0  0  0  0  0  0  0
   54.7670   28.9580   45.3120 H   0  0  0  0  0  0  0  0  0  0  0  0
   56.4321   31.4575   44.2509 H   0  0  0  0  0  0  0  0  0  0  0  0
   57.4650   30.4390   41.9140 H   0  0  0  0  0  0  0  0  0  0  0  0
  1  2  2  0
  2  3  1  0
  3  4  1  0
  4  5  2  0
  5  6  1  0
  6  7  1  0
  7  8  2  0
  8  9  1  0
  9 10  2  0
 10 11  1  0
 11 12  2  0
 12 13  1  0
 13 14  1  0
 14 15  1  0
 15 16  1  0
 16 17  1  0
 17 18  1  0
 16 19  1  0
 19 20  1  0
 19 21  1  0
 21 22  1  0
 10  5  1  0
 21 14  1  0
 13  9  1  0
  1 23  1  0
  1 24  1  0
  2 25  1  0
  3 26  1  0
  3 27  1  0
  6 28  1  0
  7 29  1  0
 11 30  1  0
 14 31  1  6
 16 32  1  1
 17 33  1  0
 17 34  1  0
 18 35  1  0
 19 36  1  6
 20 37  1  0
 21 38  1  1
 22 39  1  0
M  END
>  <smiles>  (90) 
C=CCN=c1[nH]cnc2c1cnn2C1OC(CO)C(O)C1O

>  <score_type>  (90) 
oracle

>  <origin>  (90) 
adg

>  <m_score__min__energy>  (90) 
-7.9299999999999997

>  <m_primary>  (90) 
energy

$$$$
90:0
     RDKit          3D

 34 35  0  0  0  0  0  0  0  0999 V2000
   56.0260   24.2260   45.5040 C   0  0  0  0  0  0  0  0  0  0  0  0
   55.6600   25.5840   45.9980 C   0  0  0  0  0  0  0  0  0  0  0  0
   54.4520   25.9470   45.9790 O   0  0  0  0  0  0  0  0  0  0  0  0
   56.6920   26.4760   46.4340 N   0  0  0  0  0  0  0  0  0  0  0  0
   56.8980   27.8190   45.9680 C   0  0  0  0  0  0  0  0  0  0  0  0
   55.9350   28.4500   45.2450 N   0  0  0  0  0  0  0  0  0  0  0  0
   56.0790   29.7230   44.7950 C   0  0  0  0  0  0  0  0  0  0  0  0
   55.1460   30.2510   44.1330 O   0  0  0  0  0  0  0  0  0  0  0  0
   57.2570   30.4340   45.0670 C   0  0  0  0  0  0  0  0  0  0  0  0
   57.4180   31.7820   44.5710 C   0  0  0  0  0  0  0  0  0  0  0  0
   57.5470   32.8620   44.1750 N   0  0  0  0  0  0  0  0  0  0  0  0
   58.2890   29.8090   45.7950 C   0  0  0  0  0  0  0  0  0  0  0  0
   59.5020   30.5380   46.0710 N   0  0  0  0  0  0  0  0  0  0  0  0
   59.5610   31.7590   46.8300 C   0  0  0  0  0  0  0  0  0  0  0  0
   59.9650   32.9310   46.1730 C   0  0  0  0  0  0  0  0  0  0  0  0
   60.0070   34.1490   46.8540 C   0  0  0  0  0  0  0  0  0  0  0  0
   59.6530   34.2080   48.2020 C   0  0  0  0  0  0  0  0  0  0  0  0
   59.2800   33.0470   48.8790 C   0  0  0  0  0  0  0  0  0  0  0  0
   59.2510   31.8080   48.2140 C   0  0  0  0  0  0  0  0  0  0  0  0
   58.8990   30.5720   48.9970 C   0  0  0  0  0  0  0  0  0  0  0  0
   58.0960   28.4900   46.2680 C   0  0  0  0  0  0  0  0  0  0  0  0
   59.0880   27.8360   47.0910 C   0  0  0  0  0  0  0  0  0  0  0  0
   59.8830   27.3100   47.7490 N   0  0  0  0  0  0  0  0  0  0  0  0
   56.2055   23.5601   46.3610 H   0  0  0  0  0  0  0  0  0  0  0  0
   55.2041   23.8242   44.8932 H   0  0  0  0  0  0  0  0  0  0  0  0
   56.9385   24.2916   44.8932 H   0  0  0  0  0  0  0  0  0  0  0  0
   60.3860   30.1940   45.6330 H   0  0  0  0  0  0  0  0  0  0  0  0
   60.2512   32.8898   45.1117 H   0  0  0  0  0  0  0  0  0  0  0  0
   60.3194   35.0627   46.3273 H   0  0  0  0  0  0  0  0  0  0  0  0
   59.6680   35.1718   48.7320 H   0  0  0  0  0  0  0  0  0  0  0  0
   59.0059   33.1009   49.9430 H   0  0  0  0  0  0  0  0  0  0  0  0
   58.9610   30.7898   50.0734 H   0  0  0  0  0  0  0  0  0  0  0  0
   57.8755   30.2574   48.7450 H   0  0  0  0  0  0  0  0  0  0  0  0
   59.6031   29.7654   48.7450 H   0  0  0  0  0  0  0  0  0  0  0  0
  1  2  1  0
  2  3  2  0
  2  4  1  0
  4  5  1  0
  5  6  1  0
  6  7  1  0
  7  8  2  0
  7  9  1  0
  9 10  1  0
 10 11  3  0
  9 12  2  0
 12 13  1  0
 13 14  1  0
 14 15  2  0
 15 16  1  0
 16 17  2  0
 17 18  1  0
 18 19  2  0
 19 20  1  0
 12 21  1  0
 21 22  1  0
 22 23  3  0
 21  5  2  0
 19 14  1  0
  1 24  1  0
  1 25  1  0
  1 26  1  0
 13 27  1  0
 15 28  1  0
 16 29  1  0
 17 30  1  0
 18 31  1  0
 20 32  1  0
 20 33  1  0
 20 34  1  0
M  CHG  2   4  -1   6  -1
M  END
>  <UniqueID>  (91) 
81

>  <SMILES>  (91) 
CC(=O)[N-]c1[n-]c(=O)c(C#N)c(Nc2ccccc2C)c1C#N

>  <Energy>  (91) 
44.48061415884221

>  <Genealogy>  (91) 
CC(=O)[N-]c1[n-]c(=O)c(C#N)c(Nc2ccccc2C)c1C#N (protonated)
CC(=O)[N-]c1[n-]c(=O)c(C#N)c(Nc2ccccc2C)c1C#N (3D coordinates assigned)
CC(=O)[N-]c1[n-]c(=O)c(C#N)c(Nc2ccccc2C)c1C#N (optimized conformer: 44.48061415884221 kcal/mol)

>  <smiles>  (91) 
CC(=O)Nc1[nH]c(=O)c(C#N)c(Nc2ccccc2C)c1C#N

>  <score_type>  (91) 
oracle

>  <origin>  (91) 
adg

>  <m_score__min__energy>  (91) 
-10.800000000000001

>  <m_primary>  (91) 
energy

$$$$
91:0
     RDKit          3D

 32 34  0  0  0  0  0  0  0  0999 V2000
   62.8160   33.5480   49.2680 C   0  0  0  0  0  0  0  0  0  0  0  0
   62.5620   33.3450   47.7600 C   0  0  0  0  0  0  0  0  0  0  0  0
   63.7710   33.8730   46.9660 C   0  0  0  0  0  0  0  0  0  0  0  0
   62.3180   31.8270   47.4590 C   0  0  0  0  0  0  0  0  0  0  0  0
   60.8590   31.7710   47.2390 C   0  0  0  0  0  0  0  0  0  0  0  0
   60.1720   30.9260   46.4480 N   0  0  0  0  0  0  0  0  0  0  0  0
   59.1470   31.6360   45.9850 N   0  0  0  0  0  0  0  0  0  0  0  0
   58.1770   31.1200   45.0540 C   0  0  0  0  0  0  0  0  0  0  0  0
   58.1080   31.6350   43.7450 C   0  0  0  0  0  0  0  0  0  0  0  0
   57.1710   31.1350   42.8350 C   0  0  0  0  0  0  0  0  0  0  0  0
   56.2990   30.1130   43.2160 C   0  0  0  0  0  0  0  0  0  0  0  0
   56.3640   29.5860   44.5080 C   0  0  0  0  0  0  0  0  0  0  0  0
   55.5250   28.5860   44.8740 F   0  0  0  0  0  0  0  0  0  0  0  0
   57.2980   30.0840   45.4230 C   0  0  0  0  0  0  0  0  0  0  0  0
   59.2190   32.9040   46.3800 N   0  0  0  0  0  0  0  0  0  0  0  0
   60.2870   32.9830   47.1870 C   0  0  0  0  0  0  0  0  0  0  0  0
   61.2510   34.0910   47.3360 C   0  0  0  0  0  0  0  0  0  0  0  0
   62.0844   32.9633   49.8450 H   0  0  0  0  0  0  0  0  0  0  0  0
   63.8331   33.2111   49.5171 H   0  0  0  0  0  0  0  0  0  0  0  0
   62.7116   34.6143   49.5171 H   0  0  0  0  0  0  0  0  0  0  0  0
   64.5490   34.2128   47.6655 H   0  0  0  0  0  0  0  0  0  0  0  0
   64.1733   33.0686   46.3326 H   0  0  0  0  0  0  0  0  0  0  0  0
   63.4544   34.7148   46.3326 H   0  0  0  0  0  0  0  0  0  0  0  0
   62.8672   31.5072   46.5612 H   0  0  0  0  0  0  0  0  0  0  0  0
   62.6644   31.1610   48.2631 H   0  0  0  0  0  0  0  0  0  0  0  0
   58.7958   32.4360   43.4362 H   0  0  0  0  0  0  0  0  0  0  0  0
   57.1208   31.5478   41.8166 H   0  0  0  0  0  0  0  0  0  0  0  0
   55.5614   29.7232   42.4991 H   0  0  0  0  0  0  0  0  0  0  0  0
   57.3459   29.6630   46.4381 H   0  0  0  0  0  0  0  0  0  0  0  0
   58.6770   33.7050   45.9850 H   0  0  0  0  0  0  0  0  0  0  0  0
   61.3889   34.6284   46.3862 H   0  0  0  0  0  0  0  0  0  0  0  0
   60.9300   34.8576   48.0566 H   0  0  0  0  0  0  0  0  0  0  0  0
  1  2  1  0
  2  3  1  0
  2  4  1  0
  4  5  1  0
  5  6  2  0
  6  7  1  0
  7  8  1  0
  8  9  2  0
  9 10  1  0
 10 11  2  0
 11 12  1  0
 12 13  1  0
 12 14  2  0
  7 15  1  0
 15 16  2  0
 16 17  1  0
 17  2  1  0
 16  5  1  0
 14  8  1  0
  1 18  1  0
  1 19  1  0
  1 20  1  0
  3 21  1  0
  3 22  1  0
  3 23  1  0
  4 24  1  0
  4 25  1  0
  9 26  1  0
 10 27  1  0
 11 28  1  0
 14 29  1  0
 15 30  1  0
 17 31  1  0
 17 32  1  0
M  CHG  1  15   1
M  END
>  <UniqueID>  (92) 
82

>  <SMILES>  (92) 
CC1(C)Cc2nn(-c3cccc(F)c3)[nH+]c2C1

>  <Energy>  (92) 
93.18222128983658

>  <Genealogy>  (92) 
CC1(C)Cc2nn(-c3cccc(F)c3)[nH+]c2C1 (protonated)
CC1(C)Cc2nn(-c3cccc(F)c3)[nH+]c2C1 (3D coordinates assigned)
CC1(C)Cc2nn(-c3cccc(F)c3)[nH+]c2C1 (nonaromatic ring conformer: 93.18222128983658 kcal/mol)

>  <smiles>  (92) 
CC1(C)Cc2nn(-c3cccc(F)c3)nc2C1

>  <score_type>  (92) 
oracle

>  <origin>  (92) 
adg

>  <m_score__min__energy>  (92) 
-5.4500000000000002

>  <m_primary>  (92) 
energy

$$$$
92:0
     RDKit          3D

 35 37  0  0  0  0  0  0  0  0999 V2000
   64.2682   31.7370   48.6681 H   0  0  0  0  0  0  0  0  0  0  0  0
   63.3530   32.0210   48.1280 C   0  0  0  0  0  0  0  0  0  0  0  0
   62.2740   31.1970   48.1430 N   0  0  0  0  0  0  0  0  0  0  0  0
   61.1240   31.5090   47.4850 C   0  0  0  0  0  0  0  0  0  0  0  0
   60.2700   30.8164   47.5153 H   0  0  0  0  0  0  0  0  0  0  0  0
   61.0240   32.7130   46.7670 C   0  0  0  0  0  0  0  0  0  0  0  0
   59.7750   33.0610   46.0420 C   0  0  0  0  0  0  0  0  0  0  0  0
   59.5550   34.3760   45.6010 C   0  0  0  0  0  0  0  0  0  0  0  0
   60.3093   35.1550   45.7859 H   0  0  0  0  0  0  0  0  0  0  0  0
   58.3760   34.6880   44.9280 C   0  0  0  0  0  0  0  0  0  0  0  0
   58.1951   35.7163   44.5819 H   0  0  0  0  0  0  0  0  0  0  0  0
   57.4270   33.6970   44.6940 C   0  0  0  0  0  0  0  0  0  0  0  0
   56.4938   33.9405   44.1649 H   0  0  0  0  0  0  0  0  0  0  0  0
   57.6640   32.3900   45.1340 C   0  0  0  0  0  0  0  0  0  0  0  0
   56.7640   31.4790   44.8890 N   0  0  0  0  0  0  0  0  0  0  0  0
   56.9310   30.2660   44.0850 C   0  0  0  0  0  0  0  0  0  0  0  0
   57.3364   30.5400   43.0998 H   0  0  0  0  0  0  0  0  0  0  0  0
   55.9506   29.7794   43.9755 H   0  0  0  0  0  0  0  0  0  0  0  0
   57.8750   29.3010   44.7560 C   0  0  0  0  0  0  0  0  0  0  0  0
   57.3870   28.3070   45.6190 C   0  0  0  0  0  0  0  0  0  0  0  0
   56.3066   28.2312   45.8114 H   0  0  0  0  0  0  0  0  0  0  0  0
   58.2680   27.4130   46.2350 C   0  0  0  0  0  0  0  0  0  0  0  0
   57.8803   26.6423   46.9174 H   0  0  0  0  0  0  0  0  0  0  0  0
   59.6410   27.4970   45.9850 C   0  0  0  0  0  0  0  0  0  0  0  0
   60.7440   26.3730   46.7600 Cl  0  0  0  0  0  0  0  0  0  0  0  0
   60.1330   28.4740   45.1150 C   0  0  0  0  0  0  0  0  0  0  0  0
   61.2128   28.5370   44.9147 H   0  0  0  0  0  0  0  0  0  0  0  0
   59.2560   29.3710   44.4990 C   0  0  0  0  0  0  0  0  0  0  0  0
   59.6473   30.1346   43.8106 H   0  0  0  0  0  0  0  0  0  0  0  0
   58.8270   32.1040   45.8030 N   0  0  0  0  0  0  0  0  0  0  0  0
   59.0180   31.1320   46.1280 H   0  0  0  0  0  0  0  0  0  0  0  0
   62.1340   33.5730   46.7480 C   0  0  0  0  0  0  0  0  0  0  0  0
   62.0825   34.5224   46.1948 H   0  0  0  0  0  0  0  0  0  0  0  0
   63.3030   33.2270   47.4290 C   0  0  0  0  0  0  0  0  0  0  0  0
   64.1746   33.8980   47.4144 H   0  0  0  0  0  0  0  0  0  0  0  0
  1  2  1  0
  2  3  2  0
  3  4  1  0
  4  5  1  0
  4  6  2  0
  6  7  1  0
  7  8  2  0
  8  9  1  0
  8 10  1  0
 10 11  1  0
 10 12  2  0
 12 13  1  0
 12 14  1  0
 14 15  2  0
 15 16  1  0
 16 17  1  0
 16 18  1  0
 16 19  1  0
 19 20  2  0
 20 21  1  0
 20 22  1  0
 22 23  1  0
 22 24  2  0
 24 25  1  0
 24 26  1  0
 26 27  1  0
 26 28  2  0
 28 29  1  0
 14 30  1  0
 30 31  1  0
  6 32  1  0
 32 33  1  0
 32 34  2  0
 34 35  1  0
 34  2  1  0
 30  7  1  0
 28 19  1  0
M  END
>  <UniqueID>  (93) 
83

>  <SMILES>  (93) 
Clc1ccc(C/N=c2/cccc(-c3cccnc3)[nH]2)cc1

>  <Energy>  (93) 
44.65433365950627

>  <Genealogy>  (93) 
Clc1ccc(C/N=c2/cccc(-c3cccnc3)[nH]2)cc1 (cis-trans isomerization)
Clc1ccc(C/N=c2/cccc(-c3cccnc3)[nH]2)cc1 (3D coordinates assigned)
Clc1ccc(C/N=c2/cccc(-c3cccnc3)[nH]2)cc1 (optimized conformer: 44.65433365950627 kcal/mol)

>  <smiles>  (93) 
Clc1ccc(CN=c2cccc(-c3cccnc3)[nH]2)cc1

>  <score_type>  (93) 
oracle

>  <origin>  (93) 
adg

>  <m_score__min__energy>  (93) 
-7.8499999999999996

>  <m_primary>  (93) 
energy

$$$$
93:0
     RDKit          3D

 69 72  0  0  0  0  0  0  0  0999 V2000
   61.1040   30.3560   48.2610 C   0  0  0  0  0  0  0  0  0  0  0  0
   61.8350   31.5390   47.6200 C   0  0  0  0  0  0  0  0  0  0  0  0
   61.6780   32.8160   48.3490 N   0  0  0  0  0  0  0  0  0  0  0  0
   62.7120   33.8440   48.1010 C   0  0  0  0  0  0  0  0  0  0  0  0
   63.3440   33.8000   46.7020 C   0  0  0  0  0  0  0  0  0  0  0  0
   60.0300   33.3980   48.4640 S   0  0  0  0  0  0  0  0  0  0  0  0
   59.9970   34.8390   48.8930 O   0  0  0  0  0  0  0  0  0  0  0  0
   59.2800   32.5810   49.4780 O   0  0  0  0  0  0  0  0  0  0  0  0
   59.2150   33.2340   46.9100 C   0  0  0  0  0  0  0  0  0  0  0  0
   59.0060   34.3640   46.1100 C   0  0  0  0  0  0  0  0  0  0  0  0
   58.4000   34.2330   44.8580 C   0  0  0  0  0  0  0  0  0  0  0  0
   58.0060   32.9740   44.3980 C   0  0  0  0  0  0  0  0  0  0  0  0
   58.1560   31.8340   45.2110 C   0  0  0  0  0  0  0  0  0  0  0  0
   58.7670   31.9800   46.4750 C   0  0  0  0  0  0  0  0  0  0  0  0
   57.6600   30.5590   44.7320 N   0  0  0  0  0  0  0  0  0  0  0  0
   57.5370   29.3910   45.6250 C   0  0  0  0  0  0  0  0  0  0  0  0
   58.7780   28.5360   45.5870 C   0  0  0  0  0  0  0  0  0  0  0  0
   59.4200   28.4900   44.5450 O   0  0  0  0  0  0  0  0  0  0  0  0
   59.2410   27.8290   46.7740 N   0  0  0  0  0  0  0  0  0  0  0  0
   58.1470   27.2400   47.5600 C   0  0  0  0  0  0  0  0  0  0  0  0
   57.3610   26.2000   46.7640 C   0  0  0  0  0  0  0  0  0  0  0  0
   58.2110   25.2830   45.9730 N   0  0  0  0  0  0  0  0  0  0  0  0
   57.5540   24.1920   45.2380 C   0  0  0  0  0  0  0  0  0  0  0  0
   57.2860   24.3370   43.8510 C   0  0  0  0  0  0  0  0  0  0  0  0
   56.6690   23.3270   43.1140 C   0  0  0  0  0  0  0  0  0  0  0  0
   56.2940   22.1420   43.7310 C   0  0  0  0  0  0  0  0  0  0  0  0
   56.5350   21.9580   45.0870 C   0  0  0  0  0  0  0  0  0  0  0  0
   57.1640   22.9590   45.8570 C   0  0  0  0  0  0  0  0  0  0  0  0
   57.3950   22.7430   47.2240 O   0  0  0  0  0  0  0  0  0  0  0  0
   56.4330   22.9080   48.2640 C   0  0  0  0  0  0  0  0  0  0  0  0
   59.6710   25.5050   45.8350 C   0  0  0  0  0  0  0  0  0  0  0  0
   60.2430   26.8010   46.4630 C   0  0  0  0  0  0  0  0  0  0  0  0
   57.2230   30.4660   43.3580 C   0  0  0  0  0  0  0  0  0  0  0  0
   56.7120   29.4040   42.9110 O   0  0  0  0  0  0  0  0  0  0  0  0
   57.4500   31.6110   42.4180 C   0  0  0  0  0  0  0  0  0  0  0  0
   57.4560   32.8510   43.1200 O   0  0  0  0  0  0  0  0  0  0  0  0
   61.1572   30.4420   49.3563 H   0  0  0  0  0  0  0  0  0  0  0  0
   60.0508   30.3602   47.9436 H   0  0  0  0  0  0  0  0  0  0  0  0
   61.5789   29.4159   47.9436 H   0  0  0  0  0  0  0  0  0  0  0  0
   62.9072   31.2978   47.5737 H   0  0  0  0  0  0  0  0  0  0  0  0
   61.3877   31.6857   46.6258 H   0  0  0  0  0  0  0  0  0  0  0  0
   62.2501   34.8331   48.2365 H   0  0  0  0  0  0  0  0  0  0  0  0
   63.5252   33.6423   48.8138 H   0  0  0  0  0  0  0  0  0  0  0  0
   64.4373   33.7239   46.7958 H   0  0  0  0  0  0  0  0  0  0  0  0
   62.9613   32.9263   46.1541 H   0  0  0  0  0  0  0  0  0  0  0  0
   63.0860   34.7183   46.1541 H   0  0  0  0  0  0  0  0  0  0  0  0
   59.3193   35.3559   46.4677 H   0  0  0  0  0  0  0  0  0  0  0  0
   58.2328   35.1228   44.2333 H   0  0  0  0  0  0  0  0  0  0  0  0
   58.8925   31.1011   47.1244 H   0  0  0  0  0  0  0  0  0  0  0  0
   57.3765   29.7432   46.6547 H   0  0  0  0  0  0  0  0  0  0  0  0
   56.6868   28.7823   45.2834 H   0  0  0  0  0  0  0  0  0  0  0  0
   59.7160   28.5240   47.3970 H   0  0  0  0  0  0  0  0  0  0  0  0
   58.5719   26.7566   48.4521 H   0  0  0  0  0  0  0  0  0  0  0  0
   57.4546   28.0492   47.8352 H   0  0  0  0  0  0  0  0  0  0  0  0
   56.7673   25.6001   47.4694 H   0  0  0  0  0  0  0  0  0  0  0  0
   56.7345   26.7523   46.0481 H   0  0  0  0  0  0  0  0  0  0  0  0
   57.5727   25.2706   43.3448 H   0  0  0  0  0  0  0  0  0  0  0  0
   56.4789   23.4700   42.0400 H   0  0  0  0  0  0  0  0  0  0  0  0
   55.8059   21.3482   43.1465 H   0  0  0  0  0  0  0  0  0  0  0  0
   56.2305   21.0167   45.5679 H   0  0  0  0  0  0  0  0  0  0  0  0
   56.9310   22.8226   49.2411 H   0  0  0  0  0  0  0  0  0  0  0  0
   55.9649   23.8996   48.1765 H   0  0  0  0  0  0  0  0  0  0  0  0
   55.6612   22.1291   48.1765 H   0  0  0  0  0  0  0  0  0  0  0  0
   60.1831   24.6529   46.3058 H   0  0  0  0  0  0  0  0  0  0  0  0
   59.8456   25.6076   44.7538 H   0  0  0  0  0  0  0  0  0  0  0  0
   60.7571   26.5306   47.3971 H   0  0  0  0  0  0  0  0  0  0  0  0
   60.9137   27.2402   45.7099 H   0  0  0  0  0  0  0  0  0  0  0  0
   58.4189   31.4773   41.9147 H   0  0  0  0  0  0  0  0  0  0  0  0
   56.6336   31.6281   41.6809 H   0  0  0  0  0  0  0  0  0  0  0  0
  1  2  1  0
  2  3  1  0
  3  4  1  0
  4  5  1  0
  3  6  1  0
  6  7  2  0
  6  8  2  0
  6  9  1  0
  9 10  2  0
 10 11  1  0
 11 12  2  0
 12 13  1  0
 13 14  2  0
 13 15  1  0
 15 16  1  0
 16 17  1  0
 17 18  2  0
 17 19  1  0
 19 20  1  0
 20 21  1  0
 21 22  1  0
 22 23  1  0
 23 24  2  0
 24 25  1  0
 25 26  2  0
 26 27  1  0
 27 28  2  0
 28 29  1  0
 29 30  1  0
 22 31  1  0
 31 32  1  0
 15 33  1  0
 33 34  2  0
 33 35  1  0
 35 36  1  0
 14  9  1  0
 32 19  1  0
 36 12  1  0
 28 23  1  0
  1 37  1  0
  1 38  1  0
  1 39  1  0
  2 40  1  0
  2 41  1  0
  4 42  1  0
  4 43  1  0
  5 44  1  0
  5 45  1  0
  5 46  1  0
 10 47  1  0
 11 48  1  0
 14 49  1  0
 16 50  1  0
 16 51  1  0
 19 52  1  0
 20 53  1  0
 20 54  1  0
 21 55  1  0
 21 56  1  0
 24 57  1  0
 25 58  1  0
 26 59  1  0
 27 60  1  0
 30 61  1  0
 30 62  1  0
 30 63  1  0
 31 64  1  0
 31 65  1  0
 32 66  1  0
 32 67  1  0
 35 68  1  0
 35 69  1  0
M  CHG  1  19   1
M  END
>  <UniqueID>  (94) 
84

>  <SMILES>  (94) 
CCN(CC)S(=O)(=O)c1ccc2c(c1)N(CC(=O)[NH+]1CCN(c3ccccc3OC)CC1)C(=O)CO2

>  <Energy>  (94) 
96.64898146474987

>  <Genealogy>  (94) 
CCN(CC)S(=O)(=O)c1ccc2c(c1)N(CC(=O)[NH+]1CCN(c3ccccc3OC)CC1)C(=O)CO2 (protonated)
CCN(CC)S(=O)(=O)c1ccc2c(c1)N(CC(=O)[NH+]1CCN(c3ccccc3OC)CC1)C(=O)CO2 (3D coordinates assigned)
CCN(CC)S(=O)(=O)c1ccc2c(c1)N(CC(=O)[NH+]1CCN(c3ccccc3OC)CC1)C(=O)CO2 (nonaromatic ring conformer: 96.64898146474987 kcal/mol)

>  <smiles>  (94) 
CCN(CC)S(=O)(=O)c1ccc2c(c1)N(CC(=O)N1CCN(c3ccccc3OC)CC1)C(=O)CO2

>  <score_type>  (94) 
oracle

>  <origin>  (94) 
adg

>  <m_score__min__energy>  (94) 
-7.4500000000000002

>  <m_primary>  (94) 
energy

$$$$
94:0
     RDKit          3D

 42 44  0  0  1  0  0  0  0  0999 V2000
   57.4570   31.7980   42.5340 C   0  0  0  0  0  0  0  0  0  0  0  0
   57.5870   31.4110   43.9560 N   0  0  0  0  0  0  0  0  0  0  0  0
   57.1050   30.1200   44.3560 C   0  0  0  0  0  0  0  0  0  0  0  0
   56.1410   30.0900   45.1410 O   0  0  0  0  0  0  0  0  0  0  0  0
   57.7860   28.9230   43.8120 C   0  0  0  0  0  0  0  0  0  0  0  0
   59.1420   28.3580   44.8570 S   0  0  0  0  0  0  0  0  0  0  0  0
   59.4500   29.3850   46.2620 C   0  0  0  0  0  0  0  0  0  0  0  0
   60.4790   30.2670   46.3230 N   0  0  0  0  0  0  0  0  0  0  0  0
   60.4200   30.9000   47.5160 C   0  0  0  0  0  0  0  0  0  0  0  0
   61.3730   31.9270   47.9060 C   0  0  0  0  0  0  0  0  0  0  0  0
   62.6590   31.8000   47.4440 C   0  0  0  0  0  0  0  0  0  0  0  0
   63.6700   32.7050   47.7340 C   0  0  0  0  0  0  0  0  0  0  0  0
   63.3430   33.7900   48.5360 C   0  0  0  0  0  0  0  0  0  0  0  0
   62.0490   33.9260   49.0060 C   0  0  0  0  0  0  0  0  0  0  0  0
   61.0610   33.0070   48.7010 C   0  0  0  0  0  0  0  0  0  0  0  0
   59.3520   30.4120   48.1960 N   0  0  0  0  0  0  0  0  0  0  0  0
   58.7770   29.4990   47.4280 N   0  0  0  0  0  0  0  0  0  0  0  0
   58.1800   32.3550   44.8260 C   0  0  2  0  0  0  0  0  0  0  0  0
   57.3380   32.9080   45.9190 C   0  0  0  0  0  0  0  0  0  0  0  0
   58.3030   33.6930   46.8090 C   0  0  0  0  0  0  0  0  0  0  0  0
   59.4710   34.3180   45.6010 S   0  0  0  0  0  0  0  0  0  0  0  0
   60.7830   33.5870   45.6980 O   0  0  0  0  0  0  0  0  0  0  0  0
   59.5780   35.7830   45.5820 O   0  0  0  0  0  0  0  0  0  0  0  0
   58.6430   33.6510   44.1390 C   0  0  0  0  0  0  0  0  0  0  0  0
   57.1074   32.8388   42.4678 H   0  0  0  0  0  0  0  0  0  0  0  0
   58.4349   31.7074   42.0385 H   0  0  0  0  0  0  0  0  0  0  0  0
   56.7321   31.1354   42.0385 H   0  0  0  0  0  0  0  0  0  0  0  0
   57.0500   28.1106   43.7208 H   0  0  0  0  0  0  0  0  0  0  0  0
   58.2117   29.1982   42.8357 H   0  0  0  0  0  0  0  0  0  0  0  0
   62.9012   30.9344   46.8099 H   0  0  0  0  0  0  0  0  0  0  0  0
   64.6895   32.5683   47.3442 H   0  0  0  0  0  0  0  0  0  0  0  0
   64.1078   34.5366   48.7960 H   0  0  0  0  0  0  0  0  0  0  0  0
   61.7986   34.7892   49.6401 H   0  0  0  0  0  0  0  0  0  0  0  0
   60.0398   33.1373   49.0884 H   0  0  0  0  0  0  0  0  0  0  0  0
   57.9150   28.9330   47.6760 H   0  0  0  0  0  0  0  0  0  0  0  0
   58.9854   31.7116   45.2100 H   0  0  0  0  0  0  0  0  0  0  0  0
   56.5626   33.5726   45.5103 H   0  0  0  0  0  0  0  0  0  0  0  0
   56.8152   32.1168   46.4764 H   0  0  0  0  0  0  0  0  0  0  0  0
   57.7900   34.5124   47.3338 H   0  0  0  0  0  0  0  0  0  0  0  0
   58.7619   33.0956   47.6105 H   0  0  0  0  0  0  0  0  0  0  0  0
   57.8062   34.2776   43.7966 H   0  0  0  0  0  0  0  0  0  0  0  0
   59.2334   33.5571   43.2156 H   0  0  0  0  0  0  0  0  0  0  0  0
  1  2  1  0
  2  3  1  0
  3  4  2  0
  3  5  1  0
  5  6  1  0
  6  7  1  0
  7  8  2  0
  8  9  1  0
  9 10  1  0
 10 11  2  0
 11 12  1  0
 12 13  2  0
 13 14  1  0
 14 15  2  0
  9 16  2  0
 16 17  1  0
  2 18  1  0
 18 19  1  0
 19 20  1  0
 20 21  1  0
 21 22  2  0
 21 23  2  0
 21 24  1  0
 17  7  1  0
 24 18  1  0
 15 10  1  0
  1 25  1  0
  1 26  1  0
  1 27  1  0
  5 28  1  0
  5 29  1  0
 11 30  1  0
 12 31  1  0
 13 32  1  0
 14 33  1  0
 15 34  1  0
 17 35  1  0
 18 36  1  1
 19 37  1  0
 19 38  1  0
 20 39  1  0
 20 40  1  0
 24 41  1  0
 24 42  1  0
M  END
>  <smiles>  (95) 
CN(C(=O)CSc1nc(-c2ccccc2)n[nH]1)C1CCS(=O)(=O)C1

>  <score_type>  (95) 
oracle

>  <origin>  (95) 
adg

>  <m_score__min__energy>  (95) 
-9.4800000000000004

>  <m_primary>  (95) 
energy

$$$$
