0:0
     RDKit          3D

 46 49  0  0  0  0  0  0  0  0999 V2000
   56.1250   29.6340   52.3830 O   0  0  0  0  0  0  0  0  0  0  0  0
   55.8030   30.6920   51.7780 C   0  0  0  0  0  0  0  0  0  0  0  0
   56.7570   31.8430   51.7480 C   0  0  0  0  0  0  0  0  0  0  0  0
   58.0550   31.4030   51.2390 N   0  0  0  0  0  0  0  0  0  0  0  0
   58.2480   30.4190   50.3280 C   0  0  0  0  0  0  0  0  0  0  0  0
   59.5900   30.3470   49.9830 C   0  0  0  0  0  0  0  0  0  0  0  0
   60.3160   29.2580   48.7590 S   0  0  0  0  0  0  0  0  0  0  0  0
   61.1370   30.6020   47.8320 C   0  0  0  0  0  0  0  0  0  0  0  0
   60.1240   31.5150   47.1940 C   0  0  0  0  0  0  0  0  0  0  0  0
   59.1050   30.9810   46.3900 C   0  0  0  0  0  0  0  0  0  0  0  0
   58.1660   31.8250   45.7910 C   0  0  0  0  0  0  0  0  0  0  0  0
   58.2320   33.2070   45.9950 C   0  0  0  0  0  0  0  0  0  0  0  0
   57.0690   34.2620   45.2150 Cl  0  0  0  0  0  0  0  0  0  0  0  0
   59.2340   33.7440   46.8100 C   0  0  0  0  0  0  0  0  0  0  0  0
   60.1770   32.9030   47.4080 C   0  0  0  0  0  0  0  0  0  0  0  0
   60.2280   31.3270   50.7120 C   0  0  0  0  0  0  0  0  0  0  0  0
   61.5630   31.7290   50.7290 C   0  0  0  0  0  0  0  0  0  0  0  0
   61.9100   32.8150   51.5510 C   0  0  0  0  0  0  0  0  0  0  0  0
   60.9250   33.4740   52.3180 C   0  0  0  0  0  0  0  0  0  0  0  0
   59.5840   33.0530   52.2740 C   0  0  0  0  0  0  0  0  0  0  0  0
   59.2670   31.9610   51.4580 C   0  0  0  0  0  0  0  0  0  0  0  0
   54.5090   30.8350   51.1790 N   0  0  0  0  0  0  0  0  0  0  0  0
   53.2460   30.9550   51.8500 C   0  0  0  0  0  0  0  0  0  0  0  0
   52.9300   30.0210   52.8440 C   0  0  0  0  0  0  0  0  0  0  0  0
   51.7130   30.0970   53.5300 C   0  0  0  0  0  0  0  0  0  0  0  0
   50.8100   31.1220   53.2390 C   0  0  0  0  0  0  0  0  0  0  0  0
   51.1290   32.0780   52.2700 C   0  0  0  0  0  0  0  0  0  0  0  0
   50.2390   33.1110   51.9960 O   0  0  0  0  0  0  0  0  0  0  0  0
   52.3450   32.0030   51.5800 C   0  0  0  0  0  0  0  0  0  0  0  0
   56.3568   32.6309   51.0930 H   0  0  0  0  0  0  0  0  0  0  0  0
   56.8829   32.2345   52.7682 H   0  0  0  0  0  0  0  0  0  0  0  0
   57.4568   29.7720   49.9214 H   0  0  0  0  0  0  0  0  0  0  0  0
   61.7623   31.1859   48.5234 H   0  0  0  0  0  0  0  0  0  0  0  0
   61.7538   30.1544   47.0387 H   0  0  0  0  0  0  0  0  0  0  0  0
   59.0453   29.8942   46.2308 H   0  0  0  0  0  0  0  0  0  0  0  0
   57.3729   31.4013   45.1574 H   0  0  0  0  0  0  0  0  0  0  0  0
   59.2800   34.8297   46.9806 H   0  0  0  0  0  0  0  0  0  0  0  0
   60.9633   33.3291   48.0484 H   0  0  0  0  0  0  0  0  0  0  0  0
   62.3195   31.2133   50.1193 H   0  0  0  0  0  0  0  0  0  0  0  0
   62.9556   33.1535   51.5969 H   0  0  0  0  0  0  0  0  0  0  0  0
   61.2089   34.3242   52.9556 H   0  0  0  0  0  0  0  0  0  0  0  0
   58.8087   33.5657   52.8623 H   0  0  0  0  0  0  0  0  0  0  0  0
   53.6444   29.2209   53.0876 H   0  0  0  0  0  0  0  0  0  0  0  0
   51.4673   29.3494   54.2986 H   0  0  0  0  0  0  0  0  0  0  0  0
   49.8491   31.1770   53.7715 H   0  0  0  0  0  0  0  0  0  0  0  0
   52.5968   32.7635   50.8262 H   0  0  0  0  0  0  0  0  0  0  0  0
  1  2  2  0
  2  3  1  0
  3  4  1  0
  4  5  1  0
  5  6  2  0
  6  7  1  0
  7  8  1  0
  8  9  1  0
  9 10  2  0
 10 11  1  0
 11 12  2  0
 12 13  1  0
 12 14  1  0
 14 15  2  0
  6 16  1  0
 16 17  2  0
 17 18  1  0
 18 19  2  0
 19 20  1  0
 20 21  2  0
  2 22  1  0
 22 23  1  0
 23 24  2  0
 24 25  1  0
 25 26  2  0
 26 27  1  0
 27 28  1  0
 27 29  2  0
 21  4  1  0
 29 23  1  0
 15  9  1  0
 21 16  1  0
  3 30  1  0
  3 31  1  0
  5 32  1  0
  8 33  1  0
  8 34  1  0
 10 35  1  0
 11 36  1  0
 14 37  1  0
 15 38  1  0
 17 39  1  0
 18 40  1  0
 19 41  1  0
 20 42  1  0
 24 43  1  0
 25 44  1  0
 26 45  1  0
 29 46  1  0
M  CHG  2  22  -1  28  -1
M  END
>  <UniqueID>  (1) 
1

>  <SMILES>  (1) 
O=C(Cn1cc(SCc2ccc(Cl)cc2)c2ccccc21)[N-]c1cccc([O-])c1

>  <Energy>  (1) 
78.04280355870353

>  <Genealogy>  (1) 
O=C(Cn1cc(SCc2ccc(Cl)cc2)c2ccccc21)[N-]c1cccc([O-])c1 (protonated)
O=C(Cn1cc(SCc2ccc(Cl)cc2)c2ccccc21)[N-]c1cccc([O-])c1 (3D coordinates assigned)
O=C(Cn1cc(SCc2ccc(Cl)cc2)c2ccccc21)[N-]c1cccc([O-])c1 (optimized conformer: 78.04280355870353 kcal/mol)

>  <smiles>  (1) 
O=C(Cn1cc(SCc2ccc(Cl)cc2)c2ccccc21)Nc1cccc(O)c1

>  <score_type>  (1) 
oracle

>  <origin>  (1) 
adg

>  <m_score__min__energy>  (1) 
-14.470000000000001

>  <m_primary>  (1) 
energy

$$$$
1:0
     RDKit          3D

 64 67  0  0  1  0  0  0  0  0999 V2000
   58.1390   26.8170   42.7320 C   0  0  0  0  0  0  0  0  0  0  0  0
   57.9460   27.7130   43.9280 C   0  0  0  0  0  0  0  0  0  0  0  0
   57.3180   28.9240   43.6800 C   0  0  0  0  0  0  0  0  0  0  0  0
   57.1450   29.7500   44.7960 C   0  0  0  0  0  0  0  0  0  0  0  0
   56.5670   30.8620   44.5970 N   0  0  0  0  0  0  0  0  0  0  0  0
   57.3230   32.0290   44.1960 C   0  0  0  0  0  0  0  0  0  0  0  0
   57.3920   33.0540   45.3030 C   0  0  0  0  0  0  0  0  0  0  0  0
   58.7190   33.2180   45.9360 C   0  0  0  0  0  0  0  0  0  0  0  0
   58.8540   34.3250   46.9320 C   0  0  0  0  0  0  0  0  0  0  0  0
   60.3580   34.5960   47.0700 C   0  0  0  0  0  0  0  0  0  0  0  0
   61.1280   33.5970   46.3960 N   0  0  0  0  0  0  0  0  0  0  0  0
   62.5220   33.8630   46.5170 C   0  0  0  0  0  0  0  0  0  0  0  0
   63.0020   33.4880   47.8930 C   0  0  0  0  0  0  0  0  0  0  0  0
   63.7560   32.3360   48.1050 C   0  0  0  0  0  0  0  0  0  0  0  0
   64.2030   31.9860   49.3660 C   0  0  0  0  0  0  0  0  0  0  0  0
   63.8880   32.8010   50.4310 C   0  0  0  0  0  0  0  0  0  0  0  0
   63.1400   33.9550   50.2710 C   0  0  0  0  0  0  0  0  0  0  0  0
   62.7170   34.2650   48.9870 C   0  0  0  0  0  0  0  0  0  0  0  0
   60.7940   32.2420   46.7430 C   0  0  0  0  0  0  0  0  0  0  0  0
   59.3120   31.9710   46.5490 C   0  0  0  0  0  0  0  0  0  0  0  0
   57.5790   29.3380   45.9970 N   0  0  0  0  0  0  0  0  0  0  0  0
   58.1860   28.1560   46.2110 C   0  0  0  0  0  0  0  0  0  0  0  0
   58.5620   27.8420   47.3910 N   0  0  0  0  0  0  0  0  0  0  0  0
   59.8770   28.1490   47.8910 C   0  0  0  0  0  0  0  0  0  0  0  0
   59.8510   29.4210   48.6980 C   0  0  0  0  0  0  0  0  0  0  0  0
   61.0290   30.0130   49.0960 C   0  0  0  0  0  0  0  0  0  0  0  0
   60.9670   31.1740   49.8300 C   0  0  0  0  0  0  0  0  0  0  0  0
   59.7970   31.7910   50.1960 C   0  0  0  0  0  0  0  0  0  0  0  0
   59.7690   33.2880   51.1410 Cl  0  0  0  0  0  0  0  0  0  0  0  0
   58.5960   31.1910   49.7910 C   0  0  0  0  0  0  0  0  0  0  0  0
   58.6750   30.0330   49.0600 C   0  0  0  0  0  0  0  0  0  0  0  0
   58.3580   27.3570   45.1540 N   0  0  0  0  0  0  0  0  0  0  0  0
   58.3593   25.7943   43.0718 H   0  0  0  0  0  0  0  0  0  0  0  0
   57.2213   26.8122   42.1255 H   0  0  0  0  0  0  0  0  0  0  0  0
   58.9773   27.1904   42.1255 H   0  0  0  0  0  0  0  0  0  0  0  0
   56.9791   29.2154   42.6749 H   0  0  0  0  0  0  0  0  0  0  0  0
   58.3449   31.7190   43.9323 H   0  0  0  0  0  0  0  0  0  0  0  0
   56.8167   32.4874   43.3337 H   0  0  0  0  0  0  0  0  0  0  0  0
   57.0937   34.0263   44.8839 H   0  0  0  0  0  0  0  0  0  0  0  0
   56.7220   32.6890   46.0954 H   0  0  0  0  0  0  0  0  0  0  0  0
   59.2955   33.4907   45.0397 H   0  0  0  0  0  0  0  0  0  0  0  0
   58.3356   35.2263   46.5729 H   0  0  0  0  0  0  0  0  0  0  0  0
   58.4058   34.0513   47.8985 H   0  0  0  0  0  0  0  0  0  0  0  0
   60.5867   35.5798   46.6342 H   0  0  0  0  0  0  0  0  0  0  0  0
   60.6190   34.5746   48.1384 H   0  0  0  0  0  0  0  0  0  0  0  0
   63.0712   33.2747   45.7671 H   0  0  0  0  0  0  0  0  0  0  0  0
   62.6994   34.9362   46.3536 H   0  0  0  0  0  0  0  0  0  0  0  0
   64.0016   31.6897   47.2494 H   0  0  0  0  0  0  0  0  0  0  0  0
   64.7991   31.0737   49.5158 H   0  0  0  0  0  0  0  0  0  0  0  0
   64.2405   32.5273   51.4364 H   0  0  0  0  0  0  0  0  0  0  0  0
   62.8914   34.5995   51.1270 H   0  0  0  0  0  0  0  0  0  0  0  0
   62.1236   35.1792   48.8386 H   0  0  0  0  0  0  0  0  0  0  0  0
   61.3701   31.5563   46.1043 H   0  0  0  0  0  0  0  0  0  0  0  0
   61.0393   32.0851   47.8037 H   0  0  0  0  0  0  0  0  0  0  0  0
   59.1685   31.1127   45.8761 H   0  0  0  0  0  0  0  0  0  0  0  0
   58.8253   31.7306   47.5057 H   0  0  0  0  0  0  0  0  0  0  0  0
   57.4440   29.9610   46.7980 H   0  0  0  0  0  0  0  0  0  0  0  0
   60.2238   27.3226   48.5289 H   0  0  0  0  0  0  0  0  0  0  0  0
   60.5595   28.2823   47.0387 H   0  0  0  0  0  0  0  0  0  0  0  0
   61.9991   29.5665   48.8322 H   0  0  0  0  0  0  0  0  0  0  0  0
   61.9142   31.6372   50.1434 H   0  0  0  0  0  0  0  0  0  0  0  0
   57.6233   31.6341   50.0508 H   0  0  0  0  0  0  0  0  0  0  0  0
   57.7331   29.5623   48.7419 H   0  0  0  0  0  0  0  0  0  0  0  0
   58.8220   26.4300   45.2430 H   0  0  0  0  0  0  0  0  0  0  0  0
  1  2  1  0
  2  3  2  0
  3  4  1  0
  4  5  2  0
  5  6  1  0
  6  7  1  0
  7  8  1  0
  8  9  1  0
  9 10  1  0
 10 11  1  0
 11 12  1  0
 12 13  1  0
 13 14  2  0
 14 15  1  0
 15 16  2  0
 16 17  1  0
 17 18  2  0
 11 19  1  0
 19 20  1  0
  4 21  1  0
 21 22  1  0
 22 23  2  0
 23 24  1  0
 24 25  1  0
 25 26  2  0
 26 27  1  0
 27 28  2  0
 28 29  1  0
 28 30  1  0
 30 31  2  0
 22 32  1  0
 32  2  1  0
 20  8  1  0
 31 25  1  0
 18 13  1  0
  1 33  1  0
  1 34  1  0
  1 35  1  0
  3 36  1  0
  6 37  1  0
  6 38  1  0
  7 39  1  0
  7 40  1  0
  8 41  1  0
  9 42  1  0
  9 43  1  0
 10 44  1  0
 10 45  1  0
 12 46  1  0
 12 47  1  0
 14 48  1  0
 15 49  1  0
 16 50  1  0
 17 51  1  0
 18 52  1  0
 19 53  1  0
 19 54  1  0
 20 55  1  0
 20 56  1  0
 21 57  1  0
 24 58  1  0
 24 59  1  0
 26 60  1  0
 27 61  1  0
 30 62  1  0
 31 63  1  0
 32 64  1  0
M  END
>  <smiles>  (2) 
Cc1cc(=NCCC2CCN(Cc3ccccc3)CC2)[nH]c(=NCc2ccc(Cl)cc2)[nH]1

>  <score_type>  (2) 
oracle

>  <origin>  (2) 
adg

>  <m_score__min__energy>  (2) 
-9.7300000000000004

>  <m_primary>  (2) 
energy

$$$$
2:0
     RDKit          3D

 24 26  0  0  0  0  0  0  0  0999 V2000
   59.2640   26.5740   47.5890 H   0  0  0  0  0  0  0  0  0  0  0  0
   58.5070   25.9130   47.4630 O   0  0  0  0  0  0  0  0  0  0  0  0
   57.3600   26.2730   46.7650 C   0  0  0  0  0  0  0  0  0  0  0  0
   56.2400   25.5320   46.7370 N   0  0  0  0  0  0  0  0  0  0  0  0
   55.3950   26.2970   46.0120 C   0  0  0  0  0  0  0  0  0  0  0  0
   54.2130   25.9490   45.7600 O   0  0  0  0  0  0  0  0  0  0  0  0
   55.9140   27.4700   45.5890 N   0  0  0  0  0  0  0  0  0  0  0  0
   57.1760   27.4380   46.0510 C   0  0  0  0  0  0  0  0  0  0  0  0
   58.1210   28.5580   45.8980 C   0  0  0  0  0  0  0  0  0  0  0  0
   59.1801   28.3808   46.1366 H   0  0  0  0  0  0  0  0  0  0  0  0
   57.7610   29.7810   45.4840 C   0  0  0  0  0  0  0  0  0  0  0  0
   56.6600   30.1250   44.5650 C   0  0  0  0  0  0  0  0  0  0  0  0
   56.0521   29.3810   44.0293 H   0  0  0  0  0  0  0  0  0  0  0  0
   56.4920   31.4070   44.4620 N   0  0  0  0  0  0  0  0  0  0  0  0
   57.4720   32.0120   45.2980 C   0  0  0  0  0  0  0  0  0  0  0  0
   57.6570   33.3810   45.4770 C   0  0  0  0  0  0  0  0  0  0  0  0
   57.0140   34.1097   44.9616 H   0  0  0  0  0  0  0  0  0  0  0  0
   58.6850   33.8060   46.3320 C   0  0  0  0  0  0  0  0  0  0  0  0
   58.8493   34.8810   46.4975 H   0  0  0  0  0  0  0  0  0  0  0  0
   59.5070   32.8650   46.9790 C   0  0  0  0  0  0  0  0  0  0  0  0
   60.3136   33.2115   47.6418 H   0  0  0  0  0  0  0  0  0  0  0  0
   59.3080   31.4850   46.7870 C   0  0  0  0  0  0  0  0  0  0  0  0
   60.3960   30.3570   47.5800 Cl  0  0  0  0  0  0  0  0  0  0  0  0
   58.2600   31.0830   45.9390 C   0  0  0  0  0  0  0  0  0  0  0  0
  1  2  1  0
  2  3  1  0
  3  4  1  0
  4  5  1  0
  5  6  2  0
  5  7  1  0
  7  8  1  0
  8  9  1  0
  9 10  1  0
  9 11  2  0
 11 12  1  0
 12 13  1  0
 12 14  2  0
 14 15  1  0
 15 16  2  0
 16 17  1  0
 16 18  1  0
 18 19  1  0
 18 20  2  0
 20 21  1  0
 20 22  1  0
 22 23  1  0
 22 24  2  0
  8  3  2  0
 24 11  1  0
 24 15  1  0
M  CHG  2   4  -1   7  -1
M  END
>  <UniqueID>  (3) 
2

>  <SMILES>  (3) 
O=c1[n-]c(O)c(/C=C2\C=Nc3cccc(Cl)c32)[n-]1

>  <Energy>  (3) 
93.04197612505858

>  <Genealogy>  (3) 
O=c1[n-]c(O)c(C=C2C=Nc3cccc(Cl)c32)[n-]1 (protonated)
O=c1[n-]c(O)c(/C=C2\C=Nc3cccc(Cl)c32)[n-]1 (cis-trans isomerization)
O=c1[n-]c(O)c(/C=C2\C=Nc3cccc(Cl)c32)[n-]1 (3D coordinates assigned)
O=c1[n-]c(O)c(/C=C2\C=Nc3cccc(Cl)c32)[n-]1 (nonaromatic ring conformer: 93.04197612505858 kcal/mol)

>  <smiles>  (3) 
O=c1[nH]c(O)c(C=C2C=Nc3cccc(Cl)c32)[nH]1

>  <score_type>  (3) 
oracle

>  <origin>  (3) 
adg

>  <m_score__min__energy>  (3) 
-11.5

>  <m_primary>  (3) 
energy

$$$$
3:0
     RDKit          3D

 55 58  0  0  0  0  0  0  0  0999 V2000
   54.4538   29.5865   43.8694 H   0  0  0  0  0  0  0  0  0  0  0  0
   55.4490   29.7000   44.3240 C   0  0  0  0  0  0  0  0  0  0  0  0
   55.9720   28.6900   45.0650 N   0  0  0  0  0  0  0  0  0  0  0  0
   57.2020   28.7830   45.6360 C   0  0  0  0  0  0  0  0  0  0  0  0
   57.7170   27.6990   46.3580 C   0  0  0  0  0  0  0  0  0  0  0  0
   57.1112   26.7899   46.4872 H   0  0  0  0  0  0  0  0  0  0  0  0
   58.9990   27.7670   46.9160 C   0  0  0  0  0  0  0  0  0  0  0  0
   59.6430   26.4000   47.8050 Cl  0  0  0  0  0  0  0  0  0  0  0  0
   59.7660   28.9250   46.7610 C   0  0  0  0  0  0  0  0  0  0  0  0
   60.7741   28.9768   47.1982 H   0  0  0  0  0  0  0  0  0  0  0  0
   59.2570   30.0190   46.0520 C   0  0  0  0  0  0  0  0  0  0  0  0
   59.8651   30.9288   45.9402 H   0  0  0  0  0  0  0  0  0  0  0  0
   57.9690   29.9620   45.4800 C   0  0  0  0  0  0  0  0  0  0  0  0
   57.4340   31.0340   44.7300 C   0  0  0  0  0  0  0  0  0  0  0  0
   58.1260   32.1310   44.6000 N   0  0  0  0  0  0  0  0  0  0  0  0
   58.1520   33.2720   45.5140 C   0  0  0  0  0  0  0  0  0  0  0  0
   58.2470   32.9046   46.5465 H   0  0  0  0  0  0  0  0  0  0  0  0
   57.2182   33.8408   45.3937 H   0  0  0  0  0  0  0  0  0  0  0  0
   59.3380   34.2000   45.1980 C   0  0  0  0  0  0  0  0  0  0  0  0
   58.9420   35.1893   44.9252 H   0  0  0  0  0  0  0  0  0  0  0  0
   59.9020   33.7333   44.3770 H   0  0  0  0  0  0  0  0  0  0  0  0
   60.3160   34.3750   46.3740 C   0  0  0  0  0  0  0  0  0  0  0  0
   59.9131   33.8624   47.2599 H   0  0  0  0  0  0  0  0  0  0  0  0
   60.4368   35.4485   46.5812 H   0  0  0  0  0  0  0  0  0  0  0  0
   61.6170   33.8080   46.0410 N   0  0  0  0  0  0  0  0  0  0  0  0
   62.4590   33.1710   47.0060 C   0  0  0  0  0  0  0  0  0  0  0  0
   62.9240   32.0130   46.7960 O   0  0  0  0  0  0  0  0  0  0  0  0
   62.8600   33.9200   48.2330 C   0  0  0  0  0  0  0  0  0  0  0  0
   63.6511   34.6406   47.9781 H   0  0  0  0  0  0  0  0  0  0  0  0
   61.9853   34.4536   48.6332 H   0  0  0  0  0  0  0  0  0  0  0  0
   63.3770   32.9570   49.2790 C   0  0  0  0  0  0  0  0  0  0  0  0
   64.6310   33.2240   49.8610 C   0  0  0  0  0  0  0  0  0  0  0  0
   65.1649   34.1495   49.5995 H   0  0  0  0  0  0  0  0  0  0  0  0
   65.2050   32.3300   50.7650 C   0  0  0  0  0  0  0  0  0  0  0  0
   66.1733   32.5658   51.2307 H   0  0  0  0  0  0  0  0  0  0  0  0
   64.5540   31.1390   51.0790 C   0  0  0  0  0  0  0  0  0  0  0  0
   65.0108   30.4333   51.7885 H   0  0  0  0  0  0  0  0  0  0  0  0
   63.3230   30.8410   50.4940 C   0  0  0  0  0  0  0  0  0  0  0  0
   62.8274   29.8868   50.7259 H   0  0  0  0  0  0  0  0  0  0  0  0
   62.7100   31.7450   49.6130 C   0  0  0  0  0  0  0  0  0  0  0  0
   61.4300   31.3840   49.0640 N   0  0  0  0  0  0  0  0  0  0  0  0
   61.4140   31.1100   48.0540 H   0  0  0  0  0  0  0  0  0  0  0  0
   60.2090   31.2330   49.8190 C   0  0  0  0  0  0  0  0  0  0  0  0
   59.3340   32.3210   50.0670 C   0  0  0  0  0  0  0  0  0  0  0  0
   59.7140   33.9770   49.6180 Cl  0  0  0  0  0  0  0  0  0  0  0  0
   58.1280   32.1090   50.7450 C   0  0  0  0  0  0  0  0  0  0  0  0
   57.4389   32.9505   50.9093 H   0  0  0  0  0  0  0  0  0  0  0  0
   57.7940   30.8410   51.2130 C   0  0  0  0  0  0  0  0  0  0  0  0
   56.8392   30.6821   51.7356 H   0  0  0  0  0  0  0  0  0  0  0  0
   58.6680   29.7730   51.0200 C   0  0  0  0  0  0  0  0  0  0  0  0
   58.4105   28.7774   51.4106 H   0  0  0  0  0  0  0  0  0  0  0  0
   59.8710   29.9610   50.3320 C   0  0  0  0  0  0  0  0  0  0  0  0
   60.9180   28.5660   50.0880 Cl  0  0  0  0  0  0  0  0  0  0  0  0
   56.1670   30.8810   44.1360 C   0  0  0  0  0  0  0  0  0  0  0  0
   55.7438   31.6915   43.5245 H   0  0  0  0  0  0  0  0  0  0  0  0
  1  2  1  0
  2  3  1  0
  3  4  1  0
  4  5  2  0
  5  6  1  0
  5  7  1  0
  7  8  1  0
  7  9  2  0
  9 10  1  0
  9 11  1  0
 11 12  1  0
 11 13  2  0
 13 14  1  0
 14 15  2  0
 15 16  1  0
 16 17  1  0
 16 18  1  0
 16 19  1  0
 19 20  1  0
 19 21  1  0
 19 22  1  0
 22 23  1  0
 22 24  1  0
 22 25  1  0
 25 26  1  0
 26 27  2  0
 26 28  1  0
 28 29  1  0
 28 30  1  0
 28 31  1  0
 31 32  2  0
 32 33  1  0
 32 34  1  0
 34 35  1  0
 34 36  2  0
 36 37  1  0
 36 38  1  0
 38 39  1  0
 38 40  2  0
 40 41  1  0
 41 42  1  0
 41 43  1  0
 43 44  2  0
 44 45  1  0
 44 46  1  0
 46 47  1  0
 46 48  2  0
 48 49  1  0
 48 50  1  0
 50 51  1  0
 50 52  2  0
 52 53  1  0
 14 54  1  0
 54 55  1  0
 54  2  2  0
 13  4  1  0
 40 31  1  0
 52 43  1  0
M  CHG  2   3  -1  25  -1
M  END
>  <UniqueID>  (4) 
3

>  <SMILES>  (4) 
O=C(Cc1ccccc1Nc1c(Cl)cccc1Cl)[N-]CCC/N=c1\cc[n-]c2cc(Cl)ccc12

>  <Energy>  (4) 
65.43649059924698

>  <Genealogy>  (4) 
O=C(Cc1ccccc1Nc1c(Cl)cccc1Cl)[N-]CCCN=c1cc[n-]c2cc(Cl)ccc12 (protonated)
O=C(Cc1ccccc1Nc1c(Cl)cccc1Cl)[N-]CCC/N=c1\cc[n-]c2cc(Cl)ccc12 (cis-trans isomerization)
O=C(Cc1ccccc1Nc1c(Cl)cccc1Cl)[N-]CCC/N=c1\cc[n-]c2cc(Cl)ccc12 (3D coordinates assigned)
O=C(Cc1ccccc1Nc1c(Cl)cccc1Cl)[N-]CCC/N=c1\cc[n-]c2cc(Cl)ccc12 (optimized conformer: 65.43649059924698 kcal/mol)

>  <smiles>  (4) 
O=C(Cc1ccccc1Nc1c(Cl)cccc1Cl)NCCCN=c1cc[nH]c2cc(Cl)ccc12

>  <score_type>  (4) 
oracle

>  <origin>  (4) 
adg

>  <m_score__min__energy>  (4) 
-12.41

>  <m_primary>  (4) 
energy

$$$$
4:0
     RDKit          3D

 54 56  0  0  0  0  0  0  0  0999 V2000
   58.5000   30.2840   46.4410 N   0  0  0  0  0  0  0  0  0  0  0  0
   59.2940   29.2780   47.1030 C   0  0  0  0  0  0  0  0  0  0  0  0
   59.9360   28.2660   46.3340 C   0  0  0  0  0  0  0  0  0  0  0  0
   59.8220   28.2150   44.8880 N   0  0  0  0  0  0  0  0  0  0  0  0
   58.8770   27.1730   44.4300 C   0  0  0  0  0  0  0  0  0  0  0  0
   57.4770   27.7260   44.0630 C   0  0  0  0  0  0  0  0  0  0  0  0
   56.6880   28.2520   45.2730 C   0  0  0  0  0  0  0  0  0  0  0  0
   55.8240   29.3690   44.8830 N   0  0  0  0  0  0  0  0  0  0  0  0
   56.3000   29.9740   43.6340 C   0  0  0  0  0  0  0  0  0  0  0  0
   57.0180   31.2550   43.9260 C   0  0  0  0  0  0  0  0  0  0  0  0
   57.7350   32.0090   43.0160 C   0  0  0  0  0  0  0  0  0  0  0  0
   58.2260   33.0840   43.7260 C   0  0  0  0  0  0  0  0  0  0  0  0
   57.7750   32.9160   45.0200 C   0  0  0  0  0  0  0  0  0  0  0  0
   58.0340   33.8410   46.1640 C   0  0  0  0  0  0  0  0  0  0  0  0
   57.8710   33.1600   47.3760 O   0  0  0  0  0  0  0  0  0  0  0  0
   57.0520   31.8240   45.1090 O   0  0  0  0  0  0  0  0  0  0  0  0
   60.6670   27.2830   47.0220 C   0  0  0  0  0  0  0  0  0  0  0  0
   61.2340   26.3440   46.4010 O   0  0  0  0  0  0  0  0  0  0  0  0
   60.7750   27.3370   48.3660 N   0  0  0  0  0  0  0  0  0  0  0  0
   60.1830   28.3110   49.0940 C   0  0  0  0  0  0  0  0  0  0  0  0
   60.3380   28.3020   50.3450 O   0  0  0  0  0  0  0  0  0  0  0  0
   59.4290   29.2840   48.4800 N   0  0  0  0  0  0  0  0  0  0  0  0
   58.7710   30.3220   49.3070 C   0  0  0  0  0  0  0  0  0  0  0  0
   59.5340   31.6250   49.2650 C   0  0  0  0  0  0  0  0  0  0  0  0
   60.5760   31.8130   48.3400 C   0  0  0  0  0  0  0  0  0  0  0  0
   61.2630   33.0300   48.2880 C   0  0  0  0  0  0  0  0  0  0  0  0
   60.9160   34.0690   49.1550 C   0  0  0  0  0  0  0  0  0  0  0  0
   59.8690   33.8990   50.0640 C   0  0  0  0  0  0  0  0  0  0  0  0
   59.1760   32.6860   50.1130 C   0  0  0  0  0  0  0  0  0  0  0  0
   57.7160   30.0470   45.7960 H   0  0  0  0  0  0  0  0  0  0  0  0
   58.6590   31.3060   46.5610 H   0  0  0  0  0  0  0  0  0  0  0  0
   60.7690   28.0340   44.4820 H   0  0  0  0  0  0  0  0  0  0  0  0
   59.5520   29.1450   44.4890 H   0  0  0  0  0  0  0  0  0  0  0  0
   59.3021   26.6840   43.5411 H   0  0  0  0  0  0  0  0  0  0  0  0
   58.7387   26.4718   45.2662 H   0  0  0  0  0  0  0  0  0  0  0  0
   57.6054   28.5504   43.3462 H   0  0  0  0  0  0  0  0  0  0  0  0
   56.9003   26.8905   43.6396 H   0  0  0  0  0  0  0  0  0  0  0  0
   56.0670   27.4402   45.6795 H   0  0  0  0  0  0  0  0  0  0  0  0
   57.4006   28.6052   46.0330 H   0  0  0  0  0  0  0  0  0  0  0  0
   55.9000   30.0950   45.6360 H   0  0  0  0  0  0  0  0  0  0  0  0
   56.9872   29.2778   43.1309 H   0  0  0  0  0  0  0  0  0  0  0  0
   55.4383   30.1836   42.9832 H   0  0  0  0  0  0  0  0  0  0  0  0
   57.8831   31.7956   41.9471 H   0  0  0  0  0  0  0  0  0  0  0  0
   58.8482   33.9054   43.3412 H   0  0  0  0  0  0  0  0  0  0  0  0
   59.0629   34.2243   46.0969 H   0  0  0  0  0  0  0  0  0  0  0  0
   57.3210   34.6775   46.1208 H   0  0  0  0  0  0  0  0  0  0  0  0
   57.3750   32.3250   47.1650 H   0  0  0  0  0  0  0  0  0  0  0  0
   57.7529   30.4909   48.9262 H   0  0  0  0  0  0  0  0  0  0  0  0
   58.7444   29.9696   50.3487 H   0  0  0  0  0  0  0  0  0  0  0  0
   60.8522   30.9988   47.6538 H   0  0  0  0  0  0  0  0  0  0  0  0
   62.0783   33.1694   47.5629 H   0  0  0  0  0  0  0  0  0  0  0  0
   61.4670   35.0205   49.1219 H   0  0  0  0  0  0  0  0  0  0  0  0
   59.5899   34.7196   50.7412 H   0  0  0  0  0  0  0  0  0  0  0  0
   58.3437   32.5614   50.8213 H   0  0  0  0  0  0  0  0  0  0  0  0
  1  2  1  0
  2  3  2  0
  3  4  1  0
  4  5  1  0
  5  6  1  0
  6  7  1  0
  7  8  1  0
  8  9  1  0
  9 10  1  0
 10 11  2  0
 11 12  1  0
 12 13  2  0
 13 14  1  0
 14 15  1  0
 13 16  1  0
  3 17  1  0
 17 18  2  0
 17 19  1  0
 19 20  1  0
 20 21  2  0
 20 22  1  0
 22 23  1  0
 23 24  1  0
 24 25  2  0
 25 26  1  0
 26 27  2  0
 27 28  1  0
 28 29  2  0
 22  2  1  0
 29 24  1  0
 16 10  1  0
  1 30  1  0
  1 31  1  0
  4 32  1  0
  4 33  1  0
  5 34  1  0
  5 35  1  0
  6 36  1  0
  6 37  1  0
  7 38  1  0
  7 39  1  0
  8 40  1  0
  9 41  1  0
  9 42  1  0
 11 43  1  0
 12 44  1  0
 14 45  1  0
 14 46  1  0
 15 47  1  0
 23 48  1  0
 23 49  1  0
 25 50  1  0
 26 51  1  0
 27 52  1  0
 28 53  1  0
 29 54  1  0
M  CHG  2   4   1  19  -1
M  END
>  <UniqueID>  (5) 
4

>  <SMILES>  (5) 
Nc1c([NH2+]CCCNCc2ccc(CO)o2)c(=O)[n-]c(=O)n1Cc1ccccc1

>  <Energy>  (5) 
85.54405768486988

>  <Genealogy>  (5) 
Nc1c([NH2+]CCCNCc2ccc(CO)o2)c(=O)[n-]c(=O)n1Cc1ccccc1 (protonated)
Nc1c([NH2+]CCCNCc2ccc(CO)o2)c(=O)[n-]c(=O)n1Cc1ccccc1 (3D coordinates assigned)
Nc1c([NH2+]CCCNCc2ccc(CO)o2)c(=O)[n-]c(=O)n1Cc1ccccc1 (optimized conformer: 85.54405768486988 kcal/mol)

>  <smiles>  (5) 
Nc1c(NCCCNCc2ccc(CO)o2)c(=O)[nH]c(=O)n1Cc1ccccc1

>  <score_type>  (5) 
oracle

>  <origin>  (5) 
adg

>  <m_score__min__energy>  (5) 
-7.0999999999999996

>  <m_primary>  (5) 
energy

$$$$
5:0
     RDKit          3D

 38 40  0  0  0  0  0  0  0  0999 V2000
   57.3990   31.9910   41.1040 C   0  0  0  0  0  0  0  0  0  0  0  0
   57.2880   31.6770   42.5620 C   0  0  0  0  0  0  0  0  0  0  0  0
   56.7510   30.4590   42.9840 C   0  0  0  0  0  0  0  0  0  0  0  0
   56.6710   30.1990   44.3590 C   0  0  0  0  0  0  0  0  0  0  0  0
   56.1420   28.9960   44.8500 O   0  0  0  0  0  0  0  0  0  0  0  0
   56.8930   27.9220   45.3500 C   0  0  0  0  0  0  0  0  0  0  0  0
   56.2900   26.8270   45.9960 C   0  0  0  0  0  0  0  0  0  0  0  0
   57.0750   25.7840   46.4970 C   0  0  0  0  0  0  0  0  0  0  0  0
   58.4660   25.8310   46.3680 C   0  0  0  0  0  0  0  0  0  0  0  0
   59.0730   26.9260   45.7460 C   0  0  0  0  0  0  0  0  0  0  0  0
   58.2890   27.9700   45.2450 C   0  0  0  0  0  0  0  0  0  0  0  0
   57.1540   31.1160   45.2430 N   0  0  0  0  0  0  0  0  0  0  0  0
   57.6930   32.2970   44.8160 C   0  0  0  0  0  0  0  0  0  0  0  0
   58.2010   33.2670   45.7560 N   0  0  0  0  0  0  0  0  0  0  0  0
   58.6220   34.5890   45.2720 C   0  0  0  0  0  0  0  0  0  0  0  0
   59.6720   35.1880   46.2100 C   0  0  0  0  0  0  0  0  0  0  0  0
   59.2230   35.1590   47.5510 O   0  0  0  0  0  0  0  0  0  0  0  0
   59.1050   33.8180   47.9800 C   0  0  0  0  0  0  0  0  0  0  0  0
   58.0060   33.0890   47.2000 C   0  0  0  0  0  0  0  0  0  0  0  0
   57.7480   32.5610   43.4820 N   0  0  0  0  0  0  0  0  0  0  0  0
   57.7632   33.0212   40.9775 H   0  0  0  0  0  0  0  0  0  0  0  0
   58.1045   31.2920   40.6311 H   0  0  0  0  0  0  0  0  0  0  0  0
   56.4109   31.8907   40.6311 H   0  0  0  0  0  0  0  0  0  0  0  0
   56.3977   29.7181   42.2517 H   0  0  0  0  0  0  0  0  0  0  0  0
   55.1962   26.7914   46.1074 H   0  0  0  0  0  0  0  0  0  0  0  0
   56.5976   24.9260   46.9929 H   0  0  0  0  0  0  0  0  0  0  0  0
   59.0828   25.0068   46.7557 H   0  0  0  0  0  0  0  0  0  0  0  0
   60.1681   26.9664   45.6506 H   0  0  0  0  0  0  0  0  0  0  0  0
   58.7716   28.8344   44.7654 H   0  0  0  0  0  0  0  0  0  0  0  0
   57.0760   30.9030   46.2610 H   0  0  0  0  0  0  0  0  0  0  0  0
   59.0515   34.4867   44.2645 H   0  0  0  0  0  0  0  0  0  0  0  0
   57.7469   35.2548   45.2426 H   0  0  0  0  0  0  0  0  0  0  0  0
   60.6021   34.6063   46.1285 H   0  0  0  0  0  0  0  0  0  0  0  0
   59.8479   36.2343   45.9198 H   0  0  0  0  0  0  0  0  0  0  0  0
   60.0633   33.3027   47.8188 H   0  0  0  0  0  0  0  0  0  0  0  0
   58.8407   33.8126   49.0478 H   0  0  0  0  0  0  0  0  0  0  0  0
   58.0408   32.0163   47.4412 H   0  0  0  0  0  0  0  0  0  0  0  0
   57.0291   33.5080   47.4830 H   0  0  0  0  0  0  0  0  0  0  0  0
  1  2  1  0
  2  3  2  0
  3  4  1  0
  4  5  1  0
  5  6  1  0
  6  7  2  0
  7  8  1  0
  8  9  2  0
  9 10  1  0
 10 11  2  0
  4 12  2  0
 12 13  1  0
 13 14  1  0
 14 15  1  0
 15 16  1  0
 16 17  1  0
 17 18  1  0
 18 19  1  0
 13 20  2  0
 20  2  1  0
 11  6  1  0
 19 14  1  0
  1 21  1  0
  1 22  1  0
  1 23  1  0
  3 24  1  0
  7 25  1  0
  8 26  1  0
  9 27  1  0
 10 28  1  0
 11 29  1  0
 12 30  1  0
 15 31  1  0
 15 32  1  0
 16 33  1  0
 16 34  1  0
 18 35  1  0
 18 36  1  0
 19 37  1  0
 19 38  1  0
M  CHG  1  12   1
M  END
>  <UniqueID>  (6) 
5

>  <SMILES>  (6) 
Cc1cc(Oc2ccccc2)[nH+]c(N2CCOCC2)n1

>  <Energy>  (6) 
48.470612891529804

>  <Genealogy>  (6) 
Cc1cc(Oc2ccccc2)[nH+]c(N2CCOCC2)n1 (protonated)
Cc1cc(Oc2ccccc2)[nH+]c(N2CCOCC2)n1 (3D coordinates assigned)
Cc1cc(Oc2ccccc2)[nH+]c(N2CCOCC2)n1 (nonaromatic ring conformer: 48.470612891529804 kcal/mol)

>  <smiles>  (6) 
Cc1cc(Oc2ccccc2)nc(N2CCOCC2)n1

>  <score_type>  (6) 
oracle

>  <origin>  (6) 
adg

>  <m_score__min__energy>  (6) 
-5.5899999999999999

>  <m_primary>  (6) 
energy

$$$$
6:0
     RDKit          3D

 45 47  0  0  1  0  0  0  0  0999 V2000
   60.5400   30.1920   50.9090 C   0  0  0  0  0  0  0  0  0  0  0  0
   60.2270   29.2360   49.8450 C   0  0  0  0  0  0  0  0  0  0  0  0
   59.4630   29.6340   48.7750 C   0  0  0  0  0  0  0  0  0  0  0  0
   58.9120   30.9660   48.5620 C   0  0  0  0  0  0  0  0  0  0  0  0
   59.7800   31.9480   47.9190 C   0  0  0  0  0  0  0  0  0  0  0  0
   61.1340   31.6370   47.7240 C   0  0  0  0  0  0  0  0  0  0  0  0
   62.0100   32.4990   47.1250 C   0  0  0  0  0  0  0  0  0  0  0  0
   61.5910   33.7460   46.6750 C   0  0  0  0  0  0  0  0  0  0  0  0
   60.2660   34.0760   46.8550 C   0  0  0  0  0  0  0  0  0  0  0  0
   59.3900   33.1890   47.4640 C   0  0  0  0  0  0  0  0  0  0  0  0
   59.2120   28.6790   47.8300 N   0  0  0  0  0  0  0  0  0  0  0  0
   59.6770   27.4270   47.9290 C   0  0  0  0  0  0  0  0  0  0  0  0
   59.3630   26.1520   46.7230 S   0  0  0  0  0  0  0  0  0  0  0  0
   57.6890   25.5420   46.7560 C   0  0  0  0  0  0  0  0  0  0  0  0
   56.8010   26.3830   45.9600 C   0  0  0  0  0  0  0  0  0  0  0  0
   55.6050   26.6570   46.2090 O   0  0  0  0  0  0  0  0  0  0  0  0
   57.3400   26.9690   44.7590 N   0  0  0  0  0  0  0  0  0  0  0  0
   57.7960   28.1750   44.7960 C   0  0  0  0  0  0  0  0  0  0  0  0
   59.1120   28.4570   44.7710 N   0  0  0  0  0  0  0  0  0  0  0  0
   59.5090   29.7410   44.8130 C   0  0  0  0  0  0  0  0  0  0  0  0
   58.5990   30.7820   44.8810 C   0  0  0  0  0  0  0  0  0  0  0  0
   57.2430   30.5330   44.9080 C   0  0  0  0  0  0  0  0  0  0  0  0
   56.8600   29.1900   44.8630 C   0  0  0  0  0  0  0  0  0  0  0  0
   55.4960   28.8810   44.8880 O   0  0  0  0  0  0  0  0  0  0  0  0
   60.4350   27.0560   49.0040 N   0  0  0  0  0  0  0  0  0  0  0  0
   60.7200   27.9450   49.9710 C   0  0  0  0  0  0  0  0  0  0  0  0
   61.4170   27.6310   50.9730 O   0  0  0  0  0  0  0  0  0  0  0  0
   60.3839   29.7152   51.8879 H   0  0  0  0  0  0  0  0  0  0  0  0
   61.5892   30.5100   50.8192 H   0  0  0  0  0  0  0  0  0  0  0  0
   59.8821   31.0690   50.8192 H   0  0  0  0  0  0  0  0  0  0  0  0
   58.0138   30.8572   47.9364 H   0  0  0  0  0  0  0  0  0  0  0  0
   58.7294   31.3640   49.5711 H   0  0  0  0  0  0  0  0  0  0  0  0
   61.5059   30.6602   48.0669 H   0  0  0  0  0  0  0  0  0  0  0  0
   63.0613   32.2017   46.9973 H   0  0  0  0  0  0  0  0  0  0  0  0
   62.2919   34.4434   46.1930 H   0  0  0  0  0  0  0  0  0  0  0  0
   59.8980   35.0542   46.5119 H   0  0  0  0  0  0  0  0  0  0  0  0
   58.3392   33.4892   47.5890 H   0  0  0  0  0  0  0  0  0  0  0  0
   58.6410   28.9470   47.0030 H   0  0  0  0  0  0  0  0  0  0  0  0
   57.6724   24.5195   46.3506 H   0  0  0  0  0  0  0  0  0  0  0  0
   57.3362   25.5541   47.7978 H   0  0  0  0  0  0  0  0  0  0  0  0
   59.8220   27.6740   44.7190 H   0  0  0  0  0  0  0  0  0  0  0  0
   60.5847   29.9701   44.7928 H   0  0  0  0  0  0  0  0  0  0  0  0
   58.9618   31.8199   44.9139 H   0  0  0  0  0  0  0  0  0  0  0  0
   56.5042   31.3461   44.9619 H   0  0  0  0  0  0  0  0  0  0  0  0
   55.1470   27.9490   44.9130 H   0  0  0  0  0  0  0  0  0  0  0  0
  1  2  1  0
  2  3  2  0
  3  4  1  0
  4  5  1  0
  5  6  2  0
  6  7  1  0
  7  8  2  0
  8  9  1  0
  9 10  2  0
  3 11  1  0
 11 12  1  0
 12 13  1  0
 13 14  1  0
 14 15  1  0
 15 16  2  0
 15 17  1  0
 17 18  2  0
 18 19  1  0
 19 20  1  0
 20 21  2  0
 21 22  1  0
 22 23  2  0
 23 24  1  0
 12 25  2  0
 25 26  1  0
 26 27  2  0
 26  2  1  0
 10  5  1  0
 23 18  1  0
  1 28  1  0
  1 29  1  0
  1 30  1  0
  4 31  1  0
  4 32  1  0
  6 33  1  0
  7 34  1  0
  8 35  1  0
  9 36  1  0
 10 37  1  0
 11 38  1  0
 14 39  1  0
 14 40  1  0
 19 41  1  0
 20 42  1  0
 21 43  1  0
 22 44  1  0
 24 45  1  0
M  END
>  <smiles>  (7) 
Cc1c(Cc2ccccc2)[nH]c(SCC(=O)N=c2[nH]cccc2O)nc1=O

>  <score_type>  (7) 
oracle

>  <origin>  (7) 
adg

>  <m_score__min__energy>  (7) 
-9.2200000000000006

>  <m_primary>  (7) 
energy

$$$$
7:0
     RDKit          3D

 43 46  0  0  0  0  0  0  0  0999 V2000
   55.8970   30.0800   43.0270 C   0  0  0  0  0  0  0  0  0  0  0  0
   56.0120   30.0920   44.4460 O   0  0  0  0  0  0  0  0  0  0  0  0
   57.0430   29.4690   45.1680 C   0  0  0  0  0  0  0  0  0  0  0  0
   57.3400   28.1050   45.0040 C   0  0  0  0  0  0  0  0  0  0  0  0
   58.3630   27.5210   45.7570 C   0  0  0  0  0  0  0  0  0  0  0  0
   58.6670   26.1590   45.6090 C   0  0  0  0  0  0  0  0  0  0  0  0
   59.6930   25.5830   46.3630 C   0  0  0  0  0  0  0  0  0  0  0  0
   60.4220   26.3600   47.2660 C   0  0  0  0  0  0  0  0  0  0  0  0
   60.1280   27.7170   47.4220 C   0  0  0  0  0  0  0  0  0  0  0  0
   59.0950   28.3110   46.6700 C   0  0  0  0  0  0  0  0  0  0  0  0
   58.7700   29.6740   46.8030 C   0  0  0  0  0  0  0  0  0  0  0  0
   59.4170   30.4050   47.6040 O   0  0  0  0  0  0  0  0  0  0  0  0
   57.7540   30.2140   46.0660 N   0  0  0  0  0  0  0  0  0  0  0  0
   57.4160   31.5450   46.2340 O   0  0  0  0  0  0  0  0  0  0  0  0
   57.7950   32.5310   45.2780 C   0  0  0  0  0  0  0  0  0  0  0  0
   59.0060   33.2650   45.7590 C   0  0  0  0  0  0  0  0  0  0  0  0
   59.2580   34.6110   45.6120 C   0  0  0  0  0  0  0  0  0  0  0  0
   60.3270   34.8950   46.3190 O   0  0  0  0  0  0  0  0  0  0  0  0
   60.7260   33.7840   46.9040 C   0  0  0  0  0  0  0  0  0  0  0  0
   61.8870   33.7180   47.8210 C   0  0  0  0  0  0  0  0  0  0  0  0
   63.1130   33.1520   47.4180 C   0  0  0  0  0  0  0  0  0  0  0  0
   64.1890   33.0910   48.3080 C   0  0  0  0  0  0  0  0  0  0  0  0
   64.0580   33.5900   49.6060 C   0  0  0  0  0  0  0  0  0  0  0  0
   65.1030   33.5280   50.4670 F   0  0  0  0  0  0  0  0  0  0  0  0
   62.8450   34.1490   50.0170 C   0  0  0  0  0  0  0  0  0  0  0  0
   61.7650   34.2110   49.1320 C   0  0  0  0  0  0  0  0  0  0  0  0
   59.9310   32.7410   46.5810 N   0  0  0  0  0  0  0  0  0  0  0  0
   54.8393   29.9696   42.7458 H   0  0  0  0  0  0  0  0  0  0  0  0
   56.2882   31.0238   42.6194 H   0  0  0  0  0  0  0  0  0  0  0  0
   56.4746   29.2372   42.6194 H   0  0  0  0  0  0  0  0  0  0  0  0
   56.7692   27.4987   44.2852 H   0  0  0  0  0  0  0  0  0  0  0  0
   58.0965   25.5435   44.8980 H   0  0  0  0  0  0  0  0  0  0  0  0
   59.9271   24.5147   46.2450 H   0  0  0  0  0  0  0  0  0  0  0  0
   61.2298   25.9024   47.8560 H   0  0  0  0  0  0  0  0  0  0  0  0
   60.7053   28.3241   48.1348 H   0  0  0  0  0  0  0  0  0  0  0  0
   58.0216   32.0417   44.3192 H   0  0  0  0  0  0  0  0  0  0  0  0
   56.9679   33.2438   45.1445 H   0  0  0  0  0  0  0  0  0  0  0  0
   58.6698   35.3199   45.0108 H   0  0  0  0  0  0  0  0  0  0  0  0
   63.2238   32.7561   46.3977 H   0  0  0  0  0  0  0  0  0  0  0  0
   65.1427   32.6483   47.9849 H   0  0  0  0  0  0  0  0  0  0  0  0
   62.7399   34.5411   51.0394 H   0  0  0  0  0  0  0  0  0  0  0  0
   60.8121   34.6490   49.4638 H   0  0  0  0  0  0  0  0  0  0  0  0
   59.9800   31.7530   46.9130 H   0  0  0  0  0  0  0  0  0  0  0  0
  1  2  1  0
  2  3  1  0
  3  4  2  0
  4  5  1  0
  5  6  2  0
  6  7  1  0
  7  8  2  0
  8  9  1  0
  9 10  2  0
 10 11  1  0
 11 12  2  0
 11 13  1  0
 13 14  1  0
 14 15  1  0
 15 16  1  0
 16 17  2  0
 17 18  1  0
 18 19  1  0
 19 20  1  0
 20 21  2  0
 21 22  1  0
 22 23  2  0
 23 24  1  0
 23 25  1  0
 25 26  2  0
 19 27  2  0
 13  3  1  0
 27 16  1  0
 10  5  1  0
 26 20  1  0
  1 28  1  0
  1 29  1  0
  1 30  1  0
  4 31  1  0
  6 32  1  0
  7 33  1  0
  8 34  1  0
  9 35  1  0
 15 36  1  0
 15 37  1  0
 17 38  1  0
 21 39  1  0
 22 40  1  0
 25 41  1  0
 26 42  1  0
 27 43  1  0
M  CHG  1  27   1
M  END
>  <UniqueID>  (8) 
6

>  <SMILES>  (8) 
COc1cc2ccccc2c(=O)n1OCc1coc(-c2ccc(F)cc2)[nH+]1

>  <Energy>  (8) 
87.28665605826794

>  <Genealogy>  (8) 
COc1cc2ccccc2c(=O)n1OCc1coc(-c2ccc(F)cc2)[nH+]1 (protonated)
COc1cc2ccccc2c(=O)n1OCc1coc(-c2ccc(F)cc2)[nH+]1 (3D coordinates assigned)
COc1cc2ccccc2c(=O)n1OCc1coc(-c2ccc(F)cc2)[nH+]1 (optimized conformer: 87.28665605826794 kcal/mol)

>  <smiles>  (8) 
COc1cc2ccccc2c(=O)n1OCc1coc(-c2ccc(F)cc2)n1

>  <score_type>  (8) 
oracle

>  <origin>  (8) 
adg

>  <m_score__min__energy>  (8) 
-6.0700000000000003

>  <m_primary>  (8) 
energy

$$$$
8:0
     RDKit          3D

 40 42  0  0  0  0  0  0  0  0999 V2000
   57.5390   33.0300   45.0850 C   0  0  0  0  0  0  0  0  0  0  0  0
   57.1830   31.7410   45.5720 O   0  0  0  0  0  0  0  0  0  0  0  0
   57.3710   30.5410   44.8660 C   0  0  0  0  0  0  0  0  0  0  0  0
   56.6120   30.2240   43.7210 C   0  0  0  0  0  0  0  0  0  0  0  0
   56.8170   29.0140   43.0530 C   0  0  0  0  0  0  0  0  0  0  0  0
   57.7760   28.1110   43.5120 C   0  0  0  0  0  0  0  0  0  0  0  0
   58.5350   28.4140   44.6440 C   0  0  0  0  0  0  0  0  0  0  0  0
   58.3370   29.6250   45.3260 C   0  0  0  0  0  0  0  0  0  0  0  0
   59.1450   29.9300   46.5260 C   0  0  0  0  0  0  0  0  0  0  0  0
   59.9940   31.0490   46.4930 C   0  0  0  0  0  0  0  0  0  0  0  0
   60.7820   31.3750   47.5970 C   0  0  0  0  0  0  0  0  0  0  0  0
   60.7350   30.5850   48.7450 C   0  0  0  0  0  0  0  0  0  0  0  0
   59.8920   29.4740   48.7970 C   0  0  0  0  0  0  0  0  0  0  0  0
   59.0720   29.1410   47.7030 C   0  0  0  0  0  0  0  0  0  0  0  0
   58.1490   27.9440   47.8230 C   0  0  0  0  0  0  0  0  0  0  0  0
   58.8460   26.6900   47.5390 N   0  0  0  0  0  0  0  0  0  0  0  0
   58.4400   25.6710   46.6140 C   0  0  0  0  0  0  0  0  0  0  0  0
   59.3320   24.9620   46.0760 O   0  0  0  0  0  0  0  0  0  0  0  0
   57.0260   25.4400   46.2560 C   0  0  0  0  0  0  0  0  0  0  0  0
   56.5840   24.1670   45.8750 C   0  0  0  0  0  0  0  0  0  0  0  0
   55.2440   23.9800   45.5440 C   0  0  0  0  0  0  0  0  0  0  0  0
   54.3710   25.0660   45.6120 C   0  0  0  0  0  0  0  0  0  0  0  0
   53.1550   24.9260   45.3170 O   0  0  0  0  0  0  0  0  0  0  0  0
   54.8410   26.2780   46.0010 N   0  0  0  0  0  0  0  0  0  0  0  0
   56.1250   26.4580   46.3150 N   0  0  0  0  0  0  0  0  0  0  0  0
   57.7252   33.7042   45.9340 H   0  0  0  0  0  0  0  0  0  0  0  0
   58.4492   32.9520   44.4723 H   0  0  0  0  0  0  0  0  0  0  0  0
   56.7178   33.4302   44.4723 H   0  0  0  0  0  0  0  0  0  0  0  0
   55.8554   30.9321   43.3520 H   0  0  0  0  0  0  0  0  0  0  0  0
   56.2197   28.7725   42.1615 H   0  0  0  0  0  0  0  0  0  0  0  0
   57.9343   27.1601   42.9821 H   0  0  0  0  0  0  0  0  0  0  0  0
   59.2915   27.7007   45.0031 H   0  0  0  0  0  0  0  0  0  0  0  0
   60.0377   31.6736   45.5886 H   0  0  0  0  0  0  0  0  0  0  0  0
   61.4405   32.2554   47.5619 H   0  0  0  0  0  0  0  0  0  0  0  0
   61.3637   30.8380   49.6115 H   0  0  0  0  0  0  0  0  0  0  0  0
   59.8683   28.8515   49.7036 H   0  0  0  0  0  0  0  0  0  0  0  0
   57.7482   27.9047   48.8466 H   0  0  0  0  0  0  0  0  0  0  0  0
   57.3407   28.0603   47.0861 H   0  0  0  0  0  0  0  0  0  0  0  0
   57.2883   23.3228   45.8375 H   0  0  0  0  0  0  0  0  0  0  0  0
   54.8792   22.9898   45.2333 H   0  0  0  0  0  0  0  0  0  0  0  0
  1  2  1  0
  2  3  1  0
  3  4  2  0
  4  5  1  0
  5  6  2  0
  6  7  1  0
  7  8  2  0
  8  9  1  0
  9 10  2  0
 10 11  1  0
 11 12  2  0
 12 13  1  0
 13 14  2  0
 14 15  1  0
 15 16  1  0
 16 17  1  0
 17 18  2  0
 17 19  1  0
 19 20  1  0
 20 21  2  0
 21 22  1  0
 22 23  2  0
 22 24  1  0
 24 25  1  0
  8  3  1  0
 14  9  1  0
 25 19  2  0
  1 26  1  0
  1 27  1  0
  1 28  1  0
  4 29  1  0
  5 30  1  0
  6 31  1  0
  7 32  1  0
 10 33  1  0
 11 34  1  0
 12 35  1  0
 13 36  1  0
 15 37  1  0
 15 38  1  0
 20 39  1  0
 21 40  1  0
M  CHG  2  16  -1  24  -1
M  END
>  <UniqueID>  (9) 
7

>  <SMILES>  (9) 
COc1ccccc1-c1ccccc1C[N-]C(=O)c1ccc(=O)[n-]n1

>  <Energy>  (9) 
51.24795952297458

>  <Genealogy>  (9) 
COc1ccccc1-c1ccccc1C[N-]C(=O)c1ccc(=O)[n-]n1 (protonated)
COc1ccccc1-c1ccccc1C[N-]C(=O)c1ccc(=O)[n-]n1 (3D coordinates assigned)
COc1ccccc1-c1ccccc1C[N-]C(=O)c1ccc(=O)[n-]n1 (optimized conformer: 51.24795952297458 kcal/mol)

>  <smiles>  (9) 
COc1ccccc1-c1ccccc1CNC(=O)c1ccc(=O)[nH]n1

>  <score_type>  (9) 
oracle

>  <origin>  (9) 
adg

>  <m_score__min__energy>  (9) 
-11.69

>  <m_primary>  (9) 
energy

$$$$
9:0
     RDKit          3D

 67 72  0  0  0  0  0  0  0  0999 V2000
   62.7640   33.2030   46.9120 C   0  0  0  0  0  0  0  0  0  0  0  0
   63.2410   32.9430   48.3040 C   0  0  0  0  0  0  0  0  0  0  0  0
   64.1480   32.0530   48.6220 O   0  0  0  0  0  0  0  0  0  0  0  0
   64.3000   32.1080   49.9290 C   0  0  0  0  0  0  0  0  0  0  0  0
   65.2290   31.2430   50.6840 C   0  0  0  0  0  0  0  0  0  0  0  0
   66.6060   31.5330   50.7210 C   0  0  0  0  0  0  0  0  0  0  0  0
   67.4800   30.7110   51.4390 C   0  0  0  0  0  0  0  0  0  0  0  0
   66.9910   29.5960   52.1250 C   0  0  0  0  0  0  0  0  0  0  0  0
   65.6260   29.3010   52.0960 C   0  0  0  0  0  0  0  0  0  0  0  0
   64.7470   30.1200   51.3790 C   0  0  0  0  0  0  0  0  0  0  0  0
   63.5010   33.0340   50.5080 N   0  0  0  0  0  0  0  0  0  0  0  0
   62.8270   33.5620   49.4670 C   0  0  0  0  0  0  0  0  0  0  0  0
   61.7590   34.6040   49.6160 C   0  0  0  0  0  0  0  0  0  0  0  0
   60.3690   34.0520   49.2760 C   0  0  0  0  0  0  0  0  0  0  0  0
   59.8580   34.6280   48.0730 O   0  0  0  0  0  0  0  0  0  0  0  0
   59.2930   33.9330   46.9910 C   0  0  0  0  0  0  0  0  0  0  0  0
   58.6020   32.7150   47.1380 C   0  0  0  0  0  0  0  0  0  0  0  0
   58.1050   32.0460   46.0170 C   0  0  0  0  0  0  0  0  0  0  0  0
   58.2350   32.6090   44.7340 C   0  0  0  0  0  0  0  0  0  0  0  0
   57.7460   31.9170   43.5190 C   0  0  0  0  0  0  0  0  0  0  0  0
   56.9780   30.8160   43.5020 C   0  0  0  0  0  0  0  0  0  0  0  0
   57.1860   29.6220   44.3530 C   0  0  0  0  0  0  0  0  0  0  0  0
   56.0800   28.9290   44.8550 C   0  0  0  0  0  0  0  0  0  0  0  0
   54.7860   29.3400   44.5460 O   0  0  0  0  0  0  0  0  0  0  0  0
   56.2670   27.8420   45.6390 N   0  0  0  0  0  0  0  0  0  0  0  0
   57.5090   27.4090   45.9740 C   0  0  0  0  0  0  0  0  0  0  0  0
   57.6200   26.3940   46.7140 O   0  0  0  0  0  0  0  0  0  0  0  0
   58.6200   28.0790   45.5270 N   0  0  0  0  0  0  0  0  0  0  0  0
   59.9680   27.6630   45.9600 C   0  0  0  0  0  0  0  0  0  0  0  0
   60.2820   28.2500   47.3000 C   0  0  0  0  0  0  0  0  0  0  0  0
   60.3870   29.6110   47.5780 C   0  0  0  0  0  0  0  0  0  0  0  0
   60.7210   29.6580   48.9120 C   0  0  0  0  0  0  0  0  0  0  0  0
   60.9690   30.7410   49.7520 C   0  0  0  0  0  0  0  0  0  0  0  0
   61.2950   30.4660   51.0930 C   0  0  0  0  0  0  0  0  0  0  0  0
   61.5450   31.4920   51.9480 F   0  0  0  0  0  0  0  0  0  0  0  0
   61.3650   29.1300   51.5540 C   0  0  0  0  0  0  0  0  0  0  0  0
   61.1120   28.0590   50.6770 C   0  0  0  0  0  0  0  0  0  0  0  0
   60.7930   28.3640   49.3550 C   0  0  0  0  0  0  0  0  0  0  0  0
   60.5300   27.5290   48.3790 O   0  0  0  0  0  0  0  0  0  0  0  0
   58.4710   29.1860   44.7280 C   0  0  0  0  0  0  0  0  0  0  0  0
   59.4860   29.8320   44.3430 O   0  0  0  0  0  0  0  0  0  0  0  0
   58.9160   33.8280   44.5930 C   0  0  0  0  0  0  0  0  0  0  0  0
   59.4310   34.4860   45.7130 C   0  0  0  0  0  0  0  0  0  0  0  0
   61.7987   33.7292   46.9475 H   0  0  0  0  0  0  0  0  0  0  0  0
   63.5009   33.8242   46.3819 H   0  0  0  0  0  0  0  0  0  0  0  0
   62.6413   32.2470   46.3819 H   0  0  0  0  0  0  0  0  0  0  0  0
   66.9959   32.4096   50.1830 H   0  0  0  0  0  0  0  0  0  0  0  0
   68.5551   30.9425   51.4639 H   0  0  0  0  0  0  0  0  0  0  0  0
   67.6812   28.9505   52.6880 H   0  0  0  0  0  0  0  0  0  0  0  0
   65.2418   28.4239   52.6374 H   0  0  0  0  0  0  0  0  0  0  0  0
   63.6728   29.8839   51.3590 H   0  0  0  0  0  0  0  0  0  0  0  0
   61.7546   34.9623   50.6560 H   0  0  0  0  0  0  0  0  0  0  0  0
   61.9813   35.4222   48.9152 H   0  0  0  0  0  0  0  0  0  0  0  0
   60.4385   32.9616   49.1490 H   0  0  0  0  0  0  0  0  0  0  0  0
   59.6851   34.3071   50.0989 H   0  0  0  0  0  0  0  0  0  0  0  0
   58.4528   32.2881   48.1407 H   0  0  0  0  0  0  0  0  0  0  0  0
   57.6084   31.0720   46.1381 H   0  0  0  0  0  0  0  0  0  0  0  0
   58.0372   32.3418   42.5470 H   0  0  0  0  0  0  0  0  0  0  0  0
   56.1293   30.7995   42.8024 H   0  0  0  0  0  0  0  0  0  0  0  0
   60.0065   26.5656   46.0255 H   0  0  0  0  0  0  0  0  0  0  0  0
   60.7074   28.0206   45.2283 H   0  0  0  0  0  0  0  0  0  0  0  0
   60.2372   30.4551   46.8887 H   0  0  0  0  0  0  0  0  0  0  0  0
   60.9120   31.7747   49.3803 H   0  0  0  0  0  0  0  0  0  0  0  0
   61.6189   28.9273   52.6049 H   0  0  0  0  0  0  0  0  0  0  0  0
   61.1642   27.0162   51.0232 H   0  0  0  0  0  0  0  0  0  0  0  0
   59.0453   34.2687   43.5935 H   0  0  0  0  0  0  0  0  0  0  0  0
   59.9499   35.4479   45.5889 H   0  0  0  0  0  0  0  0  0  0  0  0
  1  2  1  0
  2  3  1  0
  3  4  1  0
  4  5  1  0
  5  6  2  0
  6  7  1  0
  7  8  2  0
  8  9  1  0
  9 10  2  0
  4 11  2  0
 11 12  1  0
 12 13  1  0
 13 14  1  0
 14 15  1  0
 15 16  1  0
 16 17  2  0
 17 18  1  0
 18 19  2  0
 19 20  1  0
 20 21  2  3
 21 22  1  0
 22 23  2  0
 23 24  1  0
 23 25  1  0
 25 26  1  0
 26 27  2  0
 26 28  1  0
 28 29  1  0
 29 30  1  0
 30 31  2  0
 31 32  1  0
 32 33  2  0
 33 34  1  0
 34 35  1  0
 34 36  2  0
 36 37  1  0
 37 38  2  0
 38 39  1  0
 28 40  1  0
 40 41  2  0
 19 42  1  0
 42 43  2  0
 12  2  2  0
 43 16  1  0
 10  5  1  0
 40 22  1  0
 39 30  1  0
 38 32  1  0
  1 44  1  0
  1 45  1  0
  1 46  1  0
  6 47  1  0
  7 48  1  0
  8 49  1  0
  9 50  1  0
 10 51  1  0
 13 52  1  0
 13 53  1  0
 14 54  1  0
 14 55  1  0
 17 56  1  0
 18 57  1  0
 20 58  1  0
 21 59  1  0
 29 60  1  0
 29 61  1  0
 31 62  1  0
 33 63  1  0
 36 64  1  0
 37 65  1  0
 42 66  1  0
 43 67  1  0
M  CHG  2  24  -1  25  -1
M  END
>  <UniqueID>  (10) 
8

>  <SMILES>  (10) 
Cc1oc(-c2ccccc2)nc1CCOc1ccc(C=Cc2c([O-])[n-]c(=O)n(Cc3cc4cc(F)ccc4o3)c2=O)cc1

>  <Energy>  (10) 
148.89511960214494

>  <Genealogy>  (10) 
Cc1oc(-c2ccccc2)nc1CCOc1ccc(C=Cc2c([O-])[n-]c(=O)n(Cc3cc4cc(F)ccc4o3)c2=O)cc1 (protonated)
Cc1oc(-c2ccccc2)nc1CCOc1ccc(C=Cc2c([O-])[n-]c(=O)n(Cc3cc4cc(F)ccc4o3)c2=O)cc1 (3D coordinates assigned)
Cc1oc(-c2ccccc2)nc1CCOc1ccc(C=Cc2c([O-])[n-]c(=O)n(Cc3cc4cc(F)ccc4o3)c2=O)cc1 (optimized conformer: 148.89511960214494 kcal/mol)

>  <smiles>  (10) 
Cc1oc(-c2ccccc2)nc1CCOc1ccc(C=Cc2c(O)[nH]c(=O)n(Cc3cc4cc(F)ccc4o3)c2=O)cc1

>  <score_type>  (10) 
oracle

>  <origin>  (10) 
adg

>  <m_score__min__energy>  (10) 
-15.119999999999999

>  <m_primary>  (10) 
energy

$$$$
10:0
     RDKit          3D

 83 87  0  0  0  0  0  0  0  0999 V2000
   63.8670   33.9770   47.9240 O   0  0  0  0  0  0  0  0  0  0  0  0
   62.9050   33.2430   48.2920 C   0  0  0  0  0  0  0  0  0  0  0  0
   61.5980   33.2710   47.5450 C   0  0  0  0  0  0  0  0  0  0  0  0
   60.8600   31.9620   47.6550 C   0  0  0  0  0  0  0  0  0  0  0  0
   59.7230   31.8570   48.4730 C   0  0  0  0  0  0  0  0  0  0  0  0
   59.0670   30.6310   48.6200 C   0  0  0  0  0  0  0  0  0  0  0  0
   59.5510   29.4870   47.9730 C   0  0  0  0  0  0  0  0  0  0  0  0
   58.8510   28.2450   48.1350 N   0  0  0  0  0  0  0  0  0  0  0  0
   59.3810   26.9250   47.9440 C   0  0  0  0  0  0  0  0  0  0  0  0
   60.2640   26.5100   48.7450 O   0  0  0  0  0  0  0  0  0  0  0  0
   58.9950   26.0670   46.7550 C   0  0  0  0  0  0  0  0  0  0  0  0
   57.4710   25.8120   46.7280 C   0  0  0  0  0  0  0  0  0  0  0  0
   56.6700   27.0650   46.3320 C   0  0  0  0  0  0  0  0  0  0  0  0
   57.3480   27.8300   45.2770 N   0  0  0  0  0  0  0  0  0  0  0  0
   56.8080   29.0960   44.8710 C   0  0  0  0  0  0  0  0  0  0  0  0
   55.5680   29.2160   44.6910 O   0  0  0  0  0  0  0  0  0  0  0  0
   57.7080   30.2820   44.6590 C   0  0  0  0  0  0  0  0  0  0  0  0
   56.9140   31.5950   44.5680 C   0  0  0  0  0  0  0  0  0  0  0  0
   57.6760   32.7650   45.1400 C   0  0  0  0  0  0  0  0  0  0  0  0
   58.5630   33.4940   44.3310 C   0  0  0  0  0  0  0  0  0  0  0  0
   59.2760   34.5740   44.8580 C   0  0  0  0  0  0  0  0  0  0  0  0
   59.1010   34.9380   46.1960 C   0  0  0  0  0  0  0  0  0  0  0  0
   58.2070   34.2260   47.0050 C   0  0  0  0  0  0  0  0  0  0  0  0
   57.4990   33.1420   46.4810 C   0  0  0  0  0  0  0  0  0  0  0  0
   58.4180   27.1930   44.4990 C   0  0  0  0  0  0  0  0  0  0  0  0
   59.5270   26.6740   45.4270 C   0  0  0  0  0  0  0  0  0  0  0  0
   60.6740   29.5950   47.1320 C   0  0  0  0  0  0  0  0  0  0  0  0
   61.3350   30.8190   46.9900 C   0  0  0  0  0  0  0  0  0  0  0  0
   63.0840   32.3000   49.3590 N   0  0  0  0  0  0  0  0  0  0  0  0
   64.2720   32.2450   50.1660 C   0  0  0  0  0  0  0  0  0  0  0  0
   65.4870   32.7670   49.6850 C   0  0  0  0  0  0  0  0  0  0  0  0
   66.6400   32.7140   50.4750 C   0  0  0  0  0  0  0  0  0  0  0  0
   66.5910   32.1510   51.7510 C   0  0  0  0  0  0  0  0  0  0  0  0
   65.3860   31.6480   52.2470 C   0  0  0  0  0  0  0  0  0  0  0  0
   64.2190   31.6850   51.4570 C   0  0  0  0  0  0  0  0  0  0  0  0
   62.9590   31.2120   51.9630 N   0  0  0  0  0  0  0  0  0  0  0  0
   62.0510   30.3200   51.3030 C   0  0  0  0  0  0  0  0  0  0  0  0
   60.9480   30.7460   50.8580 O   0  0  0  0  0  0  0  0  0  0  0  0
   62.4430   28.8730   51.1480 C   0  0  1  0  0  0  0  0  0  0  0  0
   63.3680   28.3700   52.2990 C   0  0  0  0  0  0  0  0  0  0  0  0
   62.5560   27.6470   53.3820 C   0  0  0  0  0  0  0  0  0  0  0  0
   61.7730   26.4580   52.7920 C   0  0  0  0  0  0  0  0  0  0  0  0
   61.4440   26.6550   51.3060 C   0  0  0  0  0  0  0  0  0  0  0  0
   61.2030   28.0740   51.0280 N   0  0  0  0  0  0  0  0  0  0  0  0
   60.9676   34.0707   47.9610 H   0  0  0  0  0  0  0  0  0  0  0  0
   61.8166   33.4509   46.4821 H   0  0  0  0  0  0  0  0  0  0  0  0
   59.3462   32.7451   49.0014 H   0  0  0  0  0  0  0  0  0  0  0  0
   58.1658   30.5646   49.2473 H   0  0  0  0  0  0  0  0  0  0  0  0
   59.4780   25.0848   46.8640 H   0  0  0  0  0  0  0  0  0  0  0  0
   57.2598   25.0141   46.0009 H   0  0  0  0  0  0  0  0  0  0  0  0
   57.1623   25.5257   47.7442 H   0  0  0  0  0  0  0  0  0  0  0  0
   55.6795   26.7549   45.9675 H   0  0  0  0  0  0  0  0  0  0  0  0
   56.5786   27.7091   47.2190 H   0  0  0  0  0  0  0  0  0  0  0  0
   58.4117   30.3496   45.5018 H   0  0  0  0  0  0  0  0  0  0  0  0
   58.2413   30.1395   43.7076 H   0  0  0  0  0  0  0  0  0  0  0  0
   56.6907   31.8009   43.5108 H   0  0  0  0  0  0  0  0  0  0  0  0
   55.9927   31.4730   45.1565 H   0  0  0  0  0  0  0  0  0  0  0  0
   58.6972   33.2130   43.2760 H   0  0  0  0  0  0  0  0  0  0  0  0
   59.9740   35.1369   44.2208 H   0  0  0  0  0  0  0  0  0  0  0  0
   59.6659   35.7843   46.6138 H   0  0  0  0  0  0  0  0  0  0  0  0
   58.0621   34.5208   48.0548 H   0  0  0  0  0  0  0  0  0  0  0  0
   56.8008   32.5821   47.1206 H   0  0  0  0  0  0  0  0  0  0  0  0
   57.9986   26.3499   43.9305 H   0  0  0  0  0  0  0  0  0  0  0  0
   58.8491   27.9376   43.8137 H   0  0  0  0  0  0  0  0  0  0  0  0
   60.0928   25.8971   44.8918 H   0  0  0  0  0  0  0  0  0  0  0  0
   60.1528   27.5379   45.6956 H   0  0  0  0  0  0  0  0  0  0  0  0
   61.0337   28.7120   46.5835 H   0  0  0  0  0  0  0  0  0  0  0  0
   62.2306   30.8874   46.3550 H   0  0  0  0  0  0  0  0  0  0  0  0
   62.3610   31.5520   49.4820 H   0  0  0  0  0  0  0  0  0  0  0  0
   65.5302   33.2188   48.6830 H   0  0  0  0  0  0  0  0  0  0  0  0
   67.5880   33.1172   50.0895 H   0  0  0  0  0  0  0  0  0  0  0  0
   67.5016   32.1033   52.3663 H   0  0  0  0  0  0  0  0  0  0  0  0
   65.3474   31.2206   53.2598 H   0  0  0  0  0  0  0  0  0  0  0  0
   63.0485   28.7558   50.2372 H   0  0  0  0  0  0  0  0  0  0  0  0
   64.1129   27.6750   51.8840 H   0  0  0  0  0  0  0  0  0  0  0  0
   63.8638   29.2396   52.7551 H   0  0  0  0  0  0  0  0  0  0  0  0
   63.2426   27.2752   54.1568 H   0  0  0  0  0  0  0  0  0  0  0  0
   61.8359   28.3595   53.8108 H   0  0  0  0  0  0  0  0  0  0  0  0
   62.3787   25.5464   52.9021 H   0  0  0  0  0  0  0  0  0  0  0  0
   60.8219   26.3778   53.3387 H   0  0  0  0  0  0  0  0  0  0  0  0
   62.2893   26.3031   50.6963 H   0  0  0  0  0  0  0  0  0  0  0  0
   60.5393   26.0805   51.0580 H   0  0  0  0  0  0  0  0  0  0  0  0
   60.8560   28.1550   50.0420 H   0  0  0  0  0  0  0  0  0  0  0  0
  1  2  2  0
  2  3  1  0
  3  4  1  0
  4  5  2  0
  5  6  1  0
  6  7  2  0
  7  8  1  0
  8  9  1  0
  9 10  2  0
  9 11  1  0
 11 12  1  0
 12 13  1  0
 13 14  1  0
 14 15  1  0
 15 16  2  0
 15 17  1  0
 17 18  1  0
 18 19  1  0
 19 20  2  0
 20 21  1  0
 21 22  2  0
 22 23  1  0
 23 24  2  0
 14 25  1  0
 25 26  1  0
  7 27  1  0
 27 28  2  0
  2 29  1  0
 29 30  1  0
 30 31  2  0
 31 32  1  0
 32 33  2  0
 33 34  1  0
 34 35  2  0
 35 36  1  0
 36 37  1  0
 37 38  2  0
 37 39  1  0
 39 40  1  0
 40 41  1  0
 41 42  1  0
 42 43  1  0
 43 44  1  0
 28  4  1  0
 35 30  1  0
 44 39  1  0
 26 11  1  0
 24 19  1  0
  3 45  1  0
  3 46  1  0
  5 47  1  0
  6 48  1  0
 11 49  1  0
 12 50  1  0
 12 51  1  0
 13 52  1  0
 13 53  1  0
 17 54  1  0
 17 55  1  0
 18 56  1  0
 18 57  1  0
 20 58  1  0
 21 59  1  0
 22 60  1  0
 23 61  1  0
 24 62  1  0
 25 63  1  0
 25 64  1  0
 26 65  1  0
 26 66  1  0
 27 67  1  0
 28 68  1  0
 29 69  1  0
 31 70  1  0
 32 71  1  0
 33 72  1  0
 34 73  1  0
 39 74  1  6
 40 75  1  0
 40 76  1  0
 41 77  1  0
 41 78  1  0
 42 79  1  0
 42 80  1  0
 43 81  1  0
 43 82  1  0
 44 83  1  0
M  CHG  2   8  -1  36  -1
M  END
>  <UniqueID>  (11) 
9

>  <SMILES>  (11) 
O=C(Cc1ccc([N-]C(=O)C2CCN(C(=O)CCc3ccccc3)CC2)cc1)Nc1ccccc1[N-]C(=O)[C@H]1CCCCN1

>  <Energy>  (11) 
107.82851640817884

>  <Genealogy>  (11) 
O=C(Cc1ccc([N-]C(=O)C2CCN(C(=O)CCc3ccccc3)CC2)cc1)Nc1ccccc1[N-]C(=O)C1CCCCN1 (protonated)
O=C(Cc1ccc([N-]C(=O)C2CCN(C(=O)CCc3ccccc3)CC2)cc1)Nc1ccccc1[N-]C(=O)[C@H]1CCCCN1 (chirality)
O=C(Cc1ccc([N-]C(=O)C2CCN(C(=O)CCc3ccccc3)CC2)cc1)Nc1ccccc1[N-]C(=O)[C@H]1CCCCN1 (3D coordinates assigned)
O=C(Cc1ccc([N-]C(=O)C2CCN(C(=O)CCc3ccccc3)CC2)cc1)Nc1ccccc1[N-]C(=O)[C@H]1CCCCN1 (nonaromatic ring conformer: 107.82851640817884 kcal/mol)

>  <smiles>  (11) 
O=C(Cc1ccc(NC(=O)C2CCN(C(=O)CCc3ccccc3)CC2)cc1)Nc1ccccc1NC(=O)C1CCCCN1

>  <score_type>  (11) 
oracle

>  <origin>  (11) 
adg

>  <m_score__min__energy>  (11) 
-13.789999999999999

>  <m_primary>  (11) 
energy

$$$$
11:0
     RDKit          3D

 48 50  0  0  0  0  0  0  0  0999 V2000
   60.0930   27.0970   48.8330 O   0  0  0  0  0  0  0  0  0  0  0  0
   60.3350   28.3130   49.0630 C   0  0  0  0  0  0  0  0  0  0  0  0
   61.0230   28.6960   50.3390 C   0  0  0  0  0  0  0  0  0  0  0  0
   61.0380   30.1550   50.5080 N   0  0  0  0  0  0  0  0  0  0  0  0
   62.4010   30.7120   50.5790 C   0  0  0  0  0  0  0  0  0  0  0  0
   62.7170   31.6130   49.4090 C   0  0  0  0  0  0  0  0  0  0  0  0
   63.7610   32.5510   49.4920 C   0  0  0  0  0  0  0  0  0  0  0  0
   64.0570   33.3770   48.4020 C   0  0  0  0  0  0  0  0  0  0  0  0
   63.3130   33.2700   47.2230 C   0  0  0  0  0  0  0  0  0  0  0  0
   62.2760   32.3390   47.1300 C   0  0  0  0  0  0  0  0  0  0  0  0
   61.9760   31.5120   48.2190 C   0  0  0  0  0  0  0  0  0  0  0  0
   59.8990   29.3330   48.1510 N   0  0  0  0  0  0  0  0  0  0  0  0
   59.4540   29.0770   46.8070 C   0  0  0  0  0  0  0  0  0  0  0  0
   60.1530   28.1530   46.0170 C   0  0  0  0  0  0  0  0  0  0  0  0
   59.7210   27.8600   44.7220 C   0  0  0  0  0  0  0  0  0  0  0  0
   58.5720   28.4690   44.2110 C   0  0  0  0  0  0  0  0  0  0  0  0
   57.8510   29.3790   44.9940 C   0  0  0  0  0  0  0  0  0  0  0  0
   56.3820   30.1050   44.3480 S   0  0  0  0  0  0  0  0  0  0  0  0
   56.3630   30.0440   42.8450 O   0  0  0  0  0  0  0  0  0  0  0  0
   55.1960   29.3480   44.8750 O   0  0  0  0  0  0  0  0  0  0  0  0
   56.2740   31.7580   44.8600 N   0  0  0  0  0  0  0  0  0  0  0  0
   57.3840   32.5840   45.2410 C   0  0  0  0  0  0  0  0  0  0  0  0
   58.0850   33.2700   44.2400 C   0  0  0  0  0  0  0  0  0  0  0  0
   59.1630   34.0950   44.5690 C   0  0  0  0  0  0  0  0  0  0  0  0
   59.5530   34.2400   45.9030 C   0  0  0  0  0  0  0  0  0  0  0  0
   58.8620   33.5600   46.9100 C   0  0  0  0  0  0  0  0  0  0  0  0
   59.3350   33.7600   48.5860 Cl  0  0  0  0  0  0  0  0  0  0  0  0
   57.7820   32.7320   46.5840 C   0  0  0  0  0  0  0  0  0  0  0  0
   58.2920   29.6810   46.2910 C   0  0  0  0  0  0  0  0  0  0  0  0
   60.4898   28.2406   51.1865 H   0  0  0  0  0  0  0  0  0  0  0  0
   62.0616   28.3356   50.3006 H   0  0  0  0  0  0  0  0  0  0  0  0
   60.5320   30.5870   49.7000 H   0  0  0  0  0  0  0  0  0  0  0  0
   62.4971   31.2929   51.5081 H   0  0  0  0  0  0  0  0  0  0  0  0
   63.1087   29.8703   50.5545 H   0  0  0  0  0  0  0  0  0  0  0  0
   64.3480   32.6360   50.4184 H   0  0  0  0  0  0  0  0  0  0  0  0
   64.8743   34.1099   48.4726 H   0  0  0  0  0  0  0  0  0  0  0  0
   63.5449   33.9205   46.3668 H   0  0  0  0  0  0  0  0  0  0  0  0
   61.6944   32.2555   46.2001 H   0  0  0  0  0  0  0  0  0  0  0  0
   61.1577   30.7808   48.1431 H   0  0  0  0  0  0  0  0  0  0  0  0
   59.8520   30.3140   48.5080 H   0  0  0  0  0  0  0  0  0  0  0  0
   61.0475   27.6558   46.4202 H   0  0  0  0  0  0  0  0  0  0  0  0
   60.2865   27.1482   44.1027 H   0  0  0  0  0  0  0  0  0  0  0  0
   58.2330   28.2331   43.1915 H   0  0  0  0  0  0  0  0  0  0  0  0
   57.7842   33.1580   43.1879 H   0  0  0  0  0  0  0  0  0  0  0  0
   59.7058   34.6314   43.7768 H   0  0  0  0  0  0  0  0  0  0  0  0
   60.4032   34.8888   46.1605 H   0  0  0  0  0  0  0  0  0  0  0  0
   57.2426   32.1954   47.3785 H   0  0  0  0  0  0  0  0  0  0  0  0
   57.7263   30.3942   46.9085 H   0  0  0  0  0  0  0  0  0  0  0  0
  1  2  2  0
  2  3  1  0
  3  4  1  0
  4  5  1  0
  5  6  1  0
  6  7  2  0
  7  8  1  0
  8  9  2  0
  9 10  1  0
 10 11  2  0
  2 12  1  0
 12 13  1  0
 13 14  2  0
 14 15  1  0
 15 16  2  0
 16 17  1  0
 17 18  1  0
 18 19  2  0
 18 20  2  0
 18 21  1  0
 21 22  1  0
 22 23  2  0
 23 24  1  0
 24 25  2  0
 25 26  1  0
 26 27  1  0
 26 28  2  0
 17 29  2  0
 11  6  1  0
 29 13  1  0
 28 22  1  0
  3 30  1  0
  3 31  1  0
  4 32  1  0
  5 33  1  0
  5 34  1  0
  7 35  1  0
  8 36  1  0
  9 37  1  0
 10 38  1  0
 11 39  1  0
 12 40  1  0
 14 41  1  0
 15 42  1  0
 16 43  1  0
 23 44  1  0
 24 45  1  0
 25 46  1  0
 28 47  1  0
 29 48  1  0
M  CHG  1  21  -1
M  END
>  <UniqueID>  (12) 
10

>  <SMILES>  (12) 
O=C(CNCc1ccccc1)Nc1cccc(S(=O)(=O)[N-]c2cccc(Cl)c2)c1

>  <Energy>  (12) 
55.79760673638091

>  <Genealogy>  (12) 
O=C(CNCc1ccccc1)Nc1cccc(S(=O)(=O)[N-]c2cccc(Cl)c2)c1 (protonated)
O=C(CNCc1ccccc1)Nc1cccc(S(=O)(=O)[N-]c2cccc(Cl)c2)c1 (3D coordinates assigned)
O=C(CNCc1ccccc1)Nc1cccc(S(=O)(=O)[N-]c2cccc(Cl)c2)c1 (optimized conformer: 55.79760673638091 kcal/mol)

>  <smiles>  (12) 
O=C(CNCc1ccccc1)Nc1cccc(S(=O)(=O)Nc2cccc(Cl)c2)c1

>  <score_type>  (12) 
oracle

>  <origin>  (12) 
adg

>  <m_score__min__energy>  (12) 
-10.609999999999999

>  <m_primary>  (12) 
energy

$$$$
12:0
     RDKit          3D

 54 56  0  0  0  0  0  0  0  0999 V2000
   55.5330   30.1550   44.4830 N   0  0  0  0  0  0  0  0  0  0  0  0
   56.6790   30.2090   44.3250 C   0  0  0  0  0  0  0  0  0  0  0  0
   58.1310   30.2760   44.1210 C   0  0  0  0  0  0  0  0  0  0  0  0
   58.7660   28.8810   44.1210 C   0  0  0  0  0  0  0  0  0  0  0  0
   58.9650   28.3910   45.4950 N   0  0  0  0  0  0  0  0  0  0  0  0
   60.1050   28.8770   46.2820 C   0  0  0  0  0  0  0  0  0  0  0  0
   59.6610   29.9660   47.2200 C   0  0  0  0  0  0  0  0  0  0  0  0
   59.2710   29.6510   48.5320 C   0  0  0  0  0  0  0  0  0  0  0  0
   58.8790   30.6650   49.4120 C   0  0  0  0  0  0  0  0  0  0  0  0
   58.8790   31.9980   48.9910 C   0  0  0  0  0  0  0  0  0  0  0  0
   59.2760   32.3200   47.6890 C   0  0  0  0  0  0  0  0  0  0  0  0
   59.6690   31.3090   46.8060 C   0  0  0  0  0  0  0  0  0  0  0  0
   58.1170   27.3600   46.0330 C   0  0  0  0  0  0  0  0  0  0  0  0
   58.6560   26.3710   46.8670 C   0  0  0  0  0  0  0  0  0  0  0  0
   57.8380   25.3730   47.4020 C   0  0  0  0  0  0  0  0  0  0  0  0
   56.4600   25.3520   47.1080 C   0  0  0  0  0  0  0  0  0  0  0  0
   55.5990   24.3700   47.6260 O   0  0  0  0  0  0  0  0  0  0  0  0
   55.2910   23.1440   46.9670 C   0  0  0  0  0  0  0  0  0  0  0  0
   55.9910   22.0140   47.6480 C   0  0  0  0  0  0  0  0  0  0  0  0
   55.3890   21.3570   48.5420 O   0  0  0  0  0  0  0  0  0  0  0  0
   57.3260   21.7330   47.3300 O   0  0  0  0  0  0  0  0  0  0  0  0
   57.7420   21.2420   46.0560 C   0  0  0  0  0  0  0  0  0  0  0  0
   57.3960   22.2320   44.9770 C   0  0  0  0  0  0  0  0  0  0  0  0
   58.0230   23.4870   44.9270 C   0  0  0  0  0  0  0  0  0  0  0  0
   57.6720   24.4110   43.9380 C   0  0  0  0  0  0  0  0  0  0  0  0
   56.6920   24.0890   42.9940 C   0  0  0  0  0  0  0  0  0  0  0  0
   56.0590   22.8440   43.0420 C   0  0  0  0  0  0  0  0  0  0  0  0
   56.4050   21.9180   44.0310 C   0  0  0  0  0  0  0  0  0  0  0  0
   55.9240   26.3400   46.2710 C   0  0  0  0  0  0  0  0  0  0  0  0
   54.5690   26.3290   45.9630 O   0  0  0  0  0  0  0  0  0  0  0  0
   56.7470   27.3370   45.7360 C   0  0  0  0  0  0  0  0  0  0  0  0
   58.3337   30.7604   43.1544 H   0  0  0  0  0  0  0  0  0  0  0  0
   58.5684   30.8530   44.9491 H   0  0  0  0  0  0  0  0  0  0  0  0
   58.1052   28.1852   43.5833 H   0  0  0  0  0  0  0  0  0  0  0  0
   59.7463   28.9426   43.6258 H   0  0  0  0  0  0  0  0  0  0  0  0
   60.5257   28.0444   46.8648 H   0  0  0  0  0  0  0  0  0  0  0  0
   60.8675   29.2798   45.5991 H   0  0  0  0  0  0  0  0  0  0  0  0
   59.2739   28.6037   48.8685 H   0  0  0  0  0  0  0  0  0  0  0  0
   58.5701   30.4131   50.4373 H   0  0  0  0  0  0  0  0  0  0  0  0
   58.5668   32.7936   49.6835 H   0  0  0  0  0  0  0  0  0  0  0  0
   59.2791   33.3694   47.3592 H   0  0  0  0  0  0  0  0  0  0  0  0
   59.9853   31.5659   45.7843 H   0  0  0  0  0  0  0  0  0  0  0  0
   59.7306   26.3807   47.1019 H   0  0  0  0  0  0  0  0  0  0  0  0
   58.2710   24.6009   48.0550 H   0  0  0  0  0  0  0  0  0  0  0  0
   54.2047   22.9741   47.0007 H   0  0  0  0  0  0  0  0  0  0  0  0
   55.6249   23.2003   45.9204 H   0  0  0  0  0  0  0  0  0  0  0  0
   58.8302   21.0820   46.0664 H   0  0  0  0  0  0  0  0  0  0  0  0
   57.2238   20.2935   45.8512 H   0  0  0  0  0  0  0  0  0  0  0  0
   58.7934   23.7445   45.6687 H   0  0  0  0  0  0  0  0  0  0  0  0
   58.1674   25.3925   43.9025 H   0  0  0  0  0  0  0  0  0  0  0  0
   56.4195   24.8152   42.2141 H   0  0  0  0  0  0  0  0  0  0  0  0
   55.2869   22.5919   42.3002 H   0  0  0  0  0  0  0  0  0  0  0  0
   55.9003   20.9413   44.0687 H   0  0  0  0  0  0  0  0  0  0  0  0
   56.3168   28.1070   45.0787 H   0  0  0  0  0  0  0  0  0  0  0  0
  1  2  3  0
  2  3  1  0
  3  4  1  0
  4  5  1  0
  5  6  1  0
  6  7  1  0
  7  8  2  0
  8  9  1  0
  9 10  2  0
 10 11  1  0
 11 12  2  0
  5 13  1  0
 13 14  2  0
 14 15  1  0
 15 16  2  0
 16 17  1  0
 17 18  1  0
 18 19  1  0
 19 20  2  0
 19 21  1  0
 21 22  1  0
 22 23  1  0
 23 24  2  0
 24 25  1  0
 25 26  2  0
 26 27  1  0
 27 28  2  0
 16 29  1  0
 29 30  1  0
 29 31  2  0
 12  7  1  0
 31 13  1  0
 28 23  1  0
  3 32  1  0
  3 33  1  0
  4 34  1  0
  4 35  1  0
  6 36  1  0
  6 37  1  0
  8 38  1  0
  9 39  1  0
 10 40  1  0
 11 41  1  0
 12 42  1  0
 14 43  1  0
 15 44  1  0
 18 45  1  0
 18 46  1  0
 22 47  1  0
 22 48  1  0
 24 49  1  0
 25 50  1  0
 26 51  1  0
 27 52  1  0
 28 53  1  0
 31 54  1  0
M  CHG  1  30  -1
M  END
>  <UniqueID>  (13) 
11

>  <SMILES>  (13) 
N#CCCN(Cc1ccccc1)c1ccc(OCC(=O)OCc2ccccc2)c([O-])c1

>  <Energy>  (13) 
52.056707975582256

>  <Genealogy>  (13) 
N#CCCN(Cc1ccccc1)c1ccc(OCC(=O)OCc2ccccc2)c([O-])c1 (protonated)
N#CCCN(Cc1ccccc1)c1ccc(OCC(=O)OCc2ccccc2)c([O-])c1 (3D coordinates assigned)
N#CCCN(Cc1ccccc1)c1ccc(OCC(=O)OCc2ccccc2)c([O-])c1 (optimized conformer: 52.056707975582256 kcal/mol)

>  <smiles>  (13) 
N#CCCN(Cc1ccccc1)c1ccc(OCC(=O)OCc2ccccc2)c(O)c1

>  <score_type>  (13) 
oracle

>  <origin>  (13) 
adg

>  <m_score__min__energy>  (13) 
-11.949999999999999

>  <m_primary>  (13) 
energy

$$$$
13:0
     RDKit          3D

 37 39  0  0  0  0  0  0  0  0999 V2000
   54.3560   24.9580   45.3000 O   0  0  0  0  0  0  0  0  0  0  0  0
   55.4590   25.3720   45.7410 C   0  0  0  0  0  0  0  0  0  0  0  0
   56.5450   24.3750   46.0530 C   0  0  0  0  0  0  0  0  0  0  0  0
   56.8110   23.4930   44.9150 N   0  0  0  0  0  0  0  0  0  0  0  0
   57.6840   22.4670   44.9020 C   0  0  0  0  0  0  0  0  0  0  0  0
   57.5970   21.8310   43.6780 C   0  0  0  0  0  0  0  0  0  0  0  0
   56.6220   22.5240   42.9850 C   0  0  0  0  0  0  0  0  0  0  0  0
   56.1580   23.5170   43.7630 N   0  0  0  0  0  0  0  0  0  0  0  0
   55.6050   26.7720   46.0240 N   0  0  0  0  0  0  0  0  0  0  0  0
   56.6150   27.6430   45.4990 C   0  0  0  0  0  0  0  0  0  0  0  0
   57.9140   27.1530   45.3210 C   0  0  0  0  0  0  0  0  0  0  0  0
   58.9190   27.9870   44.8210 C   0  0  0  0  0  0  0  0  0  0  0  0
   58.6350   29.3210   44.5160 C   0  0  0  0  0  0  0  0  0  0  0  0
   57.3530   29.8400   44.7320 C   0  0  0  0  0  0  0  0  0  0  0  0
   57.1050   31.1810   44.3980 O   0  0  0  0  0  0  0  0  0  0  0  0
   57.7150   32.2960   44.9910 C   0  0  0  0  0  0  0  0  0  0  0  0
   58.1000   32.2180   46.3360 C   0  0  0  0  0  0  0  0  0  0  0  0
   58.7090   33.3110   46.9600 C   0  0  0  0  0  0  0  0  0  0  0  0
   58.9280   34.4930   46.2470 C   0  0  0  0  0  0  0  0  0  0  0  0
   58.5220   34.5880   44.9130 C   0  0  0  0  0  0  0  0  0  0  0  0
   57.9090   33.4990   44.2880 C   0  0  0  0  0  0  0  0  0  0  0  0
   56.3450   28.9930   45.2300 C   0  0  0  0  0  0  0  0  0  0  0  0
   57.4670   24.9191   46.3059 H   0  0  0  0  0  0  0  0  0  0  0  0
   56.2101   23.7549   46.8976 H   0  0  0  0  0  0  0  0  0  0  0  0
   58.3537   22.1831   45.7271 H   0  0  0  0  0  0  0  0  0  0  0  0
   58.1769   20.9630   43.3311 H   0  0  0  0  0  0  0  0  0  0  0  0
   56.2815   22.2994   41.9634 H   0  0  0  0  0  0  0  0  0  0  0  0
   55.3970   24.1870   43.5120 H   0  0  0  0  0  0  0  0  0  0  0  0
   58.1452   26.1081   45.5753 H   0  0  0  0  0  0  0  0  0  0  0  0
   59.9343   27.5926   44.6676 H   0  0  0  0  0  0  0  0  0  0  0  0
   59.4239   29.9672   44.1036 H   0  0  0  0  0  0  0  0  0  0  0  0
   57.9223   31.2926   46.9036 H   0  0  0  0  0  0  0  0  0  0  0  0
   59.0163   33.2405   48.0139 H   0  0  0  0  0  0  0  0  0  0  0  0
   59.4193   35.3475   46.7352 H   0  0  0  0  0  0  0  0  0  0  0  0
   58.6853   35.5214   44.3543 H   0  0  0  0  0  0  0  0  0  0  0  0
   57.5770   33.5826   43.2426 H   0  0  0  0  0  0  0  0  0  0  0  0
   55.3364   29.3934   45.4099 H   0  0  0  0  0  0  0  0  0  0  0  0
  1  2  2  0
  2  3  1  0
  3  4  1  0
  4  5  1  0
  5  6  2  0
  6  7  1  0
  7  8  2  0
  2  9  1  0
  9 10  1  0
 10 11  2  0
 11 12  1  0
 12 13  2  0
 13 14  1  0
 14 15  1  0
 15 16  1  0
 16 17  2  0
 17 18  1  0
 18 19  2  0
 19 20  1  0
 20 21  2  0
 14 22  2  0
  8  4  1  0
 22 10  1  0
 21 16  1  0
  3 23  1  0
  3 24  1  0
  5 25  1  0
  6 26  1  0
  7 27  1  0
  8 28  1  0
 11 29  1  0
 12 30  1  0
 13 31  1  0
 17 32  1  0
 18 33  1  0
 19 34  1  0
 20 35  1  0
 21 36  1  0
 22 37  1  0
M  CHG  2   8   1   9  -1
M  END
>  <UniqueID>  (14) 
12

>  <SMILES>  (14) 
O=C(Cn1ccc[nH+]1)[N-]c1cccc(Oc2ccccc2)c1

>  <Energy>  (14) 
76.89852025424584

>  <Genealogy>  (14) 
O=C(Cn1ccc[nH+]1)[N-]c1cccc(Oc2ccccc2)c1 (protonated)
O=C(Cn1ccc[nH+]1)[N-]c1cccc(Oc2ccccc2)c1 (3D coordinates assigned)
O=C(Cn1ccc[nH+]1)[N-]c1cccc(Oc2ccccc2)c1 (optimized conformer: 76.89852025424584 kcal/mol)

>  <smiles>  (14) 
O=C(Cn1cccn1)Nc1cccc(Oc2ccccc2)c1

>  <score_type>  (14) 
oracle

>  <origin>  (14) 
adg

>  <m_score__min__energy>  (14) 
-7.8399999999999999

>  <m_primary>  (14) 
energy

$$$$
14:0
     RDKit          3D

 37 39  0  0  0  0  0  0  0  0999 V2000
   56.1386   22.2509   45.6947 H   0  0  0  0  0  0  0  0  0  0  0  0
   55.2460   22.8280   45.9780 C   0  0  0  0  0  0  0  0  0  0  0  0
   53.9180   22.2760   45.6700 C   0  0  0  0  0  0  0  0  0  0  0  0
   53.6140   21.0920   45.9810 O   0  0  0  0  0  0  0  0  0  0  0  0
   52.9810   23.0710   45.0230 O   0  0  0  0  0  0  0  0  0  0  0  0
   55.4080   24.0080   46.5910 C   0  0  0  0  0  0  0  0  0  0  0  0
   54.7237   24.2760   47.4095 H   0  0  0  0  0  0  0  0  0  0  0  0
   56.4720   24.9670   46.2110 C   0  0  0  0  0  0  0  0  0  0  0  0
   57.8310   24.5890   46.1660 C   0  0  0  0  0  0  0  0  0  0  0  0
   58.2290   23.3010   46.5110 O   0  0  0  0  0  0  0  0  0  0  0  0
   58.8040   25.5170   45.7980 C   0  0  0  0  0  0  0  0  0  0  0  0
   59.8586   25.2092   45.7431 H   0  0  0  0  0  0  0  0  0  0  0  0
   58.4510   26.8320   45.4990 C   0  0  0  0  0  0  0  0  0  0  0  0
   59.2272   27.5500   45.1959 H   0  0  0  0  0  0  0  0  0  0  0  0
   57.1090   27.2480   45.5820 C   0  0  0  0  0  0  0  0  0  0  0  0
   56.7090   28.6420   45.2630 C   0  0  0  0  0  0  0  0  0  0  0  0
   55.7698   29.0268   45.6870 H   0  0  0  0  0  0  0  0  0  0  0  0
   57.4380   29.4560   44.4820 C   0  0  0  0  0  0  0  0  0  0  0  0
   57.6636   29.1272   43.4568 H   0  0  0  0  0  0  0  0  0  0  0  0
   57.9560   30.7740   44.9250 C   0  0  0  0  0  0  0  0  0  0  0  0
   57.4200   32.0010   44.4530 C   0  0  0  0  0  0  0  0  0  0  0  0
   56.5952   31.9899   43.7252 H   0  0  0  0  0  0  0  0  0  0  0  0
   57.9300   33.2270   44.9040 C   0  0  0  0  0  0  0  0  0  0  0  0
   57.5213   34.1784   44.5328 H   0  0  0  0  0  0  0  0  0  0  0  0
   58.9650   33.2100   45.8320 C   0  0  0  0  0  0  0  0  0  0  0  0
   59.7510   34.5170   46.5370 S   0  0  0  0  0  0  0  0  0  0  0  0
   60.7930   33.5780   47.4860 C   0  0  0  0  0  0  0  0  0  0  0  0
   61.8060   34.1240   48.4000 C   0  0  0  0  0  0  0  0  0  0  0  0
   63.0110   34.2070   48.0440 O   0  0  0  0  0  0  0  0  0  0  0  0
   61.4380   34.5510   49.6690 O   0  0  0  0  0  0  0  0  0  0  0  0
   60.5220   32.2270   47.2500 C   0  0  0  0  0  0  0  0  0  0  0  0
   61.2010   31.1850   47.8720 O   0  0  0  0  0  0  0  0  0  0  0  0
   59.4950   32.0270   46.3200 C   0  0  0  0  0  0  0  0  0  0  0  0
   58.9960   30.7970   45.8800 C   0  0  0  0  0  0  0  0  0  0  0  0
   59.4094   29.8568   46.2738 H   0  0  0  0  0  0  0  0  0  0  0  0
   56.1220   26.3040   45.9320 C   0  0  0  0  0  0  0  0  0  0  0  0
   54.7860   26.6950   46.0000 O   0  0  0  0  0  0  0  0  0  0  0  0
  1  2  1  0
  2  3  1  0
  3  4  2  0
  3  5  1  0
  2  6  2  3
  6  7  1  0
  6  8  1  0
  8  9  2  0
  9 10  1  0
  9 11  1  0
 11 12  1  0
 11 13  2  0
 13 14  1  0
 13 15  1  0
 15 16  1  0
 16 17  1  0
 16 18  2  0
 18 19  1  0
 18 20  1  0
 20 21  2  0
 21 22  1  0
 21 23  1  0
 23 24  1  0
 23 25  2  0
 25 26  1  0
 26 27  1  0
 27 28  1  0
 28 29  2  0
 28 30  1  0
 27 31  2  0
 31 32  1  0
 31 33  1  0
 33 34  2  0
 34 35  1  0
 15 36  2  0
 36 37  1  0
 36  8  1  0
 34 20  1  0
 33 25  1  0
M  CHG  5   5  -1  10  -1  30  -1  32  -1  37  -1
M  END
>  <UniqueID>  (15) 
13

>  <SMILES>  (15) 
O=C([O-])C=Cc1c([O-])ccc(/C=C/c2ccc3sc(C(=O)[O-])c([O-])c3c2)c1[O-]

>  <Energy>  (15) 
82.03384714391855

>  <Genealogy>  (15) 
O=C([O-])C=Cc1c([O-])ccc(C=Cc2ccc3sc(C(=O)[O-])c([O-])c3c2)c1[O-] (protonated)
O=C([O-])C=Cc1c([O-])ccc(/C=C/c2ccc3sc(C(=O)[O-])c([O-])c3c2)c1[O-] (cis-trans isomerization)
O=C([O-])C=Cc1c([O-])ccc(/C=C/c2ccc3sc(C(=O)[O-])c([O-])c3c2)c1[O-] (3D coordinates assigned)
O=C([O-])C=Cc1c([O-])ccc(/C=C/c2ccc3sc(C(=O)[O-])c([O-])c3c2)c1[O-] (optimized conformer: 82.03384714391855 kcal/mol)

>  <smiles>  (15) 
O=C(O)C=Cc1c(O)ccc(C=Cc2ccc3sc(C(=O)O)c(O)c3c2)c1O

>  <score_type>  (15) 
oracle

>  <origin>  (15) 
adg

>  <m_score__min__energy>  (15) 
-17.120000000000001

>  <m_primary>  (15) 
energy

$$$$
15:0
     RDKit          3D

 44 46  0  0  0  0  0  0  0  0999 V2000
   54.0600   26.2800   46.3790 H   0  0  0  0  0  0  0  0  0  0  0  0
   54.9870   26.4300   45.9990 O   0  0  0  0  0  0  0  0  0  0  0  0
   55.7770   25.3570   45.5920 C   0  0  0  0  0  0  0  0  0  0  0  0
   55.2650   24.4510   44.7230 N   0  0  0  0  0  0  0  0  0  0  0  0
   56.0020   23.4110   44.2610 C   0  0  0  0  0  0  0  0  0  0  0  0
   55.4740   22.6080   43.4430 O   0  0  0  0  0  0  0  0  0  0  0  0
   57.2990   23.2450   44.6710 N   0  0  0  0  0  0  0  0  0  0  0  0
   58.1090   22.1380   44.1330 C   0  0  0  0  0  0  0  0  0  0  0  0
   58.5342   21.5569   44.9646 H   0  0  0  0  0  0  0  0  0  0  0  0
   57.4739   21.4850   43.5164 H   0  0  0  0  0  0  0  0  0  0  0  0
   58.9236   22.5457   43.5164 H   0  0  0  0  0  0  0  0  0  0  0  0
   57.8630   24.1560   45.5300 C   0  0  0  0  0  0  0  0  0  0  0  0
   59.0710   24.0370   45.8780 O   0  0  0  0  0  0  0  0  0  0  0  0
   57.1000   25.2230   46.0400 C   0  0  0  0  0  0  0  0  0  0  0  0
   57.7180   26.1950   46.9750 C   0  0  0  0  0  0  0  0  0  0  0  0
   58.2859   25.8136   47.8364 H   0  0  0  0  0  0  0  0  0  0  0  0
   57.6100   27.5220   46.8090 C   0  0  0  0  0  0  0  0  0  0  0  0
   56.6391   27.9249   46.4850 H   0  0  0  0  0  0  0  0  0  0  0  0
   58.7210   28.4790   47.0360 C   0  0  0  0  0  0  0  0  0  0  0  0
   58.9430   28.9520   48.3390 C   0  0  0  0  0  0  0  0  0  0  0  0
   58.2927   28.6135   49.1591 H   0  0  0  0  0  0  0  0  0  0  0  0
   59.9810   29.8480   48.6050 C   0  0  0  0  0  0  0  0  0  0  0  0
   60.1345   30.2144   49.6308 H   0  0  0  0  0  0  0  0  0  0  0  0
   60.8290   30.2850   47.5780 C   0  0  0  0  0  0  0  0  0  0  0  0
   61.8900   31.2100   47.8850 N   0  0  0  0  0  0  0  0  0  0  0  0
   62.8770   30.8780   47.7770 H   0  0  0  0  0  0  0  0  0  0  0  0
   61.6540   32.5810   48.3390 C   0  0  0  0  0  0  0  0  0  0  0  0
   61.3395   32.5634   49.3929 H   0  0  0  0  0  0  0  0  0  0  0  0
   62.5854   33.1557   48.2285 H   0  0  0  0  0  0  0  0  0  0  0  0
   60.5790   33.2370   47.5130 C   0  0  0  0  0  0  0  0  0  0  0  0
   59.2320   33.1330   47.8990 C   0  0  0  0  0  0  0  0  0  0  0  0
   58.9616   32.5494   48.7913 H   0  0  0  0  0  0  0  0  0  0  0  0
   58.2340   33.7680   47.1540 C   0  0  0  0  0  0  0  0  0  0  0  0
   57.1803   33.6742   47.4556 H   0  0  0  0  0  0  0  0  0  0  0  0
   58.5720   34.5210   46.0280 C   0  0  0  0  0  0  0  0  0  0  0  0
   57.7846   35.0168   45.4413 H   0  0  0  0  0  0  0  0  0  0  0  0
   59.9110   34.6450   45.6460 C   0  0  0  0  0  0  0  0  0  0  0  0
   60.1762   35.2422   44.7611 H   0  0  0  0  0  0  0  0  0  0  0  0
   60.9150   34.0110   46.3870 C   0  0  0  0  0  0  0  0  0  0  0  0
   62.2100   34.1580   46.0090 F   0  0  0  0  0  0  0  0  0  0  0  0
   60.6210   29.8000   46.2740 C   0  0  0  0  0  0  0  0  0  0  0  0
   61.2816   30.1286   45.4582 H   0  0  0  0  0  0  0  0  0  0  0  0
   59.5820   28.9040   46.0060 C   0  0  0  0  0  0  0  0  0  0  0  0
   59.4359   28.5280   44.9826 H   0  0  0  0  0  0  0  0  0  0  0  0
  1  2  1  0
  2  3  1  0
  3  4  1  0
  4  5  1  0
  5  6  2  0
  5  7  1  0
  7  8  1  0
  8  9  1  0
  8 10  1  0
  8 11  1  0
  7 12  1  0
 12 13  2  0
 12 14  1  0
 14 15  1  0
 15 16  1  0
 15 17  2  0
 17 18  1  0
 17 19  1  0
 19 20  2  0
 20 21  1  0
 20 22  1  0
 22 23  1  0
 22 24  2  0
 24 25  1  0
 25 26  1  0
 25 27  1  0
 27 28  1  0
 27 29  1  0
 27 30  1  0
 30 31  2  0
 31 32  1  0
 31 33  1  0
 33 34  1  0
 33 35  2  0
 35 36  1  0
 35 37  1  0
 37 38  1  0
 37 39  2  0
 39 40  1  0
 24 41  1  0
 41 42  1  0
 41 43  2  0
 43 44  1  0
 14  3  2  0
 43 19  1  0
 39 30  1  0
M  CHG  1   4  -1
M  END
>  <UniqueID>  (16) 
14

>  <SMILES>  (16) 
Cn1c(=O)[n-]c(O)c(/C=C/c2ccc(NCc3ccccc3F)cc2)c1=O

>  <Energy>  (16) 
58.339801631519926

>  <Genealogy>  (16) 
Cn1c(=O)[n-]c(O)c(C=Cc2ccc(NCc3ccccc3F)cc2)c1=O (protonated)
Cn1c(=O)[n-]c(O)c(/C=C/c2ccc(NCc3ccccc3F)cc2)c1=O (cis-trans isomerization)
Cn1c(=O)[n-]c(O)c(/C=C/c2ccc(NCc3ccccc3F)cc2)c1=O (3D coordinates assigned)
Cn1c(=O)[n-]c(O)c(/C=C/c2ccc(NCc3ccccc3F)cc2)c1=O (optimized conformer: 58.339801631519926 kcal/mol)

>  <smiles>  (16) 
Cn1c(=O)[nH]c(O)c(C=Cc2ccc(NCc3ccccc3F)cc2)c1=O

>  <score_type>  (16) 
oracle

>  <origin>  (16) 
adg

>  <m_score__min__energy>  (16) 
-11.109999999999999

>  <m_primary>  (16) 
energy

$$$$
16:0
     RDKit          3D

 55 58  0  0  0  0  0  0  0  0999 V2000
   66.2980   32.6710   50.2010 C   0  0  0  0  0  0  0  0  0  0  0  0
   65.2030   31.7650   50.3030 O   0  0  0  0  0  0  0  0  0  0  0  0
   63.8540   32.1360   50.2120 C   0  0  0  0  0  0  0  0  0  0  0  0
   63.0940   32.1550   51.3800 C   0  0  0  0  0  0  0  0  0  0  0  0
   61.7470   32.5130   51.3520 C   0  0  0  0  0  0  0  0  0  0  0  0
   61.1120   32.8700   50.1390 C   0  0  0  0  0  0  0  0  0  0  0  0
   61.8860   32.8510   48.9460 C   0  0  0  0  0  0  0  0  0  0  0  0
   63.2460   32.4840   48.9940 C   0  0  0  0  0  0  0  0  0  0  0  0
   61.2780   33.1940   47.7250 C   0  0  0  0  0  0  0  0  0  0  0  0
   61.9380   33.1450   46.6500 O   0  0  0  0  0  0  0  0  0  0  0  0
   59.9290   33.5700   47.6990 C   0  0  0  0  0  0  0  0  0  0  0  0
   59.2450   33.9400   46.4350 C   0  0  0  0  0  0  0  0  0  0  0  0
   59.2090   35.1560   46.1020 O   0  0  0  0  0  0  0  0  0  0  0  0
   58.6260   32.9270   45.5450 C   0  0  0  0  0  0  0  0  0  0  0  0
   58.3090   31.6400   46.0210 C   0  0  0  0  0  0  0  0  0  0  0  0
   57.7370   30.6910   45.1680 C   0  0  0  0  0  0  0  0  0  0  0  0
   57.4830   31.0110   43.8320 C   0  0  0  0  0  0  0  0  0  0  0  0
   56.9300   30.0890   43.0060 F   0  0  0  0  0  0  0  0  0  0  0  0
   57.8050   32.2810   43.3460 C   0  0  0  0  0  0  0  0  0  0  0  0
   58.3780   33.2330   44.1940 C   0  0  0  0  0  0  0  0  0  0  0  0
   59.1990   33.5560   48.8910 C   0  0  0  0  0  0  0  0  0  0  0  0
   59.7760   33.2230   50.0860 N   0  0  0  0  0  0  0  0  0  0  0  0
   58.9090   33.2300   51.2830 C   0  0  0  0  0  0  0  0  0  0  0  0
   57.9090   32.1120   51.2230 C   0  0  0  0  0  0  0  0  0  0  0  0
   58.1030   31.1500   50.4310 O   0  0  0  0  0  0  0  0  0  0  0  0
   56.7280   32.1590   52.0410 N   0  0  0  0  0  0  0  0  0  0  0  0
   55.7740   31.0890   52.1390 C   0  0  0  0  0  0  0  0  0  0  0  0
   56.0980   29.8730   52.7650 C   0  0  0  0  0  0  0  0  0  0  0  0
   55.1410   28.8600   52.8730 C   0  0  0  0  0  0  0  0  0  0  0  0
   53.8530   29.0530   52.3700 C   0  0  0  0  0  0  0  0  0  0  0  0
   53.5130   30.2660   51.7560 C   0  0  0  0  0  0  0  0  0  0  0  0
   51.8830   30.5260   51.1430 S   0  0  0  0  0  0  0  0  0  0  0  0
   51.5610   32.2220   51.0590 N   0  0  0  0  0  0  0  0  0  0  0  0
   50.8830   29.8730   52.0550 O   0  0  0  0  0  0  0  0  0  0  0  0
   51.7530   29.9210   49.7720 O   0  0  0  0  0  0  0  0  0  0  0  0
   54.4710   31.2850   51.6550 C   0  0  0  0  0  0  0  0  0  0  0  0
   66.6370   32.9515   51.2092 H   0  0  0  0  0  0  0  0  0  0  0  0
   67.1237   32.1885   49.6575 H   0  0  0  0  0  0  0  0  0  0  0  0
   65.9786   33.5725   49.6575 H   0  0  0  0  0  0  0  0  0  0  0  0
   63.5634   31.8838   52.3371 H   0  0  0  0  0  0  0  0  0  0  0  0
   61.1687   32.5180   52.2877 H   0  0  0  0  0  0  0  0  0  0  0  0
   63.8383   32.4699   48.0672 H   0  0  0  0  0  0  0  0  0  0  0  0
   58.5126   31.3797   47.0702 H   0  0  0  0  0  0  0  0  0  0  0  0
   57.4865   29.6903   45.5498 H   0  0  0  0  0  0  0  0  0  0  0  0
   57.6070   32.5321   42.2935 H   0  0  0  0  0  0  0  0  0  0  0  0
   58.6368   34.2280   43.8027 H   0  0  0  0  0  0  0  0  0  0  0  0
   58.1314   33.8199   48.8676 H   0  0  0  0  0  0  0  0  0  0  0  0
   59.5327   33.1082   52.1809 H   0  0  0  0  0  0  0  0  0  0  0  0
   58.3670   34.1865   51.3204 H   0  0  0  0  0  0  0  0  0  0  0  0
   56.4970   33.0600   52.5150 H   0  0  0  0  0  0  0  0  0  0  0  0
   57.1084   29.7180   53.1714 H   0  0  0  0  0  0  0  0  0  0  0  0
   55.4036   27.9073   53.3561 H   0  0  0  0  0  0  0  0  0  0  0  0
   53.1041   28.2519   52.4557 H   0  0  0  0  0  0  0  0  0  0  0  0
   50.6550   32.3360   50.5520 H   0  0  0  0  0  0  0  0  0  0  0  0
   54.1993   32.2455   51.1928 H   0  0  0  0  0  0  0  0  0  0  0  0
  1  2  1  0
  2  3  1  0
  3  4  2  0
  4  5  1  0
  5  6  2  0
  6  7  1  0
  7  8  2  0
  7  9  1  0
  9 10  2  0
  9 11  1  0
 11 12  1  0
 12 13  2  0
 12 14  1  0
 14 15  2  0
 15 16  1  0
 16 17  2  0
 17 18  1  0
 17 19  1  0
 19 20  2  0
 11 21  2  0
 21 22  1  0
 22 23  1  0
 23 24  1  0
 24 25  2  0
 24 26  1  0
 26 27  1  0
 27 28  2  0
 28 29  1  0
 29 30  2  0
 30 31  1  0
 31 32  1  0
 32 33  1  0
 32 34  2  0
 32 35  2  0
 31 36  2  0
  8  3  1  0
 20 14  1  0
 36 27  1  0
 22  6  1  0
  1 37  1  0
  1 38  1  0
  1 39  1  0
  4 40  1  0
  5 41  1  0
  8 42  1  0
 15 43  1  0
 16 44  1  0
 19 45  1  0
 20 46  1  0
 21 47  1  0
 23 48  1  0
 23 49  1  0
 26 50  1  0
 28 51  1  0
 29 52  1  0
 30 53  1  0
 33 54  1  0
 36 55  1  0
M  CHG  1  33  -1
M  END
>  <UniqueID>  (17) 
15

>  <SMILES>  (17) 
COc1ccc2c(c1)c(=O)c(C(=O)c1ccc(F)cc1)cn2CC(=O)Nc1cccc(S([NH-])(=O)=O)c1

>  <Energy>  (17) 
78.45135856733312

>  <Genealogy>  (17) 
COc1ccc2c(c1)c(=O)c(C(=O)c1ccc(F)cc1)cn2CC(=O)Nc1cccc(S([NH-])(=O)=O)c1 (protonated)
COc1ccc2c(c1)c(=O)c(C(=O)c1ccc(F)cc1)cn2CC(=O)Nc1cccc(S([NH-])(=O)=O)c1 (3D coordinates assigned)
COc1ccc2c(c1)c(=O)c(C(=O)c1ccc(F)cc1)cn2CC(=O)Nc1cccc(S([NH-])(=O)=O)c1 (optimized conformer: 78.45135856733312 kcal/mol)

>  <smiles>  (17) 
COc1ccc2c(c1)c(=O)c(C(=O)c1ccc(F)cc1)cn2CC(=O)Nc1cccc(S(N)(=O)=O)c1

>  <score_type>  (17) 
oracle

>  <origin>  (17) 
adg

>  <m_score__min__energy>  (17) 
-12.890000000000001

>  <m_primary>  (17) 
energy

$$$$
17:0
     RDKit          3D

 35 36  0  0  0  0  0  0  0  0999 V2000
   60.0080   34.2470   49.5010 C   0  0  0  0  0  0  0  0  0  0  0  0
   59.6990   33.6750   48.1500 C   0  0  0  0  0  0  0  0  0  0  0  0
   58.8880   34.3830   47.2570 C   0  0  0  0  0  0  0  0  0  0  0  0
   58.5710   33.8360   46.0110 C   0  0  0  0  0  0  0  0  0  0  0  0
   59.0640   32.5610   45.6690 C   0  0  0  0  0  0  0  0  0  0  0  0
   58.7830   31.9790   44.5370 N   0  0  0  0  0  0  0  0  0  0  0  0
   57.3750   31.0210   44.1900 S   0  0  0  0  0  0  0  0  0  0  0  0
   56.1640   31.7240   44.7390 O   0  0  0  0  0  0  0  0  0  0  0  0
   57.2310   30.8930   42.6990 O   0  0  0  0  0  0  0  0  0  0  0  0
   57.5490   29.4040   44.8830 C   0  0  0  0  0  0  0  0  0  0  0  0
   58.8320   28.9150   45.1580 C   0  0  0  0  0  0  0  0  0  0  0  0
   59.0000   27.6480   45.7160 C   0  0  0  0  0  0  0  0  0  0  0  0
   57.8870   26.8550   46.0030 C   0  0  0  0  0  0  0  0  0  0  0  0
   56.5910   27.3270   45.7330 C   0  0  0  0  0  0  0  0  0  0  0  0
   55.4220   26.5440   46.0200 N   0  0  0  0  0  0  0  0  0  0  0  0
   55.3210   24.8140   45.9580 S   0  0  0  0  0  0  0  0  0  0  0  0
   56.2600   24.1920   44.5790 C   0  0  0  0  0  0  0  0  0  0  0  0
   53.8840   24.3850   45.8510 O   0  0  0  0  0  0  0  0  0  0  0  0
   55.9060   24.2540   47.2230 O   0  0  0  0  0  0  0  0  0  0  0  0
   56.4270   28.6000   45.1610 C   0  0  0  0  0  0  0  0  0  0  0  0
   55.1440   29.0590   44.8790 O   0  0  0  0  0  0  0  0  0  0  0  0
   59.8570   31.8990   46.5550 N   0  0  0  0  0  0  0  0  0  0  0  0
   60.1830   32.4170   47.7680 C   0  0  0  0  0  0  0  0  0  0  0  0
   59.6394   33.5647   50.2811 H   0  0  0  0  0  0  0  0  0  0  0  0
   61.0959   34.3711   49.6065 H   0  0  0  0  0  0  0  0  0  0  0  0
   59.5154   35.2249   49.6065 H   0  0  0  0  0  0  0  0  0  0  0  0
   58.4987   35.3731   47.5364 H   0  0  0  0  0  0  0  0  0  0  0  0
   57.9420   34.3958   45.3032 H   0  0  0  0  0  0  0  0  0  0  0  0
   59.7128   29.5341   44.9325 H   0  0  0  0  0  0  0  0  0  0  0  0
   60.0114   27.2725   45.9305 H   0  0  0  0  0  0  0  0  0  0  0  0
   58.0253   25.8561   46.4425 H   0  0  0  0  0  0  0  0  0  0  0  0
   57.1230   23.6203   44.9511 H   0  0  0  0  0  0  0  0  0  0  0  0
   55.6226   23.5369   43.9670 H   0  0  0  0  0  0  0  0  0  0  0  0
   56.6145   25.0345   43.9670 H   0  0  0  0  0  0  0  0  0  0  0  0
   60.8288   31.8470   48.4521 H   0  0  0  0  0  0  0  0  0  0  0  0
  1  2  1  0
  2  3  1  0
  3  4  2  0
  4  5  1  0
  5  6  2  3
  6  7  1  0
  7  8  2  0
  7  9  2  0
  7 10  1  0
 10 11  2  0
 11 12  1  0
 12 13  2  0
 13 14  1  0
 14 15  1  0
 15 16  1  0
 16 17  1  0
 16 18  2  0
 16 19  2  0
 14 20  2  0
 20 21  1  0
  5 22  1  0
 22 23  1  0
 23  2  2  0
 20 10  1  0
  1 24  1  0
  1 25  1  0
  1 26  1  0
  3 27  1  0
  4 28  1  0
 11 29  1  0
 12 30  1  0
 13 31  1  0
 17 32  1  0
 17 33  1  0
 17 34  1  0
 23 35  1  0
M  CHG  3  15  -1  21  -1  22  -1
M  END
>  <UniqueID>  (18) 
16

>  <SMILES>  (18) 
Cc1ccc(=NS(=O)(=O)c2cccc([N-]S(C)(=O)=O)c2[O-])[n-]c1

>  <Energy>  (18) 
41.414854980870416

>  <Genealogy>  (18) 
Cc1ccc(=NS(=O)(=O)c2cccc([N-]S(C)(=O)=O)c2[O-])[n-]c1 (protonated)
Cc1ccc(=NS(=O)(=O)c2cccc([N-]S(C)(=O)=O)c2[O-])[n-]c1 (3D coordinates assigned)
Cc1ccc(=NS(=O)(=O)c2cccc([N-]S(C)(=O)=O)c2[O-])[n-]c1 (optimized conformer: 41.414854980870416 kcal/mol)

>  <smiles>  (18) 
Cc1ccc(=NS(=O)(=O)c2cccc(NS(C)(=O)=O)c2O)[nH]c1

>  <score_type>  (18) 
oracle

>  <origin>  (18) 
adg

>  <m_score__min__energy>  (18) 
-15.82

>  <m_primary>  (18) 
energy

$$$$
18:0
     RDKit          3D

 40 42  0  0  0  0  0  0  0  0999 V2000
   56.3640   30.8950   44.8270 O   0  0  0  0  0  0  0  0  0  0  0  0
   56.7880   29.7200   44.9180 C   0  0  0  0  0  0  0  0  0  0  0  0
   55.9310   28.6020   44.8390 O   0  0  0  0  0  0  0  0  0  0  0  0
   58.2080   29.3920   45.1160 C   0  0  0  0  0  0  0  0  0  0  0  0
   59.0640   29.9610   46.0660 C   0  0  0  0  0  0  0  0  0  0  0  0
   58.6070   30.9930   47.0150 C   0  0  0  0  0  0  0  0  0  0  0  0
   59.7200   31.3040   48.3860 S   0  0  0  0  0  0  0  0  0  0  0  0
   61.2780   31.9750   47.9150 C   0  0  0  0  0  0  0  0  0  0  0  0
   62.4330   31.2350   47.7870 C   0  0  0  0  0  0  0  0  0  0  0  0
   63.6430   31.7580   47.3890 C   0  0  0  0  0  0  0  0  0  0  0  0
   63.7300   33.1030   47.0910 C   0  0  0  0  0  0  0  0  0  0  0  0
   62.5920   33.8610   47.2110 C   0  0  0  0  0  0  0  0  0  0  0  0
   61.3660   33.3160   47.6190 C   0  0  0  0  0  0  0  0  0  0  0  0
   60.2580   34.2960   47.7530 C   0  0  0  0  0  0  0  0  0  0  0  0
   59.2190   34.0920   46.7120 C   0  0  0  0  0  0  0  0  0  0  0  0
   57.8820   33.9900   46.9400 C   0  0  0  0  0  0  0  0  0  0  0  0
   57.0370   33.8150   45.8580 C   0  0  0  0  0  0  0  0  0  0  0  0
   57.5230   33.7400   44.5510 C   0  0  0  0  0  0  0  0  0  0  0  0
   58.8810   33.8410   44.3160 C   0  0  0  0  0  0  0  0  0  0  0  0
   59.7110   34.0150   45.4000 C   0  0  0  0  0  0  0  0  0  0  0  0
   60.2470   29.3730   45.8750 N   0  0  0  0  0  0  0  0  0  0  0  0
   60.1700   28.4960   44.8840 N   0  0  0  0  0  0  0  0  0  0  0  0
   58.9220   28.4710   44.3800 C   0  0  0  0  0  0  0  0  0  0  0  0
   58.4650   27.7590   43.4260 O   0  0  0  0  0  0  0  0  0  0  0  0
   56.2680   27.8110   44.3050 H   0  0  0  0  0  0  0  0  0  0  0  0
   58.4771   31.9339   46.4602 H   0  0  0  0  0  0  0  0  0  0  0  0
   57.6728   30.6148   47.4557 H   0  0  0  0  0  0  0  0  0  0  0  0
   62.3857   30.1603   48.0169 H   0  0  0  0  0  0  0  0  0  0  0  0
   64.5296   31.1118   47.3095 H   0  0  0  0  0  0  0  0  0  0  0  0
   64.6804   33.5527   46.7679 H   0  0  0  0  0  0  0  0  0  0  0  0
   62.6435   34.9350   46.9787 H   0  0  0  0  0  0  0  0  0  0  0  0
   59.7970   34.1802   48.7450 H   0  0  0  0  0  0  0  0  0  0  0  0
   60.6753   35.3062   47.6293 H   0  0  0  0  0  0  0  0  0  0  0  0
   57.4808   34.0454   47.9627 H   0  0  0  0  0  0  0  0  0  0  0  0
   55.9540   33.7328   46.0321 H   0  0  0  0  0  0  0  0  0  0  0  0
   56.8267   33.6009   43.7108 H   0  0  0  0  0  0  0  0  0  0  0  0
   59.2858   33.7841   43.2948 H   0  0  0  0  0  0  0  0  0  0  0  0
   60.7951   34.0963   45.2325 H   0  0  0  0  0  0  0  0  0  0  0  0
   61.1200   29.5610   46.4070 H   0  0  0  0  0  0  0  0  0  0  0  0
   60.9310   27.8690   44.4940 H   0  0  0  0  0  0  0  0  0  0  0  0
  1  2  2  0
  2  3  1  0
  2  4  1  0
  4  5  2  0
  5  6  1  0
  6  7  1  0
  7  8  1  0
  8  9  2  0
  9 10  1  0
 10 11  2  0
 11 12  1  0
 12 13  2  0
 13 14  1  0
 14 15  1  0
 15 16  2  0
 16 17  1  0
 17 18  2  0
 18 19  1  0
 19 20  2  0
  5 21  1  0
 21 22  1  0
 22 23  1  0
 23 24  2  0
 23  4  1  0
 13  8  1  0
 20 15  1  0
  3 25  1  0
  6 26  1  0
  6 27  1  0
  9 28  1  0
 10 29  1  0
 11 30  1  0
 12 31  1  0
 14 32  1  0
 14 33  1  0
 16 34  1  0
 17 35  1  0
 18 36  1  0
 19 37  1  0
 20 38  1  0
 21 39  1  0
 22 40  1  0
M  END
>  <smiles>  (19) 
O=C(O)c1c(CSc2ccccc2Cc2ccccc2)[nH][nH]c1=O

>  <score_type>  (19) 
oracle

>  <origin>  (19) 
adg

>  <m_score__min__energy>  (19) 
-9.3599999999999994

>  <m_primary>  (19) 
energy

$$$$
19:0
     RDKit          3D

 41 43  0  0  0  0  0  0  0  0999 V2000
   58.3640   26.3550   45.8610 C   0  0  0  0  0  0  0  0  0  0  0  0
   57.6080   27.5730   45.4250 C   0  0  0  0  0  0  0  0  0  0  0  0
   56.2630   27.6190   45.6030 N   0  0  0  0  0  0  0  0  0  0  0  0
   55.5440   28.6780   45.2340 N   0  0  0  0  0  0  0  0  0  0  0  0
   56.1180   29.7660   44.6660 C   0  0  0  0  0  0  0  0  0  0  0  0
   55.3890   30.7370   44.3260 O   0  0  0  0  0  0  0  0  0  0  0  0
   57.5120   29.8020   44.4600 C   0  0  0  0  0  0  0  0  0  0  0  0
   58.1320   31.0180   43.8010 C   0  0  0  0  0  0  0  0  0  0  0  0
   58.2940   32.1430   44.7930 C   0  0  0  0  0  0  0  0  0  0  0  0
   58.4670   33.4650   44.3480 C   0  0  0  0  0  0  0  0  0  0  0  0
   58.6170   34.5040   45.2700 C   0  0  0  0  0  0  0  0  0  0  0  0
   58.5950   34.2340   46.6400 C   0  0  0  0  0  0  0  0  0  0  0  0
   58.4300   32.9240   47.1020 C   0  0  0  0  0  0  0  0  0  0  0  0
   58.4110   32.6920   48.5170 N   0  0  0  0  0  0  0  0  0  0  0  0
   59.7680   32.8940   49.5800 S   0  0  0  0  0  0  0  0  0  0  0  0
   59.7630   31.7940   50.6030 O   0  0  0  0  0  0  0  0  0  0  0  0
   59.6450   34.2170   50.2850 O   0  0  0  0  0  0  0  0  0  0  0  0
   61.2670   32.8110   48.6620 C   0  0  0  0  0  0  0  0  0  0  0  0
   61.5760   31.6540   47.9330 C   0  0  0  0  0  0  0  0  0  0  0  0
   62.7500   31.5920   47.1780 C   0  0  0  0  0  0  0  0  0  0  0  0
   63.6220   32.6840   47.1470 C   0  0  0  0  0  0  0  0  0  0  0  0
   63.3210   33.8390   47.8750 C   0  0  0  0  0  0  0  0  0  0  0  0
   62.1470   33.9040   48.6320 C   0  0  0  0  0  0  0  0  0  0  0  0
   58.2850   31.8790   46.1710 C   0  0  0  0  0  0  0  0  0  0  0  0
   58.2700   28.6670   44.8450 C   0  0  0  0  0  0  0  0  0  0  0  0
   59.6560   28.5830   44.6710 O   0  0  0  0  0  0  0  0  0  0  0  0
   58.3899   26.3133   46.9599 H   0  0  0  0  0  0  0  0  0  0  0  0
   57.8655   25.4551   45.4716 H   0  0  0  0  0  0  0  0  0  0  0  0
   59.3917   26.4024   45.4716 H   0  0  0  0  0  0  0  0  0  0  0  0
   59.1196   30.7462   43.4000 H   0  0  0  0  0  0  0  0  0  0  0  0
   57.4687   31.3558   42.9912 H   0  0  0  0  0  0  0  0  0  0  0  0
   58.4844   33.6824   43.2698 H   0  0  0  0  0  0  0  0  0  0  0  0
   58.7527   35.5366   44.9161 H   0  0  0  0  0  0  0  0  0  0  0  0
   58.7082   35.0572   47.3608 H   0  0  0  0  0  0  0  0  0  0  0  0
   60.8922   30.7926   47.9555 H   0  0  0  0  0  0  0  0  0  0  0  0
   62.9884   30.6825   46.6071 H   0  0  0  0  0  0  0  0  0  0  0  0
   64.5446   32.6346   46.5501 H   0  0  0  0  0  0  0  0  0  0  0  0
   64.0084   34.6975   47.8523 H   0  0  0  0  0  0  0  0  0  0  0  0
   61.9128   34.8133   49.2050 H   0  0  0  0  0  0  0  0  0  0  0  0
   58.1634   30.8453   46.5269 H   0  0  0  0  0  0  0  0  0  0  0  0
   60.1180   28.4530   43.7820 H   0  0  0  0  0  0  0  0  0  0  0  0
  1  2  1  0
  2  3  2  0
  3  4  1  0
  4  5  1  0
  5  6  2  0
  5  7  1  0
  7  8  1  0
  8  9  1  0
  9 10  2  0
 10 11  1  0
 11 12  2  0
 12 13  1  0
 13 14  1  0
 14 15  1  0
 15 16  2  0
 15 17  2  0
 15 18  1  0
 18 19  2  0
 19 20  1  0
 20 21  2  0
 21 22  1  0
 22 23  2  0
 13 24  2  0
  7 25  2  0
 25 26  1  0
 25  2  1  0
 24  9  1  0
 23 18  1  0
  1 27  1  0
  1 28  1  0
  1 29  1  0
  8 30  1  0
  8 31  1  0
 10 32  1  0
 11 33  1  0
 12 34  1  0
 19 35  1  0
 20 36  1  0
 21 37  1  0
 22 38  1  0
 23 39  1  0
 24 40  1  0
 26 41  1  0
M  CHG  2   4  -1  14  -1
M  END
>  <UniqueID>  (20) 
17

>  <SMILES>  (20) 
Cc1n[n-]c(=O)c(Cc2cccc([N-]S(=O)(=O)c3ccccc3)c2)c1O

>  <Energy>  (20) 
48.733641225727226

>  <Genealogy>  (20) 
Cc1n[n-]c(=O)c(Cc2cccc([N-]S(=O)(=O)c3ccccc3)c2)c1O (protonated)
Cc1n[n-]c(=O)c(Cc2cccc([N-]S(=O)(=O)c3ccccc3)c2)c1O (3D coordinates assigned)
Cc1n[n-]c(=O)c(Cc2cccc([N-]S(=O)(=O)c3ccccc3)c2)c1O (optimized conformer: 48.733641225727226 kcal/mol)

>  <smiles>  (20) 
Cc1n[nH]c(=O)c(Cc2cccc(NS(=O)(=O)c3ccccc3)c2)c1O

>  <score_type>  (20) 
oracle

>  <origin>  (20) 
adg

>  <m_score__min__energy>  (20) 
-12.68

>  <m_primary>  (20) 
energy

$$$$
20:0
     RDKit          3D

 22 24  0  0  0  0  0  0  0  0999 V2000
   51.4260   33.1080   52.9340 H   0  0  0  0  0  0  0  0  0  0  0  0
   51.0720   33.1140   51.9850 O   0  0  0  0  0  0  0  0  0  0  0  0
   51.3310   32.0760   51.0930 C   0  0  0  0  0  0  0  0  0  0  0  0
   50.7200   31.9670   49.9020 N   0  0  0  0  0  0  0  0  0  0  0  0
   51.2630   30.8470   49.3860 C   0  0  0  0  0  0  0  0  0  0  0  0
   50.9430   30.3950   48.2560 O   0  0  0  0  0  0  0  0  0  0  0  0
   52.1750   30.2450   50.1780 N   0  0  0  0  0  0  0  0  0  0  0  0
   52.2220   31.0340   51.2670 C   0  0  0  0  0  0  0  0  0  0  0  0
   53.0640   30.7920   52.4610 C   0  0  0  0  0  0  0  0  0  0  0  0
   52.6143   30.9852   53.4461 H   0  0  0  0  0  0  0  0  0  0  0  0
   54.3340   30.3550   52.4350 C   0  0  0  0  0  0  0  0  0  0  0  0
   55.4480   30.8390   51.7310 C   0  0  0  0  0  0  0  0  0  0  0  0
   55.4325   31.7010   51.0479 H   0  0  0  0  0  0  0  0  0  0  0  0
   56.5550   30.0880   52.0140 N   0  0  0  0  0  0  0  0  0  0  0  0
   56.0610   29.1820   52.8760 C   0  0  0  0  0  0  0  0  0  0  0  0
   56.6210   28.1290   53.5600 C   0  0  0  0  0  0  0  0  0  0  0  0
   57.6645   27.7817   53.5391 H   0  0  0  0  0  0  0  0  0  0  0  0
   55.5440   27.6020   54.2920 C   0  0  0  0  0  0  0  0  0  0  0  0
   55.5864   26.7382   54.9717 H   0  0  0  0  0  0  0  0  0  0  0  0
   54.4080   28.3670   54.0060 C   0  0  0  0  0  0  0  0  0  0  0  0
   53.3978   28.2195   54.4156 H   0  0  0  0  0  0  0  0  0  0  0  0
   54.7870   29.3130   53.1380 N   0  0  0  0  0  0  0  0  0  0  0  0
  1  2  1  0
  2  3  1  0
  3  4  1  0
  4  5  1  0
  5  6  2  0
  5  7  1  0
  7  8  1  0
  8  9  1  0
  9 10  1  0
  9 11  2  0
 11 12  1  0
 12 13  1  0
 12 14  2  0
 14 15  1  0
 15 16  2  0
 16 17  1  0
 16 18  1  0
 18 19  1  0
 18 20  2  0
 20 21  1  0
 20 22  1  0
  8  3  2  0
 22 11  1  0
 22 15  1  0
M  CHG  2   4  -1   7  -1
M  END
>  <UniqueID>  (21) 
18

>  <SMILES>  (21) 
O=c1[n-]c(O)c(/C=c2\cnc3cccn23)[n-]1

>  <Energy>  (21) 
137.76966800786528

>  <Genealogy>  (21) 
O=c1[n-]c(O)c(C=c2cnc3cccn23)[n-]1 (protonated)
O=c1[n-]c(O)c(/C=c2\cnc3cccn23)[n-]1 (cis-trans isomerization)
O=c1[n-]c(O)c(/C=c2\cnc3cccn23)[n-]1 (3D coordinates assigned)
O=c1[n-]c(O)c(/C=c2\cnc3cccn23)[n-]1 (optimized conformer: 137.76966800786528 kcal/mol)

>  <smiles>  (21) 
O=c1[nH]c(O)c(C=c2cnc3cccn23)[nH]1

>  <score_type>  (21) 
oracle

>  <origin>  (21) 
adg

>  <m_score__min__energy>  (21) 
-10.93

>  <m_primary>  (21) 
energy

$$$$
21:0
     RDKit          3D

 44 46  0  0  0  0  0  0  0  0999 V2000
   55.5370   29.0160   45.2210 O   0  0  0  0  0  0  0  0  0  0  0  0
   56.5970   29.4670   44.7130 C   0  0  0  0  0  0  0  0  0  0  0  0
   57.7330   28.5200   44.4290 C   0  0  0  0  0  0  0  0  0  0  0  0
   59.0830   29.2310   44.5570 C   0  0  0  0  0  0  0  0  0  0  0  0
   59.5490   29.2260   45.9880 C   0  0  0  0  0  0  0  0  0  0  0  0
   60.5660   30.1020   46.4020 C   0  0  0  0  0  0  0  0  0  0  0  0
   60.9760   30.1220   47.7390 C   0  0  0  0  0  0  0  0  0  0  0  0
   60.3670   29.2780   48.6710 C   0  0  0  0  0  0  0  0  0  0  0  0
   59.3450   28.4140   48.2700 C   0  0  0  0  0  0  0  0  0  0  0  0
   58.9320   28.3910   46.9340 C   0  0  0  0  0  0  0  0  0  0  0  0
   56.6460   30.8490   44.3300 N   0  0  0  0  0  0  0  0  0  0  0  0
   57.4130   31.8690   44.9800 C   0  0  0  0  0  0  0  0  0  0  0  0
   57.7650   31.7640   46.3330 C   0  0  0  0  0  0  0  0  0  0  0  0
   58.5120   32.7720   46.9480 C   0  0  0  0  0  0  0  0  0  0  0  0
   58.9010   33.9140   46.2240 C   0  0  0  0  0  0  0  0  0  0  0  0
   59.6980   34.9840   46.8720 C   0  0  0  0  0  0  0  0  0  0  0  0
   59.6770   36.1520   46.3980 O   0  0  0  0  0  0  0  0  0  0  0  0
   60.5580   34.6620   47.9800 N   0  0  0  0  0  0  0  0  0  0  0  0
   61.6460   33.9400   47.9980 C   0  0  0  0  0  0  0  0  0  0  0  0
   62.3860   33.8360   46.8140 C   0  0  0  0  0  0  0  0  0  0  0  0
   63.5550   33.0710   46.7850 C   0  0  0  0  0  0  0  0  0  0  0  0
   63.9700   32.4150   47.9020 N   0  0  0  0  0  0  0  0  0  0  0  0
   63.2640   32.4770   49.0630 C   0  0  0  0  0  0  0  0  0  0  0  0
   62.0900   33.2320   49.1350 C   0  0  0  0  0  0  0  0  0  0  0  0
   58.5100   34.0310   44.8780 C   0  0  0  0  0  0  0  0  0  0  0  0
   57.7630   33.0190   44.2660 C   0  0  0  0  0  0  0  0  0  0  0  0
   57.6953   27.6871   45.1465 H   0  0  0  0  0  0  0  0  0  0  0  0
   57.6293   28.1459   43.3998 H   0  0  0  0  0  0  0  0  0  0  0  0
   59.8256   28.7124   43.9329 H   0  0  0  0  0  0  0  0  0  0  0  0
   58.9686   30.2732   44.2242 H   0  0  0  0  0  0  0  0  0  0  0  0
   61.0413   30.7742   45.6725 H   0  0  0  0  0  0  0  0  0  0  0  0
   61.7790   30.8031   48.0572 H   0  0  0  0  0  0  0  0  0  0  0  0
   60.6925   29.2938   49.7216 H   0  0  0  0  0  0  0  0  0  0  0  0
   58.8650   27.7515   49.0053 H   0  0  0  0  0  0  0  0  0  0  0  0
   58.1208   27.7164   46.6229 H   0  0  0  0  0  0  0  0  0  0  0  0
   57.4515   30.8837   46.9133 H   0  0  0  0  0  0  0  0  0  0  0  0
   58.7979   32.6721   48.0055 H   0  0  0  0  0  0  0  0  0  0  0  0
   62.0470   34.3567   45.9063 H   0  0  0  0  0  0  0  0  0  0  0  0
   64.1409   32.9991   45.8568 H   0  0  0  0  0  0  0  0  0  0  0  0
   64.8450   31.8460   47.8650 H   0  0  0  0  0  0  0  0  0  0  0  0
   63.6187   31.9304   49.9493 H   0  0  0  0  0  0  0  0  0  0  0  0
   61.5157   33.2740   50.0722 H   0  0  0  0  0  0  0  0  0  0  0  0
   58.7936   34.9246   44.3026 H   0  0  0  0  0  0  0  0  0  0  0  0
   57.4493   33.1285   43.2174 H   0  0  0  0  0  0  0  0  0  0  0  0
  1  2  2  0
  2  3  1  0
  3  4  1  0
  4  5  1  0
  5  6  2  0
  6  7  1  0
  7  8  2  0
  8  9  1  0
  9 10  2  0
  2 11  1  0
 11 12  1  0
 12 13  2  0
 13 14  1  0
 14 15  2  0
 15 16  1  0
 16 17  2  0
 16 18  1  0
 18 19  2  3
 19 20  1  0
 20 21  2  0
 21 22  1  0
 22 23  1  0
 23 24  2  0
 15 25  1  0
 25 26  2  0
 10  5  1  0
 26 12  1  0
 24 19  1  0
  3 27  1  0
  3 28  1  0
  4 29  1  0
  4 30  1  0
  6 31  1  0
  7 32  1  0
  8 33  1  0
  9 34  1  0
 10 35  1  0
 13 36  1  0
 14 37  1  0
 20 38  1  0
 21 39  1  0
 22 40  1  0
 23 41  1  0
 24 42  1  0
 25 43  1  0
 26 44  1  0
M  CHG  1  11  -1
M  END
>  <UniqueID>  (22) 
19

>  <SMILES>  (22) 
O=C(CCc1ccccc1)[N-]c1ccc(C(=O)N=c2cc[nH]cc2)cc1

>  <Energy>  (22) 
56.55285547060497

>  <Genealogy>  (22) 
O=C(CCc1ccccc1)[N-]c1ccc(C(=O)N=c2cc[nH]cc2)cc1 (protonated)
O=C(CCc1ccccc1)[N-]c1ccc(C(=O)N=c2cc[nH]cc2)cc1 (3D coordinates assigned)
O=C(CCc1ccccc1)[N-]c1ccc(C(=O)N=c2cc[nH]cc2)cc1 (optimized conformer: 56.55285547060497 kcal/mol)

>  <smiles>  (22) 
O=C(CCc1ccccc1)Nc1ccc(C(=O)N=c2cc[nH]cc2)cc1

>  <score_type>  (22) 
oracle

>  <origin>  (22) 
adg

>  <m_score__min__energy>  (22) 
-10.51

>  <m_primary>  (22) 
energy

$$$$
22:0
     RDKit          3D

 53 55  0  0  0  0  0  0  0  0999 V2000
   57.3330   24.0390   43.7930 C   0  0  0  0  0  0  0  0  0  0  0  0
   56.3050   23.2280   43.0110 C   0  0  0  0  0  0  0  0  0  0  0  0
   55.4690   22.5050   43.8950 O   0  0  0  0  0  0  0  0  0  0  0  0
   56.2260   21.7550   44.8270 C   0  0  0  0  0  0  0  0  0  0  0  0
   55.3110   21.1930   45.9220 C   0  0  0  0  0  0  0  0  0  0  0  0
   54.5070   22.2970   46.6160 C   0  0  0  0  0  0  0  0  0  0  0  0
   54.9930   23.6180   46.2190 N   0  0  0  0  0  0  0  0  0  0  0  0
   56.0670   24.2880   46.8980 C   0  0  0  0  0  0  0  0  0  0  0  0
   56.6910   23.7000   47.8240 O   0  0  0  0  0  0  0  0  0  0  0  0
   56.4670   25.6640   46.5090 C   0  0  0  0  0  0  0  0  0  0  0  0
   55.5230   26.5540   45.9760 C   0  0  0  0  0  0  0  0  0  0  0  0
   54.1900   26.1860   45.8330 O   0  0  0  0  0  0  0  0  0  0  0  0
   55.8990   27.8010   45.6090 N   0  0  0  0  0  0  0  0  0  0  0  0
   57.1700   28.2540   45.7580 C   0  0  0  0  0  0  0  0  0  0  0  0
   57.4690   29.5360   45.3320 C   0  0  0  0  0  0  0  0  0  0  0  0
   58.7620   30.0250   45.4450 C   0  0  0  0  0  0  0  0  0  0  0  0
   58.9930   31.1840   45.0010 O   0  0  0  0  0  0  0  0  0  0  0  0
   59.7590   29.2700   46.0200 N   0  0  0  0  0  0  0  0  0  0  0  0
   61.1320   29.8350   46.0660 C   0  0  0  0  0  0  0  0  0  0  0  0
   61.2750   30.8380   47.1850 C   0  0  0  0  0  0  0  0  0  0  0  0
   60.2790   30.9480   48.1700 C   0  0  0  0  0  0  0  0  0  0  0  0
   60.4200   31.8600   49.2200 C   0  0  0  0  0  0  0  0  0  0  0  0
   61.5640   32.6620   49.3030 C   0  0  0  0  0  0  0  0  0  0  0  0
   61.7400   33.8080   50.6190 Cl  0  0  0  0  0  0  0  0  0  0  0  0
   62.5690   32.5440   48.3380 C   0  0  0  0  0  0  0  0  0  0  0  0
   62.4310   31.6310   47.2880 C   0  0  0  0  0  0  0  0  0  0  0  0
   59.4800   27.9990   46.5110 C   0  0  0  0  0  0  0  0  0  0  0  0
   60.5480   27.1940   47.2370 C   0  0  0  0  0  0  0  0  0  0  0  0
   58.1690   27.4380   46.3310 C   0  0  0  0  0  0  0  0  0  0  0  0
   57.7980   26.1030   46.6770 C   0  0  0  0  0  0  0  0  0  0  0  0
   58.6520   25.2780   47.1000 O   0  0  0  0  0  0  0  0  0  0  0  0
   57.1627   23.9046   44.8714 H   0  0  0  0  0  0  0  0  0  0  0  0
   58.3452   23.6935   43.5358 H   0  0  0  0  0  0  0  0  0  0  0  0
   57.2326   25.1038   43.5358 H   0  0  0  0  0  0  0  0  0  0  0  0
   55.6891   23.9103   42.4067 H   0  0  0  0  0  0  0  0  0  0  0  0
   56.8335   22.5170   42.3590 H   0  0  0  0  0  0  0  0  0  0  0  0
   56.7227   20.9231   44.3061 H   0  0  0  0  0  0  0  0  0  0  0  0
   56.9782   22.4111   45.2894 H   0  0  0  0  0  0  0  0  0  0  0  0
   54.6117   20.4757   45.4677 H   0  0  0  0  0  0  0  0  0  0  0  0
   55.9437   20.7050   46.6781 H   0  0  0  0  0  0  0  0  0  0  0  0
   53.4475   22.2028   46.3355 H   0  0  0  0  0  0  0  0  0  0  0  0
   54.6248   22.1893   47.7044 H   0  0  0  0  0  0  0  0  0  0  0  0
   54.6420   24.0190   45.3190 H   0  0  0  0  0  0  0  0  0  0  0  0
   56.6788   30.1693   44.9024 H   0  0  0  0  0  0  0  0  0  0  0  0
   61.8508   29.0174   46.2236 H   0  0  0  0  0  0  0  0  0  0  0  0
   61.3286   30.3477   45.1129 H   0  0  0  0  0  0  0  0  0  0  0  0
   59.3828   30.3126   48.1145 H   0  0  0  0  0  0  0  0  0  0  0  0
   59.6312   31.9474   49.9816 H   0  0  0  0  0  0  0  0  0  0  0  0
   63.4704   33.1709   48.4050 H   0  0  0  0  0  0  0  0  0  0  0  0
   63.2307   31.5329   46.5391 H   0  0  0  0  0  0  0  0  0  0  0  0
   60.4102   27.2978   48.3234 H   0  0  0  0  0  0  0  0  0  0  0  0
   60.4623   26.1339   46.9562 H   0  0  0  0  0  0  0  0  0  0  0  0
   61.5435   27.5684   46.9562 H   0  0  0  0  0  0  0  0  0  0  0  0
  1  2  1  0
  2  3  1  0
  3  4  1  0
  4  5  1  0
  5  6  1  0
  6  7  1  0
  7  8  1  0
  8  9  2  0
  8 10  1  0
 10 11  2  0
 11 12  1  0
 11 13  1  0
 13 14  1  0
 14 15  2  0
 15 16  1  0
 16 17  2  0
 16 18  1  0
 18 19  1  0
 19 20  1  0
 20 21  2  0
 21 22  1  0
 22 23  2  0
 23 24  1  0
 23 25  1  0
 25 26  2  0
 18 27  1  0
 27 28  1  0
 27 29  2  0
 29 30  1  0
 30 31  2  0
 30 10  1  0
 29 14  1  0
 26 20  1  0
  1 32  1  0
  1 33  1  0
  1 34  1  0
  2 35  1  0
  2 36  1  0
  4 37  1  0
  4 38  1  0
  5 39  1  0
  5 40  1  0
  6 41  1  0
  6 42  1  0
  7 43  1  0
 15 44  1  0
 19 45  1  0
 19 46  1  0
 21 47  1  0
 22 48  1  0
 25 49  1  0
 26 50  1  0
 28 51  1  0
 28 52  1  0
 28 53  1  0
M  CHG  2  12  -1  13  -1
M  END
>  <UniqueID>  (23) 
20

>  <SMILES>  (23) 
CCOCCCNC(=O)c1c([O-])[n-]c2cc(=O)n(Cc3ccc(Cl)cc3)c(C)c2c1=O

>  <Energy>  (23) 
75.37909129593126

>  <Genealogy>  (23) 
CCOCCCNC(=O)c1c([O-])[n-]c2cc(=O)n(Cc3ccc(Cl)cc3)c(C)c2c1=O (protonated)
CCOCCCNC(=O)c1c([O-])[n-]c2cc(=O)n(Cc3ccc(Cl)cc3)c(C)c2c1=O (3D coordinates assigned)
CCOCCCNC(=O)c1c([O-])[n-]c2cc(=O)n(Cc3ccc(Cl)cc3)c(C)c2c1=O (optimized conformer: 75.37909129593126 kcal/mol)

>  <smiles>  (23) 
CCOCCCNC(=O)c1c(O)[nH]c2cc(=O)n(Cc3ccc(Cl)cc3)c(C)c2c1=O

>  <score_type>  (23) 
oracle

>  <origin>  (23) 
adg

>  <m_score__min__energy>  (23) 
-13.880000000000001

>  <m_primary>  (23) 
energy

$$$$
23:0
     RDKit          3D

 43 45  0  0  0  0  0  0  0  0999 V2000
   63.1920   33.8800   50.0560 C   0  0  0  0  0  0  0  0  0  0  0  0
   64.2620   33.1330   49.2670 C   0  0  0  0  0  0  0  0  0  0  0  0
   63.7010   32.0090   48.5910 O   0  0  0  0  0  0  0  0  0  0  0  0
   62.3600   31.8770   48.1970 C   0  0  0  0  0  0  0  0  0  0  0  0
   61.4580   30.9780   48.8340 C   0  0  0  0  0  0  0  0  0  0  0  0
   60.1160   30.8930   48.4160 C   0  0  0  0  0  0  0  0  0  0  0  0
   59.7130   31.7110   47.3660 C   0  0  0  0  0  0  0  0  0  0  0  0
   58.4900   31.8080   46.8280 N   0  0  0  0  0  0  0  0  0  0  0  0
   58.6680   32.7610   45.8780 C   0  0  0  0  0  0  0  0  0  0  0  0
   57.3290   33.3460   44.8430 S   0  0  0  0  0  0  0  0  0  0  0  0
   57.4770   31.9900   43.6290 C   0  0  0  0  0  0  0  0  0  0  0  0
   57.3670   30.6550   44.2990 C   0  0  0  0  0  0  0  0  0  0  0  0
   56.3370   30.3840   44.9730 O   0  0  0  0  0  0  0  0  0  0  0  0
   58.4170   29.6890   44.1470 N   0  0  0  0  0  0  0  0  0  0  0  0
   58.5670   28.5300   44.9830 C   0  0  0  0  0  0  0  0  0  0  0  0
   59.7970   28.2170   45.5890 C   0  0  0  0  0  0  0  0  0  0  0  0
   59.9270   27.0630   46.3640 C   0  0  0  0  0  0  0  0  0  0  0  0
   58.8390   26.2070   46.5370 C   0  0  0  0  0  0  0  0  0  0  0  0
   57.6110   26.4980   45.9270 C   0  0  0  0  0  0  0  0  0  0  0  0
   56.2270   25.4300   46.1300 S   0  0  0  0  0  0  0  0  0  0  0  0
   54.7650   26.3290   45.9270 N   0  0  0  0  0  0  0  0  0  0  0  0
   56.2630   24.8240   47.5050 O   0  0  0  0  0  0  0  0  0  0  0  0
   56.2690   24.3260   45.1120 O   0  0  0  0  0  0  0  0  0  0  0  0
   57.4830   27.6560   45.1470 C   0  0  0  0  0  0  0  0  0  0  0  0
   59.9290   33.2570   45.7940 N   0  0  0  0  0  0  0  0  0  0  0  0
   60.5680   32.5690   46.7520 C   0  0  0  0  0  0  0  0  0  0  0  0
   61.9000   32.6860   47.1390 C   0  0  0  0  0  0  0  0  0  0  0  0
   63.3747   33.7525   51.1332 H   0  0  0  0  0  0  0  0  0  0  0  0
   63.2289   34.9496   49.8020 H   0  0  0  0  0  0  0  0  0  0  0  0
   62.2006   33.4768   49.8020 H   0  0  0  0  0  0  0  0  0  0  0  0
   64.7057   33.8146   48.5264 H   0  0  0  0  0  0  0  0  0  0  0  0
   65.0311   32.7753   49.9674 H   0  0  0  0  0  0  0  0  0  0  0  0
   61.8127   30.3442   49.6601 H   0  0  0  0  0  0  0  0  0  0  0  0
   59.4109   30.2035   48.9031 H   0  0  0  0  0  0  0  0  0  0  0  0
   56.6739   32.0855   42.8834 H   0  0  0  0  0  0  0  0  0  0  0  0
   58.4624   32.0590   43.1451 H   0  0  0  0  0  0  0  0  0  0  0  0
   59.0770   29.8100   43.3470 H   0  0  0  0  0  0  0  0  0  0  0  0
   60.6605   28.8845   45.4517 H   0  0  0  0  0  0  0  0  0  0  0  0
   60.8905   26.8279   46.8398 H   0  0  0  0  0  0  0  0  0  0  0  0
   58.9450   25.3020   47.1533 H   0  0  0  0  0  0  0  0  0  0  0  0
   54.7600   27.0760   46.6540 H   0  0  0  0  0  0  0  0  0  0  0  0
   56.5231   27.8809   44.6591 H   0  0  0  0  0  0  0  0  0  0  0  0
   62.5754   33.3911   46.6324 H   0  0  0  0  0  0  0  0  0  0  0  0
  1  2  1  0
  2  3  1  0
  3  4  1  0
  4  5  2  0
  5  6  1  0
  6  7  2  0
  7  8  1  0
  8  9  1  0
  9 10  1  0
 10 11  1  0
 11 12  1  0
 12 13  2  0
 12 14  1  0
 14 15  1  0
 15 16  2  0
 16 17  1  0
 17 18  2  0
 18 19  1  0
 19 20  1  0
 20 21  1  0
 20 22  2  0
 20 23  2  0
 19 24  2  0
  9 25  2  0
 25 26  1  0
 26 27  2  0
 27  4  1  0
 26  7  1  0
 24 15  1  0
  1 28  1  0
  1 29  1  0
  1 30  1  0
  2 31  1  0
  2 32  1  0
  5 33  1  0
  6 34  1  0
 11 35  1  0
 11 36  1  0
 14 37  1  0
 16 38  1  0
 17 39  1  0
 18 40  1  0
 21 41  1  0
 24 42  1  0
 27 43  1  0
M  CHG  2   8  -1  21  -1
M  END
>  <UniqueID>  (24) 
21

>  <SMILES>  (24) 
CCOc1ccc2[n-]c(SCC(=O)Nc3cccc(S([NH-])(=O)=O)c3)nc2c1

>  <Energy>  (24) 
75.2878137089422

>  <Genealogy>  (24) 
CCOc1ccc2[n-]c(SCC(=O)Nc3cccc(S([NH-])(=O)=O)c3)nc2c1 (protonated)
CCOc1ccc2[n-]c(SCC(=O)Nc3cccc(S([NH-])(=O)=O)c3)nc2c1 (3D coordinates assigned)
CCOc1ccc2[n-]c(SCC(=O)Nc3cccc(S([NH-])(=O)=O)c3)nc2c1 (optimized conformer: 75.2878137089422 kcal/mol)

>  <smiles>  (24) 
CCOc1ccc2[nH]c(SCC(=O)Nc3cccc(S(N)(=O)=O)c3)nc2c1

>  <score_type>  (24) 
oracle

>  <origin>  (24) 
adg

>  <m_score__min__energy>  (24) 
-13.119999999999999

>  <m_primary>  (24) 
energy

$$$$
24:0
     RDKit          3D

 38 40  0  0  0  0  0  0  0  0999 V2000
   59.3634   35.6040   45.5959 H   0  0  0  0  0  0  0  0  0  0  0  0
   59.2700   34.6590   46.1510 C   0  0  0  0  0  0  0  0  0  0  0  0
   58.1580   33.9890   46.0290 N   0  0  0  0  0  0  0  0  0  0  0  0
   58.0100   32.5760   45.8180 C   0  0  0  0  0  0  0  0  0  0  0  0
   57.3820   32.1240   44.6530 C   0  0  0  0  0  0  0  0  0  0  0  0
   56.9906   32.8513   43.9265 H   0  0  0  0  0  0  0  0  0  0  0  0
   57.2480   30.7550   44.4050 C   0  0  0  0  0  0  0  0  0  0  0  0
   56.7344   30.4125   43.4945 H   0  0  0  0  0  0  0  0  0  0  0  0
   57.7650   29.8130   45.3110 C   0  0  0  0  0  0  0  0  0  0  0  0
   57.6160   28.3590   45.0460 C   0  0  0  0  0  0  0  0  0  0  0  0
   58.2840   27.7600   43.9680 C   0  0  0  0  0  0  0  0  0  0  0  0
   58.9315   28.3571   43.3091 H   0  0  0  0  0  0  0  0  0  0  0  0
   58.1130   26.3970   43.7470 C   0  0  0  0  0  0  0  0  0  0  0  0
   58.6275   25.9073   42.9071 H   0  0  0  0  0  0  0  0  0  0  0  0
   57.3120   25.6720   44.5670 N   0  0  0  0  0  0  0  0  0  0  0  0
   56.6650   26.2550   45.6140 C   0  0  0  0  0  0  0  0  0  0  0  0
   55.9010   25.5510   46.3970 N   0  0  0  0  0  0  0  0  0  0  0  0
   56.3320   24.3370   47.0820 C   0  0  0  0  0  0  0  0  0  0  0  0
   56.2774   24.4908   48.1698 H   0  0  0  0  0  0  0  0  0  0  0  0
   55.6754   23.5020   46.7963 H   0  0  0  0  0  0  0  0  0  0  0  0
   57.3682   24.1030   46.7963 H   0  0  0  0  0  0  0  0  0  0  0  0
   56.8180   27.5890   45.8450 N   0  0  0  0  0  0  0  0  0  0  0  0
   56.3310   28.0200   46.6650 H   0  0  0  0  0  0  0  0  0  0  0  0
   58.4280   30.2690   46.4640 C   0  0  0  0  0  0  0  0  0  0  0  0
   58.8456   29.5431   47.1772 H   0  0  0  0  0  0  0  0  0  0  0  0
   58.5600   31.6390   46.7100 C   0  0  0  0  0  0  0  0  0  0  0  0
   59.0967   31.9852   47.6056 H   0  0  0  0  0  0  0  0  0  0  0  0
   60.4140   34.2330   46.9860 C   0  0  0  0  0  0  0  0  0  0  0  0
   60.3550   34.2780   48.3920 C   0  0  0  0  0  0  0  0  0  0  0  0
   59.4352   34.6172   48.8909 H   0  0  0  0  0  0  0  0  0  0  0  0
   61.4590   33.8940   49.1560 C   0  0  0  0  0  0  0  0  0  0  0  0
   61.4007   33.9163   50.2542 H   0  0  0  0  0  0  0  0  0  0  0  0
   62.6390   33.4810   48.5280 C   0  0  0  0  0  0  0  0  0  0  0  0
   64.1480   32.9570   49.5750 Br  0  0  0  0  0  0  0  0  0  0  0  0
   62.7150   33.4640   47.1310 C   0  0  0  0  0  0  0  0  0  0  0  0
   63.6448   33.1480   46.6354 H   0  0  0  0  0  0  0  0  0  0  0  0
   61.6110   33.8480   46.3640 C   0  0  0  0  0  0  0  0  0  0  0  0
   61.6814   33.8482   45.2663 H   0  0  0  0  0  0  0  0  0  0  0  0
  1  2  1  0
  2  3  2  0
  3  4  1  0
  4  5  2  0
  5  6  1  0
  5  7  1  0
  7  8  1  0
  7  9  2  0
  9 10  1  0
 10 11  2  0
 11 12  1  0
 11 13  1  0
 13 14  1  0
 13 15  2  0
 15 16  1  0
 16 17  2  0
 17 18  1  0
 18 19  1  0
 18 20  1  0
 18 21  1  0
 16 22  1  0
 22 23  1  0
  9 24  1  0
 24 25  1  0
 24 26  2  0
 26 27  1  0
  2 28  1  0
 28 29  2  0
 29 30  1  0
 29 31  1  0
 31 32  1  0
 31 33  2  0
 33 34  1  0
 33 35  1  0
 35 36  1  0
 35 37  2  0
 37 38  1  0
 26  4  1  0
 37 28  1  0
 22 10  1  0
M  END
>  <UniqueID>  (25) 
22

>  <SMILES>  (25) 
C/N=c1\nccc(-c2ccc(/N=C\c3ccc(Br)cc3)cc2)[nH]1

>  <Energy>  (25) 
56.117993501709705

>  <Genealogy>  (25) 
C/N=c1\nccc(-c2ccc(/N=C\c3ccc(Br)cc3)cc2)[nH]1 (cis-trans isomerization)
C/N=c1\nccc(-c2ccc(/N=C\c3ccc(Br)cc3)cc2)[nH]1 (3D coordinates assigned)
C/N=c1\nccc(-c2ccc(/N=C\c3ccc(Br)cc3)cc2)[nH]1 (optimized conformer: 56.117993501709705 kcal/mol)

>  <smiles>  (25) 
CN=c1nccc(-c2ccc(N=Cc3ccc(Br)cc3)cc2)[nH]1

>  <score_type>  (25) 
oracle

>  <origin>  (25) 
adg

>  <m_score__min__energy>  (25) 
-9

>  <m_primary>  (25) 
energy

$$$$
25:0
     RDKit          3D

 42 45  0  0  0  0  0  0  0  0999 V2000
   59.9450   33.8030   53.3590 O   0  0  0  0  0  0  0  0  0  0  0  0
   59.3830   33.3410   52.3300 C   0  0  0  0  0  0  0  0  0  0  0  0
   59.8540   33.6800   51.1040 N   0  0  0  0  0  0  0  0  0  0  0  0
   59.2720   33.2020   49.9690 C   0  0  0  0  0  0  0  0  0  0  0  0
   59.7850   33.5750   48.6740 N   0  0  0  0  0  0  0  0  0  0  0  0
   58.8840   34.1950   47.6930 C   0  0  0  0  0  0  0  0  0  0  0  0
   59.4190   33.9910   46.2720 C   0  0  0  0  0  0  0  0  0  0  0  0
   60.7720   34.3930   46.1840 O   0  0  0  0  0  0  0  0  0  0  0  0
   61.5710   33.5370   46.9760 C   0  0  0  0  0  0  0  0  0  0  0  0
   61.2340   33.6950   48.4610 C   0  0  0  0  0  0  0  0  0  0  0  0
   58.2260   32.3850   50.0590 O   0  0  0  0  0  0  0  0  0  0  0  0
   57.7150   32.0120   51.2280 C   0  0  0  0  0  0  0  0  0  0  0  0
   56.6130   31.1520   51.2640 C   0  0  0  0  0  0  0  0  0  0  0  0
   56.0670   30.7510   52.4950 C   0  0  0  0  0  0  0  0  0  0  0  0
   54.8550   29.8600   52.5280 C   0  0  0  0  0  0  0  0  0  0  0  0
   53.6030   30.6830   52.3970 C   0  0  0  0  0  0  0  0  0  0  0  0
   52.7430   30.8470   53.4970 C   0  0  0  0  0  0  0  0  0  0  0  0
   51.5600   31.5780   53.3630 C   0  0  0  0  0  0  0  0  0  0  0  0
   51.2210   32.1440   52.1300 C   0  0  0  0  0  0  0  0  0  0  0  0
   50.0430   32.8690   51.9980 O   0  0  0  0  0  0  0  0  0  0  0  0
   52.0670   31.9770   51.0290 C   0  0  0  0  0  0  0  0  0  0  0  0
   53.2510   31.2460   51.1590 C   0  0  0  0  0  0  0  0  0  0  0  0
   56.6250   31.2340   53.6890 C   0  0  0  0  0  0  0  0  0  0  0  0
   57.7290   32.0910   53.6600 C   0  0  0  0  0  0  0  0  0  0  0  0
   58.2810   32.4830   52.4290 C   0  0  0  0  0  0  0  0  0  0  0  0
   57.8880   33.7354   47.7746 H   0  0  0  0  0  0  0  0  0  0  0  0
   58.8208   35.2737   47.8988 H   0  0  0  0  0  0  0  0  0  0  0  0
   59.3407   32.9265   46.0062 H   0  0  0  0  0  0  0  0  0  0  0  0
   58.8229   34.6027   45.5788 H   0  0  0  0  0  0  0  0  0  0  0  0
   61.3904   32.4946   46.6746 H   0  0  0  0  0  0  0  0  0  0  0  0
   62.6277   33.8028   46.8250 H   0  0  0  0  0  0  0  0  0  0  0  0
   61.7506   32.9117   49.0351 H   0  0  0  0  0  0  0  0  0  0  0  0
   61.5625   34.6895   48.7972 H   0  0  0  0  0  0  0  0  0  0  0  0
   56.1716   30.7878   50.3245 H   0  0  0  0  0  0  0  0  0  0  0  0
   54.9078   29.1434   51.6951 H   0  0  0  0  0  0  0  0  0  0  0  0
   54.8317   29.3203   53.4862 H   0  0  0  0  0  0  0  0  0  0  0  0
   53.0026   30.3980   54.4670 H   0  0  0  0  0  0  0  0  0  0  0  0
   50.8941   31.7086   54.2288 H   0  0  0  0  0  0  0  0  0  0  0  0
   51.8000   32.4218   50.0590 H   0  0  0  0  0  0  0  0  0  0  0  0
   53.9099   31.1109   50.2886 H   0  0  0  0  0  0  0  0  0  0  0  0
   56.1904   30.9360   54.6545 H   0  0  0  0  0  0  0  0  0  0  0  0
   58.1653   32.4583   54.6006 H   0  0  0  0  0  0  0  0  0  0  0  0
  1  2  2  0
  2  3  1  0
  3  4  2  0
  4  5  1  0
  5  6  1  0
  6  7  1  0
  7  8  1  0
  8  9  1  0
  9 10  1  0
  4 11  1  0
 11 12  1  0
 12 13  2  0
 13 14  1  0
 14 15  1  0
 15 16  1  0
 16 17  2  0
 17 18  1  0
 18 19  2  0
 19 20  1  0
 19 21  1  0
 21 22  2  0
 14 23  2  0
 23 24  1  0
 24 25  2  0
 25  2  1  0
 10  5  1  0
 25 12  1  0
 22 16  1  0
  6 26  1  0
  6 27  1  0
  7 28  1  0
  7 29  1  0
  9 30  1  0
  9 31  1  0
 10 32  1  0
 10 33  1  0
 13 34  1  0
 15 35  1  0
 15 36  1  0
 17 37  1  0
 18 38  1  0
 21 39  1  0
 22 40  1  0
 23 41  1  0
 24 42  1  0
M  CHG  1  20  -1
M  END
>  <UniqueID>  (26) 
23

>  <SMILES>  (26) 
O=c1nc(N2CCOCC2)oc2cc(Cc3ccc([O-])cc3)ccc12

>  <Energy>  (26) 
50.319535647414554

>  <Genealogy>  (26) 
O=c1nc(N2CCOCC2)oc2cc(Cc3ccc([O-])cc3)ccc12 (protonated)
O=c1nc(N2CCOCC2)oc2cc(Cc3ccc([O-])cc3)ccc12 (3D coordinates assigned)
O=c1nc(N2CCOCC2)oc2cc(Cc3ccc([O-])cc3)ccc12 (nonaromatic ring conformer: 50.319535647414554 kcal/mol)

>  <smiles>  (26) 
O=c1nc(N2CCOCC2)oc2cc(Cc3ccc(O)cc3)ccc12

>  <score_type>  (26) 
oracle

>  <origin>  (26) 
adg

>  <m_score__min__energy>  (26) 
-11.4

>  <m_primary>  (26) 
energy

$$$$
26:0
     RDKit          3D

 64 68  0  0  0  0  0  0  0  0999 V2000
   58.4160   31.1310   51.9740 C   0  0  0  0  0  0  0  0  0  0  0  0
   59.0020   30.5480   50.7610 N   0  0  0  0  0  0  0  0  0  0  0  0
   59.6700   29.3460   50.7880 C   0  0  0  0  0  0  0  0  0  0  0  0
   59.8260   28.7210   51.8730 O   0  0  0  0  0  0  0  0  0  0  0  0
   60.1750   28.8100   49.6350 N   0  0  0  0  0  0  0  0  0  0  0  0
   60.0250   29.4260   48.4280 C   0  0  0  0  0  0  0  0  0  0  0  0
   60.5010   28.8980   47.3900 O   0  0  0  0  0  0  0  0  0  0  0  0
   59.3220   30.6350   48.3930 C   0  0  0  0  0  0  0  0  0  0  0  0
   58.8340   31.1510   49.5490 C   0  0  0  0  0  0  0  0  0  0  0  0
   58.1950   32.3070   49.3180 N   0  0  0  0  0  0  0  0  0  0  0  0
   58.3090   32.4690   47.9760 C   0  0  0  0  0  0  0  0  0  0  0  0
   57.7280   33.4920   47.4060 N   0  0  0  0  0  0  0  0  0  0  0  0
   58.1480   34.4040   46.3470 C   0  0  0  0  0  0  0  0  0  0  0  0
   59.2840   35.3210   46.8220 C   0  0  0  0  0  0  0  0  0  0  0  0
   60.4630   34.5220   47.3130 C   0  0  0  0  0  0  0  0  0  0  0  0
   61.3650   33.9520   46.4000 C   0  0  0  0  0  0  0  0  0  0  0  0
   62.4700   33.2270   46.8610 C   0  0  0  0  0  0  0  0  0  0  0  0
   62.6860   33.0800   48.2330 C   0  0  0  0  0  0  0  0  0  0  0  0
   61.8010   33.6560   49.1470 C   0  0  0  0  0  0  0  0  0  0  0  0
   60.6930   34.3740   48.6920 C   0  0  0  0  0  0  0  0  0  0  0  0
   59.0140   31.4560   47.3590 N   0  0  0  0  0  0  0  0  0  0  0  0
   59.5680   31.3300   45.9970 C   0  0  0  0  0  0  0  0  0  0  0  0
   58.4620   31.0680   44.9640 C   0  0  0  0  0  0  0  0  0  0  0  0
   57.8510   29.7100   45.1310 C   0  0  0  0  0  0  0  0  0  0  0  0
   56.6060   29.5650   44.9680 O   0  0  0  0  0  0  0  0  0  0  0  0
   58.6560   28.6130   45.5850 N   0  0  0  0  0  0  0  0  0  0  0  0
   58.1460   27.2810   45.7270 C   0  0  0  0  0  0  0  0  0  0  0  0
   59.0060   26.1710   45.6510 C   0  0  0  0  0  0  0  0  0  0  0  0
   58.5010   24.8800   45.8200 C   0  0  0  0  0  0  0  0  0  0  0  0
   57.1310   24.6790   46.0230 C   0  0  0  0  0  0  0  0  0  0  0  0
   56.6480   23.3750   46.1880 O   0  0  0  0  0  0  0  0  0  0  0  0
   56.5380   22.4370   45.1500 C   0  0  0  0  0  0  0  0  0  0  0  0
   56.7150   22.8570   43.8270 C   0  0  0  0  0  0  0  0  0  0  0  0
   56.5990   21.9280   42.7890 C   0  0  0  0  0  0  0  0  0  0  0  0
   56.2910   20.6290   43.0630 N   0  0  0  0  0  0  0  0  0  0  0  0
   56.0800   20.2010   44.3350 C   0  0  0  0  0  0  0  0  0  0  0  0
   56.2050   21.0950   45.4030 C   0  0  0  0  0  0  0  0  0  0  0  0
   56.2730   25.7870   46.1010 C   0  0  0  0  0  0  0  0  0  0  0  0
   56.7820   27.0810   45.9660 C   0  0  0  0  0  0  0  0  0  0  0  0
   58.8772   30.6722   52.8610 H   0  0  0  0  0  0  0  0  0  0  0  0
   58.5993   32.2156   51.9850 H   0  0  0  0  0  0  0  0  0  0  0  0
   57.3324   30.9421   51.9850 H   0  0  0  0  0  0  0  0  0  0  0  0
   58.4977   33.8165   45.4853 H   0  0  0  0  0  0  0  0  0  0  0  0
   57.2888   35.0308   46.0661 H   0  0  0  0  0  0  0  0  0  0  0  0
   59.6058   35.9565   45.9838 H   0  0  0  0  0  0  0  0  0  0  0  0
   58.9097   35.9350   47.6544 H   0  0  0  0  0  0  0  0  0  0  0  0
   61.2026   34.0757   45.3191 H   0  0  0  0  0  0  0  0  0  0  0  0
   63.1684   32.7729   46.1426 H   0  0  0  0  0  0  0  0  0  0  0  0
   63.5545   32.5097   48.5942 H   0  0  0  0  0  0  0  0  0  0  0  0
   61.9770   33.5439   50.2270 H   0  0  0  0  0  0  0  0  0  0  0  0
   59.9978   34.8253   49.4151 H   0  0  0  0  0  0  0  0  0  0  0  0
   60.0889   32.2627   45.7348 H   0  0  0  0  0  0  0  0  0  0  0  0
   60.2631   30.4776   45.9836 H   0  0  0  0  0  0  0  0  0  0  0  0
   57.6763   31.8285   45.0837 H   0  0  0  0  0  0  0  0  0  0  0  0
   58.9131   31.1177   43.9620 H   0  0  0  0  0  0  0  0  0  0  0  0
   59.6370   28.8050   45.8970 H   0  0  0  0  0  0  0  0  0  0  0  0
   60.0787   26.3199   45.4580 H   0  0  0  0  0  0  0  0  0  0  0  0
   59.1830   24.0174   45.7934 H   0  0  0  0  0  0  0  0  0  0  0  0
   56.9436   23.9099   43.6056 H   0  0  0  0  0  0  0  0  0  0  0  0
   56.7568   22.2463   41.7480 H   0  0  0  0  0  0  0  0  0  0  0  0
   55.8109   19.1514   44.5248 H   0  0  0  0  0  0  0  0  0  0  0  0
   56.0437   20.7501   46.4350 H   0  0  0  0  0  0  0  0  0  0  0  0
   55.1964   25.6360   46.2690 H   0  0  0  0  0  0  0  0  0  0  0  0
   56.1076   27.9462   46.0479 H   0  0  0  0  0  0  0  0  0  0  0  0
  1  2  1  0
  2  3  1  0
  3  4  2  0
  3  5  1  0
  5  6  1  0
  6  7  2  0
  6  8  1  0
  8  9  2  0
  9 10  1  0
 10 11  1  0
 11 12  2  3
 12 13  1  0
 13 14  1  0
 14 15  1  0
 15 16  2  0
 16 17  1  0
 17 18  2  0
 18 19  1  0
 19 20  2  0
 11 21  1  0
 21 22  1  0
 22 23  1  0
 23 24  1  0
 24 25  2  0
 24 26  1  0
 26 27  1  0
 27 28  2  0
 28 29  1  0
 29 30  2  0
 30 31  1  0
 31 32  1  0
 32 33  2  0
 33 34  1  0
 34 35  2  0
 35 36  1  0
 36 37  2  0
 30 38  1  0
 38 39  2  0
  9  2  1  0
 20 15  1  0
 39 27  1  0
 21  8  1  0
 37 32  1  0
  1 40  1  0
  1 41  1  0
  1 42  1  0
 13 43  1  0
 13 44  1  0
 14 45  1  0
 14 46  1  0
 16 47  1  0
 17 48  1  0
 18 49  1  0
 19 50  1  0
 20 51  1  0
 22 52  1  0
 22 53  1  0
 23 54  1  0
 23 55  1  0
 26 56  1  0
 28 57  1  0
 29 58  1  0
 33 59  1  0
 34 60  1  0
 36 61  1  0
 37 62  1  0
 38 63  1  0
 39 64  1  0
M  CHG  2   5  -1  10  -1
M  END
>  <UniqueID>  (27) 
24

>  <SMILES>  (27) 
Cn1c(=O)[n-]c(=O)c2c1[n-]c(=NCCc1ccccc1)n2CCC(=O)Nc1ccc(Oc2ccncc2)cc1

>  <Energy>  (27) 
129.56401057230934

>  <Genealogy>  (27) 
Cn1c(=O)[n-]c(=O)c2c1[n-]c(=NCCc1ccccc1)n2CCC(=O)Nc1ccc(Oc2ccncc2)cc1 (protonated)
Cn1c(=O)[n-]c(=O)c2c1[n-]c(=NCCc1ccccc1)n2CCC(=O)Nc1ccc(Oc2ccncc2)cc1 (3D coordinates assigned)
Cn1c(=O)[n-]c(=O)c2c1[n-]c(=NCCc1ccccc1)n2CCC(=O)Nc1ccc(Oc2ccncc2)cc1 (optimized conformer: 129.56401057230934 kcal/mol)

>  <smiles>  (27) 
Cn1c(=O)[nH]c(=O)c2c1[nH]c(=NCCc1ccccc1)n2CCC(=O)Nc1ccc(Oc2ccncc2)cc1

>  <score_type>  (27) 
oracle

>  <origin>  (27) 
adg

>  <m_score__min__energy>  (27) 
-11.4

>  <m_primary>  (27) 
energy

$$$$
27:0
     RDKit          3D

 42 44  0  0  1  0  0  0  0  0999 V2000
   55.9160   25.5540   46.2030 O   0  0  0  0  0  0  0  0  0  0  0  0
   57.0050   26.1760   45.9420 C   0  0  0  0  0  0  0  0  0  0  0  0
   58.0980   25.3630   45.3880 C   0  0  0  0  0  0  0  0  0  0  0  0
   57.5650   24.1360   44.7020 C   0  0  0  0  0  0  0  0  0  0  0  0
   56.7230   24.2140   43.6120 C   0  0  0  0  0  0  0  0  0  0  0  0
   56.2990   23.0090   43.0720 C   0  0  0  0  0  0  0  0  0  0  0  0
   56.6860   21.7860   43.5810 C   0  0  0  0  0  0  0  0  0  0  0  0
   56.2460   20.6020   43.0220 O   0  0  0  0  0  0  0  0  0  0  0  0
   57.5220   21.7260   44.6640 C   0  0  0  0  0  0  0  0  0  0  0  0
   57.9650   22.9140   45.2270 C   0  0  0  0  0  0  0  0  0  0  0  0
   57.0200   27.5500   46.2150 N   0  0  0  0  0  0  0  0  0  0  0  0
   56.7900   28.4980   45.4500 C   0  0  0  0  0  0  0  0  0  0  0  0
   55.7090   29.2150   45.0990 N   0  0  0  0  0  0  0  0  0  0  0  0
   55.8400   30.1480   44.2540 N   0  0  0  0  0  0  0  0  0  0  0  0
   56.9530   30.4840   43.6840 C   0  0  0  0  0  0  0  0  0  0  0  0
   57.3920   31.4940   42.6980 C   0  0  0  0  0  0  0  0  0  0  0  0
   58.2650   32.7670   43.5900 S   0  0  0  0  0  0  0  0  0  0  0  0
   57.3640   33.5690   44.9020 C   0  0  0  0  0  0  0  0  0  0  0  0
   58.1910   33.6770   46.1200 C   0  0  0  0  0  0  0  0  0  0  0  0
   57.9400   32.7510   47.1280 C   0  0  0  0  0  0  0  0  0  0  0  0
   58.6540   32.7860   48.3260 C   0  0  0  0  0  0  0  0  0  0  0  0
   59.6250   33.7380   48.5400 C   0  0  0  0  0  0  0  0  0  0  0  0
   59.8720   34.6540   47.5400 C   0  0  0  0  0  0  0  0  0  0  0  0
   59.1590   34.6150   46.3490 C   0  0  0  0  0  0  0  0  0  0  0  0
   59.4620   35.5170   45.4160 F   0  0  0  0  0  0  0  0  0  0  0  0
   58.1180   29.3060   44.4160 S   0  0  0  0  0  0  0  0  0  0  0  0
   58.6609   25.9658   44.6601 H   0  0  0  0  0  0  0  0  0  0  0  0
   58.7512   25.0457   46.2142 H   0  0  0  0  0  0  0  0  0  0  0  0
   56.4049   25.1803   43.1935 H   0  0  0  0  0  0  0  0  0  0  0  0
   55.6263   23.0289   42.2019 H   0  0  0  0  0  0  0  0  0  0  0  0
   56.7870   19.7590   43.1380 H   0  0  0  0  0  0  0  0  0  0  0  0
   57.8355   20.7566   45.0786 H   0  0  0  0  0  0  0  0  0  0  0  0
   58.6385   22.8879   46.0963 H   0  0  0  0  0  0  0  0  0  0  0  0
   54.7610   28.9670   45.5530 H   0  0  0  0  0  0  0  0  0  0  0  0
   58.0588   31.0301   41.9563 H   0  0  0  0  0  0  0  0  0  0  0  0
   56.5279   31.9169   42.1647 H   0  0  0  0  0  0  0  0  0  0  0  0
   57.0723   34.5777   44.5742 H   0  0  0  0  0  0  0  0  0  0  0  0
   56.4728   32.9677   45.1347 H   0  0  0  0  0  0  0  0  0  0  0  0
   57.1685   31.9814   46.9782 H   0  0  0  0  0  0  0  0  0  0  0  0
   58.4385   32.0440   49.1089 H   0  0  0  0  0  0  0  0  0  0  0  0
   60.1889   33.7670   49.4840 H   0  0  0  0  0  0  0  0  0  0  0  0
   60.6428   35.4248   47.6871 H   0  0  0  0  0  0  0  0  0  0  0  0
  1  2  2  0
  2  3  1  0
  3  4  1  0
  4  5  2  0
  5  6  1  0
  6  7  2  0
  7  8  1  0
  7  9  1  0
  9 10  2  0
  2 11  1  0
 11 12  2  0
 12 13  1  0
 13 14  1  0
 14 15  2  0
 15 16  1  0
 16 17  1  0
 17 18  1  0
 18 19  1  0
 19 20  2  0
 20 21  1  0
 21 22  2  0
 22 23  1  0
 23 24  2  0
 24 25  1  0
 15 26  1  0
 10  4  1  0
 26 12  1  0
 24 19  1  0
  3 27  1  0
  3 28  1  0
  5 29  1  0
  6 30  1  0
  8 31  1  0
  9 32  1  0
 10 33  1  0
 13 34  1  0
 16 35  1  0
 16 36  1  0
 18 37  1  0
 18 38  1  0
 20 39  1  0
 21 40  1  0
 22 41  1  0
 23 42  1  0
M  END
>  <smiles>  (28) 
O=C(Cc1ccc(O)cc1)N=c1[nH]nc(CSCc2ccccc2F)s1

>  <score_type>  (28) 
oracle

>  <origin>  (28) 
adg

>  <m_score__min__energy>  (28) 
-10.4

>  <m_primary>  (28) 
energy

$$$$
28:0
     RDKit          3D

 79 83  0  0  0  0  0  0  0  0999 V2000
   63.6800   33.0850   46.9260 C   0  0  0  0  0  0  0  0  0  0  0  0
   62.2070   32.8270   47.2330 C   0  0  0  0  0  0  0  0  0  0  0  0
   61.4980   34.1180   47.6630 C   0  0  0  0  0  0  0  0  0  0  0  0
   61.0740   34.0910   49.1370 C   0  0  0  0  0  0  0  0  0  0  0  0
   62.2000   33.6430   50.0300 C   0  0  0  0  0  0  0  0  0  0  0  0
   63.4560   34.1240   49.9080 N   0  0  0  0  0  0  0  0  0  0  0  0
   64.1830   33.5170   50.8340 N   0  0  0  0  0  0  0  0  0  0  0  0
   65.5910   33.7310   51.0440 C   0  0  0  0  0  0  0  0  0  0  0  0
   66.5140   32.9240   50.3550 C   0  0  0  0  0  0  0  0  0  0  0  0
   67.8850   33.1310   50.4940 C   0  0  0  0  0  0  0  0  0  0  0  0
   68.3580   34.1480   51.3170 C   0  0  0  0  0  0  0  0  0  0  0  0
   67.4620   34.9550   52.0200 C   0  0  0  0  0  0  0  0  0  0  0  0
   66.0710   34.7490   51.9150 C   0  0  0  0  0  0  0  0  0  0  0  0
   65.1290   35.6350   52.7040 C   0  0  0  0  0  0  0  0  0  0  0  0
   65.8260   36.6730   53.3020 F   0  0  0  0  0  0  0  0  0  0  0  0
   64.5010   34.8820   53.6830 F   0  0  0  0  0  0  0  0  0  0  0  0
   64.1560   36.1920   51.8890 F   0  0  0  0  0  0  0  0  0  0  0  0
   63.3750   32.6630   51.4900 C   0  0  0  0  0  0  0  0  0  0  0  0
   63.7400   31.9350   52.4530 O   0  0  0  0  0  0  0  0  0  0  0  0
   62.1180   32.7060   51.0070 N   0  0  0  0  0  0  0  0  0  0  0  0
   60.9530   31.9710   51.5070 C   0  0  0  0  0  0  0  0  0  0  0  0
   60.5400   30.9190   50.5140 C   0  0  0  0  0  0  0  0  0  0  0  0
   59.2860   30.2950   50.6190 C   0  0  0  0  0  0  0  0  0  0  0  0
   58.8850   29.3520   49.6680 C   0  0  0  0  0  0  0  0  0  0  0  0
   59.7250   29.0350   48.5910 C   0  0  0  0  0  0  0  0  0  0  0  0
   59.2930   28.0530   47.5810 C   0  0  0  0  0  0  0  0  0  0  0  0
   59.5480   26.6930   47.8180 C   0  0  0  0  0  0  0  0  0  0  0  0
   59.1520   25.7280   46.8900 C   0  0  0  0  0  0  0  0  0  0  0  0
   58.4940   26.1110   45.7200 C   0  0  0  0  0  0  0  0  0  0  0  0
   58.2290   27.4610   45.4750 C   0  0  0  0  0  0  0  0  0  0  0  0
   58.6250   28.4450   46.3960 C   0  0  0  0  0  0  0  0  0  0  0  0
   58.2420   30.1430   46.0710 S   0  0  0  0  0  0  0  0  0  0  0  0
   59.3160   30.7650   45.2210 O   0  0  0  0  0  0  0  0  0  0  0  0
   58.1420   30.8910   47.3710 O   0  0  0  0  0  0  0  0  0  0  0  0
   56.7350   30.2300   45.2220 N   0  0  0  0  0  0  0  0  0  0  0  0
   56.6620   30.2880   43.7950 C   0  0  0  0  0  0  0  0  0  0  0  0
   55.6350   29.8670   43.1950 O   0  0  0  0  0  0  0  0  0  0  0  0
   57.7320   30.8900   43.0510 N   0  0  0  0  0  0  0  0  0  0  0  0
   57.4720   32.3240   42.8810 C   0  0  0  0  0  0  0  0  0  0  0  0
   57.8510   33.0800   44.1260 C   0  0  0  0  0  0  0  0  0  0  0  0
   59.0390   33.8290   44.1640 C   0  0  0  0  0  0  0  0  0  0  0  0
   59.3830   34.5460   45.3140 C   0  0  0  0  0  0  0  0  0  0  0  0
   58.5380   34.5300   46.4270 C   0  0  0  0  0  0  0  0  0  0  0  0
   57.3470   33.8000   46.3910 C   0  0  0  0  0  0  0  0  0  0  0  0
   57.0010   33.0780   45.2440 C   0  0  0  0  0  0  0  0  0  0  0  0
   60.9790   29.6540   48.4850 C   0  0  0  0  0  0  0  0  0  0  0  0
   61.3810   30.5940   49.4370 C   0  0  0  0  0  0  0  0  0  0  0  0
   64.2392   33.1829   47.8682 H   0  0  0  0  0  0  0  0  0  0  0  0
   64.0860   32.2443   46.3443 H   0  0  0  0  0  0  0  0  0  0  0  0
   63.7761   34.0137   46.3443 H   0  0  0  0  0  0  0  0  0  0  0  0
   61.7163   32.4307   46.3318 H   0  0  0  0  0  0  0  0  0  0  0  0
   62.1438   32.1023   48.0581 H   0  0  0  0  0  0  0  0  0  0  0  0
   62.1825   34.9650   47.5081 H   0  0  0  0  0  0  0  0  0  0  0  0
   60.5872   34.2183   47.0545 H   0  0  0  0  0  0  0  0  0  0  0  0
   60.7613   35.1021   49.4370 H   0  0  0  0  0  0  0  0  0  0  0  0
   60.2454   33.3754   49.2433 H   0  0  0  0  0  0  0  0  0  0  0  0
   66.1494   32.1200   49.6987 H   0  0  0  0  0  0  0  0  0  0  0  0
   68.5948   32.4889   49.9518 H   0  0  0  0  0  0  0  0  0  0  0  0
   69.4407   34.3166   51.4140 H   0  0  0  0  0  0  0  0  0  0  0  0
   67.8453   35.7608   52.6632 H   0  0  0  0  0  0  0  0  0  0  0  0
   61.2093   31.4891   52.4620 H   0  0  0  0  0  0  0  0  0  0  0  0
   60.1198   32.6740   51.6541 H   0  0  0  0  0  0  0  0  0  0  0  0
   58.6162   30.5495   51.4536 H   0  0  0  0  0  0  0  0  0  0  0  0
   57.9074   28.8571   49.7650 H   0  0  0  0  0  0  0  0  0  0  0  0
   60.0628   26.3859   48.7403 H   0  0  0  0  0  0  0  0  0  0  0  0
   59.3588   24.6646   47.0810 H   0  0  0  0  0  0  0  0  0  0  0  0
   58.1836   25.3491   44.9898 H   0  0  0  0  0  0  0  0  0  0  0  0
   57.7059   27.7556   44.5533 H   0  0  0  0  0  0  0  0  0  0  0  0
   58.6320   30.7460   43.5690 H   0  0  0  0  0  0  0  0  0  0  0  0
   57.8040   30.4260   42.1140 H   0  0  0  0  0  0  0  0  0  0  0  0
   58.0640   32.7013   42.0342 H   0  0  0  0  0  0  0  0  0  0  0  0
   56.3989   32.4705   42.6888 H   0  0  0  0  0  0  0  0  0  0  0  0
   59.7010   33.8514   43.2858 H   0  0  0  0  0  0  0  0  0  0  0  0
   60.3191   35.1229   45.3427 H   0  0  0  0  0  0  0  0  0  0  0  0
   58.8106   35.0925   47.3321 H   0  0  0  0  0  0  0  0  0  0  0  0
   56.6805   33.7931   47.2661 H   0  0  0  0  0  0  0  0  0  0  0  0
   56.0610   32.5073   45.2176 H   0  0  0  0  0  0  0  0  0  0  0  0
   61.6479   29.3986   47.6499 H   0  0  0  0  0  0  0  0  0  0  0  0
   62.3620   31.0826   49.3426 H   0  0  0  0  0  0  0  0  0  0  0  0
  1  2  1  0
  2  3  1  0
  3  4  1  0
  4  5  1  0
  5  6  2  0
  6  7  1  0
  7  8  1  0
  8  9  2  0
  9 10  1  0
 10 11  2  0
 11 12  1  0
 12 13  2  0
 13 14  1  0
 14 15  1  0
 14 16  1  0
 14 17  1  0
  7 18  1  0
 18 19  2  0
 18 20  1  0
 20 21  1  0
 21 22  1  0
 22 23  2  0
 23 24  1  0
 24 25  2  0
 25 26  1  0
 26 27  2  0
 27 28  1  0
 28 29  2  0
 29 30  1  0
 30 31  2  0
 31 32  1  0
 32 33  2  0
 32 34  2  0
 32 35  1  0
 35 36  1  0
 36 37  2  0
 36 38  1  0
 38 39  1  0
 39 40  1  0
 40 41  2  0
 41 42  1  0
 42 43  2  0
 43 44  1  0
 44 45  2  0
 25 46  1  0
 46 47  2  0
 20  5  1  0
 47 22  1  0
 13  8  1  0
 31 26  1  0
 45 40  1  0
  1 48  1  0
  1 49  1  0
  1 50  1  0
  2 51  1  0
  2 52  1  0
  3 53  1  0
  3 54  1  0
  4 55  1  0
  4 56  1  0
  9 57  1  0
 10 58  1  0
 11 59  1  0
 12 60  1  0
 21 61  1  0
 21 62  1  0
 23 63  1  0
 24 64  1  0
 27 65  1  0
 28 66  1  0
 29 67  1  0
 30 68  1  0
 38 69  1  0
 38 70  1  0
 39 71  1  0
 39 72  1  0
 41 73  1  0
 42 74  1  0
 43 75  1  0
 44 76  1  0
 45 77  1  0
 46 78  1  0
 47 79  1  0
M  CHG  2  35  -1  38   1
M  END
>  <UniqueID>  (29) 
25

>  <SMILES>  (29) 
CCCCc1nn(-c2ccccc2C(F)(F)F)c(=O)n1Cc1ccc(-c2ccccc2S(=O)(=O)[N-]C(=O)[NH2+]Cc2ccccc2)cc1

>  <Energy>  (29) 
124.01931983622194

>  <Genealogy>  (29) 
CCCCc1nn(-c2ccccc2C(F)(F)F)c(=O)n1Cc1ccc(-c2ccccc2S(=O)(=O)[N-]C(=O)[NH2+]Cc2ccccc2)cc1 (protonated)
CCCCc1nn(-c2ccccc2C(F)(F)F)c(=O)n1Cc1ccc(-c2ccccc2S(=O)(=O)[N-]C(=O)[NH2+]Cc2ccccc2)cc1 (3D coordinates assigned)
CCCCc1nn(-c2ccccc2C(F)(F)F)c(=O)n1Cc1ccc(-c2ccccc2S(=O)(=O)[N-]C(=O)[NH2+]Cc2ccccc2)cc1 (optimized conformer: 124.01931983622194 kcal/mol)

>  <smiles>  (29) 
CCCCc1nn(-c2ccccc2C(F)(F)F)c(=O)n1Cc1ccc(-c2ccccc2S(=O)(=O)NC(=O)NCc2ccccc2)cc1

>  <score_type>  (29) 
oracle

>  <origin>  (29) 
adg

>  <m_score__min__energy>  (29) 
-10.18

>  <m_primary>  (29) 
energy

$$$$
29:0
     RDKit          3D

 57 60  0  0  0  0  0  0  0  0999 V2000
   57.2060   29.6910   43.8230 C   0  0  0  0  0  0  0  0  0  0  0  0
   57.7320   30.7730   44.7210 C   0  0  0  0  0  0  0  0  0  0  0  0
   57.4920   32.1130   44.4280 C   0  0  0  0  0  0  0  0  0  0  0  0
   58.0110   33.1380   45.2360 C   0  0  0  0  0  0  0  0  0  0  0  0
   57.6360   34.5510   44.8690 C   0  0  0  0  0  0  0  0  0  0  0  0
   58.8530   32.8150   46.3460 C   0  0  0  0  0  0  0  0  0  0  0  0
   59.6290   34.1170   47.3150 S   0  0  0  0  0  0  0  0  0  0  0  0
   58.8960   34.2370   48.6220 O   0  0  0  0  0  0  0  0  0  0  0  0
   59.5660   35.4540   46.6330 O   0  0  0  0  0  0  0  0  0  0  0  0
   61.3570   33.8410   47.5870 C   0  0  0  0  0  0  0  0  0  0  0  0
   62.1760   33.4520   46.5150 C   0  0  0  0  0  0  0  0  0  0  0  0
   63.5110   33.1240   46.7520 C   0  0  0  0  0  0  0  0  0  0  0  0
   64.0140   33.1670   48.0500 C   0  0  0  0  0  0  0  0  0  0  0  0
   63.1740   33.5550   49.0960 C   0  0  0  0  0  0  0  0  0  0  0  0
   61.8740   33.8820   48.8530 N   0  0  0  0  0  0  0  0  0  0  0  0
   61.0740   34.2360   49.9160 O   0  0  0  0  0  0  0  0  0  0  0  0
   59.0440   31.4340   46.6670 C   0  0  0  0  0  0  0  0  0  0  0  0
   59.9560   30.8350   48.0690 S   0  0  0  0  0  0  0  0  0  0  0  0
   61.4290   30.9440   47.7920 O   0  0  0  0  0  0  0  0  0  0  0  0
   59.6410   29.3950   48.3420 O   0  0  0  0  0  0  0  0  0  0  0  0
   59.5660   31.8330   49.4320 N   0  0  0  0  0  0  0  0  0  0  0  0
   58.7590   31.4540   50.5530 C   0  0  0  0  0  0  0  0  0  0  0  0
   58.5410   30.1120   50.9040 C   0  0  0  0  0  0  0  0  0  0  0  0
   57.6360   29.7890   51.9200 C   0  0  0  0  0  0  0  0  0  0  0  0
   56.9610   30.8030   52.6150 C   0  0  0  0  0  0  0  0  0  0  0  0
   55.8740   30.4550   53.5930 C   0  0  0  0  0  0  0  0  0  0  0  0
   54.5870   30.2170   52.8490 C   0  0  0  0  0  0  0  0  0  0  0  0
   53.6540   29.2840   53.3260 C   0  0  0  0  0  0  0  0  0  0  0  0
   52.4990   29.0260   52.5830 C   0  0  0  0  0  0  0  0  0  0  0  0
   52.2890   29.6670   51.4030 N   0  0  0  0  0  0  0  0  0  0  0  0
   53.1830   30.5660   50.9120 C   0  0  0  0  0  0  0  0  0  0  0  0
   54.3500   30.8550   51.6230 C   0  0  0  0  0  0  0  0  0  0  0  0
   57.2250   32.1450   52.3020 C   0  0  0  0  0  0  0  0  0  0  0  0
   58.1260   32.4650   51.2850 C   0  0  0  0  0  0  0  0  0  0  0  0
   58.5050   30.4450   45.8310 C   0  0  0  0  0  0  0  0  0  0  0  0
   56.8063   28.8688   44.4348 H   0  0  0  0  0  0  0  0  0  0  0  0
   56.4054   30.0984   43.1881 H   0  0  0  0  0  0  0  0  0  0  0  0
   58.0209   29.3130   43.1881 H   0  0  0  0  0  0  0  0  0  0  0  0
   56.8852   32.3734   43.5482 H   0  0  0  0  0  0  0  0  0  0  0  0
   57.4800   35.1388   45.7856 H   0  0  0  0  0  0  0  0  0  0  0  0
   58.4453   35.0031   44.2768 H   0  0  0  0  0  0  0  0  0  0  0  0
   56.7091   34.5423   44.2768 H   0  0  0  0  0  0  0  0  0  0  0  0
   61.7675   33.4062   45.4947 H   0  0  0  0  0  0  0  0  0  0  0  0
   64.1643   32.8324   45.9164 H   0  0  0  0  0  0  0  0  0  0  0  0
   65.0619   32.8982   48.2492 H   0  0  0  0  0  0  0  0  0  0  0  0
   63.5648   33.5969   50.1234 H   0  0  0  0  0  0  0  0  0  0  0  0
   59.0836   29.3125   50.3783 H   0  0  0  0  0  0  0  0  0  0  0  0
   57.4527   28.7348   52.1752 H   0  0  0  0  0  0  0  0  0  0  0  0
   56.1534   29.5443   54.1430 H   0  0  0  0  0  0  0  0  0  0  0  0
   55.7394   31.2849   54.3023 H   0  0  0  0  0  0  0  0  0  0  0  0
   53.8303   28.7600   54.2770 H   0  0  0  0  0  0  0  0  0  0  0  0
   51.7581   28.3025   52.9539 H   0  0  0  0  0  0  0  0  0  0  0  0
   52.9868   31.0669   49.9525 H   0  0  0  0  0  0  0  0  0  0  0  0
   55.0774   31.5774   51.2243 H   0  0  0  0  0  0  0  0  0  0  0  0
   56.7203   32.9476   52.8598 H   0  0  0  0  0  0  0  0  0  0  0  0
   58.3401   33.5197   51.0572 H   0  0  0  0  0  0  0  0  0  0  0  0
   58.6976   29.3860   46.0578 H   0  0  0  0  0  0  0  0  0  0  0  0
  1  2  1  0
  2  3  2  0
  3  4  1  0
  4  5  1  0
  4  6  2  0
  6  7  1  0
  7  8  2  0
  7  9  2  0
  7 10  1  0
 10 11  2  0
 11 12  1  0
 12 13  2  0
 13 14  1  0
 14 15  2  0
 15 16  1  0
  6 17  1  0
 17 18  1  0
 18 19  2  0
 18 20  2  0
 18 21  1  0
 21 22  1  0
 22 23  2  0
 23 24  1  0
 24 25  2  0
 25 26  1  0
 26 27  1  0
 27 28  2  0
 28 29  1  0
 29 30  2  0
 30 31  1  0
 31 32  2  0
 25 33  1  0
 33 34  2  0
 17 35  2  0
 35  2  1  0
 15 10  1  0
 34 22  1  0
 32 27  1  0
  1 36  1  0
  1 37  1  0
  1 38  1  0
  3 39  1  0
  5 40  1  0
  5 41  1  0
  5 42  1  0
 11 43  1  0
 12 44  1  0
 13 45  1  0
 14 46  1  0
 23 47  1  0
 24 48  1  0
 26 49  1  0
 26 50  1  0
 28 51  1  0
 29 52  1  0
 31 53  1  0
 32 54  1  0
 33 55  1  0
 34 56  1  0
 35 57  1  0
M  CHG  3  15   1  16  -1  21  -1
M  END
>  <UniqueID>  (30) 
26

>  <SMILES>  (30) 
Cc1cc(C)c(S(=O)(=O)c2cccc[n+]2[O-])c(S(=O)(=O)[N-]c2ccc(Cc3ccncc3)cc2)c1

>  <Energy>  (30) 
73.5923511294367

>  <Genealogy>  (30) 
Cc1cc(C)c(S(=O)(=O)c2cccc[n+]2[O-])c(S(=O)(=O)[N-]c2ccc(Cc3ccncc3)cc2)c1 (protonated)
Cc1cc(C)c(S(=O)(=O)c2cccc[n+]2[O-])c(S(=O)(=O)[N-]c2ccc(Cc3ccncc3)cc2)c1 (3D coordinates assigned)
Cc1cc(C)c(S(=O)(=O)c2cccc[n+]2[O-])c(S(=O)(=O)[N-]c2ccc(Cc3ccncc3)cc2)c1 (optimized conformer: 73.5923511294367 kcal/mol)

>  <smiles>  (30) 
Cc1cc(C)c(S(=O)(=O)c2cccc[n+]2[O-])c(S(=O)(=O)Nc2ccc(Cc3ccncc3)cc2)c1

>  <score_type>  (30) 
oracle

>  <origin>  (30) 
adg

>  <m_score__min__energy>  (30) 
-10.99

>  <m_primary>  (30) 
energy

$$$$
30:0
     RDKit          3D

 33 34  0  0  0  0  0  0  0  0999 V2000
   64.1150   33.0440   48.6200 C   0  0  0  0  0  0  0  0  0  0  0  0
   63.2970   32.8550   47.3480 C   0  0  0  0  0  0  0  0  0  0  0  0
   61.9390   33.4850   47.4900 C   0  0  0  0  0  0  0  0  0  0  0  0
   61.3650   33.6610   48.7550 C   0  0  0  0  0  0  0  0  0  0  0  0
   60.0920   34.2170   48.8690 C   0  0  0  0  0  0  0  0  0  0  0  0
   59.3940   34.5780   47.7160 C   0  0  0  0  0  0  0  0  0  0  0  0
   59.9420   34.3790   46.4790 N   0  0  0  0  0  0  0  0  0  0  0  0
   59.1910   34.7490   45.2700 C   0  0  0  0  0  0  0  0  0  0  0  0
   57.9100   33.9600   45.1710 C   0  0  0  0  0  0  0  0  0  0  0  0
   56.8170   34.5860   45.2370 O   0  0  0  0  0  0  0  0  0  0  0  0
   57.8950   32.4890   44.9550 C   0  0  0  0  0  0  0  0  0  0  0  0
   58.3630   31.5950   45.9370 C   0  0  0  0  0  0  0  0  0  0  0  0
   58.3500   30.2150   45.7060 C   0  0  0  0  0  0  0  0  0  0  0  0
   57.8650   29.7100   44.4980 C   0  0  0  0  0  0  0  0  0  0  0  0
   57.8500   27.9790   44.2120 Cl  0  0  0  0  0  0  0  0  0  0  0  0
   57.3890   30.5840   43.5180 C   0  0  0  0  0  0  0  0  0  0  0  0
   57.4020   31.9640   43.7440 C   0  0  0  0  0  0  0  0  0  0  0  0
   61.1990   33.8520   46.3560 C   0  0  0  0  0  0  0  0  0  0  0  0
   63.4685   32.8946   49.4973 H   0  0  0  0  0  0  0  0  0  0  0  0
   64.9357   32.3118   48.6404 H   0  0  0  0  0  0  0  0  0  0  0  0
   64.5313   34.0620   48.6404 H   0  0  0  0  0  0  0  0  0  0  0  0
   63.8262   33.3241   46.5055 H   0  0  0  0  0  0  0  0  0  0  0  0
   63.1695   31.7776   47.1667 H   0  0  0  0  0  0  0  0  0  0  0  0
   61.9179   33.3609   49.6574 H   0  0  0  0  0  0  0  0  0  0  0  0
   59.6410   34.3701   49.8605 H   0  0  0  0  0  0  0  0  0  0  0  0
   58.3935   35.0269   47.8029 H   0  0  0  0  0  0  0  0  0  0  0  0
   58.9513   35.8219   45.3090 H   0  0  0  0  0  0  0  0  0  0  0  0
   59.8106   34.5260   44.3889 H   0  0  0  0  0  0  0  0  0  0  0  0
   58.7419   31.9846   46.8934 H   0  0  0  0  0  0  0  0  0  0  0  0
   58.7229   29.5261   46.4782 H   0  0  0  0  0  0  0  0  0  0  0  0
   57.0035   30.1865   42.5675 H   0  0  0  0  0  0  0  0  0  0  0  0
   57.0236   32.6464   42.9686 H   0  0  0  0  0  0  0  0  0  0  0  0
   61.6346   33.7144   45.3554 H   0  0  0  0  0  0  0  0  0  0  0  0
  1  2  1  0
  2  3  1  0
  3  4  2  0
  4  5  1  0
  5  6  2  0
  6  7  1  0
  7  8  1  0
  8  9  1  0
  9 10  2  0
  9 11  1  0
 11 12  2  0
 12 13  1  0
 13 14  2  0
 14 15  1  0
 14 16  1  0
 16 17  2  0
  7 18  2  0
 18  3  1  0
 17 11  1  0
  1 19  1  0
  1 20  1  0
  1 21  1  0
  2 22  1  0
  2 23  1  0
  4 24  1  0
  5 25  1  0
  6 26  1  0
  8 27  1  0
  8 28  1  0
 12 29  1  0
 13 30  1  0
 16 31  1  0
 17 32  1  0
 18 33  1  0
M  CHG  1   7   1
M  END
>  <UniqueID>  (31) 
27

>  <SMILES>  (31) 
CCc1ccc[n+](CC(=O)c2ccc(Cl)cc2)c1

>  <Energy>  (31) 
31.732097375178665

>  <Genealogy>  (31) 
CCc1ccc[n+](CC(=O)c2ccc(Cl)cc2)c1 (3D coordinates assigned)
CCc1ccc[n+](CC(=O)c2ccc(Cl)cc2)c1 (optimized conformer: 31.732097375178665 kcal/mol)

>  <smiles>  (31) 
CCc1ccc[n+](CC(=O)c2ccc(Cl)cc2)c1

>  <score_type>  (31) 
oracle

>  <origin>  (31) 
adg

>  <m_score__min__energy>  (31) 
-5.6200000000000001

>  <m_primary>  (31) 
energy

$$$$
31:0
     RDKit          3D

 62 66  0  0  0  0  0  0  0  0999 V2000
   57.9724   30.9443   52.3728 H   0  0  0  0  0  0  0  0  0  0  0  0
   58.4700   30.7560   51.4100 C   0  0  0  0  0  0  0  0  0  0  0  0
   58.1150   29.7270   50.5940 N   0  0  0  0  0  0  0  0  0  0  0  0
   58.8670   29.6880   49.4750 C   0  0  0  0  0  0  0  0  0  0  0  0
   58.6930   28.7750   48.5610 N   0  0  0  0  0  0  0  0  0  0  0  0
   59.6270   27.7710   48.1350 C   0  0  0  0  0  0  0  0  0  0  0  0
   60.3070   27.1140   48.9670 O   0  0  0  0  0  0  0  0  0  0  0  0
   59.6760   27.4050   46.6820 C   0  0  0  0  0  0  0  0  0  0  0  0
   60.4879   27.9707   46.2017 H   0  0  0  0  0  0  0  0  0  0  0  0
   59.8474   26.3206   46.6132 H   0  0  0  0  0  0  0  0  0  0  0  0
   58.3840   27.7140   45.9720 C   0  0  0  0  0  0  0  0  0  0  0  0
   57.1450   27.0270   46.0290 C   0  0  0  0  0  0  0  0  0  0  0  0
   56.8560   25.8020   46.7940 C   0  0  0  0  0  0  0  0  0  0  0  0
   57.7720   25.2620   47.4710 O   0  0  0  0  0  0  0  0  0  0  0  0
   55.5580   25.2110   46.7440 N   0  0  0  0  0  0  0  0  0  0  0  0
   55.2890   23.5030   46.7650 S   0  0  0  0  0  0  0  0  0  0  0  0
   55.8680   22.9430   48.0320 O   0  0  0  0  0  0  0  0  0  0  0  0
   53.8130   23.2350   46.7370 O   0  0  0  0  0  0  0  0  0  0  0  0
   56.0770   22.7260   45.3890 C   0  0  0  0  0  0  0  0  0  0  0  0
   55.7460   23.1120   44.0810 C   0  0  0  0  0  0  0  0  0  0  0  0
   54.9808   23.8849   43.9163 H   0  0  0  0  0  0  0  0  0  0  0  0
   56.3820   22.5210   42.9870 C   0  0  0  0  0  0  0  0  0  0  0  0
   56.1150   22.8275   41.9649 H   0  0  0  0  0  0  0  0  0  0  0  0
   57.3550   21.5430   43.1890 C   0  0  0  0  0  0  0  0  0  0  0  0
   57.8537   21.0774   42.3261 H   0  0  0  0  0  0  0  0  0  0  0  0
   57.6970   21.1540   44.4860 C   0  0  0  0  0  0  0  0  0  0  0  0
   58.4627   20.3793   44.6396 H   0  0  0  0  0  0  0  0  0  0  0  0
   57.0680   21.7470   45.6000 C   0  0  0  0  0  0  0  0  0  0  0  0
   57.4060   21.3930   46.9170 O   0  0  0  0  0  0  0  0  0  0  0  0
   57.1200   20.1310   47.5130 C   0  0  0  0  0  0  0  0  0  0  0  0
   57.6195   19.3349   46.9414 H   0  0  0  0  0  0  0  0  0  0  0  0
   57.4865   20.1262   48.5501 H   0  0  0  0  0  0  0  0  0  0  0  0
   55.6180   19.8910   47.5080 C   0  0  0  0  0  0  0  0  0  0  0  0
   55.3903   18.9942   48.1029 H   0  0  0  0  0  0  0  0  0  0  0  0
   55.1109   20.7652   47.9424 H   0  0  0  0  0  0  0  0  0  0  0  0
   55.1740   19.7060   46.2130 F   0  0  0  0  0  0  0  0  0  0  0  0
   56.1710   27.7200   45.3710 N   0  0  0  0  0  0  0  0  0  0  0  0
   55.1460   27.5170   45.3380 H   0  0  0  0  0  0  0  0  0  0  0  0
   56.8010   28.8130   44.9260 C   0  0  0  0  0  0  0  0  0  0  0  0
   56.4140   30.0580   44.4960 C   0  0  0  0  0  0  0  0  0  0  0  0
   55.1230   30.4540   44.1630 O   0  0  0  0  0  0  0  0  0  0  0  0
   57.5030   30.8770   44.5270 N   0  0  0  0  0  0  0  0  0  0  0  0
   57.5130   32.3180   44.2780 C   0  0  0  0  0  0  0  0  0  0  0  0
   58.1119   32.5280   43.3795 H   0  0  0  0  0  0  0  0  0  0  0  0
   56.4800   32.6650   44.1283 H   0  0  0  0  0  0  0  0  0  0  0  0
   58.1110   33.0420   45.4560 C   0  0  0  0  0  0  0  0  0  0  0  0
   59.0510   34.0690   45.2550 C   0  0  0  0  0  0  0  0  0  0  0  0
   59.3126   34.3784   44.2323 H   0  0  0  0  0  0  0  0  0  0  0  0
   59.6550   34.6990   46.3480 C   0  0  0  0  0  0  0  0  0  0  0  0
   60.3895   35.5012   46.1837 H   0  0  0  0  0  0  0  0  0  0  0  0
   59.3250   34.3090   47.6490 C   0  0  0  0  0  0  0  0  0  0  0  0
   59.7977   34.8060   48.5090 H   0  0  0  0  0  0  0  0  0  0  0  0
   58.3930   33.2860   47.8570 C   0  0  0  0  0  0  0  0  0  0  0  0
   58.1343   32.9800   48.8814 H   0  0  0  0  0  0  0  0  0  0  0  0
   57.7890   32.6510   46.7660 C   0  0  0  0  0  0  0  0  0  0  0  0
   57.0607   31.8441   46.9347 H   0  0  0  0  0  0  0  0  0  0  0  0
   58.5300   30.1350   45.0370 C   0  0  0  0  0  0  0  0  0  0  0  0
   59.7870   30.6310   45.3540 O   0  0  0  0  0  0  0  0  0  0  0  0
   58.0800   28.8560   45.2720 C   0  0  0  0  0  0  0  0  0  0  0  0
   60.0010   30.9360   49.4530 S   0  0  0  0  0  0  0  0  0  0  0  0
   59.5060   31.5510   50.9390 C   0  0  0  0  0  0  0  0  0  0  0  0
   59.9293   32.4294   51.4482 H   0  0  0  0  0  0  0  0  0  0  0  0
  1  2  1  0
  2  3  1  0
  3  4  1  0
  4  5  2  0
  5  6  1  0
  6  7  2  0
  6  8  1  0
  8  9  1  0
  8 10  1  0
  8 11  1  0
 11 12  2  0
 12 13  1  0
 13 14  2  0
 13 15  1  0
 15 16  1  0
 16 17  2  0
 16 18  2  0
 16 19  1  0
 19 20  2  0
 20 21  1  0
 20 22  1  0
 22 23  1  0
 22 24  2  0
 24 25  1  0
 24 26  1  0
 26 27  1  0
 26 28  2  0
 28 29  1  0
 29 30  1  0
 30 31  1  0
 30 32  1  0
 30 33  1  0
 33 34  1  0
 33 35  1  0
 33 36  1  0
 12 37  1  0
 37 38  1  0
 37 39  1  0
 39 40  2  0
 40 41  1  0
 40 42  1  0
 42 43  1  0
 43 44  1  0
 43 45  1  0
 43 46  1  0
 46 47  2  0
 47 48  1  0
 47 49  1  0
 49 50  1  0
 49 51  2  0
 51 52  1  0
 51 53  1  0
 53 54  1  0
 53 55  2  0
 55 56  1  0
 42 57  1  0
 57 58  1  0
 57 59  2  0
  4 60  1  0
 60 61  1  0
 61 62  1  0
 61  2  2  0
 59 11  1  0
 28 19  1  0
 59 39  1  0
 55 46  1  0
M  CHG  4   3  -1  15  -1  41  -1  58  -1
M  END
>  <UniqueID>  (32) 
28

>  <SMILES>  (32) 
O=C(Cc1c(C(=O)[N-]S(=O)(=O)c2ccccc2OCCF)[nH]c2c([O-])n(Cc3ccccc3)c([O-])c12)/N=c1/[n-]ccs1

>  <Energy>  (32) 
187.81185073959318

>  <Genealogy>  (32) 
O=C(Cc1c(C(=O)[N-]S(=O)(=O)c2ccccc2OCCF)[nH]c2c([O-])n(Cc3ccccc3)c([O-])c12)N=c1[n-]ccs1 (protonated)
O=C(Cc1c(C(=O)[N-]S(=O)(=O)c2ccccc2OCCF)[nH]c2c([O-])n(Cc3ccccc3)c([O-])c12)/N=c1/[n-]ccs1 (cis-trans isomerization)
O=C(Cc1c(C(=O)[N-]S(=O)(=O)c2ccccc2OCCF)[nH]c2c([O-])n(Cc3ccccc3)c([O-])c12)/N=c1/[n-]ccs1 (3D coordinates assigned)
O=C(Cc1c(C(=O)[N-]S(=O)(=O)c2ccccc2OCCF)[nH]c2c([O-])n(Cc3ccccc3)c([O-])c12)/N=c1/[n-]ccs1 (optimized conformer: 187.81185073959318 kcal/mol)

>  <smiles>  (32) 
O=C(Cc1c(C(=O)NS(=O)(=O)c2ccccc2OCCF)[nH]c2c(O)n(Cc3ccccc3)c(O)c12)N=c1[nH]ccs1

>  <score_type>  (32) 
oracle

>  <origin>  (32) 
adg

>  <m_score__min__energy>  (32) 
-16.190000000000001

>  <m_primary>  (32) 
energy

$$$$
32:0
     RDKit          3D

 44 46  0  0  0  0  0  0  0  0999 V2000
   59.9630   32.1280   49.1710 C   0  0  0  0  0  0  0  0  0  0  0  0
   60.5760   32.5860   47.9700 O   0  0  0  0  0  0  0  0  0  0  0  0
   59.9080   33.2810   46.9500 C   0  0  0  0  0  0  0  0  0  0  0  0
   59.9950   34.6820   46.8230 C   0  0  0  0  0  0  0  0  0  0  0  0
   59.3170   35.3410   45.7950 C   0  0  0  0  0  0  0  0  0  0  0  0
   58.5550   34.6160   44.8800 C   0  0  0  0  0  0  0  0  0  0  0  0
   58.4610   33.2270   44.9940 C   0  0  0  0  0  0  0  0  0  0  0  0
   59.1220   32.5510   46.0360 C   0  0  0  0  0  0  0  0  0  0  0  0
   59.0530   31.1180   46.1420 N   0  0  0  0  0  0  0  0  0  0  0  0
   57.9760   30.3310   45.6010 C   0  0  0  0  0  0  0  0  0  0  0  0
   57.0000   30.9000   45.0400 O   0  0  0  0  0  0  0  0  0  0  0  0
   57.9830   28.8510   45.6980 C   0  0  0  0  0  0  0  0  0  0  0  0
   57.7950   28.0410   44.5630 C   0  0  0  0  0  0  0  0  0  0  0  0
   57.8120   26.6480   44.6760 C   0  0  0  0  0  0  0  0  0  0  0  0
   58.0260   26.0380   45.9210 C   0  0  0  0  0  0  0  0  0  0  0  0
   58.0590   24.5380   46.0440 C   0  0  0  0  0  0  0  0  0  0  0  0
   56.9870   23.9340   45.2440 N   0  0  0  0  0  0  0  0  0  0  0  0
   55.6840   24.2740   45.2710 C   0  0  0  0  0  0  0  0  0  0  0  0
   55.2020   25.2070   45.9680 O   0  0  0  0  0  0  0  0  0  0  0  0
   54.9580   23.4500   44.4380 C   0  0  0  0  0  0  0  0  0  0  0  0
   55.9050   22.5860   43.9140 C   0  0  0  0  0  0  0  0  0  0  0  0
   57.1190   22.9060   44.4130 N   0  0  0  0  0  0  0  0  0  0  0  0
   58.3550   22.1730   44.1500 C   0  0  0  0  0  0  0  0  0  0  0  0
   58.2240   26.8410   47.0520 C   0  0  0  0  0  0  0  0  0  0  0  0
   58.2080   28.2340   46.9420 C   0  0  0  0  0  0  0  0  0  0  0  0
   60.5058   32.5336   50.0375 H   0  0  0  0  0  0  0  0  0  0  0  0
   58.9173   32.4678   49.2016 H   0  0  0  0  0  0  0  0  0  0  0  0
   59.9924   31.0288   49.2016 H   0  0  0  0  0  0  0  0  0  0  0  0
   60.6001   35.2595   47.5374 H   0  0  0  0  0  0  0  0  0  0  0  0
   59.3845   36.4354   45.7071 H   0  0  0  0  0  0  0  0  0  0  0  0
   58.0276   35.1380   44.0680 H   0  0  0  0  0  0  0  0  0  0  0  0
   57.8663   32.6579   44.2643 H   0  0  0  0  0  0  0  0  0  0  0  0
   59.8150   30.6440   46.6750 H   0  0  0  0  0  0  0  0  0  0  0  0
   57.6335   28.5073   43.5799 H   0  0  0  0  0  0  0  0  0  0  0  0
   57.6565   26.0256   43.7824 H   0  0  0  0  0  0  0  0  0  0  0  0
   59.0308   24.1666   45.6867 H   0  0  0  0  0  0  0  0  0  0  0  0
   57.9136   24.2638   47.0993 H   0  0  0  0  0  0  0  0  0  0  0  0
   53.8769   23.4733   44.2362 H   0  0  0  0  0  0  0  0  0  0  0  0
   55.7014   21.7699   43.2051 H   0  0  0  0  0  0  0  0  0  0  0  0
   58.8258   21.8938   45.1041 H   0  0  0  0  0  0  0  0  0  0  0  0
   58.1268   21.2641   43.5739 H   0  0  0  0  0  0  0  0  0  0  0  0
   59.0431   22.8092   43.5739 H   0  0  0  0  0  0  0  0  0  0  0  0
   58.3931   26.3720   48.0325 H   0  0  0  0  0  0  0  0  0  0  0  0
   58.3728   28.8534   47.8360 H   0  0  0  0  0  0  0  0  0  0  0  0
  1  2  1  0
  2  3  1  0
  3  4  2  0
  4  5  1  0
  5  6  2  0
  6  7  1  0
  7  8  2  0
  8  9  1  0
  9 10  1  0
 10 11  2  0
 10 12  1  0
 12 13  2  0
 13 14  1  0
 14 15  2  0
 15 16  1  0
 16 17  1  0
 17 18  1  0
 18 19  2  0
 18 20  1  0
 20 21  2  0
 21 22  1  0
 22 23  1  0
 15 24  1  0
 24 25  2  0
  8  3  1  0
 25 12  1  0
 22 17  1  0
  1 26  1  0
  1 27  1  0
  1 28  1  0
  4 29  1  0
  5 30  1  0
  6 31  1  0
  7 32  1  0
  9 33  1  0
 13 34  1  0
 14 35  1  0
 16 36  1  0
 16 37  1  0
 20 38  1  0
 21 39  1  0
 23 40  1  0
 23 41  1  0
 23 42  1  0
 24 43  1  0
 25 44  1  0
M  END
>  <UniqueID>  (33) 
29

>  <SMILES>  (33) 
COc1ccccc1NC(=O)c1ccc(Cn2c(=O)ccn2C)cc1

>  <Energy>  (33) 
84.15989285505137

>  <Genealogy>  (33) 
COc1ccccc1NC(=O)c1ccc(Cn2c(=O)ccn2C)cc1 (3D coordinates assigned)
COc1ccccc1NC(=O)c1ccc(Cn2c(=O)ccn2C)cc1 (optimized conformer: 84.15989285505137 kcal/mol)

>  <smiles>  (33) 
COc1ccccc1NC(=O)c1ccc(Cn2c(=O)ccn2C)cc1

>  <score_type>  (33) 
oracle

>  <origin>  (33) 
adg

>  <m_score__min__energy>  (33) 
-7.3099999999999996

>  <m_primary>  (33) 
energy

$$$$
33:0
     RDKit          3D

 39 40  0  0  0  0  0  0  0  0999 V2000
   62.8920   34.1960   48.9250 C   0  0  0  0  0  0  0  0  0  0  0  0
   62.6920   33.1630   47.9010 N   0  0  0  0  0  0  0  0  0  0  0  0
   63.6030   33.0840   46.7540 C   0  0  0  0  0  0  0  0  0  0  0  0
   61.6170   32.2040   48.0060 C   0  0  0  0  0  0  0  0  0  0  0  0
   61.4570   31.3440   47.0950 O   0  0  0  0  0  0  0  0  0  0  0  0
   60.6560   32.1970   49.1640 C   0  0  0  0  0  0  0  0  0  0  0  0
   58.9310   31.9730   48.6050 S   0  0  0  0  0  0  0  0  0  0  0  0
   59.0490   33.1240   47.2260 C   0  0  0  0  0  0  0  0  0  0  0  0
   59.4750   34.3880   47.4930 N   0  0  0  0  0  0  0  0  0  0  0  0
   59.5660   35.3420   46.5310 C   0  0  0  0  0  0  0  0  0  0  0  0
   59.2140   35.0400   45.2170 C   0  0  0  0  0  0  0  0  0  0  0  0
   58.7800   33.7520   44.9050 C   0  0  0  0  0  0  0  0  0  0  0  0
   58.6940   32.7670   45.9020 C   0  0  0  0  0  0  0  0  0  0  0  0
   58.2570   31.3980   45.5290 C   0  0  0  0  0  0  0  0  0  0  0  0
   57.1390   31.2230   44.9730 O   0  0  0  0  0  0  0  0  0  0  0  0
   59.1130   30.2720   45.7860 N   0  0  0  0  0  0  0  0  0  0  0  0
   58.6780   28.9020   45.7310 C   0  0  0  0  0  0  0  0  0  0  0  0
   59.5990   27.8410   45.6380 C   0  0  0  0  0  0  0  0  0  0  0  0
   59.1480   26.5190   45.5680 C   0  0  0  0  0  0  0  0  0  0  0  0
   57.7780   26.2450   45.5770 C   0  0  0  0  0  0  0  0  0  0  0  0
   56.8560   27.2920   45.6450 C   0  0  0  0  0  0  0  0  0  0  0  0
   55.5260   27.0250   45.6410 F   0  0  0  0  0  0  0  0  0  0  0  0
   57.3030   28.6150   45.7120 C   0  0  0  0  0  0  0  0  0  0  0  0
   62.8045   33.7438   49.9239 H   0  0  0  0  0  0  0  0  0  0  0  0
   63.8925   34.6383   48.8091 H   0  0  0  0  0  0  0  0  0  0  0  0
   62.1289   34.9798   48.8091 H   0  0  0  0  0  0  0  0  0  0  0  0
   64.6386   32.9942   47.1138 H   0  0  0  0  0  0  0  0  0  0  0  0
   63.3492   32.2045   46.1440 H   0  0  0  0  0  0  0  0  0  0  0  0
   63.5044   33.9941   46.1440 H   0  0  0  0  0  0  0  0  0  0  0  0
   60.9211   31.3731   49.8429 H   0  0  0  0  0  0  0  0  0  0  0  0
   60.7282   33.1674   49.6770 H   0  0  0  0  0  0  0  0  0  0  0  0
   59.9172   36.3521   46.7887 H   0  0  0  0  0  0  0  0  0  0  0  0
   59.2778   35.8098   44.4338 H   0  0  0  0  0  0  0  0  0  0  0  0
   58.5028   33.5056   43.8694 H   0  0  0  0  0  0  0  0  0  0  0  0
   60.1350   30.4540   45.9000 H   0  0  0  0  0  0  0  0  0  0  0  0
   60.6783   28.0529   45.6203 H   0  0  0  0  0  0  0  0  0  0  0  0
   59.8728   25.6939   45.5058 H   0  0  0  0  0  0  0  0  0  0  0  0
   57.4253   25.2041   45.5305 H   0  0  0  0  0  0  0  0  0  0  0  0
   56.5729   29.4369   45.7501 H   0  0  0  0  0  0  0  0  0  0  0  0
  1  2  1  0
  2  3  1  0
  2  4  1  0
  4  5  2  0
  4  6  1  0
  6  7  1  0
  7  8  1  0
  8  9  2  0
  9 10  1  0
 10 11  2  0
 11 12  1  0
 12 13  2  0
 13 14  1  0
 14 15  2  0
 14 16  1  0
 16 17  1  0
 17 18  2  0
 18 19  1  0
 19 20  2  0
 20 21  1  0
 21 22  1  0
 21 23  2  0
 13  8  1  0
 23 17  1  0
  1 24  1  0
  1 25  1  0
  1 26  1  0
  3 27  1  0
  3 28  1  0
  3 29  1  0
  6 30  1  0
  6 31  1  0
 10 32  1  0
 11 33  1  0
 12 34  1  0
 16 35  1  0
 18 36  1  0
 19 37  1  0
 20 38  1  0
 23 39  1  0
M  END
>  <UniqueID>  (34) 
30

>  <SMILES>  (34) 
CN(C)C(=O)CSc1ncccc1C(=O)Nc1cccc(F)c1

>  <Energy>  (34) 
39.18082408747483

>  <Genealogy>  (34) 
CN(C)C(=O)CSc1ncccc1C(=O)Nc1cccc(F)c1 (3D coordinates assigned)
CN(C)C(=O)CSc1ncccc1C(=O)Nc1cccc(F)c1 (optimized conformer: 39.18082408747483 kcal/mol)

>  <smiles>  (34) 
CN(C)C(=O)CSc1ncccc1C(=O)Nc1cccc(F)c1

>  <score_type>  (34) 
oracle

>  <origin>  (34) 
adg

>  <m_score__min__energy>  (34) 
-7.0300000000000002

>  <m_primary>  (34) 
energy

$$$$
34:0
     RDKit          3D

 34 35  0  0  0  0  0  0  0  0999 V2000
   58.8766   28.6403   48.9121 H   0  0  0  0  0  0  0  0  0  0  0  0
   58.9360   29.7370   48.8510 C   0  0  0  0  0  0  0  0  0  0  0  0
   59.1350   30.3920   47.6760 N   0  0  0  0  0  0  0  0  0  0  0  0
   59.1700   31.7320   47.8590 C   0  0  0  0  0  0  0  0  0  0  0  0
   59.3610   32.5990   46.9090 N   0  0  0  0  0  0  0  0  0  0  0  0
   58.3470   33.2050   46.0920 C   0  0  0  0  0  0  0  0  0  0  0  0
   57.8000   34.2830   46.4510 O   0  0  0  0  0  0  0  0  0  0  0  0
   57.9440   32.5620   44.8190 C   0  0  0  0  0  0  0  0  0  0  0  0
   58.4880   32.9950   43.5950 C   0  0  0  0  0  0  0  0  0  0  0  0
   59.2134   33.8218   43.5816 H   0  0  0  0  0  0  0  0  0  0  0  0
   58.1130   32.3820   42.3980 C   0  0  0  0  0  0  0  0  0  0  0  0
   58.5424   32.7291   41.4466 H   0  0  0  0  0  0  0  0  0  0  0  0
   57.1950   31.3300   42.4040 C   0  0  0  0  0  0  0  0  0  0  0  0
   56.9045   30.8509   41.4574 H   0  0  0  0  0  0  0  0  0  0  0  0
   56.6420   30.8820   43.6120 C   0  0  0  0  0  0  0  0  0  0  0  0
   55.6530   29.7470   43.6080 C   0  0  0  0  0  0  0  0  0  0  0  0
   55.9279   29.0297   42.8207 H   0  0  0  0  0  0  0  0  0  0  0  0
   54.6476   30.1508   43.4177 H   0  0  0  0  0  0  0  0  0  0  0  0
   55.6530   29.0670   44.8990 N   0  0  0  0  0  0  0  0  0  0  0  0
   56.5690   28.0220   45.2470 C   0  0  0  0  0  0  0  0  0  0  0  0
   56.2010   27.0780   45.9970 O   0  0  0  0  0  0  0  0  0  0  0  0
   57.9440   28.0610   44.7280 C   0  0  0  0  0  0  0  0  0  0  0  0
   58.2630   27.3100   43.7680 O   0  0  0  0  0  0  0  0  0  0  0  0
   58.9180   28.9400   45.3050 N   0  0  0  0  0  0  0  0  0  0  0  0
   58.6460   29.5750   46.0890 H   0  0  0  0  0  0  0  0  0  0  0  0
   60.3020   28.9540   44.8470 C   0  0  0  0  0  0  0  0  0  0  0  0
   60.9759   28.9608   45.7164 H   0  0  0  0  0  0  0  0  0  0  0  0
   60.4963   28.0578   44.2395 H   0  0  0  0  0  0  0  0  0  0  0  0
   60.4781   29.8540   44.2395 H   0  0  0  0  0  0  0  0  0  0  0  0
   57.0160   31.5030   44.8140 C   0  0  0  0  0  0  0  0  0  0  0  0
   56.5791   31.1584   45.7629 H   0  0  0  0  0  0  0  0  0  0  0  0
   58.9550   32.1540   49.4680 S   0  0  0  0  0  0  0  0  0  0  0  0
   58.8130   30.5540   49.9700 C   0  0  0  0  0  0  0  0  0  0  0  0
   58.6511   30.2135   51.0034 H   0  0  0  0  0  0  0  0  0  0  0  0
  1  2  1  0
  2  3  1  0
  3  4  1  0
  4  5  2  0
  5  6  1  0
  6  7  2  0
  6  8  1  0
  8  9  2  0
  9 10  1  0
  9 11  1  0
 11 12  1  0
 11 13  2  0
 13 14  1  0
 13 15  1  0
 15 16  1  0
 16 17  1  0
 16 18  1  0
 16 19  1  0
 19 20  1  0
 20 21  2  0
 20 22  1  0
 22 23  2  0
 22 24  1  0
 24 25  1  0
 24 26  1  0
 26 27  1  0
 26 28  1  0
 26 29  1  0
 15 30  2  0
 30 31  1  0
  4 32  1  0
 32 33  1  0
 33 34  1  0
 33  2  2  0
 30  8  1  0
M  CHG  2   3  -1  19  -1
M  END
>  <UniqueID>  (35) 
31

>  <SMILES>  (35) 
CNC(=O)C(=O)[N-]Cc1cccc(C(=O)/N=c2\[n-]ccs2)c1

>  <Energy>  (35) 
60.614437937626604

>  <Genealogy>  (35) 
CNC(=O)C(=O)[N-]Cc1cccc(C(=O)N=c2[n-]ccs2)c1 (protonated)
CNC(=O)C(=O)[N-]Cc1cccc(C(=O)/N=c2\[n-]ccs2)c1 (cis-trans isomerization)
CNC(=O)C(=O)[N-]Cc1cccc(C(=O)/N=c2\[n-]ccs2)c1 (3D coordinates assigned)
CNC(=O)C(=O)[N-]Cc1cccc(C(=O)/N=c2\[n-]ccs2)c1 (optimized conformer: 60.614437937626604 kcal/mol)

>  <smiles>  (35) 
CNC(=O)C(=O)NCc1cccc(C(=O)N=c2[nH]ccs2)c1

>  <score_type>  (35) 
oracle

>  <origin>  (35) 
adg

>  <m_score__min__energy>  (35) 
-10.94

>  <m_primary>  (35) 
energy

$$$$
35:0
     RDKit          3D

 42 44  0  0  0  0  0  0  0  0999 V2000
   56.6852   34.5686   45.3974 H   0  0  0  0  0  0  0  0  0  0  0  0
   57.6080   34.2240   45.8870 C   0  0  0  0  0  0  0  0  0  0  0  0
   58.8190   34.5990   45.3950 N   0  0  0  0  0  0  0  0  0  0  0  0
   59.9820   34.1920   45.9720 C   0  0  0  0  0  0  0  0  0  0  0  0
   60.9453   34.5152   45.5506 H   0  0  0  0  0  0  0  0  0  0  0  0
   59.9570   33.3620   47.1020 C   0  0  0  0  0  0  0  0  0  0  0  0
   61.2400   32.9290   47.7550 C   0  0  0  0  0  0  0  0  0  0  0  0
   61.8067   33.8188   48.0668 H   0  0  0  0  0  0  0  0  0  0  0  0
   61.8274   32.3412   47.0343 H   0  0  0  0  0  0  0  0  0  0  0  0
   60.9600   32.1030   48.9240 N   0  0  0  0  0  0  0  0  0  0  0  0
   61.1640   30.6850   48.9620 C   0  0  0  0  0  0  0  0  0  0  0  0
   62.0250   30.1980   49.7440 O   0  0  0  0  0  0  0  0  0  0  0  0
   60.3680   29.7940   48.0860 C   0  0  0  0  0  0  0  0  0  0  0  0
   59.3600   28.9740   48.6240 C   0  0  0  0  0  0  0  0  0  0  0  0
   59.1617   28.9924   49.7058 H   0  0  0  0  0  0  0  0  0  0  0  0
   58.6080   28.1360   47.7960 C   0  0  0  0  0  0  0  0  0  0  0  0
   57.8265   27.4952   48.2304 H   0  0  0  0  0  0  0  0  0  0  0  0
   58.8450   28.1080   46.4130 C   0  0  0  0  0  0  0  0  0  0  0  0
   58.0530   27.1800   45.5250 C   0  0  0  0  0  0  0  0  0  0  0  0
   58.3114   26.1408   45.7767 H   0  0  0  0  0  0  0  0  0  0  0  0
   58.3066   27.4103   44.4797 H   0  0  0  0  0  0  0  0  0  0  0  0
   56.5650   27.3680   45.6970 C   0  0  0  0  0  0  0  0  0  0  0  0
   55.8890   26.4730   46.2730 O   0  0  0  0  0  0  0  0  0  0  0  0
   55.8760   28.5400   45.2260 N   0  0  0  0  0  0  0  0  0  0  0  0
   56.3620   29.5460   44.5570 C   0  0  0  0  0  0  0  0  0  0  0  0
   57.1280   30.5010   45.1590 N   0  0  0  0  0  0  0  0  0  0  0  0
   57.6560   31.5450   44.4660 C   0  0  0  0  0  0  0  0  0  0  0  0
   58.2629   32.3000   44.9871 H   0  0  0  0  0  0  0  0  0  0  0  0
   57.4280   31.6590   43.0930 C   0  0  0  0  0  0  0  0  0  0  0  0
   57.8520   32.5010   42.5263 H   0  0  0  0  0  0  0  0  0  0  0  0
   56.6560   30.6920   42.4490 C   0  0  0  0  0  0  0  0  0  0  0  0
   56.4688   30.7672   41.3677 H   0  0  0  0  0  0  0  0  0  0  0  0
   56.1210   29.6280   43.1790 C   0  0  0  0  0  0  0  0  0  0  0  0
   55.5150   28.8601   42.6759 H   0  0  0  0  0  0  0  0  0  0  0  0
   59.8580   28.9130   45.8740 C   0  0  0  0  0  0  0  0  0  0  0  0
   60.0619   28.8845   44.7934 H   0  0  0  0  0  0  0  0  0  0  0  0
   60.6110   29.7520   46.7010 C   0  0  0  0  0  0  0  0  0  0  0  0
   61.3991   30.3838   46.2655 H   0  0  0  0  0  0  0  0  0  0  0  0
   58.7140   32.9710   47.6240 C   0  0  0  0  0  0  0  0  0  0  0  0
   58.6689   32.3256   48.5136 H   0  0  0  0  0  0  0  0  0  0  0  0
   57.5350   33.4020   47.0130 C   0  0  0  0  0  0  0  0  0  0  0  0
   56.5577   33.0967   47.4151 H   0  0  0  0  0  0  0  0  0  0  0  0
  1  2  1  0
  2  3  2  0
  3  4  1  0
  4  5  1  0
  4  6  2  0
  6  7  1  0
  7  8  1  0
  7  9  1  0
  7 10  1  0
 10 11  1  0
 11 12  2  0
 11 13  1  0
 13 14  2  0
 14 15  1  0
 14 16  1  0
 16 17  1  0
 16 18  2  0
 18 19  1  0
 19 20  1  0
 19 21  1  0
 19 22  1  0
 22 23  2  0
 22 24  1  0
 24 25  2  0
 25 26  1  0
 26 27  1  0
 27 28  1  0
 27 29  2  0
 29 30  1  0
 29 31  1  0
 31 32  1  0
 31 33  2  0
 33 34  1  0
 18 35  1  0
 35 36  1  0
 35 37  2  0
 37 38  1  0
  6 39  1  0
 39 40  1  0
 39 41  2  0
 41 42  1  0
 41  2  1  0
 37 13  1  0
 33 25  1  0
M  CHG  2  10  -1  26  -1
M  END
>  <UniqueID>  (36) 
32

>  <SMILES>  (36) 
O=C(Cc1ccc(C(=O)[N-]Cc2cccnc2)cc1)/N=c1/cccc[n-]1

>  <Energy>  (36) 
49.37602745500294

>  <Genealogy>  (36) 
O=C(Cc1ccc(C(=O)[N-]Cc2cccnc2)cc1)N=c1cccc[n-]1 (protonated)
O=C(Cc1ccc(C(=O)[N-]Cc2cccnc2)cc1)/N=c1/cccc[n-]1 (cis-trans isomerization)
O=C(Cc1ccc(C(=O)[N-]Cc2cccnc2)cc1)/N=c1/cccc[n-]1 (3D coordinates assigned)
O=C(Cc1ccc(C(=O)[N-]Cc2cccnc2)cc1)/N=c1/cccc[n-]1 (optimized conformer: 49.37602745500294 kcal/mol)

>  <smiles>  (36) 
O=C(Cc1ccc(C(=O)NCc2cccnc2)cc1)N=c1cccc[nH]1

>  <score_type>  (36) 
oracle

>  <origin>  (36) 
adg

>  <m_score__min__energy>  (36) 
-11.5

>  <m_primary>  (36) 
energy

$$$$
36:0
     RDKit          3D

 52 55  0  0  0  0  0  0  0  0999 V2000
   58.5990   32.6720   46.0700 C   0  0  0  0  0  0  0  0  0  0  0  0
   59.5560   31.6320   46.2310 O   0  0  0  0  0  0  0  0  0  0  0  0
   59.7570   30.8330   47.3760 C   0  0  0  0  0  0  0  0  0  0  0  0
   60.2820   29.5370   47.1720 C   0  0  0  0  0  0  0  0  0  0  0  0
   60.6420   29.0630   45.7850 C   0  0  0  0  0  0  0  0  0  0  0  0
   59.5540   27.6940   45.2470 S   0  0  0  0  0  0  0  0  0  0  0  0
   58.1430   28.7480   44.8550 C   0  0  0  0  0  0  0  0  0  0  0  0
   58.4030   29.9280   44.1450 C   0  0  0  0  0  0  0  0  0  0  0  0
   57.3600   30.7660   43.7500 C   0  0  0  0  0  0  0  0  0  0  0  0
   56.0450   30.4350   44.0680 C   0  0  0  0  0  0  0  0  0  0  0  0
   55.7680   29.2720   44.7890 C   0  0  0  0  0  0  0  0  0  0  0  0
   56.8060   28.4160   45.2050 C   0  0  0  0  0  0  0  0  0  0  0  0
   56.4480   27.2020   45.9850 C   0  0  0  0  0  0  0  0  0  0  0  0
   57.3010   26.6030   46.6900 O   0  0  0  0  0  0  0  0  0  0  0  0
   55.1420   26.7270   45.9710 O   0  0  0  0  0  0  0  0  0  0  0  0
   60.5100   28.6890   48.2670 C   0  0  0  0  0  0  0  0  0  0  0  0
   60.2340   29.1180   49.5600 C   0  0  0  0  0  0  0  0  0  0  0  0
   59.7200   30.3940   49.7780 C   0  0  0  0  0  0  0  0  0  0  0  0
   59.4570   31.2560   48.7000 C   0  0  0  0  0  0  0  0  0  0  0  0
   58.9750   32.5810   48.9620 N   0  0  0  0  0  0  0  0  0  0  0  0
   59.7750   33.7450   49.2100 C   0  0  0  0  0  0  0  0  0  0  0  0
   59.7790   34.2440   50.3660 O   0  0  0  0  0  0  0  0  0  0  0  0
   60.6410   34.3560   48.1440 C   0  0  0  0  0  0  0  0  0  0  0  0
   61.9730   33.7640   48.1770 N   0  0  0  0  0  0  0  0  0  0  0  0
   62.6950   33.4610   49.2740 C   0  0  0  0  0  0  0  0  0  0  0  0
   63.8530   32.8650   48.8240 C   0  0  0  0  0  0  0  0  0  0  0  0
   64.9670   32.3480   49.6960 C   0  0  0  0  0  0  0  0  0  0  0  0
   64.5840   32.0000   51.1270 C   0  0  0  0  0  0  0  0  0  0  0  0
   65.3920   33.2570   50.8390 C   0  0  0  0  0  0  0  0  0  0  0  0
   63.7890   32.8210   47.4750 N   0  0  0  0  0  0  0  0  0  0  0  0
   62.6410   33.3640   47.1050 N   0  0  0  0  0  0  0  0  0  0  0  0
   58.2728   33.0265   47.0589 H   0  0  0  0  0  0  0  0  0  0  0  0
   59.0530   33.5051   45.5133 H   0  0  0  0  0  0  0  0  0  0  0  0
   57.7311   32.2887   45.5133 H   0  0  0  0  0  0  0  0  0  0  0  0
   60.5371   29.9018   45.0812 H   0  0  0  0  0  0  0  0  0  0  0  0
   61.6789   28.6963   45.8017 H   0  0  0  0  0  0  0  0  0  0  0  0
   59.4405   30.1962   43.8966 H   0  0  0  0  0  0  0  0  0  0  0  0
   57.5758   31.6868   43.1882 H   0  0  0  0  0  0  0  0  0  0  0  0
   55.2221   31.0920   43.7501 H   0  0  0  0  0  0  0  0  0  0  0  0
   54.7257   29.0211   45.0353 H   0  0  0  0  0  0  0  0  0  0  0  0
   60.9099   27.6778   48.1007 H   0  0  0  0  0  0  0  0  0  0  0  0
   60.4218   28.4487   50.4125 H   0  0  0  0  0  0  0  0  0  0  0  0
   59.5177   30.7307   50.8055 H   0  0  0  0  0  0  0  0  0  0  0  0
   60.1870   34.1744   47.1587 H   0  0  0  0  0  0  0  0  0  0  0  0
   60.7243   35.4377   48.3255 H   0  0  0  0  0  0  0  0  0  0  0  0
   62.4154   33.6516   50.3206 H   0  0  0  0  0  0  0  0  0  0  0  0
   65.4887   31.8260   48.8803 H   0  0  0  0  0  0  0  0  0  0  0  0
   63.5361   32.0819   51.4514 H   0  0  0  0  0  0  0  0  0  0  0  0
   64.7162   31.1219   51.7761 H   0  0  0  0  0  0  0  0  0  0  0  0
   64.9282   34.2476   50.9555 H   0  0  0  0  0  0  0  0  0  0  0  0
   66.3503   33.6639   51.1940 H   0  0  0  0  0  0  0  0  0  0  0  0
   64.4920   32.4280   46.8120 H   0  0  0  0  0  0  0  0  0  0  0  0
  1  2  1  0
  2  3  1  0
  3  4  2  0
  4  5  1  0
  5  6  1  0
  6  7  1  0
  7  8  2  0
  8  9  1  0
  9 10  2  0
 10 11  1  0
 11 12  2  0
 12 13  1  0
 13 14  2  0
 13 15  1  0
  4 16  1  0
 16 17  2  0
 17 18  1  0
 18 19  2  0
 19 20  1  0
 20 21  1  0
 21 22  2  0
 21 23  1  0
 23 24  1  0
 24 25  1  0
 25 26  2  0
 26 27  1  0
 27 28  1  0
 28 29  1  0
 26 30  1  0
 30 31  2  0
 19  3  1  0
 31 24  1  0
 12  7  1  0
 29 27  1  0
  1 32  1  0
  1 33  1  0
  1 34  1  0
  5 35  1  0
  5 36  1  0
  8 37  1  0
  9 38  1  0
 10 39  1  0
 11 40  1  0
 16 41  1  0
 17 42  1  0
 18 43  1  0
 23 44  1  0
 23 45  1  0
 25 46  1  0
 27 47  1  0
 28 48  1  0
 28 49  1  0
 29 50  1  0
 29 51  1  0
 30 52  1  0
M  CHG  3  15  -1  20  -1  30   1
M  END
>  <UniqueID>  (37) 
33

>  <SMILES>  (37) 
COc1c(CSc2ccccc2C(=O)[O-])cccc1[N-]C(=O)Cn1cc(C2CC2)[nH+]n1

>  <Energy>  (37) 
361.6841346917199

>  <Genealogy>  (37) 
COc1c(CSc2ccccc2C(=O)[O-])cccc1[N-]C(=O)Cn1cc(C2CC2)[nH+]n1 (protonated)
COc1c(CSc2ccccc2C(=O)[O-])cccc1[N-]C(=O)Cn1cc(C2CC2)[nH+]n1 (3D coordinates assigned)
COc1c(CSc2ccccc2C(=O)[O-])cccc1[N-]C(=O)Cn1cc(C2CC2)[nH+]n1 (nonaromatic ring conformer: 361.6841346917199 kcal/mol)

>  <smiles>  (37) 
COc1c(CSc2ccccc2C(=O)O)cccc1NC(=O)Cn1cc(C2CC2)nn1

>  <score_type>  (37) 
oracle

>  <origin>  (37) 
adg

>  <m_score__min__energy>  (37) 
-12.6

>  <m_primary>  (37) 
energy

$$$$
37:0
     RDKit          3D

 43 45  0  0  0  0  0  0  0  0999 V2000
   55.1460   29.5340   44.9140 N   0  0  0  0  0  0  0  0  0  0  0  0
   56.5920   29.7600   43.9950 S   0  0  0  0  0  0  0  0  0  0  0  0
   56.2440   29.9430   42.5450 O   0  0  0  0  0  0  0  0  0  0  0  0
   57.4570   28.5400   44.1470 O   0  0  0  0  0  0  0  0  0  0  0  0
   57.4450   31.1860   44.5770 C   0  0  0  0  0  0  0  0  0  0  0  0
   57.5900   32.3010   43.7410 C   0  0  0  0  0  0  0  0  0  0  0  0
   58.2590   33.4390   44.1990 C   0  0  0  0  0  0  0  0  0  0  0  0
   58.7690   33.4770   45.5010 C   0  0  0  0  0  0  0  0  0  0  0  0
   58.6120   32.3770   46.3540 C   0  0  0  0  0  0  0  0  0  0  0  0
   59.1220   32.4600   47.6940 N   0  0  0  0  0  0  0  0  0  0  0  0
   58.7760   31.5990   48.7900 C   0  0  0  0  0  0  0  0  0  0  0  0
   57.9010   31.9880   49.6080 O   0  0  0  0  0  0  0  0  0  0  0  0
   59.3890   30.2620   48.9650 C   0  0  0  0  0  0  0  0  0  0  0  0
   59.3830   29.3290   47.9170 C   0  0  0  0  0  0  0  0  0  0  0  0
   60.0490   28.1090   48.0480 C   0  0  0  0  0  0  0  0  0  0  0  0
   60.0640   27.2270   46.9590 O   0  0  0  0  0  0  0  0  0  0  0  0
   58.9960   26.4010   46.5800 C   0  0  0  0  0  0  0  0  0  0  0  0
   59.1830   25.0450   46.2500 C   0  0  0  0  0  0  0  0  0  0  0  0
   58.0980   24.2610   45.8530 C   0  0  0  0  0  0  0  0  0  0  0  0
   56.8200   24.8210   45.7760 C   0  0  0  0  0  0  0  0  0  0  0  0
   56.6250   26.1710   46.0870 C   0  0  0  0  0  0  0  0  0  0  0  0
   55.3480   26.7190   45.9990 O   0  0  0  0  0  0  0  0  0  0  0  0
   57.7160   26.9580   46.4830 C   0  0  0  0  0  0  0  0  0  0  0  0
   60.6620   27.7790   49.2670 C   0  0  0  0  0  0  0  0  0  0  0  0
   60.6400   28.6790   50.3460 C   0  0  0  0  0  0  0  0  0  0  0  0
   61.2720   28.3350   51.5930 N   0  0  0  0  0  0  0  0  0  0  0  0
   60.7690   27.4760   52.3460 O   0  0  0  0  0  0  0  0  0  0  0  0
   62.4430   28.9480   51.9760 O   0  0  0  0  0  0  0  0  0  0  0  0
   60.0000   29.9220   50.1840 C   0  0  0  0  0  0  0  0  0  0  0  0
   57.9800   31.2170   45.8720 C   0  0  0  0  0  0  0  0  0  0  0  0
   55.3390   28.7740   45.6040 H   0  0  0  0  0  0  0  0  0  0  0  0
   57.1763   32.2804   42.7220 H   0  0  0  0  0  0  0  0  0  0  0  0
   58.3848   34.3065   43.5345 H   0  0  0  0  0  0  0  0  0  0  0  0
   59.2958   34.3748   45.8567 H   0  0  0  0  0  0  0  0  0  0  0  0
   58.8488   29.5609   46.9838 H   0  0  0  0  0  0  0  0  0  0  0  0
   60.1881   24.6015   46.3052 H   0  0  0  0  0  0  0  0  0  0  0  0
   58.2494   23.2011   45.6005 H   0  0  0  0  0  0  0  0  0  0  0  0
   55.9657   24.1992   45.4703 H   0  0  0  0  0  0  0  0  0  0  0  0
   55.1400   27.4790   45.3630 H   0  0  0  0  0  0  0  0  0  0  0  0
   57.5644   28.0216   46.7192 H   0  0  0  0  0  0  0  0  0  0  0  0
   61.1643   26.8068   49.3786 H   0  0  0  0  0  0  0  0  0  0  0  0
   59.9778   30.6354   51.0210 H   0  0  0  0  0  0  0  0  0  0  0  0
   57.9050   30.3281   46.5156 H   0  0  0  0  0  0  0  0  0  0  0  0
  1  2  1  0
  2  3  2  0
  2  4  2  0
  2  5  1  0
  5  6  2  0
  6  7  1  0
  7  8  2  0
  8  9  1  0
  9 10  1  0
 10 11  1  0
 11 12  2  0
 11 13  1  0
 13 14  2  0
 14 15  1  0
 15 16  1  0
 16 17  1  0
 17 18  2  0
 18 19  1  0
 19 20  2  0
 20 21  1  0
 21 22  1  0
 21 23  2  0
 15 24  2  0
 24 25  1  0
 25 26  1  0
 26 27  2  0
 26 28  1  0
 25 29  2  0
  9 30  2  0
 30  5  1  0
 29 13  1  0
 23 17  1  0
  1 31  1  0
  6 32  1  0
  7 33  1  0
  8 34  1  0
 14 35  1  0
 18 36  1  0
 19 37  1  0
 20 38  1  0
 22 39  1  0
 23 40  1  0
 24 41  1  0
 29 42  1  0
 30 43  1  0
M  CHG  4   1  -1  10  -1  26   1  28  -1
M  END
>  <UniqueID>  (38) 
34

>  <SMILES>  (38) 
[NH-]S(=O)(=O)c1cccc([N-]C(=O)c2cc(Oc3cccc(O)c3)cc([N+](=O)[O-])c2)c1

>  <Energy>  (38) 
57.883804373132016

>  <Genealogy>  (38) 
[NH-]S(=O)(=O)c1cccc([N-]C(=O)c2cc(Oc3cccc(O)c3)cc([N+](=O)[O-])c2)c1 (protonated)
[NH-]S(=O)(=O)c1cccc([N-]C(=O)c2cc(Oc3cccc(O)c3)cc([N+](=O)[O-])c2)c1 (3D coordinates assigned)
[NH-]S(=O)(=O)c1cccc([N-]C(=O)c2cc(Oc3cccc(O)c3)cc([N+](=O)[O-])c2)c1 (optimized conformer: 57.883804373132016 kcal/mol)

>  <smiles>  (38) 
NS(=O)(=O)c1cccc(NC(=O)c2cc(Oc3cccc(O)c3)cc([N+](=O)[O-])c2)c1

>  <score_type>  (38) 
oracle

>  <origin>  (38) 
adg

>  <m_score__min__energy>  (38) 
-13.26

>  <m_primary>  (38) 
energy

$$$$
38:0
     RDKit          3D

 38 40  0  0  0  0  0  0  0  0999 V2000
   56.6670   29.7060   43.0180 C   0  0  0  0  0  0  0  0  0  0  0  0
   57.6050   29.4330   44.1700 C   0  0  0  0  0  0  0  0  0  0  0  0
   58.3030   28.2060   44.2420 C   0  0  0  0  0  0  0  0  0  0  0  0
   58.1320   26.9680   43.0010 Cl  0  0  0  0  0  0  0  0  0  0  0  0
   59.1510   27.9410   45.3210 C   0  0  0  0  0  0  0  0  0  0  0  0
   59.3040   28.8750   46.3420 C   0  0  0  0  0  0  0  0  0  0  0  0
   58.6040   30.0800   46.2970 C   0  0  0  0  0  0  0  0  0  0  0  0
   57.7410   30.3680   45.2230 C   0  0  0  0  0  0  0  0  0  0  0  0
   56.9930   31.5930   45.1830 N   0  0  0  0  0  0  0  0  0  0  0  0
   57.6710   33.1870   45.0940 S   0  0  0  0  0  0  0  0  0  0  0  0
   58.2520   33.4020   43.7230 O   0  0  0  0  0  0  0  0  0  0  0  0
   56.5840   34.1960   45.3290 O   0  0  0  0  0  0  0  0  0  0  0  0
   58.9000   33.3810   46.3420 C   0  0  0  0  0  0  0  0  0  0  0  0
   58.5150   33.4940   47.6770 C   0  0  0  0  0  0  0  0  0  0  0  0
   59.4780   33.6350   48.6730 C   0  0  0  0  0  0  0  0  0  0  0  0
   60.8510   33.6570   48.3650 C   0  0  0  0  0  0  0  0  0  0  0  0
   61.2440   33.5640   46.9960 C   0  0  0  0  0  0  0  0  0  0  0  0
   60.2570   33.4190   46.0090 C   0  0  0  0  0  0  0  0  0  0  0  0
   62.5680   33.6160   46.5340 O   0  0  0  0  0  0  0  0  0  0  0  0
   63.7320   33.8300   47.3170 C   0  0  0  0  0  0  0  0  0  0  0  0
   63.8440   32.7630   48.3950 C   0  0  0  0  0  0  0  0  0  0  0  0
   63.0460   33.1660   49.5860 C   0  0  0  0  0  0  0  0  0  0  0  0
   63.5210   32.9640   50.7340 O   0  0  0  0  0  0  0  0  0  0  0  0
   61.7710   33.8080   49.4640 N   0  0  0  0  0  0  0  0  0  0  0  0
   55.6798   29.9933   43.4091 H   0  0  0  0  0  0  0  0  0  0  0  0
   57.0700   30.5241   42.4030 H   0  0  0  0  0  0  0  0  0  0  0  0
   56.5680   28.7994   42.4030 H   0  0  0  0  0  0  0  0  0  0  0  0
   59.7006   26.9891   45.3637 H   0  0  0  0  0  0  0  0  0  0  0  0
   59.9778   28.6621   47.1850 H   0  0  0  0  0  0  0  0  0  0  0  0
   58.7273   30.8124   47.1084 H   0  0  0  0  0  0  0  0  0  0  0  0
   57.4482   33.4717   47.9443 H   0  0  0  0  0  0  0  0  0  0  0  0
   59.1591   33.7311   49.7214 H   0  0  0  0  0  0  0  0  0  0  0  0
   60.5567   33.3337   44.9541 H   0  0  0  0  0  0  0  0  0  0  0  0
   64.6193   33.7856   46.6684 H   0  0  0  0  0  0  0  0  0  0  0  0
   63.6655   34.8181   47.7958 H   0  0  0  0  0  0  0  0  0  0  0  0
   63.4619   31.8080   48.0051 H   0  0  0  0  0  0  0  0  0  0  0  0
   64.8988   32.6484   48.6854 H   0  0  0  0  0  0  0  0  0  0  0  0
   61.3900   34.2210   50.3460 H   0  0  0  0  0  0  0  0  0  0  0  0
  1  2  1  0
  2  3  2  0
  3  4  1  0
  3  5  1  0
  5  6  2  0
  6  7  1  0
  7  8  2  0
  8  9  1  0
  9 10  1  0
 10 11  2  0
 10 12  2  0
 10 13  1  0
 13 14  2  0
 14 15  1  0
 15 16  2  0
 16 17  1  0
 17 18  2  0
 17 19  1  0
 19 20  1  0
 20 21  1  0
 21 22  1  0
 22 23  2  0
 22 24  1  0
  8  2  1  0
 18 13  1  0
 24 16  1  0
  1 25  1  0
  1 26  1  0
  1 27  1  0
  5 28  1  0
  6 29  1  0
  7 30  1  0
 14 31  1  0
 15 32  1  0
 18 33  1  0
 20 34  1  0
 20 35  1  0
 21 36  1  0
 21 37  1  0
 24 38  1  0
M  CHG  1   9  -1
M  END
>  <UniqueID>  (39) 
35

>  <SMILES>  (39) 
Cc1c(Cl)cccc1[N-]S(=O)(=O)c1ccc2c(c1)OCCC(=O)N2

>  <Energy>  (39) 
53.5163771973183

>  <Genealogy>  (39) 
Cc1c(Cl)cccc1[N-]S(=O)(=O)c1ccc2c(c1)OCCC(=O)N2 (protonated)
Cc1c(Cl)cccc1[N-]S(=O)(=O)c1ccc2c(c1)OCCC(=O)N2 (3D coordinates assigned)
Cc1c(Cl)cccc1[N-]S(=O)(=O)c1ccc2c(c1)OCCC(=O)N2 (nonaromatic ring conformer: 53.5163771973183 kcal/mol)

>  <smiles>  (39) 
Cc1c(Cl)cccc1NS(=O)(=O)c1ccc2c(c1)OCCC(=O)N2

>  <score_type>  (39) 
oracle

>  <origin>  (39) 
adg

>  <m_score__min__energy>  (39) 
-8.0899999999999999

>  <m_primary>  (39) 
energy

$$$$
39:0
     RDKit          3D

 43 45  0  0  0  0  0  0  0  0999 V2000
   60.2074   27.6675   46.5259 H   0  0  0  0  0  0  0  0  0  0  0  0
   59.1270   27.4790   46.4410 C   0  0  0  0  0  0  0  0  0  0  0  0
   58.3130   28.4240   45.9020 N   0  0  0  0  0  0  0  0  0  0  0  0
   56.9690   28.2510   45.7750 C   0  0  0  0  0  0  0  0  0  0  0  0
   56.2820   29.2270   45.2480 N   0  0  0  0  0  0  0  0  0  0  0  0
   56.6920   30.1810   44.2580 C   0  0  0  0  0  0  0  0  0  0  0  0
   55.9600   30.4140   43.2570 O   0  0  0  0  0  0  0  0  0  0  0  0
   57.9410   31.0020   44.4770 C   0  0  1  0  0  0  0  0  0  0  0  0
   58.7690   30.4702   43.9853 H   0  0  0  0  0  0  0  0  0  0  0  0
   57.7690   32.4130   43.8800 C   0  0  0  0  0  0  0  0  0  0  0  0
   56.9719   32.4138   43.1220 H   0  0  0  0  0  0  0  0  0  0  0  0
   58.6881   32.7577   43.3835 H   0  0  0  0  0  0  0  0  0  0  0  0
   57.3920   33.3110   45.0450 C   0  0  0  0  0  0  0  0  0  0  0  0
   56.3168   33.5431   45.0358 H   0  0  0  0  0  0  0  0  0  0  0  0
   57.8985   34.2873   45.0267 H   0  0  0  0  0  0  0  0  0  0  0  0
   57.7500   32.4840   46.2190 C   0  0  0  0  0  0  0  0  0  0  0  0
   57.5870   32.8800   47.3640 O   0  0  0  0  0  0  0  0  0  0  0  0
   58.2260   31.1620   45.9260 N   0  0  2  0  0  0  0  0  0  0  0  0
   57.6980   30.4600   46.5000 H   0  0  0  0  0  0  0  0  0  0  0  0
   59.6760   31.0490   46.2040 C   0  0  0  0  0  0  0  0  0  0  0  0
   60.1608   32.0046   45.9555 H   0  0  0  0  0  0  0  0  0  0  0  0
   60.0765   30.2283   45.5908 H   0  0  0  0  0  0  0  0  0  0  0  0
   59.9510   30.7250   47.6550 C   0  0  0  0  0  0  0  0  0  0  0  0
   61.2680   30.7210   48.1370 C   0  0  0  0  0  0  0  0  0  0  0  0
   62.0994   30.9702   47.4613 H   0  0  0  0  0  0  0  0  0  0  0  0
   61.5280   30.4020   49.4710 C   0  0  0  0  0  0  0  0  0  0  0  0
   62.5629   30.4036   49.8438 H   0  0  0  0  0  0  0  0  0  0  0  0
   60.4780   30.0810   50.3330 C   0  0  0  0  0  0  0  0  0  0  0  0
   60.6904   29.8310   51.3829 H   0  0  0  0  0  0  0  0  0  0  0  0
   59.1570   30.0750   49.8710 C   0  0  0  0  0  0  0  0  0  0  0  0
   58.1370   29.7400   50.7740 O   0  0  0  0  0  0  0  0  0  0  0  0
   57.4970   30.6670   51.6450 C   0  0  0  0  0  0  0  0  0  0  0  0
   57.6926   30.3837   52.6897 H   0  0  0  0  0  0  0  0  0  0  0  0
   57.8911   31.6770   51.4591 H   0  0  0  0  0  0  0  0  0  0  0  0
   56.4129   30.6565   51.4591 H   0  0  0  0  0  0  0  0  0  0  0  0
   58.8960   30.4000   48.5250 C   0  0  0  0  0  0  0  0  0  0  0  0
   57.8608   30.3994   48.1530 H   0  0  0  0  0  0  0  0  0  0  0  0
   56.4010   27.0150   46.1810 C   0  0  0  0  0  0  0  0  0  0  0  0
   55.0580   26.7100   45.9890 O   0  0  0  0  0  0  0  0  0  0  0  0
   57.2270   26.0420   46.7520 C   0  0  0  0  0  0  0  0  0  0  0  0
   56.7953   25.0908   47.0968 H   0  0  0  0  0  0  0  0  0  0  0  0
   58.5940   26.2720   46.8860 C   0  0  0  0  0  0  0  0  0  0  0  0
   59.2450   25.5092   47.3380 H   0  0  0  0  0  0  0  0  0  0  0  0
  1  2  1  0
  2  3  1  0
  3  4  1  0
  4  5  2  0
  5  6  1  0
  6  7  2  0
  6  8  1  0
  8  9  1  6
  8 10  1  0
 10 11  1  0
 10 12  1  0
 10 13  1  0
 13 14  1  0
 13 15  1  0
 13 16  1  0
 16 17  2  0
 16 18  1  0
 18 19  1  1
 18 20  1  0
 20 21  1  0
 20 22  1  0
 20 23  1  0
 23 24  2  0
 24 25  1  0
 24 26  1  0
 26 27  1  0
 26 28  2  0
 28 29  1  0
 28 30  1  0
 30 31  1  0
 31 32  1  0
 32 33  1  0
 32 34  1  0
 32 35  1  0
 30 36  2  0
 36 37  1  0
  4 38  1  0
 38 39  1  0
 38 40  2  0
 40 41  1  0
 40 42  1  0
 42 43  1  0
 42  2  2  0
 18  8  1  0
 36 23  1  0
M  CHG  3   3  -1  18   1  39  -1
M  END
>  <UniqueID>  (40) 
36

>  <SMILES>  (40) 
COc1cccc(C[N@H+]2C(=O)CC[C@@H]2C(=O)/N=c2/[n-]cccc2[O-])c1

>  <Energy>  (40) 
60.503163566011544

>  <Genealogy>  (40) 
COc1cccc(C[NH+]2C(=O)CCC2C(=O)N=c2[n-]cccc2[O-])c1 (protonated)
COc1cccc(C[N@H+]2C(=O)CC[C@@H]2C(=O)N=c2[n-]cccc2[O-])c1 (chirality)
COc1cccc(C[N@H+]2C(=O)CC[C@@H]2C(=O)/N=c2/[n-]cccc2[O-])c1 (cis-trans isomerization)
COc1cccc(C[N@H+]2C(=O)CC[C@@H]2C(=O)/N=c2/[n-]cccc2[O-])c1 (3D coordinates assigned)
COc1cccc(C[N@H+]2C(=O)CC[C@@H]2C(=O)/N=c2/[n-]cccc2[O-])c1 (nonaromatic ring conformer: 60.503163566011544 kcal/mol)

>  <smiles>  (40) 
COc1cccc(CN2C(=O)CCC2C(=O)N=c2[nH]cccc2O)c1

>  <score_type>  (40) 
oracle

>  <origin>  (40) 
adg

>  <m_score__min__energy>  (40) 
-10.960000000000001

>  <m_primary>  (40) 
energy

$$$$
40:0
     RDKit          3D

 28 29  0  0  0  0  0  0  0  0999 V2000
   55.1440   27.6070   45.2920 H   0  0  0  0  0  0  0  0  0  0  0  0
   55.4680   26.9290   45.9700 O   0  0  0  0  0  0  0  0  0  0  0  0
   56.8110   26.5580   46.0780 C   0  0  0  0  0  0  0  0  0  0  0  0
   57.1620   25.5570   46.9890 C   0  0  0  0  0  0  0  0  0  0  0  0
   56.3849   25.0813   47.6053 H   0  0  0  0  0  0  0  0  0  0  0  0
   58.4570   25.1690   47.1170 N   0  0  0  0  0  0  0  0  0  0  0  0
   59.4450   25.7270   46.3710 C   0  0  0  0  0  0  0  0  0  0  0  0
   60.4842   25.3885   46.4953 H   0  0  0  0  0  0  0  0  0  0  0  0
   59.1450   26.7290   45.4470 C   0  0  0  0  0  0  0  0  0  0  0  0
   59.9443   27.1728   44.8353 H   0  0  0  0  0  0  0  0  0  0  0  0
   57.8130   27.1710   45.3000 C   0  0  0  0  0  0  0  0  0  0  0  0
   57.4740   28.1000   44.4470 N   0  0  0  0  0  0  0  0  0  0  0  0
   56.7260   29.3000   44.7060 C   0  0  0  0  0  0  0  0  0  0  0  0
   55.4820   29.2050   44.8790 O   0  0  0  0  0  0  0  0  0  0  0  0
   57.4010   30.6080   44.9090 C   0  0  0  0  0  0  0  0  0  0  0  0
   57.1760   31.6350   43.9750 C   0  0  0  0  0  0  0  0  0  0  0  0
   56.4982   31.4594   43.1267 H   0  0  0  0  0  0  0  0  0  0  0  0
   57.8030   32.8750   44.1120 C   0  0  0  0  0  0  0  0  0  0  0  0
   57.6141   33.6704   43.3760 H   0  0  0  0  0  0  0  0  0  0  0  0
   58.6670   33.1060   45.1790 C   0  0  0  0  0  0  0  0  0  0  0  0
   59.1662   34.0810   45.2798 H   0  0  0  0  0  0  0  0  0  0  0  0
   58.9010   32.1030   46.1210 C   0  0  0  0  0  0  0  0  0  0  0  0
   59.5884   32.2919   46.9587 H   0  0  0  0  0  0  0  0  0  0  0  0
   58.2660   30.8530   46.0090 C   0  0  0  0  0  0  0  0  0  0  0  0
   58.5220   29.8120   47.0670 C   0  0  0  0  0  0  0  0  0  0  0  0
   58.4104   30.2660   48.0627 H   0  0  0  0  0  0  0  0  0  0  0  0
   57.7991   28.9904   46.9555 H   0  0  0  0  0  0  0  0  0  0  0  0
   59.5435   29.4193   46.9555 H   0  0  0  0  0  0  0  0  0  0  0  0
  1  2  1  0
  2  3  1  0
  3  4  2  0
  4  5  1  0
  4  6  1  0
  6  7  1  0
  7  8  1  0
  7  9  2  0
  9 10  1  0
  9 11  1  0
 11 12  2  0
 12 13  1  0
 13 14  2  0
 13 15  1  0
 15 16  2  0
 16 17  1  0
 16 18  1  0
 18 19  1  0
 18 20  2  0
 20 21  1  0
 20 22  1  0
 22 23  1  0
 22 24  2  0
 24 25  1  0
 25 26  1  0
 25 27  1  0
 25 28  1  0
 11  3  1  0
 24 15  1  0
M  CHG  1   6  -1
M  END
>  <UniqueID>  (41) 
37

>  <SMILES>  (41) 
Cc1ccccc1C(=O)/N=c1\cc[n-]cc1O

>  <Energy>  (41) 
43.0443846464518

>  <Genealogy>  (41) 
Cc1ccccc1C(=O)N=c1cc[n-]cc1O (protonated)
Cc1ccccc1C(=O)/N=c1\cc[n-]cc1O (cis-trans isomerization)
Cc1ccccc1C(=O)/N=c1\cc[n-]cc1O (3D coordinates assigned)
Cc1ccccc1C(=O)/N=c1\cc[n-]cc1O (optimized conformer: 43.0443846464518 kcal/mol)

>  <smiles>  (41) 
Cc1ccccc1C(=O)N=c1cc[nH]cc1O

>  <score_type>  (41) 
oracle

>  <origin>  (41) 
adg

>  <m_score__min__energy>  (41) 
-8.9600000000000009

>  <m_primary>  (41) 
energy

$$$$
41:0
     RDKit          3D

 52 55  0  0  0  0  0  0  0  0999 V2000
   58.2773   34.6975   46.5164 H   0  0  0  0  0  0  0  0  0  0  0  0
   57.9670   33.9310   45.7910 C   0  0  0  0  0  0  0  0  0  0  0  0
   57.0650   32.9560   46.0300 N   0  0  0  0  0  0  0  0  0  0  0  0
   57.0100   32.2760   44.8640 C   0  0  0  0  0  0  0  0  0  0  0  0
   56.2700   31.2220   44.6680 N   0  0  0  0  0  0  0  0  0  0  0  0
   56.7240   29.8630   44.6110 C   0  0  0  0  0  0  0  0  0  0  0  0
   56.7810   29.2430   43.5130 O   0  0  0  0  0  0  0  0  0  0  0  0
   57.0490   29.1980   45.8350 N   0  0  0  0  0  0  0  0  0  0  0  0
   57.4960   27.8420   45.9920 C   0  0  0  0  0  0  0  0  0  0  0  0
   56.6860   26.7480   45.6330 C   0  0  0  0  0  0  0  0  0  0  0  0
   55.6895   26.9226   45.2012 H   0  0  0  0  0  0  0  0  0  0  0  0
   57.1430   25.4410   45.8230 C   0  0  0  0  0  0  0  0  0  0  0  0
   56.5019   24.5899   45.5498 H   0  0  0  0  0  0  0  0  0  0  0  0
   58.4120   25.2140   46.3590 C   0  0  0  0  0  0  0  0  0  0  0  0
   58.7648   24.1845   46.5192 H   0  0  0  0  0  0  0  0  0  0  0  0
   59.2340   26.2930   46.6920 C   0  0  0  0  0  0  0  0  0  0  0  0
   60.2354   26.1112   47.1094 H   0  0  0  0  0  0  0  0  0  0  0  0
   58.7870   27.6060   46.4960 C   0  0  0  0  0  0  0  0  0  0  0  0
   59.6380   28.7070   46.8430 N   0  0  0  0  0  0  0  0  0  0  0  0
   60.0740   28.8620   48.2360 C   0  0  0  0  0  0  0  0  0  0  0  0
   59.1935   28.8172   48.8938 H   0  0  0  0  0  0  0  0  0  0  0  0
   60.7781   28.0502   48.4709 H   0  0  0  0  0  0  0  0  0  0  0  0
   60.7910   30.2010   48.4520 C   0  0  0  0  0  0  0  0  0  0  0  0
   60.8042   30.4369   49.5263 H   0  0  0  0  0  0  0  0  0  0  0  0
   61.8203   30.1224   48.0721 H   0  0  0  0  0  0  0  0  0  0  0  0
   60.0930   31.2730   47.7280 N   0  0  0  0  0  0  0  0  0  0  0  0
   59.9050   32.5600   48.3400 C   0  0  0  0  0  0  0  0  0  0  0  0
   60.2710   33.5980   47.7210 O   0  0  0  0  0  0  0  0  0  0  0  0
   59.2690   32.6900   49.6690 C   0  0  0  0  0  0  0  0  0  0  0  0
   59.6600   33.7170   50.5460 C   0  0  0  0  0  0  0  0  0  0  0  0
   60.4480   34.4229   50.2449 H   0  0  0  0  0  0  0  0  0  0  0  0
   59.0520   33.8460   51.8000 C   0  0  0  0  0  0  0  0  0  0  0  0
   59.3685   34.6469   52.4844 H   0  0  0  0  0  0  0  0  0  0  0  0
   58.0440   32.9590   52.1830 C   0  0  0  0  0  0  0  0  0  0  0  0
   57.5699   33.0585   53.1706 H   0  0  0  0  0  0  0  0  0  0  0  0
   57.6370   31.9440   51.3110 C   0  0  0  0  0  0  0  0  0  0  0  0
   56.8391   31.2491   51.6119 H   0  0  0  0  0  0  0  0  0  0  0  0
   58.2410   31.8110   50.0600 C   0  0  0  0  0  0  0  0  0  0  0  0
   57.9121   31.0151   49.3757 H   0  0  0  0  0  0  0  0  0  0  0  0
   59.7350   31.1030   46.3120 C   0  0  0  0  0  0  0  0  0  0  0  0
   58.6611   31.3069   46.1885 H   0  0  0  0  0  0  0  0  0  0  0  0
   60.3393   31.8045   45.7181 H   0  0  0  0  0  0  0  0  0  0  0  0
   60.0310   29.6810   45.8210 C   0  0  0  0  0  0  0  0  0  0  0  0
   59.4648   29.4890   44.8977 H   0  0  0  0  0  0  0  0  0  0  0  0
   61.1088   29.5835   45.6242 H   0  0  0  0  0  0  0  0  0  0  0  0
   57.8220   32.7820   43.9170 N   0  0  0  0  0  0  0  0  0  0  0  0
   58.0820   32.2460   42.5820 C   0  0  0  0  0  0  0  0  0  0  0  0
   58.5606   31.2594   42.6698 H   0  0  0  0  0  0  0  0  0  0  0  0
   57.1325   32.1456   42.0358 H   0  0  0  0  0  0  0  0  0  0  0  0
   58.7486   32.9296   42.0358 H   0  0  0  0  0  0  0  0  0  0  0  0
   58.4410   33.8220   44.5010 C   0  0  0  0  0  0  0  0  0  0  0  0
   59.1940   34.4724   44.0319 H   0  0  0  0  0  0  0  0  0  0  0  0
  1  2  1  0
  2  3  1  0
  3  4  1  0
  4  5  2  0
  5  6  1  0
  6  7  2  0
  6  8  1  0
  8  9  1  0
  9 10  2  0
 10 11  1  0
 10 12  1  0
 12 13  1  0
 12 14  2  0
 14 15  1  0
 14 16  1  0
 16 17  1  0
 16 18  2  0
 18 19  1  0
 19 20  1  0
 20 21  1  0
 20 22  1  0
 20 23  1  0
 23 24  1  0
 23 25  1  0
 23 26  1  0
 26 27  1  0
 27 28  2  0
 27 29  1  0
 29 30  2  0
 30 31  1  0
 30 32  1  0
 32 33  1  0
 32 34  2  0
 34 35  1  0
 34 36  1  0
 36 37  1  0
 36 38  2  0
 38 39  1  0
 26 40  1  0
 40 41  1  0
 40 42  1  0
 40 43  1  0
 43 44  1  0
 43 45  1  0
  4 46  1  0
 46 47  1  0
 47 48  1  0
 47 49  1  0
 47 50  1  0
 46 51  1  0
 51 52  1  0
 51  2  2  0
 18  9  1  0
 43 19  1  0
 38 29  1  0
M  CHG  2   3  -1   8  -1
M  END
>  <UniqueID>  (42) 
38

>  <SMILES>  (42) 
Cn1cc[n-]/c1=N\C(=O)[N-]c1ccccc1N1CCN(C(=O)c2ccccc2)CC1

>  <Energy>  (42) 
99.45384830777068

>  <Genealogy>  (42) 
Cn1cc[n-]c1=NC(=O)[N-]c1ccccc1N1CCN(C(=O)c2ccccc2)CC1 (protonated)
Cn1cc[n-]/c1=N\C(=O)[N-]c1ccccc1N1CCN(C(=O)c2ccccc2)CC1 (cis-trans isomerization)
Cn1cc[n-]/c1=N\C(=O)[N-]c1ccccc1N1CCN(C(=O)c2ccccc2)CC1 (3D coordinates assigned)
Cn1cc[n-]/c1=N\C(=O)[N-]c1ccccc1N1CCN(C(=O)c2ccccc2)CC1 (nonaromatic ring conformer: 99.45384830777068 kcal/mol)

>  <smiles>  (42) 
Cn1cc[nH]c1=NC(=O)Nc1ccccc1N1CCN(C(=O)c2ccccc2)CC1

>  <score_type>  (42) 
oracle

>  <origin>  (42) 
adg

>  <m_score__min__energy>  (42) 
-11.050000000000001

>  <m_primary>  (42) 
energy

$$$$
42:0
     RDKit          3D

 39 41  0  0  0  0  0  0  0  0999 V2000
   57.8350   33.0590   44.5160 C   0  0  0  0  0  0  0  0  0  0  0  0
   57.3580   31.6560   44.3320 C   0  0  0  0  0  0  0  0  0  0  0  0
   58.0890   30.6460   43.7340 C   0  0  0  0  0  0  0  0  0  0  0  0
   57.3260   29.5110   43.8680 C   0  0  0  0  0  0  0  0  0  0  0  0
   57.7670   27.8660   43.3170 S   0  0  0  0  0  0  0  0  0  0  0  0
   57.8200   27.2090   44.9910 C   0  0  0  0  0  0  0  0  0  0  0  0
   56.8370   26.3450   45.3640 N   0  0  0  0  0  0  0  0  0  0  0  0
   56.7800   25.8090   46.6110 C   0  0  0  0  0  0  0  0  0  0  0  0
   57.7490   26.1380   47.5570 C   0  0  0  0  0  0  0  0  0  0  0  0
   58.7700   27.0200   47.2090 C   0  0  0  0  0  0  0  0  0  0  0  0
   58.8190   27.5780   45.9200 C   0  0  0  0  0  0  0  0  0  0  0  0
   59.9060   28.5270   45.5790 C   0  0  0  0  0  0  0  0  0  0  0  0
   60.3320   28.5790   44.3960 O   0  0  0  0  0  0  0  0  0  0  0  0
   60.5540   29.3330   46.5750 N   0  0  0  0  0  0  0  0  0  0  0  0
   60.1190   30.5970   47.1050 C   0  0  0  0  0  0  0  0  0  0  0  0
   58.7510   30.9220   47.1700 C   0  0  0  0  0  0  0  0  0  0  0  0
   58.3370   32.1540   47.6700 C   0  0  0  0  0  0  0  0  0  0  0  0
   59.2770   33.0830   48.1100 C   0  0  0  0  0  0  0  0  0  0  0  0
   60.6430   32.7920   48.0380 C   0  0  0  0  0  0  0  0  0  0  0  0
   61.7790   34.0010   48.6300 Cl  0  0  0  0  0  0  0  0  0  0  0  0
   61.0790   31.5560   47.5110 C   0  0  0  0  0  0  0  0  0  0  0  0
   62.5550   31.2450   47.4530 C   0  0  0  0  0  0  0  0  0  0  0  0
   56.1810   29.8840   44.5330 C   0  0  0  0  0  0  0  0  0  0  0  0
   55.1420   29.0250   44.8740 O   0  0  0  0  0  0  0  0  0  0  0  0
   56.1920   31.1970   44.8340 N   0  0  0  0  0  0  0  0  0  0  0  0
   57.9110   33.2825   45.5904 H   0  0  0  0  0  0  0  0  0  0  0  0
   58.8230   33.1749   44.0466 H   0  0  0  0  0  0  0  0  0  0  0  0
   57.1224   33.7531   44.0466 H   0  0  0  0  0  0  0  0  0  0  0  0
   59.0741   30.7328   43.2523 H   0  0  0  0  0  0  0  0  0  0  0  0
   55.9684   25.1148   46.8742 H   0  0  0  0  0  0  0  0  0  0  0  0
   57.7083   25.7059   48.5678 H   0  0  0  0  0  0  0  0  0  0  0  0
   59.5423   27.2811   47.9475 H   0  0  0  0  0  0  0  0  0  0  0  0
   58.0016   30.1957   46.8224 H   0  0  0  0  0  0  0  0  0  0  0  0
   57.2646   32.3942   47.7176 H   0  0  0  0  0  0  0  0  0  0  0  0
   58.9435   34.0495   48.5158 H   0  0  0  0  0  0  0  0  0  0  0  0
   62.9525   31.1612   48.4752 H   0  0  0  0  0  0  0  0  0  0  0  0
   62.7089   30.2947   46.9207 H   0  0  0  0  0  0  0  0  0  0  0  0
   63.0792   32.0524   46.9207 H   0  0  0  0  0  0  0  0  0  0  0  0
   55.2780   28.0210   44.8620 H   0  0  0  0  0  0  0  0  0  0  0  0
  1  2  1  0
  2  3  2  0
  3  4  1  0
  4  5  1  0
  5  6  1  0
  6  7  2  0
  7  8  1  0
  8  9  2  0
  9 10  1  0
 10 11  2  0
 11 12  1  0
 12 13  2  0
 12 14  1  0
 14 15  1  0
 15 16  2  0
 16 17  1  0
 17 18  2  0
 18 19  1  0
 19 20  1  0
 19 21  2  0
 21 22  1  0
  4 23  2  0
 23 24  1  0
 23 25  1  0
 25  2  1  0
 11  6  1  0
 21 15  1  0
  1 26  1  0
  1 27  1  0
  1 28  1  0
  3 29  1  0
  8 30  1  0
  9 31  1  0
 10 32  1  0
 16 33  1  0
 17 34  1  0
 18 35  1  0
 22 36  1  0
 22 37  1  0
 22 38  1  0
 24 39  1  0
M  CHG  2  14  -1  25  -1
M  END
>  <UniqueID>  (43) 
39

>  <SMILES>  (43) 
Cc1cc(Sc2ncccc2C(=O)[N-]c2cccc(Cl)c2C)c(O)[n-]1

>  <Energy>  (43) 
70.4984787648812

>  <Genealogy>  (43) 
Cc1cc(Sc2ncccc2C(=O)[N-]c2cccc(Cl)c2C)c(O)[n-]1 (protonated)
Cc1cc(Sc2ncccc2C(=O)[N-]c2cccc(Cl)c2C)c(O)[n-]1 (3D coordinates assigned)
Cc1cc(Sc2ncccc2C(=O)[N-]c2cccc(Cl)c2C)c(O)[n-]1 (optimized conformer: 70.4984787648812 kcal/mol)

>  <smiles>  (43) 
Cc1cc(Sc2ncccc2C(=O)Nc2cccc(Cl)c2C)c(O)[nH]1

>  <score_type>  (43) 
oracle

>  <origin>  (43) 
adg

>  <m_score__min__energy>  (43) 
-12.41

>  <m_primary>  (43) 
energy

$$$$
43:0
     RDKit          3D

 45 47  0  0  0  0  0  0  0  0999 V2000
   59.8230   30.9020   46.4520 C   0  0  0  0  0  0  0  0  0  0  0  0
   59.1580   32.1740   45.9930 C   0  0  0  0  0  0  0  0  0  0  0  0
   59.7500   33.4060   46.3170 C   0  0  0  0  0  0  0  0  0  0  0  0
   59.1700   34.6050   45.9010 C   0  0  0  0  0  0  0  0  0  0  0  0
   57.9940   34.5890   45.1540 C   0  0  0  0  0  0  0  0  0  0  0  0
   57.3960   33.3750   44.8130 C   0  0  0  0  0  0  0  0  0  0  0  0
   57.9700   32.1570   45.2180 C   0  0  0  0  0  0  0  0  0  0  0  0
   57.1780   30.6410   44.7560 S   0  0  0  0  0  0  0  0  0  0  0  0
   55.7210   30.9000   44.4890 O   0  0  0  0  0  0  0  0  0  0  0  0
   57.8420   30.0960   43.5230 O   0  0  0  0  0  0  0  0  0  0  0  0
   57.3140   29.4820   46.0380 N   0  0  0  0  0  0  0  0  0  0  0  0
   57.5900   28.0860   45.8660 C   0  0  0  0  0  0  0  0  0  0  0  0
   57.5710   27.1810   46.9420 C   0  0  0  0  0  0  0  0  0  0  0  0
   57.8460   25.8270   46.7300 C   0  0  0  0  0  0  0  0  0  0  0  0
   58.1440   25.3490   45.4400 C   0  0  0  0  0  0  0  0  0  0  0  0
   58.4480   23.9140   45.1900 C   0  0  0  0  0  0  0  0  0  0  0  0
   59.5370   23.4420   45.6270 O   0  0  0  0  0  0  0  0  0  0  0  0
   57.5200   23.0450   44.4920 N   0  0  0  0  0  0  0  0  0  0  0  0
   58.2210   21.8370   44.0050 C   0  0  0  0  0  0  0  0  0  0  0  0
   57.3670   21.0680   42.9730 C   0  0  0  0  0  0  0  0  0  0  0  0
   56.0120   21.4660   43.0380 O   0  0  0  0  0  0  0  0  0  0  0  0
   55.8870   22.8180   42.6320 C   0  0  0  0  0  0  0  0  0  0  0  0
   56.8730   23.7540   43.3700 C   0  0  0  0  0  0  0  0  0  0  0  0
   58.1720   26.2630   44.3720 C   0  0  0  0  0  0  0  0  0  0  0  0
   57.8950   27.6160   44.5840 C   0  0  0  0  0  0  0  0  0  0  0  0
   59.8385   30.8724   47.5515 H   0  0  0  0  0  0  0  0  0  0  0  0
   59.2620   30.0364   46.0698 H   0  0  0  0  0  0  0  0  0  0  0  0
   60.8539   30.8686   46.0698 H   0  0  0  0  0  0  0  0  0  0  0  0
   60.6798   33.4257   46.9044 H   0  0  0  0  0  0  0  0  0  0  0  0
   59.6416   35.5636   46.1630 H   0  0  0  0  0  0  0  0  0  0  0  0
   57.5357   35.5358   44.8322 H   0  0  0  0  0  0  0  0  0  0  0  0
   56.4679   33.3710   44.2225 H   0  0  0  0  0  0  0  0  0  0  0  0
   57.3386   27.5402   47.9554 H   0  0  0  0  0  0  0  0  0  0  0  0
   57.8294   25.1283   47.5794 H   0  0  0  0  0  0  0  0  0  0  0  0
   56.7570   22.7580   45.1490 H   0  0  0  0  0  0  0  0  0  0  0  0
   59.1677   22.1384   43.5328 H   0  0  0  0  0  0  0  0  0  0  0  0
   58.4067   21.1746   44.8633 H   0  0  0  0  0  0  0  0  0  0  0  0
   57.7535   21.2715   41.9634 H   0  0  0  0  0  0  0  0  0  0  0  0
   57.4274   19.9934   43.1999 H   0  0  0  0  0  0  0  0  0  0  0  0
   56.0831   22.8810   41.5515 H   0  0  0  0  0  0  0  0  0  0  0  0
   54.8669   23.1472   42.8789 H   0  0  0  0  0  0  0  0  0  0  0  0
   57.6449   24.0950   42.6644 H   0  0  0  0  0  0  0  0  0  0  0  0
   56.3152   24.6145   43.7681 H   0  0  0  0  0  0  0  0  0  0  0  0
   58.4145   25.9093   43.3591 H   0  0  0  0  0  0  0  0  0  0  0  0
   57.9169   28.3170   43.7365 H   0  0  0  0  0  0  0  0  0  0  0  0
  1  2  1  0
  2  3  2  0
  3  4  1  0
  4  5  2  0
  5  6  1  0
  6  7  2  0
  7  8  1  0
  8  9  2  0
  8 10  2  0
  8 11  1  0
 11 12  1  0
 12 13  2  0
 13 14  1  0
 14 15  2  0
 15 16  1  0
 16 17  2  0
 16 18  1  0
 18 19  1  0
 19 20  1  0
 20 21  1  0
 21 22  1  0
 22 23  1  0
 15 24  1  0
 24 25  2  0
  7  2  1  0
 25 12  1  0
 23 18  1  0
  1 26  1  0
  1 27  1  0
  1 28  1  0
  3 29  1  0
  4 30  1  0
  5 31  1  0
  6 32  1  0
 13 33  1  0
 14 34  1  0
 18 35  1  0
 19 36  1  0
 19 37  1  0
 20 38  1  0
 20 39  1  0
 22 40  1  0
 22 41  1  0
 23 42  1  0
 23 43  1  0
 24 44  1  0
 25 45  1  0
M  CHG  2  11  -1  18   1
M  END
>  <UniqueID>  (44) 
40

>  <SMILES>  (44) 
Cc1ccccc1S(=O)(=O)[N-]c1ccc(C(=O)[NH+]2CCOCC2)cc1

>  <Energy>  (44) 
66.06981393570958

>  <Genealogy>  (44) 
Cc1ccccc1S(=O)(=O)[N-]c1ccc(C(=O)[NH+]2CCOCC2)cc1 (protonated)
Cc1ccccc1S(=O)(=O)[N-]c1ccc(C(=O)[NH+]2CCOCC2)cc1 (3D coordinates assigned)
Cc1ccccc1S(=O)(=O)[N-]c1ccc(C(=O)[NH+]2CCOCC2)cc1 (nonaromatic ring conformer: 66.06981393570958 kcal/mol)

>  <smiles>  (44) 
Cc1ccccc1S(=O)(=O)Nc1ccc(C(=O)N2CCOCC2)cc1

>  <score_type>  (44) 
oracle

>  <origin>  (44) 
adg

>  <m_score__min__energy>  (44) 
-8.8699999999999992

>  <m_primary>  (44) 
energy

$$$$
44:0
     RDKit          3D

 45 47  0  0  0  0  0  0  0  0999 V2000
   59.5270   35.3220   46.4610 C   0  0  0  0  0  0  0  0  0  0  0  0
   58.8910   34.0960   45.8790 C   0  0  0  0  0  0  0  0  0  0  0  0
   58.8990   33.8850   44.4910 C   0  0  0  0  0  0  0  0  0  0  0  0
   58.3400   32.7230   43.9510 C   0  0  0  0  0  0  0  0  0  0  0  0
   57.7740   31.7560   44.7920 C   0  0  0  0  0  0  0  0  0  0  0  0
   57.0980   30.2810   44.1030 S   0  0  0  0  0  0  0  0  0  0  0  0
   56.7150   30.5400   42.6720 O   0  0  0  0  0  0  0  0  0  0  0  0
   55.8620   29.8780   44.8580 O   0  0  0  0  0  0  0  0  0  0  0  0
   58.2650   28.9950   44.1590 N   0  0  0  0  0  0  0  0  0  0  0  0
   57.7610   27.8360   43.4190 C   0  0  0  0  0  0  0  0  0  0  0  0
   57.8530   26.5820   44.2930 C   0  0  0  0  0  0  0  0  0  0  0  0
   57.4080   26.8660   45.7040 C   0  0  0  0  0  0  0  0  0  0  0  0
   56.1820   27.0300   45.9450 O   0  0  0  0  0  0  0  0  0  0  0  0
   58.3450   27.0000   46.7810 N   0  0  0  0  0  0  0  0  0  0  0  0
   59.0070   28.2060   47.1870 C   0  0  0  0  0  0  0  0  0  0  0  0
   60.1160   28.6510   46.4520 C   0  0  0  0  0  0  0  0  0  0  0  0
   60.7730   29.8340   46.8070 C   0  0  0  0  0  0  0  0  0  0  0  0
   60.3110   30.5870   47.8900 C   0  0  0  0  0  0  0  0  0  0  0  0
   59.1720   30.1790   48.5940 C   0  0  0  0  0  0  0  0  0  0  0  0
   58.5230   28.9890   48.2510 C   0  0  0  0  0  0  0  0  0  0  0  0
   58.6940   30.9800   49.6370 O   0  0  0  0  0  0  0  0  0  0  0  0
   59.1720   32.3140   49.8220 C   0  0  0  0  0  0  0  0  0  0  0  0
   60.6780   32.3850   49.5320 C   0  0  0  0  0  0  0  0  0  0  0  0
   60.9720   31.7560   48.2820 O   0  0  0  0  0  0  0  0  0  0  0  0
   57.7860   31.9530   46.1800 C   0  0  0  0  0  0  0  0  0  0  0  0
   58.3450   33.1150   46.7210 C   0  0  0  0  0  0  0  0  0  0  0  0
   59.4971   35.2644   47.5591 H   0  0  0  0  0  0  0  0  0  0  0  0
   60.5726   35.3871   46.1255 H   0  0  0  0  0  0  0  0  0  0  0  0
   58.9781   36.2143   46.1255 H   0  0  0  0  0  0  0  0  0  0  0  0
   59.3471   34.6374   43.8254 H   0  0  0  0  0  0  0  0  0  0  0  0
   58.3446   32.5674   42.8621 H   0  0  0  0  0  0  0  0  0  0  0  0
   58.3620   28.7230   45.1650 H   0  0  0  0  0  0  0  0  0  0  0  0
   56.7115   28.0097   43.1391 H   0  0  0  0  0  0  0  0  0  0  0  0
   58.3676   27.6921   42.5127 H   0  0  0  0  0  0  0  0  0  0  0  0
   57.2101   25.7987   43.8651 H   0  0  0  0  0  0  0  0  0  0  0  0
   58.9021   26.2523   44.3189 H   0  0  0  0  0  0  0  0  0  0  0  0
   60.4713   28.0659   45.5909 H   0  0  0  0  0  0  0  0  0  0  0  0
   61.6506   30.1705   46.2355 H   0  0  0  0  0  0  0  0  0  0  0  0
   57.6344   28.6651   48.8128 H   0  0  0  0  0  0  0  0  0  0  0  0
   58.6382   32.9891   49.1369 H   0  0  0  0  0  0  0  0  0  0  0  0
   58.9935   32.6169   50.8643 H   0  0  0  0  0  0  0  0  0  0  0  0
   60.9904   33.4389   49.4905 H   0  0  0  0  0  0  0  0  0  0  0  0
   61.2220   31.8624   50.3326 H   0  0  0  0  0  0  0  0  0  0  0  0
   57.3543   31.1910   46.8456 H   0  0  0  0  0  0  0  0  0  0  0  0
   58.3568   33.2608   47.8112 H   0  0  0  0  0  0  0  0  0  0  0  0
  1  2  1  0
  2  3  2  0
  3  4  1  0
  4  5  2  0
  5  6  1  0
  6  7  2  0
  6  8  2  0
  6  9  1  0
  9 10  1  0
 10 11  1  0
 11 12  1  0
 12 13  2  0
 12 14  1  0
 14 15  1  0
 15 16  2  0
 16 17  1  0
 17 18  2  0
 18 19  1  0
 19 20  2  0
 19 21  1  0
 21 22  1  0
 22 23  1  0
 23 24  1  0
  5 25  1  0
 25 26  2  0
 26  2  1  0
 20 15  1  0
 24 18  1  0
  1 27  1  0
  1 28  1  0
  1 29  1  0
  3 30  1  0
  4 31  1  0
  9 32  1  0
 10 33  1  0
 10 34  1  0
 11 35  1  0
 11 36  1  0
 16 37  1  0
 17 38  1  0
 20 39  1  0
 22 40  1  0
 22 41  1  0
 23 42  1  0
 23 43  1  0
 25 44  1  0
 26 45  1  0
M  CHG  1  14  -1
M  END
>  <UniqueID>  (45) 
41

>  <SMILES>  (45) 
Cc1ccc(S(=O)(=O)NCCC(=O)[N-]c2ccc3c(c2)OCCO3)cc1

>  <Energy>  (45) 
46.31192149872545

>  <Genealogy>  (45) 
Cc1ccc(S(=O)(=O)NCCC(=O)[N-]c2ccc3c(c2)OCCO3)cc1 (protonated)
Cc1ccc(S(=O)(=O)NCCC(=O)[N-]c2ccc3c(c2)OCCO3)cc1 (3D coordinates assigned)
Cc1ccc(S(=O)(=O)NCCC(=O)[N-]c2ccc3c(c2)OCCO3)cc1 (nonaromatic ring conformer: 46.31192149872545 kcal/mol)

>  <smiles>  (45) 
Cc1ccc(S(=O)(=O)NCCC(=O)Nc2ccc3c(c2)OCCO3)cc1

>  <score_type>  (45) 
oracle

>  <origin>  (45) 
adg

>  <m_score__min__energy>  (45) 
-10.44

>  <m_primary>  (45) 
energy

$$$$
45:0
     RDKit          3D

 42 44  0  0  0  0  0  0  0  0999 V2000
   57.4373   31.0420   42.9162 H   0  0  0  0  0  0  0  0  0  0  0  0
   57.0260   30.2940   43.6100 C   0  0  0  0  0  0  0  0  0  0  0  0
   57.6970   29.2290   44.0920 N   0  0  0  0  0  0  0  0  0  0  0  0
   56.7930   28.6130   44.8860 C   0  0  0  0  0  0  0  0  0  0  0  0
   57.0470   27.5460   45.5850 N   0  0  0  0  0  0  0  0  0  0  0  0
   57.9450   27.4790   46.7030 C   0  0  0  0  0  0  0  0  0  0  0  0
   57.8850   26.4810   47.4690 O   0  0  0  0  0  0  0  0  0  0  0  0
   58.9700   28.5190   46.9500 C   0  0  0  0  0  0  0  0  0  0  0  0
   58.9100   29.3210   48.1020 C   0  0  0  0  0  0  0  0  0  0  0  0
   58.0937   29.1791   48.8256 H   0  0  0  0  0  0  0  0  0  0  0  0
   59.8810   30.2970   48.3330 C   0  0  0  0  0  0  0  0  0  0  0  0
   59.8207   30.9273   49.2325 H   0  0  0  0  0  0  0  0  0  0  0  0
   60.9310   30.4770   47.4250 C   0  0  0  0  0  0  0  0  0  0  0  0
   62.1900   31.6620   47.7610 S   0  0  0  0  0  0  0  0  0  0  0  0
   62.7030   31.4890   49.1630 O   0  0  0  0  0  0  0  0  0  0  0  0
   63.3220   31.4660   46.7930 O   0  0  0  0  0  0  0  0  0  0  0  0
   61.5520   33.2670   47.5770 N   0  0  0  0  0  0  0  0  0  0  0  0
   60.9880   33.7350   48.8450 C   0  0  0  0  0  0  0  0  0  0  0  0
   60.7458   32.8685   49.4778 H   0  0  0  0  0  0  0  0  0  0  0  0
   61.7245   34.3742   49.3538 H   0  0  0  0  0  0  0  0  0  0  0  0
   59.7170   34.5430   48.5850 C   0  0  0  0  0  0  0  0  0  0  0  0
   58.9973   34.3514   49.3945 H   0  0  0  0  0  0  0  0  0  0  0  0
   59.9820   35.6100   48.5486 H   0  0  0  0  0  0  0  0  0  0  0  0
   59.0910   34.1590   47.2680 C   0  0  0  0  0  0  0  0  0  0  0  0
   58.2230   33.0560   47.1900 C   0  0  0  0  0  0  0  0  0  0  0  0
   57.9613   32.4997   48.1022 H   0  0  0  0  0  0  0  0  0  0  0  0
   57.6910   32.6630   45.9590 C   0  0  0  0  0  0  0  0  0  0  0  0
   57.0078   31.8025   45.9053 H   0  0  0  0  0  0  0  0  0  0  0  0
   58.0260   33.3620   44.7960 C   0  0  0  0  0  0  0  0  0  0  0  0
   57.6071   33.0509   43.8276 H   0  0  0  0  0  0  0  0  0  0  0  0
   58.8930   34.4560   44.8630 C   0  0  0  0  0  0  0  0  0  0  0  0
   59.1557   35.0055   43.9470 H   0  0  0  0  0  0  0  0  0  0  0  0
   59.4270   34.8530   46.0930 C   0  0  0  0  0  0  0  0  0  0  0  0
   60.1127   35.7118   46.1410 H   0  0  0  0  0  0  0  0  0  0  0  0
   60.9790   29.7010   46.2600 C   0  0  0  0  0  0  0  0  0  0  0  0
   61.7897   29.8539   45.5324 H   0  0  0  0  0  0  0  0  0  0  0  0
   60.0000   28.7330   46.0190 C   0  0  0  0  0  0  0  0  0  0  0  0
   60.0362   28.1359   45.0959 H   0  0  0  0  0  0  0  0  0  0  0  0
   55.6050   29.2410   44.9290 N   0  0  0  0  0  0  0  0  0  0  0  0
   54.7560   28.9690   45.4750 H   0  0  0  0  0  0  0  0  0  0  0  0
   55.7450   30.3020   44.1200 C   0  0  0  0  0  0  0  0  0  0  0  0
   54.9697   31.0509   43.9008 H   0  0  0  0  0  0  0  0  0  0  0  0
  1  2  1  0
  2  3  1  0
  3  4  1  0
  4  5  2  0
  5  6  1  0
  6  7  2  0
  6  8  1  0
  8  9  2  0
  9 10  1  0
  9 11  1  0
 11 12  1  0
 11 13  2  0
 13 14  1  0
 14 15  2  0
 14 16  2  0
 14 17  1  0
 17 18  1  0
 18 19  1  0
 18 20  1  0
 18 21  1  0
 21 22  1  0
 21 23  1  0
 21 24  1  0
 24 25  2  0
 25 26  1  0
 25 27  1  0
 27 28  1  0
 27 29  2  0
 29 30  1  0
 29 31  1  0
 31 32  1  0
 31 33  2  0
 33 34  1  0
 13 35  1  0
 35 36  1  0
 35 37  2  0
 37 38  1  0
  4 39  1  0
 39 40  1  0
 39 41  1  0
 41 42  1  0
 41  2  2  0
 37  8  1  0
 33 24  1  0
M  CHG  2   3  -1  17  -1
M  END
>  <UniqueID>  (46) 
42

>  <SMILES>  (46) 
O=C(/N=c1\[n-]cc[nH]1)c1ccc(S(=O)(=O)[N-]CCc2ccccc2)cc1

>  <Energy>  (46) 
72.6652853026342

>  <Genealogy>  (46) 
O=C(N=c1[n-]cc[nH]1)c1ccc(S(=O)(=O)[N-]CCc2ccccc2)cc1 (protonated)
O=C(/N=c1\[n-]cc[nH]1)c1ccc(S(=O)(=O)[N-]CCc2ccccc2)cc1 (cis-trans isomerization)
O=C(/N=c1\[n-]cc[nH]1)c1ccc(S(=O)(=O)[N-]CCc2ccccc2)cc1 (3D coordinates assigned)
O=C(/N=c1\[n-]cc[nH]1)c1ccc(S(=O)(=O)[N-]CCc2ccccc2)cc1 (optimized conformer: 72.6652853026342 kcal/mol)

>  <smiles>  (46) 
O=C(N=c1[nH]cc[nH]1)c1ccc(S(=O)(=O)NCCc2ccccc2)cc1

>  <score_type>  (46) 
oracle

>  <origin>  (46) 
adg

>  <m_score__min__energy>  (46) 
-10.35

>  <m_primary>  (46) 
energy

$$$$
46:0
     RDKit          3D

 72 76  0  0  0  0  0  0  0  0999 V2000
   59.4874   32.8413   51.5735 H   0  0  0  0  0  0  0  0  0  0  0  0
   59.8140   33.0820   50.5510 C   0  0  0  0  0  0  0  0  0  0  0  0
   58.8970   33.2860   49.5800 N   0  0  0  0  0  0  0  0  0  0  0  0
   59.2490   33.5920   48.3060 C   0  0  0  0  0  0  0  0  0  0  0  0
   58.2310   33.7870   47.3650 C   0  0  0  0  0  0  0  0  0  0  0  0
   57.1791   33.6841   47.6700 H   0  0  0  0  0  0  0  0  0  0  0  0
   58.5390   34.1100   46.0470 C   0  0  0  0  0  0  0  0  0  0  0  0
   57.2570   34.3570   44.8770 Cl  0  0  0  0  0  0  0  0  0  0  0  0
   59.8680   34.2360   45.6620 C   0  0  0  0  0  0  0  0  0  0  0  0
   60.1110   34.4903   44.6198 H   0  0  0  0  0  0  0  0  0  0  0  0
   60.8990   34.0430   46.5850 C   0  0  0  0  0  0  0  0  0  0  0  0
   61.9436   34.1497   46.2573 H   0  0  0  0  0  0  0  0  0  0  0  0
   60.6240   33.7120   47.9370 C   0  0  0  0  0  0  0  0  0  0  0  0
   61.6110   33.4860   48.9640 C   0  0  0  0  0  0  0  0  0  0  0  0
   62.9110   33.5380   48.8250 N   0  0  0  0  0  0  0  0  0  0  0  0
   64.0180   33.5010   49.7740 C   0  0  0  0  0  0  0  0  0  0  0  0
   63.7196   34.0108   50.7019 H   0  0  0  0  0  0  0  0  0  0  0  0
   64.8887   34.0083   49.3331 H   0  0  0  0  0  0  0  0  0  0  0  0
   64.3890   32.0480   50.0900 C   0  0  0  0  0  0  0  0  0  0  0  0
   65.4131   32.0292   50.4910 H   0  0  0  0  0  0  0  0  0  0  0  0
   64.2981   31.4792   49.1529 H   0  0  0  0  0  0  0  0  0  0  0  0
   63.4540   31.3870   51.1130 C   0  0  0  0  0  0  0  0  0  0  0  0
   62.5274   31.9757   51.1823 H   0  0  0  0  0  0  0  0  0  0  0  0
   63.9723   31.3550   52.0827 H   0  0  0  0  0  0  0  0  0  0  0  0
   63.1190   30.0200   50.7290 N   0  0  0  0  0  0  0  0  0  0  0  0
   62.1590   29.2130   51.4150 C   0  0  0  0  0  0  0  0  0  0  0  0
   62.5180   28.1750   52.0340 O   0  0  0  0  0  0  0  0  0  0  0  0
   60.7490   29.6200   51.4190 C   0  0  0  0  0  0  0  0  0  0  0  0
   60.2910   30.3310   52.5390 C   0  0  0  0  0  0  0  0  0  0  0  0
   60.9922   30.5830   53.3482 H   0  0  0  0  0  0  0  0  0  0  0  0
   58.9560   30.7210   52.6360 C   0  0  0  0  0  0  0  0  0  0  0  0
   58.6085   31.2747   53.5207 H   0  0  0  0  0  0  0  0  0  0  0  0
   58.0630   30.4110   51.6160 C   0  0  0  0  0  0  0  0  0  0  0  0
   57.0062   30.7035   51.7035 H   0  0  0  0  0  0  0  0  0  0  0  0
   58.5060   29.7290   50.4810 C   0  0  0  0  0  0  0  0  0  0  0  0
   57.7922   29.4949   49.6774 H   0  0  0  0  0  0  0  0  0  0  0  0
   59.8550   29.3350   50.3480 C   0  0  0  0  0  0  0  0  0  0  0  0
   60.2740   28.6470   49.0450 C   0  0  2  0  0  0  0  0  0  0  0  0
   61.3670   28.7059   48.9365 H   0  0  0  0  0  0  0  0  0  0  0  0
   59.7420   29.4020   47.8290 C   0  0  0  0  0  0  0  0  0  0  0  0
   60.6270   30.2480   47.1310 C   0  0  0  0  0  0  0  0  0  0  0  0
   61.6647   30.3542   47.4801 H   0  0  0  0  0  0  0  0  0  0  0  0
   60.2040   30.9540   46.0010 C   0  0  0  0  0  0  0  0  0  0  0  0
   60.9077   31.6106   45.4684 H   0  0  0  0  0  0  0  0  0  0  0  0
   58.8910   30.8270   45.5480 C   0  0  0  0  0  0  0  0  0  0  0  0
   58.5602   31.3802   44.6567 H   0  0  0  0  0  0  0  0  0  0  0  0
   57.9970   29.9970   46.2270 C   0  0  0  0  0  0  0  0  0  0  0  0
   56.9611   29.8991   45.8702 H   0  0  0  0  0  0  0  0  0  0  0  0
   58.4140   29.2890   47.3600 C   0  0  0  0  0  0  0  0  0  0  0  0
   57.7019   28.6392   47.8898 H   0  0  0  0  0  0  0  0  0  0  0  0
   60.0180   27.1190   49.0820 C   0  0  0  0  0  0  0  0  0  0  0  0
   59.0682   26.9313   49.6042 H   0  0  0  0  0  0  0  0  0  0  0  0
   60.8623   26.6473   49.6060 H   0  0  0  0  0  0  0  0  0  0  0  0
   59.9390   26.5250   47.7060 C   0  0  0  0  0  0  0  0  0  0  0  0
   60.8950   26.6690   46.8990 O   0  0  0  0  0  0  0  0  0  0  0  0
   58.7700   25.7970   47.3180 N   0  0  0  0  0  0  0  0  0  0  0  0
   57.6470   26.3940   46.6020 C   0  0  0  0  0  0  0  0  0  0  0  0
   57.0236   26.9588   47.3108 H   0  0  0  0  0  0  0  0  0  0  0  0
   58.0357   27.0668   45.8234 H   0  0  0  0  0  0  0  0  0  0  0  0
   56.8110   25.3190   45.9500 C   0  0  0  0  0  0  0  0  0  0  0  0
   57.4110   24.0940   45.6080 C   0  0  0  0  0  0  0  0  0  0  0  0
   58.4835   23.9391   45.7968 H   0  0  0  0  0  0  0  0  0  0  0  0
   56.6520   23.0710   45.0290 C   0  0  0  0  0  0  0  0  0  0  0  0
   57.1285   22.1154   44.7649 H   0  0  0  0  0  0  0  0  0  0  0  0
   55.2900   23.2620   44.7860 C   0  0  0  0  0  0  0  0  0  0  0  0
   54.6947   22.4580   44.3285 H   0  0  0  0  0  0  0  0  0  0  0  0
   54.6840   24.4740   45.1240 C   0  0  0  0  0  0  0  0  0  0  0  0
   53.6110   24.6213   44.9316 H   0  0  0  0  0  0  0  0  0  0  0  0
   55.4340   25.5020   45.7060 C   0  0  0  0  0  0  0  0  0  0  0  0
   54.8020   26.6970   46.0390 O   0  0  0  0  0  0  0  0  0  0  0  0
   61.1700   33.1760   50.2590 C   0  0  0  0  0  0  0  0  0  0  0  0
   61.9086   33.0046   51.0559 H   0  0  0  0  0  0  0  0  0  0  0  0
  1  2  1  0
  2  3  1  0
  3  4  1  0
  4  5  2  0
  5  6  1  0
  5  7  1  0
  7  8  1  0
  7  9  2  0
  9 10  1  0
  9 11  1  0
 11 12  1  0
 11 13  2  0
 13 14  1  0
 14 15  2  0
 15 16  1  0
 16 17  1  0
 16 18  1  0
 16 19  1  0
 19 20  1  0
 19 21  1  0
 19 22  1  0
 22 23  1  0
 22 24  1  0
 22 25  1  0
 25 26  1  0
 26 27  2  0
 26 28  1  0
 28 29  2  0
 29 30  1  0
 29 31  1  0
 31 32  1  0
 31 33  2  0
 33 34  1  0
 33 35  1  0
 35 36  1  0
 35 37  2  0
 37 38  1  0
 38 39  1  6
 38 40  1  0
 40 41  2  0
 41 42  1  0
 41 43  1  0
 43 44  1  0
 43 45  2  0
 45 46  1  0
 45 47  1  0
 47 48  1  0
 47 49  2  0
 49 50  1  0
 38 51  1  0
 51 52  1  0
 51 53  1  0
 51 54  1  0
 54 55  2  0
 54 56  1  0
 56 57  1  0
 57 58  1  0
 57 59  1  0
 57 60  1  0
 60 61  2  0
 61 62  1  0
 61 63  1  0
 63 64  1  0
 63 65  2  0
 65 66  1  0
 65 67  1  0
 67 68  1  0
 67 69  2  0
 69 70  1  0
 14 71  1  0
 71 72  1  0
 71  2  2  0
 13  4  1  0
 37 28  1  0
 49 40  1  0
 69 60  1  0
M  CHG  4   3  -1  25  -1  56  -1  70  -1
M  END
>  <UniqueID>  (47) 
43

>  <SMILES>  (47) 
O=C(C[C@@H](c1ccccc1)c1ccccc1C(=O)[N-]CCC/N=c1/cc[n-]c2cc(Cl)ccc12)[N-]Cc1ccccc1[O-]

>  <Energy>  (47) 
102.32419070873837

>  <Genealogy>  (47) 
O=C(CC(c1ccccc1)c1ccccc1C(=O)[N-]CCCN=c1cc[n-]c2cc(Cl)ccc12)[N-]Cc1ccccc1[O-] (protonated)
O=C(C[C@@H](c1ccccc1)c1ccccc1C(=O)[N-]CCCN=c1cc[n-]c2cc(Cl)ccc12)[N-]Cc1ccccc1[O-] (chirality)
O=C(C[C@@H](c1ccccc1)c1ccccc1C(=O)[N-]CCC/N=c1/cc[n-]c2cc(Cl)ccc12)[N-]Cc1ccccc1[O-] (cis-trans isomerization)
O=C(C[C@@H](c1ccccc1)c1ccccc1C(=O)[N-]CCC/N=c1/cc[n-]c2cc(Cl)ccc12)[N-]Cc1ccccc1[O-] (3D coordinates assigned)
O=C(C[C@@H](c1ccccc1)c1ccccc1C(=O)[N-]CCC/N=c1/cc[n-]c2cc(Cl)ccc12)[N-]Cc1ccccc1[O-] (optimized conformer: 102.32419070873837 kcal/mol)

>  <smiles>  (47) 
O=C(CC(c1ccccc1)c1ccccc1C(=O)NCCCN=c1cc[nH]c2cc(Cl)ccc12)NCc1ccccc1O

>  <score_type>  (47) 
oracle

>  <origin>  (47) 
adg

>  <m_score__min__energy>  (47) 
-16.34

>  <m_primary>  (47) 
energy

$$$$
47:0
     RDKit          3D

 41 43  0  0  0  0  0  0  0  0999 V2000
   55.6650   29.6660   44.8610 O   0  0  0  0  0  0  0  0  0  0  0  0
   56.6620   29.1490   45.4340 C   0  0  0  0  0  0  0  0  0  0  0  0
   57.8010   29.9520   45.7750 N   0  0  0  0  0  0  0  0  0  0  0  0
   58.0290   31.3150   45.3870 C   0  0  0  0  0  0  0  0  0  0  0  0
   57.5370   31.7520   44.1520 C   0  0  0  0  0  0  0  0  0  0  0  0
   57.7450   33.0700   43.7350 C   0  0  0  0  0  0  0  0  0  0  0  0
   58.4600   33.9560   44.5430 C   0  0  0  0  0  0  0  0  0  0  0  0
   58.9890   33.5230   45.7650 C   0  0  0  0  0  0  0  0  0  0  0  0
   59.8910   34.6470   46.7780 S   0  0  0  0  0  0  0  0  0  0  0  0
   61.3530   34.2940   46.7680 O   0  0  0  0  0  0  0  0  0  0  0  0
   59.7350   36.0380   46.2290 O   0  0  0  0  0  0  0  0  0  0  0  0
   59.2790   34.6040   48.4040 N   0  0  0  0  0  0  0  0  0  0  0  0
   60.2380   33.9220   49.2770 C   0  0  0  0  0  0  0  0  0  0  0  0
   60.1410   32.4370   49.0690 C   0  0  0  0  0  0  0  0  0  0  0  0
   58.9910   31.7360   49.4690 C   0  0  0  0  0  0  0  0  0  0  0  0
   58.8910   30.3600   49.2430 C   0  0  0  0  0  0  0  0  0  0  0  0
   59.9320   29.6770   48.6070 C   0  0  0  0  0  0  0  0  0  0  0  0
   61.0720   30.3700   48.1920 C   0  0  0  0  0  0  0  0  0  0  0  0
   61.1760   31.7460   48.4170 C   0  0  0  0  0  0  0  0  0  0  0  0
   58.7760   32.2020   46.1850 C   0  0  0  0  0  0  0  0  0  0  0  0
   56.6900   27.7020   45.7120 C   0  0  0  0  0  0  0  0  0  0  0  0
   57.8960   27.0310   45.9640 C   0  0  0  0  0  0  0  0  0  0  0  0
   57.8570   25.6590   46.2190 C   0  0  0  0  0  0  0  0  0  0  0  0
   58.9210   25.0260   46.4470 O   0  0  0  0  0  0  0  0  0  0  0  0
   56.6670   25.0030   46.2210 N   0  0  0  0  0  0  0  0  0  0  0  0
   55.5070   25.6650   45.9760 C   0  0  0  0  0  0  0  0  0  0  0  0
   54.4150   25.0410   45.9820 O   0  0  0  0  0  0  0  0  0  0  0  0
   55.5250   27.0000   45.7250 N   0  0  0  0  0  0  0  0  0  0  0  0
   56.9836   31.0547   43.5059 H   0  0  0  0  0  0  0  0  0  0  0  0
   57.3446   33.4096   42.7684 H   0  0  0  0  0  0  0  0  0  0  0  0
   58.6081   34.9967   44.2189 H   0  0  0  0  0  0  0  0  0  0  0  0
   59.2000   35.5980   48.7230 H   0  0  0  0  0  0  0  0  0  0  0  0
   61.2568   34.2597   49.0361 H   0  0  0  0  0  0  0  0  0  0  0  0
   60.0099   34.1597   50.3265 H   0  0  0  0  0  0  0  0  0  0  0  0
   58.1663   32.2718   49.9618 H   0  0  0  0  0  0  0  0  0  0  0  0
   57.9923   29.8141   49.5659 H   0  0  0  0  0  0  0  0  0  0  0  0
   59.8535   28.5936   48.4333 H   0  0  0  0  0  0  0  0  0  0  0  0
   61.8886   29.8325   47.6877 H   0  0  0  0  0  0  0  0  0  0  0  0
   62.0717   32.2897   48.0822 H   0  0  0  0  0  0  0  0  0  0  0  0
   59.1945   31.8575   47.1422 H   0  0  0  0  0  0  0  0  0  0  0  0
   58.8523   27.5746   45.9607 H   0  0  0  0  0  0  0  0  0  0  0  0
  1  2  2  0
  2  3  1  0
  3  4  1  0
  4  5  2  0
  5  6  1  0
  6  7  2  0
  7  8  1  0
  8  9  1  0
  9 10  2  0
  9 11  2  0
  9 12  1  0
 12 13  1  0
 13 14  1  0
 14 15  2  0
 15 16  1  0
 16 17  2  0
 17 18  1  0
 18 19  2  0
  8 20  2  0
  2 21  1  0
 21 22  2  0
 22 23  1  0
 23 24  2  0
 23 25  1  0
 25 26  1  0
 26 27  2  0
 26 28  1  0
 20  4  1  0
 28 21  1  0
 19 14  1  0
  5 29  1  0
  6 30  1  0
  7 31  1  0
 12 32  1  0
 13 33  1  0
 13 34  1  0
 15 35  1  0
 16 36  1  0
 17 37  1  0
 18 38  1  0
 19 39  1  0
 20 40  1  0
 22 41  1  0
M  CHG  3   3  -1  25  -1  28  -1
M  END
>  <UniqueID>  (48) 
44

>  <SMILES>  (48) 
O=C([N-]c1cccc(S(=O)(=O)NCc2ccccc2)c1)c1cc(=O)[n-]c(=O)[n-]1

>  <Energy>  (48) 
45.26868254505505

>  <Genealogy>  (48) 
O=C([N-]c1cccc(S(=O)(=O)NCc2ccccc2)c1)c1cc(=O)[n-]c(=O)[n-]1 (protonated)
O=C([N-]c1cccc(S(=O)(=O)NCc2ccccc2)c1)c1cc(=O)[n-]c(=O)[n-]1 (3D coordinates assigned)
O=C([N-]c1cccc(S(=O)(=O)NCc2ccccc2)c1)c1cc(=O)[n-]c(=O)[n-]1 (optimized conformer: 45.26868254505505 kcal/mol)

>  <smiles>  (48) 
O=C(Nc1cccc(S(=O)(=O)NCc2ccccc2)c1)c1cc(=O)[nH]c(=O)[nH]1

>  <score_type>  (48) 
oracle

>  <origin>  (48) 
adg

>  <m_score__min__energy>  (48) 
-15.1

>  <m_primary>  (48) 
energy

$$$$
48:0
     RDKit          3D

 35 36  0  0  0  0  0  0  0  0999 V2000
   58.5475   25.3464   45.6196 H   0  0  0  0  0  0  0  0  0  0  0  0
   58.1140   26.3450   45.4620 C   0  0  0  0  0  0  0  0  0  0  0  0
   56.7770   26.5960   45.7930 C   0  0  0  0  0  0  0  0  0  0  0  0
   55.9210   25.5180   46.3760 C   0  0  0  0  0  0  0  0  0  0  0  0
   55.9626   25.5703   47.4740 H   0  0  0  0  0  0  0  0  0  0  0  0
   54.8819   25.6537   46.0415 H   0  0  0  0  0  0  0  0  0  0  0  0
   56.2887   24.5367   46.0415 H   0  0  0  0  0  0  0  0  0  0  0  0
   56.2620   27.8430   45.6150 N   0  0  0  0  0  0  0  0  0  0  0  0
   56.9960   28.8650   45.0880 C   0  0  0  0  0  0  0  0  0  0  0  0
   56.4840   30.0510   44.9310 N   0  0  0  0  0  0  0  0  0  0  0  0
   57.1260   31.1820   44.3190 C   0  0  0  0  0  0  0  0  0  0  0  0
   57.0460   31.3150   43.0690 O   0  0  0  0  0  0  0  0  0  0  0  0
   57.8320   32.2190   45.1100 C   0  0  0  0  0  0  0  0  0  0  0  0
   57.3700   33.5450   45.1040 C   0  0  0  0  0  0  0  0  0  0  0  0
   56.4798   33.8122   44.5156 H   0  0  0  0  0  0  0  0  0  0  0  0
   58.0360   34.5260   45.8420 C   0  0  0  0  0  0  0  0  0  0  0  0
   57.6717   35.5638   45.8292 H   0  0  0  0  0  0  0  0  0  0  0  0
   59.1630   34.1930   46.5960 C   0  0  0  0  0  0  0  0  0  0  0  0
   59.6861   34.9726   47.1692 H   0  0  0  0  0  0  0  0  0  0  0  0
   59.6320   32.8750   46.6280 C   0  0  0  0  0  0  0  0  0  0  0  0
   60.7710   32.5950   47.4020 O   0  0  0  0  0  0  0  0  0  0  0  0
   61.6680   33.5720   47.9300 C   0  0  0  0  0  0  0  0  0  0  0  0
   61.3947   34.5623   47.5368 H   0  0  0  0  0  0  0  0  0  0  0  0
   61.5939   33.5618   49.0275 H   0  0  0  0  0  0  0  0  0  0  0  0
   63.0830   33.2620   47.5410 C   0  0  0  0  0  0  0  0  0  0  0  0
   63.9600   34.1640   47.6090 O   0  0  0  0  0  0  0  0  0  0  0  0
   63.4520   31.9470   47.1290 N   0  0  0  0  0  0  0  0  0  0  0  0
   64.4470   31.7270   46.9000 H   0  0  0  0  0  0  0  0  0  0  0  0
   62.7390   31.1880   47.0550 H   0  0  0  0  0  0  0  0  0  0  0  0
   58.9510   31.8850   45.8940 C   0  0  0  0  0  0  0  0  0  0  0  0
   59.2970   30.8416   45.9341 H   0  0  0  0  0  0  0  0  0  0  0  0
   58.3340   28.6410   44.7400 C   0  0  0  0  0  0  0  0  0  0  0  0
   58.9414   29.4564   44.3202 H   0  0  0  0  0  0  0  0  0  0  0  0
   58.8910   27.3750   44.9300 C   0  0  0  0  0  0  0  0  0  0  0  0
   59.9413   27.1895   44.6606 H   0  0  0  0  0  0  0  0  0  0  0  0
  1  2  1  0
  2  3  2  0
  3  4  1  0
  4  5  1  0
  4  6  1  0
  4  7  1  0
  3  8  1  0
  8  9  1  0
  9 10  2  0
 10 11  1  0
 11 12  2  0
 11 13  1  0
 13 14  2  0
 14 15  1  0
 14 16  1  0
 16 17  1  0
 16 18  2  0
 18 19  1  0
 18 20  1  0
 20 21  1  0
 21 22  1  0
 22 23  1  0
 22 24  1  0
 22 25  1  0
 25 26  2  0
 25 27  1  0
 27 28  1  0
 27 29  1  0
 20 30  2  0
 30 31  1  0
  9 32  1  0
 32 33  1  0
 32 34  2  0
 34 35  1  0
 34  2  1  0
 30 13  1  0
M  CHG  1   8  -1
M  END
>  <UniqueID>  (49) 
45

>  <SMILES>  (49) 
Cc1ccc/c(=N/C(=O)c2cccc(OCC(N)=O)c2)[n-]1

>  <Energy>  (49) 
37.39887989342806

>  <Genealogy>  (49) 
Cc1cccc(=NC(=O)c2cccc(OCC(N)=O)c2)[n-]1 (protonated)
Cc1ccc/c(=N/C(=O)c2cccc(OCC(N)=O)c2)[n-]1 (cis-trans isomerization)
Cc1ccc/c(=N/C(=O)c2cccc(OCC(N)=O)c2)[n-]1 (3D coordinates assigned)
Cc1ccc/c(=N/C(=O)c2cccc(OCC(N)=O)c2)[n-]1 (optimized conformer: 37.39887989342806 kcal/mol)

>  <smiles>  (49) 
Cc1cccc(=NC(=O)c2cccc(OCC(N)=O)c2)[nH]1

>  <score_type>  (49) 
oracle

>  <origin>  (49) 
adg

>  <m_score__min__energy>  (49) 
-8.9399999999999995

>  <m_primary>  (49) 
energy

$$$$
49:0
     RDKit          3D

 45 46  0  0  0  0  0  0  0  0999 V2000
   60.0480   30.9850   46.4040 C   0  0  0  0  0  0  0  0  0  0  0  0
   59.8820   29.6430   46.9990 N   0  0  0  0  0  0  0  0  0  0  0  0
   59.1060   28.6790   46.3880 C   0  0  0  0  0  0  0  0  0  0  0  0
   58.2560   29.0300   45.1650 C   0  0  0  0  0  0  0  0  0  0  0  0
   56.8920   29.2140   45.5400 O   0  0  0  0  0  0  0  0  0  0  0  0
   55.9660   29.8600   44.7170 C   0  0  0  0  0  0  0  0  0  0  0  0
   54.9890   29.2280   44.2310 O   0  0  0  0  0  0  0  0  0  0  0  0
   56.0990   31.2640   44.4900 N   0  0  0  0  0  0  0  0  0  0  0  0
   57.2990   31.8550   43.9100 C   0  0  0  0  0  0  0  0  0  0  0  0
   57.9060   32.8270   44.8870 C   0  0  0  0  0  0  0  0  0  0  0  0
   58.8530   33.7730   44.4600 C   0  0  0  0  0  0  0  0  0  0  0  0
   59.3480   34.7270   45.3550 C   0  0  0  0  0  0  0  0  0  0  0  0
   58.9000   34.7450   46.6780 C   0  0  0  0  0  0  0  0  0  0  0  0
   57.9540   33.8120   47.1090 C   0  0  0  0  0  0  0  0  0  0  0  0
   57.4540   32.8580   46.2170 C   0  0  0  0  0  0  0  0  0  0  0  0
   59.0600   27.3750   46.9430 C   0  0  0  0  0  0  0  0  0  0  0  0
   58.3250   26.2340   46.2680 C   0  0  0  0  0  0  0  0  0  0  0  0
   57.1900   25.8730   47.0460 O   0  0  0  0  0  0  0  0  0  0  0  0
   55.9360   25.6270   46.4830 C   0  0  0  0  0  0  0  0  0  0  0  0
   55.1620   26.7180   45.9940 N   0  0  0  0  0  0  0  0  0  0  0  0
   55.4830   24.4530   46.4020 O   0  0  0  0  0  0  0  0  0  0  0  0
   59.6790   27.1570   48.1840 C   0  0  0  0  0  0  0  0  0  0  0  0
   59.5760   26.0280   48.7420 O   0  0  0  0  0  0  0  0  0  0  0  0
   60.3810   28.1570   48.7980 N   0  0  0  0  0  0  0  0  0  0  0  0
   60.9830   27.9170   50.1220 C   0  0  0  0  0  0  0  0  0  0  0  0
   60.4680   29.3930   48.2160 C   0  0  0  0  0  0  0  0  0  0  0  0
   61.0850   30.3200   48.8160 O   0  0  0  0  0  0  0  0  0  0  0  0
   60.1405   31.7326   47.2056 H   0  0  0  0  0  0  0  0  0  0  0  0
   60.9549   31.0006   45.7817 H   0  0  0  0  0  0  0  0  0  0  0  0
   59.1722   31.2211   45.7817 H   0  0  0  0  0  0  0  0  0  0  0  0
   58.6360   29.9589   44.7147 H   0  0  0  0  0  0  0  0  0  0  0  0
   58.3173   28.2044   44.4407 H   0  0  0  0  0  0  0  0  0  0  0  0
   58.0258   31.0608   43.6842 H   0  0  0  0  0  0  0  0  0  0  0  0
   57.0339   32.3856   42.9836 H   0  0  0  0  0  0  0  0  0  0  0  0
   59.2063   33.7633   43.4183 H   0  0  0  0  0  0  0  0  0  0  0  0
   60.0911   35.4641   45.0166 H   0  0  0  0  0  0  0  0  0  0  0  0
   59.2925   35.4945   47.3810 H   0  0  0  0  0  0  0  0  0  0  0  0
   57.6020   33.8277   48.1510 H   0  0  0  0  0  0  0  0  0  0  0  0
   56.7040   32.1291   46.5579 H   0  0  0  0  0  0  0  0  0  0  0  0
   57.9973   26.5506   45.2668 H   0  0  0  0  0  0  0  0  0  0  0  0
   58.9973   25.3681   46.1777 H   0  0  0  0  0  0  0  0  0  0  0  0
   55.5890   27.4450   45.3790 H   0  0  0  0  0  0  0  0  0  0  0  0
   60.2675   28.2023   50.9073 H   0  0  0  0  0  0  0  0  0  0  0  0
   61.2328   26.8505   50.2234 H   0  0  0  0  0  0  0  0  0  0  0  0
   61.8980   28.5191   50.2234 H   0  0  0  0  0  0  0  0  0  0  0  0
  1  2  1  0
  2  3  1  0
  3  4  1  0
  4  5  1  0
  5  6  1  0
  6  7  2  0
  6  8  1  0
  8  9  1  0
  9 10  1  0
 10 11  2  0
 11 12  1  0
 12 13  2  0
 13 14  1  0
 14 15  2  0
  3 16  2  0
 16 17  1  0
 17 18  1  0
 18 19  1  0
 19 20  1  0
 19 21  2  0
 16 22  1  0
 22 23  2  0
 22 24  1  0
 24 25  1  0
 24 26  1  0
 26 27  2  0
 26  2  1  0
 15 10  1  0
  1 28  1  0
  1 29  1  0
  1 30  1  0
  4 31  1  0
  4 32  1  0
  9 33  1  0
  9 34  1  0
 11 35  1  0
 12 36  1  0
 13 37  1  0
 14 38  1  0
 15 39  1  0
 17 40  1  0
 17 41  1  0
 20 42  1  0
 25 43  1  0
 25 44  1  0
 25 45  1  0
M  CHG  2   8  -1  20  -1
M  END
>  <UniqueID>  (50) 
46

>  <SMILES>  (50) 
Cn1c(COC(=O)[N-]Cc2ccccc2)c(COC([NH-])=O)c(=O)n(C)c1=O

>  <Energy>  (50) 
50.32140543099269

>  <Genealogy>  (50) 
Cn1c(COC(=O)[N-]Cc2ccccc2)c(COC([NH-])=O)c(=O)n(C)c1=O (protonated)
Cn1c(COC(=O)[N-]Cc2ccccc2)c(COC([NH-])=O)c(=O)n(C)c1=O (3D coordinates assigned)
Cn1c(COC(=O)[N-]Cc2ccccc2)c(COC([NH-])=O)c(=O)n(C)c1=O (optimized conformer: 50.32140543099269 kcal/mol)

>  <smiles>  (50) 
Cn1c(COC(=O)NCc2ccccc2)c(COC(N)=O)c(=O)n(C)c1=O

>  <score_type>  (50) 
oracle

>  <origin>  (50) 
adg

>  <m_score__min__energy>  (50) 
-11.880000000000001

>  <m_primary>  (50) 
energy

$$$$
50:0
     RDKit          3D

 41 42  0  0  0  0  0  0  0  0999 V2000
   57.7190   33.0490   45.4990 C   0  0  0  0  0  0  0  0  0  0  0  0
   57.3980   31.7660   46.0270 O   0  0  0  0  0  0  0  0  0  0  0  0
   57.8060   30.5490   45.4590 C   0  0  0  0  0  0  0  0  0  0  0  0
   59.1140   30.0470   45.6170 C   0  0  0  0  0  0  0  0  0  0  0  0
   59.4820   28.8240   45.0320 C   0  0  0  0  0  0  0  0  0  0  0  0
   60.8690   28.2730   45.2220 C   0  0  0  0  0  0  0  0  0  0  0  0
   60.8760   27.2770   46.2870 N   0  0  0  0  0  0  0  0  0  0  0  0
   60.3060   27.4950   47.5820 C   0  0  0  0  0  0  0  0  0  0  0  0
   61.0430   27.8180   48.5520 O   0  0  0  0  0  0  0  0  0  0  0  0
   58.8920   27.4040   47.7840 N   0  0  0  0  0  0  0  0  0  0  0  0
   57.9990   26.4920   47.1280 C   0  0  0  0  0  0  0  0  0  0  0  0
   58.4690   25.2210   46.7810 C   0  0  0  0  0  0  0  0  0  0  0  0
   57.6360   24.3110   46.1250 C   0  0  0  0  0  0  0  0  0  0  0  0
   56.3180   24.6700   45.7890 C   0  0  0  0  0  0  0  0  0  0  0  0
   55.4330   23.7630   45.1150 N   0  0  0  0  0  0  0  0  0  0  0  0
   55.9230   22.5320   43.9980 S   0  0  0  0  0  0  0  0  0  0  0  0
   57.6920   22.5800   43.8270 C   0  0  0  0  0  0  0  0  0  0  0  0
   55.5170   21.1800   44.5160 O   0  0  0  0  0  0  0  0  0  0  0  0
   55.2930   22.7780   42.6560 O   0  0  0  0  0  0  0  0  0  0  0  0
   55.8570   25.9550   46.1100 C   0  0  0  0  0  0  0  0  0  0  0  0
   54.5640   26.3370   45.7690 O   0  0  0  0  0  0  0  0  0  0  0  0
   56.6920   26.8630   46.7690 C   0  0  0  0  0  0  0  0  0  0  0  0
   58.5370   28.0990   44.2940 C   0  0  0  0  0  0  0  0  0  0  0  0
   57.2410   28.5930   44.1330 C   0  0  0  0  0  0  0  0  0  0  0  0
   56.8740   29.8140   44.7120 C   0  0  0  0  0  0  0  0  0  0  0  0
   55.5800   30.3070   44.5500 O   0  0  0  0  0  0  0  0  0  0  0  0
   57.8950   33.7524   46.3262 H   0  0  0  0  0  0  0  0  0  0  0  0
   58.6263   32.9748   44.8815 H   0  0  0  0  0  0  0  0  0  0  0  0
   56.8837   33.4108   44.8815 H   0  0  0  0  0  0  0  0  0  0  0  0
   59.8510   30.6166   46.2021 H   0  0  0  0  0  0  0  0  0  0  0  0
   61.2051   27.8048   44.2850 H   0  0  0  0  0  0  0  0  0  0  0  0
   61.5463   29.0952   45.4963 H   0  0  0  0  0  0  0  0  0  0  0  0
   59.5026   24.9357   47.0265 H   0  0  0  0  0  0  0  0  0  0  0  0
   58.0125   23.3094   45.8701 H   0  0  0  0  0  0  0  0  0  0  0  0
   58.1565   22.5926   44.8240 H   0  0  0  0  0  0  0  0  0  0  0  0
   58.0313   21.6907   43.2756 H   0  0  0  0  0  0  0  0  0  0  0  0
   57.9826   23.4864   43.2756 H   0  0  0  0  0  0  0  0  0  0  0  0
   56.3241   27.8719   47.0073 H   0  0  0  0  0  0  0  0  0  0  0  0
   58.8172   27.1371   43.8398 H   0  0  0  0  0  0  0  0  0  0  0  0
   56.5053   28.0207   43.5489 H   0  0  0  0  0  0  0  0  0  0  0  0
   55.1550   30.9170   45.2390 H   0  0  0  0  0  0  0  0  0  0  0  0
  1  2  1  0
  2  3  1  0
  3  4  2  0
  4  5  1  0
  5  6  1  0
  6  7  1  0
  7  8  1  0
  8  9  2  0
  8 10  1  0
 10 11  1  0
 11 12  2  0
 12 13  1  0
 13 14  2  0
 14 15  1  0
 15 16  1  0
 16 17  1  0
 16 18  2  0
 16 19  2  0
 14 20  1  0
 20 21  1  0
 20 22  2  0
  5 23  2  0
 23 24  1  0
 24 25  2  0
 25 26  1  0
 25  3  1  0
 22 11  1  0
  1 27  1  0
  1 28  1  0
  1 29  1  0
  4 30  1  0
  6 31  1  0
  6 32  1  0
 12 33  1  0
 13 34  1  0
 17 35  1  0
 17 36  1  0
 17 37  1  0
 22 38  1  0
 23 39  1  0
 24 40  1  0
 26 41  1  0
M  CHG  4   7  -1  10  -1  15  -1  21  -1
M  END
>  <UniqueID>  (51) 
47

>  <SMILES>  (51) 
COc1cc(C[N-]C(=O)[N-]c2ccc([N-]S(C)(=O)=O)c([O-])c2)ccc1O

>  <Energy>  (51) 
40.71306908711336

>  <Genealogy>  (51) 
COc1cc(C[N-]C(=O)[N-]c2ccc([N-]S(C)(=O)=O)c([O-])c2)ccc1O (protonated)
COc1cc(C[N-]C(=O)[N-]c2ccc([N-]S(C)(=O)=O)c([O-])c2)ccc1O (3D coordinates assigned)
COc1cc(C[N-]C(=O)[N-]c2ccc([N-]S(C)(=O)=O)c([O-])c2)ccc1O (optimized conformer: 40.71306908711336 kcal/mol)

>  <smiles>  (51) 
COc1cc(CNC(=O)Nc2ccc(NS(C)(=O)=O)c(O)c2)ccc1O

>  <score_type>  (51) 
oracle

>  <origin>  (51) 
adg

>  <m_score__min__energy>  (51) 
-14.109999999999999

>  <m_primary>  (51) 
energy

$$$$
51:0
     RDKit          3D

 50 53  0  0  0  0  0  0  0  0999 V2000
   60.6700   31.0840   49.1740 O   0  0  0  0  0  0  0  0  0  0  0  0
   59.4730   30.9400   48.8000 C   0  0  0  0  0  0  0  0  0  0  0  0
   58.9130   29.5570   48.6010 C   0  0  0  0  0  0  0  0  0  0  0  0
   59.2470   28.9720   47.2840 N   0  0  0  0  0  0  0  0  0  0  0  0
   60.1890   29.8090   46.4890 C   0  0  0  0  0  0  0  0  0  0  0  0
   59.9810   29.7080   44.9700 C   0  0  0  0  0  0  0  0  0  0  0  0
   58.5310   29.9000   44.6500 C   0  0  0  0  0  0  0  0  0  0  0  0
   58.1090   30.6500   43.5400 C   0  0  0  0  0  0  0  0  0  0  0  0
   56.7450   30.7490   43.2440 C   0  0  0  0  0  0  0  0  0  0  0  0
   55.8040   30.0810   44.0390 C   0  0  0  0  0  0  0  0  0  0  0  0
   56.2260   29.3240   45.1380 C   0  0  0  0  0  0  0  0  0  0  0  0
   57.5900   29.2490   45.4570 C   0  0  0  0  0  0  0  0  0  0  0  0
   58.0840   28.3780   46.5780 C   0  0  0  0  0  0  0  0  0  0  0  0
   58.6500   32.0870   48.5470 N   0  0  0  0  0  0  0  0  0  0  0  0
   58.6100   32.8310   47.3190 C   0  0  0  0  0  0  0  0  0  0  0  0
   57.4340   32.8720   46.5420 C   0  0  0  0  0  0  0  0  0  0  0  0
   57.4050   33.5820   45.3390 C   0  0  0  0  0  0  0  0  0  0  0  0
   58.5460   34.2510   44.8940 C   0  0  0  0  0  0  0  0  0  0  0  0
   59.7250   34.2030   45.6420 C   0  0  0  0  0  0  0  0  0  0  0  0
   59.7740   33.4860   46.8470 C   0  0  0  0  0  0  0  0  0  0  0  0
   61.0020   33.4680   47.5950 N   0  0  0  0  0  0  0  0  0  0  0  0
   61.0070   34.0700   48.9330 C   0  0  0  0  0  0  0  0  0  0  0  0
   62.4320   34.3200   49.4500 C   0  0  0  0  0  0  0  0  0  0  0  0
   63.3000   33.2510   49.1390 O   0  0  0  0  0  0  0  0  0  0  0  0
   63.4380   33.1590   47.7370 C   0  0  0  0  0  0  0  0  0  0  0  0
   62.1340   32.6630   47.1190 C   0  0  0  0  0  0  0  0  0  0  0  0
   59.3166   28.9010   49.3864 H   0  0  0  0  0  0  0  0  0  0  0  0
   57.8173   29.6399   48.6511 H   0  0  0  0  0  0  0  0  0  0  0  0
   60.0559   30.8592   46.7878 H   0  0  0  0  0  0  0  0  0  0  0  0
   61.2024   29.4358   46.6982 H   0  0  0  0  0  0  0  0  0  0  0  0
   60.5736   30.4860   44.4664 H   0  0  0  0  0  0  0  0  0  0  0  0
   60.3049   28.7164   44.6211 H   0  0  0  0  0  0  0  0  0  0  0  0
   58.8492   31.1585   42.9047 H   0  0  0  0  0  0  0  0  0  0  0  0
   56.4111   31.3517   42.3865 H   0  0  0  0  0  0  0  0  0  0  0  0
   54.7328   30.1516   43.7991 H   0  0  0  0  0  0  0  0  0  0  0  0
   55.4876   28.7875   45.7520 H   0  0  0  0  0  0  0  0  0  0  0  0
   57.2672   28.2348   47.3007 H   0  0  0  0  0  0  0  0  0  0  0  0
   58.4081   27.4214   46.1424 H   0  0  0  0  0  0  0  0  0  0  0  0
   56.5336   32.3415   46.8852 H   0  0  0  0  0  0  0  0  0  0  0  0
   56.4817   33.6137   44.7419 H   0  0  0  0  0  0  0  0  0  0  0  0
   58.5170   34.8177   43.9517 H   0  0  0  0  0  0  0  0  0  0  0  0
   60.6210   34.7310   45.2837 H   0  0  0  0  0  0  0  0  0  0  0  0
   60.4713   35.0299   48.8919 H   0  0  0  0  0  0  0  0  0  0  0  0
   60.5156   33.3673   49.6220 H   0  0  0  0  0  0  0  0  0  0  0  0
   62.8213   35.2398   48.9891 H   0  0  0  0  0  0  0  0  0  0  0  0
   62.3857   34.4140   50.5450 H   0  0  0  0  0  0  0  0  0  0  0  0
   63.6813   34.1509   47.3284 H   0  0  0  0  0  0  0  0  0  0  0  0
   64.2449   32.4507   47.4979 H   0  0  0  0  0  0  0  0  0  0  0  0
   62.1993   32.7417   46.0238 H   0  0  0  0  0  0  0  0  0  0  0  0
   61.9755   31.6154   47.4145 H   0  0  0  0  0  0  0  0  0  0  0  0
  1  2  2  0
  2  3  1  0
  3  4  1  0
  4  5  1  0
  5  6  1  0
  6  7  1  0
  7  8  2  0
  8  9  1  0
  9 10  2  0
 10 11  1  0
 11 12  2  0
 12 13  1  0
  2 14  1  0
 14 15  1  0
 15 16  2  0
 16 17  1  0
 17 18  2  0
 18 19  1  0
 19 20  2  0
 20 21  1  0
 21 22  1  0
 22 23  1  0
 23 24  1  0
 24 25  1  0
 25 26  1  0
 13  4  1  0
 20 15  1  0
 26 21  1  0
 12  7  1  0
  3 27  1  0
  3 28  1  0
  5 29  1  0
  5 30  1  0
  6 31  1  0
  6 32  1  0
  8 33  1  0
  9 34  1  0
 10 35  1  0
 11 36  1  0
 13 37  1  0
 13 38  1  0
 16 39  1  0
 17 40  1  0
 18 41  1  0
 19 42  1  0
 22 43  1  0
 22 44  1  0
 23 45  1  0
 23 46  1  0
 25 47  1  0
 25 48  1  0
 26 49  1  0
 26 50  1  0
M  CHG  1  14  -1
M  END
>  <UniqueID>  (52) 
48

>  <SMILES>  (52) 
O=C(CN1CCc2ccccc2C1)[N-]c1ccccc1N1CCOCC1

>  <Energy>  (52) 
73.92942266296143

>  <Genealogy>  (52) 
O=C(CN1CCc2ccccc2C1)[N-]c1ccccc1N1CCOCC1 (protonated)
O=C(CN1CCc2ccccc2C1)[N-]c1ccccc1N1CCOCC1 (3D coordinates assigned)
O=C(CN1CCc2ccccc2C1)[N-]c1ccccc1N1CCOCC1 (nonaromatic ring conformer: 73.92942266296143 kcal/mol)

>  <smiles>  (52) 
O=C(CN1CCc2ccccc2C1)Nc1ccccc1N1CCOCC1

>  <score_type>  (52) 
oracle

>  <origin>  (52) 
adg

>  <m_score__min__energy>  (52) 
-10.220000000000001

>  <m_primary>  (52) 
energy

$$$$
52:0
     RDKit          3D

 30 31  0  0  0  0  0  0  0  0999 V2000
   54.9110   26.3280   45.9730 N   0  0  0  0  0  0  0  0  0  0  0  0
   56.6100   26.0410   46.1010 S   0  0  0  0  0  0  0  0  0  0  0  0
   56.9030   25.3540   47.4050 O   0  0  0  0  0  0  0  0  0  0  0  0
   57.0550   25.1500   44.9750 O   0  0  0  0  0  0  0  0  0  0  0  0
   57.4720   27.5740   46.0260 C   0  0  0  0  0  0  0  0  0  0  0  0
   57.4680   28.3260   44.8450 C   0  0  0  0  0  0  0  0  0  0  0  0
   58.1320   29.5550   44.7930 C   0  0  0  0  0  0  0  0  0  0  0  0
   58.8090   30.0350   45.9170 C   0  0  0  0  0  0  0  0  0  0  0  0
   58.8350   29.2800   47.1030 C   0  0  0  0  0  0  0  0  0  0  0  0
   59.4930   29.7510   48.2870 N   0  0  0  0  0  0  0  0  0  0  0  0
   58.8510   30.2240   49.4770 C   0  0  0  0  0  0  0  0  0  0  0  0
   58.5960   29.4030   50.3970 O   0  0  0  0  0  0  0  0  0  0  0  0
   58.6050   31.6240   49.6620 N   0  0  0  0  0  0  0  0  0  0  0  0
   58.8510   32.6690   48.7090 C   0  0  0  0  0  0  0  0  0  0  0  0
   59.8880   33.5760   48.9600 C   0  0  0  0  0  0  0  0  0  0  0  0
   60.1730   34.5950   48.0460 C   0  0  0  0  0  0  0  0  0  0  0  0
   59.4330   34.7060   46.8670 C   0  0  0  0  0  0  0  0  0  0  0  0
   58.4110   33.7900   46.5950 C   0  0  0  0  0  0  0  0  0  0  0  0
   57.4200   33.9250   44.9670 Br  0  0  0  0  0  0  0  0  0  0  0  0
   58.1230   32.7700   47.5080 C   0  0  0  0  0  0  0  0  0  0  0  0
   58.1440   28.0620   47.1570 C   0  0  0  0  0  0  0  0  0  0  0  0
   54.6800   27.0930   46.6460 H   0  0  0  0  0  0  0  0  0  0  0  0
   56.9412   27.9489   43.9561 H   0  0  0  0  0  0  0  0  0  0  0  0
   58.1215   30.1456   43.8650 H   0  0  0  0  0  0  0  0  0  0  0  0
   59.3232   31.0065   45.8740 H   0  0  0  0  0  0  0  0  0  0  0  0
   60.4818   33.4863   49.8816 H   0  0  0  0  0  0  0  0  0  0  0  0
   60.9816   35.3105   48.2561 H   0  0  0  0  0  0  0  0  0  0  0  0
   59.6534   35.5130   46.1527 H   0  0  0  0  0  0  0  0  0  0  0  0
   57.3258   32.0450   47.2871 H   0  0  0  0  0  0  0  0  0  0  0  0
   58.1283   27.4843   48.0929 H   0  0  0  0  0  0  0  0  0  0  0  0
  1  2  1  0
  2  3  2  0
  2  4  2  0
  2  5  1  0
  5  6  2  0
  6  7  1  0
  7  8  2  0
  8  9  1  0
  9 10  1  0
 10 11  1  0
 11 12  2  0
 11 13  1  0
 13 14  1  0
 14 15  2  0
 15 16  1  0
 16 17  2  0
 17 18  1  0
 18 19  1  0
 18 20  2  0
  9 21  2  0
 21  5  1  0
 20 14  1  0
  1 22  1  0
  6 23  1  0
  7 24  1  0
  8 25  1  0
 15 26  1  0
 16 27  1  0
 17 28  1  0
 20 29  1  0
 21 30  1  0
M  CHG  3   1  -1  10  -1  13  -1
M  END
>  <UniqueID>  (53) 
49

>  <SMILES>  (53) 
[NH-]S(=O)(=O)c1cccc([N-]C(=O)[N-]c2cccc(Br)c2)c1

>  <Energy>  (53) 
36.91409500669525

>  <Genealogy>  (53) 
[NH-]S(=O)(=O)c1cccc([N-]C(=O)[N-]c2cccc(Br)c2)c1 (protonated)
[NH-]S(=O)(=O)c1cccc([N-]C(=O)[N-]c2cccc(Br)c2)c1 (3D coordinates assigned)
[NH-]S(=O)(=O)c1cccc([N-]C(=O)[N-]c2cccc(Br)c2)c1 (optimized conformer: 36.91409500669525 kcal/mol)

>  <smiles>  (53) 
NS(=O)(=O)c1cccc(NC(=O)Nc2cccc(Br)c2)c1

>  <score_type>  (53) 
oracle

>  <origin>  (53) 
adg

>  <m_score__min__energy>  (53) 
-13.93

>  <m_primary>  (53) 
energy

$$$$
53:0
     RDKit          3D

 50 52  0  0  0  0  0  0  0  0999 V2000
   55.3080   29.3820   44.8580 N   0  0  0  0  0  0  0  0  0  0  0  0
   56.6310   30.0620   43.9770 S   0  0  0  0  0  0  0  0  0  0  0  0
   57.5890   28.9530   43.6360 O   0  0  0  0  0  0  0  0  0  0  0  0
   56.1250   30.6770   42.7030 O   0  0  0  0  0  0  0  0  0  0  0  0
   57.4560   31.2960   44.9480 C   0  0  0  0  0  0  0  0  0  0  0  0
   57.0400   32.6350   44.8340 C   0  0  0  0  0  0  0  0  0  0  0  0
   57.6880   33.6430   45.5480 C   0  0  0  0  0  0  0  0  0  0  0  0
   58.7600   33.3320   46.3830 C   0  0  0  0  0  0  0  0  0  0  0  0
   59.1840   32.0070   46.5110 C   0  0  0  0  0  0  0  0  0  0  0  0
   58.5340   30.9790   45.8110 C   0  0  0  0  0  0  0  0  0  0  0  0
   59.0080   29.5930   45.9920 C   0  0  0  0  0  0  0  0  0  0  0  0
   58.3660   28.7370   46.9000 C   0  0  0  0  0  0  0  0  0  0  0  0
   58.7960   27.4140   47.0430 C   0  0  0  0  0  0  0  0  0  0  0  0
   59.8770   26.9340   46.2860 C   0  0  0  0  0  0  0  0  0  0  0  0
   60.3010   25.4950   46.4030 C   0  0  0  0  0  0  0  0  0  0  0  0
   59.1350   24.6190   46.4220 N   0  0  0  0  0  0  0  0  0  0  0  0
   58.8450   23.6530   45.4040 C   0  0  0  0  0  0  0  0  0  0  0  0
   59.5830   22.6390   45.2620 O   0  0  0  0  0  0  0  0  0  0  0  0
   57.7050   23.9070   44.4590 C   0  0  0  0  0  0  0  0  0  0  0  0
   57.0840   25.3020   44.6180 C   0  0  0  0  0  0  0  0  0  0  0  0
   56.0220   25.3190   45.6920 C   0  0  0  0  0  0  0  0  0  0  0  0
   55.4680   26.4220   45.9590 O   0  0  0  0  0  0  0  0  0  0  0  0
   55.6560   24.1170   46.4880 C   0  0  0  0  0  0  0  0  0  0  0  0
   54.6350   23.2670   46.0210 C   0  0  0  0  0  0  0  0  0  0  0  0
   54.2590   22.1360   46.7530 C   0  0  0  0  0  0  0  0  0  0  0  0
   54.8970   21.8390   47.9590 C   0  0  0  0  0  0  0  0  0  0  0  0
   55.9200   22.6630   48.4270 C   0  0  0  0  0  0  0  0  0  0  0  0
   56.3030   23.7910   47.6970 C   0  0  0  0  0  0  0  0  0  0  0  0
   60.5330   27.8020   45.3950 C   0  0  0  0  0  0  0  0  0  0  0  0
   60.1050   29.1240   45.2550 C   0  0  0  0  0  0  0  0  0  0  0  0
   55.5030   28.3610   44.9540 H   0  0  0  0  0  0  0  0  0  0  0  0
   56.1961   32.8894   44.1759 H   0  0  0  0  0  0  0  0  0  0  0  0
   57.3522   34.6861   45.4519 H   0  0  0  0  0  0  0  0  0  0  0  0
   59.2720   34.1297   46.9411 H   0  0  0  0  0  0  0  0  0  0  0  0
   60.0346   31.7675   47.1661 H   0  0  0  0  0  0  0  0  0  0  0  0
   57.5224   29.1076   47.5008 H   0  0  0  0  0  0  0  0  0  0  0  0
   58.2849   26.7460   47.7520 H   0  0  0  0  0  0  0  0  0  0  0  0
   60.9361   25.2337   45.5437 H   0  0  0  0  0  0  0  0  0  0  0  0
   60.8599   25.3639   47.3413 H   0  0  0  0  0  0  0  0  0  0  0  0
   58.0764   23.8055   43.4286 H   0  0  0  0  0  0  0  0  0  0  0  0
   56.9197   23.1724   44.6907 H   0  0  0  0  0  0  0  0  0  0  0  0
   57.8757   26.0165   44.8875 H   0  0  0  0  0  0  0  0  0  0  0  0
   56.6125   25.5794   43.6637 H   0  0  0  0  0  0  0  0  0  0  0  0
   54.1284   23.4947   45.0715 H   0  0  0  0  0  0  0  0  0  0  0  0
   53.4597   21.4797   46.3782 H   0  0  0  0  0  0  0  0  0  0  0  0
   54.5928   20.9556   48.5395 H   0  0  0  0  0  0  0  0  0  0  0  0
   56.4269   22.4242   49.3736 H   0  0  0  0  0  0  0  0  0  0  0  0
   57.1169   24.4305   48.0692 H   0  0  0  0  0  0  0  0  0  0  0  0
   61.3874   27.4379   44.8055 H   0  0  0  0  0  0  0  0  0  0  0  0
   60.6303   29.7998   44.5641 H   0  0  0  0  0  0  0  0  0  0  0  0
  1  2  1  0
  2  3  2  0
  2  4  2  0
  2  5  1  0
  5  6  2  0
  6  7  1  0
  7  8  2  0
  8  9  1  0
  9 10  2  0
 10 11  1  0
 11 12  2  0
 12 13  1  0
 13 14  2  0
 14 15  1  0
 15 16  1  0
 16 17  1  0
 17 18  2  0
 17 19  1  0
 19 20  1  0
 20 21  1  0
 21 22  2  0
 21 23  1  0
 23 24  2  0
 24 25  1  0
 25 26  2  0
 26 27  1  0
 27 28  2  0
 14 29  1  0
 29 30  2  0
 10  5  1  0
 30 11  1  0
 28 23  1  0
  1 31  1  0
  6 32  1  0
  7 33  1  0
  8 34  1  0
  9 35  1  0
 12 36  1  0
 13 37  1  0
 15 38  1  0
 15 39  1  0
 19 40  1  0
 19 41  1  0
 20 42  1  0
 20 43  1  0
 24 44  1  0
 25 45  1  0
 26 46  1  0
 27 47  1  0
 28 48  1  0
 29 49  1  0
 30 50  1  0
M  CHG  2   1  -1  16  -1
M  END
>  <UniqueID>  (54) 
50

>  <SMILES>  (54) 
[NH-]S(=O)(=O)c1ccccc1-c1ccc(C[N-]C(=O)CCC(=O)c2ccccc2)cc1

>  <Energy>  (54) 
58.85203271588143

>  <Genealogy>  (54) 
[NH-]S(=O)(=O)c1ccccc1-c1ccc(C[N-]C(=O)CCC(=O)c2ccccc2)cc1 (protonated)
[NH-]S(=O)(=O)c1ccccc1-c1ccc(C[N-]C(=O)CCC(=O)c2ccccc2)cc1 (3D coordinates assigned)
[NH-]S(=O)(=O)c1ccccc1-c1ccc(C[N-]C(=O)CCC(=O)c2ccccc2)cc1 (optimized conformer: 58.85203271588143 kcal/mol)

>  <smiles>  (54) 
NS(=O)(=O)c1ccccc1-c1ccc(CNC(=O)CCC(=O)c2ccccc2)cc1

>  <score_type>  (54) 
oracle

>  <origin>  (54) 
adg

>  <m_score__min__energy>  (54) 
-13.6

>  <m_primary>  (54) 
energy

$$$$
54:0
     RDKit          3D

 42 44  0  0  0  0  0  0  0  0999 V2000
   59.2564   29.3493   47.0030 H   0  0  0  0  0  0  0  0  0  0  0  0
   59.6780   30.2670   46.5670 C   0  0  0  0  0  0  0  0  0  0  0  0
   60.9680   30.4420   46.6420 N   0  0  0  0  0  0  0  0  0  0  0  0
   61.6750   31.2930   47.5600 C   0  0  0  0  0  0  0  0  0  0  0  0
   62.4750   32.3240   47.0530 C   0  0  0  0  0  0  0  0  0  0  0  0
   62.5395   32.4824   45.9664 H   0  0  0  0  0  0  0  0  0  0  0  0
   63.1930   33.1540   47.9210 C   0  0  0  0  0  0  0  0  0  0  0  0
   63.8047   33.9742   47.5172 H   0  0  0  0  0  0  0  0  0  0  0  0
   63.1330   32.9410   49.3010 C   0  0  0  0  0  0  0  0  0  0  0  0
   63.8450   33.7670   50.1630 O   0  0  0  0  0  0  0  0  0  0  0  0
   62.3650   31.8910   49.8130 C   0  0  0  0  0  0  0  0  0  0  0  0
   62.3256   31.7177   50.8985 H   0  0  0  0  0  0  0  0  0  0  0  0
   61.6470   31.0610   48.9470 C   0  0  0  0  0  0  0  0  0  0  0  0
   61.0586   30.2242   49.3514 H   0  0  0  0  0  0  0  0  0  0  0  0
   57.7060   30.7790   45.1790 C   0  0  0  0  0  0  0  0  0  0  0  0
   57.6160   29.4170   44.6080 C   0  0  0  0  0  0  0  0  0  0  0  0
   56.6510   31.6390   44.8860 O   0  0  0  0  0  0  0  0  0  0  0  0
   58.7430   31.2270   45.9310 C   0  0  0  0  0  0  0  0  0  0  0  0
   58.2830   29.1370   43.7793 H   0  0  0  0  0  0  0  0  0  0  0  0
   56.7680   28.5440   45.0620 N   0  0  0  0  0  0  0  0  0  0  0  0
   57.1070   27.2590   45.6040 C   0  0  0  0  0  0  0  0  0  0  0  0
   58.4630   26.9460   45.7630 C   0  0  0  0  0  0  0  0  0  0  0  0
   59.2299   27.6756   45.4637 H   0  0  0  0  0  0  0  0  0  0  0  0
   58.8500   25.7140   46.2990 C   0  0  0  0  0  0  0  0  0  0  0  0
   59.9178   25.4727   46.4064 H   0  0  0  0  0  0  0  0  0  0  0  0
   57.8830   24.7900   46.6980 C   0  0  0  0  0  0  0  0  0  0  0  0
   58.1887   23.8156   47.1068 H   0  0  0  0  0  0  0  0  0  0  0  0
   56.5260   25.1030   46.5780 C   0  0  0  0  0  0  0  0  0  0  0  0
   55.7656   24.3769   46.9013 H   0  0  0  0  0  0  0  0  0  0  0  0
   56.1310   26.3370   46.0480 C   0  0  0  0  0  0  0  0  0  0  0  0
   54.7760   26.6460   46.0030 O   0  0  0  0  0  0  0  0  0  0  0  0
   58.9660   32.6650   46.2150 C   0  0  0  0  0  0  0  0  0  0  0  0
   59.0430   33.1270   47.5410 C   0  0  0  0  0  0  0  0  0  0  0  0
   58.9415   32.4167   48.3747 H   0  0  0  0  0  0  0  0  0  0  0  0
   59.2480   34.4850   47.8050 C   0  0  0  0  0  0  0  0  0  0  0  0
   59.3156   34.8391   48.8443 H   0  0  0  0  0  0  0  0  0  0  0  0
   59.3670   35.3920   46.7490 C   0  0  0  0  0  0  0  0  0  0  0  0
   59.5293   36.4598   46.9575 H   0  0  0  0  0  0  0  0  0  0  0  0
   59.2800   34.9440   45.4280 C   0  0  0  0  0  0  0  0  0  0  0  0
   59.3714   35.6601   44.5980 H   0  0  0  0  0  0  0  0  0  0  0  0
   59.0770   33.5870   45.1600 C   0  0  0  0  0  0  0  0  0  0  0  0
   59.0038   33.2394   44.1189 H   0  0  0  0  0  0  0  0  0  0  0  0
  1  2  1  0
  2  3  2  0
  3  4  1  0
  4  5  2  0
  5  6  1  0
  5  7  1  0
  7  8  1  0
  7  9  2  0
  9 10  1  0
  9 11  1  0
 11 12  1  0
 11 13  2  0
 13 14  1  0
  2 15  1  0
 15 16  2  0
 16 17  1  0
 16 18  1  0
 18 19  1  0
 18 20  2  0
 20 21  1  0
 21 22  2  0
 22 23  1  0
 22 24  1  0
 24 25  1  0
 24 26  2  0
 26 27  1  0
 26 28  1  0
 28 29  1  0
 28 30  2  0
 30 31  1  0
 15 32  1  0
 32 33  2  0
 33 34  1  0
 33 35  1  0
 35 36  1  0
 35 37  2  0
 37 38  1  0
 37 39  1  0
 39 40  1  0
 39 41  2  0
 41 42  1  0
 13  4  1  0
 30 21  1  0
 41 32  1  0
M  CHG  3  10  -1  17  -1  31  -1
M  END
>  <UniqueID>  (55) 
51

>  <SMILES>  (55) 
[O-]C(/C=N/c1ccccc1[O-])=C(\C=Nc1ccc([O-])cc1)c1ccccc1

>  <Energy>  (55) 
72.06023452673111

>  <Genealogy>  (55) 
[O-]C(C=Nc1ccccc1[O-])=C(C=Nc1ccc([O-])cc1)c1ccccc1 (protonated)
[O-]C(/C=N/c1ccccc1[O-])=C(\C=Nc1ccc([O-])cc1)c1ccccc1 (cis-trans isomerization)
[O-]C(/C=N/c1ccccc1[O-])=C(\C=Nc1ccc([O-])cc1)c1ccccc1 (3D coordinates assigned)
[O-]C(/C=N/c1ccccc1[O-])=C(\C=Nc1ccc([O-])cc1)c1ccccc1 (optimized conformer: 72.06023452673111 kcal/mol)

>  <smiles>  (55) 
OC(C=Nc1ccccc1O)=C(C=Nc1ccc(O)cc1)c1ccccc1

>  <score_type>  (55) 
oracle

>  <origin>  (55) 
adg

>  <m_score__min__energy>  (55) 
-15.49

>  <m_primary>  (55) 
energy

$$$$
55:0
     RDKit          3D

 36 37  0  0  0  0  0  0  0  0999 V2000
   58.6669   32.2964   49.2282 H   0  0  0  0  0  0  0  0  0  0  0  0
   58.9750   32.7380   48.2690 C   0  0  0  0  0  0  0  0  0  0  0  0
   58.0500   32.8560   47.2310 C   0  0  0  0  0  0  0  0  0  0  0  0
   57.0155   32.5127   47.3789 H   0  0  0  0  0  0  0  0  0  0  0  0
   58.4310   33.4090   46.0020 C   0  0  0  0  0  0  0  0  0  0  0  0
   57.4210   33.5770   44.9000 C   0  0  0  0  0  0  0  0  0  0  0  0
   56.4283   33.7564   45.3386 H   0  0  0  0  0  0  0  0  0  0  0  0
   57.7082   34.4326   44.2711 H   0  0  0  0  0  0  0  0  0  0  0  0
   57.3770   32.3400   44.0610 C   0  0  0  0  0  0  0  0  0  0  0  0
   57.9280   32.3360   42.9270 O   0  0  0  0  0  0  0  0  0  0  0  0
   56.7590   31.1570   44.5890 N   0  0  0  0  0  0  0  0  0  0  0  0
   57.3250   30.0330   44.9350 C   0  0  0  0  0  0  0  0  0  0  0  0
   56.5180   28.8930   45.0820 C   0  0  0  0  0  0  0  0  0  0  0  0
   55.1430   28.9640   44.8750 O   0  0  0  0  0  0  0  0  0  0  0  0
   57.0980   27.6760   45.4440 C   0  0  0  0  0  0  0  0  0  0  0  0
   56.4704   26.7811   45.5678 H   0  0  0  0  0  0  0  0  0  0  0  0
   58.4740   27.5980   45.6480 C   0  0  0  0  0  0  0  0  0  0  0  0
   58.9389   26.6456   45.9425 H   0  0  0  0  0  0  0  0  0  0  0  0
   59.2560   28.7400   45.4750 C   0  0  0  0  0  0  0  0  0  0  0  0
   60.3441   28.6860   45.6271 H   0  0  0  0  0  0  0  0  0  0  0  0
   58.6800   29.9210   45.1190 N   0  0  0  0  0  0  0  0  0  0  0  0
   59.3240   30.7240   44.9540 H   0  0  0  0  0  0  0  0  0  0  0  0
   59.7470   33.8640   45.8290 C   0  0  0  0  0  0  0  0  0  0  0  0
   60.0468   34.3149   44.8715 H   0  0  0  0  0  0  0  0  0  0  0  0
   60.6880   33.7480   46.8720 C   0  0  0  0  0  0  0  0  0  0  0  0
   62.0140   34.1880   46.7310 O   0  0  0  0  0  0  0  0  0  0  0  0
   63.1540   33.3350   46.7550 C   0  0  0  0  0  0  0  0  0  0  0  0
   63.4335   33.1258   47.7981 H   0  0  0  0  0  0  0  0  0  0  0  0
   62.9165   32.3910   46.2427 H   0  0  0  0  0  0  0  0  0  0  0  0
   63.9926   33.8292   46.2427 H   0  0  0  0  0  0  0  0  0  0  0  0
   60.3010   33.1810   48.0960 C   0  0  0  0  0  0  0  0  0  0  0  0
   61.2600   33.0770   49.1160 O   0  0  0  0  0  0  0  0  0  0  0  0
   61.8670   34.1870   49.7690 C   0  0  0  0  0  0  0  0  0  0  0  0
   61.7951   34.0555   50.8587 H   0  0  0  0  0  0  0  0  0  0  0  0
   62.9255   34.2506   49.4764 H   0  0  0  0  0  0  0  0  0  0  0  0
   61.3494   35.1125   49.4764 H   0  0  0  0  0  0  0  0  0  0  0  0
  1  2  1  0
  2  3  2  0
  3  4  1  0
  3  5  1  0
  5  6  1  0
  6  7  1  0
  6  8  1  0
  6  9  1  0
  9 10  2  0
  9 11  1  0
 11 12  2  0
 12 13  1  0
 13 14  1  0
 13 15  2  0
 15 16  1  0
 15 17  1  0
 17 18  1  0
 17 19  2  0
 19 20  1  0
 19 21  1  0
 21 22  1  0
  5 23  2  0
 23 24  1  0
 23 25  1  0
 25 26  1  0
 26 27  1  0
 27 28  1  0
 27 29  1  0
 27 30  1  0
 25 31  2  0
 31 32  1  0
 32 33  1  0
 33 34  1  0
 33 35  1  0
 33 36  1  0
 31  2  1  0
 21 12  1  0
M  CHG  1  14  -1
M  END
>  <UniqueID>  (56) 
52

>  <SMILES>  (56) 
COc1ccc(CC(=O)/N=c2\[nH]cccc2[O-])cc1OC

>  <Energy>  (56) 
40.96646845492554

>  <Genealogy>  (56) 
COc1ccc(CC(=O)N=c2[nH]cccc2[O-])cc1OC (protonated)
COc1ccc(CC(=O)/N=c2\[nH]cccc2[O-])cc1OC (cis-trans isomerization)
COc1ccc(CC(=O)/N=c2\[nH]cccc2[O-])cc1OC (3D coordinates assigned)
COc1ccc(CC(=O)/N=c2\[nH]cccc2[O-])cc1OC (optimized conformer: 40.96646845492554 kcal/mol)

>  <smiles>  (56) 
COc1ccc(CC(=O)N=c2[nH]cccc2O)cc1OC

>  <score_type>  (56) 
oracle

>  <origin>  (56) 
adg

>  <m_score__min__energy>  (56) 
-10.109999999999999

>  <m_primary>  (56) 
energy

$$$$
56:0
     RDKit          3D

 31 32  0  0  0  0  0  0  0  0999 V2000
   59.0190   27.2780   47.1700 O   0  0  0  0  0  0  0  0  0  0  0  0
   58.4730   28.0920   46.1860 C   0  0  0  0  0  0  0  0  0  0  0  0
   59.3050   28.8870   45.3950 C   0  0  0  0  0  0  0  0  0  0  0  0
   58.7580   29.7030   44.4030 C   0  0  0  0  0  0  0  0  0  0  0  0
   57.3720   29.7200   44.1750 C   0  0  0  0  0  0  0  0  0  0  0  0
   56.8490   30.5710   43.1410 N   0  0  0  0  0  0  0  0  0  0  0  0
   57.3970   31.8480   42.7890 C   0  0  0  0  0  0  0  0  0  0  0  0
   57.4640   32.2710   41.2090 S   0  0  0  0  0  0  0  0  0  0  0  0
   57.7520   32.8210   43.7870 N   0  0  0  0  0  0  0  0  0  0  0  0
   57.2300   32.8150   45.1550 C   0  0  0  0  0  0  0  0  0  0  0  0
   58.2580   33.3250   46.1310 C   0  0  0  0  0  0  0  0  0  0  0  0
   58.9680   34.5080   45.8650 C   0  0  0  0  0  0  0  0  0  0  0  0
   59.9220   34.9780   46.7730 C   0  0  0  0  0  0  0  0  0  0  0  0
   60.1650   34.2770   47.9580 C   0  0  0  0  0  0  0  0  0  0  0  0
   59.4520   33.1090   48.2370 C   0  0  0  0  0  0  0  0  0  0  0  0
   58.4980   32.6350   47.3310 C   0  0  0  0  0  0  0  0  0  0  0  0
   56.5330   28.9370   44.9990 C   0  0  0  0  0  0  0  0  0  0  0  0
   55.1500   28.9750   44.8580 O   0  0  0  0  0  0  0  0  0  0  0  0
   57.0900   28.1200   45.9900 C   0  0  0  0  0  0  0  0  0  0  0  0
   60.3934   28.8703   45.5538 H   0  0  0  0  0  0  0  0  0  0  0  0
   59.4183   30.3383   43.7945 H   0  0  0  0  0  0  0  0  0  0  0  0
   56.0330   30.2240   42.5880 H   0  0  0  0  0  0  0  0  0  0  0  0
   58.3000   33.6600   43.4860 H   0  0  0  0  0  0  0  0  0  0  0  0
   56.3394   33.4589   45.2023 H   0  0  0  0  0  0  0  0  0  0  0  0
   56.9743   31.7801   45.4264 H   0  0  0  0  0  0  0  0  0  0  0  0
   58.7725   35.0671   44.9381 H   0  0  0  0  0  0  0  0  0  0  0  0
   60.4815   35.8996   46.5548 H   0  0  0  0  0  0  0  0  0  0  0  0
   60.9177   34.6454   48.6705 H   0  0  0  0  0  0  0  0  0  0  0  0
   59.6413   32.5606   49.1716 H   0  0  0  0  0  0  0  0  0  0  0  0
   57.9336   31.7187   47.5587 H   0  0  0  0  0  0  0  0  0  0  0  0
   56.4356   27.4971   46.6174 H   0  0  0  0  0  0  0  0  0  0  0  0
  1  2  1  0
  2  3  2  0
  3  4  1  0
  4  5  2  0
  5  6  1  0
  6  7  1  0
  7  8  2  0
  7  9  1  0
  9 10  1  0
 10 11  1  0
 11 12  2  0
 12 13  1  0
 13 14  2  0
 14 15  1  0
 15 16  2  0
  5 17  1  0
 17 18  1  0
 17 19  2  0
 19  2  1  0
 16 11  1  0
  3 20  1  0
  4 21  1  0
  6 22  1  0
  9 23  1  0
 10 24  1  0
 10 25  1  0
 12 26  1  0
 13 27  1  0
 14 28  1  0
 15 29  1  0
 16 30  1  0
 19 31  1  0
M  CHG  2   1  -1  18  -1
M  END
>  <UniqueID>  (57) 
53

>  <SMILES>  (57) 
[O-]c1ccc(NC(=S)NCc2ccccc2)c([O-])c1

>  <Energy>  (57) 
35.551196149453524

>  <Genealogy>  (57) 
[O-]c1ccc(NC(=S)NCc2ccccc2)c([O-])c1 (protonated)
[O-]c1ccc(NC(=S)NCc2ccccc2)c([O-])c1 (3D coordinates assigned)
[O-]c1ccc(NC(=S)NCc2ccccc2)c([O-])c1 (optimized conformer: 35.551196149453524 kcal/mol)

>  <smiles>  (57) 
Oc1ccc(NC(=S)NCc2ccccc2)c(O)c1

>  <score_type>  (57) 
oracle

>  <origin>  (57) 
adg

>  <m_score__min__energy>  (57) 
-12.220000000000001

>  <m_primary>  (57) 
energy

$$$$
57:0
     RDKit          3D

 42 44  0  0  0  0  0  0  0  0999 V2000
   58.8740   25.7480   48.3240 O   0  0  0  0  0  0  0  0  0  0  0  0
   58.0300   26.0950   47.4550 C   0  0  0  0  0  0  0  0  0  0  0  0
   56.7510   25.4490   47.4400 N   0  0  0  0  0  0  0  0  0  0  0  0
   56.2250   24.7280   46.4870 C   0  0  0  0  0  0  0  0  0  0  0  0
   56.7760   23.5070   46.2390 N   0  0  0  0  0  0  0  0  0  0  0  0
   56.3200   22.6830   45.2600 C   0  0  0  0  0  0  0  0  0  0  0  0
   55.2470   23.0730   44.4620 C   0  0  0  0  0  0  0  0  0  0  0  0
   54.6390   24.3050   44.6970 C   0  0  0  0  0  0  0  0  0  0  0  0
   55.1070   25.1390   45.7150 C   0  0  0  0  0  0  0  0  0  0  0  0
   54.4340   26.3320   45.9560 O   0  0  0  0  0  0  0  0  0  0  0  0
   58.4020   27.0960   46.4220 C   0  0  0  0  0  0  0  0  0  0  0  0
   59.7320   27.2160   45.9810 C   0  0  0  0  0  0  0  0  0  0  0  0
   60.0750   28.1630   45.0120 C   0  0  0  0  0  0  0  0  0  0  0  0
   59.0970   28.9990   44.4690 C   0  0  0  0  0  0  0  0  0  0  0  0
   57.7670   28.8910   44.8950 C   0  0  0  0  0  0  0  0  0  0  0  0
   56.5270   29.9640   44.2480 S   0  0  0  0  0  0  0  0  0  0  0  0
   56.5790   29.9760   42.7450 O   0  0  0  0  0  0  0  0  0  0  0  0
   55.1760   29.4620   44.6750 O   0  0  0  0  0  0  0  0  0  0  0  0
   56.7590   31.5760   44.8560 N   0  0  0  0  0  0  0  0  0  0  0  0
   57.7610   31.5610   45.9260 C   0  0  0  0  0  0  0  0  0  0  0  0
   58.4500   32.8990   46.0030 C   0  0  0  0  0  0  0  0  0  0  0  0
   58.5240   33.7000   44.8490 C   0  0  0  0  0  0  0  0  0  0  0  0
   59.1340   34.9560   44.8970 C   0  0  0  0  0  0  0  0  0  0  0  0
   59.6660   35.4310   46.0970 C   0  0  0  0  0  0  0  0  0  0  0  0
   59.5790   34.6560   47.2550 C   0  0  0  0  0  0  0  0  0  0  0  0
   58.9710   33.3940   47.2190 C   0  0  0  0  0  0  0  0  0  0  0  0
   58.8720   32.4740   48.7180 Cl  0  0  0  0  0  0  0  0  0  0  0  0
   57.4260   27.9480   45.8730 C   0  0  0  0  0  0  0  0  0  0  0  0
   56.7989   21.7062   45.0972 H   0  0  0  0  0  0  0  0  0  0  0  0
   54.8842   22.4172   43.6568 H   0  0  0  0  0  0  0  0  0  0  0  0
   53.7867   24.6219   44.0779 H   0  0  0  0  0  0  0  0  0  0  0  0
   60.5080   26.5597   46.4018 H   0  0  0  0  0  0  0  0  0  0  0  0
   61.1188   28.2501   44.6760 H   0  0  0  0  0  0  0  0  0  0  0  0
   59.3713   29.7427   43.7063 H   0  0  0  0  0  0  0  0  0  0  0  0
   55.8430   31.8730   45.2640 H   0  0  0  0  0  0  0  0  0  0  0  0
   57.2666   31.3497   46.8856 H   0  0  0  0  0  0  0  0  0  0  0  0
   58.5071   30.7815   45.7122 H   0  0  0  0  0  0  0  0  0  0  0  0
   58.0987   33.3350   43.9025 H   0  0  0  0  0  0  0  0  0  0  0  0
   59.1952   35.5717   43.9875 H   0  0  0  0  0  0  0  0  0  0  0  0
   60.1540   36.4163   46.1302 H   0  0  0  0  0  0  0  0  0  0  0  0
   59.9901   35.0382   48.2010 H   0  0  0  0  0  0  0  0  0  0  0  0
   56.3835   27.8727   46.2157 H   0  0  0  0  0  0  0  0  0  0  0  0
  1  2  2  0
  2  3  1  0
  3  4  2  3
  4  5  1  0
  5  6  1  0
  6  7  2  0
  7  8  1  0
  8  9  2  0
  9 10  1  0
  2 11  1  0
 11 12  2  0
 12 13  1  0
 13 14  2  0
 14 15  1  0
 15 16  1  0
 16 17  2  0
 16 18  2  0
 16 19  1  0
 19 20  1  0
 20 21  1  0
 21 22  2  0
 22 23  1  0
 23 24  2  0
 24 25  1  0
 25 26  2  0
 26 27  1  0
 15 28  2  0
  9  4  1  0
 28 11  1  0
 26 21  1  0
  6 29  1  0
  7 30  1  0
  8 31  1  0
 12 32  1  0
 13 33  1  0
 14 34  1  0
 19 35  1  0
 20 36  1  0
 20 37  1  0
 22 38  1  0
 23 39  1  0
 24 40  1  0
 25 41  1  0
 28 42  1  0
M  CHG  2   5  -1  10  -1
M  END
>  <UniqueID>  (58) 
54

>  <SMILES>  (58) 
O=C(N=c1[n-]cccc1[O-])c1cccc(S(=O)(=O)NCc2ccccc2Cl)c1

>  <Energy>  (58) 
57.30755570822401

>  <Genealogy>  (58) 
O=C(N=c1[n-]cccc1[O-])c1cccc(S(=O)(=O)NCc2ccccc2Cl)c1 (protonated)
O=C(N=c1[n-]cccc1[O-])c1cccc(S(=O)(=O)NCc2ccccc2Cl)c1 (3D coordinates assigned)
O=C(N=c1[n-]cccc1[O-])c1cccc(S(=O)(=O)NCc2ccccc2Cl)c1 (optimized conformer: 57.30755570822401 kcal/mol)

>  <smiles>  (58) 
O=C(N=c1[nH]cccc1O)c1cccc(S(=O)(=O)NCc2ccccc2Cl)c1

>  <score_type>  (58) 
oracle

>  <origin>  (58) 
adg

>  <m_score__min__energy>  (58) 
-15.529999999999999

>  <m_primary>  (58) 
energy

$$$$
58:0
     RDKit          3D

 26 27  0  0  0  0  0  0  0  0999 V2000
   55.4980   29.2830   44.9980 O   0  0  0  0  0  0  0  0  0  0  0  0
   56.5280   28.6050   45.2640 C   0  0  0  0  0  0  0  0  0  0  0  0
   56.3910   27.2910   45.7130 C   0  0  0  0  0  0  0  0  0  0  0  0
   55.1310   26.7160   45.8430 O   0  0  0  0  0  0  0  0  0  0  0  0
   57.5270   26.5570   46.0340 C   0  0  0  0  0  0  0  0  0  0  0  0
   58.7820   27.1560   45.9140 C   0  0  0  0  0  0  0  0  0  0  0  0
   60.0270   26.3750   46.2240 C   0  0  0  0  0  0  0  0  0  0  0  0
   61.1480   27.1670   45.9510 O   0  0  0  0  0  0  0  0  0  0  0  0
   58.8710   28.4360   45.4530 N   0  0  0  0  0  0  0  0  0  0  0  0
   57.7810   29.1480   45.1290 N   0  0  0  0  0  0  0  0  0  0  0  0
   57.9490   30.4990   44.6590 C   0  0  0  0  0  0  0  0  0  0  0  0
   57.6410   30.8190   43.3270 C   0  0  0  0  0  0  0  0  0  0  0  0
   57.7900   32.1300   42.8640 C   0  0  0  0  0  0  0  0  0  0  0  0
   58.2370   33.1320   43.7280 C   0  0  0  0  0  0  0  0  0  0  0  0
   58.5330   32.8260   45.0600 C   0  0  0  0  0  0  0  0  0  0  0  0
   58.3870   31.5160   45.5280 C   0  0  0  0  0  0  0  0  0  0  0  0
   58.6470   31.2420   46.8320 F   0  0  0  0  0  0  0  0  0  0  0  0
   57.4379   25.5162   46.3786 H   0  0  0  0  0  0  0  0  0  0  0  0
   60.0277   26.0906   47.2866 H   0  0  0  0  0  0  0  0  0  0  0  0
   60.0569   25.4667   45.6042 H   0  0  0  0  0  0  0  0  0  0  0  0
   61.8720   26.5390   45.6920 H   0  0  0  0  0  0  0  0  0  0  0  0
   59.8190   28.8630   45.3380 H   0  0  0  0  0  0  0  0  0  0  0  0
   57.2809   30.0349   42.6447 H   0  0  0  0  0  0  0  0  0  0  0  0
   57.5547   32.3725   41.8172 H   0  0  0  0  0  0  0  0  0  0  0  0
   58.3562   34.1620   43.3607 H   0  0  0  0  0  0  0  0  0  0  0  0
   58.8812   33.6167   45.7408 H   0  0  0  0  0  0  0  0  0  0  0  0
  1  2  2  0
  2  3  1  0
  3  4  1  0
  3  5  2  0
  5  6  1  0
  6  7  1  0
  7  8  1  0
  6  9  2  0
  9 10  1  0
 10 11  1  0
 11 12  2  0
 12 13  1  0
 13 14  2  0
 14 15  1  0
 15 16  2  0
 16 17  1  0
 10  2  1  0
 16 11  1  0
  5 18  1  0
  7 19  1  0
  7 20  1  0
  8 21  1  0
  9 22  1  0
 12 23  1  0
 13 24  1  0
 14 25  1  0
 15 26  1  0
M  CHG  2   4  -1   9   1
M  END
>  <UniqueID>  (59) 
55

>  <SMILES>  (59) 
O=c1c([O-])cc(CO)[nH+]n1-c1ccccc1F

>  <Energy>  (59) 
34.666467682185406

>  <Genealogy>  (59) 
O=c1c([O-])cc(CO)[nH+]n1-c1ccccc1F (protonated)
O=c1c([O-])cc(CO)[nH+]n1-c1ccccc1F (3D coordinates assigned)
O=c1c([O-])cc(CO)[nH+]n1-c1ccccc1F (optimized conformer: 34.666467682185406 kcal/mol)

>  <smiles>  (59) 
O=c1c(O)cc(CO)nn1-c1ccccc1F

>  <score_type>  (59) 
oracle

>  <origin>  (59) 
adg

>  <m_score__min__energy>  (59) 
-7.5599999999999996

>  <m_primary>  (59) 
energy

$$$$
59:0
     RDKit          3D

 35 36  0  0  0  0  0  0  0  0999 V2000
   60.5280   27.9510   47.8530 C   0  0  0  0  0  0  0  0  0  0  0  0
   59.8700   29.2160   47.5030 N   0  0  0  0  0  0  0  0  0  0  0  0
   58.8540   29.5820   48.5020 C   0  0  0  0  0  0  0  0  0  0  0  0
   59.3680   29.2440   46.1090 C   0  0  0  0  0  0  0  0  0  0  0  0
   58.5900   30.5040   45.7270 C   0  0  0  0  0  0  0  0  0  0  0  0
   59.2560   31.7370   45.8780 C   0  0  0  0  0  0  0  0  0  0  0  0
   58.6300   32.9350   45.5470 C   0  0  0  0  0  0  0  0  0  0  0  0
   57.3350   32.9090   45.0500 C   0  0  0  0  0  0  0  0  0  0  0  0
   56.6940   31.7240   44.8960 N   0  0  0  0  0  0  0  0  0  0  0  0
   57.2540   30.5240   45.2190 C   0  0  0  0  0  0  0  0  0  0  0  0
   56.4260   29.3120   44.9780 C   0  0  0  0  0  0  0  0  0  0  0  0
   55.1800   29.3520   45.1440 O   0  0  0  0  0  0  0  0  0  0  0  0
   57.0160   28.0350   44.6850 N   0  0  0  0  0  0  0  0  0  0  0  0
   57.1920   26.9130   45.5660 C   0  0  0  0  0  0  0  0  0  0  0  0
   58.4970   26.4970   45.8570 C   0  0  0  0  0  0  0  0  0  0  0  0
   58.7220   25.4160   46.7160 C   0  0  0  0  0  0  0  0  0  0  0  0
   57.6430   24.7560   47.3050 C   0  0  0  0  0  0  0  0  0  0  0  0
   56.3380   25.1830   47.0480 C   0  0  0  0  0  0  0  0  0  0  0  0
   56.1060   26.2680   46.1940 C   0  0  0  0  0  0  0  0  0  0  0  0
   54.8020   26.7020   45.9990 O   0  0  0  0  0  0  0  0  0  0  0  0
   60.5782   27.8544   48.9476 H   0  0  0  0  0  0  0  0  0  0  0  0
   59.9526   27.1110   47.4368 H   0  0  0  0  0  0  0  0  0  0  0  0
   61.5462   27.9399   47.4368 H   0  0  0  0  0  0  0  0  0  0  0  0
   59.2634   29.4345   49.5123 H   0  0  0  0  0  0  0  0  0  0  0  0
   58.5739   30.6376   48.3703 H   0  0  0  0  0  0  0  0  0  0  0  0
   57.9651   28.9476   48.3703 H   0  0  0  0  0  0  0  0  0  0  0  0
   60.2319   29.1586   45.4335 H   0  0  0  0  0  0  0  0  0  0  0  0
   58.6598   28.4070   46.0206 H   0  0  0  0  0  0  0  0  0  0  0  0
   60.2862   31.7526   46.2633 H   0  0  0  0  0  0  0  0  0  0  0  0
   59.1562   33.8921   45.6780 H   0  0  0  0  0  0  0  0  0  0  0  0
   56.8290   33.8481   44.7813 H   0  0  0  0  0  0  0  0  0  0  0  0
   59.3513   27.0239   45.4070 H   0  0  0  0  0  0  0  0  0  0  0  0
   59.7499   25.0862   46.9272 H   0  0  0  0  0  0  0  0  0  0  0  0
   57.8200   23.8993   47.9719 H   0  0  0  0  0  0  0  0  0  0  0  0
   55.4894   24.6648   47.5184 H   0  0  0  0  0  0  0  0  0  0  0  0
  1  2  1  0
  2  3  1  0
  2  4  1  0
  4  5  1  0
  5  6  2  0
  6  7  1  0
  7  8  2  0
  8  9  1  0
  9 10  2  0
 10 11  1  0
 11 12  2  0
 11 13  1  0
 13 14  1  0
 14 15  2  0
 15 16  1  0
 16 17  2  0
 17 18  1  0
 18 19  2  0
 19 20  1  0
 10  5  1  0
 19 14  1  0
  1 21  1  0
  1 22  1  0
  1 23  1  0
  3 24  1  0
  3 25  1  0
  3 26  1  0
  4 27  1  0
  4 28  1  0
  6 29  1  0
  7 30  1  0
  8 31  1  0
 15 32  1  0
 16 33  1  0
 17 34  1  0
 18 35  1  0
M  CHG  2  13  -1  20  -1
M  END
>  <UniqueID>  (60) 
56

>  <SMILES>  (60) 
CN(C)Cc1cccnc1C(=O)[N-]c1ccccc1[O-]

>  <Energy>  (60) 
53.0933615203798

>  <Genealogy>  (60) 
CN(C)Cc1cccnc1C(=O)[N-]c1ccccc1[O-] (protonated)
CN(C)Cc1cccnc1C(=O)[N-]c1ccccc1[O-] (3D coordinates assigned)
CN(C)Cc1cccnc1C(=O)[N-]c1ccccc1[O-] (optimized conformer: 53.0933615203798 kcal/mol)

>  <smiles>  (60) 
CN(C)Cc1cccnc1C(=O)Nc1ccccc1O

>  <score_type>  (60) 
oracle

>  <origin>  (60) 
adg

>  <m_score__min__energy>  (60) 
-12.789999999999999

>  <m_primary>  (60) 
energy

$$$$
60:0
     RDKit          3D

 44 47  0  0  0  0  0  0  0  0999 V2000
   54.8380   26.3250   46.0030 O   0  0  0  0  0  0  0  0  0  0  0  0
   55.9380   25.7710   46.2570 C   0  0  0  0  0  0  0  0  0  0  0  0
   57.1530   26.6250   46.4810 C   0  0  0  0  0  0  0  0  0  0  0  0
   57.9850   26.9430   44.8850 S   0  0  0  0  0  0  0  0  0  0  0  0
   58.0770   28.7130   45.1210 C   0  0  0  0  0  0  0  0  0  0  0  0
   57.0660   29.5120   44.6850 N   0  0  0  0  0  0  0  0  0  0  0  0
   57.0990   30.8570   44.8780 C   0  0  0  0  0  0  0  0  0  0  0  0
   56.1480   31.5680   44.4580 O   0  0  0  0  0  0  0  0  0  0  0  0
   58.1920   31.4330   45.5460 C   0  0  0  0  0  0  0  0  0  0  0  0
   58.3070   32.8030   45.8030 C   0  0  0  0  0  0  0  0  0  0  0  0
   59.3940   33.2750   46.4660 N   0  0  0  0  0  0  0  0  0  0  0  0
   60.3900   32.4440   46.8850 C   0  0  0  0  0  0  0  0  0  0  0  0
   61.5310   32.9720   47.5960 N   0  0  0  0  0  0  0  0  0  0  0  0
   62.8870   32.6630   47.1250 C   0  0  0  0  0  0  0  0  0  0  0  0
   63.9090   32.8600   48.2480 C   0  0  0  0  0  0  0  0  0  0  0  0
   63.7520   34.1270   48.8530 O   0  0  0  0  0  0  0  0  0  0  0  0
   62.5050   34.1790   49.5170 C   0  0  0  0  0  0  0  0  0  0  0  0
   61.3490   34.1040   48.5160 C   0  0  0  0  0  0  0  0  0  0  0  0
   60.2940   31.1080   46.6360 N   0  0  0  0  0  0  0  0  0  0  0  0
   59.2240   30.5880   45.9820 C   0  0  0  0  0  0  0  0  0  0  0  0
   59.1460   29.2530   45.7610 N   0  0  0  0  0  0  0  0  0  0  0  0
   56.0130   24.3380   46.2440 N   0  0  0  0  0  0  0  0  0  0  0  0
   56.3020   23.5240   45.1000 C   0  0  0  0  0  0  0  0  0  0  0  0
   55.5620   23.6500   43.9110 C   0  0  0  0  0  0  0  0  0  0  0  0
   55.8780   22.8610   42.8010 C   0  0  0  0  0  0  0  0  0  0  0  0
   56.9450   21.9610   42.8620 C   0  0  0  0  0  0  0  0  0  0  0  0
   57.7010   21.8510   44.0330 C   0  0  0  0  0  0  0  0  0  0  0  0
   57.3880   22.6370   45.1460 C   0  0  0  0  0  0  0  0  0  0  0  0
   58.1280   22.5220   46.2790 F   0  0  0  0  0  0  0  0  0  0  0  0
   56.8497   27.5813   46.9322 H   0  0  0  0  0  0  0  0  0  0  0  0
   57.8467   26.1019   47.1556 H   0  0  0  0  0  0  0  0  0  0  0  0
   57.5200   33.4954   45.4694 H   0  0  0  0  0  0  0  0  0  0  0  0
   62.9215   31.6174   46.7850 H   0  0  0  0  0  0  0  0  0  0  0  0
   63.1367   33.3426   46.2969 H   0  0  0  0  0  0  0  0  0  0  0  0
   63.7654   32.0774   49.0076 H   0  0  0  0  0  0  0  0  0  0  0  0
   64.9201   32.7969   47.8194 H   0  0  0  0  0  0  0  0  0  0  0  0
   62.4329   33.3315   50.2145 H   0  0  0  0  0  0  0  0  0  0  0  0
   62.4366   35.1322   50.0618 H   0  0  0  0  0  0  0  0  0  0  0  0
   60.4042   33.9753   49.0644 H   0  0  0  0  0  0  0  0  0  0  0  0
   61.3268   35.0352   47.9309 H   0  0  0  0  0  0  0  0  0  0  0  0
   54.7329   24.3707   43.8541 H   0  0  0  0  0  0  0  0  0  0  0  0
   55.2857   22.9489   41.8782 H   0  0  0  0  0  0  0  0  0  0  0  0
   57.1903   21.3389   41.9886 H   0  0  0  0  0  0  0  0  0  0  0  0
   58.5433   21.1450   44.0786 H   0  0  0  0  0  0  0  0  0  0  0  0
  1  2  2  0
  2  3  1  0
  3  4  1  0
  4  5  1  0
  5  6  2  0
  6  7  1  0
  7  8  2  0
  7  9  1  0
  9 10  2  0
 10 11  1  0
 11 12  2  0
 12 13  1  0
 13 14  1  0
 14 15  1  0
 15 16  1  0
 16 17  1  0
 17 18  1  0
 12 19  1  0
 19 20  2  0
 20 21  1  0
  2 22  1  0
 22 23  1  0
 23 24  2  0
 24 25  1  0
 25 26  2  0
 26 27  1  0
 27 28  2  0
 28 29  1  0
 21  5  1  0
 28 23  1  0
 20  9  1  0
 18 13  1  0
  3 30  1  0
  3 31  1  0
 10 32  1  0
 14 33  1  0
 14 34  1  0
 15 35  1  0
 15 36  1  0
 17 37  1  0
 17 38  1  0
 18 39  1  0
 18 40  1  0
 24 41  1  0
 25 42  1  0
 26 43  1  0
 27 44  1  0
M  CHG  2  21  -1  22  -1
M  END
>  <UniqueID>  (61) 
57

>  <SMILES>  (61) 
O=C(CSc1nc(=O)c2cnc(N3CCOCC3)nc2[n-]1)[N-]c1ccccc1F

>  <Energy>  (61) 
54.0911507060303

>  <Genealogy>  (61) 
O=C(CSc1nc(=O)c2cnc(N3CCOCC3)nc2[n-]1)[N-]c1ccccc1F (protonated)
O=C(CSc1nc(=O)c2cnc(N3CCOCC3)nc2[n-]1)[N-]c1ccccc1F (3D coordinates assigned)
O=C(CSc1nc(=O)c2cnc(N3CCOCC3)nc2[n-]1)[N-]c1ccccc1F (nonaromatic ring conformer: 54.0911507060303 kcal/mol)

>  <smiles>  (61) 
O=C(CSc1nc(=O)c2cnc(N3CCOCC3)nc2[nH]1)Nc1ccccc1F

>  <score_type>  (61) 
oracle

>  <origin>  (61) 
adg

>  <m_score__min__energy>  (61) 
-11.380000000000001

>  <m_primary>  (61) 
energy

$$$$
61:0
     RDKit          3D

 37 38  0  0  0  0  0  0  0  0999 V2000
   62.0554   34.1721   46.6911 H   0  0  0  0  0  0  0  0  0  0  0  0
   61.1850   33.5080   46.7980 C   0  0  0  0  0  0  0  0  0  0  0  0
   59.8970   34.0060   46.6030 C   0  0  0  0  0  0  0  0  0  0  0  0
   59.6520   35.6920   46.1870 Cl  0  0  0  0  0  0  0  0  0  0  0  0
   58.8070   33.1430   46.7300 C   0  0  0  0  0  0  0  0  0  0  0  0
   57.7874   33.5228   46.5681 H   0  0  0  0  0  0  0  0  0  0  0  0
   58.9980   31.8340   47.0530 N   0  0  0  0  0  0  0  0  0  0  0  0
   58.1480   31.2320   47.0810 H   0  0  0  0  0  0  0  0  0  0  0  0
   60.2530   31.3270   47.2760 C   0  0  0  0  0  0  0  0  0  0  0  0
   60.4600   30.0780   47.5920 N   0  0  0  0  0  0  0  0  0  0  0  0
   59.6050   28.9420   47.3880 C   0  0  0  0  0  0  0  0  0  0  0  0
   58.4820   28.8620   47.9570 O   0  0  0  0  0  0  0  0  0  0  0  0
   60.1120   27.7850   46.5770 C   0  0  1  0  0  0  0  0  0  0  0  0
   61.1086   27.5116   46.9539 H   0  0  0  0  0  0  0  0  0  0  0  0
   58.9880   26.3460   46.7460 S   0  0  0  0  0  0  0  0  0  0  0  0
   57.9290   26.7210   45.3030 C   0  0  0  0  0  0  0  0  0  0  0  0
   57.9055   25.8473   44.6352 H   0  0  0  0  0  0  0  0  0  0  0  0
   58.3443   27.5924   44.7756 H   0  0  0  0  0  0  0  0  0  0  0  0
   56.5360   27.0420   45.7410 C   0  0  0  0  0  0  0  0  0  0  0  0
   55.9400   26.2650   46.5360 O   0  0  0  0  0  0  0  0  0  0  0  0
   55.8960   28.2240   45.2370 N   0  0  0  0  0  0  0  0  0  0  0  0
   56.4930   29.3220   44.8810 C   0  0  0  0  0  0  0  0  0  0  0  0
   57.0830   30.1890   45.7280 N   0  0  0  0  0  0  0  0  0  0  0  0
   57.5610   31.1500   44.9890 O   0  0  0  0  0  0  0  0  0  0  0  0
   57.3020   30.9430   43.7170 C   0  0  0  0  0  0  0  0  0  0  0  0
   57.7300   31.8440   42.6090 C   0  0  0  0  0  0  0  0  0  0  0  0
   58.1660   32.7618   43.0304 H   0  0  0  0  0  0  0  0  0  0  0  0
   58.4812   31.3321   41.9895 H   0  0  0  0  0  0  0  0  0  0  0  0
   56.8586   32.1029   41.9895 H   0  0  0  0  0  0  0  0  0  0  0  0
   56.6070   29.7590   43.5820 C   0  0  0  0  0  0  0  0  0  0  0  0
   56.2358   29.2823   42.6627 H   0  0  0  0  0  0  0  0  0  0  0  0
   60.2240   28.1740   45.1040 C   0  0  0  0  0  0  0  0  0  0  0  0
   60.5276   29.2283   45.0253 H   0  0  0  0  0  0  0  0  0  0  0  0
   60.9756   27.5384   44.6130 H   0  0  0  0  0  0  0  0  0  0  0  0
   59.2495   28.0354   44.6130 H   0  0  0  0  0  0  0  0  0  0  0  0
   61.3660   32.1650   47.1290 C   0  0  0  0  0  0  0  0  0  0  0  0
   62.3803   31.7649   47.2743 H   0  0  0  0  0  0  0  0  0  0  0  0
  1  2  1  0
  2  3  1  0
  3  4  1  0
  3  5  2  0
  5  6  1  0
  5  7  1  0
  7  8  1  0
  7  9  1  0
  9 10  2  0
 10 11  1  0
 11 12  2  0
 11 13  1  0
 13 14  1  1
 13 15  1  0
 15 16  1  0
 16 17  1  0
 16 18  1  0
 16 19  1  0
 19 20  2  0
 19 21  1  0
 21 22  2  0
 22 23  1  0
 23 24  1  0
 24 25  1  0
 25 26  1  0
 26 27  1  0
 26 28  1  0
 26 29  1  0
 25 30  2  0
 30 31  1  0
 13 32  1  0
 32 33  1  0
 32 34  1  0
 32 35  1  0
  9 36  1  0
 36 37  1  0
 36  2  2  0
 30 22  1  0
M  CHG  1  23  -1
M  END
>  <UniqueID>  (62) 
58

>  <SMILES>  (62) 
Cc1c/c(=N/C(=O)CS[C@@H](C)C(=O)/N=c2/ccc(Cl)c[nH]2)[n-]o1

>  <Energy>  (62) 
68.44862658558336

>  <Genealogy>  (62) 
Cc1cc(=NC(=O)CSC(C)C(=O)N=c2ccc(Cl)c[nH]2)[n-]o1 (protonated)
Cc1cc(=NC(=O)CS[C@@H](C)C(=O)N=c2ccc(Cl)c[nH]2)[n-]o1 (chirality)
Cc1c/c(=N/C(=O)CS[C@@H](C)C(=O)/N=c2/ccc(Cl)c[nH]2)[n-]o1 (cis-trans isomerization)
Cc1c/c(=N/C(=O)CS[C@@H](C)C(=O)/N=c2/ccc(Cl)c[nH]2)[n-]o1 (3D coordinates assigned)
Cc1c/c(=N/C(=O)CS[C@@H](C)C(=O)/N=c2/ccc(Cl)c[nH]2)[n-]o1 (optimized conformer: 68.44862658558336 kcal/mol)

>  <smiles>  (62) 
Cc1cc(=NC(=O)CSC(C)C(=O)N=c2ccc(Cl)c[nH]2)[nH]o1

>  <score_type>  (62) 
oracle

>  <origin>  (62) 
adg

>  <m_score__min__energy>  (62) 
-10.59

>  <m_primary>  (62) 
energy

$$$$
62:0
     RDKit          3D

 34 36  0  0  0  0  0  0  0  0999 V2000
   61.5343   29.7837   46.2856 H   0  0  0  0  0  0  0  0  0  0  0  0
   60.6290   29.2670   46.6370 C   0  0  0  0  0  0  0  0  0  0  0  0
   60.1540   27.7100   46.2100 S   0  0  0  0  0  0  0  0  0  0  0  0
   58.7570   27.6830   47.1450 C   0  0  0  0  0  0  0  0  0  0  0  0
   57.7660   26.5660   47.1850 C   0  0  0  0  0  0  0  0  0  0  0  0
   57.3033   26.5246   48.1821 H   0  0  0  0  0  0  0  0  0  0  0  0
   58.2813   25.6173   46.9742 H   0  0  0  0  0  0  0  0  0  0  0  0
   56.7050   26.7890   46.1550 C   0  0  0  0  0  0  0  0  0  0  0  0
   55.5430   26.3460   46.3590 O   0  0  0  0  0  0  0  0  0  0  0  0
   57.0470   27.4660   44.9340 N   0  0  0  0  0  0  0  0  0  0  0  0
   57.0020   28.7440   44.6960 C   0  0  0  0  0  0  0  0  0  0  0  0
   55.8730   29.4630   44.8740 N   0  0  0  0  0  0  0  0  0  0  0  0
   56.0200   30.7540   44.5790 N   0  0  0  0  0  0  0  0  0  0  0  0
   57.2660   31.0660   44.1640 C   0  0  0  0  0  0  0  0  0  0  0  0
   57.7670   32.7170   43.6860 S   0  0  0  0  0  0  0  0  0  0  0  0
   57.1510   33.5130   45.2110 C   0  0  0  0  0  0  0  0  0  0  0  0
   56.7630   34.5122   44.9638 H   0  0  0  0  0  0  0  0  0  0  0  0
   56.3547   32.8851   45.6371 H   0  0  0  0  0  0  0  0  0  0  0  0
   58.2500   33.6500   46.2290 C   0  0  0  0  0  0  0  0  0  0  0  0
   58.1510   32.9920   47.4660 C   0  0  0  0  0  0  0  0  0  0  0  0
   57.2773   32.3595   47.6819 H   0  0  0  0  0  0  0  0  0  0  0  0
   59.1590   33.1380   48.4240 C   0  0  0  0  0  0  0  0  0  0  0  0
   59.0787   32.6174   49.3897 H   0  0  0  0  0  0  0  0  0  0  0  0
   60.2690   33.9450   48.1560 C   0  0  0  0  0  0  0  0  0  0  0  0
   61.2440   34.0880   49.0880 F   0  0  0  0  0  0  0  0  0  0  0  0
   60.3720   34.6070   46.9290 C   0  0  0  0  0  0  0  0  0  0  0  0
   61.2448   35.2430   46.7197 H   0  0  0  0  0  0  0  0  0  0  0  0
   59.3680   34.4620   45.9680 C   0  0  0  0  0  0  0  0  0  0  0  0
   59.4525   34.9849   45.0039 H   0  0  0  0  0  0  0  0  0  0  0  0
   58.2730   29.7170   44.1480 S   0  0  0  0  0  0  0  0  0  0  0  0
   58.6300   28.9070   47.7900 C   0  0  0  0  0  0  0  0  0  0  0  0
   57.7891   29.1581   48.4532 H   0  0  0  0  0  0  0  0  0  0  0  0
   59.6810   29.7880   47.5100 C   0  0  0  0  0  0  0  0  0  0  0  0
   59.7503   30.7979   47.9404 H   0  0  0  0  0  0  0  0  0  0  0  0
  1  2  1  0
  2  3  1  0
  3  4  1  0
  4  5  1  0
  5  6  1  0
  5  7  1  0
  5  8  1  0
  8  9  2  0
  8 10  1  0
 10 11  2  0
 11 12  1  0
 12 13  1  0
 13 14  2  0
 14 15  1  0
 15 16  1  0
 16 17  1  0
 16 18  1  0
 16 19  1  0
 19 20  2  0
 20 21  1  0
 20 22  1  0
 22 23  1  0
 22 24  2  0
 24 25  1  0
 24 26  1  0
 26 27  1  0
 26 28  2  0
 28 29  1  0
 14 30  1  0
  4 31  2  0
 31 32  1  0
 31 33  1  0
 33 34  1  0
 33  2  2  0
 30 11  1  0
 28 19  1  0
M  CHG  1  12  -1
M  END
>  <UniqueID>  (63) 
59

>  <SMILES>  (63) 
O=C(Cc1cccs1)/N=c1/[n-]nc(SCc2ccc(F)cc2)s1

>  <Energy>  (63) 
92.71968389743165

>  <Genealogy>  (63) 
O=C(Cc1cccs1)N=c1[n-]nc(SCc2ccc(F)cc2)s1 (protonated)
O=C(Cc1cccs1)/N=c1/[n-]nc(SCc2ccc(F)cc2)s1 (cis-trans isomerization)
O=C(Cc1cccs1)/N=c1/[n-]nc(SCc2ccc(F)cc2)s1 (3D coordinates assigned)
O=C(Cc1cccs1)/N=c1/[n-]nc(SCc2ccc(F)cc2)s1 (optimized conformer: 92.71968389743165 kcal/mol)

>  <smiles>  (63) 
O=C(Cc1cccs1)N=c1[nH]nc(SCc2ccc(F)cc2)s1

>  <score_type>  (63) 
oracle

>  <origin>  (63) 
adg

>  <m_score__min__energy>  (63) 
-10.42

>  <m_primary>  (63) 
energy

$$$$
63:0
     RDKit          3D

 61 64  0  0  0  0  0  0  0  0999 V2000
   51.3770   32.4950   50.2180 N   0  0  0  0  0  0  0  0  0  0  0  0
   51.1590   32.1300   51.5800 C   0  0  0  0  0  0  0  0  0  0  0  0
   50.4350   32.8590   52.3100 O   0  0  0  0  0  0  0  0  0  0  0  0
   51.7670   30.8970   52.1150 C   0  0  0  0  0  0  0  0  0  0  0  0
   53.0670   30.8970   52.6470 C   0  0  0  0  0  0  0  0  0  0  0  0
   53.6060   29.7120   53.1650 C   0  0  0  0  0  0  0  0  0  0  0  0
   54.9180   29.7330   53.6670 O   0  0  0  0  0  0  0  0  0  0  0  0
   56.0790   29.9290   52.9060 C   0  0  0  0  0  0  0  0  0  0  0  0
   56.1890   30.9550   51.9550 C   0  0  0  0  0  0  0  0  0  0  0  0
   57.3670   31.1020   51.2190 C   0  0  0  0  0  0  0  0  0  0  0  0
   58.4300   30.2170   51.4350 C   0  0  0  0  0  0  0  0  0  0  0  0
   59.5370   30.3750   50.7660 N   0  0  0  0  0  0  0  0  0  0  0  0
   59.6640   30.5310   49.3420 C   0  0  0  0  0  0  0  0  0  0  0  0
   59.0320   29.7900   48.5420 O   0  0  0  0  0  0  0  0  0  0  0  0
   60.5450   31.6120   48.8000 C   0  0  0  0  0  0  0  0  0  0  0  0
   59.8790   32.3100   47.6950 N   0  0  0  0  0  0  0  0  0  0  0  0
   60.6730   32.7940   46.5590 C   0  0  0  0  0  0  0  0  0  0  0  0
   60.4090   34.2830   46.2970 C   0  0  0  0  0  0  0  0  0  0  0  0
   59.2780   34.5490   45.2920 C   0  0  0  0  0  0  0  0  0  0  0  0
   57.8810   34.2340   45.8550 C   0  0  0  0  0  0  0  0  0  0  0  0
   57.6790   32.7910   46.4150 C   0  0  1  0  0  0  0  0  0  0  0  0
   57.9550   31.7990   45.3690 N   0  0  0  0  0  0  0  0  0  0  0  0
   57.1720   30.6220   45.1280 C   0  0  0  0  0  0  0  0  0  0  0  0
   56.1310   30.7130   44.4270 O   0  0  0  0  0  0  0  0  0  0  0  0
   57.5350   29.3790   45.7440 N   0  0  0  0  0  0  0  0  0  0  0  0
   57.5500   28.0800   45.1350 C   0  0  0  0  0  0  0  0  0  0  0  0
   57.9780   27.8780   43.8100 C   0  0  0  0  0  0  0  0  0  0  0  0
   57.9750   26.5920   43.2610 C   0  0  0  0  0  0  0  0  0  0  0  0
   57.5630   25.5000   44.0320 C   0  0  0  0  0  0  0  0  0  0  0  0
   57.1580   25.6930   45.3550 C   0  0  0  0  0  0  0  0  0  0  0  0
   57.1610   26.9760   45.9060 C   0  0  0  0  0  0  0  0  0  0  0  0
   58.4400   32.4620   47.6930 C   0  0  0  0  0  0  0  0  0  0  0  0
   57.8070   32.3630   48.7810 O   0  0  0  0  0  0  0  0  0  0  0  0
   58.2900   29.2130   52.3460 N   0  0  0  0  0  0  0  0  0  0  0  0
   57.1510   29.0470   53.0690 C   0  0  0  0  0  0  0  0  0  0  0  0
   52.8450   28.5350   53.1160 C   0  0  0  0  0  0  0  0  0  0  0  0
   51.5560   28.5730   52.5850 C   0  0  0  0  0  0  0  0  0  0  0  0
   51.0510   29.7410   52.1000 N   0  0  0  0  0  0  0  0  0  0  0  0
   50.5890   32.5040   49.5310 H   0  0  0  0  0  0  0  0  0  0  0  0
   53.6596   31.8237   52.6569 H   0  0  0  0  0  0  0  0  0  0  0  0
   55.3474   31.6436   51.7891 H   0  0  0  0  0  0  0  0  0  0  0  0
   57.4588   31.9072   50.4752 H   0  0  0  0  0  0  0  0  0  0  0  0
   60.7691   32.3322   49.6007 H   0  0  0  0  0  0  0  0  0  0  0  0
   61.4755   31.1596   48.4264 H   0  0  0  0  0  0  0  0  0  0  0  0
   61.7411   32.6517   46.7802 H   0  0  0  0  0  0  0  0  0  0  0  0
   60.3854   32.2245   45.6629 H   0  0  0  0  0  0  0  0  0  0  0  0
   60.1430   34.7605   47.2516 H   0  0  0  0  0  0  0  0  0  0  0  0
   61.3288   34.6972   45.8584 H   0  0  0  0  0  0  0  0  0  0  0  0
   59.3080   35.6104   45.0046 H   0  0  0  0  0  0  0  0  0  0  0  0
   59.4417   33.8834   44.4316 H   0  0  0  0  0  0  0  0  0  0  0  0
   57.6792   34.9432   46.6713 H   0  0  0  0  0  0  0  0  0  0  0  0
   57.1910   34.3209   45.0027 H   0  0  0  0  0  0  0  0  0  0  0  0
   56.6218   32.7488   46.7158 H   0  0  0  0  0  0  0  0  0  0  0  0
   58.3154   28.7327   43.2053 H   0  0  0  0  0  0  0  0  0  0  0  0
   58.2973   26.4387   42.2205 H   0  0  0  0  0  0  0  0  0  0  0  0
   57.5579   24.4898   43.5968 H   0  0  0  0  0  0  0  0  0  0  0  0
   56.8367   24.8342   45.9627 H   0  0  0  0  0  0  0  0  0  0  0  0
   56.8559   27.1214   46.9528 H   0  0  0  0  0  0  0  0  0  0  0  0
   57.0726   28.2156   53.7849 H   0  0  0  0  0  0  0  0  0  0  0  0
   53.2615   27.5894   53.4934 H   0  0  0  0  0  0  0  0  0  0  0  0
   50.9462   27.6579   52.5579 H   0  0  0  0  0  0  0  0  0  0  0  0
  1  2  1  0
  2  3  2  0
  2  4  1  0
  4  5  2  0
  5  6  1  0
  6  7  1  0
  7  8  1  0
  8  9  1  0
  9 10  2  0
 10 11  1  0
 11 12  2  3
 12 13  1  0
 13 14  2  0
 13 15  1  0
 15 16  1  0
 16 17  1  0
 17 18  1  0
 18 19  1  0
 19 20  1  0
 20 21  1  0
 21 22  1  0
 22 23  1  0
 23 24  2  0
 23 25  1  0
 25 26  1  0
 26 27  2  0
 27 28  1  0
 28 29  2  0
 29 30  1  0
 30 31  2  0
 21 32  1  0
 32 33  2  0
 11 34  1  0
 34 35  1  0
  6 36  2  0
 36 37  1  0
 37 38  2  0
 38  4  1  0
 35  8  2  0
 32 16  1  0
 31 26  1  0
  1 39  1  0
  5 40  1  0
  9 41  1  0
 10 42  1  0
 15 43  1  0
 15 44  1  0
 17 45  1  0
 17 46  1  0
 18 47  1  0
 18 48  1  0
 19 49  1  0
 19 50  1  0
 20 51  1  0
 20 52  1  0
 21 53  1  1
 27 54  1  0
 28 55  1  0
 29 56  1  0
 30 57  1  0
 31 58  1  0
 35 59  1  0
 36 60  1  0
 37 61  1  0
M  CHG  4   1  -1  22  -1  25  -1  34  -1
M  END
>  <UniqueID>  (64) 
60

>  <SMILES>  (64) 
[NH-]C(=O)c1cc(Oc2ccc(=NC(=O)CN3CCCC[C@@H]([N-]C(=O)[N-]c4ccccc4)C3=O)[n-]c2)ccn1

>  <Energy>  (64) 
80.51778366903063

>  <Genealogy>  (64) 
[NH-]C(=O)c1cc(Oc2ccc(=NC(=O)CN3CCCCC([N-]C(=O)[N-]c4ccccc4)C3=O)[n-]c2)ccn1 (protonated)
[NH-]C(=O)c1cc(Oc2ccc(=NC(=O)CN3CCCC[C@@H]([N-]C(=O)[N-]c4ccccc4)C3=O)[n-]c2)ccn1 (chirality)
[NH-]C(=O)c1cc(Oc2ccc(=NC(=O)CN3CCCC[C@@H]([N-]C(=O)[N-]c4ccccc4)C3=O)[n-]c2)ccn1 (3D coordinates assigned)
[NH-]C(=O)c1cc(Oc2ccc(=NC(=O)CN3CCCC[C@@H]([N-]C(=O)[N-]c4ccccc4)C3=O)[n-]c2)ccn1 (nonaromatic ring conformer: 80.51778366903063 kcal/mol)

>  <smiles>  (64) 
NC(=O)c1cc(Oc2ccc(=NC(=O)CN3CCCCC(NC(=O)Nc4ccccc4)C3=O)[nH]c2)ccn1

>  <score_type>  (64) 
oracle

>  <origin>  (64) 
adg

>  <m_score__min__energy>  (64) 
-14.869999999999999

>  <m_primary>  (64) 
energy

$$$$
64:0
     RDKit          3D

 56 59  0  0  1  0  0  0  0  0999 V2000
   59.4890   33.9780   50.0930 O   0  0  0  0  0  0  0  0  0  0  0  0
   59.6600   33.9800   48.6110 S   0  0  0  0  0  0  0  0  0  0  0  0
   59.2620   35.2920   47.9970 O   0  0  0  0  0  0  0  0  0  0  0  0
   58.7250   32.7320   47.8690 N   0  0  0  0  0  0  0  0  0  0  0  0
   58.4250   32.7370   46.4880 C   0  0  0  0  0  0  0  0  0  0  0  0
   58.4670   33.8620   45.6910 C   0  0  0  0  0  0  0  0  0  0  0  0
   58.1660   33.8280   44.3440 C   0  0  0  0  0  0  0  0  0  0  0  0
   57.8010   32.6290   43.7310 C   0  0  0  0  0  0  0  0  0  0  0  0
   57.7540   31.4860   44.5180 C   0  0  0  0  0  0  0  0  0  0  0  0
   57.3650   30.1760   43.8870 C   0  0  0  0  0  0  0  0  0  0  0  0
   56.6270   29.4720   44.9440 N   0  0  0  0  0  0  0  0  0  0  0  0
   57.0160   28.3980   45.5000 C   0  0  0  0  0  0  0  0  0  0  0  0
   58.2730   28.3040   45.9400 N   0  0  0  0  0  0  0  0  0  0  0  0
   58.6430   27.1530   46.5230 C   0  0  0  0  0  0  0  0  0  0  0  0
   57.7640   26.0770   46.6750 C   0  0  0  0  0  0  0  0  0  0  0  0
   56.4750   26.2150   46.2070 C   0  0  0  0  0  0  0  0  0  0  0  0
   55.5810   25.2910   46.2930 N   0  0  0  0  0  0  0  0  0  0  0  0
   55.9140   23.9820   45.7920 C   0  0  0  0  0  0  0  0  0  0  0  0
   56.2600   24.0180   44.3150 C   0  0  1  0  0  0  0  0  0  0  0  0
   57.7180   23.7120   44.1670 C   0  0  0  0  0  0  0  0  0  0  0  0
   57.6910   22.2300   43.8510 C   0  0  0  0  0  0  0  0  0  0  0  0
   56.3900   22.1790   43.0490 C   0  0  0  0  0  0  0  0  0  0  0  0
   55.5200   23.0520   43.6790 O   0  0  0  0  0  0  0  0  0  0  0  0
   56.1210   27.3780   45.6260 N   0  0  0  0  0  0  0  0  0  0  0  0
   58.0610   31.5330   45.8790 C   0  0  0  0  0  0  0  0  0  0  0  0
   61.3320   33.6720   48.1630 C   0  0  0  0  0  0  0  0  0  0  0  0
   61.7670   33.8210   46.8520 C   0  0  0  0  0  0  0  0  0  0  0  0
   63.0880   33.5750   46.5150 C   0  0  0  0  0  0  0  0  0  0  0  0
   64.0180   33.1740   47.4660 C   0  0  0  0  0  0  0  0  0  0  0  0
   63.5960   33.0250   48.7560 C   0  0  0  0  0  0  0  0  0  0  0  0
   62.2620   33.2750   49.0930 C   0  0  0  0  0  0  0  0  0  0  0  0
   58.3730   31.9510   48.4640 H   0  0  0  0  0  0  0  0  0  0  0  0
   58.7510   34.8225   46.1458 H   0  0  0  0  0  0  0  0  0  0  0  0
   58.2143   34.7526   43.7500 H   0  0  0  0  0  0  0  0  0  0  0  0
   57.5583   32.5904   42.6588 H   0  0  0  0  0  0  0  0  0  0  0  0
   56.7247   30.3413   43.0079 H   0  0  0  0  0  0  0  0  0  0  0  0
   58.2350   29.6059   43.5292 H   0  0  0  0  0  0  0  0  0  0  0  0
   58.9330   29.1050   45.8290 H   0  0  0  0  0  0  0  0  0  0  0  0
   59.6737   27.0531   46.8940 H   0  0  0  0  0  0  0  0  0  0  0  0
   58.0926   25.1438   47.1559 H   0  0  0  0  0  0  0  0  0  0  0  0
   56.7787   23.5955   46.3514 H   0  0  0  0  0  0  0  0  0  0  0  0
   55.0369   23.3312   45.9231 H   0  0  0  0  0  0  0  0  0  0  0  0
   56.0410   25.0041   43.8796 H   0  0  0  0  0  0  0  0  0  0  0  0
   58.1673   24.2890   43.3453 H   0  0  0  0  0  0  0  0  0  0  0  0
   58.3199   23.9689   45.0511 H   0  0  0  0  0  0  0  0  0  0  0  0
   58.5585   21.9208   43.2495 H   0  0  0  0  0  0  0  0  0  0  0  0
   57.7357   21.5600   44.7223 H   0  0  0  0  0  0  0  0  0  0  0  0
   56.5676   22.4984   42.0115 H   0  0  0  0  0  0  0  0  0  0  0  0
   55.9800   21.1590   43.0101 H   0  0  0  0  0  0  0  0  0  0  0  0
   55.1410   27.5090   45.2580 H   0  0  0  0  0  0  0  0  0  0  0  0
   58.0159   30.6120   46.4788 H   0  0  0  0  0  0  0  0  0  0  0  0
   61.0560   34.1372   46.0745 H   0  0  0  0  0  0  0  0  0  0  0  0
   63.4080   33.7001   45.4700 H   0  0  0  0  0  0  0  0  0  0  0  0
   65.0647   32.9820   47.1876 H   0  0  0  0  0  0  0  0  0  0  0  0
   64.3075   32.7074   49.5325 H   0  0  0  0  0  0  0  0  0  0  0  0
   61.9463   33.1494   50.1392 H   0  0  0  0  0  0  0  0  0  0  0  0
  1  2  2  0
  2  3  2  0
  2  4  1  0
  4  5  1  0
  5  6  2  0
  6  7  1  0
  7  8  2  0
  8  9  1  0
  9 10  1  0
 10 11  1  0
 11 12  2  0
 12 13  1  0
 13 14  1  0
 14 15  2  0
 15 16  1  0
 16 17  2  0
 17 18  1  0
 18 19  1  0
 19 20  1  0
 20 21  1  0
 21 22  1  0
 22 23  1  0
 16 24  1  0
  9 25  2  0
  2 26  1  0
 26 27  2  0
 27 28  1  0
 28 29  2  0
 29 30  1  0
 30 31  2  0
 25  5  1  0
 31 26  1  0
 24 12  1  0
 23 19  1  0
  4 32  1  0
  6 33  1  0
  7 34  1  0
  8 35  1  0
 10 36  1  0
 10 37  1  0
 13 38  1  0
 14 39  1  0
 15 40  1  0
 18 41  1  0
 18 42  1  0
 19 43  1  6
 20 44  1  0
 20 45  1  0
 21 46  1  0
 21 47  1  0
 22 48  1  0
 22 49  1  0
 24 50  1  0
 25 51  1  0
 27 52  1  0
 28 53  1  0
 29 54  1  0
 30 55  1  0
 31 56  1  0
M  END
>  <smiles>  (65) 
O=S(=O)(Nc1cccc(CN=c2[nH]ccc(=NCC3CCCO3)[nH]2)c1)c1ccccc1

>  <score_type>  (65) 
oracle

>  <origin>  (65) 
adg

>  <m_score__min__energy>  (65) 
-10.48

>  <m_primary>  (65) 
energy

$$$$
65:0
     RDKit          3D

 45 47  0  0  0  0  0  0  0  0999 V2000
   51.9712   27.8200   52.4805 H   0  0  0  0  0  0  0  0  0  0  0  0
   52.4420   28.8080   52.3700 C   0  0  0  0  0  0  0  0  0  0  0  0
   51.7140   29.8590   51.9060 N   0  0  0  0  0  0  0  0  0  0  0  0
   52.2600   31.0940   51.7380 C   0  0  0  0  0  0  0  0  0  0  0  0
   51.4080   32.1940   51.2480 C   0  0  0  0  0  0  0  0  0  0  0  0
   51.6950   32.7360   50.1480 O   0  0  0  0  0  0  0  0  0  0  0  0
   50.2960   32.7040   51.9960 N   0  0  0  0  0  0  0  0  0  0  0  0
   50.3920   33.5330   53.1890 C   0  0  0  0  0  0  0  0  0  0  0  0
   50.3184   32.8976   54.0839 H   0  0  0  0  0  0  0  0  0  0  0  0
   51.3572   34.0606   53.1922 H   0  0  0  0  0  0  0  0  0  0  0  0
   49.5729   34.2672   53.1922 H   0  0  0  0  0  0  0  0  0  0  0  0
   53.6000   31.3110   52.0910 C   0  0  0  0  0  0  0  0  0  0  0  0
   54.0461   32.3103   51.9795 H   0  0  0  0  0  0  0  0  0  0  0  0
   54.3700   30.2450   52.5880 C   0  0  0  0  0  0  0  0  0  0  0  0
   55.7220   30.3980   52.9330 O   0  0  0  0  0  0  0  0  0  0  0  0
   56.6640   31.1210   52.1890 C   0  0  0  0  0  0  0  0  0  0  0  0
   56.8640   32.4960   52.3810 C   0  0  0  0  0  0  0  0  0  0  0  0
   56.2915   33.0310   53.1530 H   0  0  0  0  0  0  0  0  0  0  0  0
   57.7630   33.1690   51.6160 N   0  0  0  0  0  0  0  0  0  0  0  0
   58.5140   32.5520   50.6640 C   0  0  0  0  0  0  0  0  0  0  0  0
   59.3020   33.2830   49.9270 N   0  0  0  0  0  0  0  0  0  0  0  0
   60.6050   32.9160   49.4580 C   0  0  0  0  0  0  0  0  0  0  0  0
   61.4260   32.3470   50.2270 O   0  0  0  0  0  0  0  0  0  0  0  0
   60.9690   33.1750   48.0310 C   0  0  0  0  0  0  0  0  0  0  0  0
   61.0970   34.2563   47.8751 H   0  0  0  0  0  0  0  0  0  0  0  0
   61.9098   32.6577   47.7914 H   0  0  0  0  0  0  0  0  0  0  0  0
   59.8960   32.6760   47.1560 N   0  0  0  0  0  0  0  0  0  0  0  0
   59.0580   33.5720   46.5520 C   0  0  0  0  0  0  0  0  0  0  0  0
   59.2326   34.6505   46.6800 H   0  0  0  0  0  0  0  0  0  0  0  0
   57.9810   33.1340   45.7730 C   0  0  0  0  0  0  0  0  0  0  0  0
   57.0370   34.1220   45.1460 C   0  0  0  0  0  0  0  0  0  0  0  0
   56.5080   34.6757   45.9357 H   0  0  0  0  0  0  0  0  0  0  0  0
   57.6055   34.8271   44.5218 H   0  0  0  0  0  0  0  0  0  0  0  0
   56.3068   33.5861   44.5218 H   0  0  0  0  0  0  0  0  0  0  0  0
   57.7770   31.7540   45.6510 C   0  0  0  0  0  0  0  0  0  0  0  0
   56.8130   31.3030   44.9780 O   0  0  0  0  0  0  0  0  0  0  0  0
   58.6200   30.8920   46.2700 N   0  0  0  0  0  0  0  0  0  0  0  0
   59.6630   31.3320   47.0180 C   0  0  0  0  0  0  0  0  0  0  0  0
   60.4070   30.4870   47.5880 O   0  0  0  0  0  0  0  0  0  0  0  0
   58.3650   31.1630   50.4680 C   0  0  0  0  0  0  0  0  0  0  0  0
   58.9675   30.6425   49.7090 H   0  0  0  0  0  0  0  0  0  0  0  0
   57.4480   30.4550   51.2440 C   0  0  0  0  0  0  0  0  0  0  0  0
   57.3416   29.3682   51.1115 H   0  0  0  0  0  0  0  0  0  0  0  0
   53.7850   28.9810   52.7060 C   0  0  0  0  0  0  0  0  0  0  0  0
   54.3803   28.1272   53.0619 H   0  0  0  0  0  0  0  0  0  0  0  0
  1  2  1  0
  2  3  2  0
  3  4  1  0
  4  5  1  0
  5  6  2  0
  5  7  1  0
  7  8  1  0
  8  9  1  0
  8 10  1  0
  8 11  1  0
  4 12  2  0
 12 13  1  0
 12 14  1  0
 14 15  1  0
 15 16  1  0
 16 17  2  0
 17 18  1  0
 17 19  1  0
 19 20  1  0
 20 21  2  0
 21 22  1  0
 22 23  2  0
 22 24  1  0
 24 25  1  0
 24 26  1  0
 24 27  1  0
 27 28  1  0
 28 29  1  0
 28 30  2  0
 30 31  1  0
 31 32  1  0
 31 33  1  0
 31 34  1  0
 30 35  1  0
 35 36  2  0
 35 37  1  0
 37 38  1  0
 38 39  2  0
 20 40  1  0
 40 41  1  0
 40 42  2  0
 42 43  1  0
 14 44  2  0
 44 45  1  0
 44  2  1  0
 42 16  1  0
 38 27  1  0
M  CHG  3   7  -1  19  -1  37  -1
M  END
>  <UniqueID>  (66) 
61

>  <SMILES>  (66) 
C[N-]C(=O)c1cc(Oc2cc/c(=N\C(=O)Cn3cc(C)c(=O)[n-]c3=O)[n-]c2)ccn1

>  <Energy>  (66) 
67.52278549738966

>  <Genealogy>  (66) 
C[N-]C(=O)c1cc(Oc2ccc(=NC(=O)Cn3cc(C)c(=O)[n-]c3=O)[n-]c2)ccn1 (protonated)
C[N-]C(=O)c1cc(Oc2cc/c(=N\C(=O)Cn3cc(C)c(=O)[n-]c3=O)[n-]c2)ccn1 (cis-trans isomerization)
C[N-]C(=O)c1cc(Oc2cc/c(=N\C(=O)Cn3cc(C)c(=O)[n-]c3=O)[n-]c2)ccn1 (3D coordinates assigned)
C[N-]C(=O)c1cc(Oc2cc/c(=N\C(=O)Cn3cc(C)c(=O)[n-]c3=O)[n-]c2)ccn1 (optimized conformer: 67.52278549738966 kcal/mol)

>  <smiles>  (66) 
CNC(=O)c1cc(Oc2ccc(=NC(=O)Cn3cc(C)c(=O)[nH]c3=O)[nH]c2)ccn1

>  <score_type>  (66) 
oracle

>  <origin>  (66) 
adg

>  <m_score__min__energy>  (66) 
-13.31

>  <m_primary>  (66) 
energy

$$$$
66:0
     RDKit          3D

 73 77  0  0  0  0  0  0  0  0999 V2000
   59.0260   33.9710   51.3050 C   0  0  0  0  0  0  0  0  0  0  0  0
   60.3220   33.7340   50.5780 C   0  0  0  0  0  0  0  0  0  0  0  0
   61.3970   33.1290   51.2470 C   0  0  0  0  0  0  0  0  0  0  0  0
   62.6050   32.8570   50.5780 C   0  0  0  0  0  0  0  0  0  0  0  0
   63.6610   32.1860   51.2160 O   0  0  0  0  0  0  0  0  0  0  0  0
   63.5530   30.9000   51.8270 C   0  0  0  0  0  0  0  0  0  0  0  0
   64.8280   30.1370   51.6200 C   0  0  0  0  0  0  0  0  0  0  0  0
   65.9800   30.8130   51.1850 C   0  0  0  0  0  0  0  0  0  0  0  0
   67.1720   30.1110   50.9740 C   0  0  0  0  0  0  0  0  0  0  0  0
   67.2230   28.7330   51.1990 C   0  0  0  0  0  0  0  0  0  0  0  0
   66.0810   28.0540   51.6370 C   0  0  0  0  0  0  0  0  0  0  0  0
   64.8880   28.7520   51.8500 C   0  0  0  0  0  0  0  0  0  0  0  0
   62.7520   33.2380   49.2290 C   0  0  0  0  0  0  0  0  0  0  0  0
   64.0270   32.9160   48.4820 C   0  0  0  0  0  0  0  0  0  0  0  0
   65.1450   33.1190   49.2760 F   0  0  0  0  0  0  0  0  0  0  0  0
   64.0270   31.5920   48.0800 F   0  0  0  0  0  0  0  0  0  0  0  0
   64.1180   33.7280   47.3650 F   0  0  0  0  0  0  0  0  0  0  0  0
   61.6600   33.8130   48.5550 C   0  0  0  0  0  0  0  0  0  0  0  0
   60.4530   34.0810   49.2220 C   0  0  0  0  0  0  0  0  0  0  0  0
   59.3150   34.6120   48.5220 N   0  0  0  0  0  0  0  0  0  0  0  0
   59.2440   34.9480   47.1290 C   0  0  0  0  0  0  0  0  0  0  0  0
   59.6290   36.0810   46.7310 O   0  0  0  0  0  0  0  0  0  0  0  0
   58.7000   33.9710   46.1630 C   0  0  0  0  0  0  0  0  0  0  0  0
   58.8940   34.1460   44.7850 C   0  0  0  0  0  0  0  0  0  0  0  0
   58.4180   33.1910   43.8850 C   0  0  0  0  0  0  0  0  0  0  0  0
   57.7260   32.0710   44.3640 C   0  0  0  0  0  0  0  0  0  0  0  0
   57.2290   31.0140   43.4120 C   0  0  0  0  0  0  0  0  0  0  0  0
   57.8840   29.7310   43.6730 N   0  0  0  0  0  0  0  0  0  0  0  0
   57.8230   29.0150   44.7630 C   0  0  0  0  0  0  0  0  0  0  0  0
   56.8870   27.9820   44.9410 C   0  0  0  0  0  0  0  0  0  0  0  0
   56.8750   27.2540   46.1380 C   0  0  0  0  0  0  0  0  0  0  0  0
   55.8990   26.1760   46.3720 C   0  0  0  0  0  0  0  0  0  0  0  0
   56.2450   25.1000   46.9300 O   0  0  0  0  0  0  0  0  0  0  0  0
   54.5790   26.3390   45.9690 O   0  0  0  0  0  0  0  0  0  0  0  0
   57.7810   27.5470   47.1090 N   0  0  0  0  0  0  0  0  0  0  0  0
   58.7140   28.5290   46.9770 C   0  0  0  0  0  0  0  0  0  0  0  0
   59.6490   28.7730   48.0550 N   0  0  0  0  0  0  0  0  0  0  0  0
   60.3400   27.6580   48.7250 C   0  0  0  0  0  0  0  0  0  0  0  0
   60.8350   28.0700   50.1150 C   0  0  0  0  0  0  0  0  0  0  0  0
   61.5420   29.2920   50.0580 O   0  0  0  0  0  0  0  0  0  0  0  0
   60.6490   30.3280   49.7030 C   0  0  0  0  0  0  0  0  0  0  0  0
   60.1440   30.1440   48.2700 C   0  0  0  0  0  0  0  0  0  0  0  0
   58.7350   29.2870   45.7910 C   0  0  0  0  0  0  0  0  0  0  0  0
   57.5340   31.9230   45.7070 N   0  0  0  0  0  0  0  0  0  0  0  0
   57.9980   32.8370   46.6020 C   0  0  0  0  0  0  0  0  0  0  0  0
   59.2031   33.9386   52.3902 H   0  0  0  0  0  0  0  0  0  0  0  0
   58.6253   34.9573   51.0281 H   0  0  0  0  0  0  0  0  0  0  0  0
   58.3022   33.1903   51.0281 H   0  0  0  0  0  0  0  0  0  0  0  0
   61.2940   32.8635   52.3095 H   0  0  0  0  0  0  0  0  0  0  0  0
   63.3693   31.0208   52.9048 H   0  0  0  0  0  0  0  0  0  0  0  0
   62.7180   30.3475   51.3714 H   0  0  0  0  0  0  0  0  0  0  0  0
   65.9450   31.8984   51.0096 H   0  0  0  0  0  0  0  0  0  0  0  0
   68.0703   30.6449   50.6304 H   0  0  0  0  0  0  0  0  0  0  0  0
   68.1605   28.1824   51.0319 H   0  0  0  0  0  0  0  0  0  0  0  0
   66.1215   26.9691   51.8142 H   0  0  0  0  0  0  0  0  0  0  0  0
   63.9936   28.2150   52.1988 H   0  0  0  0  0  0  0  0  0  0  0  0
   61.7525   34.0573   47.4865 H   0  0  0  0  0  0  0  0  0  0  0  0
   59.4217   35.0366   44.4131 H   0  0  0  0  0  0  0  0  0  0  0  0
   58.5854   33.3172   42.8052 H   0  0  0  0  0  0  0  0  0  0  0  0
   56.1426   30.8967   43.5383 H   0  0  0  0  0  0  0  0  0  0  0  0
   57.4629   31.3270   42.3837 H   0  0  0  0  0  0  0  0  0  0  0  0
   56.1667   27.7460   44.1438 H   0  0  0  0  0  0  0  0  0  0  0  0
   59.6428   26.8134   48.8279 H   0  0  0  0  0  0  0  0  0  0  0  0
   61.2097   27.3701   48.1161 H   0  0  0  0  0  0  0  0  0  0  0  0
   59.9705   28.1853   50.7854 H   0  0  0  0  0  0  0  0  0  0  0  0
   61.5127   27.2897   50.4917 H   0  0  0  0  0  0  0  0  0  0  0  0
   59.7914   30.3165   50.3917 H   0  0  0  0  0  0  0  0  0  0  0  0
   61.1803   31.2889   49.7686 H   0  0  0  0  0  0  0  0  0  0  0  0
   59.3257   30.8550   48.0832 H   0  0  0  0  0  0  0  0  0  0  0  0
   60.9797   30.3267   47.5784 H   0  0  0  0  0  0  0  0  0  0  0  0
   59.4705   30.0961   45.6710 H   0  0  0  0  0  0  0  0  0  0  0  0
   57.0200   31.0870   46.0670 H   0  0  0  0  0  0  0  0  0  0  0  0
   57.8218   32.6863   47.6773 H   0  0  0  0  0  0  0  0  0  0  0  0
  1  2  1  0
  2  3  2  0
  3  4  1  0
  4  5  1  0
  5  6  1  0
  6  7  1  0
  7  8  2  0
  8  9  1  0
  9 10  2  0
 10 11  1  0
 11 12  2  0
  4 13  2  0
 13 14  1  0
 14 15  1  0
 14 16  1  0
 14 17  1  0
 13 18  1  0
 18 19  2  0
 19 20  1  0
 20 21  1  0
 21 22  2  0
 21 23  1  0
 23 24  2  0
 24 25  1  0
 25 26  2  0
 26 27  1  0
 27 28  1  0
 28 29  2  3
 29 30  1  0
 30 31  2  0
 31 32  1  0
 32 33  2  0
 32 34  1  0
 31 35  1  0
 35 36  1  0
 36 37  1  0
 37 38  1  0
 38 39  1  0
 39 40  1  0
 40 41  1  0
 41 42  1  0
 36 43  2  0
 26 44  1  0
 44 45  2  0
 19  2  1  0
 45 23  1  0
 12  7  1  0
 43 29  1  0
 42 37  1  0
  1 46  1  0
  1 47  1  0
  1 48  1  0
  3 49  1  0
  6 50  1  0
  6 51  1  0
  8 52  1  0
  9 53  1  0
 10 54  1  0
 11 55  1  0
 12 56  1  0
 18 57  1  0
 24 58  1  0
 25 59  1  0
 27 60  1  0
 27 61  1  0
 30 62  1  0
 38 63  1  0
 38 64  1  0
 39 65  1  0
 39 66  1  0
 41 67  1  0
 41 68  1  0
 42 69  1  0
 42 70  1  0
 43 71  1  0
 44 72  1  0
 45 73  1  0
M  CHG  4  20  -1  34  -1  35  -1  44   1
M  END
>  <UniqueID>  (67) 
62

>  <SMILES>  (67) 
Cc1cc(OCc2ccccc2)c(C(F)(F)F)cc1[N-]C(=O)c1ccc(CN=c2cc(C(=O)[O-])[n-]c(N3CCOCC3)c2)[nH+]c1

>  <Energy>  (67) 
90.61908931312529

>  <Genealogy>  (67) 
Cc1cc(OCc2ccccc2)c(C(F)(F)F)cc1[N-]C(=O)c1ccc(CN=c2cc(C(=O)[O-])[n-]c(N3CCOCC3)c2)[nH+]c1 (protonated)
Cc1cc(OCc2ccccc2)c(C(F)(F)F)cc1[N-]C(=O)c1ccc(CN=c2cc(C(=O)[O-])[n-]c(N3CCOCC3)c2)[nH+]c1 (3D coordinates assigned)
Cc1cc(OCc2ccccc2)c(C(F)(F)F)cc1[N-]C(=O)c1ccc(CN=c2cc(C(=O)[O-])[n-]c(N3CCOCC3)c2)[nH+]c1 (nonaromatic ring conformer: 90.61908931312529 kcal/mol)

>  <smiles>  (67) 
Cc1cc(OCc2ccccc2)c(C(F)(F)F)cc1NC(=O)c1ccc(CN=c2cc(C(=O)O)[nH]c(N3CCOCC3)c2)nc1

>  <score_type>  (67) 
oracle

>  <origin>  (67) 
adg

>  <m_score__min__energy>  (67) 
-12.93

>  <m_primary>  (67) 
energy

$$$$
67:0
     RDKit          3D

 22 24  0  0  0  0  0  0  0  0999 V2000
   55.1580   28.9770   44.4890 O   0  0  0  0  0  0  0  0  0  0  0  0
   56.2740   29.3480   44.9380 C   0  0  0  0  0  0  0  0  0  0  0  0
   56.6970   30.7060   44.9810 N   0  0  0  0  0  0  0  0  0  0  0  0
   57.8640   30.6370   45.5400 C   0  0  0  0  0  0  0  0  0  0  0  0
   58.6970   31.7300   45.7960 C   0  0  0  0  0  0  0  0  0  0  0  0
   58.1690   33.5130   45.3480 Br  0  0  0  0  0  0  0  0  0  0  0  0
   59.9480   31.4910   46.3900 C   0  0  0  0  0  0  0  0  0  0  0  0
   60.3490   30.1800   46.7100 C   0  0  0  0  0  0  0  0  0  0  0  0
   59.5030   29.0910   46.4480 C   0  0  0  0  0  0  0  0  0  0  0  0
   58.2520   29.3440   45.8730 C   0  0  0  0  0  0  0  0  0  0  0  0
   57.2950   28.4900   45.5230 C   0  0  0  0  0  0  0  0  0  0  0  0
   57.2500   27.0260   45.7030 C   0  0  0  0  0  0  0  0  0  0  0  0
   58.3210   26.2140   45.7020 N   0  0  0  0  0  0  0  0  0  0  0  0
   57.8200   24.9880   45.9490 C   0  0  0  0  0  0  0  0  0  0  0  0
   58.5390   23.9560   46.0300 O   0  0  0  0  0  0  0  0  0  0  0  0
   56.4800   24.9620   46.1110 N   0  0  0  0  0  0  0  0  0  0  0  0
   56.1360   26.2550   45.9590 C   0  0  0  0  0  0  0  0  0  0  0  0
   54.8270   26.7130   46.0350 O   0  0  0  0  0  0  0  0  0  0  0  0
   60.6193   32.3351   46.6066 H   0  0  0  0  0  0  0  0  0  0  0  0
   61.3336   30.0076   47.1692 H   0  0  0  0  0  0  0  0  0  0  0  0
   59.8153   28.0641   46.6886 H   0  0  0  0  0  0  0  0  0  0  0  0
   59.3270   26.4720   45.5890 H   0  0  0  0  0  0  0  0  0  0  0  0
  1  2  2  0
  2  3  1  0
  3  4  2  0
  4  5  1  0
  5  6  1  0
  5  7  2  0
  7  8  1  0
  8  9  2  0
  9 10  1  0
 10 11  2  0
 11 12  1  0
 12 13  1  0
 13 14  1  0
 14 15  2  0
 14 16  1  0
 16 17  1  0
 17 18  1  0
 11  2  1  0
 17 12  2  0
 10  4  1  0
  7 19  1  0
  8 20  1  0
  9 21  1  0
 13 22  1  0
M  CHG  2  16  -1  18  -1
M  END
>  <UniqueID>  (68) 
63

>  <SMILES>  (68) 
O=C1N=c2c(Br)cccc2=C1c1[nH]c(=O)[n-]c1[O-]

>  <Energy>  (68) 
92.30166735633395

>  <Genealogy>  (68) 
O=C1N=c2c(Br)cccc2=C1c1[nH]c(=O)[n-]c1[O-] (protonated)
O=C1N=c2c(Br)cccc2=C1c1[nH]c(=O)[n-]c1[O-] (3D coordinates assigned)
O=C1N=c2c(Br)cccc2=C1c1[nH]c(=O)[n-]c1[O-] (nonaromatic ring conformer: 92.30166735633395 kcal/mol)

>  <smiles>  (68) 
O=C1N=c2c(Br)cccc2=C1c1[nH]c(=O)[nH]c1O

>  <score_type>  (68) 
oracle

>  <origin>  (68) 
adg

>  <m_score__min__energy>  (68) 
-13.1

>  <m_primary>  (68) 
energy

$$$$
68:0
     RDKit          3D

 39 40  0  0  0  0  0  0  0  0999 V2000
   55.5470   28.9400   44.8700 N   0  0  0  0  0  0  0  0  0  0  0  0
   57.0360   29.8170   44.7810 S   0  0  0  0  0  0  0  0  0  0  0  0
   57.7170   29.5270   43.4720 O   0  0  0  0  0  0  0  0  0  0  0  0
   56.7560   31.2930   44.8590 O   0  0  0  0  0  0  0  0  0  0  0  0
   58.0810   29.3340   46.1150 C   0  0  0  0  0  0  0  0  0  0  0  0
   58.8290   28.1530   46.0270 C   0  0  0  0  0  0  0  0  0  0  0  0
   59.6480   27.7590   47.0900 C   0  0  0  0  0  0  0  0  0  0  0  0
   59.7080   28.5310   48.2530 C   0  0  0  0  0  0  0  0  0  0  0  0
   58.9370   29.7020   48.3640 C   0  0  0  0  0  0  0  0  0  0  0  0
   58.9780   30.5230   49.5360 N   0  0  0  0  0  0  0  0  0  0  0  0
   59.3750   30.0950   50.8450 C   0  0  0  0  0  0  0  0  0  0  0  0
   60.5760   29.7960   51.0900 O   0  0  0  0  0  0  0  0  0  0  0  0
   58.3470   29.9890   51.9270 C   0  0  0  0  0  0  0  0  0  0  0  0
   57.0100   30.1300   51.3620 N   0  0  0  0  0  0  0  0  0  0  0  0
   55.9400   30.8210   52.0180 C   0  0  0  0  0  0  0  0  0  0  0  0
   56.1620   31.8880   52.6470 O   0  0  0  0  0  0  0  0  0  0  0  0
   54.6100   30.3030   51.9670 N   0  0  0  0  0  0  0  0  0  0  0  0
   53.4280   31.1490   52.0370 C   0  0  0  0  0  0  0  0  0  0  0  0
   52.6050   30.9610   50.7930 C   0  0  0  0  0  0  0  0  0  0  0  0
   52.7850   29.8130   50.0010 C   0  0  0  0  0  0  0  0  0  0  0  0
   51.9970   29.6090   48.8650 C   0  0  0  0  0  0  0  0  0  0  0  0
   51.0130   30.5380   48.5190 C   0  0  0  0  0  0  0  0  0  0  0  0
   50.8130   31.6720   49.3100 C   0  0  0  0  0  0  0  0  0  0  0  0
   51.6000   31.8850   50.4470 C   0  0  0  0  0  0  0  0  0  0  0  0
   51.3790   33.0140   51.2270 O   0  0  0  0  0  0  0  0  0  0  0  0
   58.1420   30.1080   47.2830 C   0  0  0  0  0  0  0  0  0  0  0  0
   54.8570   29.5650   45.3430 H   0  0  0  0  0  0  0  0  0  0  0  0
   58.7721   27.5339   45.1196 H   0  0  0  0  0  0  0  0  0  0  0  0
   60.2462   26.8393   47.0103 H   0  0  0  0  0  0  0  0  0  0  0  0
   60.3597   28.2222   49.0836 H   0  0  0  0  0  0  0  0  0  0  0  0
   58.4337   29.0078   52.4166 H   0  0  0  0  0  0  0  0  0  0  0  0
   58.5139   30.7897   52.6625 H   0  0  0  0  0  0  0  0  0  0  0  0
   52.8302   30.8721   52.9179 H   0  0  0  0  0  0  0  0  0  0  0  0
   53.7344   32.2023   52.1192 H   0  0  0  0  0  0  0  0  0  0  0  0
   53.5497   29.0720   50.2770 H   0  0  0  0  0  0  0  0  0  0  0  0
   52.1519   28.7155   48.2424 H   0  0  0  0  0  0  0  0  0  0  0  0
   50.3953   30.3766   47.6233 H   0  0  0  0  0  0  0  0  0  0  0  0
   50.0343   32.3998   49.0380 H   0  0  0  0  0  0  0  0  0  0  0  0
   57.5620   31.0402   47.3514 H   0  0  0  0  0  0  0  0  0  0  0  0
  1  2  1  0
  2  3  2  0
  2  4  2  0
  2  5  1  0
  5  6  2  0
  6  7  1  0
  7  8  2  0
  8  9  1  0
  9 10  1  0
 10 11  1  0
 11 12  2  0
 11 13  1  0
 13 14  1  0
 14 15  1  0
 15 16  2  0
 15 17  1  0
 17 18  1  0
 18 19  1  0
 19 20  2  0
 20 21  1  0
 21 22  2  0
 22 23  1  0
 23 24  2  0
 24 25  1  0
  9 26  2  0
 26  5  1  0
 24 19  1  0
  1 27  1  0
  6 28  1  0
  7 29  1  0
  8 30  1  0
 13 31  1  0
 13 32  1  0
 18 33  1  0
 18 34  1  0
 20 35  1  0
 21 36  1  0
 22 37  1  0
 23 38  1  0
 26 39  1  0
M  CHG  5   1  -1  10  -1  14  -1  17  -1  25  -1
M  END
>  <UniqueID>  (69) 
64

>  <SMILES>  (69) 
[NH-]S(=O)(=O)c1cccc([N-]C(=O)C[N-]C(=O)[N-]Cc2ccccc2[O-])c1

>  <Energy>  (69) 
37.70626135303121

>  <Genealogy>  (69) 
[NH-]S(=O)(=O)c1cccc([N-]C(=O)C[N-]C(=O)[N-]Cc2ccccc2[O-])c1 (protonated)
[NH-]S(=O)(=O)c1cccc([N-]C(=O)C[N-]C(=O)[N-]Cc2ccccc2[O-])c1 (3D coordinates assigned)
[NH-]S(=O)(=O)c1cccc([N-]C(=O)C[N-]C(=O)[N-]Cc2ccccc2[O-])c1 (optimized conformer: 37.70626135303121 kcal/mol)

>  <smiles>  (69) 
NS(=O)(=O)c1cccc(NC(=O)CNC(=O)NCc2ccccc2O)c1

>  <score_type>  (69) 
oracle

>  <origin>  (69) 
adg

>  <m_score__min__energy>  (69) 
-17.539999999999999

>  <m_primary>  (69) 
energy

$$$$
69:0
     RDKit          3D

 60 63  0  0  0  0  0  0  0  0999 V2000
   58.0070   32.1610   41.8890 O   0  0  0  0  0  0  0  0  0  0  0  0
   57.7660   32.1980   43.1270 C   0  0  0  0  0  0  0  0  0  0  0  0
   57.7680   33.4660   43.7910 N   0  0  0  0  0  0  0  0  0  0  0  0
   58.3090   33.7410   45.0880 C   0  0  0  0  0  0  0  0  0  0  0  0
   57.7390   33.1210   46.2090 C   0  0  0  0  0  0  0  0  0  0  0  0
   58.2410   33.3730   47.4880 C   0  0  0  0  0  0  0  0  0  0  0  0
   59.3160   34.2590   47.6610 C   0  0  0  0  0  0  0  0  0  0  0  0
   59.8510   34.5640   49.0360 C   0  0  0  0  0  0  0  0  0  0  0  0
   60.8590   33.5530   49.4260 N   0  0  0  0  0  0  0  0  0  0  0  0
   61.0530   33.5040   50.8950 C   0  0  0  0  0  0  0  0  0  0  0  0
   62.5190   33.8270   51.2820 C   0  0  0  0  0  0  0  0  0  0  0  0
   63.4790   32.6220   51.1720 C   0  0  0  0  0  0  0  0  0  0  0  0
   64.0620   32.3930   49.7530 C   0  0  2  0  0  0  0  0  0  0  0  0
   65.1370   33.3690   49.5290 N   0  0  0  0  0  0  0  0  0  0  0  0
   66.4910   33.0920   50.5850 S   0  0  0  0  0  0  0  0  0  0  0  0
   67.7590   33.4550   49.8620 O   0  0  0  0  0  0  0  0  0  0  0  0
   66.5560   31.6380   50.9600 O   0  0  0  0  0  0  0  0  0  0  0  0
   66.3550   34.0920   52.0300 C   0  0  0  0  0  0  0  0  0  0  0  0
   67.4570   34.2250   52.8890 C   0  0  0  0  0  0  0  0  0  0  0  0
   67.3710   35.0420   54.0220 C   0  0  0  0  0  0  0  0  0  0  0  0
   66.1870   35.7340   54.2970 C   0  0  0  0  0  0  0  0  0  0  0  0
   65.0860   35.6080   53.4420 C   0  0  0  0  0  0  0  0  0  0  0  0
   65.1690   34.7900   52.3100 C   0  0  0  0  0  0  0  0  0  0  0  0
   63.0260   32.5130   48.6130 C   0  0  0  0  0  0  0  0  0  0  0  0
   62.1370   33.7680   48.6940 C   0  0  0  0  0  0  0  0  0  0  0  0
   59.8650   34.9060   46.5430 C   0  0  0  0  0  0  0  0  0  0  0  0
   59.3630   34.6500   45.2640 C   0  0  0  0  0  0  0  0  0  0  0  0
   57.4440   30.9360   43.8410 C   0  0  0  0  0  0  0  0  0  0  0  0
   56.1030   30.5320   43.9900 C   0  0  0  0  0  0  0  0  0  0  0  0
   55.7910   29.3520   44.6720 C   0  0  0  0  0  0  0  0  0  0  0  0
   56.8090   28.5650   45.2170 C   0  0  0  0  0  0  0  0  0  0  0  0
   56.5020   27.4220   45.8790 F   0  0  0  0  0  0  0  0  0  0  0  0
   58.1440   28.9600   45.0850 C   0  0  0  0  0  0  0  0  0  0  0  0
   58.4630   30.1430   44.4080 C   0  0  0  0  0  0  0  0  0  0  0  0
   56.8913   32.4319   46.0805 H   0  0  0  0  0  0  0  0  0  0  0  0
   57.7931   32.8762   48.3613 H   0  0  0  0  0  0  0  0  0  0  0  0
   60.3176   35.5601   49.0320 H   0  0  0  0  0  0  0  0  0  0  0  0
   59.0213   34.5419   49.7579 H   0  0  0  0  0  0  0  0  0  0  0  0
   60.3871   34.2402   51.3689 H   0  0  0  0  0  0  0  0  0  0  0  0
   60.8191   32.4866   51.2418 H   0  0  0  0  0  0  0  0  0  0  0  0
   62.8850   34.6225   50.6163 H   0  0  0  0  0  0  0  0  0  0  0  0
   62.5091   34.1300   52.3394 H   0  0  0  0  0  0  0  0  0  0  0  0
   64.3169   32.7856   51.8657 H   0  0  0  0  0  0  0  0  0  0  0  0
   62.8878   31.7271   51.4160 H   0  0  0  0  0  0  0  0  0  0  0  0
   64.4287   31.3563   49.7244 H   0  0  0  0  0  0  0  0  0  0  0  0
   68.3906   33.6857   52.6711 H   0  0  0  0  0  0  0  0  0  0  0  0
   68.2346   35.1399   54.6963 H   0  0  0  0  0  0  0  0  0  0  0  0
   66.1210   36.3780   55.1863 H   0  0  0  0  0  0  0  0  0  0  0  0
   64.1553   36.1522   53.6601 H   0  0  0  0  0  0  0  0  0  0  0  0
   64.3035   34.6934   51.6380 H   0  0  0  0  0  0  0  0  0  0  0  0
   63.5679   32.5359   47.6560 H   0  0  0  0  0  0  0  0  0  0  0  0
   62.3556   31.6457   48.7040 H   0  0  0  0  0  0  0  0  0  0  0  0
   62.7016   34.5603   49.2073 H   0  0  0  0  0  0  0  0  0  0  0  0
   61.8728   34.0405   47.6616 H   0  0  0  0  0  0  0  0  0  0  0  0
   60.6937   35.6174   46.6739 H   0  0  0  0  0  0  0  0  0  0  0  0
   59.7958   35.1630   44.3925 H   0  0  0  0  0  0  0  0  0  0  0  0
   55.2962   31.1486   43.5672 H   0  0  0  0  0  0  0  0  0  0  0  0
   54.7410   29.0422   44.7799 H   0  0  0  0  0  0  0  0  0  0  0  0
   58.9449   28.3399   45.5140 H   0  0  0  0  0  0  0  0  0  0  0  0
   59.5138   30.4556   44.3178 H   0  0  0  0  0  0  0  0  0  0  0  0
  1  2  2  0
  2  3  1  0
  3  4  1  0
  4  5  2  0
  5  6  1  0
  6  7  2  0
  7  8  1  0
  8  9  1  0
  9 10  1  0
 10 11  1  0
 11 12  1  0
 12 13  1  0
 13 14  1  0
 14 15  1  0
 15 16  2  0
 15 17  2  0
 15 18  1  0
 18 19  2  0
 19 20  1  0
 20 21  2  0
 21 22  1  0
 22 23  2  0
 13 24  1  0
 24 25  1  0
  7 26  1  0
 26 27  2  0
  2 28  1  0
 28 29  2  0
 29 30  1  0
 30 31  2  0
 31 32  1  0
 31 33  1  0
 33 34  2  0
 27  4  1  0
 34 28  1  0
 25  9  1  0
 23 18  1  0
  5 35  1  0
  6 36  1  0
  8 37  1  0
  8 38  1  0
 10 39  1  0
 10 40  1  0
 11 41  1  0
 11 42  1  0
 12 43  1  0
 12 44  1  0
 13 45  1  1
 19 46  1  0
 20 47  1  0
 21 48  1  0
 22 49  1  0
 23 50  1  0
 24 51  1  0
 24 52  1  0
 25 53  1  0
 25 54  1  0
 26 55  1  0
 27 56  1  0
 29 57  1  0
 30 58  1  0
 33 59  1  0
 34 60  1  0
M  CHG  2   3  -1  14  -1
M  END
>  <UniqueID>  (70) 
65

>  <SMILES>  (70) 
O=C([N-]c1ccc(CN2CCC[C@H]([N-]S(=O)(=O)c3ccccc3)CC2)cc1)c1ccc(F)cc1

>  <Energy>  (70) 
81.01651071053509

>  <Genealogy>  (70) 
O=C([N-]c1ccc(CN2CCCC([N-]S(=O)(=O)c3ccccc3)CC2)cc1)c1ccc(F)cc1 (protonated)
O=C([N-]c1ccc(CN2CCC[C@H]([N-]S(=O)(=O)c3ccccc3)CC2)cc1)c1ccc(F)cc1 (chirality)
O=C([N-]c1ccc(CN2CCC[C@H]([N-]S(=O)(=O)c3ccccc3)CC2)cc1)c1ccc(F)cc1 (3D coordinates assigned)
O=C([N-]c1ccc(CN2CCC[C@H]([N-]S(=O)(=O)c3ccccc3)CC2)cc1)c1ccc(F)cc1 (nonaromatic ring conformer: 81.01651071053509 kcal/mol)

>  <smiles>  (70) 
O=C(Nc1ccc(CN2CCCC(NS(=O)(=O)c3ccccc3)CC2)cc1)c1ccc(F)cc1

>  <score_type>  (70) 
oracle

>  <origin>  (70) 
adg

>  <m_score__min__energy>  (70) 
-9.2599999999999998

>  <m_primary>  (70) 
energy

$$$$
70:0
     RDKit          3D

 60 62  0  0  0  0  0  0  0  0999 V2000
   60.9330   33.8420   50.0190 C   0  0  0  0  0  0  0  0  0  0  0  0
   60.1760   34.5860   49.0710 O   0  0  0  0  0  0  0  0  0  0  0  0
   59.5170   34.0260   47.9670 C   0  0  0  0  0  0  0  0  0  0  0  0
   59.5300   34.7320   46.7590 C   0  0  0  0  0  0  0  0  0  0  0  0
   58.8950   34.2150   45.6250 C   0  0  0  0  0  0  0  0  0  0  0  0
   58.2470   32.9710   45.6830 C   0  0  0  0  0  0  0  0  0  0  0  0
   57.5760   32.4030   44.4650 C   0  0  0  0  0  0  0  0  0  0  0  0
   56.3480   31.7200   44.8630 N   0  0  0  0  0  0  0  0  0  0  0  0
   56.3330   30.0990   44.2370 S   0  0  0  0  0  0  0  0  0  0  0  0
   56.0860   30.1280   42.7520 O   0  0  0  0  0  0  0  0  0  0  0  0
   55.2090   29.3450   44.8920 O   0  0  0  0  0  0  0  0  0  0  0  0
   57.8760   29.2630   44.6190 C   0  0  0  0  0  0  0  0  0  0  0  0
   57.9910   27.9150   43.9030 C   0  0  0  0  0  0  0  0  0  0  0  0
   57.3920   26.8590   44.7120 N   0  0  0  0  0  0  0  0  0  0  0  0
   57.3090   26.9080   46.1430 C   0  0  0  0  0  0  0  0  0  0  0  0
   56.2050   26.6970   46.7180 O   0  0  0  0  0  0  0  0  0  0  0  0
   58.5140   27.2090   46.9440 C   0  0  0  0  0  0  0  0  0  0  0  0
   59.6900   26.4580   46.7790 C   0  0  0  0  0  0  0  0  0  0  0  0
   60.8120   26.7200   47.5700 C   0  0  0  0  0  0  0  0  0  0  0  0
   60.7660   27.7150   48.5480 C   0  0  0  0  0  0  0  0  0  0  0  0
   59.5970   28.4620   48.7330 C   0  0  0  0  0  0  0  0  0  0  0  0
   59.5000   29.6240   50.0530 S   0  0  0  0  0  0  0  0  0  0  0  0
   58.1130   30.1910   50.1600 O   0  0  0  0  0  0  0  0  0  0  0  0
   60.4650   30.7420   49.7810 O   0  0  0  0  0  0  0  0  0  0  0  0
   59.9140   28.8700   51.5610 N   0  0  0  0  0  0  0  0  0  0  0  0
   61.0490   28.0200   51.7900 C   0  0  0  0  0  0  0  0  0  0  0  0
   62.3250   28.5300   52.0810 C   0  0  0  0  0  0  0  0  0  0  0  0
   63.3860   27.6650   52.3620 C   0  0  0  0  0  0  0  0  0  0  0  0
   63.1940   26.2730   52.3280 C   0  0  0  0  0  0  0  0  0  0  0  0
   64.2230   25.3640   52.6140 O   0  0  0  0  0  0  0  0  0  0  0  0
   64.8260   25.2090   53.8950 C   0  0  0  0  0  0  0  0  0  0  0  0
   61.9300   25.7680   52.0050 C   0  0  0  0  0  0  0  0  0  0  0  0
   60.8640   26.6330   51.7450 C   0  0  0  0  0  0  0  0  0  0  0  0
   58.4840   28.2240   47.9150 C   0  0  0  0  0  0  0  0  0  0  0  0
   58.2180   32.2670   46.8950 C   0  0  0  0  0  0  0  0  0  0  0  0
   58.8470   32.7890   48.0310 C   0  0  0  0  0  0  0  0  0  0  0  0
   60.6353   34.1346   51.0367 H   0  0  0  0  0  0  0  0  0  0  0  0
   60.7448   32.7676   49.8765 H   0  0  0  0  0  0  0  0  0  0  0  0
   62.0040   34.0487   49.8765 H   0  0  0  0  0  0  0  0  0  0  0  0
   60.0444   35.7026   46.7006 H   0  0  0  0  0  0  0  0  0  0  0  0
   58.9034   34.7852   44.6844 H   0  0  0  0  0  0  0  0  0  0  0  0
   57.3334   33.2171   43.7662 H   0  0  0  0  0  0  0  0  0  0  0  0
   58.2515   31.6880   43.9726 H   0  0  0  0  0  0  0  0  0  0  0  0
   58.7138   29.9037   44.3064 H   0  0  0  0  0  0  0  0  0  0  0  0
   57.9012   29.0751   45.7025 H   0  0  0  0  0  0  0  0  0  0  0  0
   57.4690   27.9719   42.9364 H   0  0  0  0  0  0  0  0  0  0  0  0
   59.0547   27.6840   43.7440 H   0  0  0  0  0  0  0  0  0  0  0  0
   59.7278   25.6596   46.0232 H   0  0  0  0  0  0  0  0  0  0  0  0
   61.7348   26.1400   47.4214 H   0  0  0  0  0  0  0  0  0  0  0  0
   61.6490   27.9121   49.1736 H   0  0  0  0  0  0  0  0  0  0  0  0
   62.4902   29.6175   52.0878 H   0  0  0  0  0  0  0  0  0  0  0  0
   64.3758   28.0753   52.6109 H   0  0  0  0  0  0  0  0  0  0  0  0
   64.0778   25.4013   54.6781 H   0  0  0  0  0  0  0  0  0  0  0  0
   65.2093   24.1831   53.9981 H   0  0  0  0  0  0  0  0  0  0  0  0
   65.6565   25.9229   53.9981 H   0  0  0  0  0  0  0  0  0  0  0  0
   61.7740   24.6803   51.9553 H   0  0  0  0  0  0  0  0  0  0  0  0
   59.8729   26.2215   51.5034 H   0  0  0  0  0  0  0  0  0  0  0  0
   57.5788   28.8375   48.0343 H   0  0  0  0  0  0  0  0  0  0  0  0
   57.6982   31.2993   46.9534 H   0  0  0  0  0  0  0  0  0  0  0  0
   58.8179   32.2305   48.9782 H   0  0  0  0  0  0  0  0  0  0  0  0
  1  2  1  0
  2  3  1  0
  3  4  2  0
  4  5  1  0
  5  6  2  0
  6  7  1  0
  7  8  1  0
  8  9  1  0
  9 10  2  0
  9 11  2  0
  9 12  1  0
 12 13  1  0
 13 14  1  0
 14 15  1  0
 15 16  2  0
 15 17  1  0
 17 18  2  0
 18 19  1  0
 19 20  2  0
 20 21  1  0
 21 22  1  0
 22 23  2  0
 22 24  2  0
 22 25  1  0
 25 26  1  0
 26 27  2  0
 27 28  1  0
 28 29  2  0
 29 30  1  0
 30 31  1  0
 29 32  1  0
 32 33  2  0
 21 34  2  0
  6 35  1  0
 35 36  2  0
 36  3  1  0
 34 17  1  0
 33 26  1  0
  1 37  1  0
  1 38  1  0
  1 39  1  0
  4 40  1  0
  5 41  1  0
  7 42  1  0
  7 43  1  0
 12 44  1  0
 12 45  1  0
 13 46  1  0
 13 47  1  0
 18 48  1  0
 19 49  1  0
 20 50  1  0
 27 51  1  0
 28 52  1  0
 31 53  1  0
 31 54  1  0
 31 55  1  0
 32 56  1  0
 33 57  1  0
 34 58  1  0
 35 59  1  0
 36 60  1  0
M  CHG  3   8  -1  14  -1  25  -1
M  END
>  <UniqueID>  (71) 
66

>  <SMILES>  (71) 
COc1ccc(C[N-]S(=O)(=O)CC[N-]C(=O)c2cccc(S(=O)(=O)[N-]c3ccc(OC)cc3)c2)cc1

>  <Energy>  (71) 
49.54410823001418

>  <Genealogy>  (71) 
COc1ccc(C[N-]S(=O)(=O)CC[N-]C(=O)c2cccc(S(=O)(=O)[N-]c3ccc(OC)cc3)c2)cc1 (protonated)
COc1ccc(C[N-]S(=O)(=O)CC[N-]C(=O)c2cccc(S(=O)(=O)[N-]c3ccc(OC)cc3)c2)cc1 (3D coordinates assigned)
COc1ccc(C[N-]S(=O)(=O)CC[N-]C(=O)c2cccc(S(=O)(=O)[N-]c3ccc(OC)cc3)c2)cc1 (optimized conformer: 49.54410823001418 kcal/mol)

>  <smiles>  (71) 
COc1ccc(CNS(=O)(=O)CCNC(=O)c2cccc(S(=O)(=O)Nc3ccc(OC)cc3)c2)cc1

>  <score_type>  (71) 
oracle

>  <origin>  (71) 
adg

>  <m_score__min__energy>  (71) 
-12.279999999999999

>  <m_primary>  (71) 
energy

$$$$
71:0
     RDKit          3D

 38 39  0  0  0  0  0  0  0  0999 V2000
   63.0270   32.6520   47.4160 C   0  0  0  0  0  0  0  0  0  0  0  0
   62.7050   31.2800   47.6120 O   0  0  0  0  0  0  0  0  0  0  0  0
   61.5880   30.8690   48.3470 C   0  0  0  0  0  0  0  0  0  0  0  0
   61.5260   31.0980   49.5850 O   0  0  0  0  0  0  0  0  0  0  0  0
   60.4820   30.1650   47.6640 C   0  0  0  0  0  0  0  0  0  0  0  0
   60.3090   30.2800   46.2740 C   0  0  0  0  0  0  0  0  0  0  0  0
   59.2470   29.6330   45.6380 C   0  0  0  0  0  0  0  0  0  0  0  0
   58.3360   28.8630   46.3780 C   0  0  0  0  0  0  0  0  0  0  0  0
   57.1320   28.2630   45.7010 C   0  0  0  0  0  0  0  0  0  0  0  0
   56.2480   29.3300   45.2370 N   0  0  0  0  0  0  0  0  0  0  0  0
   56.3870   29.9560   43.9560 C   0  0  0  0  0  0  0  0  0  0  0  0
   55.9880   29.3720   42.9090 O   0  0  0  0  0  0  0  0  0  0  0  0
   56.9120   31.3520   43.8670 C   0  0  0  0  0  0  0  0  0  0  0  0
   57.1890   31.8610   45.2110 N   0  0  0  0  0  0  0  0  0  0  0  0
   57.7920   33.1480   45.4340 C   0  0  0  0  0  0  0  0  0  0  0  0
   57.7500   34.0280   44.5300 O   0  0  0  0  0  0  0  0  0  0  0  0
   58.4870   33.4470   46.7020 C   0  0  0  0  0  0  0  0  0  0  0  0
   59.5100   34.3780   46.8760 C   0  0  0  0  0  0  0  0  0  0  0  0
   60.0010   34.4180   48.1860 C   0  0  0  0  0  0  0  0  0  0  0  0
   59.3720   33.5280   49.0470 C   0  0  0  0  0  0  0  0  0  0  0  0
   58.2080   32.6840   48.1760 S   0  0  0  0  0  0  0  0  0  0  0  0
   58.5130   28.7360   47.7630 C   0  0  0  0  0  0  0  0  0  0  0  0
   59.5820   29.3750   48.4000 C   0  0  0  0  0  0  0  0  0  0  0  0
   63.1426   33.1446   48.3927 H   0  0  0  0  0  0  0  0  0  0  0  0
   63.9680   32.7308   46.8519 H   0  0  0  0  0  0  0  0  0  0  0  0
   62.2193   33.1412   46.8519 H   0  0  0  0  0  0  0  0  0  0  0  0
   61.0142   30.8832   45.6834 H   0  0  0  0  0  0  0  0  0  0  0  0
   59.1236   29.7276   44.5490 H   0  0  0  0  0  0  0  0  0  0  0  0
   57.4584   27.6585   44.8419 H   0  0  0  0  0  0  0  0  0  0  0  0
   56.5910   27.6253   46.4157 H   0  0  0  0  0  0  0  0  0  0  0  0
   57.8395   31.3569   43.2757 H   0  0  0  0  0  0  0  0  0  0  0  0
   56.1615   31.9934   43.3818 H   0  0  0  0  0  0  0  0  0  0  0  0
   57.0220   31.2200   46.0200 H   0  0  0  0  0  0  0  0  0  0  0  0
   59.8924   35.0163   46.0659 H   0  0  0  0  0  0  0  0  0  0  0  0
   60.8101   35.0919   48.5042 H   0  0  0  0  0  0  0  0  0  0  0  0
   59.5970   33.3977   50.1158 H   0  0  0  0  0  0  0  0  0  0  0  0
   57.8078   28.1309   48.3516 H   0  0  0  0  0  0  0  0  0  0  0  0
   59.7193   29.2584   49.4851 H   0  0  0  0  0  0  0  0  0  0  0  0
  1  2  1  0
  2  3  1  0
  3  4  2  0
  3  5  1  0
  5  6  2  0
  6  7  1  0
  7  8  2  0
  8  9  1  0
  9 10  1  0
 10 11  1  0
 11 12  2  0
 11 13  1  0
 13 14  1  0
 14 15  1  0
 15 16  2  0
 15 17  1  0
 17 18  2  0
 18 19  1  0
 19 20  2  0
 20 21  1  0
  8 22  1  0
 22 23  2  0
 23  5  1  0
 21 17  1  0
  1 24  1  0
  1 25  1  0
  1 26  1  0
  6 27  1  0
  7 28  1  0
  9 29  1  0
  9 30  1  0
 13 31  1  0
 13 32  1  0
 14 33  1  0
 18 34  1  0
 19 35  1  0
 20 36  1  0
 22 37  1  0
 23 38  1  0
M  CHG  1  10  -1
M  END
>  <UniqueID>  (72) 
67

>  <SMILES>  (72) 
COC(=O)c1ccc(C[N-]C(=O)CNC(=O)c2cccs2)cc1

>  <Energy>  (72) 
54.12570597475752

>  <Genealogy>  (72) 
COC(=O)c1ccc(C[N-]C(=O)CNC(=O)c2cccs2)cc1 (protonated)
COC(=O)c1ccc(C[N-]C(=O)CNC(=O)c2cccs2)cc1 (3D coordinates assigned)
COC(=O)c1ccc(C[N-]C(=O)CNC(=O)c2cccs2)cc1 (optimized conformer: 54.12570597475752 kcal/mol)

>  <smiles>  (72) 
COC(=O)c1ccc(CNC(=O)CNC(=O)c2cccs2)cc1

>  <score_type>  (72) 
oracle

>  <origin>  (72) 
adg

>  <m_score__min__energy>  (72) 
-8.4399999999999995

>  <m_primary>  (72) 
energy

$$$$
72:0
     RDKit          3D

 57 61  0  0  0  0  0  0  0  0999 V2000
   56.7371   34.2700   43.9606 H   0  0  0  0  0  0  0  0  0  0  0  0
   57.3710   34.1900   44.8560 C   0  0  0  0  0  0  0  0  0  0  0  0
   56.9250   33.4670   45.9650 C   0  0  0  0  0  0  0  0  0  0  0  0
   55.9375   32.9829   45.9442 H   0  0  0  0  0  0  0  0  0  0  0  0
   57.7320   33.3580   47.1010 C   0  0  0  0  0  0  0  0  0  0  0  0
   57.3663   32.8094   47.9815 H   0  0  0  0  0  0  0  0  0  0  0  0
   59.0110   33.9470   47.1240 C   0  0  0  0  0  0  0  0  0  0  0  0
   59.8790   33.8080   48.3510 C   0  0  0  0  0  0  0  0  0  0  0  0
   59.3438   33.1952   49.0913 H   0  0  0  0  0  0  0  0  0  0  0  0
   60.0823   34.8217   48.7265 H   0  0  0  0  0  0  0  0  0  0  0  0
   61.2180   33.1550   48.0600 C   0  0  0  0  0  0  0  0  0  0  0  0
   62.3510   33.9810   47.9340 C   0  0  0  0  0  0  0  0  0  0  0  0
   62.2400   35.0718   48.0219 H   0  0  0  0  0  0  0  0  0  0  0  0
   63.6130   33.4340   47.6990 C   0  0  0  0  0  0  0  0  0  0  0  0
   64.4878   34.0937   47.6012 H   0  0  0  0  0  0  0  0  0  0  0  0
   63.7670   32.0540   47.5880 C   0  0  0  0  0  0  0  0  0  0  0  0
   64.7645   31.6251   47.4118 H   0  0  0  0  0  0  0  0  0  0  0  0
   62.6580   31.2150   47.7000 C   0  0  0  0  0  0  0  0  0  0  0  0
   62.7888   30.1263   47.6124 H   0  0  0  0  0  0  0  0  0  0  0  0
   61.3730   31.7460   47.9240 C   0  0  0  0  0  0  0  0  0  0  0  0
   60.2080   30.7890   48.0140 C   0  0  0  0  0  0  0  0  0  0  0  0
   59.2699   31.3625   48.0471 H   0  0  0  0  0  0  0  0  0  0  0  0
   60.3142   30.1835   48.9262 H   0  0  0  0  0  0  0  0  0  0  0  0
   60.1870   29.8980   46.8540 N   0  0  0  0  0  0  0  0  0  0  0  0
   61.0650   29.8120   46.2950 H   0  0  0  0  0  0  0  0  0  0  0  0
   58.9900   29.2430   46.3890 C   0  0  0  0  0  0  0  0  0  0  0  0
   58.5240   28.0920   47.0440 C   0  0  0  0  0  0  0  0  0  0  0  0
   59.0585   27.7119   47.9271 H   0  0  0  0  0  0  0  0  0  0  0  0
   57.3790   27.4220   46.5790 C   0  0  0  0  0  0  0  0  0  0  0  0
   56.9560   26.3110   47.1220 N   0  0  0  0  0  0  0  0  0  0  0  0
   56.9500   25.0020   46.5360 C   0  0  0  0  0  0  0  0  0  0  0  0
   57.3500   23.9030   47.3070 C   0  0  0  0  0  0  0  0  0  0  0  0
   57.6403   24.0483   48.3580 H   0  0  0  0  0  0  0  0  0  0  0  0
   57.3820   22.6220   46.7470 C   0  0  0  0  0  0  0  0  0  0  0  0
   57.6804   21.7604   47.3622 H   0  0  0  0  0  0  0  0  0  0  0  0
   57.0350   22.4360   45.4060 C   0  0  0  0  0  0  0  0  0  0  0  0
   57.0542   21.4271   44.9680 H   0  0  0  0  0  0  0  0  0  0  0  0
   56.6630   23.5330   44.6200 C   0  0  0  0  0  0  0  0  0  0  0  0
   56.2420   23.3020   42.9320 Cl  0  0  0  0  0  0  0  0  0  0  0  0
   56.6310   24.8150   45.1800 C   0  0  0  0  0  0  0  0  0  0  0  0
   56.3554   25.6788   44.5572 H   0  0  0  0  0  0  0  0  0  0  0  0
   56.7140   27.9110   45.4950 N   0  0  0  0  0  0  0  0  0  0  0  0
   55.8690   27.3980   45.1540 H   0  0  0  0  0  0  0  0  0  0  0  0
   57.1240   29.0340   44.8390 C   0  0  0  0  0  0  0  0  0  0  0  0
   56.4110   29.4900   43.7190 C   0  0  0  0  0  0  0  0  0  0  0  0
   55.5089   28.9536   43.3896 H   0  0  0  0  0  0  0  0  0  0  0  0
   56.8400   30.6200   43.0210 C   0  0  0  0  0  0  0  0  0  0  0  0
   56.2717   30.9759   42.1490 H   0  0  0  0  0  0  0  0  0  0  0  0
   57.9880   31.2980   43.4280 C   0  0  0  0  0  0  0  0  0  0  0  0
   58.3270   32.1838   42.8708 H   0  0  0  0  0  0  0  0  0  0  0  0
   58.7100   30.8580   44.5400 C   0  0  0  0  0  0  0  0  0  0  0  0
   59.6193   31.3945   44.8488 H   0  0  0  0  0  0  0  0  0  0  0  0
   58.2800   29.7300   45.2690 C   0  0  0  0  0  0  0  0  0  0  0  0
   59.4370   34.6990   46.0150 C   0  0  0  0  0  0  0  0  0  0  0  0
   60.4156   35.2009   46.0374 H   0  0  0  0  0  0  0  0  0  0  0  0
   58.6230   34.8120   44.8840 C   0  0  0  0  0  0  0  0  0  0  0  0
   58.9680   35.3911   44.0148 H   0  0  0  0  0  0  0  0  0  0  0  0
  1  2  1  0
  2  3  2  0
  3  4  1  0
  3  5  1  0
  5  6  1  0
  5  7  2  0
  7  8  1  0
  8  9  1  0
  8 10  1  0
  8 11  1  0
 11 12  2  0
 12 13  1  0
 12 14  1  0
 14 15  1  0
 14 16  2  0
 16 17  1  0
 16 18  1  0
 18 19  1  0
 18 20  2  0
 20 21  1  0
 21 22  1  0
 21 23  1  0
 21 24  1  0
 24 25  1  0
 24 26  1  0
 26 27  2  0
 27 28  1  0
 27 29  1  0
 29 30  2  0
 30 31  1  0
 31 32  2  0
 32 33  1  0
 32 34  1  0
 34 35  1  0
 34 36  2  0
 36 37  1  0
 36 38  1  0
 38 39  1  0
 38 40  2  0
 40 41  1  0
 29 42  1  0
 42 43  1  0
 42 44  1  0
 44 45  2  0
 45 46  1  0
 45 47  1  0
 47 48  1  0
 47 49  2  0
 49 50  1  0
 49 51  1  0
 51 52  1  0
 51 53  2  0
  7 54  1  0
 54 55  1  0
 54 56  2  0
 56 57  1  0
 56  2  1  0
 20 11  1  0
 53 26  1  0
 40 31  1  0
 53 44  1  0
M  END
>  <UniqueID>  (73) 
68

>  <SMILES>  (73) 
Clc1cccc(/N=c2\cc(NCc3ccccc3Cc3ccccc3)c3ccccc3[nH]2)c1

>  <Energy>  (73) 
78.4995806440037

>  <Genealogy>  (73) 
Clc1cccc(/N=c2\cc(NCc3ccccc3Cc3ccccc3)c3ccccc3[nH]2)c1 (cis-trans isomerization)
Clc1cccc(/N=c2\cc(NCc3ccccc3Cc3ccccc3)c3ccccc3[nH]2)c1 (3D coordinates assigned)
Clc1cccc(/N=c2\cc(NCc3ccccc3Cc3ccccc3)c3ccccc3[nH]2)c1 (optimized conformer: 78.4995806440037 kcal/mol)

>  <smiles>  (73) 
Clc1cccc(N=c2cc(NCc3ccccc3Cc3ccccc3)c3ccccc3[nH]2)c1

>  <score_type>  (73) 
oracle

>  <origin>  (73) 
adg

>  <m_score__min__energy>  (73) 
-10.93

>  <m_primary>  (73) 
energy

$$$$
73:0
     RDKit          3D

 32 34  0  0  0  0  0  0  0  0999 V2000
   59.5220   26.2930   46.6790 O   0  0  0  0  0  0  0  0  0  0  0  0
   58.1700   25.9800   46.5960 C   0  0  0  0  0  0  0  0  0  0  0  0
   57.6360   24.7410   46.8960 C   0  0  0  0  0  0  0  0  0  0  0  0
   56.2710   24.8790   46.7090 C   0  0  0  0  0  0  0  0  0  0  0  0
   55.2680   23.8690   46.8850 N   0  0  0  0  0  0  0  0  0  0  0  0
   54.4900   23.3240   45.7750 C   0  0  0  0  0  0  0  0  0  0  0  0
   55.3880   23.0140   44.6180 C   0  0  0  0  0  0  0  0  0  0  0  0
   55.9060   23.9320   43.7270 C   0  0  0  0  0  0  0  0  0  0  0  0
   56.6670   23.1980   42.8430 C   0  0  0  0  0  0  0  0  0  0  0  0
   56.5690   21.8830   43.2510 C   0  0  0  0  0  0  0  0  0  0  0  0
   55.8000   21.8060   44.3130 O   0  0  0  0  0  0  0  0  0  0  0  0
   56.0440   26.1800   46.3090 C   0  0  0  0  0  0  0  0  0  0  0  0
   54.8000   26.7140   45.9920 O   0  0  0  0  0  0  0  0  0  0  0  0
   57.2070   26.8600   46.2380 N   0  0  0  0  0  0  0  0  0  0  0  0
   57.3860   28.2360   45.8590 C   0  0  0  0  0  0  0  0  0  0  0  0
   56.6550   28.7810   44.7900 C   0  0  0  0  0  0  0  0  0  0  0  0
   56.8300   30.1190   44.4230 C   0  0  0  0  0  0  0  0  0  0  0  0
   57.7380   30.9250   45.1180 C   0  0  0  0  0  0  0  0  0  0  0  0
   57.9760   32.7520   44.6150 Br  0  0  0  0  0  0  0  0  0  0  0  0
   58.4700   30.3900   46.1820 C   0  0  0  0  0  0  0  0  0  0  0  0
   58.2960   29.0530   46.5520 C   0  0  0  0  0  0  0  0  0  0  0  0
   58.1788   23.8390   47.2149 H   0  0  0  0  0  0  0  0  0  0  0  0
   55.0860   23.5020   47.8460 H   0  0  0  0  0  0  0  0  0  0  0  0
   53.9870   22.4020   46.1019 H   0  0  0  0  0  0  0  0  0  0  0  0
   53.7430   24.0678   45.4607 H   0  0  0  0  0  0  0  0  0  0  0  0
   55.7453   25.0202   43.7233 H   0  0  0  0  0  0  0  0  0  0  0  0
   57.2377   23.5827   41.9849 H   0  0  0  0  0  0  0  0  0  0  0  0
   57.0603   21.0293   42.7612 H   0  0  0  0  0  0  0  0  0  0  0  0
   55.9410   28.1516   44.2386 H   0  0  0  0  0  0  0  0  0  0  0  0
   56.2525   30.5386   43.5861 H   0  0  0  0  0  0  0  0  0  0  0  0
   59.1845   31.0223   46.7294 H   0  0  0  0  0  0  0  0  0  0  0  0
   58.8747   28.6380   47.3904 H   0  0  0  0  0  0  0  0  0  0  0  0
  1  2  1  0
  2  3  2  0
  3  4  1  0
  4  5  1  0
  5  6  1  0
  6  7  1  0
  7  8  2  0
  8  9  1  0
  9 10  2  0
 10 11  1  0
  4 12  2  0
 12 13  1  0
 12 14  1  0
 14 15  1  0
 15 16  2  0
 16 17  1  0
 17 18  2  0
 18 19  1  0
 18 20  1  0
 20 21  2  0
 14  2  1  0
 21 15  1  0
 11  7  1  0
  3 22  1  0
  5 23  1  0
  6 24  1  0
  6 25  1  0
  8 26  1  0
  9 27  1  0
 10 28  1  0
 16 29  1  0
 17 30  1  0
 20 31  1  0
 21 32  1  0
M  CHG  2   1  -1  13  -1
M  END
>  <UniqueID>  (74) 
69

>  <SMILES>  (74) 
[O-]c1cc(NCc2ccco2)c([O-])n1-c1ccc(Br)cc1

>  <Energy>  (74) 
91.83751676227041

>  <Genealogy>  (74) 
[O-]c1cc(NCc2ccco2)c([O-])n1-c1ccc(Br)cc1 (protonated)
[O-]c1cc(NCc2ccco2)c([O-])n1-c1ccc(Br)cc1 (3D coordinates assigned)
[O-]c1cc(NCc2ccco2)c([O-])n1-c1ccc(Br)cc1 (optimized conformer: 91.83751676227041 kcal/mol)

>  <smiles>  (74) 
Oc1cc(NCc2ccco2)c(O)n1-c1ccc(Br)cc1

>  <score_type>  (74) 
oracle

>  <origin>  (74) 
adg

>  <m_score__min__energy>  (74) 
-11.75

>  <m_primary>  (74) 
energy

$$$$
74:0
     RDKit          3D

 43 46  0  0  0  0  0  0  0  0999 V2000
   57.8500   28.8790   43.5290 O   0  0  0  0  0  0  0  0  0  0  0  0
   57.2210   29.3030   44.8270 S   0  0  0  0  0  0  0  0  0  0  0  0
   56.5860   30.6530   44.6460 O   0  0  0  0  0  0  0  0  0  0  0  0
   56.0010   28.1520   45.2650 N   0  0  0  0  0  0  0  0  0  0  0  0
   56.2720   26.9350   45.6200 C   0  0  0  0  0  0  0  0  0  0  0  0
   55.3700   26.0890   46.1630 N   0  0  0  0  0  0  0  0  0  0  0  0
   55.9270   24.8780   46.4300 C   0  0  0  0  0  0  0  0  0  0  0  0
   57.2730   24.7610   46.0990 C   0  0  0  0  0  0  0  0  0  0  0  0
   57.7830   26.2280   45.4480 S   0  0  0  0  0  0  0  0  0  0  0  0
   58.4320   29.4060   46.1010 C   0  0  0  0  0  0  0  0  0  0  0  0
   59.6660   30.0260   45.8630 C   0  0  0  0  0  0  0  0  0  0  0  0
   60.6270   30.0930   46.8750 C   0  0  0  0  0  0  0  0  0  0  0  0
   60.3670   29.5380   48.1430 C   0  0  0  0  0  0  0  0  0  0  0  0
   61.3320   29.5880   49.2080 N   0  0  0  0  0  0  0  0  0  0  0  0
   62.0080   31.0600   49.8320 S   0  0  0  0  0  0  0  0  0  0  0  0
   61.0850   31.6700   50.8490 O   0  0  0  0  0  0  0  0  0  0  0  0
   63.3290   30.7540   50.4830 O   0  0  0  0  0  0  0  0  0  0  0  0
   62.2330   32.2080   48.5000 C   0  0  0  0  0  0  0  0  0  0  0  0
   63.5210   32.3700   47.9650 C   0  0  0  0  0  0  0  0  0  0  0  0
   63.7540   33.2550   46.9130 C   0  0  0  0  0  0  0  0  0  0  0  0
   62.7060   33.9950   46.3720 C   0  0  0  0  0  0  0  0  0  0  0  0
   61.4070   33.8560   46.8800 C   0  0  0  0  0  0  0  0  0  0  0  0
   60.3570   34.6050   46.3280 C   0  0  0  0  0  0  0  0  0  0  0  0
   59.0600   34.4740   46.8260 C   0  0  0  0  0  0  0  0  0  0  0  0
   58.8010   33.5980   47.8790 C   0  0  0  0  0  0  0  0  0  0  0  0
   59.8340   32.8440   48.4410 C   0  0  0  0  0  0  0  0  0  0  0  0
   61.1550   32.9580   47.9550 C   0  0  0  0  0  0  0  0  0  0  0  0
   59.1240   28.9300   48.3760 C   0  0  0  0  0  0  0  0  0  0  0  0
   58.1640   28.8630   47.3620 C   0  0  0  0  0  0  0  0  0  0  0  0
   55.3549   24.0508   46.8754 H   0  0  0  0  0  0  0  0  0  0  0  0
   57.8963   23.8654   46.2383 H   0  0  0  0  0  0  0  0  0  0  0  0
   59.8789   30.4616   44.8756 H   0  0  0  0  0  0  0  0  0  0  0  0
   61.5927   30.5823   46.6801 H   0  0  0  0  0  0  0  0  0  0  0  0
   61.7070   28.6930   49.5940 H   0  0  0  0  0  0  0  0  0  0  0  0
   64.3581   31.7906   48.3817 H   0  0  0  0  0  0  0  0  0  0  0  0
   64.7706   33.3691   46.5086 H   0  0  0  0  0  0  0  0  0  0  0  0
   62.8982   34.6915   45.5426 H   0  0  0  0  0  0  0  0  0  0  0  0
   60.5571   35.2991   45.4984 H   0  0  0  0  0  0  0  0  0  0  0  0
   58.2410   35.0627   46.3871 H   0  0  0  0  0  0  0  0  0  0  0  0
   57.7774   33.4999   48.2696 H   0  0  0  0  0  0  0  0  0  0  0  0
   59.6163   32.1548   49.2702 H   0  0  0  0  0  0  0  0  0  0  0  0
   58.9031   28.5024   49.3651 H   0  0  0  0  0  0  0  0  0  0  0  0
   57.1943   28.3815   47.5564 H   0  0  0  0  0  0  0  0  0  0  0  0
  1  2  2  0
  2  3  2  0
  2  4  1  0
  4  5  2  3
  5  6  1  0
  6  7  1  0
  7  8  2  0
  8  9  1  0
  2 10  1  0
 10 11  2  0
 11 12  1  0
 12 13  2  0
 13 14  1  0
 14 15  1  0
 15 16  2  0
 15 17  2  0
 15 18  1  0
 18 19  2  0
 19 20  1  0
 20 21  2  0
 21 22  1  0
 22 23  2  0
 23 24  1  0
 24 25  2  0
 25 26  1  0
 26 27  2  0
 13 28  1  0
 28 29  2  0
  9  5  1  0
 29 10  1  0
 27 18  1  0
 27 22  1  0
  7 30  1  0
  8 31  1  0
 11 32  1  0
 12 33  1  0
 14 34  1  0
 19 35  1  0
 20 36  1  0
 21 37  1  0
 23 38  1  0
 24 39  1  0
 25 40  1  0
 26 41  1  0
 28 42  1  0
 29 43  1  0
M  CHG  1   6  -1
M  END
>  <UniqueID>  (75) 
70

>  <SMILES>  (75) 
O=S(=O)(N=c1[n-]ccs1)c1ccc(NS(=O)(=O)c2cccc3ccccc23)cc1

>  <Energy>  (75) 
89.77946630476563

>  <Genealogy>  (75) 
O=S(=O)(N=c1[n-]ccs1)c1ccc(NS(=O)(=O)c2cccc3ccccc23)cc1 (protonated)
O=S(=O)(N=c1[n-]ccs1)c1ccc(NS(=O)(=O)c2cccc3ccccc23)cc1 (3D coordinates assigned)
O=S(=O)(N=c1[n-]ccs1)c1ccc(NS(=O)(=O)c2cccc3ccccc23)cc1 (optimized conformer: 89.77946630476563 kcal/mol)

>  <smiles>  (75) 
O=S(=O)(N=c1[nH]ccs1)c1ccc(NS(=O)(=O)c2cccc3ccccc23)cc1

>  <score_type>  (75) 
oracle

>  <origin>  (75) 
adg

>  <m_score__min__energy>  (75) 
-11.220000000000001

>  <m_primary>  (75) 
energy

$$$$
75:0
     RDKit          3D

 51 54  0  0  0  0  0  0  0  0999 V2000
   59.0820   33.5390   48.4730 C   0  0  0  0  0  0  0  0  0  0  0  0
   60.2980   33.4680   47.5940 C   0  0  0  0  0  0  0  0  0  0  0  0
   60.5590   34.2100   46.4520 C   0  0  0  0  0  0  0  0  0  0  0  0
   59.7050   35.2250   45.7980 C   0  0  0  0  0  0  0  0  0  0  0  0
   59.9080   36.4480   46.0100 O   0  0  0  0  0  0  0  0  0  0  0  0
   58.6810   34.8500   44.8660 N   0  0  0  0  0  0  0  0  0  0  0  0
   58.1430   33.5300   44.7070 C   0  0  0  0  0  0  0  0  0  0  0  0
   58.1500   32.9320   43.4430 C   0  0  0  0  0  0  0  0  0  0  0  0
   57.6410   31.6430   43.2760 C   0  0  0  0  0  0  0  0  0  0  0  0
   57.1100   30.9650   44.3770 C   0  0  0  0  0  0  0  0  0  0  0  0
   56.6330   29.6590   44.2190 O   0  0  0  0  0  0  0  0  0  0  0  0
   57.3990   28.6110   43.6280 C   0  0  0  0  0  0  0  0  0  0  0  0
   58.5550   28.2370   44.5170 C   0  0  0  0  0  0  0  0  0  0  0  0
   59.6650   29.0910   44.6210 C   0  0  0  0  0  0  0  0  0  0  0  0
   60.7260   28.7670   45.4720 C   0  0  0  0  0  0  0  0  0  0  0  0
   60.6850   27.5920   46.2290 C   0  0  0  0  0  0  0  0  0  0  0  0
   59.5830   26.7380   46.1320 C   0  0  0  0  0  0  0  0  0  0  0  0
   58.5200   27.0560   45.2800 C   0  0  0  0  0  0  0  0  0  0  0  0
   57.0710   31.5810   45.5910 N   0  0  0  0  0  0  0  0  0  0  0  0
   57.5600   32.8350   45.7780 C   0  0  0  0  0  0  0  0  0  0  0  0
   61.7760   33.8480   45.9960 N   0  0  0  0  0  0  0  0  0  0  0  0
   62.2360   32.9090   46.8080 N   0  0  0  0  0  0  0  0  0  0  0  0
   61.3610   32.6510   47.7680 N   0  0  0  0  0  0  0  0  0  0  0  0
   61.5640   31.6390   48.7670 C   0  0  0  0  0  0  0  0  0  0  0  0
   62.5050   31.8450   49.7840 C   0  0  0  0  0  0  0  0  0  0  0  0
   62.7400   30.8520   50.7370 C   0  0  0  0  0  0  0  0  0  0  0  0
   62.0430   29.6440   50.6790 C   0  0  0  0  0  0  0  0  0  0  0  0
   61.1010   29.4120   49.6610 C   0  0  0  0  0  0  0  0  0  0  0  0
   60.3780   28.1180   49.6020 C   0  0  0  0  0  0  0  0  0  0  0  0
   60.8510   26.9670   50.3080 N   0  0  0  0  0  0  0  0  0  0  0  0
   59.3330   28.0180   48.9060 O   0  0  0  0  0  0  0  0  0  0  0  0
   60.8820   30.4130   48.6970 C   0  0  0  0  0  0  0  0  0  0  0  0
   59.3910   33.5210   49.5285 H   0  0  0  0  0  0  0  0  0  0  0  0
   58.5346   34.4706   48.2671 H   0  0  0  0  0  0  0  0  0  0  0  0
   58.4299   32.6774   48.2671 H   0  0  0  0  0  0  0  0  0  0  0  0
   58.5571   33.4780   42.5792 H   0  0  0  0  0  0  0  0  0  0  0  0
   57.6576   31.1645   42.2857 H   0  0  0  0  0  0  0  0  0  0  0  0
   56.7557   27.7309   43.4812 H   0  0  0  0  0  0  0  0  0  0  0  0
   57.7917   28.9591   42.6613 H   0  0  0  0  0  0  0  0  0  0  0  0
   59.6998   30.0185   44.0306 H   0  0  0  0  0  0  0  0  0  0  0  0
   61.5947   29.4377   45.5462 H   0  0  0  0  0  0  0  0  0  0  0  0
   61.5193   27.3401   46.9002 H   0  0  0  0  0  0  0  0  0  0  0  0
   59.5514   25.8134   46.7271 H   0  0  0  0  0  0  0  0  0  0  0  0
   57.6547   26.3808   45.2066 H   0  0  0  0  0  0  0  0  0  0  0  0
   57.4988   33.3061   46.7701 H   0  0  0  0  0  0  0  0  0  0  0  0
   63.0610   32.7929   49.8320 H   0  0  0  0  0  0  0  0  0  0  0  0
   63.4767   31.0222   51.5360 H   0  0  0  0  0  0  0  0  0  0  0  0
   62.2320   28.8678   51.4352 H   0  0  0  0  0  0  0  0  0  0  0  0
   61.7870   26.9510   50.7680 H   0  0  0  0  0  0  0  0  0  0  0  0
   60.2920   26.0860   50.2980 H   0  0  0  0  0  0  0  0  0  0  0  0
   60.1686   30.2335   47.8792 H   0  0  0  0  0  0  0  0  0  0  0  0
  1  2  1  0
  2  3  2  0
  3  4  1  0
  4  5  2  0
  4  6  1  0
  6  7  1  0
  7  8  2  0
  8  9  1  0
  9 10  2  0
 10 11  1  0
 11 12  1  0
 12 13  1  0
 13 14  2  0
 14 15  1  0
 15 16  2  0
 16 17  1  0
 17 18  2  0
 10 19  1  0
 19 20  2  0
  3 21  1  0
 21 22  2  0
 22 23  1  0
 23 24  1  0
 24 25  2  0
 25 26  1  0
 26 27  2  0
 27 28  1  0
 28 29  1  0
 29 30  1  0
 29 31  2  0
 28 32  2  0
 23  2  1  0
 32 24  1  0
 20  7  1  0
 18 13  1  0
  1 33  1  0
  1 34  1  0
  1 35  1  0
  8 36  1  0
  9 37  1  0
 12 38  1  0
 12 39  1  0
 14 40  1  0
 15 41  1  0
 16 42  1  0
 17 43  1  0
 18 44  1  0
 20 45  1  0
 25 46  1  0
 26 47  1  0
 27 48  1  0
 30 49  1  0
 30 50  1  0
 32 51  1  0
M  CHG  1   6  -1
M  END
>  <UniqueID>  (76) 
71

>  <SMILES>  (76) 
Cc1c(C(=O)[N-]c2ccc(OCc3ccccc3)nc2)nnn1-c1cccc(C(N)=O)c1

>  <Energy>  (76) 
101.18986230479024

>  <Genealogy>  (76) 
Cc1c(C(=O)[N-]c2ccc(OCc3ccccc3)nc2)nnn1-c1cccc(C(N)=O)c1 (protonated)
Cc1c(C(=O)[N-]c2ccc(OCc3ccccc3)nc2)nnn1-c1cccc(C(N)=O)c1 (3D coordinates assigned)
Cc1c(C(=O)[N-]c2ccc(OCc3ccccc3)nc2)nnn1-c1cccc(C(N)=O)c1 (optimized conformer: 101.18986230479024 kcal/mol)

>  <smiles>  (76) 
Cc1c(C(=O)Nc2ccc(OCc3ccccc3)nc2)nnn1-c1cccc(C(N)=O)c1

>  <score_type>  (76) 
oracle

>  <origin>  (76) 
adg

>  <m_score__min__energy>  (76) 
-10.880000000000001

>  <m_primary>  (76) 
energy

$$$$
76:0
     RDKit          3D

 46 48  0  0  0  0  0  0  0  0999 V2000
   56.2470   30.1050   43.0320 O   0  0  0  0  0  0  0  0  0  0  0  0
   56.1560   30.2810   44.2760 C   0  0  0  0  0  0  0  0  0  0  0  0
   55.9970   29.1410   45.1260 N   0  0  0  0  0  0  0  0  0  0  0  0
   57.0800   28.2980   45.6370 C   0  0  0  0  0  0  0  0  0  0  0  0
   58.2810   28.2880   44.6730 C   0  0  0  0  0  0  0  0  0  0  0  0
   59.4740   27.5130   45.2680 C   0  0  0  0  0  0  0  0  0  0  0  0
   59.0550   26.3380   46.1770 C   0  0  0  0  0  0  0  0  0  0  0  0
   57.6710   25.7930   45.8100 C   0  0  0  0  0  0  0  0  0  0  0  0
   56.5790   26.8680   45.9700 C   0  0  0  0  0  0  0  0  0  0  0  0
   56.2690   31.5640   44.8270 O   0  0  0  0  0  0  0  0  0  0  0  0
   57.4360   32.1200   45.3700 C   0  0  0  0  0  0  0  0  0  0  0  0
   58.4080   31.3410   46.0220 C   0  0  0  0  0  0  0  0  0  0  0  0
   59.5630   31.9380   46.5370 C   0  0  0  0  0  0  0  0  0  0  0  0
   59.7680   33.3250   46.3990 C   0  0  0  0  0  0  0  0  0  0  0  0
   60.9070   33.9760   46.9010 O   0  0  0  0  0  0  0  0  0  0  0  0
   62.2260   33.8520   46.3680 C   0  0  0  0  0  0  0  0  0  0  0  0
   63.1170   33.0770   47.2990 C   0  0  0  0  0  0  0  0  0  0  0  0
   63.7810   32.1020   46.8530 O   0  0  0  0  0  0  0  0  0  0  0  0
   63.1900   33.3970   48.7380 C   0  0  0  0  0  0  0  0  0  0  0  0
   64.2470   33.1180   49.5880 C   0  0  0  0  0  0  0  0  0  0  0  0
   63.8810   33.5980   50.8300 C   0  0  0  0  0  0  0  0  0  0  0  0
   62.6250   34.1480   50.6880 C   0  0  0  0  0  0  0  0  0  0  0  0
   62.2080   34.0250   49.4150 N   0  0  0  0  0  0  0  0  0  0  0  0
   58.8060   34.0920   45.7320 C   0  0  0  0  0  0  0  0  0  0  0  0
   57.6530   33.4930   45.2160 C   0  0  0  0  0  0  0  0  0  0  0  0
   57.4315   28.7366   46.5826 H   0  0  0  0  0  0  0  0  0  0  0  0
   57.9786   27.8101   43.7295 H   0  0  0  0  0  0  0  0  0  0  0  0
   58.5952   29.3280   44.5008 H   0  0  0  0  0  0  0  0  0  0  0  0
   60.0776   27.1139   44.4395 H   0  0  0  0  0  0  0  0  0  0  0  0
   60.0386   28.2199   45.8937 H   0  0  0  0  0  0  0  0  0  0  0  0
   59.7936   25.5292   46.0749 H   0  0  0  0  0  0  0  0  0  0  0  0
   59.0106   26.7084   47.2118 H   0  0  0  0  0  0  0  0  0  0  0  0
   57.6869   25.4528   44.7640 H   0  0  0  0  0  0  0  0  0  0  0  0
   57.4371   24.9603   46.4897 H   0  0  0  0  0  0  0  0  0  0  0  0
   55.7452   26.6232   45.2956 H   0  0  0  0  0  0  0  0  0  0  0  0
   56.2689   26.8663   47.0254 H   0  0  0  0  0  0  0  0  0  0  0  0
   58.2592   30.2562   46.1276 H   0  0  0  0  0  0  0  0  0  0  0  0
   60.3148   31.3219   47.0521 H   0  0  0  0  0  0  0  0  0  0  0  0
   62.1750   33.3290   45.4016 H   0  0  0  0  0  0  0  0  0  0  0  0
   62.6471   34.8603   46.2410 H   0  0  0  0  0  0  0  0  0  0  0  0
   65.1895   32.6148   49.3263 H   0  0  0  0  0  0  0  0  0  0  0  0
   64.4764   33.5506   51.7537 H   0  0  0  0  0  0  0  0  0  0  0  0
   62.0479   34.6188   51.4975 H   0  0  0  0  0  0  0  0  0  0  0  0
   61.2950   34.3550   49.0320 H   0  0  0  0  0  0  0  0  0  0  0  0
   58.9583   35.1749   45.6128 H   0  0  0  0  0  0  0  0  0  0  0  0
   56.9105   34.1065   44.6846 H   0  0  0  0  0  0  0  0  0  0  0  0
  1  2  2  0
  2  3  1  0
  3  4  1  0
  4  5  1  0
  5  6  1  0
  6  7  1  0
  7  8  1  0
  8  9  1  0
  2 10  1  0
 10 11  1  0
 11 12  2  0
 12 13  1  0
 13 14  2  0
 14 15  1  0
 15 16  1  0
 16 17  1  0
 17 18  2  0
 17 19  1  0
 19 20  2  0
 20 21  1  0
 21 22  2  0
 22 23  1  0
 14 24  1  0
 24 25  2  0
  9  4  1  0
 25 11  1  0
 23 19  1  0
  4 26  1  0
  5 27  1  0
  5 28  1  0
  6 29  1  0
  6 30  1  0
  7 31  1  0
  7 32  1  0
  8 33  1  0
  8 34  1  0
  9 35  1  0
  9 36  1  0
 12 37  1  0
 13 38  1  0
 16 39  1  0
 16 40  1  0
 20 41  1  0
 21 42  1  0
 22 43  1  0
 23 44  1  0
 24 45  1  0
 25 46  1  0
M  CHG  1   3  -1
M  END
>  <UniqueID>  (77) 
72

>  <SMILES>  (77) 
O=C([N-]C1CCCCC1)Oc1ccc(OCC(=O)c2ccc[nH]2)cc1

>  <Energy>  (77) 
76.33501564901768

>  <Genealogy>  (77) 
O=C([N-]C1CCCCC1)Oc1ccc(OCC(=O)c2ccc[nH]2)cc1 (protonated)
O=C([N-]C1CCCCC1)Oc1ccc(OCC(=O)c2ccc[nH]2)cc1 (3D coordinates assigned)
O=C([N-]C1CCCCC1)Oc1ccc(OCC(=O)c2ccc[nH]2)cc1 (nonaromatic ring conformer: 76.33501564901768 kcal/mol)

>  <smiles>  (77) 
O=C(NC1CCCCC1)Oc1ccc(OCC(=O)c2ccc[nH]2)cc1

>  <score_type>  (77) 
oracle

>  <origin>  (77) 
adg

>  <m_score__min__energy>  (77) 
-9.6099999999999994

>  <m_primary>  (77) 
energy

$$$$
77:0
     RDKit          3D

 53 56  0  0  0  0  0  0  0  0999 V2000
   56.7220   22.4340   49.0000 C   0  0  0  0  0  0  0  0  0  0  0  0
   57.0360   22.9650   47.6820 N   0  0  0  0  0  0  0  0  0  0  0  0
   56.2820   23.9900   47.0260 C   0  0  0  0  0  0  0  0  0  0  0  0
   55.0390   23.8390   46.8880 O   0  0  0  0  0  0  0  0  0  0  0  0
   56.9210   25.2160   46.5110 C   0  0  0  0  0  0  0  0  0  0  0  0
   58.3150   25.2490   46.3620 C   0  0  0  0  0  0  0  0  0  0  0  0
   58.9460   26.3880   45.8620 C   0  0  0  0  0  0  0  0  0  0  0  0
   58.1920   27.4980   45.4880 C   0  0  0  0  0  0  0  0  0  0  0  0
   56.7920   27.4730   45.5910 C   0  0  0  0  0  0  0  0  0  0  0  0
   56.0040   28.6190   45.2390 N   0  0  0  0  0  0  0  0  0  0  0  0
   56.2610   29.5340   44.1660 C   0  0  0  0  0  0  0  0  0  0  0  0
   55.3880   29.6760   43.2680 O   0  0  0  0  0  0  0  0  0  0  0  0
   57.5720   30.2670   44.0380 C   0  0  2  0  0  0  0  0  0  0  0  0
   58.3220   30.3690   45.3980 C   0  0  0  0  0  0  0  0  0  0  0  0
   58.4310   31.8370   45.6000 C   0  0  0  0  0  0  0  0  0  0  0  0
   59.0140   32.5310   46.6610 C   0  0  0  0  0  0  0  0  0  0  0  0
   59.0000   33.9410   46.6340 C   0  0  0  0  0  0  0  0  0  0  0  0
   59.5840   34.7220   47.7740 C   0  0  0  0  0  0  0  0  0  0  0  0
   60.8500   34.1180   48.1730 N   0  0  0  0  0  0  0  0  0  0  0  0
   61.0160   33.2060   49.2650 C   0  0  0  0  0  0  0  0  0  0  0  0
   61.5710   33.6160   50.3170 O   0  0  0  0  0  0  0  0  0  0  0  0
   60.5230   31.8150   49.2100 C   0  0  0  0  0  0  0  0  0  0  0  0
   59.3470   31.4400   49.8820 C   0  0  0  0  0  0  0  0  0  0  0  0
   58.8840   30.1230   49.8110 C   0  0  0  0  0  0  0  0  0  0  0  0
   59.5820   29.1740   49.0590 C   0  0  0  0  0  0  0  0  0  0  0  0
   60.7400   29.5450   48.3690 C   0  0  0  0  0  0  0  0  0  0  0  0
   61.2060   30.8630   48.4380 C   0  0  0  0  0  0  0  0  0  0  0  0
   58.3800   34.6140   45.5550 C   0  0  0  0  0  0  0  0  0  0  0  0
   57.8000   33.8860   44.5020 C   0  0  0  0  0  0  0  0  0  0  0  0
   57.8450   32.4960   44.5580 C   0  0  0  0  0  0  0  0  0  0  0  0
   57.3300   31.6160   43.6310 O   0  0  0  0  0  0  0  0  0  0  0  0
   56.1540   26.3430   46.1290 C   0  0  0  0  0  0  0  0  0  0  0  0
   54.7660   26.3670   46.2800 O   0  0  0  0  0  0  0  0  0  0  0  0
   57.1210   23.1087   49.7717 H   0  0  0  0  0  0  0  0  0  0  0  0
   55.6307   22.3531   49.1123 H   0  0  0  0  0  0  0  0  0  0  0  0
   57.1769   21.4388   49.1123 H   0  0  0  0  0  0  0  0  0  0  0  0
   58.9151   24.3704   46.6414 H   0  0  0  0  0  0  0  0  0  0  0  0
   60.0413   26.4098   45.7628 H   0  0  0  0  0  0  0  0  0  0  0  0
   58.6964   28.3994   45.1098 H   0  0  0  0  0  0  0  0  0  0  0  0
   58.1735   29.7025   43.3103 H   0  0  0  0  0  0  0  0  0  0  0  0
   57.7431   29.8990   46.2067 H   0  0  0  0  0  0  0  0  0  0  0  0
   59.2940   29.8541   45.4008 H   0  0  0  0  0  0  0  0  0  0  0  0
   59.4747   31.9898   47.5006 H   0  0  0  0  0  0  0  0  0  0  0  0
   59.7563   35.7613   47.4574 H   0  0  0  0  0  0  0  0  0  0  0  0
   58.8861   34.7110   48.6242 H   0  0  0  0  0  0  0  0  0  0  0  0
   58.7885   32.1861   50.4663 H   0  0  0  0  0  0  0  0  0  0  0  0
   57.9688   29.8330   50.3479 H   0  0  0  0  0  0  0  0  0  0  0  0
   59.2206   28.1362   49.0101 H   0  0  0  0  0  0  0  0  0  0  0  0
   61.2856   28.8001   47.7711 H   0  0  0  0  0  0  0  0  0  0  0  0
   62.1113   31.1536   47.8848 H   0  0  0  0  0  0  0  0  0  0  0  0
   58.3517   35.7135   45.5401 H   0  0  0  0  0  0  0  0  0  0  0  0
   57.3228   34.4014   43.6555 H   0  0  0  0  0  0  0  0  0  0  0  0
   54.2070   25.5290   46.3790 H   0  0  0  0  0  0  0  0  0  0  0  0
  1  2  1  0
  2  3  1  0
  3  4  2  0
  3  5  1  0
  5  6  2  0
  6  7  1  0
  7  8  2  0
  8  9  1  0
  9 10  1  0
 10 11  1  0
 11 12  2  0
 11 13  1  0
 13 14  1  0
 14 15  1  0
 15 16  2  0
 16 17  1  0
 17 18  1  0
 18 19  1  0
 19 20  1  0
 20 21  2  0
 20 22  1  0
 22 23  2  0
 23 24  1  0
 24 25  2  0
 25 26  1  0
 26 27  2  0
 17 28  2  0
 28 29  1  0
 29 30  2  0
 30 31  1  0
  9 32  2  0
 32 33  1  0
 32  5  1  0
 31 13  1  0
 30 15  1  0
 27 22  1  0
  1 34  1  0
  1 35  1  0
  1 36  1  0
  6 37  1  0
  7 38  1  0
  8 39  1  0
 13 40  1  6
 14 41  1  0
 14 42  1  0
 16 43  1  0
 18 44  1  0
 18 45  1  0
 23 46  1  0
 24 47  1  0
 25 48  1  0
 26 49  1  0
 27 50  1  0
 28 51  1  0
 29 52  1  0
 33 53  1  0
M  CHG  3   2  -1  10  -1  19  -1
M  END
>  <UniqueID>  (78) 
73

>  <SMILES>  (78) 
C[N-]C(=O)c1cccc([N-]C(=O)[C@@H]2Cc3cc(C[N-]C(=O)c4ccccc4)ccc3O2)c1O

>  <Energy>  (78) 
86.42824595667362

>  <Genealogy>  (78) 
C[N-]C(=O)c1cccc([N-]C(=O)C2Cc3cc(C[N-]C(=O)c4ccccc4)ccc3O2)c1O (protonated)
C[N-]C(=O)c1cccc([N-]C(=O)[C@@H]2Cc3cc(C[N-]C(=O)c4ccccc4)ccc3O2)c1O (chirality)
C[N-]C(=O)c1cccc([N-]C(=O)[C@@H]2Cc3cc(C[N-]C(=O)c4ccccc4)ccc3O2)c1O (3D coordinates assigned)
C[N-]C(=O)c1cccc([N-]C(=O)[C@@H]2Cc3cc(C[N-]C(=O)c4ccccc4)ccc3O2)c1O (nonaromatic ring conformer: 86.42824595667362 kcal/mol)

>  <smiles>  (78) 
CNC(=O)c1cccc(NC(=O)C2Cc3cc(CNC(=O)c4ccccc4)ccc3O2)c1O

>  <score_type>  (78) 
oracle

>  <origin>  (78) 
adg

>  <m_score__min__energy>  (78) 
-15.029999999999999

>  <m_primary>  (78) 
energy

$$$$
78:0
     RDKit          3D

 50 53  0  0  1  0  0  0  0  0999 V2000
   58.0920   26.8960   43.3170 C   0  0  0  0  0  0  0  0  0  0  0  0
   58.4120   28.2190   43.7460 N   0  0  0  0  0  0  0  0  0  0  0  0
   59.2510   28.3180   44.8920 C   0  0  0  0  0  0  0  0  0  0  0  0
   59.1190   27.2150   45.9020 C   0  0  2  0  0  0  0  0  0  0  0  0
   58.1350   27.6700   46.9550 C   0  0  0  0  0  0  0  0  0  0  0  0
   59.0190   28.5030   47.8430 C   0  0  0  0  0  0  0  0  0  0  0  0
   60.3390   27.7780   47.7070 C   0  0  0  0  0  0  0  0  0  0  0  0
   60.2580   26.9380   46.6140 O   0  0  0  0  0  0  0  0  0  0  0  0
   56.9930   29.2030   43.8150 S   0  0  0  0  0  0  0  0  0  0  0  0
   56.2890   29.3110   42.4990 O   0  0  0  0  0  0  0  0  0  0  0  0
   56.1010   28.7410   44.9170 O   0  0  0  0  0  0  0  0  0  0  0  0
   57.5480   30.8150   44.2410 C   0  0  0  0  0  0  0  0  0  0  0  0
   57.8300   31.0560   45.5670 C   0  0  0  0  0  0  0  0  0  0  0  0
   58.2570   32.3100   45.9290 C   0  0  0  0  0  0  0  0  0  0  0  0
   58.4140   33.3490   44.9990 C   0  0  0  0  0  0  0  0  0  0  0  0
   58.8490   34.6080   45.5160 C   0  0  0  0  0  0  0  0  0  0  0  0
   59.2480   35.4750   44.6610 O   0  0  0  0  0  0  0  0  0  0  0  0
   58.8950   35.0200   46.8680 N   0  0  0  0  0  0  0  0  0  0  0  0
   59.8040   34.6850   47.6860 C   0  0  0  0  0  0  0  0  0  0  0  0
   59.9640   34.9460   49.0050 N   0  0  0  0  0  0  0  0  0  0  0  0
   61.0370   34.4700   49.5210 N   0  0  0  0  0  0  0  0  0  0  0  0
   61.9190   33.8480   49.0780 C   0  0  0  0  0  0  0  0  0  0  0  0
   63.2180   33.1640   49.3570 C   0  0  0  0  0  0  0  0  0  0  0  0
   64.1450   33.1270   48.1850 C   0  0  0  0  0  0  0  0  0  0  0  0
   63.5760   31.8770   48.7470 C   0  0  0  0  0  0  0  0  0  0  0  0
   61.2950   33.7190   47.2590 S   0  0  0  0  0  0  0  0  0  0  0  0
   58.1220   33.0670   43.6870 C   0  0  0  0  0  0  0  0  0  0  0  0
   57.6870   31.8140   43.2660 C   0  0  0  0  0  0  0  0  0  0  0  0
   57.9365   26.2531   44.1959 H   0  0  0  0  0  0  0  0  0  0  0  0
   57.1735   26.9187   42.7122 H   0  0  0  0  0  0  0  0  0  0  0  0
   58.9194   26.4964   42.7122 H   0  0  0  0  0  0  0  0  0  0  0  0
   60.2946   28.3331   44.5447 H   0  0  0  0  0  0  0  0  0  0  0  0
   58.9360   29.2349   45.4116 H   0  0  0  0  0  0  0  0  0  0  0  0
   58.8336   26.3249   45.3221 H   0  0  0  0  0  0  0  0  0  0  0  0
   57.3244   28.2703   46.5163 H   0  0  0  0  0  0  0  0  0  0  0  0
   57.6191   26.8491   47.4747 H   0  0  0  0  0  0  0  0  0  0  0  0
   59.0897   29.5400   47.4829 H   0  0  0  0  0  0  0  0  0  0  0  0
   58.6596   28.5959   48.8785 H   0  0  0  0  0  0  0  0  0  0  0  0
   61.1502   28.5058   47.5582 H   0  0  0  0  0  0  0  0  0  0  0  0
   60.5502   27.1982   48.6176 H   0  0  0  0  0  0  0  0  0  0  0  0
   57.7158   30.2618   46.3195 H   0  0  0  0  0  0  0  0  0  0  0  0
   58.4843   32.5073   46.9870 H   0  0  0  0  0  0  0  0  0  0  0  0
   59.2130   35.5100   49.5090 H   0  0  0  0  0  0  0  0  0  0  0  0
   63.2220   33.4991   50.4047 H   0  0  0  0  0  0  0  0  0  0  0  0
   63.8100   33.4943   47.2037 H   0  0  0  0  0  0  0  0  0  0  0  0
   65.1578   33.5015   47.9754 H   0  0  0  0  0  0  0  0  0  0  0  0
   62.8233   31.3130   48.1766 H   0  0  0  0  0  0  0  0  0  0  0  0
   64.0014   30.9350   49.1234 H   0  0  0  0  0  0  0  0  0  0  0  0
   58.2367   33.8645   42.9381 H   0  0  0  0  0  0  0  0  0  0  0  0
   57.4606   31.6143   42.2082 H   0  0  0  0  0  0  0  0  0  0  0  0
  1  2  1  0
  2  3  1  0
  3  4  1  0
  4  5  1  0
  5  6  1  0
  6  7  1  0
  7  8  1  0
  2  9  1  0
  9 10  2  0
  9 11  2  0
  9 12  1  0
 12 13  2  0
 13 14  1  0
 14 15  2  0
 15 16  1  0
 16 17  2  0
 16 18  1  0
 18 19  2  0
 19 20  1  0
 20 21  1  0
 21 22  2  0
 22 23  1  0
 23 24  1  0
 24 25  1  0
 22 26  1  0
 15 27  1  0
 27 28  2  0
  8  4  1  0
 28 12  1  0
 26 19  1  0
 25 23  1  0
  1 29  1  0
  1 30  1  0
  1 31  1  0
  3 32  1  0
  3 33  1  0
  4 34  1  6
  5 35  1  0
  5 36  1  0
  6 37  1  0
  6 38  1  0
  7 39  1  0
  7 40  1  0
 13 41  1  0
 14 42  1  0
 20 43  1  0
 23 44  1  0
 24 45  1  0
 24 46  1  0
 25 47  1  0
 25 48  1  0
 27 49  1  0
 28 50  1  0
M  END
>  <smiles>  (79) 
CN(CC1CCCO1)S(=O)(=O)c1ccc(C(=O)N=c2[nH]nc(C3CC3)s2)cc1

>  <score_type>  (79) 
oracle

>  <origin>  (79) 
adg

>  <m_score__min__energy>  (79) 
-10.24

>  <m_primary>  (79) 
energy

$$$$
79:0
     RDKit          3D

 41 43  0  0  0  0  0  0  0  0999 V2000
   59.9442   26.7731   46.6481 H   0  0  0  0  0  0  0  0  0  0  0  0
   59.4270   27.5100   46.0160 C   0  0  0  0  0  0  0  0  0  0  0  0
   57.7590   27.6980   45.8850 S   0  0  0  0  0  0  0  0  0  0  0  0
   57.8130   28.9670   44.7890 C   0  0  0  0  0  0  0  0  0  0  0  0
   56.4090   29.7430   44.0800 S   0  0  0  0  0  0  0  0  0  0  0  0
   56.4470   29.5590   42.5900 O   0  0  0  0  0  0  0  0  0  0  0  0
   55.1490   29.1210   44.6130 O   0  0  0  0  0  0  0  0  0  0  0  0
   56.4220   31.4370   44.4490 N   0  0  0  0  0  0  0  0  0  0  0  0
   57.2980   31.9820   45.2340 C   0  0  0  0  0  0  0  0  0  0  0  0
   57.7660   31.3990   46.3610 N   0  0  0  0  0  0  0  0  0  0  0  0
   58.6820   32.1850   46.9870 C   0  0  0  0  0  0  0  0  0  0  0  0
   59.3100   31.7670   48.2780 C   0  0  0  0  0  0  0  0  0  0  0  0
   58.7186   32.1606   49.1178 H   0  0  0  0  0  0  0  0  0  0  0  0
   59.3390   30.6688   48.3330 H   0  0  0  0  0  0  0  0  0  0  0  0
   60.3344   32.1641   48.3330 H   0  0  0  0  0  0  0  0  0  0  0  0
   58.9240   33.4060   46.3550 C   0  0  0  0  0  0  0  0  0  0  0  0
   59.9960   34.6840   46.9100 S   0  0  0  0  0  0  0  0  0  0  0  0
   59.7190   35.9290   46.1160 O   0  0  0  0  0  0  0  0  0  0  0  0
   59.7540   34.9700   48.3660 O   0  0  0  0  0  0  0  0  0  0  0  0
   61.6510   34.2130   46.6850 N   0  0  0  0  0  0  0  0  0  0  0  0
   62.0180   34.2290   45.7080 H   0  0  0  0  0  0  0  0  0  0  0  0
   62.4710   33.6590   47.7300 C   0  0  0  0  0  0  0  0  0  0  0  0
   63.2100   32.4760   47.5450 C   0  0  0  0  0  0  0  0  0  0  0  0
   63.1600   31.9448   46.5830 H   0  0  0  0  0  0  0  0  0  0  0  0
   64.0070   31.9720   48.5760 C   0  0  0  0  0  0  0  0  0  0  0  0
   64.5850   31.0497   48.4166 H   0  0  0  0  0  0  0  0  0  0  0  0
   64.0770   32.6290   49.8090 C   0  0  0  0  0  0  0  0  0  0  0  0
   64.8940   32.0830   50.8100 O   0  0  0  0  0  0  0  0  0  0  0  0
   66.3160   32.1280   50.8010 C   0  0  0  0  0  0  0  0  0  0  0  0
   66.6890   32.1398   51.8357 H   0  0  0  0  0  0  0  0  0  0  0  0
   66.7076   31.2418   50.2801 H   0  0  0  0  0  0  0  0  0  0  0  0
   66.6508   33.0372   50.2801 H   0  0  0  0  0  0  0  0  0  0  0  0
   63.3320   33.8060   50.0000 C   0  0  0  0  0  0  0  0  0  0  0  0
   63.3769   34.3312   50.9655 H   0  0  0  0  0  0  0  0  0  0  0  0
   62.5350   34.3120   48.9700 C   0  0  0  0  0  0  0  0  0  0  0  0
   61.9524   35.2307   49.1328 H   0  0  0  0  0  0  0  0  0  0  0  0
   57.9770   33.4930   44.9640 S   0  0  0  0  0  0  0  0  0  0  0  0
   59.1370   29.2610   44.4980 C   0  0  0  0  0  0  0  0  0  0  0  0
   59.4450   30.0518   43.7982 H   0  0  0  0  0  0  0  0  0  0  0  0
   60.0390   28.4450   45.1890 C   0  0  0  0  0  0  0  0  0  0  0  0
   61.1306   28.5348   45.0875 H   0  0  0  0  0  0  0  0  0  0  0  0
  1  2  1  0
  2  3  1  0
  3  4  1  0
  4  5  1  0
  5  6  2  0
  5  7  2  0
  5  8  1  0
  8  9  2  0
  9 10  1  0
 10 11  1  0
 11 12  1  0
 12 13  1  0
 12 14  1  0
 12 15  1  0
 11 16  2  0
 16 17  1  0
 17 18  2  0
 17 19  2  0
 17 20  1  0
 20 21  1  0
 20 22  1  0
 22 23  2  0
 23 24  1  0
 23 25  1  0
 25 26  1  0
 25 27  2  0
 27 28  1  0
 28 29  1  0
 29 30  1  0
 29 31  1  0
 29 32  1  0
 27 33  1  0
 33 34  1  0
 33 35  2  0
 35 36  1  0
 16 37  1  0
  4 38  2  0
 38 39  1  0
 38 40  1  0
 40 41  1  0
 40  2  2  0
 37  9  1  0
 35 22  1  0
M  CHG  1  10  -1
M  END
>  <UniqueID>  (80) 
74

>  <SMILES>  (80) 
COc1ccc(NS(=O)(=O)c2s/c(=N/S(=O)(=O)c3cccs3)[n-]c2C)cc1

>  <Energy>  (80) 
101.95337896777603

>  <Genealogy>  (80) 
COc1ccc(NS(=O)(=O)c2sc(=NS(=O)(=O)c3cccs3)[n-]c2C)cc1 (protonated)
COc1ccc(NS(=O)(=O)c2s/c(=N/S(=O)(=O)c3cccs3)[n-]c2C)cc1 (cis-trans isomerization)
COc1ccc(NS(=O)(=O)c2s/c(=N/S(=O)(=O)c3cccs3)[n-]c2C)cc1 (3D coordinates assigned)
COc1ccc(NS(=O)(=O)c2s/c(=N/S(=O)(=O)c3cccs3)[n-]c2C)cc1 (optimized conformer: 101.95337896777603 kcal/mol)

>  <smiles>  (80) 
COc1ccc(NS(=O)(=O)c2sc(=NS(=O)(=O)c3cccs3)[nH]c2C)cc1

>  <score_type>  (80) 
oracle

>  <origin>  (80) 
adg

>  <m_score__min__energy>  (80) 
-10.460000000000001

>  <m_primary>  (80) 
energy

$$$$
80:0
     RDKit          3D

 15 15  0  0  0  0  0  0  0  0999 V2000
   57.8960   31.9170   43.0960 C   0  0  0  0  0  0  0  0  0  0  0  0
   57.4380   30.8640   44.0530 C   0  0  0  0  0  0  0  0  0  0  0  0
   56.6640   31.1810   44.9950 O   0  0  0  0  0  0  0  0  0  0  0  0
   57.8520   29.5020   43.8610 N   0  0  0  0  0  0  0  0  0  0  0  0
   57.5120   28.4090   44.7310 C   0  0  0  0  0  0  0  0  0  0  0  0
   58.5480   27.2010   45.2930 S   0  0  0  0  0  0  0  0  0  0  0  0
   57.3240   26.4360   46.1580 C   0  0  0  0  0  0  0  0  0  0  0  0
   57.5310   25.0840   47.0470 S   0  0  0  0  0  0  0  0  0  0  0  0
   56.1360   27.0680   46.0360 N   0  0  0  0  0  0  0  0  0  0  0  0
   56.2410   28.1640   45.2400 C   0  0  0  0  0  0  0  0  0  0  0  0
   55.1460   28.9740   44.9660 O   0  0  0  0  0  0  0  0  0  0  0  0
   58.2732   32.7842   43.6579 H   0  0  0  0  0  0  0  0  0  0  0  0
   58.6995   31.5126   42.4629 H   0  0  0  0  0  0  0  0  0  0  0  0
   57.0523   32.2291   42.4629 H   0  0  0  0  0  0  0  0  0  0  0  0
   58.4450   29.2910   43.0270 H   0  0  0  0  0  0  0  0  0  0  0  0
  1  2  1  0
  2  3  2  0
  2  4  1  0
  4  5  1  0
  5  6  1  0
  6  7  1  0
  7  8  2  0
  7  9  1  0
  9 10  1  0
 10 11  1  0
 10  5  2  0
  1 12  1  0
  1 13  1  0
  1 14  1  0
  4 15  1  0
M  CHG  2   9  -1  11  -1
M  END
>  <UniqueID>  (81) 
75

>  <SMILES>  (81) 
CC(=O)Nc1sc(=S)[n-]c1[O-]

>  <Energy>  (81) 
43.84310630374867

>  <Genealogy>  (81) 
CC(=O)Nc1sc(=S)[n-]c1[O-] (protonated)
CC(=O)Nc1sc(=S)[n-]c1[O-] (3D coordinates assigned)
CC(=O)Nc1sc(=S)[n-]c1[O-] (optimized conformer: 43.84310630374867 kcal/mol)

>  <smiles>  (81) 
CC(=O)Nc1sc(=S)[nH]c1O

>  <score_type>  (81) 
oracle

>  <origin>  (81) 
adg

>  <m_score__min__energy>  (81) 
-12.039999999999999

>  <m_primary>  (81) 
energy

$$$$
81:0
     RDKit          3D

 67 69  0  0  0  0  0  0  0  0999 V2000
   52.0200   31.8040   51.2780 C   0  0  0  0  0  0  0  0  0  0  0  0
   52.8020   30.6330   51.8740 C   0  0  0  0  0  0  0  0  0  0  0  0
   54.3180   30.7790   51.6820 C   0  0  0  0  0  0  0  0  0  0  0  0
   55.1170   30.2010   52.8620 C   0  0  0  0  0  0  0  0  0  0  0  0
   56.3740   31.0330   53.1490 C   0  0  0  0  0  0  0  0  0  0  0  0
   56.8350   31.7380   51.9530 N   0  0  0  0  0  0  0  0  0  0  0  0
   58.2100   32.1290   51.8080 C   0  0  0  0  0  0  0  0  0  0  0  0
   58.9830   32.0410   52.8000 O   0  0  0  0  0  0  0  0  0  0  0  0
   58.7360   32.6440   50.5190 C   0  0  0  0  0  0  0  0  0  0  0  0
   59.8780   33.4590   50.5160 C   0  0  0  0  0  0  0  0  0  0  0  0
   60.3800   33.9650   49.3190 C   0  0  0  0  0  0  0  0  0  0  0  0
   59.7720   33.6430   48.1010 C   0  0  0  0  0  0  0  0  0  0  0  0
   60.2650   34.2430   46.8900 N   0  0  0  0  0  0  0  0  0  0  0  0
   59.6240   35.4560   46.3640 C   0  0  0  0  0  0  0  0  0  0  0  0
   59.1190   35.2390   44.9390 C   0  0  0  0  0  0  0  0  0  0  0  0
   61.5070   33.7310   46.2920 C   0  0  0  0  0  0  0  0  0  0  0  0
   62.3900   33.1140   47.3430 C   0  0  0  0  0  0  0  0  0  0  0  0
   63.3860   33.8780   47.9730 C   0  0  0  0  0  0  0  0  0  0  0  0
   64.1580   33.3230   48.9980 C   0  0  0  0  0  0  0  0  0  0  0  0
   63.9330   32.0050   49.4100 C   0  0  0  0  0  0  0  0  0  0  0  0
   62.9370   31.2410   48.7930 C   0  0  0  0  0  0  0  0  0  0  0  0
   62.1630   31.7930   47.7690 C   0  0  0  0  0  0  0  0  0  0  0  0
   58.6570   32.7890   48.0760 C   0  0  0  0  0  0  0  0  0  0  0  0
   58.0520   32.4750   46.8080 N   0  0  0  0  0  0  0  0  0  0  0  0
   58.5860   31.7200   45.7070 C   0  0  0  0  0  0  0  0  0  0  0  0
   58.8280   32.3280   44.6300 O   0  0  0  0  0  0  0  0  0  0  0  0
   58.8640   30.2650   45.7810 C   0  0  0  0  0  0  0  0  0  0  0  0
   60.1190   29.8630   46.2680 C   0  0  0  0  0  0  0  0  0  0  0  0
   60.4800   28.5160   46.2830 C   0  0  0  0  0  0  0  0  0  0  0  0
   59.6010   27.5530   45.7920 C   0  0  0  0  0  0  0  0  0  0  0  0
   58.3420   27.9300   45.3210 C   0  0  0  0  0  0  0  0  0  0  0  0
   57.9420   29.2780   45.3410 C   0  0  0  0  0  0  0  0  0  0  0  0
   56.5460   29.6050   44.9690 C   0  0  0  0  0  0  0  0  0  0  0  0
   56.2570   30.7290   44.4870 O   0  0  0  0  0  0  0  0  0  0  0  0
   55.5220   28.6970   45.2260 O   0  0  0  0  0  0  0  0  0  0  0  0
   58.1260   32.3190   49.2930 C   0  0  0  0  0  0  0  0  0  0  0  0
   51.6080   32.4210   52.0901 H   0  0  0  0  0  0  0  0  0  0  0  0
   52.6916   32.4155   50.6575 H   0  0  0  0  0  0  0  0  0  0  0  0
   51.1978   31.4179   50.6575 H   0  0  0  0  0  0  0  0  0  0  0  0
   52.5868   30.5772   52.9513 H   0  0  0  0  0  0  0  0  0  0  0  0
   52.4856   29.7190   51.3500 H   0  0  0  0  0  0  0  0  0  0  0  0
   54.6104   30.2485   50.7638 H   0  0  0  0  0  0  0  0  0  0  0  0
   54.5458   31.8532   51.6170 H   0  0  0  0  0  0  0  0  0  0  0  0
   54.4789   30.1962   53.7580 H   0  0  0  0  0  0  0  0  0  0  0  0
   55.4306   29.1797   52.6002 H   0  0  0  0  0  0  0  0  0  0  0  0
   56.1435   31.7704   53.9320 H   0  0  0  0  0  0  0  0  0  0  0  0
   57.1722   30.3506   53.4765 H   0  0  0  0  0  0  0  0  0  0  0  0
   56.1500   31.9680   51.2000 H   0  0  0  0  0  0  0  0  0  0  0  0
   60.3801   33.6999   51.4646 H   0  0  0  0  0  0  0  0  0  0  0  0
   61.2615   34.6229   49.3317 H   0  0  0  0  0  0  0  0  0  0  0  0
   58.7739   35.7216   47.0096 H   0  0  0  0  0  0  0  0  0  0  0  0
   60.3682   36.2660   46.3507 H   0  0  0  0  0  0  0  0  0  0  0  0
   58.1088   34.8049   44.9701 H   0  0  0  0  0  0  0  0  0  0  0  0
   59.0877   36.2031   44.4103 H   0  0  0  0  0  0  0  0  0  0  0  0
   59.7969   34.5527   44.4103 H   0  0  0  0  0  0  0  0  0  0  0  0
   61.2575   32.9699   45.5381 H   0  0  0  0  0  0  0  0  0  0  0  0
   62.0459   34.5689   45.8255 H   0  0  0  0  0  0  0  0  0  0  0  0
   63.5594   34.9177   47.6585 H   0  0  0  0  0  0  0  0  0  0  0  0
   64.9431   33.9232   49.4811 H   0  0  0  0  0  0  0  0  0  0  0  0
   64.5389   31.5700   50.2185 H   0  0  0  0  0  0  0  0  0  0  0  0
   62.7627   30.2036   49.1145 H   0  0  0  0  0  0  0  0  0  0  0  0
   61.3732   31.1922   47.2943 H   0  0  0  0  0  0  0  0  0  0  0  0
   60.8249   30.6193   46.6417 H   0  0  0  0  0  0  0  0  0  0  0  0
   61.4592   28.2137   46.6827 H   0  0  0  0  0  0  0  0  0  0  0  0
   59.8994   26.4944   45.7754 H   0  0  0  0  0  0  0  0  0  0  0  0
   57.6556   27.1645   44.9301 H   0  0  0  0  0  0  0  0  0  0  0  0
   57.2235   31.6902   49.2851 H   0  0  0  0  0  0  0  0  0  0  0  0
  1  2  1  0
  2  3  1  0
  3  4  1  0
  4  5  1  0
  5  6  1  0
  6  7  1  0
  7  8  2  0
  7  9  1  0
  9 10  2  0
 10 11  1  0
 11 12  2  0
 12 13  1  0
 13 14  1  0
 14 15  1  0
 13 16  1  0
 16 17  1  0
 17 18  2  0
 18 19  1  0
 19 20  2  0
 20 21  1  0
 21 22  2  0
 12 23  1  0
 23 24  1  0
 24 25  1  0
 25 26  2  0
 25 27  1  0
 27 28  2  0
 28 29  1  0
 29 30  2  0
 30 31  1  0
 31 32  2  0
 32 33  1  0
 33 34  2  0
 33 35  1  0
 23 36  2  0
 36  9  1  0
 22 17  1  0
 32 27  1  0
  1 37  1  0
  1 38  1  0
  1 39  1  0
  2 40  1  0
  2 41  1  0
  3 42  1  0
  3 43  1  0
  4 44  1  0
  4 45  1  0
  5 46  1  0
  5 47  1  0
  6 48  1  0
 10 49  1  0
 11 50  1  0
 14 51  1  0
 14 52  1  0
 15 53  1  0
 15 54  1  0
 15 55  1  0
 16 56  1  0
 16 57  1  0
 18 58  1  0
 19 59  1  0
 20 60  1  0
 21 61  1  0
 22 62  1  0
 28 63  1  0
 29 64  1  0
 30 65  1  0
 31 66  1  0
 36 67  1  0
M  CHG  2  24  -1  35  -1
M  END
>  <UniqueID>  (82) 
76

>  <SMILES>  (82) 
CCCCCNC(=O)c1ccc(N(CC)Cc2ccccc2)c([N-]C(=O)c2ccccc2C(=O)[O-])c1

>  <Energy>  (82) 
72.04989161665102

>  <Genealogy>  (82) 
CCCCCNC(=O)c1ccc(N(CC)Cc2ccccc2)c([N-]C(=O)c2ccccc2C(=O)[O-])c1 (protonated)
CCCCCNC(=O)c1ccc(N(CC)Cc2ccccc2)c([N-]C(=O)c2ccccc2C(=O)[O-])c1 (3D coordinates assigned)
CCCCCNC(=O)c1ccc(N(CC)Cc2ccccc2)c([N-]C(=O)c2ccccc2C(=O)[O-])c1 (optimized conformer: 72.04989161665102 kcal/mol)

>  <smiles>  (82) 
CCCCCNC(=O)c1ccc(N(CC)Cc2ccccc2)c(NC(=O)c2ccccc2C(=O)O)c1

>  <score_type>  (82) 
oracle

>  <origin>  (82) 
adg

>  <m_score__min__energy>  (82) 
-13.74

>  <m_primary>  (82) 
energy

$$$$
82:0
     RDKit          3D

 45 47  0  0  1  0  0  0  0  0999 V2000
   58.1210   24.2960   46.1720 C   0  0  0  0  0  0  0  0  0  0  0  0
   56.7950   24.8710   46.2940 N   0  0  0  0  0  0  0  0  0  0  0  0
   55.6750   24.0800   46.8090 C   0  0  0  0  0  0  0  0  0  0  0  0
   56.5810   26.2460   45.9040 C   0  0  0  0  0  0  0  0  0  0  0  0
   55.4210   26.7000   46.0180 O   0  0  0  0  0  0  0  0  0  0  0  0
   57.6490   27.0200   45.4190 N   0  0  0  0  0  0  0  0  0  0  0  0
   57.5980   28.3620   44.9980 C   0  0  0  0  0  0  0  0  0  0  0  0
   58.7070   29.1670   45.2430 C   0  0  0  0  0  0  0  0  0  0  0  0
   58.7260   30.4880   44.8550 C   0  0  0  0  0  0  0  0  0  0  0  0
   57.6680   31.0860   44.2120 C   0  0  0  0  0  0  0  0  0  0  0  0
   57.6720   32.4910   43.7990 C   0  0  0  0  0  0  0  0  0  0  0  0
   57.8920   32.6930   42.5670 O   0  0  0  0  0  0  0  0  0  0  0  0
   57.4480   33.5630   44.7050 N   0  0  0  0  0  0  0  0  0  0  0  0
   58.1430   33.6480   45.7660 C   0  0  0  0  0  0  0  0  0  0  0  0
   59.5270   33.5260   45.8460 C   0  0  0  0  0  0  0  0  0  0  0  0
   59.9370   33.6740   47.1500 C   0  0  0  0  0  0  0  0  0  0  0  0
   61.2610   33.6360   47.7380 C   0  0  0  0  0  0  0  0  0  0  0  0
   61.5000   34.1050   49.0080 C   0  0  0  0  0  0  0  0  0  0  0  0
   62.7320   34.0890   49.5970 C   0  0  0  0  0  0  0  0  0  0  0  0
   63.8400   33.5820   48.9190 C   0  0  0  0  0  0  0  0  0  0  0  0
   63.6090   33.1080   47.6390 C   0  0  0  0  0  0  0  0  0  0  0  0
   62.3560   33.1280   47.0500 C   0  0  0  0  0  0  0  0  0  0  0  0
   58.7930   33.8860   47.8550 N   0  0  0  0  0  0  0  0  0  0  0  0
   57.7490   33.8670   47.0300 N   0  0  0  0  0  0  0  0  0  0  0  0
   56.5620   30.3020   43.9620 C   0  0  0  0  0  0  0  0  0  0  0  0
   56.5470   28.9640   44.3570 C   0  0  0  0  0  0  0  0  0  0  0  0
   58.5362   24.1159   47.1746 H   0  0  0  0  0  0  0  0  0  0  0  0
   58.0589   23.3440   45.6245 H   0  0  0  0  0  0  0  0  0  0  0  0
   58.7735   24.9920   45.6245 H   0  0  0  0  0  0  0  0  0  0  0  0
   55.6925   24.0923   47.9088 H   0  0  0  0  0  0  0  0  0  0  0  0
   54.7276   24.5104   46.4525 H   0  0  0  0  0  0  0  0  0  0  0  0
   55.7638   23.0432   46.4525 H   0  0  0  0  0  0  0  0  0  0  0  0
   58.5890   26.5220   45.3690 H   0  0  0  0  0  0  0  0  0  0  0  0
   59.5824   28.7408   45.7549 H   0  0  0  0  0  0  0  0  0  0  0  0
   59.6228   31.0884   45.0678 H   0  0  0  0  0  0  0  0  0  0  0  0
   60.1945   33.3388   44.9919 H   0  0  0  0  0  0  0  0  0  0  0  0
   60.6544   34.5147   49.5799 H   0  0  0  0  0  0  0  0  0  0  0  0
   62.8517   34.4805   50.6180 H   0  0  0  0  0  0  0  0  0  0  0  0
   64.8407   33.5599   49.3753 H   0  0  0  0  0  0  0  0  0  0  0  0
   64.4548   32.6991   47.0668 H   0  0  0  0  0  0  0  0  0  0  0  0
   62.2265   32.7386   46.0294 H   0  0  0  0  0  0  0  0  0  0  0  0
   58.7620   34.0360   48.8860 H   0  0  0  0  0  0  0  0  0  0  0  0
   56.7790   34.0080   47.3750 H   0  0  0  0  0  0  0  0  0  0  0  0
   55.6889   30.7325   43.4497 H   0  0  0  0  0  0  0  0  0  0  0  0
   55.6497   28.3644   44.1440 H   0  0  0  0  0  0  0  0  0  0  0  0
  1  2  1  0
  2  3  1  0
  2  4  1  0
  4  5  2  0
  4  6  1  0
  6  7  1  0
  7  8  2  0
  8  9  1  0
  9 10  2  0
 10 11  1  0
 11 12  2  0
 11 13  1  0
 13 14  2  0
 14 15  1  0
 15 16  2  0
 16 17  1  0
 17 18  2  0
 18 19  1  0
 19 20  2  0
 20 21  1  0
 21 22  2  0
 16 23  1  0
 23 24  1  0
 10 25  1  0
 25 26  2  0
 26  7  1  0
 24 14  1  0
 22 17  1  0
  1 27  1  0
  1 28  1  0
  1 29  1  0
  3 30  1  0
  3 31  1  0
  3 32  1  0
  6 33  1  0
  8 34  1  0
  9 35  1  0
 15 36  1  0
 18 37  1  0
 19 38  1  0
 20 39  1  0
 21 40  1  0
 22 41  1  0
 23 42  1  0
 24 43  1  0
 25 44  1  0
 26 45  1  0
M  END
>  <smiles>  (83) 
CN(C)C(=O)Nc1ccc(C(=O)N=c2cc(-c3ccccc3)[nH][nH]2)cc1

>  <score_type>  (83) 
oracle

>  <origin>  (83) 
adg

>  <m_score__min__energy>  (83) 
-8.6699999999999999

>  <m_primary>  (83) 
energy

$$$$
83:0
     RDKit          3D

 54 57  0  0  0  0  0  0  0  0999 V2000
   59.2830   33.6620   50.5720 N   0  0  0  0  0  0  0  0  0  0  0  0
   59.4750   32.5870   50.1900 C   0  0  0  0  0  0  0  0  0  0  0  0
   59.7140   31.2420   49.7120 C   0  0  0  0  0  0  0  0  0  0  0  0
   60.7990   30.9370   48.8580 C   0  0  0  0  0  0  0  0  0  0  0  0
   61.8130   31.9420   48.4640 C   0  0  0  0  0  0  0  0  0  0  0  0
   61.9320   32.3250   47.1170 C   0  0  0  0  0  0  0  0  0  0  0  0
   62.9060   33.2500   46.7300 C   0  0  0  0  0  0  0  0  0  0  0  0
   63.7770   33.7900   47.6800 C   0  0  0  0  0  0  0  0  0  0  0  0
   63.6790   33.4000   49.0190 C   0  0  0  0  0  0  0  0  0  0  0  0
   62.7070   32.4760   49.4100 C   0  0  0  0  0  0  0  0  0  0  0  0
   60.9270   29.6700   48.3770 N   0  0  0  0  0  0  0  0  0  0  0  0
   60.0540   28.6900   48.7170 C   0  0  0  0  0  0  0  0  0  0  0  0
   60.2790   27.0300   48.0820 S   0  0  0  0  0  0  0  0  0  0  0  0
   58.5970   26.9120   47.3790 C   0  0  0  0  0  0  0  0  0  0  0  0
   58.5350   27.5780   46.0420 C   0  0  0  0  0  0  0  0  0  0  0  0
   57.5270   28.3880   45.5720 C   0  0  0  0  0  0  0  0  0  0  0  0
   57.8720   28.7110   44.3130 N   0  0  0  0  0  0  0  0  0  0  0  0
   57.1550   29.6080   43.4160 C   0  0  0  0  0  0  0  0  0  0  0  0
   56.9420   30.9300   44.0850 C   0  0  0  0  0  0  0  0  0  0  0  0
   55.9040   31.1160   44.7760 O   0  0  0  0  0  0  0  0  0  0  0  0
   57.9430   31.9550   43.9840 N   0  0  0  0  0  0  0  0  0  0  0  0
   57.7890   33.2660   44.6290 C   0  0  0  0  0  0  0  0  0  0  0  0
   59.1170   34.0590   44.5250 C   0  0  0  0  0  0  0  0  0  0  0  0
   59.3100   35.0160   45.7060 C   0  0  0  0  0  0  0  0  0  0  0  0
   59.3650   34.2540   47.0470 C   0  0  0  0  0  0  0  0  0  0  0  0
   58.4820   32.9880   47.0700 C   0  0  0  0  0  0  0  0  0  0  0  0
   57.3040   33.0990   46.0930 C   0  0  0  0  0  0  0  0  0  0  0  0
   59.0300   28.1380   44.0310 N   0  0  0  0  0  0  0  0  0  0  0  0
   59.4560   27.4300   45.0680 N   0  0  0  0  0  0  0  0  0  0  0  0
   59.0130   28.9620   49.5450 N   0  0  0  0  0  0  0  0  0  0  0  0
   58.8240   30.2100   50.0460 C   0  0  0  0  0  0  0  0  0  0  0  0
   57.8430   30.4270   50.8080 O   0  0  0  0  0  0  0  0  0  0  0  0
   61.2555   31.8949   46.3638 H   0  0  0  0  0  0  0  0  0  0  0  0
   62.9870   33.5534   45.6758 H   0  0  0  0  0  0  0  0  0  0  0  0
   64.5394   34.5216   47.3744 H   0  0  0  0  0  0  0  0  0  0  0  0
   64.3682   33.8213   49.7656 H   0  0  0  0  0  0  0  0  0  0  0  0
   62.6403   32.1644   50.4628 H   0  0  0  0  0  0  0  0  0  0  0  0
   58.3260   25.8518   47.2672 H   0  0  0  0  0  0  0  0  0  0  0  0
   57.8938   27.4162   48.0581 H   0  0  0  0  0  0  0  0  0  0  0  0
   56.6245   28.7060   46.1145 H   0  0  0  0  0  0  0  0  0  0  0  0
   57.7434   29.7538   42.4981 H   0  0  0  0  0  0  0  0  0  0  0  0
   56.1793   29.1667   43.1645 H   0  0  0  0  0  0  0  0  0  0  0  0
   58.8130   31.7450   43.4440 H   0  0  0  0  0  0  0  0  0  0  0  0
   57.0154   33.8484   44.1072 H   0  0  0  0  0  0  0  0  0  0  0  0
   59.9550   33.3467   44.5049 H   0  0  0  0  0  0  0  0  0  0  0  0
   59.0820   34.6596   43.6041 H   0  0  0  0  0  0  0  0  0  0  0  0
   60.2519   35.5675   45.5692 H   0  0  0  0  0  0  0  0  0  0  0  0
   58.4536   35.7058   45.7354 H   0  0  0  0  0  0  0  0  0  0  0  0
   60.4068   33.9558   47.2360 H   0  0  0  0  0  0  0  0  0  0  0  0
   58.9793   34.9327   47.8220 H   0  0  0  0  0  0  0  0  0  0  0  0
   59.0966   32.1197   46.7900 H   0  0  0  0  0  0  0  0  0  0  0  0
   58.0752   32.8724   48.0855 H   0  0  0  0  0  0  0  0  0  0  0  0
   56.6937   32.1867   46.1648 H   0  0  0  0  0  0  0  0  0  0  0  0
   56.7156   33.9881   46.3637 H   0  0  0  0  0  0  0  0  0  0  0  0
  1  2  3  0
  2  3  1  0
  3  4  2  0
  4  5  1  0
  5  6  2  0
  6  7  1  0
  7  8  2  0
  8  9  1  0
  9 10  2  0
  4 11  1  0
 11 12  1  0
 12 13  1  0
 13 14  1  0
 14 15  1  0
 15 16  2  0
 16 17  1  0
 17 18  1  0
 18 19  1  0
 19 20  2  0
 19 21  1  0
 21 22  1  0
 22 23  1  0
 23 24  1  0
 24 25  1  0
 25 26  1  0
 26 27  1  0
 17 28  1  0
 28 29  2  0
 12 30  2  0
 30 31  1  0
 31 32  2  0
 31  3  1  0
 10  5  1  0
 29 15  1  0
 27 22  1  0
  6 33  1  0
  7 34  1  0
  8 35  1  0
  9 36  1  0
 10 37  1  0
 14 38  1  0
 14 39  1  0
 16 40  1  0
 18 41  1  0
 18 42  1  0
 21 43  1  0
 22 44  1  0
 23 45  1  0
 23 46  1  0
 24 47  1  0
 24 48  1  0
 25 49  1  0
 25 50  1  0
 26 51  1  0
 26 52  1  0
 27 53  1  0
 27 54  1  0
M  CHG  1  11  -1
M  END
>  <UniqueID>  (84) 
77

>  <SMILES>  (84) 
N#Cc1c(-c2ccccc2)[n-]c(SCc2cn(CC(=O)NC3CCCCC3)nn2)nc1=O

>  <Energy>  (84) 
92.84943320668117

>  <Genealogy>  (84) 
N#Cc1c(-c2ccccc2)[n-]c(SCc2cn(CC(=O)NC3CCCCC3)nn2)nc1=O (protonated)
N#Cc1c(-c2ccccc2)[n-]c(SCc2cn(CC(=O)NC3CCCCC3)nn2)nc1=O (3D coordinates assigned)
N#Cc1c(-c2ccccc2)[n-]c(SCc2cn(CC(=O)NC3CCCCC3)nn2)nc1=O (nonaromatic ring conformer: 92.84943320668117 kcal/mol)

>  <smiles>  (84) 
N#Cc1c(-c2ccccc2)[nH]c(SCc2cn(CC(=O)NC3CCCCC3)nn2)nc1=O

>  <score_type>  (84) 
oracle

>  <origin>  (84) 
adg

>  <m_score__min__energy>  (84) 
-10.529999999999999

>  <m_primary>  (84) 
energy

$$$$
84:0
     RDKit          3D

 55 57  0  0  0  0  0  0  0  0999 V2000
   60.0760   33.9010   50.1930 C   0  0  0  0  0  0  0  0  0  0  0  0
   59.3700   32.6100   50.3200 N   0  0  0  0  0  0  0  0  0  0  0  0
   60.3250   31.5180   50.6200 C   0  0  0  0  0  0  0  0  0  0  0  0
   60.9640   30.9400   49.3470 C   0  0  0  0  0  0  0  0  0  0  0  0
   62.0540   31.8320   48.8090 C   0  0  0  0  0  0  0  0  0  0  0  0
   63.1240   32.2260   49.6310 C   0  0  0  0  0  0  0  0  0  0  0  0
   64.1240   33.0650   49.1320 C   0  0  0  0  0  0  0  0  0  0  0  0
   64.0670   33.5120   47.8080 C   0  0  0  0  0  0  0  0  0  0  0  0
   63.0170   33.1090   46.9790 C   0  0  0  0  0  0  0  0  0  0  0  0
   62.0140   32.2720   47.4750 C   0  0  0  0  0  0  0  0  0  0  0  0
   58.6130   32.3190   49.0800 C   0  0  0  0  0  0  0  0  0  0  0  0
   58.9920   33.2970   47.9610 C   0  0  0  0  0  0  0  0  0  0  0  0
   58.5480   32.7950   46.6490 N   0  0  0  0  0  0  0  0  0  0  0  0
   57.8530   33.6320   45.8210 C   0  0  0  0  0  0  0  0  0  0  0  0
   57.4220   33.1960   44.5700 C   0  0  0  0  0  0  0  0  0  0  0  0
   57.7110   31.8900   44.1850 C   0  0  0  0  0  0  0  0  0  0  0  0
   57.1710   31.2740   42.5940 S   0  0  0  0  0  0  0  0  0  0  0  0
   56.9610   29.5650   43.1960 C   0  0  0  0  0  0  0  0  0  0  0  0
   55.9710   29.5320   44.3250 C   0  0  0  0  0  0  0  0  0  0  0  0
   55.2090   30.5190   44.5030 O   0  0  0  0  0  0  0  0  0  0  0  0
   55.8940   28.4260   45.2330 N   0  0  0  0  0  0  0  0  0  0  0  0
   56.9920   27.6350   45.7080 C   0  0  0  0  0  0  0  0  0  0  0  0
   56.9650   26.2290   45.6570 C   0  0  0  0  0  0  0  0  0  0  0  0
   58.0390   25.4860   46.1570 C   0  0  0  0  0  0  0  0  0  0  0  0
   59.1370   26.1390   46.7260 C   0  0  0  0  0  0  0  0  0  0  0  0
   59.1560   27.5340   46.8050 C   0  0  0  0  0  0  0  0  0  0  0  0
   58.0830   28.2790   46.3060 C   0  0  0  0  0  0  0  0  0  0  0  0
   58.4140   31.0840   45.0190 N   0  0  0  0  0  0  0  0  0  0  0  0
   58.8390   31.5190   46.2330 C   0  0  0  0  0  0  0  0  0  0  0  0
   59.5000   30.7340   46.9650 O   0  0  0  0  0  0  0  0  0  0  0  0
   60.2941   34.2998   51.1947 H   0  0  0  0  0  0  0  0  0  0  0  0
   61.0179   33.7515   49.6448 H   0  0  0  0  0  0  0  0  0  0  0  0
   59.4419   34.6133   49.6448 H   0  0  0  0  0  0  0  0  0  0  0  0
   61.1213   31.9119   51.2687 H   0  0  0  0  0  0  0  0  0  0  0  0
   59.7684   30.7091   51.1159 H   0  0  0  0  0  0  0  0  0  0  0  0
   61.3940   29.9549   49.5809 H   0  0  0  0  0  0  0  0  0  0  0  0
   60.1804   30.8591   48.5793 H   0  0  0  0  0  0  0  0  0  0  0  0
   63.1744   31.8724   50.6714 H   0  0  0  0  0  0  0  0  0  0  0  0
   64.9566   33.3741   49.7810 H   0  0  0  0  0  0  0  0  0  0  0  0
   64.8489   34.1809   47.4193 H   0  0  0  0  0  0  0  0  0  0  0  0
   62.9798   33.4512   45.9342 H   0  0  0  0  0  0  0  0  0  0  0  0
   61.1898   31.9562   46.8186 H   0  0  0  0  0  0  0  0  0  0  0  0
   58.8392   31.2934   48.7530 H   0  0  0  0  0  0  0  0  0  0  0  0
   57.5391   32.4285   49.2917 H   0  0  0  0  0  0  0  0  0  0  0  0
   58.5140   34.2685   48.1551 H   0  0  0  0  0  0  0  0  0  0  0  0
   60.0867   33.4030   47.9438 H   0  0  0  0  0  0  0  0  0  0  0  0
   57.6320   34.6595   46.1457 H   0  0  0  0  0  0  0  0  0  0  0  0
   56.8655   33.8691   43.9012 H   0  0  0  0  0  0  0  0  0  0  0  0
   56.5959   28.9322   42.3737 H   0  0  0  0  0  0  0  0  0  0  0  0
   57.9300   29.1893   43.5565 H   0  0  0  0  0  0  0  0  0  0  0  0
   56.0963   25.7127   45.2224 H   0  0  0  0  0  0  0  0  0  0  0  0
   58.0202   24.3875   46.1027 H   0  0  0  0  0  0  0  0  0  0  0  0
   59.9855   25.5546   47.1113 H   0  0  0  0  0  0  0  0  0  0  0  0
   60.0161   28.0467   47.2603 H   0  0  0  0  0  0  0  0  0  0  0  0
   58.0956   29.3762   46.3834 H   0  0  0  0  0  0  0  0  0  0  0  0
  1  2  1  0
  2  3  1  0
  3  4  1  0
  4  5  1  0
  5  6  2  0
  6  7  1  0
  7  8  2  0
  8  9  1  0
  9 10  2  0
  2 11  1  0
 11 12  1  0
 12 13  1  0
 13 14  1  0
 14 15  2  0
 15 16  1  0
 16 17  1  0
 17 18  1  0
 18 19  1  0
 19 20  2  0
 19 21  1  0
 21 22  1  0
 22 23  2  0
 23 24  1  0
 24 25  2  0
 25 26  1  0
 26 27  2  0
 16 28  2  0
 28 29  1  0
 29 30  2  0
 10  5  1  0
 29 13  1  0
 27 22  1  0
  1 31  1  0
  1 32  1  0
  1 33  1  0
  3 34  1  0
  3 35  1  0
  4 36  1  0
  4 37  1  0
  6 38  1  0
  7 39  1  0
  8 40  1  0
  9 41  1  0
 10 42  1  0
 11 43  1  0
 11 44  1  0
 12 45  1  0
 12 46  1  0
 14 47  1  0
 15 48  1  0
 18 49  1  0
 18 50  1  0
 23 51  1  0
 24 52  1  0
 25 53  1  0
 26 54  1  0
 27 55  1  0
M  CHG  1  21  -1
M  END
>  <UniqueID>  (85) 
78

>  <SMILES>  (85) 
CN(CCc1ccccc1)CCn1ccc(SCC(=O)[N-]c2ccccc2)nc1=O

>  <Energy>  (85) 
53.87667041746888

>  <Genealogy>  (85) 
CN(CCc1ccccc1)CCn1ccc(SCC(=O)[N-]c2ccccc2)nc1=O (protonated)
CN(CCc1ccccc1)CCn1ccc(SCC(=O)[N-]c2ccccc2)nc1=O (3D coordinates assigned)
CN(CCc1ccccc1)CCn1ccc(SCC(=O)[N-]c2ccccc2)nc1=O (optimized conformer: 53.87667041746888 kcal/mol)

>  <smiles>  (85) 
CN(CCc1ccccc1)CCn1ccc(SCC(=O)Nc2ccccc2)nc1=O

>  <score_type>  (85) 
oracle

>  <origin>  (85) 
adg

>  <m_score__min__energy>  (85) 
-11.23

>  <m_primary>  (85) 
energy

$$$$
85:0
     RDKit          3D

 43 45  0  0  0  0  0  0  0  0999 V2000
   57.3810   30.6610   45.9850 O   0  0  0  0  0  0  0  0  0  0  0  0
   57.6000   31.3150   44.7680 C   0  0  0  0  0  0  0  0  0  0  0  0
   57.1020   30.7960   43.5440 C   0  0  0  0  0  0  0  0  0  0  0  0
   56.3580   29.4840   43.4670 C   0  0  0  0  0  0  0  0  0  0  0  0
   56.8470   28.5710   44.5090 N   0  0  0  0  0  0  0  0  0  0  0  0
   58.0350   27.8230   44.0640 C   0  0  0  0  0  0  0  0  0  0  0  0
   58.7490   27.1980   45.2670 C   0  0  0  0  0  0  0  0  0  0  0  0
   59.2840   28.2490   46.2070 C   0  0  0  0  0  0  0  0  0  0  0  0
   58.7360   28.3840   47.4950 C   0  0  0  0  0  0  0  0  0  0  0  0
   59.2030   29.3790   48.3590 C   0  0  0  0  0  0  0  0  0  0  0  0
   60.2090   30.2530   47.9420 C   0  0  0  0  0  0  0  0  0  0  0  0
   60.7540   30.1330   46.6600 C   0  0  0  0  0  0  0  0  0  0  0  0
   60.2930   29.1370   45.7920 C   0  0  0  0  0  0  0  0  0  0  0  0
   60.8260   29.0430   44.5470 F   0  0  0  0  0  0  0  0  0  0  0  0
   57.3450   31.4990   42.3520 C   0  0  0  0  0  0  0  0  0  0  0  0
   58.0450   32.7040   42.3660 C   0  0  0  0  0  0  0  0  0  0  0  0
   58.5270   33.2190   43.5660 C   0  0  0  0  0  0  0  0  0  0  0  0
   58.3220   32.5300   44.7720 C   0  0  0  0  0  0  0  0  0  0  0  0
   58.8690   33.0930   46.0300 C   0  0  0  0  0  0  0  0  0  0  0  0
   60.1050   33.7610   46.0350 C   0  0  0  0  0  0  0  0  0  0  0  0
   60.6160   34.2770   47.2270 C   0  0  0  0  0  0  0  0  0  0  0  0
   59.8900   34.1180   48.4090 C   0  0  0  0  0  0  0  0  0  0  0  0
   58.7000   33.4620   48.3940 N   0  0  0  0  0  0  0  0  0  0  0  0
   58.1790   32.9520   47.2460 C   0  0  0  0  0  0  0  0  0  0  0  0
   56.5800   30.0740   46.1760 H   0  0  0  0  0  0  0  0  0  0  0  0
   55.2831   29.6648   43.6153 H   0  0  0  0  0  0  0  0  0  0  0  0
   56.5254   29.0297   42.4793 H   0  0  0  0  0  0  0  0  0  0  0  0
   56.0870   27.8850   44.7290 H   0  0  0  0  0  0  0  0  0  0  0  0
   57.7245   27.0264   43.3719 H   0  0  0  0  0  0  0  0  0  0  0  0
   58.7246   28.5139   43.5569 H   0  0  0  0  0  0  0  0  0  0  0  0
   58.0371   26.5612   45.8125 H   0  0  0  0  0  0  0  0  0  0  0  0
   59.5990   26.6087   44.8926 H   0  0  0  0  0  0  0  0  0  0  0  0
   57.9365   27.7039   47.8241 H   0  0  0  0  0  0  0  0  0  0  0  0
   58.7773   29.4735   49.3689 H   0  0  0  0  0  0  0  0  0  0  0  0
   60.5731   31.0366   48.6227 H   0  0  0  0  0  0  0  0  0  0  0  0
   61.5463   30.8226   46.3333 H   0  0  0  0  0  0  0  0  0  0  0  0
   56.9787   31.0938   41.3972 H   0  0  0  0  0  0  0  0  0  0  0  0
   58.2170   33.2495   41.4264 H   0  0  0  0  0  0  0  0  0  0  0  0
   59.0731   34.1739   43.5695 H   0  0  0  0  0  0  0  0  0  0  0  0
   60.6705   33.8775   45.0987 H   0  0  0  0  0  0  0  0  0  0  0  0
   61.5815   34.8039   47.2351 H   0  0  0  0  0  0  0  0  0  0  0  0
   60.2817   34.5241   49.3533 H   0  0  0  0  0  0  0  0  0  0  0  0
   57.2129   32.4266   47.2694 H   0  0  0  0  0  0  0  0  0  0  0  0
  1  2  1  0
  2  3  2  0
  3  4  1  0
  4  5  1  0
  5  6  1  0
  6  7  1  0
  7  8  1  0
  8  9  2  0
  9 10  1  0
 10 11  2  0
 11 12  1  0
 12 13  2  0
 13 14  1  0
  3 15  1  0
 15 16  2  0
 16 17  1  0
 17 18  2  0
 18 19  1  0
 19 20  2  0
 20 21  1  0
 21 22  2  0
 22 23  1  0
 23 24  2  0
 18  2  1  0
 24 19  1  0
 13  8  1  0
  1 25  1  0
  4 26  1  0
  4 27  1  0
  5 28  1  0
  6 29  1  0
  6 30  1  0
  7 31  1  0
  7 32  1  0
  9 33  1  0
 10 34  1  0
 11 35  1  0
 12 36  1  0
 15 37  1  0
 16 38  1  0
 17 39  1  0
 20 40  1  0
 21 41  1  0
 22 42  1  0
 24 43  1  0
M  END
>  <UniqueID>  (86) 
79

>  <SMILES>  (86) 
Oc1c(CNCCc2ccccc2F)cccc1-c1cccnc1

>  <Energy>  (86) 
51.58849734966586

>  <Genealogy>  (86) 
Oc1c(CNCCc2ccccc2F)cccc1-c1cccnc1 (3D coordinates assigned)
Oc1c(CNCCc2ccccc2F)cccc1-c1cccnc1 (optimized conformer: 51.58849734966586 kcal/mol)

>  <smiles>  (86) 
Oc1c(CNCCc2ccccc2F)cccc1-c1cccnc1

>  <score_type>  (86) 
oracle

>  <origin>  (86) 
adg

>  <m_score__min__energy>  (86) 
-8.5800000000000001

>  <m_primary>  (86) 
energy

$$$$
86:0
     RDKit          3D

 51 54  0  0  0  0  0  0  0  0999 V2000
   56.5440   31.5030   44.8100 N   0  0  0  0  0  0  0  0  0  0  0  0
   57.3960   32.1630   45.2320 C   0  0  0  0  0  0  0  0  0  0  0  0
   58.4560   32.9840   45.7610 C   0  0  0  0  0  0  0  0  0  0  0  0
   59.4390   32.4060   46.5750 C   0  0  0  0  0  0  0  0  0  0  0  0
   60.4530   33.2010   47.1270 C   0  0  0  0  0  0  0  0  0  0  0  0
   61.6840   32.4690   48.2090 S   0  0  0  0  0  0  0  0  0  0  0  0
   60.4790   32.1170   49.5040 C   0  0  0  0  0  0  0  0  0  0  0  0
   59.8160   33.2010   50.0950 C   0  0  0  0  0  0  0  0  0  0  0  0
   58.8140   32.9890   51.0420 C   0  0  0  0  0  0  0  0  0  0  0  0
   58.4600   31.6890   51.4040 C   0  0  0  0  0  0  0  0  0  0  0  0
   59.1180   30.5990   50.8300 C   0  0  0  0  0  0  0  0  0  0  0  0
   60.1420   30.7960   49.8880 C   0  0  0  0  0  0  0  0  0  0  0  0
   60.8040   29.6150   49.2990 C   0  0  0  0  0  0  0  0  0  0  0  0
   61.5370   28.8780   50.0130 O   0  0  0  0  0  0  0  0  0  0  0  0
   60.6600   29.3550   47.8950 N   0  0  0  0  0  0  0  0  0  0  0  0
   59.4970   28.8190   47.2530 C   0  0  0  0  0  0  0  0  0  0  0  0
   59.0180   29.3280   46.0330 C   0  0  0  0  0  0  0  0  0  0  0  0
   57.8450   28.8170   45.4730 C   0  0  0  0  0  0  0  0  0  0  0  0
   57.1360   27.7940   46.1230 C   0  0  0  0  0  0  0  0  0  0  0  0
   55.8830   27.3140   45.6180 N   0  0  0  0  0  0  0  0  0  0  0  0
   55.2780   26.0560   45.9540 C   0  0  0  0  0  0  0  0  0  0  0  0
   54.0300   25.9340   45.8540 O   0  0  0  0  0  0  0  0  0  0  0  0
   56.0540   24.9340   46.4000 N   0  0  0  0  0  0  0  0  0  0  0  0
   56.6770   23.9540   45.5570 C   0  0  0  0  0  0  0  0  0  0  0  0
   57.9630   23.4550   45.8360 C   0  0  0  0  0  0  0  0  0  0  0  0
   58.5290   22.4740   45.0150 C   0  0  0  0  0  0  0  0  0  0  0  0
   57.8240   21.9950   43.9080 C   0  0  0  0  0  0  0  0  0  0  0  0
   56.5610   22.5120   43.6060 C   0  0  0  0  0  0  0  0  0  0  0  0
   55.9940   23.4980   44.4220 C   0  0  0  0  0  0  0  0  0  0  0  0
   57.6610   27.2320   47.2920 C   0  0  0  0  0  0  0  0  0  0  0  0
   58.8330   27.7420   47.8550 C   0  0  0  0  0  0  0  0  0  0  0  0
   60.4960   34.5710   46.8430 C   0  0  0  0  0  0  0  0  0  0  0  0
   59.5220   35.1480   46.0240 C   0  0  0  0  0  0  0  0  0  0  0  0
   58.5010   34.3600   45.4830 C   0  0  0  0  0  0  0  0  0  0  0  0
   57.5340   34.9500   44.6760 O   0  0  0  0  0  0  0  0  0  0  0  0
   59.4150   31.3258   46.7814 H   0  0  0  0  0  0  0  0  0  0  0  0
   60.0881   34.2279   49.8096 H   0  0  0  0  0  0  0  0  0  0  0  0
   58.3029   33.8469   51.5034 H   0  0  0  0  0  0  0  0  0  0  0  0
   57.6618   31.5223   52.1423 H   0  0  0  0  0  0  0  0  0  0  0  0
   58.8320   29.5766   51.1180 H   0  0  0  0  0  0  0  0  0  0  0  0
   59.5680   30.1299   45.5188 H   0  0  0  0  0  0  0  0  0  0  0  0
   57.4747   29.2179   44.5179 H   0  0  0  0  0  0  0  0  0  0  0  0
   58.5242   23.8372   46.7014 H   0  0  0  0  0  0  0  0  0  0  0  0
   59.5305   22.0792   45.2413 H   0  0  0  0  0  0  0  0  0  0  0  0
   58.2630   21.2107   43.2739 H   0  0  0  0  0  0  0  0  0  0  0  0
   56.0123   22.1439   42.7266 H   0  0  0  0  0  0  0  0  0  0  0  0
   55.0082   23.9165   44.1710 H   0  0  0  0  0  0  0  0  0  0  0  0
   57.1481   26.3843   47.7699 H   0  0  0  0  0  0  0  0  0  0  0  0
   59.2369   27.2959   48.7758 H   0  0  0  0  0  0  0  0  0  0  0  0
   61.2979   35.1944   47.2653 H   0  0  0  0  0  0  0  0  0  0  0  0
   59.5583   36.2252   45.8041 H   0  0  0  0  0  0  0  0  0  0  0  0
  1  2  3  0
  2  3  1  0
  3  4  2  0
  4  5  1  0
  5  6  1  0
  6  7  1  0
  7  8  2  0
  8  9  1  0
  9 10  2  0
 10 11  1  0
 11 12  2  0
 12 13  1  0
 13 14  2  0
 13 15  1  0
 15 16  1  0
 16 17  2  0
 17 18  1  0
 18 19  2  0
 19 20  1  0
 20 21  1  0
 21 22  2  0
 21 23  1  0
 23 24  1  0
 24 25  2  0
 25 26  1  0
 26 27  2  0
 27 28  1  0
 28 29  2  0
 19 30  1  0
 30 31  2  0
  5 32  2  0
 32 33  1  0
 33 34  2  0
 34 35  1  0
 34  3  1  0
 12  7  1  0
 31 16  1  0
 29 24  1  0
  4 36  1  0
  8 37  1  0
  9 38  1  0
 10 39  1  0
 11 40  1  0
 17 41  1  0
 18 42  1  0
 25 43  1  0
 26 44  1  0
 27 45  1  0
 28 46  1  0
 29 47  1  0
 30 48  1  0
 31 49  1  0
 32 50  1  0
 33 51  1  0
M  CHG  4  15  -1  20  -1  23  -1  35  -1
M  END
>  <UniqueID>  (87) 
80

>  <SMILES>  (87) 
N#Cc1cc(Sc2ccccc2C(=O)[N-]c2ccc([N-]C(=O)[N-]c3ccccc3)cc2)ccc1[O-]

>  <Energy>  (87) 
64.36346382284009

>  <Genealogy>  (87) 
N#Cc1cc(Sc2ccccc2C(=O)[N-]c2ccc([N-]C(=O)[N-]c3ccccc3)cc2)ccc1[O-] (protonated)
N#Cc1cc(Sc2ccccc2C(=O)[N-]c2ccc([N-]C(=O)[N-]c3ccccc3)cc2)ccc1[O-] (3D coordinates assigned)
N#Cc1cc(Sc2ccccc2C(=O)[N-]c2ccc([N-]C(=O)[N-]c3ccccc3)cc2)ccc1[O-] (optimized conformer: 64.36346382284009 kcal/mol)

>  <smiles>  (87) 
N#Cc1cc(Sc2ccccc2C(=O)Nc2ccc(NC(=O)Nc3ccccc3)cc2)ccc1O

>  <score_type>  (87) 
oracle

>  <origin>  (87) 
adg

>  <m_score__min__energy>  (87) 
-14.69

>  <m_primary>  (87) 
energy

$$$$
87:0
     RDKit          3D

 65 68  0  0  0  0  0  0  0  0999 V2000
   57.5240   31.0160   53.6690 C   0  0  0  0  0  0  0  0  0  0  0  0
   58.0660   31.9200   52.6040 C   0  0  0  0  0  0  0  0  0  0  0  0
   58.7260   33.1090   52.9470 C   0  0  0  0  0  0  0  0  0  0  0  0
   59.2770   33.9240   51.9520 C   0  0  0  0  0  0  0  0  0  0  0  0
   59.1830   33.5550   50.6010 C   0  0  0  0  0  0  0  0  0  0  0  0
   59.8160   34.3990   49.5270 C   0  0  0  0  0  0  0  0  0  0  0  0
   60.0580   33.5810   48.3210 N   0  0  0  0  0  0  0  0  0  0  0  0
   61.4040   32.9730   48.3390 C   0  0  0  0  0  0  0  0  0  0  0  0
   61.2850   31.5000   48.6250 C   0  0  0  0  0  0  0  0  0  0  0  0
   61.6510   31.0050   49.8850 C   0  0  0  0  0  0  0  0  0  0  0  0
   61.4940   29.6500   50.1790 C   0  0  0  0  0  0  0  0  0  0  0  0
   60.9730   28.7780   49.2200 C   0  0  0  0  0  0  0  0  0  0  0  0
   60.6120   29.2580   47.9450 C   0  0  0  0  0  0  0  0  0  0  0  0
   60.0850   28.4350   46.9370 O   0  0  0  0  0  0  0  0  0  0  0  0
   60.7400   27.3240   46.3220 C   0  0  0  0  0  0  0  0  0  0  0  0
   60.3920   26.0150   47.0290 C   0  0  0  0  0  0  0  0  0  0  0  0
   58.9610   25.7490   46.9400 N   0  0  0  0  0  0  0  0  0  0  0  0
   58.1820   25.8860   45.7450 C   0  0  0  0  0  0  0  0  0  0  0  0
   58.0330   24.8830   44.9990 O   0  0  0  0  0  0  0  0  0  0  0  0
   57.5370   27.1610   45.3740 C   0  0  0  0  0  0  0  0  0  0  0  0
   58.2670   28.1720   44.7360 C   0  0  0  0  0  0  0  0  0  0  0  0
   57.6570   29.3300   44.3760 N   0  0  0  0  0  0  0  0  0  0  0  0
   56.3380   29.5310   44.6260 C   0  0  0  0  0  0  0  0  0  0  0  0
   55.7910   30.6130   44.2870 O   0  0  0  0  0  0  0  0  0  0  0  0
   55.6060   28.5670   45.2420 N   0  0  0  0  0  0  0  0  0  0  0  0
   56.1700   27.3880   45.6130 C   0  0  0  0  0  0  0  0  0  0  0  0
   55.4640   26.5170   46.1880 O   0  0  0  0  0  0  0  0  0  0  0  0
   60.7670   30.6200   47.6620 C   0  0  0  0  0  0  0  0  0  0  0  0
   59.8390   34.3680   47.0880 C   0  0  0  0  0  0  0  0  0  0  0  0
   59.1820   33.5080   46.0550 C   0  0  0  0  0  0  0  0  0  0  0  0
   58.6910   32.2250   46.2160 C   0  0  0  0  0  0  0  0  0  0  0  0
   58.2350   31.7940   45.0260 N   0  0  0  0  0  0  0  0  0  0  0  0
   58.4170   32.7530   44.1310 N   0  0  0  0  0  0  0  0  0  0  0  0
   58.1490   32.6090   42.7050 C   0  0  0  0  0  0  0  0  0  0  0  0
   59.0080   33.8100   44.7190 C   0  0  0  0  0  0  0  0  0  0  0  0
   58.5270   32.3610   50.2580 C   0  0  0  0  0  0  0  0  0  0  0  0
   57.9750   31.5480   51.2530 C   0  0  0  0  0  0  0  0  0  0  0  0
   57.7704   31.4270   54.6591 H   0  0  0  0  0  0  0  0  0  0  0  0
   56.4315   30.9405   53.5648 H   0  0  0  0  0  0  0  0  0  0  0  0
   57.9721   30.0168   53.5648 H   0  0  0  0  0  0  0  0  0  0  0  0
   58.8109   33.4024   54.0037 H   0  0  0  0  0  0  0  0  0  0  0  0
   59.7864   34.8585   52.2299 H   0  0  0  0  0  0  0  0  0  0  0  0
   59.1433   35.2317   49.2738 H   0  0  0  0  0  0  0  0  0  0  0  0
   60.7746   34.7936   49.8949 H   0  0  0  0  0  0  0  0  0  0  0  0
   61.8854   33.1189   47.3608 H   0  0  0  0  0  0  0  0  0  0  0  0
   62.0118   33.4507   49.1215 H   0  0  0  0  0  0  0  0  0  0  0  0
   62.0630   31.6867   50.6436 H   0  0  0  0  0  0  0  0  0  0  0  0
   61.7815   29.2671   51.1693 H   0  0  0  0  0  0  0  0  0  0  0  0
   60.8440   27.7125   49.4609 H   0  0  0  0  0  0  0  0  0  0  0  0
   60.4238   27.2586   45.2704 H   0  0  0  0  0  0  0  0  0  0  0  0
   61.8268   27.4788   46.3921 H   0  0  0  0  0  0  0  0  0  0  0  0
   60.9434   25.1900   46.5544 H   0  0  0  0  0  0  0  0  0  0  0  0
   60.6721   26.0990   48.0894 H   0  0  0  0  0  0  0  0  0  0  0  0
   59.3371   28.0272   44.5262 H   0  0  0  0  0  0  0  0  0  0  0  0
   60.4793   31.0055   46.6727 H   0  0  0  0  0  0  0  0  0  0  0  0
   59.1924   35.2289   47.3130 H   0  0  0  0  0  0  0  0  0  0  0  0
   60.8065   34.7249   46.7052 H   0  0  0  0  0  0  0  0  0  0  0  0
   58.6759   31.6545   47.1564 H   0  0  0  0  0  0  0  0  0  0  0  0
   57.8320   30.8530   44.8230 H   0  0  0  0  0  0  0  0  0  0  0  0
   57.1881   32.0927   42.5628 H   0  0  0  0  0  0  0  0  0  0  0  0
   58.1032   33.6040   42.2382 H   0  0  0  0  0  0  0  0  0  0  0  0
   58.9534   32.0216   42.2382 H   0  0  0  0  0  0  0  0  0  0  0  0
   59.3003   34.7475   44.2233 H   0  0  0  0  0  0  0  0  0  0  0  0
   58.4472   32.0642   49.2018 H   0  0  0  0  0  0  0  0  0  0  0  0
   57.4670   30.6125   50.9760 H   0  0  0  0  0  0  0  0  0  0  0  0
  1  2  1  0
  2  3  2  0
  3  4  1  0
  4  5  2  0
  5  6  1  0
  6  7  1  0
  7  8  1  0
  8  9  1  0
  9 10  2  0
 10 11  1  0
 11 12  2  0
 12 13  1  0
 13 14  1  0
 14 15  1  0
 15 16  1  0
 16 17  1  0
 17 18  1  0
 18 19  2  0
 18 20  1  0
 20 21  2  0
 21 22  1  0
 22 23  1  0
 23 24  2  0
 23 25  1  0
 25 26  1  0
 26 27  2  0
 13 28  2  0
  7 29  1  0
 29 30  1  0
 30 31  1  0
 31 32  2  0
 32 33  1  0
 33 34  1  0
 33 35  1  0
  5 36  1  0
 36 37  2  0
 37  2  1  0
 28  9  1  0
 35 30  2  0
 26 20  1  0
  1 38  1  0
  1 39  1  0
  1 40  1  0
  3 41  1  0
  4 42  1  0
  6 43  1  0
  6 44  1  0
  8 45  1  0
  8 46  1  0
 10 47  1  0
 11 48  1  0
 12 49  1  0
 15 50  1  0
 15 51  1  0
 16 52  1  0
 16 53  1  0
 21 54  1  0
 28 55  1  0
 29 56  1  0
 29 57  1  0
 31 58  1  0
 32 59  1  0
 34 60  1  0
 34 61  1  0
 34 62  1  0
 35 63  1  0
 36 64  1  0
 37 65  1  0
M  CHG  4  17  -1  22  -1  25  -1  32   1
M  END
>  <UniqueID>  (88) 
81

>  <SMILES>  (88) 
Cc1ccc(CN(Cc2cccc(OCC[N-]C(=O)c3c[n-]c(=O)[n-]c3=O)c2)Cc2c[nH+]n(C)c2)cc1

>  <Energy>  (88) 
102.27694676068877

>  <Genealogy>  (88) 
Cc1ccc(CN(Cc2cccc(OCC[N-]C(=O)c3c[n-]c(=O)[n-]c3=O)c2)Cc2c[nH+]n(C)c2)cc1 (protonated)
Cc1ccc(CN(Cc2cccc(OCC[N-]C(=O)c3c[n-]c(=O)[n-]c3=O)c2)Cc2c[nH+]n(C)c2)cc1 (3D coordinates assigned)
Cc1ccc(CN(Cc2cccc(OCC[N-]C(=O)c3c[n-]c(=O)[n-]c3=O)c2)Cc2c[nH+]n(C)c2)cc1 (optimized conformer: 102.27694676068877 kcal/mol)

>  <smiles>  (88) 
Cc1ccc(CN(Cc2cccc(OCCNC(=O)c3c[nH]c(=O)[nH]c3=O)c2)Cc2cnn(C)c2)cc1

>  <score_type>  (88) 
oracle

>  <origin>  (88) 
adg

>  <m_score__min__energy>  (88) 
-15.6

>  <m_primary>  (88) 
energy

$$$$
88:0
     RDKit          3D

 50 53  0  0  0  0  0  0  0  0999 V2000
   57.3970   30.0770   51.5720 O   0  0  0  0  0  0  0  0  0  0  0  0
   58.1630   30.7190   50.8040 C   0  0  0  0  0  0  0  0  0  0  0  0
   58.8610   31.9450   51.3000 C   0  0  0  0  0  0  0  0  0  0  0  0
   60.2360   32.1160   50.6450 C   0  0  0  0  0  0  0  0  0  0  0  0
   60.1300   32.7540   49.2710 C   0  0  0  0  0  0  0  0  0  0  0  0
   58.8940   32.8190   48.6940 N   0  0  0  0  0  0  0  0  0  0  0  0
   58.7150   33.3340   47.4480 C   0  0  0  0  0  0  0  0  0  0  0  0
   57.4330   33.3800   46.8750 C   0  0  0  0  0  0  0  0  0  0  0  0
   57.2540   33.9080   45.5960 C   0  0  0  0  0  0  0  0  0  0  0  0
   58.3490   34.3950   44.8790 C   0  0  0  0  0  0  0  0  0  0  0  0
   59.6290   34.3550   45.4380 C   0  0  0  0  0  0  0  0  0  0  0  0
   59.8210   33.8190   46.7270 C   0  0  0  0  0  0  0  0  0  0  0  0
   61.0870   33.7550   47.3270 C   0  0  0  0  0  0  0  0  0  0  0  0
   62.0960   34.1980   46.7050 O   0  0  0  0  0  0  0  0  0  0  0  0
   61.2310   33.2230   48.5860 N   0  0  0  0  0  0  0  0  0  0  0  0
   62.5480   33.2010   49.1730 C   0  0  0  0  0  0  0  0  0  0  0  0
   63.4890   32.2440   48.7600 C   0  0  0  0  0  0  0  0  0  0  0  0
   64.7420   32.1760   49.3770 C   0  0  0  0  0  0  0  0  0  0  0  0
   65.0570   33.0490   50.4220 C   0  0  0  0  0  0  0  0  0  0  0  0
   64.1180   33.9940   50.8520 C   0  0  0  0  0  0  0  0  0  0  0  0
   64.5000   35.0620   52.1900 Cl  0  0  0  0  0  0  0  0  0  0  0  0
   62.8670   34.0730   50.2270 C   0  0  0  0  0  0  0  0  0  0  0  0
   58.3510   30.3020   49.4480 N   0  0  0  0  0  0  0  0  0  0  0  0
   59.3190   29.2920   49.0320 C   0  0  0  0  0  0  0  0  0  0  0  0
   59.3920   29.2080   47.5280 C   0  0  0  0  0  0  0  0  0  0  0  0
   58.8450   30.2450   46.7500 C   0  0  0  0  0  0  0  0  0  0  0  0
   58.8930   30.1840   45.3550 C   0  0  0  0  0  0  0  0  0  0  0  0
   59.4790   29.0860   44.7220 C   0  0  0  0  0  0  0  0  0  0  0  0
   60.0220   28.0470   45.4820 C   0  0  0  0  0  0  0  0  0  0  0  0
   59.9880   28.1020   46.8800 C   0  0  0  0  0  0  0  0  0  0  0  0
   60.7050   26.7760   47.7880 Cl  0  0  0  0  0  0  0  0  0  0  0  0
   58.2435   32.8254   51.0686 H   0  0  0  0  0  0  0  0  0  0  0  0
   59.0076   31.8418   52.3853 H   0  0  0  0  0  0  0  0  0  0  0  0
   60.8595   32.7552   51.2874 H   0  0  0  0  0  0  0  0  0  0  0  0
   60.6845   31.1187   50.5255 H   0  0  0  0  0  0  0  0  0  0  0  0
   58.0670   32.4600   49.2230 H   0  0  0  0  0  0  0  0  0  0  0  0
   56.5675   32.9985   47.4366 H   0  0  0  0  0  0  0  0  0  0  0  0
   56.2483   33.9407   45.1515 H   0  0  0  0  0  0  0  0  0  0  0  0
   58.2034   34.8113   43.8713 H   0  0  0  0  0  0  0  0  0  0  0  0
   60.4882   34.7426   44.8709 H   0  0  0  0  0  0  0  0  0  0  0  0
   63.2395   31.5452   47.9480 H   0  0  0  0  0  0  0  0  0  0  0  0
   65.4809   31.4343   49.0394 H   0  0  0  0  0  0  0  0  0  0  0  0
   66.0429   32.9935   50.9066 H   0  0  0  0  0  0  0  0  0  0  0  0
   62.1324   34.8199   50.5624 H   0  0  0  0  0  0  0  0  0  0  0  0
   60.3105   29.5584   49.4269 H   0  0  0  0  0  0  0  0  0  0  0  0
   59.0004   28.3152   49.4248 H   0  0  0  0  0  0  0  0  0  0  0  0
   58.3765   31.1094   47.2433 H   0  0  0  0  0  0  0  0  0  0  0  0
   58.4686   31.0021   44.7545 H   0  0  0  0  0  0  0  0  0  0  0  0
   59.5132   29.0390   43.6235 H   0  0  0  0  0  0  0  0  0  0  0  0
   60.4784   27.1816   44.9792 H   0  0  0  0  0  0  0  0  0  0  0  0
  1  2  2  0
  2  3  1  0
  3  4  1  0
  4  5  1  0
  5  6  2  0
  6  7  1  0
  7  8  2  0
  8  9  1  0
  9 10  2  0
 10 11  1  0
 11 12  2  0
 12 13  1  0
 13 14  2  0
 13 15  1  0
 15 16  1  0
 16 17  2  0
 17 18  1  0
 18 19  2  0
 19 20  1  0
 20 21  1  0
 20 22  2  0
  2 23  1  0
 23 24  1  0
 24 25  1  0
 25 26  2  0
 26 27  1  0
 27 28  2  0
 28 29  1  0
 29 30  2  0
 30 31  1  0
 15  5  1  0
 22 16  1  0
 30 25  1  0
 12  7  1  0
  3 32  1  0
  3 33  1  0
  4 34  1  0
  4 35  1  0
  6 36  1  0
  8 37  1  0
  9 38  1  0
 10 39  1  0
 11 40  1  0
 17 41  1  0
 18 42  1  0
 19 43  1  0
 22 44  1  0
 24 45  1  0
 24 46  1  0
 26 47  1  0
 27 48  1  0
 28 49  1  0
 29 50  1  0
M  CHG  2   6   1  23  -1
M  END
>  <UniqueID>  (89) 
82

>  <SMILES>  (89) 
O=C(CCc1[nH+]c2ccccc2c(=O)n1-c1cccc(Cl)c1)[N-]Cc1ccccc1Cl

>  <Energy>  (89) 
63.55965149362136

>  <Genealogy>  (89) 
O=C(CCc1[nH+]c2ccccc2c(=O)n1-c1cccc(Cl)c1)[N-]Cc1ccccc1Cl (protonated)
O=C(CCc1[nH+]c2ccccc2c(=O)n1-c1cccc(Cl)c1)[N-]Cc1ccccc1Cl (3D coordinates assigned)
O=C(CCc1[nH+]c2ccccc2c(=O)n1-c1cccc(Cl)c1)[N-]Cc1ccccc1Cl (optimized conformer: 63.55965149362136 kcal/mol)

>  <smiles>  (89) 
O=C(CCc1nc2ccccc2c(=O)n1-c1cccc(Cl)c1)NCc1ccccc1Cl

>  <score_type>  (89) 
oracle

>  <origin>  (89) 
adg

>  <m_score__min__energy>  (89) 
-9.3599999999999994

>  <m_primary>  (89) 
energy

$$$$
89:0
     RDKit          3D

 24 25  0  0  0  0  0  0  0  0999 V2000
   54.8200   29.3470   44.1150 O   0  0  0  0  0  0  0  0  0  0  0  0
   55.8880   29.7610   43.5900 C   0  0  0  0  0  0  0  0  0  0  0  0
   57.0900   30.0110   44.4060 C   0  0  0  0  0  0  0  0  0  0  0  0
   57.9240   28.9470   44.7590 C   0  0  0  0  0  0  0  0  0  0  0  0
   59.0610   29.1760   45.5320 C   0  0  0  0  0  0  0  0  0  0  0  0
   60.1840   27.6990   46.0110 Br  0  0  0  0  0  0  0  0  0  0  0  0
   59.3610   30.4790   45.9510 C   0  0  0  0  0  0  0  0  0  0  0  0
   60.3780   30.6780   46.6700 O   0  0  0  0  0  0  0  0  0  0  0  0
   58.5450   31.5240   45.5940 N   0  0  0  0  0  0  0  0  0  0  0  0
   58.8490   32.8720   46.0070 C   0  0  0  0  0  0  0  0  0  0  0  0
   58.9700   33.1870   47.3680 C   0  0  0  0  0  0  0  0  0  0  0  0
   59.2570   34.5000   47.7500 C   0  0  0  0  0  0  0  0  0  0  0  0
   59.4120   35.4690   46.8060 N   0  0  0  0  0  0  0  0  0  0  0  0
   59.2930   35.1910   45.4800 C   0  0  0  0  0  0  0  0  0  0  0  0
   59.0080   33.8900   45.0560 C   0  0  0  0  0  0  0  0  0  0  0  0
   57.4240   31.3030   44.8400 C   0  0  0  0  0  0  0  0  0  0  0  0
   55.9240   29.9388   42.5051 H   0  0  0  0  0  0  0  0  0  0  0  0
   57.6828   27.9267   44.4262 H   0  0  0  0  0  0  0  0  0  0  0  0
   58.8397   32.4050   48.1305 H   0  0  0  0  0  0  0  0  0  0  0  0
   59.3580   34.7515   48.8161 H   0  0  0  0  0  0  0  0  0  0  0  0
   59.6260   36.4450   47.1070 H   0  0  0  0  0  0  0  0  0  0  0  0
   59.4215   35.9931   44.7384 H   0  0  0  0  0  0  0  0  0  0  0  0
   58.9091   33.6663   43.9835 H   0  0  0  0  0  0  0  0  0  0  0  0
   56.7760   32.1500   44.5706 H   0  0  0  0  0  0  0  0  0  0  0  0
  1  2  2  0
  2  3  1  0
  3  4  1  0
  4  5  2  0
  5  6  1  0
  5  7  1  0
  7  8  2  0
  7  9  1  0
  9 10  1  0
 10 11  2  0
 11 12  1  0
 12 13  2  0
 13 14  1  0
 14 15  2  0
  9 16  1  0
 16  3  2  0
 15 10  1  0
  2 17  1  0
  4 18  1  0
 11 19  1  0
 12 20  1  0
 13 21  1  0
 14 22  1  0
 15 23  1  0
 16 24  1  0
M  CHG  1  13   1
M  END
>  <UniqueID>  (90) 
83

>  <SMILES>  (90) 
O=Cc1cc(Br)c(=O)n(-c2cc[nH+]cc2)c1

>  <Energy>  (90) 
33.95854544104116

>  <Genealogy>  (90) 
O=Cc1cc(Br)c(=O)n(-c2cc[nH+]cc2)c1 (protonated)
O=Cc1cc(Br)c(=O)n(-c2cc[nH+]cc2)c1 (3D coordinates assigned)
O=Cc1cc(Br)c(=O)n(-c2cc[nH+]cc2)c1 (optimized conformer: 33.95854544104116 kcal/mol)

>  <smiles>  (90) 
O=Cc1cc(Br)c(=O)n(-c2ccncc2)c1

>  <score_type>  (90) 
oracle

>  <origin>  (90) 
adg

>  <m_score__min__energy>  (90) 
-4.7800000000000002

>  <m_primary>  (90) 
energy

$$$$
90:0
     RDKit          3D

 68 71  0  0  0  0  0  0  0  0999 V2000
   57.8672   21.5070   46.8747 H   0  0  0  0  0  0  0  0  0  0  0  0
   57.9420   21.5470   45.7780 C   0  0  0  0  0  0  0  0  0  0  0  0
   56.9090   21.0580   45.0650 C   0  0  0  0  0  0  0  0  0  0  0  0
   56.1201   20.5216   45.6127 H   0  0  0  0  0  0  0  0  0  0  0  0
   56.7550   21.1920   43.5720 C   0  0  0  0  0  0  0  0  0  0  0  0
   57.6021   20.6950   43.0765 H   0  0  0  0  0  0  0  0  0  0  0  0
   55.8060   20.7229   43.2731 H   0  0  0  0  0  0  0  0  0  0  0  0
   56.7250   22.6610   43.1570 C   0  0  0  0  0  0  0  0  0  0  0  0
   57.7505   23.0094   42.9647 H   0  0  0  0  0  0  0  0  0  0  0  0
   56.1240   22.7731   42.2425 H   0  0  0  0  0  0  0  0  0  0  0  0
   56.1490   23.4340   44.2030 O   0  0  0  0  0  0  0  0  0  0  0  0
   56.5190   24.7560   44.4600 C   0  0  0  0  0  0  0  0  0  0  0  0
   57.4610   25.2980   43.8210 O   0  0  0  0  0  0  0  0  0  0  0  0
   55.7740   25.5370   45.4960 C   0  0  0  0  0  0  0  0  0  0  0  0
   55.0526   26.2007   44.9969 H   0  0  0  0  0  0  0  0  0  0  0  0
   55.2523   24.8318   46.1597 H   0  0  0  0  0  0  0  0  0  0  0  0
   56.6680   26.3250   46.2810 O   0  0  0  0  0  0  0  0  0  0  0  0
   57.5040   27.3430   45.7890 C   0  0  0  0  0  0  0  0  0  0  0  0
   58.9080   27.2640   45.8530 C   0  0  0  0  0  0  0  0  0  0  0  0
   59.3865   26.3932   46.3250 H   0  0  0  0  0  0  0  0  0  0  0  0
   59.6960   28.2860   45.3200 C   0  0  0  0  0  0  0  0  0  0  0  0
   60.7927   28.2094   45.3583 H   0  0  0  0  0  0  0  0  0  0  0  0
   59.0970   29.4040   44.7390 C   0  0  0  0  0  0  0  0  0  0  0  0
   59.7242   30.1992   44.3097 H   0  0  0  0  0  0  0  0  0  0  0  0
   57.7000   29.5200   44.6990 C   0  0  0  0  0  0  0  0  0  0  0  0
   57.0860   30.7370   44.1260 C   0  0  0  0  0  0  0  0  0  0  0  0
   56.7660   30.7550   42.9080 O   0  0  0  0  0  0  0  0  0  0  0  0
   56.8130   31.8920   44.9310 N   0  0  0  0  0  0  0  0  0  0  0  0
   57.8070   32.7900   45.4500 C   0  0  0  0  0  0  0  0  0  0  0  0
   58.0310   34.0500   44.8700 C   0  0  0  0  0  0  0  0  0  0  0  0
   57.4357   34.3679   44.0013 H   0  0  0  0  0  0  0  0  0  0  0  0
   59.0080   34.9000   45.3940 C   0  0  0  0  0  0  0  0  0  0  0  0
   59.1893   35.8796   44.9276 H   0  0  0  0  0  0  0  0  0  0  0  0
   59.7550   34.5110   46.5070 C   0  0  0  0  0  0  0  0  0  0  0  0
   60.5290   35.1817   46.9084 H   0  0  0  0  0  0  0  0  0  0  0  0
   59.5230   33.2670   47.1170 C   0  0  0  0  0  0  0  0  0  0  0  0
   60.3500   32.8440   48.3060 C   0  0  0  0  0  0  0  0  0  0  0  0
   61.2216   32.2740   47.9518 H   0  0  0  0  0  0  0  0  0  0  0  0
   60.6693   33.7475   48.8460 H   0  0  0  0  0  0  0  0  0  0  0  0
   59.5510   31.9830   49.2500 C   0  0  0  0  0  0  0  0  0  0  0  0
   59.3470   30.6810   48.9130 N   0  0  0  0  0  0  0  0  0  0  0  0
   58.6970   29.8350   49.7110 N   0  0  0  0  0  0  0  0  0  0  0  0
   58.1980   30.2290   50.9070 C   0  0  0  0  0  0  0  0  0  0  0  0
   57.6030   29.3910   51.6350 O   0  0  0  0  0  0  0  0  0  0  0  0
   58.3540   31.5610   51.3190 C   0  0  0  0  0  0  0  0  0  0  0  0
   59.0660   32.4510   50.4900 C   0  0  0  0  0  0  0  0  0  0  0  0
   59.2610   33.8130   50.9150 N   0  0  0  0  0  0  0  0  0  0  0  0
   59.6000   34.5440   50.2520 H   0  0  0  0  0  0  0  0  0  0  0  0
   58.9470   34.2280   52.2780 C   0  0  0  0  0  0  0  0  0  0  0  0
   59.7794   33.9557   52.9435 H   0  0  0  0  0  0  0  0  0  0  0  0
   58.7957   35.3173   52.3000 H   0  0  0  0  0  0  0  0  0  0  0  0
   57.6730   33.5330   52.7500 C   0  0  0  0  0  0  0  0  0  0  0  0
   57.4653   33.8223   53.7908 H   0  0  0  0  0  0  0  0  0  0  0  0
   56.8372   33.8364   52.1024 H   0  0  0  0  0  0  0  0  0  0  0  0
   57.8410   32.0100   52.6710 C   0  0  0  0  0  0  0  0  0  0  0  0
   58.5553   31.6917   53.4446 H   0  0  0  0  0  0  0  0  0  0  0  0
   56.8528   31.5525   52.8264 H   0  0  0  0  0  0  0  0  0  0  0  0
   58.5420   32.4120   46.5800 C   0  0  0  0  0  0  0  0  0  0  0  0
   58.3511   31.4374   47.0529 H   0  0  0  0  0  0  0  0  0  0  0  0
   56.9070   28.4730   45.2120 C   0  0  0  0  0  0  0  0  0  0  0  0
   55.5190   28.5390   45.1320 O   0  0  0  0  0  0  0  0  0  0  0  0
   59.1930   22.1450   45.1860 C   0  0  0  0  0  0  0  0  0  0  0  0
   59.1296   22.0973   44.0889 H   0  0  0  0  0  0  0  0  0  0  0  0
   60.0594   21.5722   45.5484 H   0  0  0  0  0  0  0  0  0  0  0  0
   59.3610   23.5980   45.6120 C   0  0  0  0  0  0  0  0  0  0  0  0
   59.3681   23.6596   46.7102 H   0  0  0  0  0  0  0  0  0  0  0  0
   60.3103   23.9886   45.2167 H   0  0  0  0  0  0  0  0  0  0  0  0
   58.5259   24.1949   45.2167 H   0  0  0  0  0  0  0  0  0  0  0  0
  1  2  1  0
  2  3  2  0
  3  4  1  0
  3  5  1  0
  5  6  1  0
  5  7  1  0
  5  8  1  0
  8  9  1  0
  8 10  1  0
  8 11  1  0
 11 12  1  0
 12 13  2  0
 12 14  1  0
 14 15  1  0
 14 16  1  0
 14 17  1  0
 17 18  1  0
 18 19  2  0
 19 20  1  0
 19 21  1  0
 21 22  1  0
 21 23  2  0
 23 24  1  0
 23 25  1  0
 25 26  1  0
 26 27  2  0
 26 28  1  0
 28 29  1  0
 29 30  2  0
 30 31  1  0
 30 32  1  0
 32 33  1  0
 32 34  2  0
 34 35  1  0
 34 36  1  0
 36 37  1  0
 37 38  1  0
 37 39  1  0
 37 40  1  0
 40 41  2  0
 41 42  1  0
 42 43  1  0
 43 44  2  0
 43 45  1  0
 45 46  2  0
 46 47  1  0
 47 48  1  0
 47 49  1  0
 49 50  1  0
 49 51  1  0
 49 52  1  0
 52 53  1  0
 52 54  1  0
 52 55  1  0
 55 56  1  0
 55 57  1  0
 36 58  2  0
 58 59  1  0
 25 60  2  0
 60 61  1  0
  2 62  1  0
 62 63  1  0
 62 64  1  0
 62 65  1  0
 65 66  1  0
 65 67  1  0
 65 68  1  0
 60 18  1  0
 58 29  1  0
 46 40  1  0
 55 45  1  0
M  CHG  3  28  -1  42  -1  61  -1
M  END
>  <UniqueID>  (91) 
84

>  <SMILES>  (91) 
CC/C=C\CCOC(=O)COc1cccc(C(=O)[N-]c2cccc(Cc3n[n-]c(=O)c4c3NCCC4)c2)c1[O-]

>  <Energy>  (91) 
72.28078973506986

>  <Genealogy>  (91) 
CCC=CCCOC(=O)COc1cccc(C(=O)[N-]c2cccc(Cc3n[n-]c(=O)c4c3NCCC4)c2)c1[O-] (protonated)
CC/C=C\CCOC(=O)COc1cccc(C(=O)[N-]c2cccc(Cc3n[n-]c(=O)c4c3NCCC4)c2)c1[O-] (cis-trans isomerization)
CC/C=C\CCOC(=O)COc1cccc(C(=O)[N-]c2cccc(Cc3n[n-]c(=O)c4c3NCCC4)c2)c1[O-] (3D coordinates assigned)
CC/C=C\CCOC(=O)COc1cccc(C(=O)[N-]c2cccc(Cc3n[n-]c(=O)c4c3NCCC4)c2)c1[O-] (nonaromatic ring conformer: 72.28078973506986 kcal/mol)

>  <smiles>  (91) 
CCC=CCCOC(=O)COc1cccc(C(=O)Nc2cccc(Cc3n[nH]c(=O)c4c3NCCC4)c2)c1O

>  <score_type>  (91) 
oracle

>  <origin>  (91) 
adg

>  <m_score__min__energy>  (91) 
-16.109999999999999

>  <m_primary>  (91) 
energy

$$$$
91:0
     RDKit          3D

 61 64  0  0  0  0  0  0  0  0999 V2000
   58.8990   26.5940   47.2560 C   0  0  0  0  0  0  0  0  0  0  0  0
   58.7510   27.9530   46.7400 N   0  0  0  0  0  0  0  0  0  0  0  0
   58.1050   28.3010   45.6090 C   0  0  0  0  0  0  0  0  0  0  0  0
   58.0420   29.6810   45.5200 C   0  0  0  0  0  0  0  0  0  0  0  0
   57.3420   30.4560   44.4790 C   0  0  0  0  0  0  0  0  0  0  0  0
   56.0830   30.4810   44.4590 O   0  0  0  0  0  0  0  0  0  0  0  0
   58.1130   31.2200   43.4400 C   0  0  0  0  0  0  0  0  0  0  0  0
   57.7510   32.7110   43.4510 C   0  0  0  0  0  0  0  0  0  0  0  0
   58.1970   33.3500   44.7410 C   0  0  0  0  0  0  0  0  0  0  0  0
   57.4360   33.1860   45.9120 C   0  0  0  0  0  0  0  0  0  0  0  0
   57.8220   33.8240   47.0970 C   0  0  0  0  0  0  0  0  0  0  0  0
   58.9570   34.6400   47.1180 C   0  0  0  0  0  0  0  0  0  0  0  0
   59.7140   34.8160   45.9560 C   0  0  0  0  0  0  0  0  0  0  0  0
   59.3350   34.1760   44.7700 C   0  0  0  0  0  0  0  0  0  0  0  0
   58.6800   30.1900   46.6390 C   0  0  0  0  0  0  0  0  0  0  0  0
   59.0910   29.0960   47.3700 C   0  0  0  0  0  0  0  0  0  0  0  0
   59.7240   29.1620   48.6940 C   0  0  0  0  0  0  0  0  0  0  0  0
   60.0660   28.0850   49.2530 O   0  0  0  0  0  0  0  0  0  0  0  0
   59.9330   30.4260   49.3600 N   0  0  0  0  0  0  0  0  0  0  0  0
   59.8530   31.6950   48.6150 C   0  0  0  0  0  0  0  0  0  0  0  0
   61.2270   32.2530   48.3280 C   0  0  0  0  0  0  0  0  0  0  0  0
   61.6230   33.4970   48.8490 C   0  0  0  0  0  0  0  0  0  0  0  0
   62.8920   34.0120   48.5610 C   0  0  0  0  0  0  0  0  0  0  0  0
   63.7650   33.3060   47.7340 C   0  0  0  0  0  0  0  0  0  0  0  0
   63.3660   32.0850   47.1810 C   0  0  0  0  0  0  0  0  0  0  0  0
   62.1020   31.5590   47.4750 C   0  0  0  0  0  0  0  0  0  0  0  0
   60.1590   30.4490   50.8110 C   0  0  0  0  0  0  0  0  0  0  0  0
   59.4580   31.6330   51.4200 C   0  0  0  0  0  0  0  0  0  0  0  0
   60.1930   32.7440   51.8650 C   0  0  0  0  0  0  0  0  0  0  0  0
   59.5360   33.8290   52.4560 C   0  0  0  0  0  0  0  0  0  0  0  0
   58.1460   33.8080   52.6180 C   0  0  0  0  0  0  0  0  0  0  0  0
   57.4100   32.7000   52.1930 C   0  0  0  0  0  0  0  0  0  0  0  0
   58.0620   31.6130   51.5980 C   0  0  0  0  0  0  0  0  0  0  0  0
   58.8965   26.6171   48.3558 H   0  0  0  0  0  0  0  0  0  0  0  0
   58.0631   25.9737   46.9003 H   0  0  0  0  0  0  0  0  0  0  0  0
   59.8488   26.1682   46.9003 H   0  0  0  0  0  0  0  0  0  0  0  0
   57.6920   27.5974   44.8712 H   0  0  0  0  0  0  0  0  0  0  0  0
   59.1888   31.1123   43.6428 H   0  0  0  0  0  0  0  0  0  0  0  0
   57.8568   30.8110   42.4515 H   0  0  0  0  0  0  0  0  0  0  0  0
   58.2492   33.2112   42.6074 H   0  0  0  0  0  0  0  0  0  0  0  0
   56.6596   32.8141   43.3602 H   0  0  0  0  0  0  0  0  0  0  0  0
   56.5352   32.5549   45.8970 H   0  0  0  0  0  0  0  0  0  0  0  0
   57.2307   33.6829   48.0138 H   0  0  0  0  0  0  0  0  0  0  0  0
   59.2546   35.1439   48.0494 H   0  0  0  0  0  0  0  0  0  0  0  0
   60.6075   35.4574   45.9736 H   0  0  0  0  0  0  0  0  0  0  0  0
   59.9302   34.3199   43.8562 H   0  0  0  0  0  0  0  0  0  0  0  0
   58.8283   31.2501   46.8925 H   0  0  0  0  0  0  0  0  0  0  0  0
   59.3322   31.5185   47.6623 H   0  0  0  0  0  0  0  0  0  0  0  0
   59.3049   32.4237   49.2302 H   0  0  0  0  0  0  0  0  0  0  0  0
   60.9321   34.0685   49.4862 H   0  0  0  0  0  0  0  0  0  0  0  0
   63.2018   34.9770   48.9885 H   0  0  0  0  0  0  0  0  0  0  0  0
   64.7654   33.7086   47.5170 H   0  0  0  0  0  0  0  0  0  0  0  0
   64.0468   31.5365   46.5134 H   0  0  0  0  0  0  0  0  0  0  0  0
   61.7927   30.5987   47.0365 H   0  0  0  0  0  0  0  0  0  0  0  0
   59.7652   29.5234   51.2561 H   0  0  0  0  0  0  0  0  0  0  0  0
   61.2384   30.5266   51.0081 H   0  0  0  0  0  0  0  0  0  0  0  0
   61.2867   32.7613   51.7488 H   0  0  0  0  0  0  0  0  0  0  0  0
   60.1141   34.7015   52.7945 H   0  0  0  0  0  0  0  0  0  0  0  0
   57.6332   34.6644   53.0802 H   0  0  0  0  0  0  0  0  0  0  0  0
   56.3182   32.6811   52.3256 H   0  0  0  0  0  0  0  0  0  0  0  0
   57.4805   30.7395   51.2682 H   0  0  0  0  0  0  0  0  0  0  0  0
  1  2  1  0
  2  3  1  0
  3  4  2  0
  4  5  1  0
  5  6  2  0
  5  7  1  0
  7  8  1  0
  8  9  1  0
  9 10  2  0
 10 11  1  0
 11 12  2  0
 12 13  1  0
 13 14  2  0
  4 15  1  0
 15 16  2  0
 16 17  1  0
 17 18  2  0
 17 19  1  0
 19 20  1  0
 20 21  1  0
 21 22  2  0
 22 23  1  0
 23 24  2  0
 24 25  1  0
 25 26  2  0
 19 27  1  0
 27 28  1  0
 28 29  2  0
 29 30  1  0
 30 31  2  0
 31 32  1  0
 32 33  2  0
 16  2  1  0
 26 21  1  0
 33 28  1  0
 14  9  1  0
  1 34  1  0
  1 35  1  0
  1 36  1  0
  3 37  1  0
  7 38  1  0
  7 39  1  0
  8 40  1  0
  8 41  1  0
 10 42  1  0
 11 43  1  0
 12 44  1  0
 13 45  1  0
 14 46  1  0
 15 47  1  0
 20 48  1  0
 20 49  1  0
 22 50  1  0
 23 51  1  0
 24 52  1  0
 25 53  1  0
 26 54  1  0
 27 55  1  0
 27 56  1  0
 29 57  1  0
 30 58  1  0
 31 59  1  0
 32 60  1  0
 33 61  1  0
M  END
>  <UniqueID>  (92) 
85

>  <SMILES>  (92) 
Cn1cc(C(=O)CCc2ccccc2)cc1C(=O)N(Cc1ccccc1)Cc1ccccc1

>  <Energy>  (92) 
86.82773254807894

>  <Genealogy>  (92) 
Cn1cc(C(=O)CCc2ccccc2)cc1C(=O)N(Cc1ccccc1)Cc1ccccc1 (3D coordinates assigned)
Cn1cc(C(=O)CCc2ccccc2)cc1C(=O)N(Cc1ccccc1)Cc1ccccc1 (optimized conformer: 86.82773254807894 kcal/mol)

>  <smiles>  (92) 
Cn1cc(C(=O)CCc2ccccc2)cc1C(=O)N(Cc1ccccc1)Cc1ccccc1

>  <score_type>  (92) 
oracle

>  <origin>  (92) 
adg

>  <m_score__min__energy>  (92) 
-9.7899999999999991

>  <m_primary>  (92) 
energy

$$$$
92:0
     RDKit          3D

 38 39  0  0  0  0  0  0  0  0999 V2000
   59.1440   32.2860   49.7160 C   0  0  0  0  0  0  0  0  0  0  0  0
   59.3600   31.2390   48.6630 C   0  0  0  0  0  0  0  0  0  0  0  0
   60.0720   31.5580   47.4980 C   0  0  0  0  0  0  0  0  0  0  0  0
   60.2210   30.6080   46.4820 C   0  0  0  0  0  0  0  0  0  0  0  0
   59.6610   29.3320   46.6210 C   0  0  0  0  0  0  0  0  0  0  0  0
   59.8090   28.1610   45.3120 S   0  0  0  0  0  0  0  0  0  0  0  0
   60.5750   26.9750   45.8230 O   0  0  0  0  0  0  0  0  0  0  0  0
   60.5460   28.7540   44.1440 O   0  0  0  0  0  0  0  0  0  0  0  0
   58.2390   27.6360   44.7940 N   0  0  0  0  0  0  0  0  0  0  0  0
   57.0150   28.3590   44.9780 C   0  0  0  0  0  0  0  0  0  0  0  0
   56.0860   27.8060   45.6230 O   0  0  0  0  0  0  0  0  0  0  0  0
   56.7980   29.7140   44.4330 C   0  0  0  0  0  0  0  0  0  0  0  0
   55.6860   30.2850   44.5830 O   0  0  0  0  0  0  0  0  0  0  0  0
   57.8680   30.4020   43.7650 N   0  0  0  0  0  0  0  0  0  0  0  0
   57.7320   31.7730   43.2790 C   0  0  0  0  0  0  0  0  0  0  0  0
   58.0190   32.7540   44.3830 C   0  0  0  0  0  0  0  0  0  0  0  0
   58.9530   33.7840   44.1830 C   0  0  0  0  0  0  0  0  0  0  0  0
   59.2360   34.6870   45.2110 C   0  0  0  0  0  0  0  0  0  0  0  0
   58.5800   34.5770   46.4400 C   0  0  0  0  0  0  0  0  0  0  0  0
   57.6320   33.5690   46.6400 C   0  0  0  0  0  0  0  0  0  0  0  0
   57.3510   32.6600   45.6150 C   0  0  0  0  0  0  0  0  0  0  0  0
   58.9520   29.0100   47.7860 C   0  0  0  0  0  0  0  0  0  0  0  0
   58.7960   29.9610   48.8000 C   0  0  0  0  0  0  0  0  0  0  0  0
   59.2383   31.8291   50.7122 H   0  0  0  0  0  0  0  0  0  0  0  0
   59.8973   33.0797   49.6039 H   0  0  0  0  0  0  0  0  0  0  0  0
   58.1381   32.7167   49.6039 H   0  0  0  0  0  0  0  0  0  0  0  0
   60.5148   32.5583   47.3826 H   0  0  0  0  0  0  0  0  0  0  0  0
   60.7803   30.8643   45.5702 H   0  0  0  0  0  0  0  0  0  0  0  0
   58.7850   29.9210   43.6330 H   0  0  0  0  0  0  0  0  0  0  0  0
   58.4421   31.9372   42.4551 H   0  0  0  0  0  0  0  0  0  0  0  0
   56.7011   31.9251   42.9268 H   0  0  0  0  0  0  0  0  0  0  0  0
   59.4635   33.8800   43.2134 H   0  0  0  0  0  0  0  0  0  0  0  0
   59.9760   35.4854   45.0527 H   0  0  0  0  0  0  0  0  0  0  0  0
   58.8097   35.2841   47.2507 H   0  0  0  0  0  0  0  0  0  0  0  0
   57.1072   33.4909   47.6036 H   0  0  0  0  0  0  0  0  0  0  0  0
   56.6040   31.8684   45.7742 H   0  0  0  0  0  0  0  0  0  0  0  0
   58.5169   28.0066   47.9035 H   0  0  0  0  0  0  0  0  0  0  0  0
   58.2294   29.7064   49.7078 H   0  0  0  0  0  0  0  0  0  0  0  0
  1  2  1  0
  2  3  2  0
  3  4  1  0
  4  5  2  0
  5  6  1  0
  6  7  2  0
  6  8  2  0
  6  9  1  0
  9 10  1  0
 10 11  2  0
 10 12  1  0
 12 13  2  0
 12 14  1  0
 14 15  1  0
 15 16  1  0
 16 17  2  0
 17 18  1  0
 18 19  2  0
 19 20  1  0
 20 21  2  0
  5 22  1  0
 22 23  2  0
 23  2  1  0
 21 16  1  0
  1 24  1  0
  1 25  1  0
  1 26  1  0
  3 27  1  0
  4 28  1  0
 14 29  1  0
 15 30  1  0
 15 31  1  0
 17 32  1  0
 18 33  1  0
 19 34  1  0
 20 35  1  0
 21 36  1  0
 22 37  1  0
 23 38  1  0
M  CHG  1   9  -1
M  END
>  <UniqueID>  (93) 
86

>  <SMILES>  (93) 
Cc1ccc(S(=O)(=O)[N-]C(=O)C(=O)NCc2ccccc2)cc1

>  <Energy>  (93) 
34.994274784865496

>  <Genealogy>  (93) 
Cc1ccc(S(=O)(=O)[N-]C(=O)C(=O)NCc2ccccc2)cc1 (protonated)
Cc1ccc(S(=O)(=O)[N-]C(=O)C(=O)NCc2ccccc2)cc1 (3D coordinates assigned)
Cc1ccc(S(=O)(=O)[N-]C(=O)C(=O)NCc2ccccc2)cc1 (optimized conformer: 34.994274784865496 kcal/mol)

>  <smiles>  (93) 
Cc1ccc(S(=O)(=O)NC(=O)C(=O)NCc2ccccc2)cc1

>  <score_type>  (93) 
oracle

>  <origin>  (93) 
adg

>  <m_score__min__energy>  (93) 
-9.7799999999999994

>  <m_primary>  (93) 
energy

$$$$
93:0
     RDKit          3D

 48 50  0  0  0  0  0  0  0  0999 V2000
   55.9240   31.6900   44.8600 O   0  0  0  0  0  0  0  0  0  0  0  0
   57.0200   31.6690   44.2390 C   0  0  0  0  0  0  0  0  0  0  0  0
   57.4990   30.3770   43.6340 C   0  0  0  0  0  0  0  0  0  0  0  0
   56.3950   29.3660   43.6170 C   0  0  0  0  0  0  0  0  0  0  0  0
   55.9140   28.9810   42.5160 O   0  0  0  0  0  0  0  0  0  0  0  0
   55.9180   28.8210   44.8520 N   0  0  0  0  0  0  0  0  0  0  0  0
   56.6180   27.8710   45.6690 C   0  0  0  0  0  0  0  0  0  0  0  0
   57.8910   28.2090   46.1460 C   0  0  0  0  0  0  0  0  0  0  0  0
   58.6070   27.3200   46.9580 C   0  0  0  0  0  0  0  0  0  0  0  0
   60.2240   27.7500   47.5120 S   0  0  0  0  0  0  0  0  0  0  0  0
   61.0610   26.5010   47.5430 O   0  0  0  0  0  0  0  0  0  0  0  0
   60.8520   28.7150   46.5460 O   0  0  0  0  0  0  0  0  0  0  0  0
   60.1610   28.4410   49.1210 N   0  0  0  0  0  0  0  0  0  0  0  0
   58.8970   29.1570   49.3650 C   0  0  0  0  0  0  0  0  0  0  0  0
   58.8360   30.5100   48.6160 C   0  0  0  0  0  0  0  0  0  0  0  0
   60.1060   30.9900   48.2070 O   0  0  0  0  0  0  0  0  0  0  0  0
   61.0570   30.7880   49.2270 C   0  0  0  0  0  0  0  0  0  0  0  0
   61.3430   29.2840   49.4010 C   0  0  0  0  0  0  0  0  0  0  0  0
   58.0420   26.0860   47.2990 C   0  0  0  0  0  0  0  0  0  0  0  0
   56.7600   25.7540   46.8540 C   0  0  0  0  0  0  0  0  0  0  0  0
   56.0370   26.6470   46.0560 C   0  0  0  0  0  0  0  0  0  0  0  0
   54.7380   26.3200   45.6850 O   0  0  0  0  0  0  0  0  0  0  0  0
   57.7980   32.8710   44.1700 N   0  0  0  0  0  0  0  0  0  0  0  0
   58.3900   33.5670   45.2750 C   0  0  0  0  0  0  0  0  0  0  0  0
   59.1690   34.7030   45.0210 C   0  0  0  0  0  0  0  0  0  0  0  0
   59.7850   35.3860   46.0740 C   0  0  0  0  0  0  0  0  0  0  0  0
   59.6430   34.9270   47.3850 C   0  0  0  0  0  0  0  0  0  0  0  0
   58.8920   33.7770   47.6490 C   0  0  0  0  0  0  0  0  0  0  0  0
   58.7730   33.3200   48.9600 O   0  0  0  0  0  0  0  0  0  0  0  0
   58.2730   33.0920   46.5940 C   0  0  0  0  0  0  0  0  0  0  0  0
   57.8360   30.5627   42.6035 H   0  0  0  0  0  0  0  0  0  0  0  0
   58.3301   29.9866   44.2397 H   0  0  0  0  0  0  0  0  0  0  0  0
   58.3323   29.1810   45.8806 H   0  0  0  0  0  0  0  0  0  0  0  0
   58.0618   28.5266   49.0257 H   0  0  0  0  0  0  0  0  0  0  0  0
   58.8301   29.3651   50.4431 H   0  0  0  0  0  0  0  0  0  0  0  0
   58.2072   30.3847   47.7222 H   0  0  0  0  0  0  0  0  0  0  0  0
   58.4225   31.2491   49.3180 H   0  0  0  0  0  0  0  0  0  0  0  0
   61.9900   31.3064   48.9611 H   0  0  0  0  0  0  0  0  0  0  0  0
   60.6595   31.1883   50.1713 H   0  0  0  0  0  0  0  0  0  0  0  0
   62.1506   28.9975   48.7113 H   0  0  0  0  0  0  0  0  0  0  0  0
   61.6264   29.1196   50.4511 H   0  0  0  0  0  0  0  0  0  0  0  0
   58.6087   25.3757   47.9189 H   0  0  0  0  0  0  0  0  0  0  0  0
   56.3172   24.7863   47.1323 H   0  0  0  0  0  0  0  0  0  0  0  0
   59.2967   35.0595   43.9882 H   0  0  0  0  0  0  0  0  0  0  0  0
   60.3826   36.2866   45.8693 H   0  0  0  0  0  0  0  0  0  0  0  0
   60.1228   35.4710   48.2120 H   0  0  0  0  0  0  0  0  0  0  0  0
   59.4660   32.7060   49.3710 H   0  0  0  0  0  0  0  0  0  0  0  0
   57.6936   32.1796   46.7984 H   0  0  0  0  0  0  0  0  0  0  0  0
  1  2  2  0
  2  3  1  0
  3  4  1  0
  4  5  2  0
  4  6  1  0
  6  7  1  0
  7  8  2  0
  8  9  1  0
  9 10  1  0
 10 11  2  0
 10 12  2  0
 10 13  1  0
 13 14  1  0
 14 15  1  0
 15 16  1  0
 16 17  1  0
 17 18  1  0
  9 19  2  0
 19 20  1  0
 20 21  2  0
 21 22  1  0
  2 23  1  0
 23 24  1  0
 24 25  2  0
 25 26  1  0
 26 27  2  0
 27 28  1  0
 28 29  1  0
 28 30  2  0
 21  7  1  0
 30 24  1  0
 18 13  1  0
  3 31  1  0
  3 32  1  0
  8 33  1  0
 14 34  1  0
 14 35  1  0
 15 36  1  0
 15 37  1  0
 17 38  1  0
 17 39  1  0
 18 40  1  0
 18 41  1  0
 19 42  1  0
 20 43  1  0
 25 44  1  0
 26 45  1  0
 27 46  1  0
 29 47  1  0
 30 48  1  0
M  CHG  3   6  -1  22  -1  23  -1
M  END
>  <UniqueID>  (94) 
87

>  <SMILES>  (94) 
O=C(CC(=O)[N-]c1cc(S(=O)(=O)N2CCOCC2)ccc1[O-])[N-]c1cccc(O)c1

>  <Energy>  (94) 
68.4623900148749

>  <Genealogy>  (94) 
O=C(CC(=O)[N-]c1cc(S(=O)(=O)N2CCOCC2)ccc1[O-])[N-]c1cccc(O)c1 (protonated)
O=C(CC(=O)[N-]c1cc(S(=O)(=O)N2CCOCC2)ccc1[O-])[N-]c1cccc(O)c1 (3D coordinates assigned)
O=C(CC(=O)[N-]c1cc(S(=O)(=O)N2CCOCC2)ccc1[O-])[N-]c1cccc(O)c1 (nonaromatic ring conformer: 68.4623900148749 kcal/mol)

>  <smiles>  (94) 
O=C(CC(=O)Nc1cc(S(=O)(=O)N2CCOCC2)ccc1O)Nc1cccc(O)c1

>  <score_type>  (94) 
oracle

>  <origin>  (94) 
adg

>  <m_score__min__energy>  (94) 
-14.73

>  <m_primary>  (94) 
energy

$$$$
94:0
     RDKit          3D

 45 47  0  0  0  0  0  0  0  0999 V2000
   59.3010   22.6900   45.1650 C   0  0  0  0  0  0  0  0  0  0  0  0
   58.4180   23.6860   45.2800 C   0  0  0  0  0  0  0  0  0  0  0  0
   58.6010   24.7920   46.2830 C   0  0  0  0  0  0  0  0  0  0  0  0
   57.8000   25.9730   45.9050 N   0  0  0  0  0  0  0  0  0  0  0  0
   56.4490   25.9910   46.1520 C   0  0  0  0  0  0  0  0  0  0  0  0
   55.8850   24.9980   46.6920 O   0  0  0  0  0  0  0  0  0  0  0  0
   55.7010   27.0740   45.8140 N   0  0  0  0  0  0  0  0  0  0  0  0
   56.2640   28.1720   45.2530 C   0  0  0  0  0  0  0  0  0  0  0  0
   55.4600   29.2510   44.8950 O   0  0  0  0  0  0  0  0  0  0  0  0
   57.6430   28.2160   45.0420 C   0  0  0  0  0  0  0  0  0  0  0  0
   58.2630   29.3830   44.3910 C   0  0  0  0  0  0  0  0  0  0  0  0
   58.5630   30.5430   45.0130 C   0  0  0  0  0  0  0  0  0  0  0  0
   58.2060   31.8210   44.4570 N   0  0  0  0  0  0  0  0  0  0  0  0
   57.6590   32.0670   43.1200 C   0  0  0  0  0  0  0  0  0  0  0  0
   58.7610   32.7990   45.3260 C   0  0  0  0  0  0  0  0  0  0  0  0
   58.7180   34.1910   45.1720 C   0  0  0  0  0  0  0  0  0  0  0  0
   59.3240   34.9930   46.1520 C   0  0  0  0  0  0  0  0  0  0  0  0
   59.9560   34.4040   47.2600 C   0  0  0  0  0  0  0  0  0  0  0  0
   59.9920   33.0090   47.3950 C   0  0  0  0  0  0  0  0  0  0  0  0
   59.3890   32.2200   46.4090 C   0  0  0  0  0  0  0  0  0  0  0  0
   59.3180   30.7150   46.3360 C   0  0  0  0  0  0  0  0  0  0  0  0
   60.7400   30.1290   46.2910 C   0  0  0  0  0  0  0  0  0  0  0  0
   58.5200   30.1770   47.5370 C   0  0  0  0  0  0  0  0  0  0  0  0
   58.3990   27.0730   45.3410 C   0  0  0  0  0  0  0  0  0  0  0  0
   59.6390   27.0700   45.0920 O   0  0  0  0  0  0  0  0  0  0  0  0
   59.1398   21.8952   44.4219 H   0  0  0  0  0  0  0  0  0  0  0  0
   60.1892   22.6648   45.8135 H   0  0  0  0  0  0  0  0  0  0  0  0
   57.5347   23.6976   44.6245 H   0  0  0  0  0  0  0  0  0  0  0  0
   58.2791   24.4387   47.2737 H   0  0  0  0  0  0  0  0  0  0  0  0
   59.6632   25.0767   46.3076 H   0  0  0  0  0  0  0  0  0  0  0  0
   54.6690   27.0640   45.9880 H   0  0  0  0  0  0  0  0  0  0  0  0
   58.4988   29.3034   43.3195 H   0  0  0  0  0  0  0  0  0  0  0  0
   56.6591   32.5167   43.2099 H   0  0  0  0  0  0  0  0  0  0  0  0
   58.3220   32.7536   42.5732 H   0  0  0  0  0  0  0  0  0  0  0  0
   57.5852   31.1154   42.5732 H   0  0  0  0  0  0  0  0  0  0  0  0
   58.2204   34.6453   44.3025 H   0  0  0  0  0  0  0  0  0  0  0  0
   59.3039   36.0883   46.0519 H   0  0  0  0  0  0  0  0  0  0  0  0
   60.4247   35.0403   48.0251 H   0  0  0  0  0  0  0  0  0  0  0  0
   60.4855   32.5429   48.2606 H   0  0  0  0  0  0  0  0  0  0  0  0
   61.1069   29.9778   47.3169 H   0  0  0  0  0  0  0  0  0  0  0  0
   60.7226   29.1647   45.7620 H   0  0  0  0  0  0  0  0  0  0  0  0
   61.4071   30.8255   45.7620 H   0  0  0  0  0  0  0  0  0  0  0  0
   59.0009   30.5012   48.4717 H   0  0  0  0  0  0  0  0  0  0  0  0
   57.4923   30.5673   47.4989 H   0  0  0  0  0  0  0  0  0  0  0  0
   58.4964   29.0779   47.4989 H   0  0  0  0  0  0  0  0  0  0  0  0
  1  2  2  0
  2  3  1  0
  3  4  1  0
  4  5  1  0
  5  6  2  0
  5  7  1  0
  7  8  1  0
  8  9  1  0
  8 10  2  0
 10 11  1  0
 11 12  2  3
 12 13  1  0
 13 14  1  0
 13 15  1  0
 15 16  2  0
 16 17  1  0
 17 18  2  0
 18 19  1  0
 19 20  2  0
 20 21  1  0
 21 22  1  0
 21 23  1  0
 10 24  1  0
 24 25  2  0
 24  4  1  0
 21 12  1  0
 20 15  1  0
  1 26  1  0
  1 27  1  0
  2 28  1  0
  3 29  1  0
  3 30  1  0
  7 31  1  0
 11 32  1  0
 14 33  1  0
 14 34  1  0
 14 35  1  0
 16 36  1  0
 17 37  1  0
 18 38  1  0
 19 39  1  0
 22 40  1  0
 22 41  1  0
 22 42  1  0
 23 43  1  0
 23 44  1  0
 23 45  1  0
M  CHG  1   9  -1
M  END
>  <UniqueID>  (95) 
88

>  <SMILES>  (95) 
C=CCn1c(=O)[nH]c([O-])c(C=C2N(C)c3ccccc3C2(C)C)c1=O

>  <Energy>  (95) 
75.43809100635086

>  <Genealogy>  (95) 
C=CCn1c(=O)[nH]c([O-])c(C=C2N(C)c3ccccc3C2(C)C)c1=O (protonated)
C=CCn1c(=O)[nH]c([O-])c(C=C2N(C)c3ccccc3C2(C)C)c1=O (3D coordinates assigned)
C=CCn1c(=O)[nH]c([O-])c(C=C2N(C)c3ccccc3C2(C)C)c1=O (nonaromatic ring conformer: 75.43809100635086 kcal/mol)

>  <smiles>  (95) 
C=CCn1c(=O)[nH]c(O)c(C=C2N(C)c3ccccc3C2(C)C)c1=O

>  <score_type>  (95) 
oracle

>  <origin>  (95) 
adg

>  <m_score__min__energy>  (95) 
-11.470000000000001

>  <m_primary>  (95) 
energy

$$$$
95:0
     RDKit          3D

 34 35  0  0  0  0  0  0  0  0999 V2000
   59.7780   35.6350   46.0150 C   0  0  0  0  0  0  0  0  0  0  0  0
   58.5290   34.9650   46.1550 O   0  0  0  0  0  0  0  0  0  0  0  0
   58.3780   33.5710   46.2270 C   0  0  0  0  0  0  0  0  0  0  0  0
   57.8750   32.8130   45.1500 C   0  0  0  0  0  0  0  0  0  0  0  0
   57.7440   31.4160   45.2540 C   0  0  0  0  0  0  0  0  0  0  0  0
   57.1940   30.6370   44.1160 C   0  0  0  0  0  0  0  0  0  0  0  0
   57.6980   30.7880   42.9700 O   0  0  0  0  0  0  0  0  0  0  0  0
   56.0910   29.6650   44.2930 C   0  0  0  0  0  0  0  0  0  0  0  0
   55.0350   29.7950   43.6190 O   0  0  0  0  0  0  0  0  0  0  0  0
   56.1650   28.6050   45.2570 N   0  0  0  0  0  0  0  0  0  0  0  0
   57.2930   27.7400   45.4490 C   0  0  0  0  0  0  0  0  0  0  0  0
   58.5690   28.2580   45.1930 C   0  0  0  0  0  0  0  0  0  0  0  0
   59.6980   27.4410   45.2830 C   0  0  0  0  0  0  0  0  0  0  0  0
   59.5610   26.0990   45.6380 C   0  0  0  0  0  0  0  0  0  0  0  0
   58.2990   25.5760   45.9310 C   0  0  0  0  0  0  0  0  0  0  0  0
   57.1530   26.3890   45.8660 C   0  0  0  0  0  0  0  0  0  0  0  0
   55.8550   25.8160   46.2910 C   0  0  0  0  0  0  0  0  0  0  0  0
   54.7690   26.3460   45.9350 O   0  0  0  0  0  0  0  0  0  0  0  0
   55.8220   24.7110   47.1320 O   0  0  0  0  0  0  0  0  0  0  0  0
   58.1030   30.7860   46.4580 C   0  0  0  0  0  0  0  0  0  0  0  0
   58.6010   31.5340   47.5270 C   0  0  0  0  0  0  0  0  0  0  0  0
   58.7420   32.9210   47.4140 C   0  0  0  0  0  0  0  0  0  0  0  0
   59.2400   33.6660   48.4830 O   0  0  0  0  0  0  0  0  0  0  0  0
   60.1894   35.8557   47.0110 H   0  0  0  0  0  0  0  0  0  0  0  0
   60.4792   34.9919   45.4629 H   0  0  0  0  0  0  0  0  0  0  0  0
   59.6301   36.5749   45.4629 H   0  0  0  0  0  0  0  0  0  0  0  0
   57.5818   33.3192   44.2184 H   0  0  0  0  0  0  0  0  0  0  0  0
   58.6827   29.3172   44.9188 H   0  0  0  0  0  0  0  0  0  0  0  0
   60.6952   27.8557   45.0740 H   0  0  0  0  0  0  0  0  0  0  0  0
   60.4485   25.4510   45.6874 H   0  0  0  0  0  0  0  0  0  0  0  0
   58.2006   24.5179   46.2153 H   0  0  0  0  0  0  0  0  0  0  0  0
   57.9910   29.6964   46.5590 H   0  0  0  0  0  0  0  0  0  0  0  0
   58.8839   31.0297   48.4628 H   0  0  0  0  0  0  0  0  0  0  0  0
   59.2950   34.6760   48.4450 H   0  0  0  0  0  0  0  0  0  0  0  0
  1  2  1  0
  2  3  1  0
  3  4  2  0
  4  5  1  0
  5  6  1  0
  6  7  2  0
  6  8  1  0
  8  9  2  0
  8 10  1  0
 10 11  1  0
 11 12  2  0
 12 13  1  0
 13 14  2  0
 14 15  1  0
 15 16  2  0
 16 17  1  0
 17 18  2  0
 17 19  1  0
  5 20  2  0
 20 21  1  0
 21 22  2  0
 22 23  1  0
 22  3  1  0
 16 11  1  0
  1 24  1  0
  1 25  1  0
  1 26  1  0
  4 27  1  0
 12 28  1  0
 13 29  1  0
 14 30  1  0
 15 31  1  0
 20 32  1  0
 21 33  1  0
 23 34  1  0
M  CHG  2  10  -1  19  -1
M  END
>  <UniqueID>  (96) 
89

>  <SMILES>  (96) 
COc1cc(C(=O)C(=O)[N-]c2ccccc2C(=O)[O-])ccc1O

>  <Energy>  (96) 
48.48659799315521

>  <Genealogy>  (96) 
COc1cc(C(=O)C(=O)[N-]c2ccccc2C(=O)[O-])ccc1O (protonated)
COc1cc(C(=O)C(=O)[N-]c2ccccc2C(=O)[O-])ccc1O (3D coordinates assigned)
COc1cc(C(=O)C(=O)[N-]c2ccccc2C(=O)[O-])ccc1O (optimized conformer: 48.48659799315521 kcal/mol)

>  <smiles>  (96) 
COc1cc(C(=O)C(=O)Nc2ccccc2C(=O)O)ccc1O

>  <score_type>  (96) 
oracle

>  <origin>  (96) 
adg

>  <m_score__min__energy>  (96) 
-11.5

>  <m_primary>  (96) 
energy

$$$$
96:0
     RDKit          3D

 42 44  0  0  0  0  0  0  0  0999 V2000
   59.6440   35.5160   45.9510 C   0  0  0  0  0  0  0  0  0  0  0  0
   59.0340   34.1670   45.7140 C   0  0  0  0  0  0  0  0  0  0  0  0
   57.9440   34.0250   44.8410 C   0  0  0  0  0  0  0  0  0  0  0  0
   57.3540   32.7720   44.6490 C   0  0  0  0  0  0  0  0  0  0  0  0
   57.8360   31.6520   45.3340 C   0  0  0  0  0  0  0  0  0  0  0  0
   57.1260   30.0680   45.0270 S   0  0  0  0  0  0  0  0  0  0  0  0
   55.6500   30.2060   44.7820 O   0  0  0  0  0  0  0  0  0  0  0  0
   57.7710   29.4770   43.8060 O   0  0  0  0  0  0  0  0  0  0  0  0
   57.3950   29.0210   46.3850 N   0  0  0  0  0  0  0  0  0  0  0  0
   57.7380   27.6460   46.2000 C   0  0  0  0  0  0  0  0  0  0  0  0
   59.0720   27.2480   46.3730 C   0  0  0  0  0  0  0  0  0  0  0  0
   60.0590   28.1960   46.6150 O   0  0  0  0  0  0  0  0  0  0  0  0
   59.4120   25.8960   46.3230 C   0  0  0  0  0  0  0  0  0  0  0  0
   58.4220   24.9310   46.1220 C   0  0  0  0  0  0  0  0  0  0  0  0
   57.0830   25.3120   45.9380 C   0  0  0  0  0  0  0  0  0  0  0  0
   56.0430   24.2770   45.7480 C   0  0  0  0  0  0  0  0  0  0  0  0
   54.9590   24.3810   46.3850 O   0  0  0  0  0  0  0  0  0  0  0  0
   56.2490   23.1220   44.8370 C   0  0  0  0  0  0  0  0  0  0  0  0
   56.4010   21.8240   45.3600 C   0  0  0  0  0  0  0  0  0  0  0  0
   56.6030   20.7330   44.5060 C   0  0  0  0  0  0  0  0  0  0  0  0
   56.6620   20.9260   43.1230 C   0  0  0  0  0  0  0  0  0  0  0  0
   56.5270   22.2100   42.5930 C   0  0  0  0  0  0  0  0  0  0  0  0
   56.3280   23.3040   43.4420 C   0  0  0  0  0  0  0  0  0  0  0  0
   56.7430   26.6790   45.9400 C   0  0  0  0  0  0  0  0  0  0  0  0
   55.4230   27.0590   45.6900 O   0  0  0  0  0  0  0  0  0  0  0  0
   58.9170   31.7940   46.2170 C   0  0  0  0  0  0  0  0  0  0  0  0
   59.5110   33.0470   46.4070 C   0  0  0  0  0  0  0  0  0  0  0  0
   59.7256   35.6965   47.0330 H   0  0  0  0  0  0  0  0  0  0  0  0
   60.6453   35.5505   45.4969 H   0  0  0  0  0  0  0  0  0  0  0  0
   59.0086   36.2906   45.4969 H   0  0  0  0  0  0  0  0  0  0  0  0
   57.5525   34.9028   44.3059 H   0  0  0  0  0  0  0  0  0  0  0  0
   56.5065   32.6666   43.9557 H   0  0  0  0  0  0  0  0  0  0  0  0
   60.4616   25.5891   46.4421 H   0  0  0  0  0  0  0  0  0  0  0  0
   58.6933   23.8651   46.1078 H   0  0  0  0  0  0  0  0  0  0  0  0
   56.3608   21.6656   46.4478 H   0  0  0  0  0  0  0  0  0  0  0  0
   56.7155   19.7219   44.9244 H   0  0  0  0  0  0  0  0  0  0  0  0
   56.8146   20.0670   42.4531 H   0  0  0  0  0  0  0  0  0  0  0  0
   56.5772   22.3623   41.5047 H   0  0  0  0  0  0  0  0  0  0  0  0
   56.2325   24.3142   43.0172 H   0  0  0  0  0  0  0  0  0  0  0  0
   55.1420   28.0280   45.6090 H   0  0  0  0  0  0  0  0  0  0  0  0
   59.2989   30.9179   46.7616 H   0  0  0  0  0  0  0  0  0  0  0  0
   60.3559   33.1527   47.1034 H   0  0  0  0  0  0  0  0  0  0  0  0
  1  2  1  0
  2  3  2  0
  3  4  1  0
  4  5  2  0
  5  6  1  0
  6  7  2  0
  6  8  2  0
  6  9  1  0
  9 10  1  0
 10 11  2  0
 11 12  1  0
 11 13  1  0
 13 14  2  0
 14 15  1  0
 15 16  1  0
 16 17  2  0
 16 18  1  0
 18 19  2  0
 19 20  1  0
 20 21  2  0
 21 22  1  0
 22 23  2  0
 15 24  2  0
 24 25  1  0
  5 26  1  0
 26 27  2  0
 27  2  1  0
 24 10  1  0
 23 18  1  0
  1 28  1  0
  1 29  1  0
  1 30  1  0
  3 31  1  0
  4 32  1  0
 13 33  1  0
 14 34  1  0
 19 35  1  0
 20 36  1  0
 21 37  1  0
 22 38  1  0
 23 39  1  0
 25 40  1  0
 26 41  1  0
 27 42  1  0
M  CHG  2   9  -1  12  -1
M  END
>  <UniqueID>  (97) 
90

>  <SMILES>  (97) 
Cc1ccc(S(=O)(=O)[N-]c2c([O-])ccc(C(=O)c3ccccc3)c2O)cc1

>  <Energy>  (97) 
58.26649787217079

>  <Genealogy>  (97) 
Cc1ccc(S(=O)(=O)[N-]c2c([O-])ccc(C(=O)c3ccccc3)c2O)cc1 (protonated)
Cc1ccc(S(=O)(=O)[N-]c2c([O-])ccc(C(=O)c3ccccc3)c2O)cc1 (3D coordinates assigned)
Cc1ccc(S(=O)(=O)[N-]c2c([O-])ccc(C(=O)c3ccccc3)c2O)cc1 (optimized conformer: 58.26649787217079 kcal/mol)

>  <smiles>  (97) 
Cc1ccc(S(=O)(=O)Nc2c(O)ccc(C(=O)c3ccccc3)c2O)cc1

>  <score_type>  (97) 
oracle

>  <origin>  (97) 
adg

>  <m_score__min__energy>  (97) 
-13.289999999999999

>  <m_primary>  (97) 
energy

$$$$
