0:0
     RDKit          3D

 62 65  0  0  0  0  0  0  0  0999 V2000
   51.7530   24.1400   44.2190 C   0  0  0  0  0  0  0  0  0  0  0  0
   53.0410   23.8460   45.4150 S   0  0  0  0  0  0  0  0  0  0  0  0
   53.7530   25.1310   45.7310 O   0  0  0  0  0  0  0  0  0  0  0  0
   52.4040   23.3200   46.6680 O   0  0  0  0  0  0  0  0  0  0  0  0
   54.1690   22.6640   44.8300 N   0  0  0  0  0  0  0  0  0  0  0  0
   55.5090   22.9380   44.4030 C   0  0  0  0  0  0  0  0  0  0  0  0
   55.9250   22.4130   43.3370 O   0  0  0  0  0  0  0  0  0  0  0  0
   56.4140   23.8170   45.1660 C   0  0  0  0  0  0  0  0  0  0  0  0
   56.4760   23.7140   46.5620 C   0  0  0  0  0  0  0  0  0  0  0  0
   57.3320   24.5430   47.2880 C   0  0  0  0  0  0  0  0  0  0  0  0
   58.1210   25.4910   46.6300 C   0  0  0  0  0  0  0  0  0  0  0  0
   58.0450   25.6290   45.2290 C   0  0  0  0  0  0  0  0  0  0  0  0
   58.7890   26.5720   44.4920 O   0  0  0  0  0  0  0  0  0  0  0  0
   58.4320   27.9170   44.1440 C   0  0  2  0  0  0  0  0  0  0  0  0
   59.5430   28.9310   44.4950 C   0  0  0  0  0  0  0  0  0  0  0  0
   58.9680   30.3120   44.8500 C   0  0  0  0  0  0  0  0  0  0  0  0
   57.8090   30.6360   43.9870 N   0  0  2  0  0  0  0  0  0  0  0  0
   57.4450   32.0640   44.1490 C   0  0  0  0  0  0  0  0  0  0  0  0
   58.2510   32.7310   45.2410 C   0  0  0  0  0  0  0  0  0  0  0  0
   57.9750   32.4680   46.5920 C   0  0  0  0  0  0  0  0  0  0  0  0
   58.7070   33.1050   47.5990 C   0  0  0  0  0  0  0  0  0  0  0  0
   59.7140   34.0290   47.2670 C   0  0  0  0  0  0  0  0  0  0  0  0
   60.4790   34.6780   48.2470 O   0  0  0  0  0  0  0  0  0  0  0  0
   61.7210   34.2410   48.7310 C   0  0  0  0  0  0  0  0  0  0  0  0
   62.0340   34.2610   50.1050 C   0  0  0  0  0  0  0  0  0  0  0  0
   63.2900   33.8310   50.5460 C   0  0  0  0  0  0  0  0  0  0  0  0
   64.2430   33.3940   49.6240 C   0  0  0  0  0  0  0  0  0  0  0  0
   63.9460   33.3920   48.2580 C   0  0  0  0  0  0  0  0  0  0  0  0
   62.6920   33.8200   47.8140 C   0  0  0  0  0  0  0  0  0  0  0  0
   59.9980   34.2770   45.9190 C   0  0  0  0  0  0  0  0  0  0  0  0
   59.2690   33.6390   44.9120 C   0  0  0  0  0  0  0  0  0  0  0  0
   56.6500   29.7460   44.2780 C   0  0  0  0  0  0  0  0  0  0  0  0
   57.0480   28.3090   44.6870 C   0  0  0  0  0  0  0  0  0  0  0  0
   57.1870   24.7860   44.5120 C   0  0  0  0  0  0  0  0  0  0  0  0
   50.8094   24.3554   44.7418 H   0  0  0  0  0  0  0  0  0  0  0  0
   52.0271   24.9987   43.5885 H   0  0  0  0  0  0  0  0  0  0  0  0
   51.6274   23.2474   43.5885 H   0  0  0  0  0  0  0  0  0  0  0  0
   55.8487   22.9783   47.0866 H   0  0  0  0  0  0  0  0  0  0  0  0
   57.3862   24.4502   48.3827 H   0  0  0  0  0  0  0  0  0  0  0  0
   58.8037   26.1317   47.2075 H   0  0  0  0  0  0  0  0  0  0  0  0
   58.3414   27.9519   43.0483 H   0  0  0  0  0  0  0  0  0  0  0  0
   60.1122   28.5508   45.3561 H   0  0  0  0  0  0  0  0  0  0  0  0
   60.1892   29.0476   43.6124 H   0  0  0  0  0  0  0  0  0  0  0  0
   58.6451   30.3089   45.9015 H   0  0  0  0  0  0  0  0  0  0  0  0
   59.7487   31.0706   44.6918 H   0  0  0  0  0  0  0  0  0  0  0  0
   58.1010   30.4910   42.9900 H   0  0  0  0  0  0  0  0  0  0  0  0
   57.6301   32.5881   43.1998 H   0  0  0  0  0  0  0  0  0  0  0  0
   56.3826   32.1153   44.4297 H   0  0  0  0  0  0  0  0  0  0  0  0
   57.1791   31.7575   46.8598 H   0  0  0  0  0  0  0  0  0  0  0  0
   58.4943   32.8825   48.6551 H   0  0  0  0  0  0  0  0  0  0  0  0
   61.2889   34.6156   50.8324 H   0  0  0  0  0  0  0  0  0  0  0  0
   63.5270   33.8372   51.6201 H   0  0  0  0  0  0  0  0  0  0  0  0
   65.2283   33.0510   49.9727 H   0  0  0  0  0  0  0  0  0  0  0  0
   64.6999   33.0533   47.5321 H   0  0  0  0  0  0  0  0  0  0  0  0
   62.4662   33.8262   46.7374 H   0  0  0  0  0  0  0  0  0  0  0  0
   60.8009   34.9793   45.6504 H   0  0  0  0  0  0  0  0  0  0  0  0
   59.4943   33.8496   43.8561 H   0  0  0  0  0  0  0  0  0  0  0  0
   56.0696   30.1913   45.0995 H   0  0  0  0  0  0  0  0  0  0  0  0
   56.0706   29.6630   43.3466 H   0  0  0  0  0  0  0  0  0  0  0  0
   57.0662   28.2446   45.7850 H   0  0  0  0  0  0  0  0  0  0  0  0
   56.3073   27.6171   44.2596 H   0  0  0  0  0  0  0  0  0  0  0  0
   57.1187   24.8859   43.4187 H   0  0  0  0  0  0  0  0  0  0  0  0
  1  2  1  0
  2  3  2  0
  2  4  2  0
  2  5  1  0
  5  6  1  0
  6  7  2  0
  6  8  1  0
  8  9  2  0
  9 10  1  0
 10 11  2  0
 11 12  1  0
 12 13  1  0
 13 14  1  0
 14 15  1  0
 15 16  1  0
 16 17  1  0
 17 18  1  0
 18 19  1  0
 19 20  2  0
 20 21  1  0
 21 22  2  0
 22 23  1  0
 23 24  1  0
 24 25  2  0
 25 26  1  0
 26 27  2  0
 27 28  1  0
 28 29  2  0
 22 30  1  0
 30 31  2  0
 17 32  1  0
 32 33  1  0
 12 34  2  0
 34  8  1  0
 33 14  1  0
 31 19  1  0
 29 24  1  0
  1 35  1  0
  1 36  1  0
  1 37  1  0
  9 38  1  0
 10 39  1  0
 11 40  1  0
 14 41  1  6
 15 42  1  0
 15 43  1  0
 16 44  1  0
 16 45  1  0
 17 46  1  6
 18 47  1  0
 18 48  1  0
 20 49  1  0
 21 50  1  0
 25 51  1  0
 26 52  1  0
 27 53  1  0
 28 54  1  0
 29 55  1  0
 30 56  1  0
 31 57  1  0
 32 58  1  0
 32 59  1  0
 33 60  1  0
 33 61  1  0
 34 62  1  0
M  CHG  2   5  -1  17   1
M  END
>  <UniqueID>  (1) 
1

>  <SMILES>  (1) 
CS(=O)(=O)[N-]C(=O)c1cccc(OC2CC[NH+](Cc3ccc(Oc4ccccc4)cc3)CC2)c1

>  <Energy>  (1) 
86.61981984273007

>  <Genealogy>  (1) 
CS(=O)(=O)[N-]C(=O)c1cccc(OC2CC[NH+](Cc3ccc(Oc4ccccc4)cc3)CC2)c1 (protonated)
CS(=O)(=O)[N-]C(=O)c1cccc(OC2CC[NH+](Cc3ccc(Oc4ccccc4)cc3)CC2)c1 (3D coordinates assigned)
CS(=O)(=O)[N-]C(=O)c1cccc(OC2CC[NH+](Cc3ccc(Oc4ccccc4)cc3)CC2)c1 (nonaromatic ring conformer: 86.61981984273007 kcal/mol)

>  <smiles>  (1) 
CS(=O)(=O)NC(=O)c1cccc(OC2CCN(Cc3ccc(Oc4ccccc4)cc3)CC2)c1

>  <score_type>  (1) 
oracle

>  <origin>  (1) 
adg

>  <m_score__min__energy>  (1) 
-10.59

>  <m_primary>  (1) 
energy

$$$$
1:0
     RDKit          3D

 53 56  0  0  0  0  0  0  0  0999 V2000
   57.7280   28.6160   43.6270 O   0  0  0  0  0  0  0  0  0  0  0  0
   57.0920   28.8840   44.6820 C   0  0  0  0  0  0  0  0  0  0  0  0
   56.6840   30.2300   44.9580 N   0  0  0  0  0  0  0  0  0  0  0  0
   57.4840   31.2510   45.5750 C   0  0  0  0  0  0  0  0  0  0  0  0
   57.3170   32.5780   45.1600 C   0  0  0  0  0  0  0  0  0  0  0  0
   58.0540   33.6050   45.7570 C   0  0  0  0  0  0  0  0  0  0  0  0
   58.9570   33.3180   46.7890 C   0  0  0  0  0  0  0  0  0  0  0  0
   59.8840   34.6150   47.5490 S   0  0  0  0  0  0  0  0  0  0  0  0
   59.7510   35.8680   46.7290 O   0  0  0  0  0  0  0  0  0  0  0  0
   59.3130   34.8890   48.9130 O   0  0  0  0  0  0  0  0  0  0  0  0
   61.5740   34.2020   47.7030 N   0  0  0  0  0  0  0  0  0  0  0  0
   62.0410   33.4740   46.5100 C   0  0  0  0  0  0  0  0  0  0  0  0
   63.4380   32.8680   46.7520 C   0  0  0  0  0  0  0  0  0  0  0  0
   64.0450   33.4310   47.8980 O   0  0  0  0  0  0  0  0  0  0  0  0
   63.3030   33.0830   49.0570 C   0  0  0  0  0  0  0  0  0  0  0  0
   61.8000   33.3970   48.9120 C   0  0  0  0  0  0  0  0  0  0  0  0
   59.1080   31.9940   47.2240 C   0  0  0  0  0  0  0  0  0  0  0  0
   58.3740   30.9660   46.6270 C   0  0  0  0  0  0  0  0  0  0  0  0
   56.6820   27.8360   45.5720 N   0  0  0  0  0  0  0  0  0  0  0  0
   57.1740   26.4840   45.5200 C   0  0  0  0  0  0  0  0  0  0  0  0
   56.3250   25.4010   45.2260 C   0  0  0  0  0  0  0  0  0  0  0  0
   56.8360   24.1020   45.1540 C   0  0  0  0  0  0  0  0  0  0  0  0
   58.2010   23.8690   45.3610 C   0  0  0  0  0  0  0  0  0  0  0  0
   58.8290   22.2260   45.2720 S   0  0  0  0  0  0  0  0  0  0  0  0
   58.5790   21.6840   43.8930 O   0  0  0  0  0  0  0  0  0  0  0  0
   60.3090   22.2050   45.5410 O   0  0  0  0  0  0  0  0  0  0  0  0
   58.0260   21.2210   46.4350 N   0  0  0  0  0  0  0  0  0  0  0  0
   56.9660   21.5730   47.0960 C   0  0  0  0  0  0  0  0  0  0  0  0
   57.0350   22.2140   48.2800 N   0  0  0  0  0  0  0  0  0  0  0  0
   55.8000   22.4770   48.7820 C   0  0  0  0  0  0  0  0  0  0  0  0
   54.7360   22.0420   47.9970 C   0  0  0  0  0  0  0  0  0  0  0  0
   55.3680   21.3040   46.6240 S   0  0  0  0  0  0  0  0  0  0  0  0
   59.0550   24.9470   45.6290 C   0  0  0  0  0  0  0  0  0  0  0  0
   58.5440   26.2470   45.7020 C   0  0  0  0  0  0  0  0  0  0  0  0
   56.6011   32.8139   44.3589 H   0  0  0  0  0  0  0  0  0  0  0  0
   57.9244   34.6425   45.4151 H   0  0  0  0  0  0  0  0  0  0  0  0
   61.3317   32.6653   46.2801 H   0  0  0  0  0  0  0  0  0  0  0  0
   62.1029   34.1790   45.6679 H   0  0  0  0  0  0  0  0  0  0  0  0
   63.3387   31.7819   46.8949 H   0  0  0  0  0  0  0  0  0  0  0  0
   64.0700   33.0866   45.8786 H   0  0  0  0  0  0  0  0  0  0  0  0
   63.4221   32.0052   49.2417 H   0  0  0  0  0  0  0  0  0  0  0  0
   63.6904   33.6819   49.8944 H   0  0  0  0  0  0  0  0  0  0  0  0
   61.2361   32.4557   48.8347 H   0  0  0  0  0  0  0  0  0  0  0  0
   61.4602   33.9613   49.7929 H   0  0  0  0  0  0  0  0  0  0  0  0
   59.8085   31.7631   48.0401 H   0  0  0  0  0  0  0  0  0  0  0  0
   58.4922   29.9310   46.9803 H   0  0  0  0  0  0  0  0  0  0  0  0
   55.9310   28.0610   46.2620 H   0  0  0  0  0  0  0  0  0  0  0  0
   55.2533   25.5777   45.0519 H   0  0  0  0  0  0  0  0  0  0  0  0
   56.1634   23.2599   44.9339 H   0  0  0  0  0  0  0  0  0  0  0  0
   55.6517   22.9965   49.7402 H   0  0  0  0  0  0  0  0  0  0  0  0
   53.6682   22.1602   48.2333 H   0  0  0  0  0  0  0  0  0  0  0  0
   60.1299   24.7705   45.7824 H   0  0  0  0  0  0  0  0  0  0  0  0
   59.2218   27.0896   45.9036 H   0  0  0  0  0  0  0  0  0  0  0  0
  1  2  2  0
  2  3  1  0
  3  4  1  0
  4  5  2  0
  5  6  1  0
  6  7  2  0
  7  8  1  0
  8  9  2  0
  8 10  2  0
  8 11  1  0
 11 12  1  0
 12 13  1  0
 13 14  1  0
 14 15  1  0
 15 16  1  0
  7 17  1  0
 17 18  2  0
  2 19  1  0
 19 20  1  0
 20 21  2  0
 21 22  1  0
 22 23  2  0
 23 24  1  0
 24 25  2  0
 24 26  2  0
 24 27  1  0
 27 28  2  3
 28 29  1  0
 29 30  1  0
 30 31  2  0
 31 32  1  0
 23 33  1  0
 33 34  2  0
 18  4  1  0
 34 20  1  0
 16 11  1  0
 32 28  1  0
  5 35  1  0
  6 36  1  0
 12 37  1  0
 12 38  1  0
 13 39  1  0
 13 40  1  0
 15 41  1  0
 15 42  1  0
 16 43  1  0
 16 44  1  0
 17 45  1  0
 18 46  1  0
 19 47  1  0
 21 48  1  0
 22 49  1  0
 30 50  1  0
 31 51  1  0
 33 52  1  0
 34 53  1  0
M  CHG  2   3  -1  29  -1
M  END
>  <UniqueID>  (2) 
2

>  <SMILES>  (2) 
O=C([N-]c1ccc(S(=O)(=O)N2CCOCC2)cc1)Nc1ccc(S(=O)(=O)N=c2[n-]ccs2)cc1

>  <Energy>  (2) 
103.49468113757099

>  <Genealogy>  (2) 
O=C([N-]c1ccc(S(=O)(=O)N2CCOCC2)cc1)Nc1ccc(S(=O)(=O)N=c2[n-]ccs2)cc1 (protonated)
O=C([N-]c1ccc(S(=O)(=O)N2CCOCC2)cc1)Nc1ccc(S(=O)(=O)N=c2[n-]ccs2)cc1 (3D coordinates assigned)
O=C([N-]c1ccc(S(=O)(=O)N2CCOCC2)cc1)Nc1ccc(S(=O)(=O)N=c2[n-]ccs2)cc1 (nonaromatic ring conformer: 103.49468113757099 kcal/mol)

>  <smiles>  (2) 
O=C(Nc1ccc(S(=O)(=O)N=c2[nH]ccs2)cc1)Nc1ccc(S(=O)(=O)N2CCOCC2)cc1

>  <score_type>  (2) 
oracle

>  <origin>  (2) 
adg

>  <m_score__min__energy>  (2) 
-12.92

>  <m_primary>  (2) 
energy

$$$$
2:0
     RDKit          3D

 63 65  0  0  0  0  0  0  0  0999 V2000
   57.1740   31.2310   42.6770 C   0  0  0  0  0  0  0  0  0  0  0  0
   56.8870   30.8120   44.1270 C   0  0  0  0  0  0  0  0  0  0  0  0
   58.1390   30.1200   44.7010 C   0  0  0  0  0  0  0  0  0  0  0  0
   55.6830   29.8490   44.1370 C   0  0  0  0  0  0  0  0  0  0  0  0
   56.5870   32.0070   44.8650 O   0  0  0  0  0  0  0  0  0  0  0  0
   57.4420   33.1060   45.0600 C   0  0  0  0  0  0  0  0  0  0  0  0
   57.4850   34.0450   44.2190 O   0  0  0  0  0  0  0  0  0  0  0  0
   58.2790   33.1550   46.2280 N   0  0  0  0  0  0  0  0  0  0  0  0
   58.1470   32.1320   47.2730 C   0  0  0  0  0  0  0  0  0  0  0  0
   58.5550   32.7150   48.6330 C   0  0  0  0  0  0  0  0  0  0  0  0
   59.9050   33.3330   48.6330 N   0  0  0  0  0  0  0  0  0  0  0  0
   61.0620   32.3050   49.4430 S   0  0  0  0  0  0  0  0  0  0  0  0
   62.4570   32.8160   49.2040 O   0  0  0  0  0  0  0  0  0  0  0  0
   60.8000   32.3040   50.9250 O   0  0  0  0  0  0  0  0  0  0  0  0
   60.9140   30.6530   48.8490 C   0  0  0  0  0  0  0  0  0  0  0  0
   60.8460   30.3900   47.4740 C   0  0  0  0  0  0  0  0  0  0  0  0
   60.7400   29.0750   47.0130 C   0  0  0  0  0  0  0  0  0  0  0  0
   60.6930   28.0060   47.9230 C   0  0  0  0  0  0  0  0  0  0  0  0
   60.6380   26.6410   47.4730 N   0  0  0  0  0  0  0  0  0  0  0  0
   59.4840   26.0480   46.8490 C   0  0  0  0  0  0  0  0  0  0  0  0
   58.4090   26.6970   46.7500 O   0  0  0  0  0  0  0  0  0  0  0  0
   59.5430   24.7320   46.2890 N   0  0  0  0  0  0  0  0  0  0  0  0
   58.4710   24.0490   45.6270 C   0  0  0  0  0  0  0  0  0  0  0  0
   58.7120   22.9660   44.7650 C   0  0  0  0  0  0  0  0  0  0  0  0
   57.6430   22.2980   44.1600 C   0  0  0  0  0  0  0  0  0  0  0  0
   56.3310   22.6930   44.4220 C   0  0  0  0  0  0  0  0  0  0  0  0
   56.0790   23.7530   45.3060 C   0  0  0  0  0  0  0  0  0  0  0  0
   54.4300   24.2610   45.6510 S   0  0  0  0  0  0  0  0  0  0  0  0
   54.3970   25.9690   45.9140 N   0  0  0  0  0  0  0  0  0  0  0  0
   53.5270   23.9190   44.4990 O   0  0  0  0  0  0  0  0  0  0  0  0
   53.9340   23.5530   46.8810 O   0  0  0  0  0  0  0  0  0  0  0  0
   57.1520   24.4220   45.9080 C   0  0  0  0  0  0  0  0  0  0  0  0
   60.7760   28.2730   49.2980 C   0  0  0  0  0  0  0  0  0  0  0  0
   60.8740   29.5890   49.7580 C   0  0  0  0  0  0  0  0  0  0  0  0
   60.4210   33.7050   47.2980 C   0  0  0  0  0  0  0  0  0  0  0  0
   59.3090   34.1900   46.3640 C   0  0  0  0  0  0  0  0  0  0  0  0
   57.7956   32.1385   42.6738 H   0  0  0  0  0  0  0  0  0  0  0  0
   57.7069   30.4197   42.1595 H   0  0  0  0  0  0  0  0  0  0  0  0
   56.2249   31.4348   42.1595 H   0  0  0  0  0  0  0  0  0  0  0  0
   58.0988   30.1422   45.8000 H   0  0  0  0  0  0  0  0  0  0  0  0
   58.1714   29.0759   44.3563 H   0  0  0  0  0  0  0  0  0  0  0  0
   59.0403   30.6480   44.3563 H   0  0  0  0  0  0  0  0  0  0  0  0
   55.4019   29.6242   45.1764 H   0  0  0  0  0  0  0  0  0  0  0  0
   54.8330   30.3193   43.6208 H   0  0  0  0  0  0  0  0  0  0  0  0
   55.9550   28.9165   43.6208 H   0  0  0  0  0  0  0  0  0  0  0  0
   57.1017   31.7929   47.3208 H   0  0  0  0  0  0  0  0  0  0  0  0
   58.8039   31.2832   47.0323 H   0  0  0  0  0  0  0  0  0  0  0  0
   57.8207   33.4833   48.9166 H   0  0  0  0  0  0  0  0  0  0  0  0
   58.5825   31.8791   49.3475 H   0  0  0  0  0  0  0  0  0  0  0  0
   60.8762   31.2219   46.7549 H   0  0  0  0  0  0  0  0  0  0  0  0
   60.6931   28.8761   45.9322 H   0  0  0  0  0  0  0  0  0  0  0  0
   61.4770   26.0470   47.6500 H   0  0  0  0  0  0  0  0  0  0  0  0
   59.7444   22.6428   44.5656 H   0  0  0  0  0  0  0  0  0  0  0  0
   57.8370   21.4589   43.4757 H   0  0  0  0  0  0  0  0  0  0  0  0
   55.4930   22.1728   43.9350 H   0  0  0  0  0  0  0  0  0  0  0  0
   53.5400   26.3360   45.4420 H   0  0  0  0  0  0  0  0  0  0  0  0
   56.9562   25.2478   46.6078 H   0  0  0  0  0  0  0  0  0  0  0  0
   60.7639   27.4416   50.0181 H   0  0  0  0  0  0  0  0  0  0  0  0
   60.9199   29.7896   50.8386 H   0  0  0  0  0  0  0  0  0  0  0  0
   61.1612   34.5101   47.4158 H   0  0  0  0  0  0  0  0  0  0  0  0
   60.8733   32.8087   46.8485 H   0  0  0  0  0  0  0  0  0  0  0  0
   58.8560   35.1019   46.7802 H   0  0  0  0  0  0  0  0  0  0  0  0
   59.7378   34.4040   45.3739 H   0  0  0  0  0  0  0  0  0  0  0  0
  1  2  1  0
  2  3  1  0
  2  4  1  0
  2  5  1  0
  5  6  1  0
  6  7  2  0
  6  8  1  0
  8  9  1  0
  9 10  1  0
 10 11  1  0
 11 12  1  0
 12 13  2  0
 12 14  2  0
 12 15  1  0
 15 16  2  0
 16 17  1  0
 17 18  2  0
 18 19  1  0
 19 20  1  0
 20 21  2  0
 20 22  1  0
 22 23  1  0
 23 24  2  0
 24 25  1  0
 25 26  2  0
 26 27  1  0
 27 28  1  0
 28 29  1  0
 28 30  2  0
 28 31  2  0
 27 32  2  0
 18 33  1  0
 33 34  2  0
 11 35  1  0
 35 36  1  0
 36  8  1  0
 34 15  1  0
 32 23  1  0
  1 37  1  0
  1 38  1  0
  1 39  1  0
  3 40  1  0
  3 41  1  0
  3 42  1  0
  4 43  1  0
  4 44  1  0
  4 45  1  0
  9 46  1  0
  9 47  1  0
 10 48  1  0
 10 49  1  0
 16 50  1  0
 17 51  1  0
 19 52  1  0
 24 53  1  0
 25 54  1  0
 26 55  1  0
 29 56  1  0
 32 57  1  0
 33 58  1  0
 34 59  1  0
 35 60  1  0
 35 61  1  0
 36 62  1  0
 36 63  1  0
M  CHG  2  22  -1  29  -1
M  END
>  <UniqueID>  (3) 
3

>  <SMILES>  (3) 
CC(C)(C)OC(=O)N1CCN(S(=O)(=O)c2ccc(NC(=O)[N-]c3cccc(S([NH-])(=O)=O)c3)cc2)CC1

>  <Energy>  (3) 
72.32475721845397

>  <Genealogy>  (3) 
CC(C)(C)OC(=O)N1CCN(S(=O)(=O)c2ccc(NC(=O)[N-]c3cccc(S([NH-])(=O)=O)c3)cc2)CC1 (protonated)
CC(C)(C)OC(=O)N1CCN(S(=O)(=O)c2ccc(NC(=O)[N-]c3cccc(S([NH-])(=O)=O)c3)cc2)CC1 (3D coordinates assigned)
CC(C)(C)OC(=O)N1CCN(S(=O)(=O)c2ccc(NC(=O)[N-]c3cccc(S([NH-])(=O)=O)c3)cc2)CC1 (nonaromatic ring conformer: 72.32475721845397 kcal/mol)

>  <smiles>  (3) 
CC(C)(C)OC(=O)N1CCN(S(=O)(=O)c2ccc(NC(=O)Nc3cccc(S(N)(=O)=O)c3)cc2)CC1

>  <score_type>  (3) 
oracle

>  <origin>  (3) 
adg

>  <m_score__min__energy>  (3) 
-14

>  <m_primary>  (3) 
energy

$$$$
3:0
     RDKit          3D

 15 15  0  0  0  0  0  0  0  0999 V2000
   56.8930   26.0960   46.2210 C   0  0  0  0  0  0  0  0  0  0  0  0
   57.1370   27.4570   45.7290 N   0  0  0  0  0  0  0  0  0  0  0  0
   56.1130   28.1880   45.2630 N   0  0  0  0  0  0  0  0  0  0  0  0
   56.2910   29.4540   44.7970 C   0  0  0  0  0  0  0  0  0  0  0  0
   55.3050   30.1120   44.3660 O   0  0  0  0  0  0  0  0  0  0  0  0
   57.5680   30.0180   44.7990 C   0  0  0  0  0  0  0  0  0  0  0  0
   57.8720   31.7950   44.1540 Br  0  0  0  0  0  0  0  0  0  0  0  0
   58.6350   29.2660   45.2800 C   0  0  0  0  0  0  0  0  0  0  0  0
   58.4050   27.9730   45.7480 C   0  0  0  0  0  0  0  0  0  0  0  0
   59.3740   27.2930   46.1850 O   0  0  0  0  0  0  0  0  0  0  0  0
   56.8934   26.0982   47.3210 H   0  0  0  0  0  0  0  0  0  0  0  0
   55.9173   25.7434   45.8554 H   0  0  0  0  0  0  0  0  0  0  0  0
   57.6854   25.4264   45.8554 H   0  0  0  0  0  0  0  0  0  0  0  0
   55.1460   27.7880   45.2510 H   0  0  0  0  0  0  0  0  0  0  0  0
   59.6509   29.6877   45.2910 H   0  0  0  0  0  0  0  0  0  0  0  0
  1  2  1  0
  2  3  1  0
  3  4  1  0
  4  5  2  0
  4  6  1  0
  6  7  1  0
  6  8  2  0
  8  9  1  0
  9 10  2  0
  9  2  1  0
  1 11  1  0
  1 12  1  0
  1 13  1  0
  3 14  1  0
  8 15  1  0
M  END
>  <UniqueID>  (4) 
4

>  <SMILES>  (4) 
Cn1[nH]c(=O)c(Br)cc1=O

>  <Energy>  (4) 
15.686201005405982

>  <Genealogy>  (4) 
Cn1[nH]c(=O)c(Br)cc1=O (3D coordinates assigned)
Cn1[nH]c(=O)c(Br)cc1=O (optimized conformer: 15.686201005405982 kcal/mol)

>  <smiles>  (4) 
Cn1[nH]c(=O)c(Br)cc1=O

>  <score_type>  (4) 
oracle

>  <origin>  (4) 
adg

>  <m_score__min__energy>  (4) 
-5

>  <m_primary>  (4) 
energy

$$$$
4:0
     RDKit          3D

 40 42  0  0  0  0  0  0  0  0999 V2000
   59.4420   34.1750   46.9160 C   0  0  0  0  0  0  0  0  0  0  0  0
   58.7030   33.0680   46.2140 C   0  0  0  0  0  0  0  0  0  0  0  0
   58.1390   33.3120   44.9520 C   0  0  0  0  0  0  0  0  0  0  0  0
   57.4590   32.3030   44.2690 C   0  0  0  0  0  0  0  0  0  0  0  0
   57.3320   31.0330   44.8380 C   0  0  0  0  0  0  0  0  0  0  0  0
   56.4650   29.7570   43.9910 S   0  0  0  0  0  0  0  0  0  0  0  0
   56.2020   30.1450   42.5630 O   0  0  0  0  0  0  0  0  0  0  0  0
   55.1500   29.5210   44.6780 O   0  0  0  0  0  0  0  0  0  0  0  0
   57.3890   28.2900   44.0200 N   0  0  0  0  0  0  0  0  0  0  0  0
   57.7790   27.5830   45.2070 C   0  0  0  0  0  0  0  0  0  0  0  0
   59.1220   27.4890   45.6140 C   0  0  0  0  0  0  0  0  0  0  0  0
   59.4530   26.7750   46.7670 C   0  0  0  0  0  0  0  0  0  0  0  0
   58.4420   26.1610   47.5060 C   0  0  0  0  0  0  0  0  0  0  0  0
   57.1480   26.2690   47.1080 N   0  0  0  0  0  0  0  0  0  0  0  0
   56.7950   26.9610   45.9910 C   0  0  0  0  0  0  0  0  0  0  0  0
   55.5810   27.0380   45.6680 O   0  0  0  0  0  0  0  0  0  0  0  0
   57.8820   30.7790   46.0980 C   0  0  0  0  0  0  0  0  0  0  0  0
   58.5690   31.7860   46.8010 C   0  0  0  0  0  0  0  0  0  0  0  0
   59.1140   31.5160   48.1070 N   0  0  0  0  0  0  0  0  0  0  0  0
   60.6800   30.8100   48.3480 S   0  0  0  0  0  0  0  0  0  0  0  0
   60.8590   29.6580   47.4000 O   0  0  0  0  0  0  0  0  0  0  0  0
   60.7850   30.3110   49.7610 O   0  0  0  0  0  0  0  0  0  0  0  0
   61.9290   32.0130   48.0830 C   0  0  0  0  0  0  0  0  0  0  0  0
   62.9350   31.9390   47.1330 C   0  0  0  0  0  0  0  0  0  0  0  0
   63.7710   33.0610   47.1360 C   0  0  0  0  0  0  0  0  0  0  0  0
   63.4170   34.0160   48.0800 C   0  0  0  0  0  0  0  0  0  0  0  0
   62.0690   33.4610   48.9210 S   0  0  0  0  0  0  0  0  0  0  0  0
   59.3534   34.0423   48.0044 H   0  0  0  0  0  0  0  0  0  0  0  0
   60.5034   34.1473   46.6284 H   0  0  0  0  0  0  0  0  0  0  0  0
   59.0094   35.1446   46.6284 H   0  0  0  0  0  0  0  0  0  0  0  0
   58.2341   34.3089   44.4968 H   0  0  0  0  0  0  0  0  0  0  0  0
   57.0219   32.5077   43.2805 H   0  0  0  0  0  0  0  0  0  0  0  0
   59.9112   27.9779   45.0240 H   0  0  0  0  0  0  0  0  0  0  0  0
   60.5017   26.6973   47.0898 H   0  0  0  0  0  0  0  0  0  0  0  0
   58.6928   25.5891   48.4115 H   0  0  0  0  0  0  0  0  0  0  0  0
   57.7764   29.7796   46.5454 H   0  0  0  0  0  0  0  0  0  0  0  0
   58.6160   31.8510   48.9600 H   0  0  0  0  0  0  0  0  0  0  0  0
   63.0630   31.0876   46.4484 H   0  0  0  0  0  0  0  0  0  0  0  0
   64.6274   33.1757   46.4552 H   0  0  0  0  0  0  0  0  0  0  0  0
   63.9310   34.9737   48.2495 H   0  0  0  0  0  0  0  0  0  0  0  0
  1  2  1  0
  2  3  2  0
  3  4  1  0
  4  5  2  0
  5  6  1  0
  6  7  2  0
  6  8  2  0
  6  9  1  0
  9 10  1  0
 10 11  2  0
 11 12  1  0
 12 13  2  0
 13 14  1  0
 14 15  1  0
 15 16  2  0
  5 17  1  0
 17 18  2  0
 18 19  1  0
 19 20  1  0
 20 21  2  0
 20 22  2  0
 20 23  1  0
 23 24  2  0
 24 25  1  0
 25 26  2  0
 26 27  1  0
 18  2  1  0
 27 23  1  0
 15 10  1  0
  1 28  1  0
  1 29  1  0
  1 30  1  0
  3 31  1  0
  4 32  1  0
 11 33  1  0
 12 34  1  0
 13 35  1  0
 17 36  1  0
 19 37  1  0
 24 38  1  0
 25 39  1  0
 26 40  1  0
M  CHG  2   9  -1  14  -1
M  END
>  <UniqueID>  (5) 
5

>  <SMILES>  (5) 
Cc1ccc(S(=O)(=O)[N-]c2ccc[n-]c2=O)cc1NS(=O)(=O)c1cccs1

>  <Energy>  (5) 
72.76287075629571

>  <Genealogy>  (5) 
Cc1ccc(S(=O)(=O)[N-]c2ccc[n-]c2=O)cc1NS(=O)(=O)c1cccs1 (protonated)
Cc1ccc(S(=O)(=O)[N-]c2ccc[n-]c2=O)cc1NS(=O)(=O)c1cccs1 (3D coordinates assigned)
Cc1ccc(S(=O)(=O)[N-]c2ccc[n-]c2=O)cc1NS(=O)(=O)c1cccs1 (optimized conformer: 72.76287075629571 kcal/mol)

>  <smiles>  (5) 
Cc1ccc(S(=O)(=O)Nc2ccc[nH]c2=O)cc1NS(=O)(=O)c1cccs1

>  <score_type>  (5) 
oracle

>  <origin>  (5) 
adg

>  <m_score__min__energy>  (5) 
-13.029999999999999

>  <m_primary>  (5) 
energy

$$$$
5:0
     RDKit          3D

 57 60  0  0  0  0  0  0  0  0999 V2000
   52.3380   32.0320   50.1450 H   0  0  0  0  0  0  0  0  0  0  0  0
   51.4260   32.4050   50.4890 N   0  0  0  0  0  0  0  0  0  0  0  0
   51.0470   32.2690   51.8540 C   0  0  0  0  0  0  0  0  0  0  0  0
   50.2340   33.0890   52.3590 O   0  0  0  0  0  0  0  0  0  0  0  0
   51.6030   31.1960   52.6300 N   0  0  0  0  0  0  0  0  0  0  0  0
   52.8580   30.8610   52.6870 C   0  0  0  0  0  0  0  0  0  0  0  0
   53.7320   31.0030   51.6630 N   0  0  0  0  0  0  0  0  0  0  0  0
   54.9740   30.5710   52.0080 C   0  0  0  0  0  0  0  0  0  0  0  0
   55.8271   30.5978   51.3141 H   0  0  0  0  0  0  0  0  0  0  0  0
   55.0780   30.0930   53.3080 C   0  0  0  0  0  0  0  0  0  0  0  0
   56.5700   29.4630   54.0740 S   0  0  0  0  0  0  0  0  0  0  0  0
   57.3160   31.1100   54.3430 C   0  0  0  0  0  0  0  0  0  0  0  0
   56.5390   31.8039   54.6962 H   0  0  0  0  0  0  0  0  0  0  0  0
   58.1160   31.0153   55.0921 H   0  0  0  0  0  0  0  0  0  0  0  0
   57.9110   31.6440   53.0700 C   0  0  0  0  0  0  0  0  0  0  0  0
   57.8940   33.0200   52.8110 C   0  0  0  0  0  0  0  0  0  0  0  0
   57.4097   33.7104   53.5172 H   0  0  0  0  0  0  0  0  0  0  0  0
   58.4950   33.5090   51.6520 C   0  0  0  0  0  0  0  0  0  0  0  0
   58.4736   34.5873   51.4357 H   0  0  0  0  0  0  0  0  0  0  0  0
   59.1270   32.6290   50.7610 C   0  0  0  0  0  0  0  0  0  0  0  0
   59.7710   33.1290   49.5280 C   0  0  0  0  0  0  0  0  0  0  0  0
   60.7030   33.9750   49.6170 O   0  0  0  0  0  0  0  0  0  0  0  0
   59.3460   32.6800   48.2280 N   0  0  0  0  0  0  0  0  0  0  0  0
   57.9170   32.7100   47.8830 C   0  0  0  0  0  0  0  0  0  0  0  0
   57.3884   31.9505   48.4778 H   0  0  0  0  0  0  0  0  0  0  0  0
   57.5273   33.7151   48.1019 H   0  0  0  0  0  0  0  0  0  0  0  0
   57.6990   32.4190   46.3930 C   0  0  0  0  0  0  0  0  0  0  0  0
   57.9590   31.3693   46.1916 H   0  0  0  0  0  0  0  0  0  0  0  0
   56.6430   32.6125   46.1534 H   0  0  0  0  0  0  0  0  0  0  0  0
   58.5830   33.3420   45.4970 C   0  0  0  0  0  0  0  0  0  0  0  0
   58.0940   34.6630   45.6040 O   0  0  0  0  0  0  0  0  0  0  0  0
   58.3750   35.1700   44.7970 H   0  0  0  0  0  0  0  0  0  0  0  0
   58.4930   32.9170   43.9960 C   0  0  0  0  0  0  0  0  0  0  0  0
   57.7685   33.5786   43.4986 H   0  0  0  0  0  0  0  0  0  0  0  0
   59.5140   32.9999   43.5952 H   0  0  0  0  0  0  0  0  0  0  0  0
   58.0630   31.4850   43.7520 C   0  0  0  0  0  0  0  0  0  0  0  0
   58.7040   30.4290   44.4250 C   0  0  0  0  0  0  0  0  0  0  0  0
   59.5227   30.6453   45.1271 H   0  0  0  0  0  0  0  0  0  0  0  0
   58.3070   29.1060   44.2070 C   0  0  0  0  0  0  0  0  0  0  0  0
   58.8214   28.2848   44.7275 H   0  0  0  0  0  0  0  0  0  0  0  0
   57.2580   28.8270   43.3290 C   0  0  0  0  0  0  0  0  0  0  0  0
   56.9528   27.7853   43.1508 H   0  0  0  0  0  0  0  0  0  0  0  0
   56.5960   29.8690   42.6770 C   0  0  0  0  0  0  0  0  0  0  0  0
   55.7640   29.6478   41.9923 H   0  0  0  0  0  0  0  0  0  0  0  0
   56.9890   31.1930   42.8930 C   0  0  0  0  0  0  0  0  0  0  0  0
   56.4548   32.0112   42.3879 H   0  0  0  0  0  0  0  0  0  0  0  0
   60.0710   33.3670   45.9890 C   0  0  0  0  0  0  0  0  0  0  0  0
   60.7185   33.0621   45.1537 H   0  0  0  0  0  0  0  0  0  0  0  0
   60.2809   34.3919   46.3289 H   0  0  0  0  0  0  0  0  0  0  0  0
   60.3410   32.4360   47.1760 C   0  0  0  0  0  0  0  0  0  0  0  0
   60.2736   31.3896   46.8436 H   0  0  0  0  0  0  0  0  0  0  0  0
   61.3482   32.6315   47.5726 H   0  0  0  0  0  0  0  0  0  0  0  0
   59.1070   31.2560   51.0480 C   0  0  0  0  0  0  0  0  0  0  0  0
   59.5735   30.5447   50.3505 H   0  0  0  0  0  0  0  0  0  0  0  0
   58.5140   30.7990   52.1840 N   0  0  0  0  0  0  0  0  0  0  0  0
   58.5390   29.7720   52.3770 H   0  0  0  0  0  0  0  0  0  0  0  0
   53.5760   30.2010   54.0560 S   0  0  0  0  0  0  0  0  0  0  0  0
  1  2  1  0
  2  3  1  0
  3  4  2  0
  3  5  1  0
  5  6  2  0
  6  7  1  0
  7  8  1  0
  8  9  1  0
  8 10  2  0
 10 11  1  0
 11 12  1  0
 12 13  1  0
 12 14  1  0
 12 15  1  0
 15 16  2  0
 16 17  1  0
 16 18  1  0
 18 19  1  0
 18 20  2  0
 20 21  1  0
 21 22  2  0
 21 23  1  0
 23 24  1  0
 24 25  1  0
 24 26  1  0
 24 27  1  0
 27 28  1  0
 27 29  1  0
 27 30  1  0
 30 31  1  0
 31 32  1  0
 30 33  1  0
 33 34  1  0
 33 35  1  0
 33 36  1  0
 36 37  2  0
 37 38  1  0
 37 39  1  0
 39 40  1  0
 39 41  2  0
 41 42  1  0
 41 43  1  0
 43 44  1  0
 43 45  2  0
 45 46  1  0
 30 47  1  0
 47 48  1  0
 47 49  1  0
 47 50  1  0
 50 51  1  0
 50 52  1  0
 20 53  1  0
 53 54  1  0
 53 55  2  0
 55 56  1  0
 10 57  1  0
 57  6  1  0
 55 15  1  0
 50 23  1  0
 45 36  1  0
M  CHG  3   2  -1   7  -1  55   1
M  END
>  <UniqueID>  (6) 
6

>  <SMILES>  (6) 
[NH-]C(=O)/N=c1\[n-]cc(SCc2ccc(C(=O)N3CCC(O)(Cc4ccccc4)CC3)c[nH+]2)s1

>  <Energy>  (6) 
98.25944800524948

>  <Genealogy>  (6) 
[NH-]C(=O)N=c1[n-]cc(SCc2ccc(C(=O)N3CCC(O)(Cc4ccccc4)CC3)c[nH+]2)s1 (protonated)
[NH-]C(=O)/N=c1\[n-]cc(SCc2ccc(C(=O)N3CCC(O)(Cc4ccccc4)CC3)c[nH+]2)s1 (cis-trans isomerization)
[NH-]C(=O)/N=c1\[n-]cc(SCc2ccc(C(=O)N3CCC(O)(Cc4ccccc4)CC3)c[nH+]2)s1 (3D coordinates assigned)
[NH-]C(=O)/N=c1\[n-]cc(SCc2ccc(C(=O)N3CCC(O)(Cc4ccccc4)CC3)c[nH+]2)s1 (nonaromatic ring conformer: 98.25944800524948 kcal/mol)

>  <smiles>  (6) 
NC(=O)N=c1[nH]cc(SCc2ccc(C(=O)N3CCC(O)(Cc4ccccc4)CC3)cn2)s1

>  <score_type>  (6) 
oracle

>  <origin>  (6) 
adg

>  <m_score__min__energy>  (6) 
-10.970000000000001

>  <m_primary>  (6) 
energy

$$$$
6:0
     RDKit          3D

 37 39  0  0  0  0  0  0  0  0999 V2000
   56.1270   29.3350   44.1350 N   0  0  0  0  0  0  0  0  0  0  0  0
   56.9100   29.6120   45.1260 C   0  0  0  0  0  0  0  0  0  0  0  0
   57.3110   30.8930   45.3310 N   0  0  0  0  0  0  0  0  0  0  0  0
   58.1310   31.2120   46.3660 C   0  0  0  0  0  0  0  0  0  0  0  0
   58.5660   30.2210   47.2470 C   0  0  0  0  0  0  0  0  0  0  0  0
   59.4270   30.5660   48.3000 O   0  0  0  0  0  0  0  0  0  0  0  0
   59.0870   31.3940   49.3800 C   0  0  0  0  0  0  0  0  0  0  0  0
   58.1060   30.9590   50.2750 C   0  0  0  0  0  0  0  0  0  0  0  0
   57.7220   31.7500   51.3720 C   0  0  0  0  0  0  0  0  0  0  0  0
   56.6130   31.2750   52.2320 C   0  0  0  0  0  0  0  0  0  0  0  0
   56.6430   31.4900   53.4740 O   0  0  0  0  0  0  0  0  0  0  0  0
   55.4620   30.6670   51.6320 N   0  0  0  0  0  0  0  0  0  0  0  0
   54.0990   30.8180   52.0560 C   0  0  0  0  0  0  0  0  0  0  0  0
   53.6640   30.1080   53.1840 C   0  0  0  0  0  0  0  0  0  0  0  0
   52.3500   30.2420   53.6400 C   0  0  0  0  0  0  0  0  0  0  0  0
   51.4640   31.1000   52.9840 C   0  0  0  0  0  0  0  0  0  0  0  0
   51.8950   31.8340   51.8740 C   0  0  0  0  0  0  0  0  0  0  0  0
   51.0190   32.7000   51.2330 O   0  0  0  0  0  0  0  0  0  0  0  0
   53.2100   31.6990   51.4120 C   0  0  0  0  0  0  0  0  0  0  0  0
   58.3830   32.9840   51.5970 C   0  0  0  0  0  0  0  0  0  0  0  0
   58.1160   33.7880   52.7550 N   0  0  0  0  0  0  0  0  0  0  0  0
   59.3750   33.4070   50.7000 C   0  0  0  0  0  0  0  0  0  0  0  0
   59.7320   32.6200   49.6050 C   0  0  0  0  0  0  0  0  0  0  0  0
   60.7420   33.0310   48.7970 F   0  0  0  0  0  0  0  0  0  0  0  0
   58.1550   28.9010   47.0080 C   0  0  0  0  0  0  0  0  0  0  0  0
   57.3350   28.6260   45.9590 N   0  0  0  0  0  0  0  0  0  0  0  0
   56.2650   28.4780   43.5530 H   0  0  0  0  0  0  0  0  0  0  0  0
   58.4529   32.2539   46.5100 H   0  0  0  0  0  0  0  0  0  0  0  0
   57.6263   29.9815   50.1186 H   0  0  0  0  0  0  0  0  0  0  0  0
   54.3611   29.4416   53.7131 H   0  0  0  0  0  0  0  0  0  0  0  0
   52.0125   29.6707   54.5173 H   0  0  0  0  0  0  0  0  0  0  0  0
   50.4279   31.1984   53.3402 H   0  0  0  0  0  0  0  0  0  0  0  0
   53.5491   32.2829   50.5436 H   0  0  0  0  0  0  0  0  0  0  0  0
   58.4500   34.7770   52.8000 H   0  0  0  0  0  0  0  0  0  0  0  0
   57.7030   33.3870   53.6250 H   0  0  0  0  0  0  0  0  0  0  0  0
   59.8779   34.3718   50.8622 H   0  0  0  0  0  0  0  0  0  0  0  0
   58.4957   28.0899   47.6683 H   0  0  0  0  0  0  0  0  0  0  0  0
  1  2  2  3
  2  3  1  0
  3  4  2  0
  4  5  1  0
  5  6  1  0
  6  7  1  0
  7  8  2  0
  8  9  1  0
  9 10  1  0
 10 11  2  0
 10 12  1  0
 12 13  1  0
 13 14  2  0
 14 15  1  0
 15 16  2  0
 16 17  1  0
 17 18  1  0
 17 19  2  0
  9 20  2  0
 20 21  1  0
 20 22  1  0
 22 23  2  0
 23 24  1  0
  5 25  2  0
 25 26  1  0
 26  2  1  0
 23  7  1  0
 19 13  1  0
  1 27  1  0
  4 28  1  0
  8 29  1  0
 14 30  1  0
 15 31  1  0
 16 32  1  0
 19 33  1  0
 21 34  1  0
 21 35  1  0
 22 36  1  0
 25 37  1  0
M  CHG  3  12  -1  18  -1  26  -1
M  END
>  <UniqueID>  (7) 
7

>  <SMILES>  (7) 
N=c1ncc(Oc2cc(C(=O)[N-]c3cccc([O-])c3)c(N)cc2F)c[n-]1

>  <Energy>  (7) 
57.0696706626608

>  <Genealogy>  (7) 
N=c1ncc(Oc2cc(C(=O)[N-]c3cccc([O-])c3)c(N)cc2F)c[n-]1 (protonated)
N=c1ncc(Oc2cc(C(=O)[N-]c3cccc([O-])c3)c(N)cc2F)c[n-]1 (3D coordinates assigned)
N=c1ncc(Oc2cc(C(=O)[N-]c3cccc([O-])c3)c(N)cc2F)c[n-]1 (optimized conformer: 57.0696706626608 kcal/mol)

>  <smiles>  (7) 
N=c1ncc(Oc2cc(C(=O)Nc3cccc(O)c3)c(N)cc2F)c[nH]1

>  <score_type>  (7) 
oracle

>  <origin>  (7) 
adg

>  <m_score__min__energy>  (7) 
-12.970000000000001

>  <m_primary>  (7) 
energy

$$$$
7:0
     RDKit          3D

 61 64  0  0  0  0  0  0  0  0999 V2000
   58.5570   30.0660   50.5330 C   0  0  0  0  0  0  0  0  0  0  0  0
   58.0680   31.4300   51.0340 C   0  0  0  0  0  0  0  0  0  0  0  0
   58.0110   32.4310   49.9530 N   0  0  0  0  0  0  0  0  0  0  0  0
   58.6120   31.9450   48.6980 C   0  0  0  0  0  0  0  0  0  0  0  0
   58.7400   33.0980   47.6730 C   0  0  1  0  0  0  0  0  0  0  0  0
   60.1840   33.6420   47.6670 C   0  0  0  0  0  0  0  0  0  0  0  0
   60.3940   34.8230   46.6900 C   0  0  0  0  0  0  0  0  0  0  0  0
   59.2820   34.9980   45.6340 C   0  0  0  0  0  0  0  0  0  0  0  0
   58.6700   33.6800   45.2360 C   0  0  0  0  0  0  0  0  0  0  0  0
   58.3590   33.4120   43.8950 C   0  0  0  0  0  0  0  0  0  0  0  0
   57.7750   32.1970   43.5400 C   0  0  0  0  0  0  0  0  0  0  0  0
   57.4660   31.2490   44.5220 C   0  0  0  0  0  0  0  0  0  0  0  0
   56.7840   29.6890   44.0600 S   0  0  0  0  0  0  0  0  0  0  0  0
   55.5530   29.4000   44.8790 O   0  0  0  0  0  0  0  0  0  0  0  0
   56.3910   29.7260   42.6090 O   0  0  0  0  0  0  0  0  0  0  0  0
   57.9780   28.4470   44.3020 N   0  0  0  0  0  0  0  0  0  0  0  0
   59.2910   29.0440   44.5250 C   0  0  0  0  0  0  0  0  0  0  0  0
   59.7790   28.6750   45.8950 C   0  0  0  0  0  0  0  0  0  0  0  0
   59.7910   27.3350   46.3150 C   0  0  0  0  0  0  0  0  0  0  0  0
   60.2690   27.0020   47.5850 C   0  0  0  0  0  0  0  0  0  0  0  0
   60.7310   28.0040   48.4450 C   0  0  0  0  0  0  0  0  0  0  0  0
   60.7190   29.3450   48.0440 C   0  0  0  0  0  0  0  0  0  0  0  0
   61.1980   30.3190   48.9360 O   0  0  0  0  0  0  0  0  0  0  0  0
   62.1250   31.3310   48.6330 C   0  0  0  0  0  0  0  0  0  0  0  0
   62.6220   31.5330   47.3320 C   0  0  0  0  0  0  0  0  0  0  0  0
   63.5320   32.5630   47.0800 C   0  0  0  0  0  0  0  0  0  0  0  0
   63.9370   33.4110   48.1140 C   0  0  0  0  0  0  0  0  0  0  0  0
   63.4300   33.2320   49.3980 C   0  0  0  0  0  0  0  0  0  0  0  0
   62.5250   32.1990   49.6560 C   0  0  0  0  0  0  0  0  0  0  0  0
   60.2690   29.6740   46.7530 C   0  0  0  0  0  0  0  0  0  0  0  0
   57.7470   31.5240   45.8670 C   0  0  0  0  0  0  0  0  0  0  0  0
   58.3630   32.7380   46.2380 C   0  0  0  0  0  0  0  0  0  0  0  0
   58.7883   29.4208   51.3933 H   0  0  0  0  0  0  0  0  0  0  0  0
   57.7713   29.5962   49.9231 H   0  0  0  0  0  0  0  0  0  0  0  0
   59.4622   30.2024   49.9231 H   0  0  0  0  0  0  0  0  0  0  0  0
   57.0610   31.3109   51.4603 H   0  0  0  0  0  0  0  0  0  0  0  0
   58.7821   31.7887   51.7899 H   0  0  0  0  0  0  0  0  0  0  0  0
   57.0150   32.7130   49.7760 H   0  0  0  0  0  0  0  0  0  0  0  0
   59.6113   31.5371   48.9100 H   0  0  0  0  0  0  0  0  0  0  0  0
   57.9642   31.1637   48.2738 H   0  0  0  0  0  0  0  0  0  0  0  0
   58.0130   33.8512   48.0108 H   0  0  0  0  0  0  0  0  0  0  0  0
   60.4322   33.9823   48.6832 H   0  0  0  0  0  0  0  0  0  0  0  0
   60.8370   32.8233   47.3303 H   0  0  0  0  0  0  0  0  0  0  0  0
   60.4530   35.7490   47.2808 H   0  0  0  0  0  0  0  0  0  0  0  0
   61.3166   34.6025   46.1331 H   0  0  0  0  0  0  0  0  0  0  0  0
   58.4950   35.6438   46.0506 H   0  0  0  0  0  0  0  0  0  0  0  0
   59.7325   35.4483   44.7372 H   0  0  0  0  0  0  0  0  0  0  0  0
   58.5765   34.1628   43.1210 H   0  0  0  0  0  0  0  0  0  0  0  0
   57.5561   31.9825   42.4836 H   0  0  0  0  0  0  0  0  0  0  0  0
   59.9978   28.6691   43.7701 H   0  0  0  0  0  0  0  0  0  0  0  0
   59.2161   30.1384   44.4436 H   0  0  0  0  0  0  0  0  0  0  0  0
   59.4233   26.5458   45.6427 H   0  0  0  0  0  0  0  0  0  0  0  0
   60.2821   25.9509   47.9089 H   0  0  0  0  0  0  0  0  0  0  0  0
   61.1064   27.7361   49.4436 H   0  0  0  0  0  0  0  0  0  0  0  0
   62.2933   30.8784   46.5114 H   0  0  0  0  0  0  0  0  0  0  0  0
   63.9306   32.7066   46.0649 H   0  0  0  0  0  0  0  0  0  0  0  0
   64.6558   34.2192   47.9136 H   0  0  0  0  0  0  0  0  0  0  0  0
   63.7422   33.9045   50.2105 H   0  0  0  0  0  0  0  0  0  0  0  0
   62.1235   32.0667   50.6715 H   0  0  0  0  0  0  0  0  0  0  0  0
   60.3008   30.7196   46.4128 H   0  0  0  0  0  0  0  0  0  0  0  0
   57.4850   30.7870   46.6404 H   0  0  0  0  0  0  0  0  0  0  0  0
  1  2  1  0
  2  3  1  0
  3  4  1  0
  4  5  1  0
  5  6  1  0
  6  7  1  0
  7  8  1  0
  8  9  1  0
  9 10  2  0
 10 11  1  0
 11 12  2  0
 12 13  1  0
 13 14  2  0
 13 15  2  0
 13 16  1  0
 16 17  1  0
 17 18  1  0
 18 19  2  0
 19 20  1  0
 20 21  2  0
 21 22  1  0
 22 23  1  0
 23 24  1  0
 24 25  2  0
 25 26  1  0
 26 27  2  0
 27 28  1  0
 28 29  2  0
 22 30  2  0
 12 31  1  0
 31 32  2  0
 32  5  1  0
 32  9  1  0
 30 18  1  0
 29 24  1  0
  1 33  1  0
  1 34  1  0
  1 35  1  0
  2 36  1  0
  2 37  1  0
  3 38  1  0
  4 39  1  0
  4 40  1  0
  5 41  1  1
  6 42  1  0
  6 43  1  0
  7 44  1  0
  7 45  1  0
  8 46  1  0
  8 47  1  0
 10 48  1  0
 11 49  1  0
 17 50  1  0
 17 51  1  0
 19 52  1  0
 20 53  1  0
 21 54  1  0
 25 55  1  0
 26 56  1  0
 27 57  1  0
 28 58  1  0
 29 59  1  0
 30 60  1  0
 31 61  1  0
M  CHG  1  16  -1
M  END
>  <UniqueID>  (8) 
8

>  <SMILES>  (8) 
CCNC[C@H]1CCCc2ccc(S(=O)(=O)[N-]Cc3cccc(Oc4ccccc4)c3)cc21

>  <Energy>  (8) 
73.07205727814159

>  <Genealogy>  (8) 
CCNCC1CCCc2ccc(S(=O)(=O)[N-]Cc3cccc(Oc4ccccc4)c3)cc21 (protonated)
CCNC[C@H]1CCCc2ccc(S(=O)(=O)[N-]Cc3cccc(Oc4ccccc4)c3)cc21 (chirality)
CCNC[C@H]1CCCc2ccc(S(=O)(=O)[N-]Cc3cccc(Oc4ccccc4)c3)cc21 (3D coordinates assigned)
CCNC[C@H]1CCCc2ccc(S(=O)(=O)[N-]Cc3cccc(Oc4ccccc4)c3)cc21 (nonaromatic ring conformer: 73.07205727814159 kcal/mol)

>  <smiles>  (8) 
CCNCC1CCCc2ccc(S(=O)(=O)NCc3cccc(Oc4ccccc4)c3)cc21

>  <score_type>  (8) 
oracle

>  <origin>  (8) 
adg

>  <m_score__min__energy>  (8) 
-11.17

>  <m_primary>  (8) 
energy

$$$$
8:0
     RDKit          3D

 52 55  0  0  0  0  0  0  0  0999 V2000
   59.0850   29.5710   51.1660 H   0  0  0  0  0  0  0  0  0  0  0  0
   59.6700   28.8510   50.7560 O   0  0  0  0  0  0  0  0  0  0  0  0
   59.9310   28.8090   49.3860 C   0  0  0  0  0  0  0  0  0  0  0  0
   60.0990   27.5650   48.7590 C   0  0  0  0  0  0  0  0  0  0  0  0
   60.0161   26.6422   49.3519 H   0  0  0  0  0  0  0  0  0  0  0  0
   60.3710   27.4840   47.3870 C   0  0  0  0  0  0  0  0  0  0  0  0
   60.5550   26.1410   46.7280 C   0  0  0  0  0  0  0  0  0  0  0  0
   61.5409   26.1111   46.2411 H   0  0  0  0  0  0  0  0  0  0  0  0
   60.4824   25.3593   47.4985 H   0  0  0  0  0  0  0  0  0  0  0  0
   59.5170   25.9040   45.7230 N   0  0  0  0  0  0  0  0  0  0  0  0
   58.2290   26.0590   45.8670 C   0  0  0  0  0  0  0  0  0  0  0  0
   57.3990   25.0620   46.4150 C   0  0  0  0  0  0  0  0  0  0  0  0
   57.8282   24.1069   46.7520 H   0  0  0  0  0  0  0  0  0  0  0  0
   56.0290   25.2950   46.5270 C   0  0  0  0  0  0  0  0  0  0  0  0
   55.3734   24.5177   46.9466 H   0  0  0  0  0  0  0  0  0  0  0  0
   55.5010   26.4780   46.1200 N   0  0  0  0  0  0  0  0  0  0  0  0
   56.2690   27.4690   45.5960 C   0  0  0  0  0  0  0  0  0  0  0  0
   55.6330   28.6920   45.2050 N   0  0  0  0  0  0  0  0  0  0  0  0
   56.3690   29.9720   44.2930 S   0  0  0  0  0  0  0  0  0  0  0  0
   55.5570   31.2220   44.4810 O   0  0  0  0  0  0  0  0  0  0  0  0
   56.3770   29.6180   42.8320 O   0  0  0  0  0  0  0  0  0  0  0  0
   58.0340   30.2770   44.8630 C   0  0  0  0  0  0  0  0  0  0  0  0
   58.2391   29.6434   45.7385 H   0  0  0  0  0  0  0  0  0  0  0  0
   58.7377   30.0401   44.0515 H   0  0  0  0  0  0  0  0  0  0  0  0
   58.2010   31.7220   45.2470 C   0  0  0  0  0  0  0  0  0  0  0  0
   58.4760   32.6880   44.2650 C   0  0  0  0  0  0  0  0  0  0  0  0
   58.5980   32.3834   43.2151 H   0  0  0  0  0  0  0  0  0  0  0  0
   58.5950   34.0350   44.6180 C   0  0  0  0  0  0  0  0  0  0  0  0
   58.8144   34.7871   43.8458 H   0  0  0  0  0  0  0  0  0  0  0  0
   58.4360   34.4290   45.9490 C   0  0  0  0  0  0  0  0  0  0  0  0
   58.5318   35.4897   46.2242 H   0  0  0  0  0  0  0  0  0  0  0  0
   58.1550   33.4740   46.9310 C   0  0  0  0  0  0  0  0  0  0  0  0
   58.0282   33.7844   47.9787 H   0  0  0  0  0  0  0  0  0  0  0  0
   58.0350   32.1250   46.5830 C   0  0  0  0  0  0  0  0  0  0  0  0
   57.8100   31.3769   47.3574 H   0  0  0  0  0  0  0  0  0  0  0  0
   57.6530   27.2690   45.4590 C   0  0  0  0  0  0  0  0  0  0  0  0
   58.2839   28.0622   45.0315 H   0  0  0  0  0  0  0  0  0  0  0  0
   60.5010   28.6650   46.6450 C   0  0  0  0  0  0  0  0  0  0  0  0
   60.7354   28.6130   45.5715 H   0  0  0  0  0  0  0  0  0  0  0  0
   60.3350   29.9070   47.2590 C   0  0  0  0  0  0  0  0  0  0  0  0
   60.4361   30.8250   46.6615 H   0  0  0  0  0  0  0  0  0  0  0  0
   60.0400   30.0020   48.6320 C   0  0  0  0  0  0  0  0  0  0  0  0
   59.8550   31.3450   49.2460 C   0  0  0  0  0  0  0  0  0  0  0  0
   60.8440   32.1220   49.3380 O   0  0  0  0  0  0  0  0  0  0  0  0
   58.5580   31.7590   49.7080 N   0  0  0  0  0  0  0  0  0  0  0  0
   58.0340   31.5770   50.8860 C   0  0  0  0  0  0  0  0  0  0  0  0
   57.4010   30.4320   51.2160 N   0  0  0  0  0  0  0  0  0  0  0  0
   56.9360   30.4600   52.4930 C   0  0  0  0  0  0  0  0  0  0  0  0
   56.3911   29.6155   52.9401 H   0  0  0  0  0  0  0  0  0  0  0  0
   57.1980   31.6320   53.1940 C   0  0  0  0  0  0  0  0  0  0  0  0
   56.9055   31.8435   54.2331 H   0  0  0  0  0  0  0  0  0  0  0  0
   58.0410   32.6690   52.1730 S   0  0  0  0  0  0  0  0  0  0  0  0
  1  2  1  0
  2  3  1  0
  3  4  2  0
  4  5  1  0
  4  6  1  0
  6  7  1  0
  7  8  1  0
  7  9  1  0
  7 10  1  0
 10 11  2  3
 11 12  1  0
 12 13  1  0
 12 14  2  0
 14 15  1  0
 14 16  1  0
 16 17  1  0
 17 18  1  0
 18 19  1  0
 19 20  2  0
 19 21  2  0
 19 22  1  0
 22 23  1  0
 22 24  1  0
 22 25  1  0
 25 26  2  0
 26 27  1  0
 26 28  1  0
 28 29  1  0
 28 30  2  0
 30 31  1  0
 30 32  1  0
 32 33  1  0
 32 34  2  0
 34 35  1  0
 17 36  2  0
 36 37  1  0
  6 38  2  0
 38 39  1  0
 38 40  1  0
 40 41  1  0
 40 42  2  0
 42 43  1  0
 43 44  2  0
 43 45  1  0
 45 46  2  0
 46 47  1  0
 47 48  1  0
 48 49  1  0
 48 50  2  0
 50 51  1  0
 50 52  1  0
 42  3  1  0
 52 46  1  0
 36 11  1  0
 34 25  1  0
M  CHG  3  16  -1  18  -1  47  -1
M  END
>  <UniqueID>  (9) 
9

>  <SMILES>  (9) 
O=C(/N=c1/[n-]ccs1)c1ccc(CN=c2cc[n-]c([N-]S(=O)(=O)Cc3ccccc3)c2)cc1O

>  <Energy>  (9) 
92.67375043654899

>  <Genealogy>  (9) 
O=C(N=c1[n-]ccs1)c1ccc(CN=c2cc[n-]c([N-]S(=O)(=O)Cc3ccccc3)c2)cc1O (protonated)
O=C(/N=c1/[n-]ccs1)c1ccc(CN=c2cc[n-]c([N-]S(=O)(=O)Cc3ccccc3)c2)cc1O (cis-trans isomerization)
O=C(/N=c1/[n-]ccs1)c1ccc(CN=c2cc[n-]c([N-]S(=O)(=O)Cc3ccccc3)c2)cc1O (3D coordinates assigned)
O=C(/N=c1/[n-]ccs1)c1ccc(CN=c2cc[n-]c([N-]S(=O)(=O)Cc3ccccc3)c2)cc1O (optimized conformer: 92.67375043654899 kcal/mol)

>  <smiles>  (9) 
O=C(N=c1[nH]ccs1)c1ccc(CN=c2cc[nH]c(NS(=O)(=O)Cc3ccccc3)c2)cc1O

>  <score_type>  (9) 
oracle

>  <origin>  (9) 
adg

>  <m_score__min__energy>  (9) 
-14.19

>  <m_primary>  (9) 
energy

$$$$
9:0
     RDKit          3D

 57 60  0  0  1  0  0  0  0  0999 V2000
   57.5500   22.9700   44.0840 C   0  0  0  0  0  0  0  0  0  0  0  0
   58.4650   22.5620   45.5540 S   0  0  0  0  0  0  0  0  0  0  0  0
   58.0370   21.2400   46.0960 O   0  0  0  0  0  0  0  0  0  0  0  0
   59.9540   22.5850   45.2440 O   0  0  0  0  0  0  0  0  0  0  0  0
   58.1490   23.7720   46.7380 N   0  0  0  0  0  0  0  0  0  0  0  0
   57.6720   25.0650   46.3970 C   0  0  0  0  0  0  0  0  0  0  0  0
   56.3190   25.3630   46.2760 C   0  0  0  0  0  0  0  0  0  0  0  0
   55.9450   26.6480   45.9340 C   0  0  0  0  0  0  0  0  0  0  0  0
   56.8770   27.6290   45.7130 C   0  0  0  0  0  0  0  0  0  0  0  0
   56.5370   28.9560   45.3400 N   0  0  0  0  0  0  0  0  0  0  0  0
   56.8020   29.4450   44.0200 C   0  0  0  0  0  0  0  0  0  0  0  0
   57.3490   28.7480   43.1420 O   0  0  0  0  0  0  0  0  0  0  0  0
   56.4260   30.8340   43.6510 C   0  0  0  0  0  0  0  0  0  0  0  0
   57.3980   31.7860   44.2230 C   0  0  0  0  0  0  0  0  0  0  0  0
   57.9710   32.8430   43.5770 C   0  0  0  0  0  0  0  0  0  0  0  0
   58.8730   33.7000   44.2080 C   0  0  0  0  0  0  0  0  0  0  0  0
   59.2190   33.4830   45.5650 C   0  0  0  0  0  0  0  0  0  0  0  0
   60.1680   34.1810   46.2540 N   0  0  0  0  0  0  0  0  0  0  0  0
   61.1540   33.9070   46.9480 C   0  0  0  0  0  0  0  0  0  0  0  0
   62.3520   33.7450   46.3450 N   0  0  0  0  0  0  0  0  0  0  0  0
   63.4840   33.4520   47.0090 C   0  0  0  0  0  0  0  0  0  0  0  0
   63.3770   33.3200   48.3490 N   0  0  0  0  0  0  0  0  0  0  0  0
   62.2010   33.4730   48.9830 C   0  0  0  0  0  0  0  0  0  0  0  0
   62.1530   33.3320   50.3280 C   0  0  0  0  0  0  0  0  0  0  0  0
   60.9610   33.4910   50.9640 C   0  0  0  0  0  0  0  0  0  0  0  0
   59.7880   33.7850   50.3480 C   0  0  0  0  0  0  0  0  0  0  0  0
   59.8340   33.9320   48.9490 C   0  0  0  0  0  0  0  0  0  0  0  0
   61.0250   33.7750   48.3070 C   0  0  0  0  0  0  0  0  0  0  0  0
   58.6180   32.3800   46.2350 C   0  0  0  0  0  0  0  0  0  0  0  0
   57.7410   31.5700   45.5670 C   0  0  0  0  0  0  0  0  0  0  0  0
   58.2050   27.3230   45.8350 C   0  0  0  0  0  0  0  0  0  0  0  0
   59.2250   28.3300   45.5990 C   0  0  0  0  0  0  0  0  0  0  0  0
   59.7740   28.6150   44.3270 N   0  0  0  0  0  0  0  0  0  0  0  0
   59.6480   28.9920   46.5910 O   0  0  0  0  0  0  0  0  0  0  0  0
   58.6300   26.0540   46.1740 C   0  0  0  0  0  0  0  0  0  0  0  0
   56.5787   23.4031   44.3651 H   0  0  0  0  0  0  0  0  0  0  0  0
   58.1185   23.6999   43.4890 H   0  0  0  0  0  0  0  0  0  0  0  0
   57.3870   22.0593   43.4890 H   0  0  0  0  0  0  0  0  0  0  0  0
   58.3140   23.5470   47.7510 H   0  0  0  0  0  0  0  0  0  0  0  0
   55.5585   24.5875   46.4499 H   0  0  0  0  0  0  0  0  0  0  0  0
   54.8762   26.8895   45.8368 H   0  0  0  0  0  0  0  0  0  0  0  0
   56.0950   29.5950   46.0070 H   0  0  0  0  0  0  0  0  0  0  0  0
   56.4211   30.9318   42.5554 H   0  0  0  0  0  0  0  0  0  0  0  0
   55.4246   31.0560   44.0484 H   0  0  0  0  0  0  0  0  0  0  0  0
   57.7129   33.0253   42.5234 H   0  0  0  0  0  0  0  0  0  0  0  0
   59.3143   34.5416   43.6539 H   0  0  0  0  0  0  0  0  0  0  0  0
   62.4410   33.8450   45.3110 H   0  0  0  0  0  0  0  0  0  0  0  0
   64.4452   33.3266   46.4890 H   0  0  0  0  0  0  0  0  0  0  0  0
   63.0630   33.0927   50.8978 H   0  0  0  0  0  0  0  0  0  0  0  0
   60.9469   33.3726   52.0575 H   0  0  0  0  0  0  0  0  0  0  0  0
   58.8510   33.9022   50.9122 H   0  0  0  0  0  0  0  0  0  0  0  0
   58.9217   34.1701   48.3825 H   0  0  0  0  0  0  0  0  0  0  0  0
   58.8587   32.1791   47.2894 H   0  0  0  0  0  0  0  0  0  0  0  0
   57.2894   30.7209   46.1010 H   0  0  0  0  0  0  0  0  0  0  0  0
   59.1370   28.5480   43.4810 H   0  0  0  0  0  0  0  0  0  0  0  0
   60.7630   28.8900   44.1470 H   0  0  0  0  0  0  0  0  0  0  0  0
   59.7024   25.8274   46.2664 H   0  0  0  0  0  0  0  0  0  0  0  0
  1  2  1  0
  2  3  2  0
  2  4  2  0
  2  5  1  0
  5  6  1  0
  6  7  2  0
  7  8  1  0
  8  9  2  0
  9 10  1  0
 10 11  1  0
 11 12  2  0
 11 13  1  0
 13 14  1  0
 14 15  2  0
 15 16  1  0
 16 17  2  0
 17 18  1  0
 18 19  2  0
 19 20  1  0
 20 21  1  0
 21 22  2  0
 22 23  1  0
 23 24  2  0
 24 25  1  0
 25 26  2  0
 26 27  1  0
 27 28  2  0
 17 29  1  0
 29 30  2  0
  9 31  1  0
 31 32  1  0
 32 33  1  0
 32 34  2  0
 31 35  2  0
 35  6  1  0
 30 14  1  0
 28 19  1  0
 28 23  1  0
  1 36  1  0
  1 37  1  0
  1 38  1  0
  5 39  1  0
  7 40  1  0
  8 41  1  0
 10 42  1  0
 13 43  1  0
 13 44  1  0
 15 45  1  0
 16 46  1  0
 20 47  1  0
 21 48  1  0
 24 49  1  0
 25 50  1  0
 26 51  1  0
 27 52  1  0
 29 53  1  0
 30 54  1  0
 33 55  1  0
 33 56  1  0
 35 57  1  0
M  END
>  <smiles>  (10) 
CS(=O)(=O)Nc1ccc(NC(=O)Cc2ccc(N=c3[nH]cnc4ccccc34)cc2)c(C(N)=O)c1

>  <score_type>  (10) 
oracle

>  <origin>  (10) 
adg

>  <m_score__min__energy>  (10) 
-10.539999999999999

>  <m_primary>  (10) 
energy

$$$$
10:0
     RDKit          3D

 41 43  0  0  0  0  0  0  0  0999 V2000
   56.4133   30.1041   51.2455 H   0  0  0  0  0  0  0  0  0  0  0  0
   56.3920   30.8530   52.0510 C   0  0  0  0  0  0  0  0  0  0  0  0
   55.3840   30.8830   52.8670 N   0  0  0  0  0  0  0  0  0  0  0  0
   54.2490   29.9730   52.7590 C   0  0  0  0  0  0  0  0  0  0  0  0
   54.5858   29.0249   52.3145 H   0  0  0  0  0  0  0  0  0  0  0  0
   53.8380   29.7950   53.7637 H   0  0  0  0  0  0  0  0  0  0  0  0
   53.1750   30.5730   51.8920 C   0  0  0  0  0  0  0  0  0  0  0  0
   52.9330   30.0670   50.6050 C   0  0  0  0  0  0  0  0  0  0  0  0
   53.5138   29.2092   50.2350 H   0  0  0  0  0  0  0  0  0  0  0  0
   51.9560   30.6500   49.7920 C   0  0  0  0  0  0  0  0  0  0  0  0
   51.7650   30.2452   48.7872 H   0  0  0  0  0  0  0  0  0  0  0  0
   51.2210   31.7470   50.2540 C   0  0  0  0  0  0  0  0  0  0  0  0
   50.2530   32.3230   49.4400 O   0  0  0  0  0  0  0  0  0  0  0  0
   51.4650   32.2640   51.5320 C   0  0  0  0  0  0  0  0  0  0  0  0
   50.7400   33.3560   51.9940 O   0  0  0  0  0  0  0  0  0  0  0  0
   52.4420   31.6810   52.3470 C   0  0  0  0  0  0  0  0  0  0  0  0
   52.6366   32.0925   53.3484 H   0  0  0  0  0  0  0  0  0  0  0  0
   57.5140   31.8090   52.1850 C   0  0  0  0  0  0  0  0  0  0  0  0
   57.7690   32.3120   53.4710 C   0  0  0  0  0  0  0  0  0  0  0  0
   57.1028   32.0387   54.3025 H   0  0  0  0  0  0  0  0  0  0  0  0
   58.8550   33.1530   53.7080 C   0  0  0  0  0  0  0  0  0  0  0  0
   59.0428   33.5322   54.7234 H   0  0  0  0  0  0  0  0  0  0  0  0
   59.7030   33.5150   52.6650 C   0  0  0  0  0  0  0  0  0  0  0  0
   60.5721   34.1591   52.8647 H   0  0  0  0  0  0  0  0  0  0  0  0
   59.4550   33.0630   51.3620 C   0  0  0  0  0  0  0  0  0  0  0  0
   60.3010   33.4600   50.3150 C   0  0  0  0  0  0  0  0  0  0  0  0
   61.1711   34.0974   50.5311 H   0  0  0  0  0  0  0  0  0  0  0  0
   60.0510   33.0550   49.0010 C   0  0  0  0  0  0  0  0  0  0  0  0
   60.9480   33.4910   47.9700 N   0  0  0  0  0  0  0  0  0  0  0  0
   62.6740   33.6040   48.1050 S   0  0  0  0  0  0  0  0  0  0  0  0
   63.2280   34.1160   46.8060 O   0  0  0  0  0  0  0  0  0  0  0  0
   63.0430   34.5660   49.1990 O   0  0  0  0  0  0  0  0  0  0  0  0
   63.3700   31.9980   48.4300 C   0  0  0  0  0  0  0  0  0  0  0  0
   63.4381   31.8409   49.5166 H   0  0  0  0  0  0  0  0  0  0  0  0
   62.7269   31.2232   47.9871 H   0  0  0  0  0  0  0  0  0  0  0  0
   64.3751   31.9375   47.9871 H   0  0  0  0  0  0  0  0  0  0  0  0
   58.9330   32.2530   48.7320 C   0  0  0  0  0  0  0  0  0  0  0  0
   58.7225   31.9406   47.6985 H   0  0  0  0  0  0  0  0  0  0  0  0
   58.0840   31.8470   49.7640 C   0  0  0  0  0  0  0  0  0  0  0  0
   57.2023   31.2318   49.5315 H   0  0  0  0  0  0  0  0  0  0  0  0
   58.3430   32.2160   51.1010 C   0  0  0  0  0  0  0  0  0  0  0  0
  1  2  1  0
  2  3  2  0
  3  4  1  0
  4  5  1  0
  4  6  1  0
  4  7  1  0
  7  8  2  0
  8  9  1  0
  8 10  1  0
 10 11  1  0
 10 12  2  0
 12 13  1  0
 12 14  1  0
 14 15  1  0
 14 16  2  0
 16 17  1  0
  2 18  1  0
 18 19  2  0
 19 20  1  0
 19 21  1  0
 21 22  1  0
 21 23  2  0
 23 24  1  0
 23 25  1  0
 25 26  2  0
 26 27  1  0
 26 28  1  0
 28 29  1  0
 29 30  1  0
 30 31  2  0
 30 32  2  0
 30 33  1  0
 33 34  1  0
 33 35  1  0
 33 36  1  0
 28 37  2  0
 37 38  1  0
 37 39  1  0
 39 40  1  0
 39 41  2  0
 16  7  1  0
 41 18  1  0
 41 25  1  0
M  CHG  3  13  -1  15  -1  29  -1
M  END
>  <UniqueID>  (11) 
10

>  <SMILES>  (11) 
CS(=O)(=O)[N-]c1ccc2c(/C=N/Cc3ccc([O-])c([O-])c3)cccc2c1

>  <Energy>  (11) 
50.390433098025426

>  <Genealogy>  (11) 
CS(=O)(=O)[N-]c1ccc2c(C=NCc3ccc([O-])c([O-])c3)cccc2c1 (protonated)
CS(=O)(=O)[N-]c1ccc2c(/C=N/Cc3ccc([O-])c([O-])c3)cccc2c1 (cis-trans isomerization)
CS(=O)(=O)[N-]c1ccc2c(/C=N/Cc3ccc([O-])c([O-])c3)cccc2c1 (3D coordinates assigned)
CS(=O)(=O)[N-]c1ccc2c(/C=N/Cc3ccc([O-])c([O-])c3)cccc2c1 (optimized conformer: 50.390433098025426 kcal/mol)

>  <smiles>  (11) 
CS(=O)(=O)Nc1ccc2c(C=NCc3ccc(O)c(O)c3)cccc2c1

>  <score_type>  (11) 
oracle

>  <origin>  (11) 
adg

>  <m_score__min__energy>  (11) 
-17.140000000000001

>  <m_primary>  (11) 
energy

$$$$
11:0
     RDKit          3D

 51 54  0  0  0  0  0  0  0  0999 V2000
   66.3790   32.5850   50.1280 C   0  0  0  0  0  0  0  0  0  0  0  0
   65.3360   33.4660   49.7230 O   0  0  0  0  0  0  0  0  0  0  0  0
   64.1710   33.0640   49.0510 C   0  0  0  0  0  0  0  0  0  0  0  0
   63.8810   33.4770   47.7420 C   0  0  0  0  0  0  0  0  0  0  0  0
   62.7250   33.0880   47.1460 N   0  0  0  0  0  0  0  0  0  0  0  0
   61.8270   32.2970   47.7890 C   0  0  0  0  0  0  0  0  0  0  0  0
   60.5740   31.8820   47.1120 C   0  0  0  0  0  0  0  0  0  0  0  0
   60.1950   30.5270   47.0700 C   0  0  0  0  0  0  0  0  0  0  0  0
   59.0210   30.1390   46.4150 C   0  0  0  0  0  0  0  0  0  0  0  0
   58.1970   31.0940   45.8120 C   0  0  0  0  0  0  0  0  0  0  0  0
   57.0190   30.6590   45.1180 N   0  0  0  0  0  0  0  0  0  0  0  0
   56.4850   29.3310   45.1330 C   0  0  0  0  0  0  0  0  0  0  0  0
   55.2630   29.1650   44.8790 O   0  0  0  0  0  0  0  0  0  0  0  0
   57.3470   28.1990   45.3430 N   0  0  0  0  0  0  0  0  0  0  0  0
   56.8740   26.8700   45.6170 C   0  0  0  0  0  0  0  0  0  0  0  0
   57.7920   25.8190   45.7600 C   0  0  0  0  0  0  0  0  0  0  0  0
   57.3270   24.5260   46.0170 C   0  0  0  0  0  0  0  0  0  0  0  0
   58.1430   23.5730   46.1380 O   0  0  0  0  0  0  0  0  0  0  0  0
   55.9530   24.2930   46.1370 C   0  0  0  0  0  0  0  0  0  0  0  0
   55.0670   25.3630   45.9950 C   0  0  0  0  0  0  0  0  0  0  0  0
   55.5400   26.6140   45.7440 N   0  0  0  0  0  0  0  0  0  0  0  0
   58.5770   32.4450   45.8370 C   0  0  0  0  0  0  0  0  0  0  0  0
   59.7520   32.8360   46.4850 C   0  0  0  0  0  0  0  0  0  0  0  0
   62.0920   31.8850   49.0590 N   0  0  0  0  0  0  0  0  0  0  0  0
   63.2370   32.2360   49.7010 C   0  0  0  0  0  0  0  0  0  0  0  0
   63.4530   31.7800   51.0470 N   0  0  0  0  0  0  0  0  0  0  0  0
   63.9920   30.4450   51.3110 C   0  0  0  0  0  0  0  0  0  0  0  0
   63.4730   29.9470   52.6620 C   0  0  0  0  0  0  0  0  0  0  0  0
   63.7410   30.8940   53.6800 O   0  0  0  0  0  0  0  0  0  0  0  0
   63.0000   32.0780   53.4400 C   0  0  0  0  0  0  0  0  0  0  0  0
   63.4530   32.7550   52.1380 C   0  0  0  0  0  0  0  0  0  0  0  0
   66.4222   32.5485   51.2265 H   0  0  0  0  0  0  0  0  0  0  0  0
   66.1806   31.5769   49.7351 H   0  0  0  0  0  0  0  0  0  0  0  0
   67.3398   32.9491   49.7351 H   0  0  0  0  0  0  0  0  0  0  0  0
   64.5913   34.1169   47.1979 H   0  0  0  0  0  0  0  0  0  0  0  0
   60.8261   29.7680   47.5554 H   0  0  0  0  0  0  0  0  0  0  0  0
   58.7444   29.0751   46.3742 H   0  0  0  0  0  0  0  0  0  0  0  0
   58.3750   28.3460   45.2440 H   0  0  0  0  0  0  0  0  0  0  0  0
   58.8714   26.0112   45.6704 H   0  0  0  0  0  0  0  0  0  0  0  0
   55.5753   23.2801   46.3406 H   0  0  0  0  0  0  0  0  0  0  0  0
   53.9839   25.1942   46.0863 H   0  0  0  0  0  0  0  0  0  0  0  0
   57.9468   33.1999   45.3441 H   0  0  0  0  0  0  0  0  0  0  0  0
   60.0363   33.8984   46.5049 H   0  0  0  0  0  0  0  0  0  0  0  0
   63.6700   29.7553   50.5169 H   0  0  0  0  0  0  0  0  0  0  0  0
   65.0909   30.4893   51.3325 H   0  0  0  0  0  0  0  0  0  0  0  0
   62.3869   29.7864   52.5948 H   0  0  0  0  0  0  0  0  0  0  0  0
   63.9829   29.0048   52.9117 H   0  0  0  0  0  0  0  0  0  0  0  0
   61.9324   31.8248   53.3615 H   0  0  0  0  0  0  0  0  0  0  0  0
   63.1700   32.7737   54.2749 H   0  0  0  0  0  0  0  0  0  0  0  0
   62.7630   33.5762   51.8940 H   0  0  0  0  0  0  0  0  0  0  0  0
   64.4701   33.1527   52.2700 H   0  0  0  0  0  0  0  0  0  0  0  0
  1  2  1  0
  2  3  1  0
  3  4  2  0
  4  5  1  0
  5  6  2  0
  6  7  1  0
  7  8  2  0
  8  9  1  0
  9 10  2  0
 10 11  1  0
 11 12  1  0
 12 13  2  0
 12 14  1  0
 14 15  1  0
 15 16  2  0
 16 17  1  0
 17 18  2  0
 17 19  1  0
 19 20  2  0
 20 21  1  0
 10 22  1  0
 22 23  2  0
  6 24  1  0
 24 25  2  0
 25 26  1  0
 26 27  1  0
 27 28  1  0
 28 29  1  0
 29 30  1  0
 30 31  1  0
 25  3  1  0
 31 26  1  0
 23  7  1  0
 21 15  1  0
  1 32  1  0
  1 33  1  0
  1 34  1  0
  4 35  1  0
  8 36  1  0
  9 37  1  0
 14 38  1  0
 16 39  1  0
 19 40  1  0
 20 41  1  0
 22 42  1  0
 23 43  1  0
 27 44  1  0
 27 45  1  0
 28 46  1  0
 28 47  1  0
 30 48  1  0
 30 49  1  0
 31 50  1  0
 31 51  1  0
M  CHG  2  11  -1  21  -1
M  END
>  <UniqueID>  (12) 
11

>  <SMILES>  (12) 
COc1cnc(-c2ccc([N-]C(=O)Nc3cc(=O)cc[n-]3)cc2)nc1N1CCOCC1

>  <Energy>  (12) 
68.23021971681406

>  <Genealogy>  (12) 
COc1cnc(-c2ccc([N-]C(=O)Nc3cc(=O)cc[n-]3)cc2)nc1N1CCOCC1 (protonated)
COc1cnc(-c2ccc([N-]C(=O)Nc3cc(=O)cc[n-]3)cc2)nc1N1CCOCC1 (3D coordinates assigned)
COc1cnc(-c2ccc([N-]C(=O)Nc3cc(=O)cc[n-]3)cc2)nc1N1CCOCC1 (nonaromatic ring conformer: 68.23021971681406 kcal/mol)

>  <smiles>  (12) 
COc1cnc(-c2ccc(NC(=O)Nc3cc(=O)cc[nH]3)cc2)nc1N1CCOCC1

>  <score_type>  (12) 
oracle

>  <origin>  (12) 
adg

>  <m_score__min__energy>  (12) 
-9.7599999999999998

>  <m_primary>  (12) 
energy

$$$$
12:0
     RDKit          3D

 23 24  0  0  0  0  0  0  0  0999 V2000
   57.7140   27.9260   47.3060 O   0  0  0  0  0  0  0  0  0  0  0  0
   57.6060   27.9550   46.0510 C   0  0  0  0  0  0  0  0  0  0  0  0
   57.5370   26.7140   45.3380 N   0  0  0  0  0  0  0  0  0  0  0  0
   56.9810   25.5320   45.8600 N   0  0  0  0  0  0  0  0  0  0  0  0
   55.6900   25.3640   46.1880 C   0  0  0  0  0  0  0  0  0  0  0  0
   54.7040   26.3210   45.9800 O   0  0  0  0  0  0  0  0  0  0  0  0
   55.4890   24.1220   46.7560 C   0  0  0  0  0  0  0  0  0  0  0  0
   56.7330   23.5100   46.7970 C   0  0  0  0  0  0  0  0  0  0  0  0
   57.6250   24.4150   46.2540 C   0  0  0  0  0  0  0  0  0  0  0  0
   58.9990   24.2240   46.1750 O   0  0  0  0  0  0  0  0  0  0  0  0
   57.5200   29.2630   45.3610 C   0  0  0  0  0  0  0  0  0  0  0  0
   58.6610   30.0820   45.2910 C   0  0  0  0  0  0  0  0  0  0  0  0
   58.6100   31.3140   44.6330 C   0  0  0  0  0  0  0  0  0  0  0  0
   57.4180   31.7470   44.0470 C   0  0  0  0  0  0  0  0  0  0  0  0
   56.2730   30.9530   44.1290 C   0  0  0  0  0  0  0  0  0  0  0  0
   56.3120   29.7200   44.7900 C   0  0  0  0  0  0  0  0  0  0  0  0
   55.1430   28.9750   44.8980 O   0  0  0  0  0  0  0  0  0  0  0  0
   54.5343   23.7021   47.1057 H   0  0  0  0  0  0  0  0  0  0  0  0
   56.9632   22.5063   47.1839 H   0  0  0  0  0  0  0  0  0  0  0  0
   59.6004   29.7506   45.7575 H   0  0  0  0  0  0  0  0  0  0  0  0
   59.5100   31.9438   44.5764 H   0  0  0  0  0  0  0  0  0  0  0  0
   57.3819   32.7127   43.5215 H   0  0  0  0  0  0  0  0  0  0  0  0
   55.3343   31.2984   43.6713 H   0  0  0  0  0  0  0  0  0  0  0  0
  1  2  2  0
  2  3  1  0
  3  4  1  0
  4  5  1  0
  5  6  1  0
  5  7  2  0
  7  8  1  0
  8  9  2  0
  9 10  1  0
  2 11  1  0
 11 12  2  0
 12 13  1  0
 13 14  2  0
 14 15  1  0
 15 16  2  0
 16 17  1  0
  9  4  1  0
 16 11  1  0
  7 18  1  0
  8 19  1  0
 12 20  1  0
 13 21  1  0
 14 22  1  0
 15 23  1  0
M  CHG  4   3  -1   6  -1  10  -1  17  -1
M  END
>  <UniqueID>  (13) 
12

>  <SMILES>  (13) 
O=C([N-]n1c([O-])ccc1[O-])c1ccccc1[O-]

>  <Energy>  (13) 
61.67800831116591

>  <Genealogy>  (13) 
O=C([N-]n1c([O-])ccc1[O-])c1ccccc1[O-] (protonated)
O=C([N-]n1c([O-])ccc1[O-])c1ccccc1[O-] (3D coordinates assigned)
O=C([N-]n1c([O-])ccc1[O-])c1ccccc1[O-] (optimized conformer: 61.67800831116591 kcal/mol)

>  <smiles>  (13) 
O=C(Nn1c(O)ccc1O)c1ccccc1O

>  <score_type>  (13) 
oracle

>  <origin>  (13) 
adg

>  <m_score__min__energy>  (13) 
-15.619999999999999

>  <m_primary>  (13) 
energy

$$$$
13:0
     RDKit          3D

 48 51  0  0  0  0  0  0  0  0999 V2000
   56.3240   30.1240   51.6280 O   0  0  0  0  0  0  0  0  0  0  0  0
   57.2110   30.6860   52.3210 C   0  0  0  0  0  0  0  0  0  0  0  0
   57.3740   30.2840   53.6420 O   0  0  0  0  0  0  0  0  0  0  0  0
   58.0770   31.7570   51.7530 C   0  0  0  0  0  0  0  0  0  0  0  0
   58.1050   33.0110   52.3930 C   0  0  0  0  0  0  0  0  0  0  0  0
   58.8870   34.0520   51.8900 C   0  0  0  0  0  0  0  0  0  0  0  0
   59.6450   33.8620   50.7390 C   0  0  0  0  0  0  0  0  0  0  0  0
   59.6340   32.6290   50.0880 C   0  0  0  0  0  0  0  0  0  0  0  0
   58.8740   31.5570   50.5950 C   0  0  0  0  0  0  0  0  0  0  0  0
   58.8420   30.2930   49.9130 N   0  0  0  0  0  0  0  0  0  0  0  0
   59.5990   29.8970   48.7640 C   0  0  0  0  0  0  0  0  0  0  0  0
   60.7980   29.5260   48.8850 O   0  0  0  0  0  0  0  0  0  0  0  0
   58.9500   29.8260   47.4420 C   0  0  0  0  0  0  0  0  0  0  0  0
   58.3930   28.6960   46.8770 C   0  0  0  0  0  0  0  0  0  0  0  0
   57.7820   29.0550   45.7320 N   0  0  0  0  0  0  0  0  0  0  0  0
   56.9890   28.1790   44.8770 C   0  0  0  0  0  0  0  0  0  0  0  0
   57.1280   26.7520   45.3370 C   0  0  0  0  0  0  0  0  0  0  0  0
   58.3820   26.1200   45.2740 C   0  0  0  0  0  0  0  0  0  0  0  0
   58.5360   24.8120   45.7360 C   0  0  0  0  0  0  0  0  0  0  0  0
   57.4480   24.1260   46.2770 C   0  0  0  0  0  0  0  0  0  0  0  0
   56.1960   24.7450   46.3640 C   0  0  0  0  0  0  0  0  0  0  0  0
   55.1280   24.0380   46.9150 O   0  0  0  0  0  0  0  0  0  0  0  0
   56.0350   26.0630   45.9000 C   0  0  0  0  0  0  0  0  0  0  0  0
   54.7930   26.6830   46.0000 O   0  0  0  0  0  0  0  0  0  0  0  0
   57.9050   30.3580   45.5390 N   0  0  0  0  0  0  0  0  0  0  0  0
   58.6300   30.8560   46.5600 C   0  0  0  0  0  0  0  0  0  0  0  0
   58.9950   32.2820   46.6590 C   0  0  0  0  0  0  0  0  0  0  0  0
   60.3400   32.6740   46.7720 C   0  0  0  0  0  0  0  0  0  0  0  0
   60.6730   34.0290   46.8600 C   0  0  0  0  0  0  0  0  0  0  0  0
   59.6710   35.0020   46.8150 C   0  0  0  0  0  0  0  0  0  0  0  0
   58.3340   34.6200   46.6750 C   0  0  0  0  0  0  0  0  0  0  0  0
   57.9960   33.2650   46.5880 C   0  0  0  0  0  0  0  0  0  0  0  0
   57.5036   33.1720   53.2999 H   0  0  0  0  0  0  0  0  0  0  0  0
   58.9040   35.0241   52.4045 H   0  0  0  0  0  0  0  0  0  0  0  0
   60.2547   34.6867   50.3414 H   0  0  0  0  0  0  0  0  0  0  0  0
   60.2243   32.4922   49.1700 H   0  0  0  0  0  0  0  0  0  0  0  0
   58.4402   27.6779   47.2909 H   0  0  0  0  0  0  0  0  0  0  0  0
   55.9316   28.4778   44.9292 H   0  0  0  0  0  0  0  0  0  0  0  0
   57.3479   28.2623   43.8405 H   0  0  0  0  0  0  0  0  0  0  0  0
   59.2462   26.6590   44.8585 H   0  0  0  0  0  0  0  0  0  0  0  0
   59.5181   24.3204   45.6734 H   0  0  0  0  0  0  0  0  0  0  0  0
   57.5750   23.0942   46.6366 H   0  0  0  0  0  0  0  0  0  0  0  0
   54.2390   24.4790   47.1190 H   0  0  0  0  0  0  0  0  0  0  0  0
   61.1333   31.9122   46.7913 H   0  0  0  0  0  0  0  0  0  0  0  0
   61.7259   34.3298   46.9649 H   0  0  0  0  0  0  0  0  0  0  0  0
   59.9343   36.0674   46.8897 H   0  0  0  0  0  0  0  0  0  0  0  0
   57.5458   35.3861   46.6331 H   0  0  0  0  0  0  0  0  0  0  0  0
   56.9438   32.9693   46.4636 H   0  0  0  0  0  0  0  0  0  0  0  0
  1  2  2  0
  2  3  1  0
  2  4  1  0
  4  5  2  0
  5  6  1  0
  6  7  2  0
  7  8  1  0
  8  9  2  0
  9 10  1  0
 10 11  1  0
 11 12  2  0
 11 13  1  0
 13 14  2  0
 14 15  1  0
 15 16  1  0
 16 17  1  0
 17 18  2  0
 18 19  1  0
 19 20  2  0
 20 21  1  0
 21 22  1  0
 21 23  2  0
 23 24  1  0
 15 25  1  0
 25 26  2  0
 26 27  1  0
 27 28  2  0
 28 29  1  0
 29 30  2  0
 30 31  1  0
 31 32  2  0
  9  4  1  0
 26 13  1  0
 32 27  1  0
 23 17  1  0
  5 33  1  0
  6 34  1  0
  7 35  1  0
  8 36  1  0
 14 37  1  0
 16 38  1  0
 16 39  1  0
 18 40  1  0
 19 41  1  0
 20 42  1  0
 22 43  1  0
 28 44  1  0
 29 45  1  0
 30 46  1  0
 31 47  1  0
 32 48  1  0
M  CHG  3   3  -1  10  -1  24  -1
M  END
>  <UniqueID>  (14) 
13

>  <SMILES>  (14) 
O=C([O-])c1ccccc1[N-]C(=O)c1cn(Cc2cccc(O)c2[O-])nc1-c1ccccc1

>  <Energy>  (14) 
92.6110046940811

>  <Genealogy>  (14) 
O=C([O-])c1ccccc1[N-]C(=O)c1cn(Cc2cccc(O)c2[O-])nc1-c1ccccc1 (protonated)
O=C([O-])c1ccccc1[N-]C(=O)c1cn(Cc2cccc(O)c2[O-])nc1-c1ccccc1 (3D coordinates assigned)
O=C([O-])c1ccccc1[N-]C(=O)c1cn(Cc2cccc(O)c2[O-])nc1-c1ccccc1 (optimized conformer: 92.6110046940811 kcal/mol)

>  <smiles>  (14) 
O=C(O)c1ccccc1NC(=O)c1cn(Cc2cccc(O)c2O)nc1-c1ccccc1

>  <score_type>  (14) 
oracle

>  <origin>  (14) 
adg

>  <m_score__min__energy>  (14) 
-15.59

>  <m_primary>  (14) 
energy

$$$$
14:0
     RDKit          3D

 67 70  0  0  0  0  0  0  0  0999 V2000
   50.3920   33.0880   47.7730 H   0  0  0  0  0  0  0  0  0  0  0  0
   50.1040   32.5900   48.6460 N   0  0  0  0  0  0  0  0  0  0  0  0
   50.9640   31.9610   49.3800 C   0  0  0  0  0  0  0  0  0  0  0  0
   51.4630   32.5450   50.5040 N   0  0  0  0  0  0  0  0  0  0  0  0
   52.3660   31.9130   51.3000 C   0  0  0  0  0  0  0  0  0  0  0  0
   52.7499   32.4135   52.2012 H   0  0  0  0  0  0  0  0  0  0  0  0
   52.8070   30.6260   50.9730 C   0  0  0  0  0  0  0  0  0  0  0  0
   53.7510   29.9440   51.8160 C   0  0  0  0  0  0  0  0  0  0  0  0
   54.5470   29.3830   52.5260 C   0  0  0  0  0  0  0  0  0  0  0  0
   55.5160   28.7150   53.3690 C   0  0  0  0  0  0  0  0  0  0  0  0
   56.8910   29.0180   53.2510 C   0  0  0  0  0  0  0  0  0  0  0  0
   57.3980   30.0000   52.2620 C   0  0  0  0  0  0  0  0  0  0  0  0
   57.0440   31.3520   52.3540 C   0  0  0  0  0  0  0  0  0  0  0  0
   56.3769   31.6888   53.1611 H   0  0  0  0  0  0  0  0  0  0  0  0
   57.5320   32.2730   51.4290 C   0  0  0  0  0  0  0  0  0  0  0  0
   57.2527   33.3331   51.5192 H   0  0  0  0  0  0  0  0  0  0  0  0
   58.3760   31.8650   50.3830 C   0  0  0  0  0  0  0  0  0  0  0  0
   58.8410   32.8980   49.3890 C   0  0  0  0  0  0  0  0  0  0  0  0
   59.2349   33.7730   49.9267 H   0  0  0  0  0  0  0  0  0  0  0  0
   59.6327   32.4688   48.7574 H   0  0  0  0  0  0  0  0  0  0  0  0
   57.9948   33.2061   48.7574 H   0  0  0  0  0  0  0  0  0  0  0  0
   58.7570   30.4990   50.2900 C   0  0  0  0  0  0  0  0  0  0  0  0
   59.6860   29.9960   49.2500 C   0  0  0  0  0  0  0  0  0  0  0  0
   60.8850   30.3870   49.2400 O   0  0  0  0  0  0  0  0  0  0  0  0
   59.2180   29.1090   48.2270 N   0  0  0  0  0  0  0  0  0  0  0  0
   59.2680   29.4130   46.8000 C   0  0  0  0  0  0  0  0  0  0  0  0
   60.1177   28.8941   46.3323 H   0  0  0  0  0  0  0  0  0  0  0  0
   59.4710   30.9300   46.6060 C   0  0  0  0  0  0  0  0  0  0  0  0
   59.9896   31.3381   47.4861 H   0  0  0  0  0  0  0  0  0  0  0  0
   60.0685   31.0880   45.6960 H   0  0  0  0  0  0  0  0  0  0  0  0
   58.1280   31.6520   46.4370 C   0  0  0  0  0  0  0  0  0  0  0  0
   57.5145   31.4699   47.3317 H   0  0  0  0  0  0  0  0  0  0  0  0
   58.3388   32.7232   46.3026 H   0  0  0  0  0  0  0  0  0  0  0  0
   57.3770   31.1850   45.2400 N   0  0  0  0  0  0  0  0  0  0  0  0
   57.5970   32.0830   44.0850 C   0  0  0  0  0  0  0  0  0  0  0  0
   58.4417   31.7019   43.4923 H   0  0  0  0  0  0  0  0  0  0  0  0
   56.6749   32.1050   43.4857 H   0  0  0  0  0  0  0  0  0  0  0  0
   57.9100   33.5110   44.5340 C   0  0  0  0  0  0  0  0  0  0  0  0
   57.9199   33.5559   45.6330 H   0  0  0  0  0  0  0  0  0  0  0  0
   58.8950   33.8098   44.1460 H   0  0  0  0  0  0  0  0  0  0  0  0
   57.1403   34.1944   44.1460 H   0  0  0  0  0  0  0  0  0  0  0  0
   57.6410   29.7650   44.8830 C   0  0  0  0  0  0  0  0  0  0  0  0
   56.7449   29.3495   44.3989 H   0  0  0  0  0  0  0  0  0  0  0  0
   58.5089   29.7435   44.2076 H   0  0  0  0  0  0  0  0  0  0  0  0
   57.9800   28.9100   46.1100 C   0  0  0  0  0  0  0  0  0  0  0  0
   57.1458   28.9613   46.8252 H   0  0  0  0  0  0  0  0  0  0  0  0
   58.1427   27.8735   45.7794 H   0  0  0  0  0  0  0  0  0  0  0  0
   58.2400   29.5810   51.2230 C   0  0  0  0  0  0  0  0  0  0  0  0
   58.5013   28.5161   51.1352 H   0  0  0  0  0  0  0  0  0  0  0  0
   57.8040   28.3830   54.1010 C   0  0  0  0  0  0  0  0  0  0  0  0
   58.8760   28.6203   54.0346 H   0  0  0  0  0  0  0  0  0  0  0  0
   57.3520   27.4500   55.0310 C   0  0  0  0  0  0  0  0  0  0  0  0
   58.0714   26.9442   55.6918 H   0  0  0  0  0  0  0  0  0  0  0  0
   56.0290   27.1610   55.1270 N   0  0  0  0  0  0  0  0  0  0  0  0
   55.7290   26.4490   55.8310 H   0  0  0  0  0  0  0  0  0  0  0  0
   55.0970   27.7760   54.3410 C   0  0  0  0  0  0  0  0  0  0  0  0
   53.6420   27.3980   54.5030 C   0  0  0  0  0  0  0  0  0  0  0  0
   53.4720   27.0524   55.5334 H   0  0  0  0  0  0  0  0  0  0  0  0
   53.0227   28.2812   54.2876 H   0  0  0  0  0  0  0  0  0  0  0  0
   53.2590   26.2850   53.5330 C   0  0  0  0  0  0  0  0  0  0  0  0
   52.9523   25.3938   54.1002 H   0  0  0  0  0  0  0  0  0  0  0  0
   52.4250   26.6215   52.8996 H   0  0  0  0  0  0  0  0  0  0  0  0
   54.1235   26.0370   52.8996 H   0  0  0  0  0  0  0  0  0  0  0  0
   52.3070   30.0050   49.8240 C   0  0  0  0  0  0  0  0  0  0  0  0
   52.6419   28.9926   49.5541 H   0  0  0  0  0  0  0  0  0  0  0  0
   51.3810   30.6740   49.0200 C   0  0  0  0  0  0  0  0  0  0  0  0
   50.9836   30.1945   48.1133 H   0  0  0  0  0  0  0  0  0  0  0  0
  1  2  1  0
  2  3  2  0
  3  4  1  0
  4  5  1  0
  5  6  1  0
  5  7  2  0
  7  8  1  0
  8  9  3  0
  9 10  1  0
 10 11  1  0
 11 12  1  0
 12 13  2  0
 13 14  1  0
 13 15  1  0
 15 16  1  0
 15 17  2  0
 17 18  1  0
 18 19  1  0
 18 20  1  0
 18 21  1  0
 17 22  1  0
 22 23  1  0
 23 24  2  0
 23 25  1  0
 25 26  1  0
 26 27  1  0
 26 28  1  0
 28 29  1  0
 28 30  1  0
 28 31  1  0
 31 32  1  0
 31 33  1  0
 31 34  1  0
 34 35  1  0
 35 36  1  0
 35 37  1  0
 35 38  1  0
 38 39  1  0
 38 40  1  0
 38 41  1  0
 34 42  1  0
 42 43  1  0
 42 44  1  0
 42 45  1  0
 45 46  1  0
 45 47  1  0
 22 48  2  0
 48 49  1  0
 11 50  2  0
 50 51  1  0
 50 52  1  0
 52 53  1  0
 52 54  2  0
 54 55  1  0
 54 56  1  0
 56 57  1  0
 57 58  1  0
 57 59  1  0
 57 60  1  0
 60 61  1  0
 60 62  1  0
 60 63  1  0
  7 64  1  0
 64 65  1  0
 64 66  2  0
 66 67  1  0
 66  3  1  0
 56 10  2  0
 48 12  1  0
 45 26  1  0
M  CHG  3   4  -1  25  -1  54   1
M  END
>  <UniqueID>  (15) 
14

>  <SMILES>  (15) 
[H]/N=c1/ccc(C#Cc2c(-c3ccc(C)c(C(=O)[N-]C4CCN(CC)CC4)c3)cc[nH+]c2CC)c[n-]1

>  <Energy>  (15) 
80.32446606688151

>  <Genealogy>  (15) 
CCc1[nH+]ccc(-c2ccc(C)c(C(=O)[N-]C3CCN(CC)CC3)c2)c1C#Cc1ccc(=N)[n-]c1 (protonated)
[H]/N=c1/ccc(C#Cc2c(-c3ccc(C)c(C(=O)[N-]C4CCN(CC)CC4)c3)cc[nH+]c2CC)c[n-]1 (cis-trans isomerization)
[H]/N=c1/ccc(C#Cc2c(-c3ccc(C)c(C(=O)[N-]C4CCN(CC)CC4)c3)cc[nH+]c2CC)c[n-]1 (3D coordinates assigned)
[H]/N=c1/ccc(C#Cc2c(-c3ccc(C)c(C(=O)[N-]C4CCN(CC)CC4)c3)cc[nH+]c2CC)c[n-]1 (nonaromatic ring conformer: 80.32446606688151 kcal/mol)

>  <smiles>  (15) 
CCc1nccc(-c2ccc(C)c(C(=O)NC3CCN(CC)CC3)c2)c1C#Cc1ccc(=N)[nH]c1

>  <score_type>  (15) 
oracle

>  <origin>  (15) 
adg

>  <m_score__min__energy>  (15) 
-11.94

>  <m_primary>  (15) 
energy

$$$$
15:0
     RDKit          3D

 34 35  0  0  0  0  0  0  0  0999 V2000
   58.0580   30.8510   47.4240 H   0  0  0  0  0  0  0  0  0  0  0  0
   57.7980   29.9530   47.0360 O   0  0  0  0  0  0  0  0  0  0  0  0
   57.5350   29.7620   45.6750 C   0  0  0  0  0  0  0  0  0  0  0  0
   57.2690   30.8700   44.8400 C   0  0  0  0  0  0  0  0  0  0  0  0
   57.2750   32.1890   45.4070 N   0  0  0  0  0  0  0  0  0  0  0  0
   58.4880   32.8460   46.4630 S   0  0  0  0  0  0  0  0  0  0  0  0
   59.6670   31.9150   46.4810 O   0  0  0  0  0  0  0  0  0  0  0  0
   57.9480   32.9690   47.8620 O   0  0  0  0  0  0  0  0  0  0  0  0
   59.0300   34.4350   45.8630 C   0  0  0  0  0  0  0  0  0  0  0  0
   59.2541   35.0921   46.7162 H   0  0  0  0  0  0  0  0  0  0  0  0
   59.9352   34.3067   45.2513 H   0  0  0  0  0  0  0  0  0  0  0  0
   58.2351   34.8866   45.2513 H   0  0  0  0  0  0  0  0  0  0  0  0
   57.0170   30.6600   43.4740 C   0  0  0  0  0  0  0  0  0  0  0  0
   56.8080   31.5184   42.8187 H   0  0  0  0  0  0  0  0  0  0  0  0
   57.0300   29.3720   42.9440 C   0  0  0  0  0  0  0  0  0  0  0  0
   56.8293   29.2189   41.8734 H   0  0  0  0  0  0  0  0  0  0  0  0
   57.2960   28.2760   43.7630 C   0  0  0  0  0  0  0  0  0  0  0  0
   57.3011   27.2635   43.3332 H   0  0  0  0  0  0  0  0  0  0  0  0
   57.5580   28.4520   45.1340 C   0  0  0  0  0  0  0  0  0  0  0  0
   57.8440   27.2620   45.9870 C   0  0  0  0  0  0  0  0  0  0  0  0
   58.5760   27.4150   47.0590 N   0  0  0  0  0  0  0  0  0  0  0  0
   59.9260   27.0370   47.1810 C   0  0  0  0  0  0  0  0  0  0  0  0
   61.0370   26.7240   47.2770 N   0  0  0  0  0  0  0  0  0  0  0  0
   57.3000   25.9270   45.5990 C   0  0  0  0  0  0  0  0  0  0  0  0
   58.1740   24.8880   45.2260 C   0  0  0  0  0  0  0  0  0  0  0  0
   59.2591   25.0672   45.2069 H   0  0  0  0  0  0  0  0  0  0  0  0
   57.6720   23.6310   44.8800 C   0  0  0  0  0  0  0  0  0  0  0  0
   58.3620   22.8270   44.5840 H   0  0  0  0  0  0  0  0  0  0  0  0
   56.2970   23.3930   44.9090 C   0  0  0  0  0  0  0  0  0  0  0  0
   55.9044   22.4031   44.6335 H   0  0  0  0  0  0  0  0  0  0  0  0
   55.4190   24.4120   45.2880 C   0  0  0  0  0  0  0  0  0  0  0  0
   54.3363   24.2199   45.3178 H   0  0  0  0  0  0  0  0  0  0  0  0
   55.9130   25.6770   45.6300 C   0  0  0  0  0  0  0  0  0  0  0  0
   55.0180   26.6790   45.9960 O   0  0  0  0  0  0  0  0  0  0  0  0
  1  2  1  0
  2  3  1  0
  3  4  2  0
  4  5  1  0
  5  6  1  0
  6  7  2  0
  6  8  2  0
  6  9  1  0
  9 10  1  0
  9 11  1  0
  9 12  1  0
  4 13  1  0
 13 14  1  0
 13 15  2  0
 15 16  1  0
 15 17  1  0
 17 18  1  0
 17 19  2  0
 19 20  1  0
 20 21  2  0
 21 22  1  0
 22 23  3  0
 20 24  1  0
 24 25  2  0
 25 26  1  0
 25 27  1  0
 27 28  1  0
 27 29  2  0
 29 30  1  0
 29 31  1  0
 31 32  1  0
 31 33  2  0
 33 34  1  0
 19  3  1  0
 33 24  1  0
M  CHG  2   5  -1  34  -1
M  END
>  <UniqueID>  (16) 
15

>  <SMILES>  (16) 
CS(=O)(=O)[N-]c1cccc(/C(=N/C#N)c2ccccc2[O-])c1O

>  <Energy>  (16) 
46.428358919132094

>  <Genealogy>  (16) 
CS(=O)(=O)[N-]c1cccc(C(=NC#N)c2ccccc2[O-])c1O (protonated)
CS(=O)(=O)[N-]c1cccc(/C(=N/C#N)c2ccccc2[O-])c1O (cis-trans isomerization)
CS(=O)(=O)[N-]c1cccc(/C(=N/C#N)c2ccccc2[O-])c1O (3D coordinates assigned)
CS(=O)(=O)[N-]c1cccc(/C(=N/C#N)c2ccccc2[O-])c1O (optimized conformer: 46.428358919132094 kcal/mol)

>  <smiles>  (16) 
CS(=O)(=O)Nc1cccc(C(=NC#N)c2ccccc2O)c1O

>  <score_type>  (16) 
oracle

>  <origin>  (16) 
adg

>  <m_score__min__energy>  (16) 
-12.380000000000001

>  <m_primary>  (16) 
energy

$$$$
16:0
     RDKit          3D

 38 40  0  0  0  0  0  0  0  0999 V2000
   59.3845   26.1583   45.8156 H   0  0  0  0  0  0  0  0  0  0  0  0
   58.6810   26.9120   46.1990 C   0  0  0  0  0  0  0  0  0  0  0  0
   58.7960   28.2980   45.7060 C   0  0  0  0  0  0  0  0  0  0  0  0
   59.9330   28.7220   45.3620 O   0  0  0  0  0  0  0  0  0  0  0  0
   57.6600   29.1730   45.6430 N   0  0  0  0  0  0  0  0  0  0  0  0
   56.8890   29.0440   46.3370 H   0  0  0  0  0  0  0  0  0  0  0  0
   57.6850   30.4000   44.8990 C   0  0  0  0  0  0  0  0  0  0  0  0
   57.3380   30.3680   43.5430 C   0  0  0  0  0  0  0  0  0  0  0  0
   57.0663   29.4119   43.0719 H   0  0  0  0  0  0  0  0  0  0  0  0
   57.3340   31.5380   42.7850 C   0  0  0  0  0  0  0  0  0  0  0  0
   57.0502   31.5034   41.7228 H   0  0  0  0  0  0  0  0  0  0  0  0
   57.6890   32.7510   43.3710 C   0  0  0  0  0  0  0  0  0  0  0  0
   57.6791   33.6708   42.7678 H   0  0  0  0  0  0  0  0  0  0  0  0
   58.0590   32.8110   44.7230 C   0  0  0  0  0  0  0  0  0  0  0  0
   58.0870   31.6210   45.4960 C   0  0  0  0  0  0  0  0  0  0  0  0
   58.4970   31.6570   46.9560 C   0  0  0  0  0  0  0  0  0  0  0  0
   57.5886   31.6379   47.5761 H   0  0  0  0  0  0  0  0  0  0  0  0
   59.1375   30.7819   47.1403 H   0  0  0  0  0  0  0  0  0  0  0  0
   59.3080   32.9030   47.3170 C   0  0  0  0  0  0  0  0  0  0  0  0
   59.4121   32.9653   48.4103 H   0  0  0  0  0  0  0  0  0  0  0  0
   60.3015   32.8339   46.8499 H   0  0  0  0  0  0  0  0  0  0  0  0
   58.6010   34.1550   46.8050 C   0  0  0  0  0  0  0  0  0  0  0  0
   57.5803   34.1886   47.2137 H   0  0  0  0  0  0  0  0  0  0  0  0
   59.1645   35.0427   47.1281 H   0  0  0  0  0  0  0  0  0  0  0  0
   58.5330   34.1360   45.2770 C   0  0  0  0  0  0  0  0  0  0  0  0
   57.8383   34.9225   44.9472 H   0  0  0  0  0  0  0  0  0  0  0  0
   59.5526   34.3044   44.9002 H   0  0  0  0  0  0  0  0  0  0  0  0
   57.7590   26.5300   47.0920 C   0  0  0  0  0  0  0  0  0  0  0  0
   57.9113   26.7875   48.1505 H   0  0  0  0  0  0  0  0  0  0  0  0
   56.5410   25.7740   46.7120 C   0  0  0  0  0  0  0  0  0  0  0  0
   55.4830   26.3590   45.9860 C   0  0  0  0  0  0  0  0  0  0  0  0
   55.5210   27.6970   45.6120 O   0  0  0  0  0  0  0  0  0  0  0  0
   54.3880   25.6200   45.6700 N   0  0  0  0  0  0  0  0  0  0  0  0
   54.2810   24.3230   46.0540 C   0  0  0  0  0  0  0  0  0  0  0  0
   53.2570   23.6600   45.7450 O   0  0  0  0  0  0  0  0  0  0  0  0
   55.2710   23.7450   46.7770 N   0  0  0  0  0  0  0  0  0  0  0  0
   56.3890   24.4360   47.1180 C   0  0  0  0  0  0  0  0  0  0  0  0
   57.2880   23.8620   47.7900 O   0  0  0  0  0  0  0  0  0  0  0  0
  1  2  1  0
  2  3  1  0
  3  4  2  0
  3  5  1  0
  5  6  1  0
  5  7  1  0
  7  8  2  0
  8  9  1  0
  8 10  1  0
 10 11  1  0
 10 12  2  0
 12 13  1  0
 12 14  1  0
 14 15  2  0
 15 16  1  0
 16 17  1  0
 16 18  1  0
 16 19  1  0
 19 20  1  0
 19 21  1  0
 19 22  1  0
 22 23  1  0
 22 24  1  0
 22 25  1  0
 25 26  1  0
 25 27  1  0
  2 28  2  0
 28 29  1  0
 28 30  1  0
 30 31  2  0
 31 32  1  0
 31 33  1  0
 33 34  1  0
 34 35  2  0
 34 36  1  0
 36 37  1  0
 37 38  2  0
 15  7  1  0
 37 30  1  0
 25 14  1  0
M  CHG  3  32  -1  33  -1  36  -1
M  END
>  <UniqueID>  (17) 
16

>  <SMILES>  (17) 
O=C(/C=C/c1c([O-])[n-]c(=O)[n-]c1=O)Nc1cccc2c1CCCC2

>  <Energy>  (17) 
52.79980539716219

>  <Genealogy>  (17) 
O=C(C=Cc1c([O-])[n-]c(=O)[n-]c1=O)Nc1cccc2c1CCCC2 (protonated)
O=C(/C=C/c1c([O-])[n-]c(=O)[n-]c1=O)Nc1cccc2c1CCCC2 (cis-trans isomerization)
O=C(/C=C/c1c([O-])[n-]c(=O)[n-]c1=O)Nc1cccc2c1CCCC2 (3D coordinates assigned)
O=C(/C=C/c1c([O-])[n-]c(=O)[n-]c1=O)Nc1cccc2c1CCCC2 (nonaromatic ring conformer: 52.79980539716219 kcal/mol)

>  <smiles>  (17) 
O=C(C=Cc1c(O)[nH]c(=O)[nH]c1=O)Nc1cccc2c1CCCC2

>  <score_type>  (17) 
oracle

>  <origin>  (17) 
adg

>  <m_score__min__energy>  (17) 
-15.65

>  <m_primary>  (17) 
energy

$$$$
17:0
     RDKit          3D

 52 55  0  0  1  0  0  0  0  0999 V2000
   66.2310   32.7520   50.1620 C   0  0  0  0  0  0  0  0  0  0  0  0
   65.1580   33.2330   49.3380 O   0  0  0  0  0  0  0  0  0  0  0  0
   63.9410   32.5600   49.3450 C   0  0  0  0  0  0  0  0  0  0  0  0
   63.8880   31.3600   49.7550 O   0  0  0  0  0  0  0  0  0  0  0  0
   62.7010   33.1870   48.8890 C   0  0  0  0  0  0  0  0  0  0  0  0
   62.0390   34.1530   49.6120 C   0  0  0  0  0  0  0  0  0  0  0  0
   60.9570   34.4880   48.8870 N   0  0  0  0  0  0  0  0  0  0  0  0
   60.9390   33.7550   47.7410 C   0  0  0  0  0  0  0  0  0  0  0  0
   59.9180   33.8410   46.7030 C   0  0  0  0  0  0  0  0  0  0  0  0
   58.9730   32.8440   46.5680 C   0  0  0  0  0  0  0  0  0  0  0  0
   57.9900   32.9110   45.5820 C   0  0  0  0  0  0  0  0  0  0  0  0
   57.0970   31.8490   45.5450 O   0  0  0  0  0  0  0  0  0  0  0  0
   57.4250   30.5410   45.2840 C   0  0  0  0  0  0  0  0  0  0  0  0
   56.8440   29.8620   44.2090 C   0  0  0  0  0  0  0  0  0  0  0  0
   57.1410   28.5980   43.9310 N   0  0  0  0  0  0  0  0  0  0  0  0
   58.0220   27.9290   44.6890 C   0  0  0  0  0  0  0  0  0  0  0  0
   58.3280   26.7150   44.4480 N   0  0  0  0  0  0  0  0  0  0  0  0
   57.7670   25.9750   43.3530 C   0  0  0  0  0  0  0  0  0  0  0  0
   57.7740   26.4130   42.1710 O   0  0  0  0  0  0  0  0  0  0  0  0
   57.1830   24.6750   43.7080 C   0  0  0  0  0  0  0  0  0  0  0  0
   56.8750   23.6450   42.8920 N   0  0  0  0  0  0  0  0  0  0  0  0
   56.3670   22.6740   43.6710 C   0  0  0  0  0  0  0  0  0  0  0  0
   55.9670   21.5570   43.2530 O   0  0  0  0  0  0  0  0  0  0  0  0
   56.3510   23.0770   44.9540 N   0  0  0  0  0  0  0  0  0  0  0  0
   56.8490   24.3080   45.0040 C   0  0  0  0  0  0  0  0  0  0  0  0
   57.0250   25.1550   46.2260 C   0  0  0  0  0  0  0  0  0  0  0  0
   58.6280   28.5590   45.7720 C   0  0  0  0  0  0  0  0  0  0  0  0
   59.6110   27.8520   46.6370 C   0  0  0  0  0  0  0  0  0  0  0  0
   58.3330   29.8630   46.0710 C   0  0  0  0  0  0  0  0  0  0  0  0
   57.9340   33.9780   44.7130 C   0  0  0  0  0  0  0  0  0  0  0  0
   58.8970   34.9610   44.8750 C   0  0  0  0  0  0  0  0  0  0  0  0
   59.8440   34.8780   45.8390 N   0  0  0  0  0  0  0  0  0  0  0  0
   62.0120   32.9760   47.7740 N   0  0  0  0  0  0  0  0  0  0  0  0
   65.9619   32.8726   51.2217 H   0  0  0  0  0  0  0  0  0  0  0  0
   66.4092   31.6879   49.9478 H   0  0  0  0  0  0  0  0  0  0  0  0
   67.1439   33.3270   49.9478 H   0  0  0  0  0  0  0  0  0  0  0  0
   62.3353   34.5677   50.5868 H   0  0  0  0  0  0  0  0  0  0  0  0
   60.2570   35.2130   49.1960 H   0  0  0  0  0  0  0  0  0  0  0  0
   58.9960   31.9816   47.2504 H   0  0  0  0  0  0  0  0  0  0  0  0
   56.1184   30.3912   43.5738 H   0  0  0  0  0  0  0  0  0  0  0  0
   56.7220   28.0560   43.1280 H   0  0  0  0  0  0  0  0  0  0  0  0
   57.0250   23.6520   41.8520 H   0  0  0  0  0  0  0  0  0  0  0  0
   56.0100   22.5320   45.7900 H   0  0  0  0  0  0  0  0  0  0  0  0
   56.8959   24.5337   47.1245 H   0  0  0  0  0  0  0  0  0  0  0  0
   58.0336   25.5941   46.2257 H   0  0  0  0  0  0  0  0  0  0  0  0
   56.2748   25.9595   46.2257 H   0  0  0  0  0  0  0  0  0  0  0  0
   59.3638   28.0298   47.6940 H   0  0  0  0  0  0  0  0  0  0  0  0
   59.5735   26.7726   46.4282 H   0  0  0  0  0  0  0  0  0  0  0  0
   60.6223   28.2309   46.4282 H   0  0  0  0  0  0  0  0  0  0  0  0
   58.8129   30.3620   46.9258 H   0  0  0  0  0  0  0  0  0  0  0  0
   57.1641   34.0463   43.9303 H   0  0  0  0  0  0  0  0  0  0  0  0
   58.8920   35.8317   44.2027 H   0  0  0  0  0  0  0  0  0  0  0  0
  1  2  1  0
  2  3  1  0
  3  4  2  0
  3  5  1  0
  5  6  2  0
  6  7  1  0
  7  8  1  0
  8  9  1  0
  9 10  2  0
 10 11  1  0
 11 12  1  0
 12 13  1  0
 13 14  2  0
 14 15  1  0
 15 16  1  0
 16 17  2  0
 17 18  1  0
 18 19  2  0
 18 20  1  0
 20 21  1  0
 21 22  1  0
 22 23  2  0
 22 24  1  0
 24 25  1  0
 25 26  1  0
 16 27  1  0
 27 28  1  0
 27 29  2  0
 11 30  2  0
 30 31  1  0
 31 32  2  0
  8 33  2  0
 33  5  1  0
 32  9  1  0
 29 13  1  0
 25 20  2  0
  1 34  1  0
  1 35  1  0
  1 36  1  0
  6 37  1  0
  7 38  1  0
 10 39  1  0
 14 40  1  0
 15 41  1  0
 21 42  1  0
 24 43  1  0
 26 44  1  0
 26 45  1  0
 26 46  1  0
 28 47  1  0
 28 48  1  0
 28 49  1  0
 29 50  1  0
 30 51  1  0
 31 52  1  0
M  END
>  <smiles>  (18) 
COC(=O)c1c[nH]c(-c2cc(Oc3c[nH]c(=NC(=O)c4[nH]c(=O)[nH]c4C)c(C)c3)ccn2)n1

>  <score_type>  (18) 
oracle

>  <origin>  (18) 
adg

>  <m_score__min__energy>  (18) 
-9.4100000000000001

>  <m_primary>  (18) 
energy

$$$$
18:0
     RDKit          3D

 32 34  0  0  0  0  0  0  0  0999 V2000
   59.2850   21.3739   44.7902 H   0  0  0  0  0  0  0  0  0  0  0  0
   58.2770   21.8020   44.6870 C   0  0  0  0  0  0  0  0  0  0  0  0
   58.1180   23.1040   44.2070 C   0  0  0  0  0  0  0  0  0  0  0  0
   59.0006   23.6994   43.9303 H   0  0  0  0  0  0  0  0  0  0  0  0
   56.8380   23.6510   44.0780 C   0  0  0  0  0  0  0  0  0  0  0  0
   56.7166   24.6738   43.6919 H   0  0  0  0  0  0  0  0  0  0  0  0
   55.7050   22.9010   44.4390 C   0  0  0  0  0  0  0  0  0  0  0  0
   54.3300   23.4930   44.2630 C   0  0  0  0  0  0  0  0  0  0  0  0
   53.5841   22.6846   44.2555 H   0  0  0  0  0  0  0  0  0  0  0  0
   54.2945   24.0441   43.3116 H   0  0  0  0  0  0  0  0  0  0  0  0
   54.0280   24.4340   45.3850 C   0  0  0  0  0  0  0  0  0  0  0  0
   52.8340   24.7870   45.5920 O   0  0  0  0  0  0  0  0  0  0  0  0
   55.1110   25.0150   46.1280 N   0  0  0  0  0  0  0  0  0  0  0  0
   55.4530   26.2460   46.1190 N   0  0  0  0  0  0  0  0  0  0  0  0
   56.8010   26.7360   46.1010 C   0  0  0  0  0  0  0  0  0  0  0  0
   57.9560   26.0400   46.4340 C   0  0  0  0  0  0  0  0  0  0  0  0
   57.9890   24.7610   46.9750 O   0  0  0  0  0  0  0  0  0  0  0  0
   59.0720   26.7410   46.1260 N   0  0  0  0  0  0  0  0  0  0  0  0
   58.6070   27.8750   45.5630 C   0  0  0  0  0  0  0  0  0  0  0  0
   59.3690   28.9240   45.0440 C   0  0  0  0  0  0  0  0  0  0  0  0
   61.1230   28.8930   45.1050 Cl  0  0  0  0  0  0  0  0  0  0  0  0
   58.6900   30.0100   44.4600 C   0  0  0  0  0  0  0  0  0  0  0  0
   59.2630   30.8529   44.0463 H   0  0  0  0  0  0  0  0  0  0  0  0
   57.2800   30.0260   44.4010 C   0  0  0  0  0  0  0  0  0  0  0  0
   56.7613   30.8792   43.9395 H   0  0  0  0  0  0  0  0  0  0  0  0
   56.5350   28.9570   44.9290 C   0  0  0  0  0  0  0  0  0  0  0  0
   55.1460   28.9660   44.8770 O   0  0  0  0  0  0  0  0  0  0  0  0
   57.2330   27.8970   45.5080 C   0  0  0  0  0  0  0  0  0  0  0  0
   55.8730   21.5830   44.9090 C   0  0  0  0  0  0  0  0  0  0  0  0
   54.7720   20.8040   45.2500 O   0  0  0  0  0  0  0  0  0  0  0  0
   57.1580   21.0430   45.0360 C   0  0  0  0  0  0  0  0  0  0  0  0
   57.2869   20.0173   45.4120 H   0  0  0  0  0  0  0  0  0  0  0  0
  1  2  1  0
  2  3  2  0
  3  4  1  0
  3  5  1  0
  5  6  1  0
  5  7  2  0
  7  8  1  0
  8  9  1  0
  8 10  1  0
  8 11  1  0
 11 12  2  0
 11 13  1  0
 13 14  2  0
 14 15  1  0
 15 16  2  0
 16 17  1  0
 16 18  1  0
 18 19  1  0
 19 20  2  0
 20 21  1  0
 20 22  1  0
 22 23  1  0
 22 24  2  0
 24 25  1  0
 24 26  1  0
 26 27  1  0
 26 28  2  0
  7 29  1  0
 29 30  1  0
 29 31  2  0
 31 32  1  0
 31  2  1  0
 28 15  1  0
 28 19  1  0
M  CHG  4  17  -1  18  -1  27  -1  30  -1
M  END
>  <UniqueID>  (19) 
17

>  <SMILES>  (19) 
O=C(Cc1ccccc1[O-])/N=N\c1c([O-])[n-]c2c(Cl)ccc([O-])c12

>  <Energy>  (19) 
79.57689535035071

>  <Genealogy>  (19) 
O=C(Cc1ccccc1[O-])N=Nc1c([O-])[n-]c2c(Cl)ccc([O-])c12 (protonated)
O=C(Cc1ccccc1[O-])/N=N\c1c([O-])[n-]c2c(Cl)ccc([O-])c12 (cis-trans isomerization)
O=C(Cc1ccccc1[O-])/N=N\c1c([O-])[n-]c2c(Cl)ccc([O-])c12 (3D coordinates assigned)
O=C(Cc1ccccc1[O-])/N=N\c1c([O-])[n-]c2c(Cl)ccc([O-])c12 (optimized conformer: 79.57689535035071 kcal/mol)

>  <smiles>  (19) 
O=C(Cc1ccccc1O)N=Nc1c(O)[nH]c2c(Cl)ccc(O)c12

>  <score_type>  (19) 
oracle

>  <origin>  (19) 
adg

>  <m_score__min__energy>  (19) 
-16.420000000000002

>  <m_primary>  (19) 
energy

$$$$
19:0
     RDKit          3D

 29 31  0  0  0  0  0  0  0  0999 V2000
   59.2780   33.7410   48.0950 C   0  0  0  0  0  0  0  0  0  0  0  0
   59.1360   33.9650   46.6250 C   0  0  0  0  0  0  0  0  0  0  0  0
   59.5720   35.0720   45.9730 N   0  0  0  0  0  0  0  0  0  0  0  0
   59.2820   34.9210   44.7080 O   0  0  0  0  0  0  0  0  0  0  0  0
   58.6830   33.7720   44.5240 C   0  0  0  0  0  0  0  0  0  0  0  0
   58.2350   33.2590   43.3550 N   0  0  0  0  0  0  0  0  0  0  0  0
   57.6300   32.0340   43.3590 C   0  0  0  0  0  0  0  0  0  0  0  0
   57.4630   31.3000   44.5680 C   0  0  0  0  0  0  0  0  0  0  0  0
   56.7800   29.9780   44.5320 C   0  0  0  0  0  0  0  0  0  0  0  0
   55.5290   29.9200   44.6700 O   0  0  0  0  0  0  0  0  0  0  0  0
   57.4970   28.7640   44.2780 N   0  0  0  0  0  0  0  0  0  0  0  0
   57.8420   27.8350   45.1290 C   0  0  0  0  0  0  0  0  0  0  0  0
   59.1720   27.6090   45.3130 N   0  0  0  0  0  0  0  0  0  0  0  0
   59.6460   26.6810   46.1830 C   0  0  0  0  0  0  0  0  0  0  0  0
   58.7600   25.9110   46.9320 C   0  0  0  0  0  0  0  0  0  0  0  0
   57.3890   26.0940   46.7620 C   0  0  0  0  0  0  0  0  0  0  0  0
   56.9090   27.0430   45.8510 C   0  0  0  0  0  0  0  0  0  0  0  0
   55.5330   27.1640   45.6560 O   0  0  0  0  0  0  0  0  0  0  0  0
   57.9570   31.8610   45.7770 C   0  0  0  0  0  0  0  0  0  0  0  0
   57.8790   31.2530   46.8780 O   0  0  0  0  0  0  0  0  0  0  0  0
   58.5580   33.1150   45.7060 C   0  0  0  0  0  0  0  0  0  0  0  0
   58.7664   34.5480   48.6400 H   0  0  0  0  0  0  0  0  0  0  0  0
   58.8275   32.7741   48.3638 H   0  0  0  0  0  0  0  0  0  0  0  0
   60.3446   33.7359   48.3638 H   0  0  0  0  0  0  0  0  0  0  0  0
   57.2658   31.6076   42.4127 H   0  0  0  0  0  0  0  0  0  0  0  0
   60.7307   26.5372   46.2964 H   0  0  0  0  0  0  0  0  0  0  0  0
   59.1377   25.1673   47.6492 H   0  0  0  0  0  0  0  0  0  0  0  0
   56.6799   25.4896   47.3467 H   0  0  0  0  0  0  0  0  0  0  0  0
   55.1440   27.8380   45.0070 H   0  0  0  0  0  0  0  0  0  0  0  0
  1  2  1  0
  2  3  2  0
  3  4  1  0
  4  5  1  0
  5  6  1  0
  6  7  1  0
  7  8  2  0
  8  9  1  0
  9 10  2  0
  9 11  1  0
 11 12  2  3
 12 13  1  0
 13 14  1  0
 14 15  2  0
 15 16  1  0
 16 17  2  0
 17 18  1  0
  8 19  1  0
 19 20  2  0
 19 21  1  0
 21  2  1  0
 21  5  2  0
 17 12  1  0
  1 22  1  0
  1 23  1  0
  1 24  1  0
  7 25  1  0
 14 26  1  0
 15 27  1  0
 16 28  1  0
 18 29  1  0
M  CHG  2   6  -1  13  -1
M  END
>  <UniqueID>  (20) 
18

>  <SMILES>  (20) 
Cc1noc2[n-]cc(C(=O)N=c3[n-]cccc3O)c(=O)c12

>  <Energy>  (20) 
89.04112247570106

>  <Genealogy>  (20) 
Cc1noc2[n-]cc(C(=O)N=c3[n-]cccc3O)c(=O)c12 (protonated)
Cc1noc2[n-]cc(C(=O)N=c3[n-]cccc3O)c(=O)c12 (3D coordinates assigned)
Cc1noc2[n-]cc(C(=O)N=c3[n-]cccc3O)c(=O)c12 (optimized conformer: 89.04112247570106 kcal/mol)

>  <smiles>  (20) 
Cc1noc2[nH]cc(C(=O)N=c3[nH]cccc3O)c(=O)c12

>  <score_type>  (20) 
oracle

>  <origin>  (20) 
adg

>  <m_score__min__energy>  (20) 
-10.42

>  <m_primary>  (20) 
energy

$$$$
20:0
     RDKit          3D

 50 52  0  0  0  0  0  0  0  0999 V2000
   65.6400   32.4120   50.5160 C   0  0  0  0  0  0  0  0  0  0  0  0
   64.8270   32.2550   49.3580 O   0  0  0  0  0  0  0  0  0  0  0  0
   63.4380   32.0380   49.3830 C   0  0  0  0  0  0  0  0  0  0  0  0
   62.8540   31.0260   50.1680 C   0  0  0  0  0  0  0  0  0  0  0  0
   61.4610   30.8280   50.1680 C   0  0  0  0  0  0  0  0  0  0  0  0
   60.8560   29.8190   50.9390 O   0  0  0  0  0  0  0  0  0  0  0  0
   60.5610   29.9260   52.3270 C   0  0  0  0  0  0  0  0  0  0  0  0
   60.6480   31.6610   49.3770 C   0  0  0  0  0  0  0  0  0  0  0  0
   58.8940   31.4450   49.3570 S   0  0  0  0  0  0  0  0  0  0  0  0
   58.3910   31.4400   50.7730 O   0  0  0  0  0  0  0  0  0  0  0  0
   58.5230   30.1410   48.7060 O   0  0  0  0  0  0  0  0  0  0  0  0
   58.1400   32.7430   48.4920 N   0  0  0  0  0  0  0  0  0  0  0  0
   58.1500   32.9010   47.0670 C   0  0  0  0  0  0  0  0  0  0  0  0
   58.0720   34.1630   46.4520 C   0  0  0  0  0  0  0  0  0  0  0  0
   58.0900   34.2680   45.0580 C   0  0  0  0  0  0  0  0  0  0  0  0
   58.1780   33.1210   44.2690 C   0  0  0  0  0  0  0  0  0  0  0  0
   58.2450   31.8520   44.8680 C   0  0  0  0  0  0  0  0  0  0  0  0
   58.3140   30.6110   44.0240 C   0  0  0  0  0  0  0  0  0  0  0  0
   57.3560   29.5720   44.5290 C   0  0  0  0  0  0  0  0  0  0  0  0
   57.6260   28.2990   45.0050 C   0  0  0  0  0  0  0  0  0  0  0  0
   58.9720   27.6650   45.1440 C   0  0  0  0  0  0  0  0  0  0  0  0
   56.4820   27.7300   45.4420 N   0  0  0  0  0  0  0  0  0  0  0  0
   55.5240   28.5940   45.2480 O   0  0  0  0  0  0  0  0  0  0  0  0
   55.9970   29.6940   44.7180 C   0  0  0  0  0  0  0  0  0  0  0  0
   55.2990   30.7050   44.4430 O   0  0  0  0  0  0  0  0  0  0  0  0
   58.2370   31.7550   46.2700 C   0  0  0  0  0  0  0  0  0  0  0  0
   61.2300   32.6670   48.5950 C   0  0  0  0  0  0  0  0  0  0  0  0
   62.6230   32.8620   48.5950 C   0  0  0  0  0  0  0  0  0  0  0  0
   63.2360   33.8630   47.8260 O   0  0  0  0  0  0  0  0  0  0  0  0
   63.3440   33.8430   46.4080 C   0  0  0  0  0  0  0  0  0  0  0  0
   65.0211   32.2925   51.4175 H   0  0  0  0  0  0  0  0  0  0  0  0
   66.4339   31.6506   50.5127 H   0  0  0  0  0  0  0  0  0  0  0  0
   66.0933   33.4143   50.5127 H   0  0  0  0  0  0  0  0  0  0  0  0
   63.4944   30.3822   50.7889 H   0  0  0  0  0  0  0  0  0  0  0  0
   61.4359   29.6087   52.9133 H   0  0  0  0  0  0  0  0  0  0  0  0
   60.3158   30.9704   52.5703 H   0  0  0  0  0  0  0  0  0  0  0  0
   59.7033   29.2817   52.5703 H   0  0  0  0  0  0  0  0  0  0  0  0
   57.9966   35.0703   47.0694 H   0  0  0  0  0  0  0  0  0  0  0  0
   58.0346   35.2581   44.5819 H   0  0  0  0  0  0  0  0  0  0  0  0
   58.1950   33.2105   43.1728 H   0  0  0  0  0  0  0  0  0  0  0  0
   58.0559   30.8658   42.9855 H   0  0  0  0  0  0  0  0  0  0  0  0
   59.3351   30.2050   44.0749 H   0  0  0  0  0  0  0  0  0  0  0  0
   59.2150   27.5505   46.2107 H   0  0  0  0  0  0  0  0  0  0  0  0
   58.9632   26.6764   44.6618 H   0  0  0  0  0  0  0  0  0  0  0  0
   59.7286   28.3014   44.6618 H   0  0  0  0  0  0  0  0  0  0  0  0
   58.2999   30.7655   46.7464 H   0  0  0  0  0  0  0  0  0  0  0  0
   60.5906   33.3116   47.9741 H   0  0  0  0  0  0  0  0  0  0  0  0
   64.3886   33.6496   46.1225 H   0  0  0  0  0  0  0  0  0  0  0  0
   62.6999   33.0489   46.0024 H   0  0  0  0  0  0  0  0  0  0  0  0
   63.0270   34.8151   46.0024 H   0  0  0  0  0  0  0  0  0  0  0  0
  1  2  1  0
  2  3  1  0
  3  4  2  0
  4  5  1  0
  5  6  1  0
  6  7  1  0
  5  8  2  0
  8  9  1  0
  9 10  2  0
  9 11  2  0
  9 12  1  0
 12 13  1  0
 13 14  2  0
 14 15  1  0
 15 16  2  0
 16 17  1  0
 17 18  1  0
 18 19  1  0
 19 20  2  0
 20 21  1  0
 20 22  1  0
 22 23  1  0
 23 24  1  0
 24 25  2  0
 17 26  2  0
  8 27  1  0
 27 28  2  0
 28 29  1  0
 29 30  1  0
 28  3  1  0
 26 13  1  0
 24 19  1  0
  1 31  1  0
  1 32  1  0
  1 33  1  0
  4 34  1  0
  7 35  1  0
  7 36  1  0
  7 37  1  0
 14 38  1  0
 15 39  1  0
 16 40  1  0
 18 41  1  0
 18 42  1  0
 21 43  1  0
 21 44  1  0
 21 45  1  0
 26 46  1  0
 27 47  1  0
 30 48  1  0
 30 49  1  0
 30 50  1  0
M  CHG  2  12  -1  22  -1
M  END
>  <UniqueID>  (21) 
19

>  <SMILES>  (21) 
COc1cc(OC)c(S(=O)(=O)[N-]c2cccc(Cc3c(C)[n-]oc3=O)c2)cc1OC

>  <Energy>  (21) 
83.19362544423534

>  <Genealogy>  (21) 
COc1cc(OC)c(S(=O)(=O)[N-]c2cccc(Cc3c(C)[n-]oc3=O)c2)cc1OC (protonated)
COc1cc(OC)c(S(=O)(=O)[N-]c2cccc(Cc3c(C)[n-]oc3=O)c2)cc1OC (3D coordinates assigned)
COc1cc(OC)c(S(=O)(=O)[N-]c2cccc(Cc3c(C)[n-]oc3=O)c2)cc1OC (optimized conformer: 83.19362544423534 kcal/mol)

>  <smiles>  (21) 
COc1cc(OC)c(S(=O)(=O)Nc2cccc(Cc3c(C)[nH]oc3=O)c2)cc1OC

>  <score_type>  (21) 
oracle

>  <origin>  (21) 
adg

>  <m_score__min__energy>  (21) 
-11.68

>  <m_primary>  (21) 
energy

$$$$
21:0
     RDKit          3D

 58 61  0  0  0  0  0  0  0  0999 V2000
   59.7140   26.3550   47.1270 C   0  0  0  0  0  0  0  0  0  0  0  0
   59.8710   27.4250   46.0530 C   0  0  0  0  0  0  0  0  0  0  0  0
   58.8260   28.4640   46.2100 N   0  0  0  0  0  0  0  0  0  0  0  0
   59.1490   29.7070   45.4690 C   0  0  0  0  0  0  0  0  0  0  0  0
   60.4070   30.4130   46.0150 C   0  0  0  0  0  0  0  0  0  0  0  0
   60.3800   30.4690   47.5160 C   0  0  0  0  0  0  0  0  0  0  0  0
   59.5450   29.6430   48.2520 C   0  0  0  0  0  0  0  0  0  0  0  0
   59.8060   29.8920   49.8950 S   0  0  0  0  0  0  0  0  0  0  0  0
   60.9950   31.0630   49.6790 C   0  0  0  0  0  0  0  0  0  0  0  0
   61.7480   31.6420   50.7460 N   0  0  0  0  0  0  0  0  0  0  0  0
   61.6760   33.0230   51.1210 C   0  0  0  0  0  0  0  0  0  0  0  0
   60.6520   33.6870   50.8120 O   0  0  0  0  0  0  0  0  0  0  0  0
   62.8340   33.7240   51.7760 C   0  0  0  0  0  0  0  0  0  0  0  0
   64.0820   33.3490   51.1190 N   0  0  0  0  0  0  0  0  0  0  0  0
   65.2910   33.9020   51.3310 C   0  0  0  0  0  0  0  0  0  0  0  0
   66.2140   33.2590   50.5280 C   0  0  0  0  0  0  0  0  0  0  0  0
   65.4860   32.3040   49.8390 C   0  0  0  0  0  0  0  0  0  0  0  0
   64.1990   32.3870   50.2180 N   0  0  0  0  0  0  0  0  0  0  0  0
   61.2290   31.2520   48.3160 C   0  0  0  0  0  0  0  0  0  0  0  0
   62.3400   32.0510   47.7710 C   0  0  0  0  0  0  0  0  0  0  0  0
   63.4870   31.5390   47.6980 O   0  0  0  0  0  0  0  0  0  0  0  0
   62.1320   33.4170   47.3620 N   0  0  0  0  0  0  0  0  0  0  0  0
   63.0260   34.0300   46.3710 C   0  0  0  0  0  0  0  0  0  0  0  0
   61.0150   34.1860   47.9240 C   0  0  0  0  0  0  0  0  0  0  0  0
   59.7980   34.0170   47.0550 C   0  0  0  0  0  0  0  0  0  0  0  0
   58.6590   33.3550   47.5430 C   0  0  0  0  0  0  0  0  0  0  0  0
   57.5610   33.1330   46.7070 C   0  0  0  0  0  0  0  0  0  0  0  0
   57.5930   33.5690   45.3800 C   0  0  0  0  0  0  0  0  0  0  0  0
   58.7230   34.2260   44.8850 C   0  0  0  0  0  0  0  0  0  0  0  0
   59.8240   34.4470   45.7170 C   0  0  0  0  0  0  0  0  0  0  0  0
   58.5160   28.7440   47.6340 C   0  0  0  0  0  0  0  0  0  0  0  0
   59.7823   26.8206   48.1212 H   0  0  0  0  0  0  0  0  0  0  0  0
   58.7346   25.8664   47.0174 H   0  0  0  0  0  0  0  0  0  0  0  0
   60.5118   25.6057   47.0174 H   0  0  0  0  0  0  0  0  0  0  0  0
   60.8633   27.8905   46.1460 H   0  0  0  0  0  0  0  0  0  0  0  0
   59.7671   26.9578   45.0626 H   0  0  0  0  0  0  0  0  0  0  0  0
   59.3181   29.4533   44.4121 H   0  0  0  0  0  0  0  0  0  0  0  0
   58.3008   30.3969   45.5898 H   0  0  0  0  0  0  0  0  0  0  0  0
   61.3004   29.8589   45.6911 H   0  0  0  0  0  0  0  0  0  0  0  0
   60.4308   31.4412   45.6248 H   0  0  0  0  0  0  0  0  0  0  0  0
   62.6932   34.8120   51.6963 H   0  0  0  0  0  0  0  0  0  0  0  0
   62.8814   33.4300   52.8349 H   0  0  0  0  0  0  0  0  0  0  0  0
   65.5077   34.7265   52.0261 H   0  0  0  0  0  0  0  0  0  0  0  0
   67.2925   33.4619   50.4527 H   0  0  0  0  0  0  0  0  0  0  0  0
   65.8933   31.5948   49.1033 H   0  0  0  0  0  0  0  0  0  0  0  0
   63.4160   31.7910   49.8710 H   0  0  0  0  0  0  0  0  0  0  0  0
   63.8263   34.5788   46.8890 H   0  0  0  0  0  0  0  0  0  0  0  0
   63.4685   33.2444   45.7409 H   0  0  0  0  0  0  0  0  0  0  0  0
   62.4527   34.7259   45.7409 H   0  0  0  0  0  0  0  0  0  0  0  0
   60.7939   33.8224   48.9383 H   0  0  0  0  0  0  0  0  0  0  0  0
   61.2889   35.2505   47.9660 H   0  0  0  0  0  0  0  0  0  0  0  0
   58.6312   33.0100   48.5871 H   0  0  0  0  0  0  0  0  0  0  0  0
   56.6713   32.6148   47.0941 H   0  0  0  0  0  0  0  0  0  0  0  0
   56.7275   33.3949   44.7238 H   0  0  0  0  0  0  0  0  0  0  0  0
   58.7458   34.5693   43.8402 H   0  0  0  0  0  0  0  0  0  0  0  0
   60.7142   34.9593   45.3233 H   0  0  0  0  0  0  0  0  0  0  0  0
   58.4915   27.7942   48.1883 H   0  0  0  0  0  0  0  0  0  0  0  0
   57.5405   29.2500   47.6827 H   0  0  0  0  0  0  0  0  0  0  0  0
  1  2  1  0
  2  3  1  0
  3  4  1  0
  4  5  1  0
  5  6  1  0
  6  7  2  0
  7  8  1  0
  8  9  1  0
  9 10  1  0
 10 11  1  0
 11 12  2  0
 11 13  1  0
 13 14  1  0
 14 15  1  0
 15 16  2  0
 16 17  1  0
 17 18  2  0
  9 19  2  0
 19 20  1  0
 20 21  2  0
 20 22  1  0
 22 23  1  0
 22 24  1  0
 24 25  1  0
 25 26  2  0
 26 27  1  0
 27 28  2  0
 28 29  1  0
 29 30  2  0
  7 31  1  0
 31  3  1  0
 19  6  1  0
 30 25  1  0
 18 14  1  0
  1 32  1  0
  1 33  1  0
  1 34  1  0
  2 35  1  0
  2 36  1  0
  4 37  1  0
  4 38  1  0
  5 39  1  0
  5 40  1  0
 13 41  1  0
 13 42  1  0
 15 43  1  0
 16 44  1  0
 17 45  1  0
 18 46  1  0
 23 47  1  0
 23 48  1  0
 23 49  1  0
 24 50  1  0
 24 51  1  0
 26 52  1  0
 27 53  1  0
 28 54  1  0
 29 55  1  0
 30 56  1  0
 31 57  1  0
 31 58  1  0
M  CHG  2  10  -1  18   1
M  END
>  <UniqueID>  (22) 
20

>  <SMILES>  (22) 
CCN1CCc2c(sc([N-]C(=O)Cn3ccc[nH+]3)c2C(=O)N(C)Cc2ccccc2)C1

>  <Energy>  (22) 
127.79107222263555

>  <Genealogy>  (22) 
CCN1CCc2c(sc([N-]C(=O)Cn3ccc[nH+]3)c2C(=O)N(C)Cc2ccccc2)C1 (protonated)
CCN1CCc2c(sc([N-]C(=O)Cn3ccc[nH+]3)c2C(=O)N(C)Cc2ccccc2)C1 (3D coordinates assigned)
CCN1CCc2c(sc([N-]C(=O)Cn3ccc[nH+]3)c2C(=O)N(C)Cc2ccccc2)C1 (nonaromatic ring conformer: 127.79107222263555 kcal/mol)

>  <smiles>  (22) 
CCN1CCc2c(sc(NC(=O)Cn3cccn3)c2C(=O)N(C)Cc2ccccc2)C1

>  <score_type>  (22) 
oracle

>  <origin>  (22) 
adg

>  <m_score__min__energy>  (22) 
-8.4199999999999999

>  <m_primary>  (22) 
energy

$$$$
22:0
     RDKit          3D

 72 76  0  0  0  0  0  0  0  0999 V2000
   58.2032   35.0655   47.8661 H   0  0  0  0  0  0  0  0  0  0  0  0
   58.7420   34.4520   47.1290 C   0  0  0  0  0  0  0  0  0  0  0  0
   59.9250   35.0200   46.4650 C   0  0  0  0  0  0  0  0  0  0  0  0
   59.9990   36.2570   46.2210 O   0  0  0  0  0  0  0  0  0  0  0  0
   60.9740   34.1410   46.0510 N   0  0  0  0  0  0  0  0  0  0  0  0
   62.2240   33.9890   46.7840 C   0  0  0  0  0  0  0  0  0  0  0  0
   62.9614   33.4768   46.1485 H   0  0  0  0  0  0  0  0  0  0  0  0
   62.6067   34.9814   47.0644 H   0  0  0  0  0  0  0  0  0  0  0  0
   61.9830   33.1760   48.0270 C   0  0  0  0  0  0  0  0  0  0  0  0
   62.3420   31.8200   48.0780 C   0  0  0  0  0  0  0  0  0  0  0  0
   62.8691   31.3602   47.2290 H   0  0  0  0  0  0  0  0  0  0  0  0
   62.0320   31.0520   49.2040 C   0  0  0  0  0  0  0  0  0  0  0  0
   62.3328   29.9947   49.2443 H   0  0  0  0  0  0  0  0  0  0  0  0
   61.3390   31.6220   50.2840 C   0  0  0  0  0  0  0  0  0  0  0  0
   60.9760   30.7950   51.4560 C   0  0  0  0  0  0  0  0  0  0  0  0
   61.4010   29.6100   51.5270 O   0  0  0  0  0  0  0  0  0  0  0  0
   60.1480   31.3120   52.5180 N   0  0  0  0  0  0  0  0  0  0  0  0
   58.7270   31.1270   52.4410 C   0  0  0  0  0  0  0  0  0  0  0  0
   58.2220   29.8180   52.4520 C   0  0  0  0  0  0  0  0  0  0  0  0
   58.9162   28.9667   52.5093 H   0  0  0  0  0  0  0  0  0  0  0  0
   56.8480   29.5860   52.3910 C   0  0  0  0  0  0  0  0  0  0  0  0
   56.4625   28.5559   52.4068 H   0  0  0  0  0  0  0  0  0  0  0  0
   55.9640   30.6600   52.3100 C   0  0  0  0  0  0  0  0  0  0  0  0
   54.8804   30.4772   52.2618 H   0  0  0  0  0  0  0  0  0  0  0  0
   56.4520   31.9680   52.2900 C   0  0  0  0  0  0  0  0  0  0  0  0
   55.7461   32.8082   52.2145 H   0  0  0  0  0  0  0  0  0  0  0  0
   57.8330   32.2280   52.3650 C   0  0  0  0  0  0  0  0  0  0  0  0
   58.2710   33.6820   52.2620 C   0  0  0  0  0  0  0  0  0  0  0  0
   57.4854   34.2952   52.7275 H   0  0  0  0  0  0  0  0  0  0  0  0
   58.4276   33.8490   51.1861 H   0  0  0  0  0  0  0  0  0  0  0  0
   59.6090   34.0760   52.9150 C   0  0  0  0  0  0  0  0  0  0  0  0
   59.5431   35.1237   53.2437 H   0  0  0  0  0  0  0  0  0  0  0  0
   60.3974   33.9297   52.1620 H   0  0  0  0  0  0  0  0  0  0  0  0
   59.9660   33.2060   54.1260 C   0  0  0  0  0  0  0  0  0  0  0  0
   59.0388   32.9015   54.6336 H   0  0  0  0  0  0  0  0  0  0  0  0
   60.6045   33.7962   54.7998 H   0  0  0  0  0  0  0  0  0  0  0  0
   60.7400   31.9500   53.7050 C   0  0  0  0  0  0  0  0  0  0  0  0
   60.7303   31.2308   54.5373 H   0  0  0  0  0  0  0  0  0  0  0  0
   61.7674   32.2515   53.4530 H   0  0  0  0  0  0  0  0  0  0  0  0
   61.0070   32.9850   50.2430 C   0  0  0  0  0  0  0  0  0  0  0  0
   60.4947   33.4494   51.0985 H   0  0  0  0  0  0  0  0  0  0  0  0
   61.3240   33.7550   49.1210 C   0  0  0  0  0  0  0  0  0  0  0  0
   61.0551   34.8213   49.0957 H   0  0  0  0  0  0  0  0  0  0  0  0
   58.2960   33.2160   46.8700 C   0  0  0  0  0  0  0  0  0  0  0  0
   58.1063   32.5374   47.7147 H   0  0  0  0  0  0  0  0  0  0  0  0
   58.0470   32.7230   45.4950 C   0  0  0  0  0  0  0  0  0  0  0  0
   58.5070   33.4770   44.4050 C   0  0  0  0  0  0  0  0  0  0  0  0
   59.0142   34.4373   44.5800 H   0  0  0  0  0  0  0  0  0  0  0  0
   58.3250   33.0160   43.0980 C   0  0  0  0  0  0  0  0  0  0  0  0
   58.6767   33.6207   42.2491 H   0  0  0  0  0  0  0  0  0  0  0  0
   57.6980   31.7900   42.8670 C   0  0  0  0  0  0  0  0  0  0  0  0
   57.5572   31.4306   41.8369 H   0  0  0  0  0  0  0  0  0  0  0  0
   57.2480   31.0170   43.9450 C   0  0  0  0  0  0  0  0  0  0  0  0
   56.5090   29.4400   43.6850 S   0  0  0  0  0  0  0  0  0  0  0  0
   55.3700   29.2660   44.6510 O   0  0  0  0  0  0  0  0  0  0  0  0
   55.9770   29.3370   42.2810 O   0  0  0  0  0  0  0  0  0  0  0  0
   57.7410   28.1750   43.9450 C   0  0  0  0  0  0  0  0  0  0  0  0
   57.2391   27.2100   44.1089 H   0  0  0  0  0  0  0  0  0  0  0  0
   58.3874   28.1221   43.0565 H   0  0  0  0  0  0  0  0  0  0  0  0
   58.5900   28.5000   45.1430 C   0  0  0  0  0  0  0  0  0  0  0  0
   59.8250   29.1480   44.9740 C   0  0  0  0  0  0  0  0  0  0  0  0
   60.1622   29.4299   43.9656 H   0  0  0  0  0  0  0  0  0  0  0  0
   60.6270   29.4360   46.0820 C   0  0  0  0  0  0  0  0  0  0  0  0
   61.5897   29.9498   45.9436 H   0  0  0  0  0  0  0  0  0  0  0  0
   60.2090   29.0730   47.3650 C   0  0  0  0  0  0  0  0  0  0  0  0
   60.8403   29.3041   48.2357 H   0  0  0  0  0  0  0  0  0  0  0  0
   58.9880   28.4160   47.5410 C   0  0  0  0  0  0  0  0  0  0  0  0
   58.6615   28.1269   48.5509 H   0  0  0  0  0  0  0  0  0  0  0  0
   58.1800   28.1250   46.4370 C   0  0  0  0  0  0  0  0  0  0  0  0
   57.0030   27.4770   46.6300 F   0  0  0  0  0  0  0  0  0  0  0  0
   57.4240   31.4840   45.2540 C   0  0  0  0  0  0  0  0  0  0  0  0
   57.0722   30.8769   46.1012 H   0  0  0  0  0  0  0  0  0  0  0  0
  1  2  1  0
  2  3  1  0
  3  4  2  0
  3  5  1  0
  5  6  1  0
  6  7  1  0
  6  8  1  0
  6  9  1  0
  9 10  2  0
 10 11  1  0
 10 12  1  0
 12 13  1  0
 12 14  2  0
 14 15  1  0
 15 16  2  0
 15 17  1  0
 17 18  1  0
 18 19  2  0
 19 20  1  0
 19 21  1  0
 21 22  1  0
 21 23  2  0
 23 24  1  0
 23 25  1  0
 25 26  1  0
 25 27  2  0
 27 28  1  0
 28 29  1  0
 28 30  1  0
 28 31  1  0
 31 32  1  0
 31 33  1  0
 31 34  1  0
 34 35  1  0
 34 36  1  0
 34 37  1  0
 37 38  1  0
 37 39  1  0
 14 40  1  0
 40 41  1  0
 40 42  2  0
 42 43  1  0
  2 44  2  0
 44 45  1  0
 44 46  1  0
 46 47  2  0
 47 48  1  0
 47 49  1  0
 49 50  1  0
 49 51  2  0
 51 52  1  0
 51 53  1  0
 53 54  1  0
 54 55  2  0
 54 56  2  0
 54 57  1  0
 57 58  1  0
 57 59  1  0
 57 60  1  0
 60 61  2  0
 61 62  1  0
 61 63  1  0
 63 64  1  0
 63 65  2  0
 65 66  1  0
 65 67  1  0
 67 68  1  0
 67 69  2  0
 69 70  1  0
 53 71  2  0
 71 72  1  0
 42  9  1  0
 71 46  1  0
 37 17  1  0
 69 60  1  0
 27 18  1  0
M  CHG  1   5  -1
M  END
>  <UniqueID>  (23) 
21

>  <SMILES>  (23) 
O=C(/C=C/c1cccc(S(=O)(=O)Cc2ccccc2F)c1)[N-]Cc1ccc(C(=O)N2CCCCc3ccccc32)cc1

>  <Energy>  (23) 
92.88701057364047

>  <Genealogy>  (23) 
O=C(C=Cc1cccc(S(=O)(=O)Cc2ccccc2F)c1)[N-]Cc1ccc(C(=O)N2CCCCc3ccccc32)cc1 (protonated)
O=C(/C=C/c1cccc(S(=O)(=O)Cc2ccccc2F)c1)[N-]Cc1ccc(C(=O)N2CCCCc3ccccc32)cc1 (cis-trans isomerization)
O=C(/C=C/c1cccc(S(=O)(=O)Cc2ccccc2F)c1)[N-]Cc1ccc(C(=O)N2CCCCc3ccccc32)cc1 (3D coordinates assigned)
O=C(/C=C/c1cccc(S(=O)(=O)Cc2ccccc2F)c1)[N-]Cc1ccc(C(=O)N2CCCCc3ccccc32)cc1 (nonaromatic ring conformer: 92.88701057364047 kcal/mol)

>  <smiles>  (23) 
O=C(C=Cc1cccc(S(=O)(=O)Cc2ccccc2F)c1)NCc1ccc(C(=O)N2CCCCc3ccccc32)cc1

>  <score_type>  (23) 
oracle

>  <origin>  (23) 
adg

>  <m_score__min__energy>  (23) 
-11.390000000000001

>  <m_primary>  (23) 
energy

$$$$
23:0
     RDKit          3D

 55 57  0  0  0  0  0  0  0  0999 V2000
   58.9730   33.6580   44.2620 C   0  0  0  0  0  0  0  0  0  0  0  0
   57.7530   33.5150   45.5510 S   0  0  0  0  0  0  0  0  0  0  0  0
   57.1340   32.1460   45.5380 O   0  0  0  0  0  0  0  0  0  0  0  0
   56.6760   34.5330   45.3090 O   0  0  0  0  0  0  0  0  0  0  0  0
   58.4770   33.8270   47.0970 N   0  0  0  0  0  0  0  0  0  0  0  0
   59.8300   33.5310   47.4770 C   0  0  0  0  0  0  0  0  0  0  0  0
   60.9240   34.0840   46.7840 C   0  0  0  0  0  0  0  0  0  0  0  0
   62.2320   33.8040   47.1840 C   0  0  0  0  0  0  0  0  0  0  0  0
   62.4690   32.9680   48.2740 C   0  0  0  0  0  0  0  0  0  0  0  0
   64.1150   32.6100   48.7640 Cl  0  0  0  0  0  0  0  0  0  0  0  0
   61.3950   32.4080   48.9700 C   0  0  0  0  0  0  0  0  0  0  0  0
   60.0700   32.6850   48.5860 C   0  0  0  0  0  0  0  0  0  0  0  0
   58.9460   32.0620   49.3270 C   0  0  0  0  0  0  0  0  0  0  0  0
   57.8560   32.6870   49.4330 O   0  0  0  0  0  0  0  0  0  0  0  0
   59.0660   30.7320   49.9540 C   0  0  0  0  0  0  0  0  0  0  0  0
   58.7590   30.5720   51.1660 O   0  0  0  0  0  0  0  0  0  0  0  0
   59.5610   29.6330   49.1770 N   0  0  0  0  0  0  0  0  0  0  0  0
   59.5780   29.5360   47.7460 C   0  0  0  0  0  0  0  0  0  0  0  0
   60.7710   29.6240   47.0060 C   0  0  0  0  0  0  0  0  0  0  0  0
   60.7450   29.4990   45.6140 C   0  0  0  0  0  0  0  0  0  0  0  0
   59.5370   29.2720   44.9510 C   0  0  0  0  0  0  0  0  0  0  0  0
   58.3460   29.1630   45.6780 C   0  0  0  0  0  0  0  0  0  0  0  0
   56.8350   28.8450   44.8330 S   0  0  0  0  0  0  0  0  0  0  0  0
   55.9540   30.0630   44.8760 O   0  0  0  0  0  0  0  0  0  0  0  0
   57.1420   28.5030   43.4020 O   0  0  0  0  0  0  0  0  0  0  0  0
   56.0350   27.5160   45.6080 N   0  0  0  0  0  0  0  0  0  0  0  0
   56.4960   26.3010   45.6840 C   0  0  0  0  0  0  0  0  0  0  0  0
   57.6820   25.9380   44.8260 C   0  0  0  0  0  0  0  0  0  0  0  0
   57.4030   24.7160   43.9440 C   0  0  0  0  0  0  0  0  0  0  0  0
   57.6730   23.3750   44.6500 C   0  0  0  0  0  0  0  0  0  0  0  0
   57.2310   23.3060   46.1230 C   0  0  0  0  0  0  0  0  0  0  0  0
   55.8490   23.9220   46.3690 C   0  0  0  0  0  0  0  0  0  0  0  0
   55.9500   25.3590   46.6270 N   0  0  0  0  0  0  0  0  0  0  0  0
   58.3740   29.2820   47.0760 C   0  0  0  0  0  0  0  0  0  0  0  0
   59.9699   33.7749   44.7120 H   0  0  0  0  0  0  0  0  0  0  0  0
   58.9560   32.7517   43.6388 H   0  0  0  0  0  0  0  0  0  0  0  0
   58.7468   34.5358   43.6388 H   0  0  0  0  0  0  0  0  0  0  0  0
   60.7466   34.7419   45.9205 H   0  0  0  0  0  0  0  0  0  0  0  0
   63.0786   34.2447   46.6371 H   0  0  0  0  0  0  0  0  0  0  0  0
   61.5869   31.7444   49.8261 H   0  0  0  0  0  0  0  0  0  0  0  0
   61.7268   29.7916   47.5240 H   0  0  0  0  0  0  0  0  0  0  0  0
   61.6792   29.5797   45.0389 H   0  0  0  0  0  0  0  0  0  0  0  0
   59.5215   29.1787   43.8551 H   0  0  0  0  0  0  0  0  0  0  0  0
   57.9272   26.7935   44.1795 H   0  0  0  0  0  0  0  0  0  0  0  0
   58.5199   25.6895   45.4939 H   0  0  0  0  0  0  0  0  0  0  0  0
   56.3469   24.7417   43.6374 H   0  0  0  0  0  0  0  0  0  0  0  0
   58.0881   24.7734   43.0853 H   0  0  0  0  0  0  0  0  0  0  0  0
   57.1398   22.5870   44.0980 H   0  0  0  0  0  0  0  0  0  0  0  0
   58.7657   23.2482   44.6542 H   0  0  0  0  0  0  0  0  0  0  0  0
   57.2027   22.2502   46.4303 H   0  0  0  0  0  0  0  0  0  0  0  0
   57.9571   23.8881   46.7095 H   0  0  0  0  0  0  0  0  0  0  0  0
   55.2204   23.7599   45.4810 H   0  0  0  0  0  0  0  0  0  0  0  0
   55.4039   23.4394   47.2516 H   0  0  0  0  0  0  0  0  0  0  0  0
   55.5420   25.7090   47.5220 H   0  0  0  0  0  0  0  0  0  0  0  0
   57.4423   29.1749   47.6509 H   0  0  0  0  0  0  0  0  0  0  0  0
  1  2  1  0
  2  3  2  0
  2  4  2  0
  2  5  1  0
  5  6  1  0
  6  7  2  0
  7  8  1  0
  8  9  2  0
  9 10  1  0
  9 11  1  0
 11 12  2  0
 12 13  1  0
 13 14  2  0
 13 15  1  0
 15 16  2  0
 15 17  1  0
 17 18  1  0
 18 19  2  0
 19 20  1  0
 20 21  2  0
 21 22  1  0
 22 23  1  0
 23 24  2  0
 23 25  2  0
 23 26  1  0
 26 27  2  3
 27 28  1  0
 28 29  1  0
 29 30  1  0
 30 31  1  0
 31 32  1  0
 32 33  1  0
 22 34  2  0
 12  6  1  0
 34 18  1  0
 33 27  1  0
  1 35  1  0
  1 36  1  0
  1 37  1  0
  7 38  1  0
  8 39  1  0
 11 40  1  0
 19 41  1  0
 20 42  1  0
 21 43  1  0
 28 44  1  0
 28 45  1  0
 29 46  1  0
 29 47  1  0
 30 48  1  0
 30 49  1  0
 31 50  1  0
 31 51  1  0
 32 52  1  0
 32 53  1  0
 33 54  1  0
 34 55  1  0
M  CHG  2   5  -1  17  -1
M  END
>  <UniqueID>  (24) 
22

>  <SMILES>  (24) 
CS(=O)(=O)[N-]c1ccc(Cl)cc1C(=O)C(=O)[N-]c1cccc(S(=O)(=O)N=C2CCCCCN2)c1

>  <Energy>  (24) 
69.8211950504606

>  <Genealogy>  (24) 
CS(=O)(=O)[N-]c1ccc(Cl)cc1C(=O)C(=O)[N-]c1cccc(S(=O)(=O)N=C2CCCCCN2)c1 (protonated)
CS(=O)(=O)[N-]c1ccc(Cl)cc1C(=O)C(=O)[N-]c1cccc(S(=O)(=O)N=C2CCCCCN2)c1 (3D coordinates assigned)
CS(=O)(=O)[N-]c1ccc(Cl)cc1C(=O)C(=O)[N-]c1cccc(S(=O)(=O)N=C2CCCCCN2)c1 (nonaromatic ring conformer: 69.8211950504606 kcal/mol)

>  <smiles>  (24) 
CS(=O)(=O)Nc1ccc(Cl)cc1C(=O)C(=O)Nc1cccc(S(=O)(=O)N=C2CCCCCN2)c1

>  <score_type>  (24) 
oracle

>  <origin>  (24) 
adg

>  <m_score__min__energy>  (24) 
-11.539999999999999

>  <m_primary>  (24) 
energy

$$$$
24:0
     RDKit          3D

 48 51  0  0  0  0  0  0  0  0999 V2000
   55.0229   29.7920   52.3851 H   0  0  0  0  0  0  0  0  0  0  0  0
   55.8120   30.5400   52.2180 C   0  0  0  0  0  0  0  0  0  0  0  0
   56.6760   31.3590   52.0350 C   0  0  0  0  0  0  0  0  0  0  0  0
   57.7070   32.3360   51.8160 C   0  0  0  0  0  0  0  0  0  0  0  0
   58.8420   32.1640   51.0510 C   0  0  0  0  0  0  0  0  0  0  0  0
   59.1380   31.2638   50.4924 H   0  0  0  0  0  0  0  0  0  0  0  0
   59.5300   33.3620   51.1340 C   0  0  0  0  0  0  0  0  0  0  0  0
   60.8250   33.6630   50.4910 C   0  0  0  0  0  0  0  0  0  0  0  0
   61.7360   34.2120   51.1630 O   0  0  0  0  0  0  0  0  0  0  0  0
   61.1000   33.2680   49.1390 N   0  0  0  0  0  0  0  0  0  0  0  0
   60.2610   33.2490   48.1420 C   0  0  0  0  0  0  0  0  0  0  0  0
   59.4160   34.3040   47.9870 N   0  0  0  0  0  0  0  0  0  0  0  0
   58.5100   34.3650   46.9760 C   0  0  0  0  0  0  0  0  0  0  0  0
   57.8506   35.2405   46.8825 H   0  0  0  0  0  0  0  0  0  0  0  0
   58.4140   33.3210   46.0570 C   0  0  0  0  0  0  0  0  0  0  0  0
   57.6960   33.3780   45.2256 H   0  0  0  0  0  0  0  0  0  0  0  0
   59.2420   32.1960   46.2020 C   0  0  0  0  0  0  0  0  0  0  0  0
   59.1930   31.1170   45.3070 O   0  0  0  0  0  0  0  0  0  0  0  0
   58.3030   30.0350   45.3860 C   0  0  0  0  0  0  0  0  0  0  0  0
   58.6580   28.9290   46.1650 C   0  0  0  0  0  0  0  0  0  0  0  0
   59.6240   28.9191   46.6910 H   0  0  0  0  0  0  0  0  0  0  0  0
   57.7940   27.8360   46.2800 C   0  0  0  0  0  0  0  0  0  0  0  0
   58.0812   26.9734   46.8992 H   0  0  0  0  0  0  0  0  0  0  0  0
   56.5590   27.8350   45.6070 C   0  0  0  0  0  0  0  0  0  0  0  0
   55.6350   26.7430   45.7120 N   0  0  0  0  0  0  0  0  0  0  0  0
   55.9300   25.4120   46.1600 C   0  0  0  0  0  0  0  0  0  0  0  0
   55.8990   25.1430   47.3910 O   0  0  0  0  0  0  0  0  0  0  0  0
   56.3260   24.3700   45.1770 C   0  0  0  0  0  0  0  0  0  0  0  0
   55.4570   24.0330   44.1210 C   0  0  0  0  0  0  0  0  0  0  0  0
   54.4871   24.5437   44.0293 H   0  0  0  0  0  0  0  0  0  0  0  0
   55.8160   23.0550   43.1880 C   0  0  0  0  0  0  0  0  0  0  0  0
   55.1284   22.7998   42.3682 H   0  0  0  0  0  0  0  0  0  0  0  0
   57.0450   22.4020   43.2950 C   0  0  0  0  0  0  0  0  0  0  0  0
   57.3264   21.6347   42.5588 H   0  0  0  0  0  0  0  0  0  0  0  0
   57.9160   22.7230   44.3360 C   0  0  0  0  0  0  0  0  0  0  0  0
   58.8833   22.2059   44.4191 H   0  0  0  0  0  0  0  0  0  0  0  0
   57.5660   23.6990   45.2750 C   0  0  0  0  0  0  0  0  0  0  0  0
   58.4410   23.9800   46.2740 F   0  0  0  0  0  0  0  0  0  0  0  0
   56.1850   28.9610   44.8640 C   0  0  0  0  0  0  0  0  0  0  0  0
   55.2048   28.9851   44.3654 H   0  0  0  0  0  0  0  0  0  0  0  0
   57.0480   30.0550   44.7510 C   0  0  0  0  0  0  0  0  0  0  0  0
   56.7447   30.9342   44.1637 H   0  0  0  0  0  0  0  0  0  0  0  0
   60.1760   32.1660   47.2410 C   0  0  0  0  0  0  0  0  0  0  0  0
   60.8439   31.2997   47.3565 H   0  0  0  0  0  0  0  0  0  0  0  0
   58.8620   34.2330   51.9190 N   0  0  0  0  0  0  0  0  0  0  0  0
   59.1510   35.2080   52.1620 H   0  0  0  0  0  0  0  0  0  0  0  0
   57.7450   33.6120   52.3370 C   0  0  0  0  0  0  0  0  0  0  0  0
   56.9802   34.0535   52.9929 H   0  0  0  0  0  0  0  0  0  0  0  0
  1  2  1  0
  2  3  3  0
  3  4  1  0
  4  5  1  0
  5  6  1  0
  5  7  2  0
  7  8  1  0
  8  9  2  0
  8 10  1  0
 10 11  2  0
 11 12  1  0
 12 13  1  0
 13 14  1  0
 13 15  2  0
 15 16  1  0
 15 17  1  0
 17 18  1  0
 18 19  1  0
 19 20  2  0
 20 21  1  0
 20 22  1  0
 22 23  1  0
 22 24  2  0
 24 25  1  0
 25 26  1  0
 26 27  2  0
 26 28  1  0
 28 29  2  0
 29 30  1  0
 29 31  1  0
 31 32  1  0
 31 33  2  0
 33 34  1  0
 33 35  1  0
 35 36  1  0
 35 37  2  0
 37 38  1  0
 24 39  1  0
 39 40  1  0
 39 41  2  0
 41 42  1  0
 17 43  2  0
 43 44  1  0
  7 45  1  0
 45 46  1  0
 45 47  1  0
 47 48  1  0
 47  4  2  0
 43 11  1  0
 41 19  1  0
 37 28  1  0
M  CHG  2  12  -1  25  -1
M  END
>  <UniqueID>  (25) 
23

>  <SMILES>  (25) 
C#Cc1c[nH]c(C(=O)/N=c2\cc(Oc3ccc([N-]C(=O)c4ccccc4F)cc3)cc[n-]2)c1

>  <Energy>  (25) 
98.19020448696541

>  <Genealogy>  (25) 
C#Cc1c[nH]c(C(=O)N=c2cc(Oc3ccc([N-]C(=O)c4ccccc4F)cc3)cc[n-]2)c1 (protonated)
C#Cc1c[nH]c(C(=O)/N=c2\cc(Oc3ccc([N-]C(=O)c4ccccc4F)cc3)cc[n-]2)c1 (cis-trans isomerization)
C#Cc1c[nH]c(C(=O)/N=c2\cc(Oc3ccc([N-]C(=O)c4ccccc4F)cc3)cc[n-]2)c1 (3D coordinates assigned)
C#Cc1c[nH]c(C(=O)/N=c2\cc(Oc3ccc([N-]C(=O)c4ccccc4F)cc3)cc[n-]2)c1 (optimized conformer: 98.19020448696541 kcal/mol)

>  <smiles>  (25) 
C#Cc1c[nH]c(C(=O)N=c2cc(Oc3ccc(NC(=O)c4ccccc4F)cc3)cc[nH]2)c1

>  <score_type>  (25) 
oracle

>  <origin>  (25) 
adg

>  <m_score__min__energy>  (25) 
-11.390000000000001

>  <m_primary>  (25) 
energy

$$$$
25:0
     RDKit          3D

 66 70  0  0  0  0  0  0  0  0999 V2000
   50.1120   32.7130   52.1020 O   0  0  0  0  0  0  0  0  0  0  0  0
   51.1810   32.3410   51.5480 C   0  0  0  0  0  0  0  0  0  0  0  0
   51.4080   32.6730   50.2200 O   0  0  0  0  0  0  0  0  0  0  0  0
   52.2100   31.5260   52.2930 C   0  0  2  0  0  0  0  0  0  0  0  0
   53.0710   30.5890   51.4150 C   0  0  0  0  0  0  0  0  0  0  0  0
   54.4780   30.4370   51.9420 C   0  0  0  0  0  0  0  0  0  0  0  0
   54.9440   29.1910   52.3900 C   0  0  0  0  0  0  0  0  0  0  0  0
   56.2350   29.0640   52.9080 C   0  0  0  0  0  0  0  0  0  0  0  0
   57.0730   30.1790   53.0090 C   0  0  0  0  0  0  0  0  0  0  0  0
   58.3290   30.0180   53.6180 O   0  0  0  0  0  0  0  0  0  0  0  0
   59.3710   29.1740   53.1240 C   0  0  0  0  0  0  0  0  0  0  0  0
   59.5310   29.3560   51.6370 C   0  0  0  0  0  0  0  0  0  0  0  0
   60.0060   28.2960   50.8500 C   0  0  0  0  0  0  0  0  0  0  0  0
   60.3260   28.5050   49.5070 C   0  0  0  0  0  0  0  0  0  0  0  0
   60.1500   29.7690   48.9270 C   0  0  0  0  0  0  0  0  0  0  0  0
   60.6690   30.0400   47.5440 C   0  0  0  0  0  0  0  0  0  0  0  0
   59.8060   29.3820   46.5650 N   0  0  0  0  0  0  0  0  0  0  0  0
   60.2450   28.9240   45.2800 C   0  0  0  0  0  0  0  0  0  0  0  0
   61.4510   28.9250   44.9190 O   0  0  0  0  0  0  0  0  0  0  0  0
   59.1850   28.4870   44.4230 N   0  0  0  0  0  0  0  0  0  0  0  0
   58.2800   29.6180   44.1480 C   0  0  0  0  0  0  0  0  0  0  0  0
   57.7280   30.1580   45.5110 C   0  0  0  0  0  0  0  0  0  0  0  0
   58.3340   29.3200   46.6820 C   0  0  0  0  0  0  0  0  0  0  0  0
   57.9140   27.8380   46.4430 C   0  0  0  0  0  0  0  0  0  0  0  0
   58.4680   27.3640   45.0550 C   0  0  0  0  0  0  0  0  0  0  0  0
   59.6180   30.8140   49.6970 C   0  0  0  0  0  0  0  0  0  0  0  0
   59.3050   30.6060   51.0420 C   0  0  0  0  0  0  0  0  0  0  0  0
   56.6210   31.4220   52.5280 C   0  0  0  0  0  0  0  0  0  0  0  0
   55.3310   31.5500   52.0060 C   0  0  0  0  0  0  0  0  0  0  0  0
   51.5790   30.7740   53.3860 N   0  0  0  0  0  0  0  0  0  0  0  0
   52.1520   29.6710   54.1250 C   0  0  0  0  0  0  0  0  0  0  0  0
   51.8590   28.3580   53.7120 C   0  0  0  0  0  0  0  0  0  0  0  0
   52.4050   27.2580   54.3830 C   0  0  0  0  0  0  0  0  0  0  0  0
   53.2470   27.4560   55.4790 C   0  0  0  0  0  0  0  0  0  0  0  0
   53.5490   28.7530   55.9000 C   0  0  0  0  0  0  0  0  0  0  0  0
   53.0120   29.8550   55.2290 C   0  0  0  0  0  0  0  0  0  0  0  0
   52.9178   32.2640   52.6984 H   0  0  0  0  0  0  0  0  0  0  0  0
   52.5959   29.5973   51.3856 H   0  0  0  0  0  0  0  0  0  0  0  0
   53.1354   31.0354   50.4117 H   0  0  0  0  0  0  0  0  0  0  0  0
   54.2886   28.3094   52.3328 H   0  0  0  0  0  0  0  0  0  0  0  0
   56.5954   28.0789   53.2392 H   0  0  0  0  0  0  0  0  0  0  0  0
   60.3156   29.4327   53.6249 H   0  0  0  0  0  0  0  0  0  0  0  0
   59.1099   28.1255   53.3300 H   0  0  0  0  0  0  0  0  0  0  0  0
   60.1268   27.2963   51.2928 H   0  0  0  0  0  0  0  0  0  0  0  0
   60.7178   27.6743   48.9016 H   0  0  0  0  0  0  0  0  0  0  0  0
   60.6734   31.1244   47.3594 H   0  0  0  0  0  0  0  0  0  0  0  0
   61.6933   29.6497   47.4525 H   0  0  0  0  0  0  0  0  0  0  0  0
   58.8311   30.4160   43.6289 H   0  0  0  0  0  0  0  0  0  0  0  0
   57.4476   29.2871   43.5096 H   0  0  0  0  0  0  0  0  0  0  0  0
   58.0117   31.2141   45.6298 H   0  0  0  0  0  0  0  0  0  0  0  0
   56.6315   30.0712   45.5248 H   0  0  0  0  0  0  0  0  0  0  0  0
   57.9964   29.6912   47.6609 H   0  0  0  0  0  0  0  0  0  0  0  0
   58.3290   27.2045   47.2408 H   0  0  0  0  0  0  0  0  0  0  0  0
   56.8169   27.7584   46.4503 H   0  0  0  0  0  0  0  0  0  0  0  0
   59.1578   26.5196   45.2007 H   0  0  0  0  0  0  0  0  0  0  0  0
   57.6372   27.0401   44.4109 H   0  0  0  0  0  0  0  0  0  0  0  0
   59.4469   31.7999   49.2401 H   0  0  0  0  0  0  0  0  0  0  0  0
   58.8790   31.4266   51.6379 H   0  0  0  0  0  0  0  0  0  0  0  0
   57.2865   32.2972   52.5631 H   0  0  0  0  0  0  0  0  0  0  0  0
   54.9822   32.5282   51.6433 H   0  0  0  0  0  0  0  0  0  0  0  0
   50.6170   31.0840   53.6590 H   0  0  0  0  0  0  0  0  0  0  0  0
   51.1931   28.1944   52.8518 H   0  0  0  0  0  0  0  0  0  0  0  0
   52.1708   26.2371   54.0469 H   0  0  0  0  0  0  0  0  0  0  0  0
   53.6720   26.5916   56.0102 H   0  0  0  0  0  0  0  0  0  0  0  0
   54.2125   28.9078   56.7636 H   0  0  0  0  0  0  0  0  0  0  0  0
   53.2613   30.8728   55.5635 H   0  0  0  0  0  0  0  0  0  0  0  0
  1  2  2  0
  2  3  1  0
  2  4  1  0
  4  5  1  0
  5  6  1  0
  6  7  2  0
  7  8  1  0
  8  9  2  0
  9 10  1  0
 10 11  1  0
 11 12  1  0
 12 13  2  0
 13 14  1  0
 14 15  2  0
 15 16  1  0
 16 17  1  0
 17 18  1  0
 18 19  2  0
 18 20  1  0
 20 21  1  0
 21 22  1  0
 22 23  1  0
 23 24  1  0
 24 25  1  0
 15 26  1  0
 26 27  2  0
  9 28  1  0
 28 29  2  0
  4 30  1  0
 30 31  1  0
 31 32  2  0
 32 33  1  0
 33 34  2  0
 34 35  1  0
 35 36  2  0
 29  6  1  0
 36 31  1  0
 27 12  1  0
 23 17  1  0
 25 20  1  0
  4 37  1  1
  5 38  1  0
  5 39  1  0
  7 40  1  0
  8 41  1  0
 11 42  1  0
 11 43  1  0
 13 44  1  0
 14 45  1  0
 16 46  1  0
 16 47  1  0
 21 48  1  0
 21 49  1  0
 22 50  1  0
 22 51  1  0
 23 52  1  0
 24 53  1  0
 24 54  1  0
 25 55  1  0
 25 56  1  0
 26 57  1  0
 27 58  1  0
 28 59  1  0
 29 60  1  0
 30 61  1  0
 32 62  1  0
 33 63  1  0
 34 64  1  0
 35 65  1  0
 36 66  1  0
M  CHG  1   3  -1
M  END
>  <UniqueID>  (26) 
24

>  <SMILES>  (26) 
O=C([O-])[C@H](Cc1ccc(OCc2ccc(CN3C(=O)N4CCC3CC4)cc2)cc1)Nc1ccccc1

>  <Energy>  (26) 
104.88683508020004

>  <Genealogy>  (26) 
O=C([O-])C(Cc1ccc(OCc2ccc(CN3C(=O)N4CCC3CC4)cc2)cc1)Nc1ccccc1 (protonated)
O=C([O-])[C@H](Cc1ccc(OCc2ccc(CN3C(=O)N4CCC3CC4)cc2)cc1)Nc1ccccc1 (chirality)
O=C([O-])[C@H](Cc1ccc(OCc2ccc(CN3C(=O)N4CCC3CC4)cc2)cc1)Nc1ccccc1 (3D coordinates assigned)
O=C([O-])[C@H](Cc1ccc(OCc2ccc(CN3C(=O)N4CCC3CC4)cc2)cc1)Nc1ccccc1 (nonaromatic ring conformer: 104.88683508020004 kcal/mol)

>  <smiles>  (26) 
O=C(O)C(Cc1ccc(OCc2ccc(CN3C(=O)N4CCC3CC4)cc2)cc1)Nc1ccccc1

>  <score_type>  (26) 
oracle

>  <origin>  (26) 
adg

>  <m_score__min__energy>  (26) 
-12.73

>  <m_primary>  (26) 
energy

$$$$
26:0
     RDKit          3D

 62 66  0  0  0  0  0  0  0  0999 V2000
   58.9371   26.3688   48.3953 H   0  0  0  0  0  0  0  0  0  0  0  0
   59.1040   26.9430   47.4720 C   0  0  0  0  0  0  0  0  0  0  0  0
   58.0550   27.2680   46.6770 N   0  0  0  0  0  0  0  0  0  0  0  0
   58.2020   27.9710   45.5210 C   0  0  0  0  0  0  0  0  0  0  0  0
   57.1340   28.2170   44.8120 N   0  0  0  0  0  0  0  0  0  0  0  0
   56.3900   29.4420   44.6760 C   0  0  0  0  0  0  0  0  0  0  0  0
   55.1470   29.4640   44.8920 O   0  0  0  0  0  0  0  0  0  0  0  0
   57.1030   30.7080   44.3820 C   0  0  0  0  0  0  0  0  0  0  0  0
   57.2090   31.1830   43.0600 C   0  0  0  0  0  0  0  0  0  0  0  0
   56.7504   30.6147   42.2374 H   0  0  0  0  0  0  0  0  0  0  0  0
   57.8920   32.3700   42.7860 C   0  0  0  0  0  0  0  0  0  0  0  0
   57.9678   32.7325   41.7502 H   0  0  0  0  0  0  0  0  0  0  0  0
   58.4790   33.0980   43.8230 C   0  0  0  0  0  0  0  0  0  0  0  0
   59.0225   34.0281   43.6004 H   0  0  0  0  0  0  0  0  0  0  0  0
   58.3780   32.6470   45.1490 C   0  0  0  0  0  0  0  0  0  0  0  0
   59.0130   33.4240   46.2720 C   0  0  0  0  0  0  0  0  0  0  0  0
   59.4014   34.3757   45.8803 H   0  0  0  0  0  0  0  0  0  0  0  0
   58.2560   33.6156   47.0467 H   0  0  0  0  0  0  0  0  0  0  0  0
   60.1130   32.6600   46.8610 N   0  0  0  0  0  0  0  0  0  0  0  0
   61.5050   32.9740   46.7810 C   0  0  0  0  0  0  0  0  0  0  0  0
   61.9930   33.8740   46.0460 O   0  0  0  0  0  0  0  0  0  0  0  0
   62.2570   32.1220   47.6880 C   0  0  0  0  0  0  0  0  0  0  0  0
   63.5010   32.1280   47.8820 O   0  0  0  0  0  0  0  0  0  0  0  0
   61.2720   31.2780   48.3400 C   0  0  0  0  0  0  0  0  0  0  0  0
   61.4330   30.2700   49.2880 C   0  0  0  0  0  0  0  0  0  0  0  0
   62.4331   30.0095   49.6648 H   0  0  0  0  0  0  0  0  0  0  0  0
   60.2930   29.5920   49.7540 C   0  0  0  0  0  0  0  0  0  0  0  0
   60.4880   28.5690   50.7000 O   0  0  0  0  0  0  0  0  0  0  0  0
   60.8120   27.2030   50.4280 C   0  0  0  0  0  0  0  0  0  0  0  0
   59.8827   26.6158   50.3875 H   0  0  0  0  0  0  0  0  0  0  0  0
   61.3440   27.1578   49.4662 H   0  0  0  0  0  0  0  0  0  0  0  0
   61.7290   26.6160   51.5180 C   0  0  0  0  0  0  0  0  0  0  0  0
   61.1721   25.8373   52.0597 H   0  0  0  0  0  0  0  0  0  0  0  0
   62.6193   26.2151   51.0114 H   0  0  0  0  0  0  0  0  0  0  0  0
   62.2020   27.6270   52.5010 N   0  0  0  0  0  0  0  0  0  0  0  0
   61.4500   28.3430   52.6160 H   0  0  0  0  0  0  0  0  0  0  0  0
   63.4330   28.3250   52.0530 C   0  0  0  0  0  0  0  0  0  0  0  0
   63.3861   28.4537   50.9616 H   0  0  0  0  0  0  0  0  0  0  0  0
   63.4743   29.2910   52.5776 H   0  0  0  0  0  0  0  0  0  0  0  0
   64.7230   27.5520   52.4030 C   0  0  0  0  0  0  0  0  0  0  0  0
   65.3978   27.5707   51.5345 H   0  0  0  0  0  0  0  0  0  0  0  0
   65.1907   28.0367   53.2726 H   0  0  0  0  0  0  0  0  0  0  0  0
   64.4460   26.2090   52.7400 O   0  0  0  0  0  0  0  0  0  0  0  0
   63.6750   26.1630   53.9230 C   0  0  0  0  0  0  0  0  0  0  0  0
   63.3725   25.1212   54.1053 H   0  0  0  0  0  0  0  0  0  0  0  0
   64.2979   26.5555   54.7403 H   0  0  0  0  0  0  0  0  0  0  0  0
   62.4040   27.0400   53.8430 C   0  0  0  0  0  0  0  0  0  0  0  0
   61.5309   26.4185   54.0908 H   0  0  0  0  0  0  0  0  0  0  0  0
   62.5263   27.8698   54.5547 H   0  0  0  0  0  0  0  0  0  0  0  0
   59.0110   29.9610   49.2590 C   0  0  0  0  0  0  0  0  0  0  0  0
   58.1148   29.4443   49.6328 H   0  0  0  0  0  0  0  0  0  0  0  0
   58.8760   30.9790   48.2970 C   0  0  0  0  0  0  0  0  0  0  0  0
   57.8855   31.2584   47.9086 H   0  0  0  0  0  0  0  0  0  0  0  0
   60.0280   31.6260   47.8470 C   0  0  0  0  0  0  0  0  0  0  0  0
   57.6920   31.4530   45.4210 C   0  0  0  0  0  0  0  0  0  0  0  0
   57.6138   31.0953   46.4583 H   0  0  0  0  0  0  0  0  0  0  0  0
   59.4910   28.4090   45.1510 C   0  0  0  0  0  0  0  0  0  0  0  0
   59.6335   29.0051   44.2376 H   0  0  0  0  0  0  0  0  0  0  0  0
   60.5850   28.0790   45.9550 C   0  0  0  0  0  0  0  0  0  0  0  0
   61.5958   28.4051   45.6689 H   0  0  0  0  0  0  0  0  0  0  0  0
   60.3960   27.3370   47.1190 C   0  0  0  0  0  0  0  0  0  0  0  0
   61.2537   27.0651   47.7517 H   0  0  0  0  0  0  0  0  0  0  0  0
  1  2  1  0
  2  3  1  0
  3  4  1  0
  4  5  2  0
  5  6  1  0
  6  7  2  0
  6  8  1  0
  8  9  2  0
  9 10  1  0
  9 11  1  0
 11 12  1  0
 11 13  2  0
 13 14  1  0
 13 15  1  0
 15 16  1  0
 16 17  1  0
 16 18  1  0
 16 19  1  0
 19 20  1  0
 20 21  2  0
 20 22  1  0
 22 23  2  0
 22 24  1  0
 24 25  2  0
 25 26  1  0
 25 27  1  0
 27 28  1  0
 28 29  1  0
 29 30  1  0
 29 31  1  0
 29 32  1  0
 32 33  1  0
 32 34  1  0
 32 35  1  0
 35 36  1  0
 35 37  1  0
 37 38  1  0
 37 39  1  0
 37 40  1  0
 40 41  1  0
 40 42  1  0
 40 43  1  0
 43 44  1  0
 44 45  1  0
 44 46  1  0
 44 47  1  0
 47 48  1  0
 47 49  1  0
 27 50  2  0
 50 51  1  0
 50 52  1  0
 52 53  1  0
 52 54  2  0
 15 55  2  0
 55 56  1  0
  4 57  1  0
 57 58  1  0
 57 59  2  0
 59 60  1  0
 59 61  1  0
 61 62  1  0
 61  2  2  0
 55  8  1  0
 54 19  1  0
 54 24  1  0
 47 35  1  0
M  CHG  2   3  -1  35   1
M  END
>  <UniqueID>  (27) 
25

>  <SMILES>  (27) 
O=C(/N=c1\cccc[n-]1)c1cccc(CN2C(=O)C(=O)c3cc(OCC[NH+]4CCOCC4)ccc32)c1

>  <Energy>  (27) 
121.95739858095025

>  <Genealogy>  (27) 
O=C(N=c1cccc[n-]1)c1cccc(CN2C(=O)C(=O)c3cc(OCC[NH+]4CCOCC4)ccc32)c1 (protonated)
O=C(/N=c1\cccc[n-]1)c1cccc(CN2C(=O)C(=O)c3cc(OCC[NH+]4CCOCC4)ccc32)c1 (cis-trans isomerization)
O=C(/N=c1\cccc[n-]1)c1cccc(CN2C(=O)C(=O)c3cc(OCC[NH+]4CCOCC4)ccc32)c1 (3D coordinates assigned)
O=C(/N=c1\cccc[n-]1)c1cccc(CN2C(=O)C(=O)c3cc(OCC[NH+]4CCOCC4)ccc32)c1 (nonaromatic ring conformer: 121.95739858095025 kcal/mol)

>  <smiles>  (27) 
O=C(N=c1cccc[nH]1)c1cccc(CN2C(=O)C(=O)c3cc(OCCN4CCOCC4)ccc32)c1

>  <score_type>  (27) 
oracle

>  <origin>  (27) 
adg

>  <m_score__min__energy>  (27) 
-9.7100000000000009

>  <m_primary>  (27) 
energy

$$$$
27:0
     RDKit          3D

 70 74  0  0  0  0  0  0  0  0999 V2000
   60.8700   26.7960   48.7320 O   0  0  0  0  0  0  0  0  0  0  0  0
   60.4970   27.8390   49.3360 C   0  0  0  0  0  0  0  0  0  0  0  0
   59.3550   28.5860   48.8790 N   0  0  0  0  0  0  0  0  0  0  0  0
   58.8190   28.5460   47.5410 C   0  0  0  0  0  0  0  0  0  0  0  0
   58.7990   27.3600   46.7800 C   0  0  0  0  0  0  0  0  0  0  0  0
   58.3040   27.3680   45.4740 C   0  0  0  0  0  0  0  0  0  0  0  0
   57.8370   28.5550   44.9050 C   0  0  0  0  0  0  0  0  0  0  0  0
   57.8740   29.7460   45.6370 C   0  0  0  0  0  0  0  0  0  0  0  0
   57.3520   31.2630   44.9040 S   0  0  0  0  0  0  0  0  0  0  0  0
   58.2430   31.5910   43.7380 O   0  0  0  0  0  0  0  0  0  0  0  0
   55.9470   31.0890   44.3980 O   0  0  0  0  0  0  0  0  0  0  0  0
   57.4090   32.5370   46.1060 N   0  0  0  0  0  0  0  0  0  0  0  0
   58.7350   32.6270   46.7580 C   0  0  0  0  0  0  0  0  0  0  0  0
   59.6160   33.7430   46.1690 C   0  0  0  0  0  0  0  0  0  0  0  0
   59.3310   33.9210   44.7990 O   0  0  0  0  0  0  0  0  0  0  0  0
   58.0370   34.4790   44.6410 C   0  0  0  0  0  0  0  0  0  0  0  0
   56.9680   33.8310   45.5540 C   0  0  0  0  0  0  0  0  0  0  0  0
   58.3690   29.7380   46.9490 C   0  0  0  0  0  0  0  0  0  0  0  0
   61.1910   28.2420   50.5710 C   0  0  0  0  0  0  0  0  0  0  0  0
   61.4110   27.2700   51.5620 C   0  0  0  0  0  0  0  0  0  0  0  0
   62.0930   27.5960   52.7350 C   0  0  0  0  0  0  0  0  0  0  0  0
   62.5650   28.8930   52.9330 C   0  0  0  0  0  0  0  0  0  0  0  0
   62.3440   29.8720   51.9640 C   0  0  0  0  0  0  0  0  0  0  0  0
   61.6450   29.5670   50.7830 C   0  0  0  0  0  0  0  0  0  0  0  0
   61.3800   30.8770   49.6200 S   0  0  0  0  0  0  0  0  0  0  0  0
   61.8980   30.4620   48.2700 O   0  0  0  0  0  0  0  0  0  0  0  0
   62.1150   32.1220   50.0300 O   0  0  0  0  0  0  0  0  0  0  0  0
   59.6840   31.2150   49.5300 N   0  0  0  0  0  0  0  0  0  0  0  0
   58.9730   31.6930   50.6720 C   0  0  0  0  0  0  0  0  0  0  0  0
   59.2040   32.9960   51.1280 C   0  0  0  0  0  0  0  0  0  0  0  0
   58.5600   33.4630   52.2780 C   0  0  0  0  0  0  0  0  0  0  0  0
   57.6840   32.6310   52.9780 C   0  0  0  0  0  0  0  0  0  0  0  0
   57.4360   31.3250   52.5280 C   0  0  0  0  0  0  0  0  0  0  0  0
   56.5010   30.4560   53.2670 C   0  0  0  0  0  0  0  0  0  0  0  0
   56.8480   30.0100   54.3940 O   0  0  0  0  0  0  0  0  0  0  0  0
   55.2050   30.1250   52.7350 N   0  0  0  0  0  0  0  0  0  0  0  0
   54.5880   30.8120   51.6120 C   0  0  0  0  0  0  0  0  0  0  0  0
   53.2220   30.1660   51.4290 C   0  0  0  0  0  0  0  0  0  0  0  0
   52.9560   29.3580   52.6980 C   0  0  0  0  0  0  0  0  0  0  0  0
   54.3020   29.1970   53.3940 C   0  0  0  0  0  0  0  0  0  0  0  0
   58.0670   30.8650   51.3550 C   0  0  0  0  0  0  0  0  0  0  0  0
   57.7900   29.5900   50.8720 O   0  0  0  0  0  0  0  0  0  0  0  0
   58.8680   29.1910   49.5760 H   0  0  0  0  0  0  0  0  0  0  0  0
   59.1752   26.4232   47.2168 H   0  0  0  0  0  0  0  0  0  0  0  0
   58.2818   26.4354   44.8910 H   0  0  0  0  0  0  0  0  0  0  0  0
   57.4394   28.5530   43.8794 H   0  0  0  0  0  0  0  0  0  0  0  0
   58.5867   32.8254   47.8297 H   0  0  0  0  0  0  0  0  0  0  0  0
   59.2531   31.6718   46.5871 H   0  0  0  0  0  0  0  0  0  0  0  0
   59.4183   34.6826   46.7057 H   0  0  0  0  0  0  0  0  0  0  0  0
   60.6732   33.4602   46.2804 H   0  0  0  0  0  0  0  0  0  0  0  0
   58.0900   35.5525   44.8751 H   0  0  0  0  0  0  0  0  0  0  0  0
   57.7297   34.2927   43.6014 H   0  0  0  0  0  0  0  0  0  0  0  0
   56.7535   34.5159   46.3876 H   0  0  0  0  0  0  0  0  0  0  0  0
   56.0723   33.6467   44.9426 H   0  0  0  0  0  0  0  0  0  0  0  0
   58.4054   30.6765   47.5217 H   0  0  0  0  0  0  0  0  0  0  0  0
   61.0428   26.2444   51.4118 H   0  0  0  0  0  0  0  0  0  0  0  0
   62.2586   26.8282   53.5051 H   0  0  0  0  0  0  0  0  0  0  0  0
   63.1119   29.1444   53.8537 H   0  0  0  0  0  0  0  0  0  0  0  0
   62.7205   30.8929   52.1257 H   0  0  0  0  0  0  0  0  0  0  0  0
   59.8941   33.6545   50.5802 H   0  0  0  0  0  0  0  0  0  0  0  0
   58.7439   34.4881   52.6320 H   0  0  0  0  0  0  0  0  0  0  0  0
   57.1860   33.0009   53.8864 H   0  0  0  0  0  0  0  0  0  0  0  0
   54.4781   31.8840   51.8326 H   0  0  0  0  0  0  0  0  0  0  0  0
   55.1998   30.7291   50.7016 H   0  0  0  0  0  0  0  0  0  0  0  0
   52.4495   30.9385   51.3005 H   0  0  0  0  0  0  0  0  0  0  0  0
   53.1994   29.5253   50.5351 H   0  0  0  0  0  0  0  0  0  0  0  0
   52.2518   29.8950   53.3506 H   0  0  0  0  0  0  0  0  0  0  0  0
   52.5087   28.3810   52.4629 H   0  0  0  0  0  0  0  0  0  0  0  0
   54.2123   29.4439   54.4622 H   0  0  0  0  0  0  0  0  0  0  0  0
   54.6688   28.1620   53.3291 H   0  0  0  0  0  0  0  0  0  0  0  0
  1  2  2  0
  2  3  1  0
  3  4  1  0
  4  5  2  0
  5  6  1  0
  6  7  2  0
  7  8  1  0
  8  9  1  0
  9 10  2  0
  9 11  2  0
  9 12  1  0
 12 13  1  0
 13 14  1  0
 14 15  1  0
 15 16  1  0
 16 17  1  0
  8 18  2  0
  2 19  1  0
 19 20  2  0
 20 21  1  0
 21 22  2  0
 22 23  1  0
 23 24  2  0
 24 25  1  0
 25 26  2  0
 25 27  2  0
 25 28  1  0
 28 29  1  0
 29 30  2  0
 30 31  1  0
 31 32  2  0
 32 33  1  0
 33 34  1  0
 34 35  2  0
 34 36  1  0
 36 37  1  0
 37 38  1  0
 38 39  1  0
 39 40  1  0
 33 41  2  0
 41 42  1  0
 18  4  1  0
 24 19  1  0
 41 29  1  0
 17 12  1  0
 40 36  1  0
  3 43  1  0
  5 44  1  0
  6 45  1  0
  7 46  1  0
 13 47  1  0
 13 48  1  0
 14 49  1  0
 14 50  1  0
 16 51  1  0
 16 52  1  0
 17 53  1  0
 17 54  1  0
 18 55  1  0
 20 56  1  0
 21 57  1  0
 22 58  1  0
 23 59  1  0
 30 60  1  0
 31 61  1  0
 32 62  1  0
 37 63  1  0
 37 64  1  0
 38 65  1  0
 38 66  1  0
 39 67  1  0
 39 68  1  0
 40 69  1  0
 40 70  1  0
M  CHG  2  28  -1  42  -1
M  END
>  <UniqueID>  (28) 
26

>  <SMILES>  (28) 
O=C(Nc1cccc(S(=O)(=O)N2CCOCC2)c1)c1ccccc1S(=O)(=O)[N-]c1cccc(C(=O)N2CCCC2)c1[O-]

>  <Energy>  (28) 
112.11946273943167

>  <Genealogy>  (28) 
O=C(Nc1cccc(S(=O)(=O)N2CCOCC2)c1)c1ccccc1S(=O)(=O)[N-]c1cccc(C(=O)N2CCCC2)c1[O-] (protonated)
O=C(Nc1cccc(S(=O)(=O)N2CCOCC2)c1)c1ccccc1S(=O)(=O)[N-]c1cccc(C(=O)N2CCCC2)c1[O-] (3D coordinates assigned)
O=C(Nc1cccc(S(=O)(=O)N2CCOCC2)c1)c1ccccc1S(=O)(=O)[N-]c1cccc(C(=O)N2CCCC2)c1[O-] (nonaromatic ring conformer: 112.11946273943167 kcal/mol)

>  <smiles>  (28) 
O=C(Nc1cccc(S(=O)(=O)N2CCOCC2)c1)c1ccccc1S(=O)(=O)Nc1cccc(C(=O)N2CCCC2)c1O

>  <score_type>  (28) 
oracle

>  <origin>  (28) 
adg

>  <m_score__min__energy>  (28) 
-14.529999999999999

>  <m_primary>  (28) 
energy

$$$$
28:0
     RDKit          3D

 46 49  0  0  0  0  0  0  0  0999 V2000
   52.7840   24.4260   45.2440 C   0  0  0  0  0  0  0  0  0  0  0  0
   54.2210   24.0830   45.0340 C   0  0  0  0  0  0  0  0  0  0  0  0
   54.5700   23.1550   44.0830 N   0  0  0  0  0  0  0  0  0  0  0  0
   55.8730   22.7900   43.8910 C   0  0  0  0  0  0  0  0  0  0  0  0
   56.1780   21.9360   43.0160 O   0  0  0  0  0  0  0  0  0  0  0  0
   56.8410   23.3810   44.6950 C   0  0  0  0  0  0  0  0  0  0  0  0
   58.1740   23.1850   44.7130 N   0  0  0  0  0  0  0  0  0  0  0  0
   58.6530   23.9890   45.6980 C   0  0  0  0  0  0  0  0  0  0  0  0
   57.6100   24.6830   46.3130 C   0  0  0  0  0  0  0  0  0  0  0  0
   57.7240   25.7230   47.3860 C   0  0  0  0  0  0  0  0  0  0  0  0
   58.4510   26.9230   46.8460 C   0  0  0  0  0  0  0  0  0  0  0  0
   59.5410   27.4650   47.5460 C   0  0  0  0  0  0  0  0  0  0  0  0
   60.1460   28.6460   47.1020 C   0  0  0  0  0  0  0  0  0  0  0  0
   59.6650   29.2940   45.9620 C   0  0  0  0  0  0  0  0  0  0  0  0
   58.5700   28.7650   45.2560 C   0  0  0  0  0  0  0  0  0  0  0  0
   58.0340   29.4390   44.1100 N   0  0  0  0  0  0  0  0  0  0  0  0
   56.3930   30.0060   44.0850 S   0  0  0  0  0  0  0  0  0  0  0  0
   55.8980   30.0720   42.6660 O   0  0  0  0  0  0  0  0  0  0  0  0
   55.5230   29.0570   44.8610 O   0  0  0  0  0  0  0  0  0  0  0  0
   56.3250   31.5880   44.8070 N   0  0  0  0  0  0  0  0  0  0  0  0
   57.5600   32.3220   44.5040 C   0  0  0  0  0  0  0  0  0  0  0  0
   57.5780   33.7460   45.0970 C   0  0  0  0  0  0  0  0  0  0  0  0
   58.9160   34.4060   45.4210 C   0  0  0  0  0  0  0  0  0  0  0  0
   58.0520   33.8350   46.5450 C   0  0  0  0  0  0  0  0  0  0  0  0
   57.9760   27.5740   45.6970 C   0  0  0  0  0  0  0  0  0  0  0  0
   56.4730   24.2850   45.6420 C   0  0  0  0  0  0  0  0  0  0  0  0
   55.1800   24.6470   45.8340 N   0  0  0  0  0  0  0  0  0  0  0  0
   52.5729   24.4764   46.3224 H   0  0  0  0  0  0  0  0  0  0  0  0
   52.5684   25.4008   44.7822 H   0  0  0  0  0  0  0  0  0  0  0  0
   52.1514   23.6536   44.7822 H   0  0  0  0  0  0  0  0  0  0  0  0
   58.7290   22.5300   44.1110 H   0  0  0  0  0  0  0  0  0  0  0  0
   59.7143   24.0802   45.9723 H   0  0  0  0  0  0  0  0  0  0  0  0
   56.7179   26.0215   47.7156 H   0  0  0  0  0  0  0  0  0  0  0  0
   58.2819   25.3097   48.2392 H   0  0  0  0  0  0  0  0  0  0  0  0
   59.9205   26.9595   48.4463 H   0  0  0  0  0  0  0  0  0  0  0  0
   61.0018   29.0648   47.6517 H   0  0  0  0  0  0  0  0  0  0  0  0
   60.1444   30.2213   45.6153 H   0  0  0  0  0  0  0  0  0  0  0  0
   58.5250   29.3550   43.1920 H   0  0  0  0  0  0  0  0  0  0  0  0
   58.4113   31.7603   44.9161 H   0  0  0  0  0  0  0  0  0  0  0  0
   57.6230   32.4211   43.4103 H   0  0  0  0  0  0  0  0  0  0  0  0
   56.7007   34.0688   44.5173 H   0  0  0  0  0  0  0  0  0  0  0  0
   59.8567   33.9081   45.1430 H   0  0  0  0  0  0  0  0  0  0  0  0
   59.3721   35.3846   45.2106 H   0  0  0  0  0  0  0  0  0  0  0  0
   58.3708   32.9261   47.0763 H   0  0  0  0  0  0  0  0  0  0  0  0
   57.6285   34.2324   47.4792 H   0  0  0  0  0  0  0  0  0  0  0  0
   57.1308   27.1463   45.1378 H   0  0  0  0  0  0  0  0  0  0  0  0
  1  2  1  0
  2  3  2  0
  3  4  1  0
  4  5  2  0
  4  6  1  0
  6  7  1  0
  7  8  1  0
  8  9  2  0
  9 10  1  0
 10 11  1  0
 11 12  2  0
 12 13  1  0
 13 14  2  0
 14 15  1  0
 15 16  1  0
 16 17  1  0
 17 18  2  0
 17 19  2  0
 17 20  1  0
 20 21  1  0
 21 22  1  0
 22 23  1  0
 23 24  1  0
 15 25  2  0
  9 26  1  0
 26 27  1  0
 27  2  1  0
 26  6  2  0
 25 11  1  0
 24 22  1  0
  1 28  1  0
  1 29  1  0
  1 30  1  0
  7 31  1  0
  8 32  1  0
 10 33  1  0
 10 34  1  0
 12 35  1  0
 13 36  1  0
 14 37  1  0
 16 38  1  0
 21 39  1  0
 21 40  1  0
 22 41  1  0
 23 42  1  0
 23 43  1  0
 24 44  1  0
 24 45  1  0
 25 46  1  0
M  CHG  2  20  -1  27  -1
M  END
>  <UniqueID>  (29) 
27

>  <SMILES>  (29) 
Cc1nc(=O)c2[nH]cc(Cc3cccc(NS(=O)(=O)[N-]CC4CC4)c3)c2[n-]1

>  <Energy>  (29) 
345.6190764783309

>  <Genealogy>  (29) 
Cc1nc(=O)c2[nH]cc(Cc3cccc(NS(=O)(=O)[N-]CC4CC4)c3)c2[n-]1 (protonated)
Cc1nc(=O)c2[nH]cc(Cc3cccc(NS(=O)(=O)[N-]CC4CC4)c3)c2[n-]1 (3D coordinates assigned)
Cc1nc(=O)c2[nH]cc(Cc3cccc(NS(=O)(=O)[N-]CC4CC4)c3)c2[n-]1 (nonaromatic ring conformer: 345.6190764783309 kcal/mol)

>  <smiles>  (29) 
Cc1nc(=O)c2[nH]cc(Cc3cccc(NS(=O)(=O)NCC4CC4)c3)c2[nH]1

>  <score_type>  (29) 
oracle

>  <origin>  (29) 
adg

>  <m_score__min__energy>  (29) 
-12.359999999999999

>  <m_primary>  (29) 
energy

$$$$
29:0
     RDKit          3D

 37 38  0  0  0  0  0  0  0  0999 V2000
   56.4270   25.3190   46.7980 O   0  0  0  0  0  0  0  0  0  0  0  0
   55.9260   26.2920   46.1750 C   0  0  0  0  0  0  0  0  0  0  0  0
   54.5660   26.2940   45.8900 O   0  0  0  0  0  0  0  0  0  0  0  0
   56.8000   27.4210   45.7080 C   0  0  2  0  0  0  0  0  0  0  0  0
   57.7240   27.9050   46.8440 C   0  0  0  0  0  0  0  0  0  0  0  0
   59.4510   27.8980   46.3660 S   0  0  0  0  0  0  0  0  0  0  0  0
   59.5530   28.1340   44.8850 O   0  0  0  0  0  0  0  0  0  0  0  0
   60.0440   26.5510   46.6770 O   0  0  0  0  0  0  0  0  0  0  0  0
   60.3420   29.1650   47.2040 C   0  0  0  0  0  0  0  0  0  0  0  0
   60.3590   29.2230   48.6060 C   0  0  0  0  0  0  0  0  0  0  0  0
   61.0540   30.2460   49.2580 C   0  0  0  0  0  0  0  0  0  0  0  0
   61.7360   31.2140   48.5130 C   0  0  0  0  0  0  0  0  0  0  0  0
   61.7230   31.1580   47.1170 C   0  0  0  0  0  0  0  0  0  0  0  0
   61.0280   30.1370   46.4630 C   0  0  0  0  0  0  0  0  0  0  0  0
   55.9230   28.5030   45.2470 N   0  0  0  0  0  0  0  0  0  0  0  0
   56.6340   29.4670   43.9780 S   0  0  0  0  0  0  0  0  0  0  0  0
   57.6490   28.6340   43.2470 O   0  0  0  0  0  0  0  0  0  0  0  0
   55.5600   29.8470   42.9980 O   0  0  0  0  0  0  0  0  0  0  0  0
   57.4330   30.9250   44.5930 C   0  0  0  0  0  0  0  0  0  0  0  0
   57.7730   31.0000   45.9540 C   0  0  0  0  0  0  0  0  0  0  0  0
   58.4270   32.1270   46.4580 C   0  0  0  0  0  0  0  0  0  0  0  0
   58.7490   33.1870   45.6110 C   0  0  0  0  0  0  0  0  0  0  0  0
   58.4220   33.1220   44.2540 C   0  0  0  0  0  0  0  0  0  0  0  0
   57.7680   31.9970   43.7370 C   0  0  0  0  0  0  0  0  0  0  0  0
   57.4020   31.9620   41.8540 Br  0  0  0  0  0  0  0  0  0  0  0  0
   57.4502   27.0852   44.8867 H   0  0  0  0  0  0  0  0  0  0  0  0
   57.4376   28.9305   47.1202 H   0  0  0  0  0  0  0  0  0  0  0  0
   57.6066   27.2130   47.6910 H   0  0  0  0  0  0  0  0  0  0  0  0
   59.8243   28.4619   49.1933 H   0  0  0  0  0  0  0  0  0  0  0  0
   61.0646   30.2898   50.3571 H   0  0  0  0  0  0  0  0  0  0  0  0
   62.2824   32.0191   49.0262 H   0  0  0  0  0  0  0  0  0  0  0  0
   62.2606   31.9186   46.5318 H   0  0  0  0  0  0  0  0  0  0  0  0
   61.0193   30.0961   45.3638 H   0  0  0  0  0  0  0  0  0  0  0  0
   57.5228   30.1665   46.6268 H   0  0  0  0  0  0  0  0  0  0  0  0
   58.6885   32.1783   47.5252 H   0  0  0  0  0  0  0  0  0  0  0  0
   59.2606   34.0747   46.0113 H   0  0  0  0  0  0  0  0  0  0  0  0
   58.6797   33.9590   43.5884 H   0  0  0  0  0  0  0  0  0  0  0  0
  1  2  2  0
  2  3  1  0
  2  4  1  0
  4  5  1  0
  5  6  1  0
  6  7  2  0
  6  8  2  0
  6  9  1  0
  9 10  2  0
 10 11  1  0
 11 12  2  0
 12 13  1  0
 13 14  2  0
  4 15  1  0
 15 16  1  0
 16 17  2  0
 16 18  2  0
 16 19  1  0
 19 20  2  0
 20 21  1  0
 21 22  2  0
 22 23  1  0
 23 24  2  0
 24 25  1  0
 14  9  1  0
 24 19  1  0
  4 26  1  6
  5 27  1  0
  5 28  1  0
 10 29  1  0
 11 30  1  0
 12 31  1  0
 13 32  1  0
 14 33  1  0
 20 34  1  0
 21 35  1  0
 22 36  1  0
 23 37  1  0
M  CHG  2   3  -1  15  -1
M  END
>  <UniqueID>  (30) 
28

>  <SMILES>  (30) 
O=C([O-])[C@H](CS(=O)(=O)c1ccccc1)[N-]S(=O)(=O)c1ccccc1Br

>  <Energy>  (30) 
34.72857505556648

>  <Genealogy>  (30) 
O=C([O-])C(CS(=O)(=O)c1ccccc1)[N-]S(=O)(=O)c1ccccc1Br (protonated)
O=C([O-])[C@H](CS(=O)(=O)c1ccccc1)[N-]S(=O)(=O)c1ccccc1Br (chirality)
O=C([O-])[C@H](CS(=O)(=O)c1ccccc1)[N-]S(=O)(=O)c1ccccc1Br (3D coordinates assigned)
O=C([O-])[C@H](CS(=O)(=O)c1ccccc1)[N-]S(=O)(=O)c1ccccc1Br (optimized conformer: 34.72857505556648 kcal/mol)

>  <smiles>  (30) 
O=C(O)C(CS(=O)(=O)c1ccccc1)NS(=O)(=O)c1ccccc1Br

>  <score_type>  (30) 
oracle

>  <origin>  (30) 
adg

>  <m_score__min__energy>  (30) 
-12.970000000000001

>  <m_primary>  (30) 
energy

$$$$
30:0
     RDKit          3D

 47 49  0  0  0  0  0  0  0  0999 V2000
   59.5815   28.4466   48.7024 H   0  0  0  0  0  0  0  0  0  0  0  0
   58.9610   28.1330   47.8500 C   0  0  0  0  0  0  0  0  0  0  0  0
   58.6284   27.0878   47.7669 H   0  0  0  0  0  0  0  0  0  0  0  0
   58.6100   29.0250   46.9120 C   0  0  0  0  0  0  0  0  0  0  0  0
   57.8310   28.8070   45.7670 C   0  0  0  0  0  0  0  0  0  0  0  0
   57.3750   27.6670   45.2060 C   0  0  0  0  0  0  0  0  0  0  0  0
   57.1072   27.7015   44.1397 H   0  0  0  0  0  0  0  0  0  0  0  0
   57.2060   26.3780   45.9050 C   0  0  0  0  0  0  0  0  0  0  0  0
   55.9270   25.9260   46.2560 C   0  0  0  0  0  0  0  0  0  0  0  0
   54.8050   26.7100   46.0060 O   0  0  0  0  0  0  0  0  0  0  0  0
   55.7750   24.7170   46.8540 N   0  0  0  0  0  0  0  0  0  0  0  0
   56.8450   23.9220   47.1090 C   0  0  0  0  0  0  0  0  0  0  0  0
   56.6810   22.8060   47.6680 O   0  0  0  0  0  0  0  0  0  0  0  0
   58.0930   24.3250   46.7550 N   0  0  0  0  0  0  0  0  0  0  0  0
   58.2980   25.5250   46.1530 C   0  0  0  0  0  0  0  0  0  0  0  0
   59.4660   25.8560   45.8170 O   0  0  0  0  0  0  0  0  0  0  0  0
   57.6080   30.0840   45.2630 C   0  0  0  0  0  0  0  0  0  0  0  0
   56.8340   30.4440   44.0340 C   0  0  0  0  0  0  0  0  0  0  0  0
   55.8720   30.8914   44.3245 H   0  0  0  0  0  0  0  0  0  0  0  0
   57.4093   31.1670   43.4370 H   0  0  0  0  0  0  0  0  0  0  0  0
   56.6517   29.5382   43.4370 H   0  0  0  0  0  0  0  0  0  0  0  0
   58.2490   30.9950   46.0180 N   0  0  0  0  0  0  0  0  0  0  0  0
   58.8660   30.3560   46.9990 N   0  0  0  0  0  0  0  0  0  0  0  0
   59.6430   31.0620   48.0220 C   0  0  0  0  0  0  0  0  0  0  0  0
   59.1054   31.9773   48.3106 H   0  0  0  0  0  0  0  0  0  0  0  0
   59.7666   30.3913   48.8850 H   0  0  0  0  0  0  0  0  0  0  0  0
   61.0140   31.4380   47.5150 C   0  0  0  0  0  0  0  0  0  0  0  0
   61.7780   30.5080   47.1340 O   0  0  0  0  0  0  0  0  0  0  0  0
   61.4810   32.8070   47.4790 N   0  0  0  0  0  0  0  0  0  0  0  0
   62.8670   33.1270   47.1200 C   0  0  0  0  0  0  0  0  0  0  0  0
   63.4607   33.2641   48.0358 H   0  0  0  0  0  0  0  0  0  0  0  0
   63.2918   32.3033   46.5275 H   0  0  0  0  0  0  0  0  0  0  0  0
   62.8877   34.0536   46.5275 H   0  0  0  0  0  0  0  0  0  0  0  0
   60.5500   33.9020   47.7890 C   0  0  0  0  0  0  0  0  0  0  0  0
   60.1229   33.7426   48.7901 H   0  0  0  0  0  0  0  0  0  0  0  0
   61.0972   34.8558   47.7602 H   0  0  0  0  0  0  0  0  0  0  0  0
   59.4370   33.9450   46.7750 C   0  0  0  0  0  0  0  0  0  0  0  0
   58.1050   33.7670   47.1840 C   0  0  0  0  0  0  0  0  0  0  0  0
   57.8784   33.5764   48.2434 H   0  0  0  0  0  0  0  0  0  0  0  0
   57.0650   33.8310   46.2500 C   0  0  0  0  0  0  0  0  0  0  0  0
   56.0239   33.6883   46.5753 H   0  0  0  0  0  0  0  0  0  0  0  0
   57.3490   34.0760   44.9050 C   0  0  0  0  0  0  0  0  0  0  0  0
   56.5308   34.1266   44.1715 H   0  0  0  0  0  0  0  0  0  0  0  0
   58.6710   34.2570   44.4890 C   0  0  0  0  0  0  0  0  0  0  0  0
   58.8919   34.4500   43.4288 H   0  0  0  0  0  0  0  0  0  0  0  0
   59.7130   34.1930   45.4190 C   0  0  0  0  0  0  0  0  0  0  0  0
   60.7523   34.3372   45.0886 H   0  0  0  0  0  0  0  0  0  0  0  0
  1  2  1  0
  2  3  1  0
  2  4  2  0
  4  5  1  0
  5  6  2  0
  6  7  1  0
  6  8  1  0
  8  9  2  0
  9 10  1  0
  9 11  1  0
 11 12  1  0
 12 13  2  0
 12 14  1  0
 14 15  1  0
 15 16  2  0
  5 17  1  0
 17 18  1  0
 18 19  1  0
 18 20  1  0
 18 21  1  0
 17 22  2  0
 22 23  1  0
 23 24  1  0
 24 25  1  0
 24 26  1  0
 24 27  1  0
 27 28  2  0
 27 29  1  0
 29 30  1  0
 30 31  1  0
 30 32  1  0
 30 33  1  0
 29 34  1  0
 34 35  1  0
 34 36  1  0
 34 37  1  0
 37 38  2  0
 38 39  1  0
 38 40  1  0
 40 41  1  0
 40 42  2  0
 42 43  1  0
 42 44  1  0
 44 45  1  0
 44 46  2  0
 46 47  1  0
 23  4  1  0
 46 37  1  0
 15  8  1  0
M  CHG  3  10  -1  11  -1  14  -1
M  END
>  <UniqueID>  (31) 
29

>  <SMILES>  (31) 
C=c1/c(=C\c2c([O-])[n-]c(=O)[n-]c2=O)c(C)nn1CC(=O)N(C)Cc1ccccc1

>  <Energy>  (31) 
92.40203238964435

>  <Genealogy>  (31) 
C=c1c(=Cc2c([O-])[n-]c(=O)[n-]c2=O)c(C)nn1CC(=O)N(C)Cc1ccccc1 (protonated)
C=c1/c(=C\c2c([O-])[n-]c(=O)[n-]c2=O)c(C)nn1CC(=O)N(C)Cc1ccccc1 (cis-trans isomerization)
C=c1/c(=C\c2c([O-])[n-]c(=O)[n-]c2=O)c(C)nn1CC(=O)N(C)Cc1ccccc1 (3D coordinates assigned)
C=c1/c(=C\c2c([O-])[n-]c(=O)[n-]c2=O)c(C)nn1CC(=O)N(C)Cc1ccccc1 (optimized conformer: 92.40203238964435 kcal/mol)

>  <smiles>  (31) 
C=c1c(=Cc2c(O)[nH]c(=O)[nH]c2=O)c(C)nn1CC(=O)N(C)Cc1ccccc1

>  <score_type>  (31) 
oracle

>  <origin>  (31) 
adg

>  <m_score__min__energy>  (31) 
-16.800000000000001

>  <m_primary>  (31) 
energy

$$$$
31:0
     RDKit          3D

 45 48  0  0  0  0  0  0  0  0999 V2000
   56.9380   20.2820   43.2000 H   0  0  0  0  0  0  0  0  0  0  0  0
   56.3730   21.1240   43.1790 O   0  0  0  0  0  0  0  0  0  0  0  0
   56.5940   22.1710   44.0700 C   0  0  0  0  0  0  0  0  0  0  0  0
   55.5310   22.7340   44.7880 C   0  0  0  0  0  0  0  0  0  0  0  0
   54.5098   22.3498   44.6480 H   0  0  0  0  0  0  0  0  0  0  0  0
   55.7650   23.7830   45.6820 C   0  0  0  0  0  0  0  0  0  0  0  0
   54.9238   24.2290   46.2329 H   0  0  0  0  0  0  0  0  0  0  0  0
   57.0680   24.2720   45.8820 C   0  0  0  0  0  0  0  0  0  0  0  0
   57.3050   25.4370   46.8120 C   0  0  0  0  0  0  0  0  0  0  0  0
   58.3890   25.5931   46.9148 H   0  0  0  0  0  0  0  0  0  0  0  0
   56.8411   25.1957   47.7798 H   0  0  0  0  0  0  0  0  0  0  0  0
   56.6770   26.7110   46.3030 C   0  0  0  0  0  0  0  0  0  0  0  0
   55.4530   26.6950   46.0050 O   0  0  0  0  0  0  0  0  0  0  0  0
   57.3910   27.9520   46.1650 N   0  0  0  0  0  0  0  0  0  0  0  0
   57.0160   29.0400   45.5560 C   0  0  0  0  0  0  0  0  0  0  0  0
   55.8920   29.1880   44.8190 N   0  0  0  0  0  0  0  0  0  0  0  0
   55.8740   30.4460   44.3750 N   0  0  0  0  0  0  0  0  0  0  0  0
   56.9890   31.0300   44.8570 C   0  0  0  0  0  0  0  0  0  0  0  0
   57.4280   32.3300   44.6540 C   0  0  0  0  0  0  0  0  0  0  0  0
   56.8478   33.0448   44.0521 H   0  0  0  0  0  0  0  0  0  0  0  0
   58.6460   32.6930   45.2510 C   0  0  0  0  0  0  0  0  0  0  0  0
   59.0371   33.7130   45.1221 H   0  0  0  0  0  0  0  0  0  0  0  0
   59.3760   31.7460   46.0220 C   0  0  0  0  0  0  0  0  0  0  0  0
   60.6360   32.0870   46.6400 N   0  0  0  0  0  0  0  0  0  0  0  0
   61.5180   31.0310   47.1670 C   0  0  0  0  0  0  0  0  0  0  0  0
   60.9019   30.2591   47.6512 H   0  0  0  0  0  0  0  0  0  0  0  0
   62.0885   30.6065   46.3277 H   0  0  0  0  0  0  0  0  0  0  0  0
   62.5120   31.5900   48.1910 C   0  0  0  0  0  0  0  0  0  0  0  0
   61.9564   31.9308   49.0771 H   0  0  0  0  0  0  0  0  0  0  0  0
   63.2203   30.7898   48.4518 H   0  0  0  0  0  0  0  0  0  0  0  0
   63.3150   32.7720   47.6220 C   0  0  0  0  0  0  0  0  0  0  0  0
   63.7063   33.3626   48.4635 H   0  0  0  0  0  0  0  0  0  0  0  0
   64.1151   32.3456   46.9991 H   0  0  0  0  0  0  0  0  0  0  0  0
   62.4890   33.7060   46.7150 C   0  0  0  0  0  0  0  0  0  0  0  0
   62.7285   34.7482   46.9729 H   0  0  0  0  0  0  0  0  0  0  0  0
   62.7518   33.4724   45.6727 H   0  0  0  0  0  0  0  0  0  0  0  0
   60.9780   33.4990   46.8670 C   0  0  0  0  0  0  0  0  0  0  0  0
   60.6715   33.7888   47.8829 H   0  0  0  0  0  0  0  0  0  0  0  0
   60.4532   34.1201   46.1262 H   0  0  0  0  0  0  0  0  0  0  0  0
   58.8650   30.4850   46.1710 N   0  0  0  0  0  0  0  0  0  0  0  0
   57.7070   30.1830   45.5900 N   0  0  0  0  0  0  0  0  0  0  0  0
   58.1250   23.7190   45.1360 C   0  0  0  0  0  0  0  0  0  0  0  0
   59.1438   24.1163   45.2553 H   0  0  0  0  0  0  0  0  0  0  0  0
   57.8900   22.6680   44.2440 C   0  0  0  0  0  0  0  0  0  0  0  0
   58.7260   22.2312   43.6780 H   0  0  0  0  0  0  0  0  0  0  0  0
  1  2  1  0
  2  3  1  0
  3  4  2  0
  4  5  1  0
  4  6  1  0
  6  7  1  0
  6  8  2  0
  8  9  1  0
  9 10  1  0
  9 11  1  0
  9 12  1  0
 12 13  2  0
 12 14  1  0
 14 15  2  0
 15 16  1  0
 16 17  1  0
 17 18  2  0
 18 19  1  0
 19 20  1  0
 19 21  2  0
 21 22  1  0
 21 23  1  0
 23 24  1  0
 24 25  1  0
 25 26  1  0
 25 27  1  0
 25 28  1  0
 28 29  1  0
 28 30  1  0
 28 31  1  0
 31 32  1  0
 31 33  1  0
 31 34  1  0
 34 35  1  0
 34 36  1  0
 34 37  1  0
 37 38  1  0
 37 39  1  0
 23 40  2  0
 40 41  1  0
  8 42  1  0
 42 43  1  0
 42 44  2  0
 44 45  1  0
 44  3  1  0
 41 15  1  0
 41 18  1  0
 37 24  1  0
M  CHG  1  16  -1
M  END
>  <UniqueID>  (32) 
30

>  <SMILES>  (32) 
O=C(Cc1ccc(O)cc1)/N=c1\[n-]nc2ccc(N3CCCCC3)nn12

>  <Energy>  (32) 
98.655802741846

>  <Genealogy>  (32) 
O=C(Cc1ccc(O)cc1)N=c1[n-]nc2ccc(N3CCCCC3)nn12 (protonated)
O=C(Cc1ccc(O)cc1)/N=c1\[n-]nc2ccc(N3CCCCC3)nn12 (cis-trans isomerization)
O=C(Cc1ccc(O)cc1)/N=c1\[n-]nc2ccc(N3CCCCC3)nn12 (3D coordinates assigned)
O=C(Cc1ccc(O)cc1)/N=c1\[n-]nc2ccc(N3CCCCC3)nn12 (nonaromatic ring conformer: 98.655802741846 kcal/mol)

>  <smiles>  (32) 
O=C(Cc1ccc(O)cc1)N=c1[nH]nc2ccc(N3CCCCC3)nn12

>  <score_type>  (32) 
oracle

>  <origin>  (32) 
adg

>  <m_score__min__energy>  (32) 
-10.960000000000001

>  <m_primary>  (32) 
energy

$$$$
32:0
     RDKit          3D

 69 73  0  0  0  0  0  0  0  0999 V2000
   60.3090   29.0320   47.1430 O   0  0  0  0  0  0  0  0  0  0  0  0
   59.3510   28.5670   47.8190 C   0  0  0  0  0  0  0  0  0  0  0  0
   58.3910   27.5910   47.1970 C   0  0  0  0  0  0  0  0  0  0  0  0
   58.5230   27.4970   45.6710 C   0  0  0  0  0  0  0  0  0  0  0  0
   57.3530   28.0350   44.9780 N   0  0  0  0  0  0  0  0  0  0  0  0
   57.4060   29.2950   44.3080 C   0  0  0  0  0  0  0  0  0  0  0  0
   58.0860   30.4820   44.5080 C   0  0  0  0  0  0  0  0  0  0  0  0
   58.9810   30.9550   45.5180 N   0  0  0  0  0  0  0  0  0  0  0  0
   59.2350   32.3410   45.7950 C   0  0  0  0  0  0  0  0  0  0  0  0
   58.8370   33.3530   44.9070 C   0  0  0  0  0  0  0  0  0  0  0  0
   59.1320   34.6900   45.1850 C   0  0  0  0  0  0  0  0  0  0  0  0
   59.8360   35.0280   46.3430 C   0  0  0  0  0  0  0  0  0  0  0  0
   60.2520   34.0290   47.2380 C   0  0  0  0  0  0  0  0  0  0  0  0
   61.0120   34.3760   48.4620 C   0  0  0  0  0  0  0  0  0  0  0  0
   60.3940   34.8710   49.4450 O   0  0  0  0  0  0  0  0  0  0  0  0
   62.4400   34.1760   48.5430 N   0  0  0  0  0  0  0  0  0  0  0  0
   63.2200   34.0730   47.3000 C   0  0  0  0  0  0  0  0  0  0  0  0
   63.6160   32.6250   46.9860 C   0  0  0  0  0  0  0  0  0  0  0  0
   62.6150   31.6310   47.5890 C   0  0  0  0  0  0  0  0  0  0  0  0
   62.9740   31.2220   49.0290 C   0  0  0  0  0  0  0  0  0  0  0  0
   63.2420   32.3340   50.0310 C   0  0  0  0  0  0  0  0  0  0  0  0
   63.8360   31.9590   51.2520 C   0  0  0  0  0  0  0  0  0  0  0  0
   64.1760   32.9140   52.2100 C   0  0  0  0  0  0  0  0  0  0  0  0
   63.9430   34.2650   51.9630 C   0  0  0  0  0  0  0  0  0  0  0  0
   63.3700   34.6630   50.7570 C   0  0  0  0  0  0  0  0  0  0  0  0
   63.0190   33.7150   49.7790 C   0  0  0  0  0  0  0  0  0  0  0  0
   59.9610   32.6860   46.9450 C   0  0  0  0  0  0  0  0  0  0  0  0
   57.4660   31.0210   43.3950 C   0  0  0  0  0  0  0  0  0  0  0  0
   57.4900   32.1350   42.8100 O   0  0  0  0  0  0  0  0  0  0  0  0
   56.7750   29.8410   43.2080 C   0  0  0  0  0  0  0  0  0  0  0  0
   55.9220   29.4310   42.3790 O   0  0  0  0  0  0  0  0  0  0  0  0
   59.1310   29.0190   49.1630 N   0  0  0  0  0  0  0  0  0  0  0  0
   60.0700   29.8890   49.8660 C   0  0  0  0  0  0  0  0  0  0  0  0
   59.3210   30.9340   50.6520 C   0  0  0  0  0  0  0  0  0  0  0  0
   59.8130   32.2500   50.6850 C   0  0  0  0  0  0  0  0  0  0  0  0
   59.1470   33.2360   51.4190 C   0  0  0  0  0  0  0  0  0  0  0  0
   57.9870   32.9170   52.1270 C   0  0  0  0  0  0  0  0  0  0  0  0
   57.4900   31.6120   52.1050 C   0  0  0  0  0  0  0  0  0  0  0  0
   58.1510   30.6180   51.3730 C   0  0  0  0  0  0  0  0  0  0  0  0
   57.6360   29.3260   51.3680 O   0  0  0  0  0  0  0  0  0  0  0  0
   58.5789   26.5955   47.6255 H   0  0  0  0  0  0  0  0  0  0  0  0
   57.3746   27.9511   47.4141 H   0  0  0  0  0  0  0  0  0  0  0  0
   59.4117   28.0643   45.3573 H   0  0  0  0  0  0  0  0  0  0  0  0
   58.6110   26.4330   45.4060 H   0  0  0  0  0  0  0  0  0  0  0  0
   56.6000   27.3680   44.6980 H   0  0  0  0  0  0  0  0  0  0  0  0
   59.4160   30.2330   46.1320 H   0  0  0  0  0  0  0  0  0  0  0  0
   58.2907   33.0921   43.9886 H   0  0  0  0  0  0  0  0  0  0  0  0
   58.8089   35.4788   44.4898 H   0  0  0  0  0  0  0  0  0  0  0  0
   60.0659   36.0826   46.5551 H   0  0  0  0  0  0  0  0  0  0  0  0
   62.6153   34.4637   46.4683 H   0  0  0  0  0  0  0  0  0  0  0  0
   64.1435   34.6562   47.4302 H   0  0  0  0  0  0  0  0  0  0  0  0
   63.6428   32.4893   45.8947 H   0  0  0  0  0  0  0  0  0  0  0  0
   64.6055   32.4320   47.4262 H   0  0  0  0  0  0  0  0  0  0  0  0
   61.6180   32.0956   47.5939 H   0  0  0  0  0  0  0  0  0  0  0  0
   62.6384   30.7214   46.9709 H   0  0  0  0  0  0  0  0  0  0  0  0
   62.1383   30.6223   49.4187 H   0  0  0  0  0  0  0  0  0  0  0  0
   63.9332   30.6914   48.9376 H   0  0  0  0  0  0  0  0  0  0  0  0
   64.0349   30.8960   51.4531 H   0  0  0  0  0  0  0  0  0  0  0  0
   64.6288   32.5999   53.1620 H   0  0  0  0  0  0  0  0  0  0  0  0
   64.2112   35.0171   52.7196 H   0  0  0  0  0  0  0  0  0  0  0  0
   63.1899   35.7315   50.5674 H   0  0  0  0  0  0  0  0  0  0  0  0
   60.3069   31.8946   47.6262 H   0  0  0  0  0  0  0  0  0  0  0  0
   58.2950   28.6710   49.6850 H   0  0  0  0  0  0  0  0  0  0  0  0
   60.6803   29.2850   50.5536 H   0  0  0  0  0  0  0  0  0  0  0  0
   60.7174   30.3883   49.1300 H   0  0  0  0  0  0  0  0  0  0  0  0
   60.7276   32.5058   50.1300 H   0  0  0  0  0  0  0  0  0  0  0  0
   59.5374   34.2642   51.4386 H   0  0  0  0  0  0  0  0  0  0  0  0
   57.4637   33.6945   52.7030 H   0  0  0  0  0  0  0  0  0  0  0  0
   56.5761   31.3641   52.6647 H   0  0  0  0  0  0  0  0  0  0  0  0
  1  2  2  0
  2  3  1  0
  3  4  1  0
  4  5  1  0
  5  6  1  0
  6  7  2  0
  7  8  1  0
  8  9  1  0
  9 10  2  0
 10 11  1  0
 11 12  2  0
 12 13  1  0
 13 14  1  0
 14 15  2  0
 14 16  1  0
 16 17  1  0
 17 18  1  0
 18 19  1  0
 19 20  1  0
 20 21  1  0
 21 22  2  0
 22 23  1  0
 23 24  2  0
 24 25  1  0
 25 26  2  0
 13 27  2  0
  7 28  1  0
 28 29  2  0
 28 30  1  0
 30 31  2  0
  2 32  1  0
 32 33  1  0
 33 34  1  0
 34 35  2  0
 35 36  1  0
 36 37  2  0
 37 38  1  0
 38 39  2  0
 39 40  1  0
 30  6  1  0
 39 34  1  0
 27  9  1  0
 26 16  1  0
 26 21  1  0
  3 41  1  0
  3 42  1  0
  4 43  1  0
  4 44  1  0
  5 45  1  0
  8 46  1  0
 10 47  1  0
 11 48  1  0
 12 49  1  0
 17 50  1  0
 17 51  1  0
 18 52  1  0
 18 53  1  0
 19 54  1  0
 19 55  1  0
 20 56  1  0
 20 57  1  0
 22 58  1  0
 23 59  1  0
 24 60  1  0
 25 61  1  0
 27 62  1  0
 32 63  1  0
 33 64  1  0
 33 65  1  0
 35 66  1  0
 36 67  1  0
 37 68  1  0
 38 69  1  0
M  CHG  1  40  -1
M  END
>  <UniqueID>  (33) 
31

>  <SMILES>  (33) 
O=C(CCNc1c(Nc2cccc(C(=O)N3CCCCc4ccccc43)c2)c(=O)c1=O)NCc1ccccc1[O-]

>  <Energy>  (33) 
84.44429247292616

>  <Genealogy>  (33) 
O=C(CCNc1c(Nc2cccc(C(=O)N3CCCCc4ccccc43)c2)c(=O)c1=O)NCc1ccccc1[O-] (protonated)
O=C(CCNc1c(Nc2cccc(C(=O)N3CCCCc4ccccc43)c2)c(=O)c1=O)NCc1ccccc1[O-] (3D coordinates assigned)
O=C(CCNc1c(Nc2cccc(C(=O)N3CCCCc4ccccc43)c2)c(=O)c1=O)NCc1ccccc1[O-] (nonaromatic ring conformer: 84.44429247292616 kcal/mol)

>  <smiles>  (33) 
O=C(CCNc1c(Nc2cccc(C(=O)N3CCCCc4ccccc43)c2)c(=O)c1=O)NCc1ccccc1O

>  <score_type>  (33) 
oracle

>  <origin>  (33) 
adg

>  <m_score__min__energy>  (33) 
-12.039999999999999

>  <m_primary>  (33) 
energy

$$$$
33:0
     RDKit          3D

 39 41  0  0  0  0  0  0  0  0999 V2000
   57.0534   30.3748   46.6209 H   0  0  0  0  0  0  0  0  0  0  0  0
   57.7050   29.5780   46.2330 C   0  0  0  0  0  0  0  0  0  0  0  0
   57.1050   28.5270   45.3830 C   0  0  0  0  0  0  0  0  0  0  0  0
   56.3510   28.8860   44.4400 O   0  0  0  0  0  0  0  0  0  0  0  0
   57.3310   27.0800   45.6120 C   0  0  0  0  0  0  0  0  0  0  0  0
   58.6340   26.5490   45.5530 C   0  0  0  0  0  0  0  0  0  0  0  0
   59.4822   27.2084   45.3170 H   0  0  0  0  0  0  0  0  0  0  0  0
   58.8570   25.1910   45.7920 C   0  0  0  0  0  0  0  0  0  0  0  0
   59.8771   24.7835   45.7343 H   0  0  0  0  0  0  0  0  0  0  0  0
   57.7870   24.3500   46.1040 C   0  0  0  0  0  0  0  0  0  0  0  0
   57.9646   23.2805   46.2901 H   0  0  0  0  0  0  0  0  0  0  0  0
   56.4910   24.8660   46.1800 C   0  0  0  0  0  0  0  0  0  0  0  0
   55.6504   24.2023   46.4308 H   0  0  0  0  0  0  0  0  0  0  0  0
   56.2590   26.2250   45.9380 C   0  0  0  0  0  0  0  0  0  0  0  0
   54.9580   26.7140   46.0110 O   0  0  0  0  0  0  0  0  0  0  0  0
   59.0050   29.6040   46.5520 C   0  0  0  0  0  0  0  0  0  0  0  0
   59.7313   29.8966   45.7794 H   0  0  0  0  0  0  0  0  0  0  0  0
   59.5070   29.2550   47.9030 C   0  0  0  0  0  0  0  0  0  0  0  0
   60.1310   28.0120   48.0710 C   0  0  0  0  0  0  0  0  0  0  0  0
   60.2397   27.3337   47.2118 H   0  0  0  0  0  0  0  0  0  0  0  0
   60.6140   27.6310   49.3190 C   0  0  0  0  0  0  0  0  0  0  0  0
   61.1020   26.6540   49.4507 H   0  0  0  0  0  0  0  0  0  0  0  0
   60.4740   28.4980   50.4000 C   0  0  0  0  0  0  0  0  0  0  0  0
   60.8335   28.1953   51.3945 H   0  0  0  0  0  0  0  0  0  0  0  0
   59.8950   29.7170   50.2320 N   0  0  0  0  0  0  0  0  0  0  0  0
   59.7880   30.3090   51.0840 H   0  0  0  0  0  0  0  0  0  0  0  0
   59.4370   30.1380   49.0090 C   0  0  0  0  0  0  0  0  0  0  0  0
   58.9360   31.3330   48.8460 N   0  0  0  0  0  0  0  0  0  0  0  0
   59.4030   32.3660   47.9680 C   0  0  0  0  0  0  0  0  0  0  0  0
   58.5080   33.2710   47.3670 C   0  0  0  0  0  0  0  0  0  0  0  0
   57.4256   33.1618   47.5297 H   0  0  0  0  0  0  0  0  0  0  0  0
   58.9910   34.3080   46.5640 C   0  0  0  0  0  0  0  0  0  0  0  0
   58.2876   35.0012   46.0795 H   0  0  0  0  0  0  0  0  0  0  0  0
   60.3680   34.4650   46.3760 C   0  0  0  0  0  0  0  0  0  0  0  0
   60.7465   35.2764   45.7370 H   0  0  0  0  0  0  0  0  0  0  0  0
   61.2640   33.5910   47.0000 C   0  0  0  0  0  0  0  0  0  0  0  0
   63.1440   33.8200   46.7630 Br  0  0  0  0  0  0  0  0  0  0  0  0
   60.7810   32.5530   47.8050 C   0  0  0  0  0  0  0  0  0  0  0  0
   61.4880   31.8803   48.3125 H   0  0  0  0  0  0  0  0  0  0  0  0
  1  2  1  0
  2  3  1  0
  3  4  2  0
  3  5  1  0
  5  6  2  0
  6  7  1  0
  6  8  1  0
  8  9  1  0
  8 10  2  0
 10 11  1  0
 10 12  1  0
 12 13  1  0
 12 14  2  0
 14 15  1  0
  2 16  2  0
 16 17  1  0
 16 18  1  0
 18 19  2  0
 19 20  1  0
 19 21  1  0
 21 22  1  0
 21 23  2  0
 23 24  1  0
 23 25  1  0
 25 26  1  0
 25 27  1  0
 27 28  2  3
 28 29  1  0
 29 30  2  0
 30 31  1  0
 30 32  1  0
 32 33  1  0
 32 34  2  0
 34 35  1  0
 34 36  1  0
 36 37  1  0
 36 38  2  0
 38 39  1  0
 14  5  1  0
 27 18  1  0
 38 29  1  0
M  CHG  1  15  -1
M  END
>  <UniqueID>  (34) 
32

>  <SMILES>  (34) 
O=C(/C=C/c1ccc[nH]c1=Nc1cccc(Br)c1)c1ccccc1[O-]

>  <Energy>  (34) 
62.127916138754976

>  <Genealogy>  (34) 
O=C(C=Cc1ccc[nH]c1=Nc1cccc(Br)c1)c1ccccc1[O-] (protonated)
O=C(/C=C/c1ccc[nH]c1=Nc1cccc(Br)c1)c1ccccc1[O-] (cis-trans isomerization)
O=C(/C=C/c1ccc[nH]c1=Nc1cccc(Br)c1)c1ccccc1[O-] (3D coordinates assigned)
O=C(/C=C/c1ccc[nH]c1=Nc1cccc(Br)c1)c1ccccc1[O-] (optimized conformer: 62.127916138754976 kcal/mol)

>  <smiles>  (34) 
O=C(C=Cc1ccc[nH]c1=Nc1cccc(Br)c1)c1ccccc1O

>  <score_type>  (34) 
oracle

>  <origin>  (34) 
adg

>  <m_score__min__energy>  (34) 
-12.529999999999999

>  <m_primary>  (34) 
energy

$$$$
34:0
     RDKit          3D

 54 56  0  0  0  0  0  0  0  0999 V2000
   61.8500   29.8060   50.3190 C   0  0  0  0  0  0  0  0  0  0  0  0
   60.5640   30.0840   49.1200 S   0  0  0  0  0  0  0  0  0  0  0  0
   59.7140   31.2430   49.5600 O   0  0  0  0  0  0  0  0  0  0  0  0
   61.1890   30.4020   47.7940 O   0  0  0  0  0  0  0  0  0  0  0  0
   59.5630   28.6120   48.9770 C   0  0  0  0  0  0  0  0  0  0  0  0
   60.2370   27.5720   48.1410 C   0  0  0  0  0  0  0  0  0  0  0  0
   61.0930   26.8070   48.6610 O   0  0  0  0  0  0  0  0  0  0  0  0
   59.7460   27.3130   46.8210 N   0  0  0  0  0  0  0  0  0  0  0  0
   58.5650   27.5280   46.3040 C   0  0  0  0  0  0  0  0  0  0  0  0
   58.3160   28.8170   45.8120 C   0  0  0  0  0  0  0  0  0  0  0  0
   57.0760   29.1400   45.2590 C   0  0  0  0  0  0  0  0  0  0  0  0
   56.8270   30.4860   44.8310 N   0  0  0  0  0  0  0  0  0  0  0  0
   57.4560   31.5700   45.1870 C   0  0  0  0  0  0  0  0  0  0  0  0
   57.8890   31.8070   46.5110 C   0  0  0  0  0  0  0  0  0  0  0  0
   58.4880   33.0410   46.8400 C   0  0  0  0  0  0  0  0  0  0  0  0
   58.8960   33.3720   48.1410 O   0  0  0  0  0  0  0  0  0  0  0  0
   59.4890   34.6090   48.5330 C   0  0  0  0  0  0  0  0  0  0  0  0
   60.9840   34.4060   48.8210 C   0  0  0  0  0  0  0  0  0  0  0  0
   61.6100   33.2240   48.1700 N   0  0  0  0  0  0  0  0  0  0  0  0
   62.7830   32.6760   48.9000 C   0  0  0  0  0  0  0  0  0  0  0  0
   64.1360   33.1640   48.3580 C   0  0  0  0  0  0  0  0  0  0  0  0
   64.2090   33.0080   46.9610 O   0  0  0  0  0  0  0  0  0  0  0  0
   63.2430   33.8340   46.3530 C   0  0  0  0  0  0  0  0  0  0  0  0
   61.8240   33.3640   46.7100 C   0  0  0  0  0  0  0  0  0  0  0  0
   58.6700   33.9970   45.8390 C   0  0  0  0  0  0  0  0  0  0  0  0
   58.2440   33.7240   44.5400 C   0  0  0  0  0  0  0  0  0  0  0  0
   57.6460   32.5380   44.2500 N   0  0  0  0  0  0  0  0  0  0  0  0
   56.0910   28.2060   45.2280 N   0  0  0  0  0  0  0  0  0  0  0  0
   56.2950   26.9380   45.6710 C   0  0  0  0  0  0  0  0  0  0  0  0
   57.5370   26.5520   46.1900 C   0  0  0  0  0  0  0  0  0  0  0  0
   57.7450   24.8260   46.4810 Cl  0  0  0  0  0  0  0  0  0  0  0  0
   61.4321   29.8963   51.3325 H   0  0  0  0  0  0  0  0  0  0  0  0
   62.2665   28.7971   50.1827 H   0  0  0  0  0  0  0  0  0  0  0  0
   62.6461   30.5528   50.1827 H   0  0  0  0  0  0  0  0  0  0  0  0
   59.3838   28.2022   49.9820 H   0  0  0  0  0  0  0  0  0  0  0  0
   58.6145   28.8847   48.4913 H   0  0  0  0  0  0  0  0  0  0  0  0
   59.1056   29.5812   45.8623 H   0  0  0  0  0  0  0  0  0  0  0  0
   57.7596   31.0328   47.2816 H   0  0  0  0  0  0  0  0  0  0  0  0
   59.3704   35.3430   47.7224 H   0  0  0  0  0  0  0  0  0  0  0  0
   58.9921   34.9756   49.4433 H   0  0  0  0  0  0  0  0  0  0  0  0
   61.5194   35.3038   48.4786 H   0  0  0  0  0  0  0  0  0  0  0  0
   61.0601   34.2281   49.9039 H   0  0  0  0  0  0  0  0  0  0  0  0
   60.8730   32.4830   48.2620 H   0  0  0  0  0  0  0  0  0  0  0  0
   62.7046   32.9746   49.9558 H   0  0  0  0  0  0  0  0  0  0  0  0
   62.7605   31.5842   48.7677 H   0  0  0  0  0  0  0  0  0  0  0  0
   64.2601   34.2281   48.6075 H   0  0  0  0  0  0  0  0  0  0  0  0
   64.9339   32.5629   48.8186 H   0  0  0  0  0  0  0  0  0  0  0  0
   63.3798   34.8677   46.7033 H   0  0  0  0  0  0  0  0  0  0  0  0
   63.3689   33.7810   45.2615 H   0  0  0  0  0  0  0  0  0  0  0  0
   61.1032   34.0971   46.3189 H   0  0  0  0  0  0  0  0  0  0  0  0
   61.6840   32.3699   46.2603 H   0  0  0  0  0  0  0  0  0  0  0  0
   59.1468   34.9601   46.0739 H   0  0  0  0  0  0  0  0  0  0  0  0
   58.3923   34.4712   43.7465 H   0  0  0  0  0  0  0  0  0  0  0  0
   55.4752   26.2062   45.6214 H   0  0  0  0  0  0  0  0  0  0  0  0
  1  2  1  0
  2  3  2  0
  2  4  2  0
  2  5  1  0
  5  6  1  0
  6  7  2  0
  6  8  1  0
  8  9  2  3
  9 10  1  0
 10 11  2  0
 11 12  1  0
 12 13  2  3
 13 14  1  0
 14 15  2  0
 15 16  1  0
 16 17  1  0
 17 18  1  0
 18 19  1  0
 19 20  1  0
 20 21  1  0
 21 22  1  0
 22 23  1  0
 23 24  1  0
 15 25  1  0
 25 26  2  0
 26 27  1  0
 11 28  1  0
 28 29  1  0
 29 30  2  0
 30 31  1  0
 30  9  1  0
 27 13  1  0
 24 19  1  0
  1 32  1  0
  1 33  1  0
  1 34  1  0
  5 35  1  0
  5 36  1  0
 10 37  1  0
 14 38  1  0
 17 39  1  0
 17 40  1  0
 18 41  1  0
 18 42  1  0
 19 43  1  0
 20 44  1  0
 20 45  1  0
 21 46  1  0
 21 47  1  0
 23 48  1  0
 23 49  1  0
 24 50  1  0
 24 51  1  0
 25 52  1  0
 26 53  1  0
 29 54  1  0
M  CHG  3  19   1  27  -1  28  -1
M  END
>  <UniqueID>  (35) 
33

>  <SMILES>  (35) 
CS(=O)(=O)CC(=O)N=c1cc(N=c2cc(OCC[NH+]3CCOCC3)cc[n-]2)[n-]cc1Cl

>  <Energy>  (35) 
82.59344542875228

>  <Genealogy>  (35) 
CS(=O)(=O)CC(=O)N=c1cc(N=c2cc(OCC[NH+]3CCOCC3)cc[n-]2)[n-]cc1Cl (protonated)
CS(=O)(=O)CC(=O)N=c1cc(N=c2cc(OCC[NH+]3CCOCC3)cc[n-]2)[n-]cc1Cl (3D coordinates assigned)
CS(=O)(=O)CC(=O)N=c1cc(N=c2cc(OCC[NH+]3CCOCC3)cc[n-]2)[n-]cc1Cl (nonaromatic ring conformer: 82.59344542875228 kcal/mol)

>  <smiles>  (35) 
CS(=O)(=O)CC(=O)N=c1cc(N=c2cc(OCCN3CCOCC3)cc[nH]2)[nH]cc1Cl

>  <score_type>  (35) 
oracle

>  <origin>  (35) 
adg

>  <m_score__min__energy>  (35) 
-10.18

>  <m_primary>  (35) 
energy

$$$$
35:0
     RDKit          3D

 39 40  0  0  0  0  0  0  0  0999 V2000
   58.7670   30.7100   49.8000 C   0  0  0  0  0  0  0  0  0  0  0  0
   59.1020   30.0140   48.4800 C   0  0  0  0  0  0  0  0  0  0  0  0
   60.5970   30.1170   48.1260 C   0  0  0  0  0  0  0  0  0  0  0  0
   61.0120   31.4540   47.5590 C   0  0  0  0  0  0  0  0  0  0  0  0
   62.3600   31.8310   47.5840 C   0  0  0  0  0  0  0  0  0  0  0  0
   62.7210   33.0650   47.0380 C   0  0  0  0  0  0  0  0  0  0  0  0
   63.9250   33.4300   47.0400 O   0  0  0  0  0  0  0  0  0  0  0  0
   61.7700   33.8730   46.5010 N   0  0  0  0  0  0  0  0  0  0  0  0
   60.4650   33.4990   46.4890 C   0  0  0  0  0  0  0  0  0  0  0  0
   59.2240   34.5720   45.7710 S   0  0  0  0  0  0  0  0  0  0  0  0
   58.8870   33.4880   44.3380 C   0  0  0  0  0  0  0  0  0  0  0  0
   57.9860   32.3490   44.7170 C   0  0  0  0  0  0  0  0  0  0  0  0
   57.0510   32.5480   45.5400 O   0  0  0  0  0  0  0  0  0  0  0  0
   58.2080   31.0410   44.1690 N   0  0  0  0  0  0  0  0  0  0  0  0
   57.5650   29.8680   44.6950 C   0  0  0  0  0  0  0  0  0  0  0  0
   58.3060   28.7660   45.1840 C   0  0  0  0  0  0  0  0  0  0  0  0
   59.8100   28.7770   45.2520 C   0  0  0  0  0  0  0  0  0  0  0  0
   57.6200   27.6240   45.6230 C   0  0  0  0  0  0  0  0  0  0  0  0
   56.2250   27.6110   45.6250 C   0  0  0  0  0  0  0  0  0  0  0  0
   55.5390   26.4870   46.0650 O   0  0  0  0  0  0  0  0  0  0  0  0
   55.5330   28.7020   45.2060 N   0  0  0  0  0  0  0  0  0  0  0  0
   56.1610   29.8190   44.7550 C   0  0  0  0  0  0  0  0  0  0  0  0
   55.4720   30.8050   44.3810 O   0  0  0  0  0  0  0  0  0  0  0  0
   60.0970   32.3040   47.0190 N   0  0  0  0  0  0  0  0  0  0  0  0
   59.0749   30.0703   50.6402 H   0  0  0  0  0  0  0  0  0  0  0  0
   59.3019   31.6697   49.8546 H   0  0  0  0  0  0  0  0  0  0  0  0
   57.6833   30.8906   49.8546 H   0  0  0  0  0  0  0  0  0  0  0  0
   58.8307   28.9512   48.5621 H   0  0  0  0  0  0  0  0  0  0  0  0
   58.5329   30.5144   47.6827 H   0  0  0  0  0  0  0  0  0  0  0  0
   61.1807   29.9347   49.0404 H   0  0  0  0  0  0  0  0  0  0  0  0
   60.7865   29.3700   47.3411 H   0  0  0  0  0  0  0  0  0  0  0  0
   63.1197   31.1687   48.0248 H   0  0  0  0  0  0  0  0  0  0  0  0
   58.4034   34.0797   43.5468 H   0  0  0  0  0  0  0  0  0  0  0  0
   59.8421   33.0727   43.9840 H   0  0  0  0  0  0  0  0  0  0  0  0
   59.0400   30.8990   43.5520 H   0  0  0  0  0  0  0  0  0  0  0  0
   60.1294   28.7793   46.3046 H   0  0  0  0  0  0  0  0  0  0  0  0
   60.2063   27.8817   44.7505 H   0  0  0  0  0  0  0  0  0  0  0  0
   60.1931   29.6780   44.7505 H   0  0  0  0  0  0  0  0  0  0  0  0
   58.1803   26.7412   45.9647 H   0  0  0  0  0  0  0  0  0  0  0  0
  1  2  1  0
  2  3  1  0
  3  4  1  0
  4  5  2  0
  5  6  1  0
  6  7  2  0
  6  8  1  0
  8  9  1  0
  9 10  1  0
 10 11  1  0
 11 12  1  0
 12 13  2  0
 12 14  1  0
 14 15  1  0
 15 16  2  0
 16 17  1  0
 16 18  1  0
 18 19  2  0
 19 20  1  0
 19 21  1  0
 21 22  1  0
 22 23  2  0
  9 24  2  0
 24  4  1  0
 22 15  1  0
  1 25  1  0
  1 26  1  0
  1 27  1  0
  2 28  1  0
  2 29  1  0
  3 30  1  0
  3 31  1  0
  5 32  1  0
 11 33  1  0
 11 34  1  0
 14 35  1  0
 17 36  1  0
 17 37  1  0
 17 38  1  0
 18 39  1  0
M  CHG  3   8  -1  20  -1  21  -1
M  END
>  <UniqueID>  (36) 
34

>  <SMILES>  (36) 
CCCc1cc(=O)[n-]c(SCC(=O)Nc2c(C)cc([O-])[n-]c2=O)n1

>  <Energy>  (36) 
36.94547528791998

>  <Genealogy>  (36) 
CCCc1cc(=O)[n-]c(SCC(=O)Nc2c(C)cc([O-])[n-]c2=O)n1 (protonated)
CCCc1cc(=O)[n-]c(SCC(=O)Nc2c(C)cc([O-])[n-]c2=O)n1 (3D coordinates assigned)
CCCc1cc(=O)[n-]c(SCC(=O)Nc2c(C)cc([O-])[n-]c2=O)n1 (optimized conformer: 36.94547528791998 kcal/mol)

>  <smiles>  (36) 
CCCc1cc(=O)[nH]c(SCC(=O)Nc2c(C)cc(O)[nH]c2=O)n1

>  <score_type>  (36) 
oracle

>  <origin>  (36) 
adg

>  <m_score__min__energy>  (36) 
-14.220000000000001

>  <m_primary>  (36) 
energy

$$$$
36:0
     RDKit          3D

 30 31  0  0  0  0  0  0  0  0999 V2000
   55.3300   27.7700   44.9370 H   0  0  0  0  0  0  0  0  0  0  0  0
   56.0930   28.4160   45.2310 N   0  0  0  0  0  0  0  0  0  0  0  0
   57.2560   28.0360   45.6630 C   0  0  0  0  0  0  0  0  0  0  0  0
   58.2550   28.9580   45.7200 N   0  0  0  0  0  0  0  0  0  0  0  0
   59.5040   28.6500   46.1540 C   0  0  0  0  0  0  0  0  0  0  0  0
   60.7750   29.9160   46.1770 S   0  0  0  0  0  0  0  0  0  0  0  0
   59.8290   31.0670   47.2340 C   0  0  0  0  0  0  0  0  0  0  0  0
   59.1403   30.4900   47.8686 H   0  0  0  0  0  0  0  0  0  0  0  0
   60.5362   31.6369   47.8545 H   0  0  0  0  0  0  0  0  0  0  0  0
   59.0360   32.0330   46.3980 C   0  0  0  0  0  0  0  0  0  0  0  0
   59.1710   33.4170   46.5940 C   0  0  0  0  0  0  0  0  0  0  0  0
   59.8820   33.8049   47.3383 H   0  0  0  0  0  0  0  0  0  0  0  0
   58.3960   34.2960   45.8370 C   0  0  0  0  0  0  0  0  0  0  0  0
   58.4925   35.3820   45.9830 H   0  0  0  0  0  0  0  0  0  0  0  0
   57.4980   33.7940   44.8940 C   0  0  0  0  0  0  0  0  0  0  0  0
   56.8834   34.4793   44.2919 H   0  0  0  0  0  0  0  0  0  0  0  0
   57.3880   32.4130   44.7230 C   0  0  0  0  0  0  0  0  0  0  0  0
   56.6851   32.0068   43.9808 H   0  0  0  0  0  0  0  0  0  0  0  0
   58.1480   31.5670   45.4720 N   0  0  0  0  0  0  0  0  0  0  0  0
   58.0390   30.5370   45.3290 H   0  0  0  0  0  0  0  0  0  0  0  0
   59.7950   27.3540   46.5760 C   0  0  0  0  0  0  0  0  0  0  0  0
   60.8008   27.1022   46.9434 H   0  0  0  0  0  0  0  0  0  0  0  0
   58.8000   26.3810   46.5280 C   0  0  0  0  0  0  0  0  0  0  0  0
   59.0241   25.3537   46.8510 H   0  0  0  0  0  0  0  0  0  0  0  0
   57.5130   26.7030   46.0700 C   0  0  0  0  0  0  0  0  0  0  0  0
   56.2770   25.4350   46.0140 S   0  0  0  0  0  0  0  0  0  0  0  0
   56.3740   24.5820   47.2480 O   0  0  0  0  0  0  0  0  0  0  0  0
   56.4780   24.5610   44.8070 O   0  0  0  0  0  0  0  0  0  0  0  0
   54.7100   26.1560   45.9240 N   0  0  0  0  0  0  0  0  0  0  0  0
   54.7780   27.0930   46.3790 H   0  0  0  0  0  0  0  0  0  0  0  0
  1  2  1  0
  2  3  2  0
  3  4  1  0
  4  5  1  0
  5  6  1  0
  6  7  1  0
  7  8  1  0
  7  9  1  0
  7 10  1  0
 10 11  2  0
 11 12  1  0
 11 13  1  0
 13 14  1  0
 13 15  2  0
 15 16  1  0
 15 17  1  0
 17 18  1  0
 17 19  2  0
 19 20  1  0
  5 21  2  0
 21 22  1  0
 21 23  1  0
 23 24  1  0
 23 25  2  0
 25 26  1  0
 26 27  2  0
 26 28  2  0
 26 29  1  0
 29 30  1  0
 25  3  1  0
 19 10  1  0
M  CHG  3   4  -1  19   1  29  -1
M  END
>  <UniqueID>  (37) 
35

>  <SMILES>  (37) 
[H]/N=c1/[n-]c(SCc2cccc[nH+]2)ccc1S([NH-])(=O)=O

>  <Energy>  (37) 
28.56741929424283

>  <Genealogy>  (37) 
N=c1[n-]c(SCc2cccc[nH+]2)ccc1S([NH-])(=O)=O (protonated)
[H]/N=c1/[n-]c(SCc2cccc[nH+]2)ccc1S([NH-])(=O)=O (cis-trans isomerization)
[H]/N=c1/[n-]c(SCc2cccc[nH+]2)ccc1S([NH-])(=O)=O (3D coordinates assigned)
[H]/N=c1/[n-]c(SCc2cccc[nH+]2)ccc1S([NH-])(=O)=O (optimized conformer: 28.56741929424283 kcal/mol)

>  <smiles>  (37) 
N=c1[nH]c(SCc2ccccn2)ccc1S(N)(=O)=O

>  <score_type>  (37) 
oracle

>  <origin>  (37) 
adg

>  <m_score__min__energy>  (37) 
-10.52

>  <m_primary>  (37) 
energy

$$$$
37:0
     RDKit          3D

 51 54  0  0  0  0  0  0  0  0999 V2000
   54.7470   27.4930   46.3650 H   0  0  0  0  0  0  0  0  0  0  0  0
   55.1010   26.5960   46.0430 O   0  0  0  0  0  0  0  0  0  0  0  0
   56.4550   26.2750   46.0930 C   0  0  0  0  0  0  0  0  0  0  0  0
   56.8290   24.9280   46.1890 C   0  0  0  0  0  0  0  0  0  0  0  0
   56.0571   24.1545   46.3149 H   0  0  0  0  0  0  0  0  0  0  0  0
   58.1740   24.5610   46.1260 C   0  0  0  0  0  0  0  0  0  0  0  0
   58.4656   23.5026   46.1951 H   0  0  0  0  0  0  0  0  0  0  0  0
   59.1410   25.5480   45.9750 C   0  0  0  0  0  0  0  0  0  0  0  0
   60.2031   25.2715   45.9001 H   0  0  0  0  0  0  0  0  0  0  0  0
   58.7730   26.8540   45.9200 N   0  0  0  0  0  0  0  0  0  0  0  0
   57.4740   27.2620   45.9990 C   0  0  0  0  0  0  0  0  0  0  0  0
   57.2430   28.5460   45.9350 N   0  0  0  0  0  0  0  0  0  0  0  0
   56.4200   29.2820   45.0090 C   0  0  0  0  0  0  0  0  0  0  0  0
   55.2020   28.9880   44.8610 O   0  0  0  0  0  0  0  0  0  0  0  0
   56.9790   30.4510   44.3020 C   0  0  0  0  0  0  0  0  0  0  0  0
   56.8980   30.5470   42.9030 C   0  0  0  0  0  0  0  0  0  0  0  0
   56.4136   29.7444   42.3275 H   0  0  0  0  0  0  0  0  0  0  0  0
   57.4290   31.6560   42.2370 C   0  0  0  0  0  0  0  0  0  0  0  0
   57.3660   31.7201   41.1407 H   0  0  0  0  0  0  0  0  0  0  0  0
   58.0390   32.6820   42.9610 C   0  0  0  0  0  0  0  0  0  0  0  0
   58.4416   33.5592   42.4333 H   0  0  0  0  0  0  0  0  0  0  0  0
   58.1410   32.6010   44.3510 C   0  0  0  0  0  0  0  0  0  0  0  0
   58.7510   33.6560   45.0450 O   0  0  0  0  0  0  0  0  0  0  0  0
   59.3370   33.5570   46.3160 C   0  0  0  0  0  0  0  0  0  0  0  0
   59.1440   34.5960   47.2340 C   0  0  0  0  0  0  0  0  0  0  0  0
   58.5405   35.4711   46.9511 H   0  0  0  0  0  0  0  0  0  0  0  0
   59.7150   34.5270   48.5100 C   0  0  0  0  0  0  0  0  0  0  0  0
   59.5563   35.3451   49.2280 H   0  0  0  0  0  0  0  0  0  0  0  0
   60.4870   33.4190   48.8730 C   0  0  0  0  0  0  0  0  0  0  0  0
   60.9305   33.3654   49.8782 H   0  0  0  0  0  0  0  0  0  0  0  0
   60.6980   32.3740   47.9580 C   0  0  0  0  0  0  0  0  0  0  0  0
   61.5070   31.1630   48.3520 C   0  0  0  0  0  0  0  0  0  0  0  0
   61.2315   30.8633   49.3739 H   0  0  0  0  0  0  0  0  0  0  0  0
   61.2919   30.3515   47.6412 H   0  0  0  0  0  0  0  0  0  0  0  0
   62.9550   31.4560   48.3080 N   0  0  0  0  0  0  0  0  0  0  0  0
   63.4140   32.1830   49.5070 C   0  0  0  0  0  0  0  0  0  0  0  0
   62.5481   32.4840   50.1150 H   0  0  0  0  0  0  0  0  0  0  0  0
   64.0638   31.5392   50.1180 H   0  0  0  0  0  0  0  0  0  0  0  0
   64.1750   33.4160   49.0480 C   0  0  0  0  0  0  0  0  0  0  0  0
   63.9652   34.2717   49.7066 H   0  0  0  0  0  0  0  0  0  0  0  0
   65.2652   33.2717   49.0719 H   0  0  0  0  0  0  0  0  0  0  0  0
   63.6580   33.6720   47.6600 C   0  0  0  0  0  0  0  0  0  0  0  0
   62.7727   34.3244   47.6861 H   0  0  0  0  0  0  0  0  0  0  0  0
   64.3926   34.1840   47.0210 H   0  0  0  0  0  0  0  0  0  0  0  0
   63.2970   32.2940   47.1470 C   0  0  0  0  0  0  0  0  0  0  0  0
   62.4345   32.3619   46.4677 H   0  0  0  0  0  0  0  0  0  0  0  0
   64.1413   31.8571   46.5936 H   0  0  0  0  0  0  0  0  0  0  0  0
   60.1450   32.4610   46.6750 C   0  0  0  0  0  0  0  0  0  0  0  0
   60.3433   31.6663   45.9408 H   0  0  0  0  0  0  0  0  0  0  0  0
   57.5940   31.4890   45.0200 C   0  0  0  0  0  0  0  0  0  0  0  0
   57.6492   31.4331   46.1172 H   0  0  0  0  0  0  0  0  0  0  0  0
  1  2  1  0
  2  3  1  0
  3  4  2  0
  4  5  1  0
  4  6  1  0
  6  7  1  0
  6  8  2  0
  8  9  1  0
  8 10  1  0
 10 11  1  0
 11 12  2  0
 12 13  1  0
 13 14  2  0
 13 15  1  0
 15 16  2  0
 16 17  1  0
 16 18  1  0
 18 19  1  0
 18 20  2  0
 20 21  1  0
 20 22  1  0
 22 23  1  0
 23 24  1  0
 24 25  2  0
 25 26  1  0
 25 27  1  0
 27 28  1  0
 27 29  2  0
 29 30  1  0
 29 31  1  0
 31 32  1  0
 32 33  1  0
 32 34  1  0
 32 35  1  0
 35 36  1  0
 36 37  1  0
 36 38  1  0
 36 39  1  0
 39 40  1  0
 39 41  1  0
 39 42  1  0
 42 43  1  0
 42 44  1  0
 42 45  1  0
 45 46  1  0
 45 47  1  0
 31 48  2  0
 48 49  1  0
 22 50  2  0
 50 51  1  0
 11  3  1  0
 50 15  1  0
 48 24  1  0
 45 35  1  0
M  CHG  1  10  -1
M  END
>  <UniqueID>  (38) 
36

>  <SMILES>  (38) 
O=C(/N=c1/[n-]cccc1O)c1cccc(Oc2cccc(CN3CCCC3)c2)c1

>  <Energy>  (38) 
76.45624139163253

>  <Genealogy>  (38) 
O=C(N=c1[n-]cccc1O)c1cccc(Oc2cccc(CN3CCCC3)c2)c1 (protonated)
O=C(/N=c1/[n-]cccc1O)c1cccc(Oc2cccc(CN3CCCC3)c2)c1 (cis-trans isomerization)
O=C(/N=c1/[n-]cccc1O)c1cccc(Oc2cccc(CN3CCCC3)c2)c1 (3D coordinates assigned)
O=C(/N=c1/[n-]cccc1O)c1cccc(Oc2cccc(CN3CCCC3)c2)c1 (nonaromatic ring conformer: 76.45624139163253 kcal/mol)

>  <smiles>  (38) 
O=C(N=c1[nH]cccc1O)c1cccc(Oc2cccc(CN3CCCC3)c2)c1

>  <score_type>  (38) 
oracle

>  <origin>  (38) 
adg

>  <m_score__min__energy>  (38) 
-12.42

>  <m_primary>  (38) 
energy

$$$$
38:0
     RDKit          3D

 59 62  0  0  0  0  0  0  0  0999 V2000
   58.4710   22.8152   46.8981 H   0  0  0  0  0  0  0  0  0  0  0  0
   58.1230   23.4190   46.0470 C   0  0  0  0  0  0  0  0  0  0  0  0
   57.9920   24.8050   46.1820 C   0  0  0  0  0  0  0  0  0  0  0  0
   58.2352   25.2858   47.1410 H   0  0  0  0  0  0  0  0  0  0  0  0
   57.5510   25.5890   45.0990 C   0  0  0  0  0  0  0  0  0  0  0  0
   57.3980   27.0580   45.2320 C   0  0  0  0  0  0  0  0  0  0  0  0
   57.2260   27.5620   46.3760 O   0  0  0  0  0  0  0  0  0  0  0  0
   57.3920   27.9080   44.0730 N   0  0  0  0  0  0  0  0  0  0  0  0
   57.0670   27.5000   43.1670 H   0  0  0  0  0  0  0  0  0  0  0  0
   57.6490   29.3230   44.1190 C   0  0  0  0  0  0  0  0  0  0  0  0
   58.4580   29.8440   45.1400 C   0  0  0  0  0  0  0  0  0  0  0  0
   58.8997   29.1666   45.8856 H   0  0  0  0  0  0  0  0  0  0  0  0
   58.7070   31.2170   45.2170 C   0  0  0  0  0  0  0  0  0  0  0  0
   59.3450   31.6135   46.0206 H   0  0  0  0  0  0  0  0  0  0  0  0
   58.1470   32.0920   44.2740 C   0  0  0  0  0  0  0  0  0  0  0  0
   58.3840   33.5700   44.3820 C   0  0  0  0  0  0  0  0  0  0  0  0
   57.6112   34.1086   43.8140 H   0  0  0  0  0  0  0  0  0  0  0  0
   59.3749   33.8154   43.9722 H   0  0  0  0  0  0  0  0  0  0  0  0
   58.3230   33.9670   45.7870 N   0  0  0  0  0  0  0  0  0  0  0  0
   59.2980   33.9060   46.6480 C   0  0  0  0  0  0  0  0  0  0  0  0
   60.5760   33.9010   46.1820 N   0  0  0  0  0  0  0  0  0  0  0  0
   61.6540   33.8420   47.0090 C   0  0  0  0  0  0  0  0  0  0  0  0
   63.0350   33.8460   46.4330 C   0  0  0  0  0  0  0  0  0  0  0  0
   63.7726   33.8481   47.2490 H   0  0  0  0  0  0  0  0  0  0  0  0
   63.1764   32.9483   45.8133 H   0  0  0  0  0  0  0  0  0  0  0  0
   63.1712   34.7445   45.8133 H   0  0  0  0  0  0  0  0  0  0  0  0
   61.4670   33.7910   48.3930 C   0  0  0  0  0  0  0  0  0  0  0  0
   62.3353   33.7417   49.0666 H   0  0  0  0  0  0  0  0  0  0  0  0
   60.1670   33.8030   48.9190 C   0  0  0  0  0  0  0  0  0  0  0  0
   59.9450   33.7520   50.4160 C   0  0  0  0  0  0  0  0  0  0  0  0
   60.8600   33.3649   50.8881 H   0  0  0  0  0  0  0  0  0  0  0  0
   59.7028   34.7761   50.7362 H   0  0  0  0  0  0  0  0  0  0  0  0
   58.8110   32.8960   50.8290 N   0  0  0  0  0  0  0  0  0  0  0  0
   59.0150   31.4670   50.5190 C   0  0  0  0  0  0  0  0  0  0  0  0
   59.0823   31.3429   49.4281 H   0  0  0  0  0  0  0  0  0  0  0  0
   59.9436   31.1348   51.0061 H   0  0  0  0  0  0  0  0  0  0  0  0
   57.8480   30.6050   51.0530 C   0  0  0  0  0  0  0  0  0  0  0  0
   57.5363   29.9013   50.2671 H   0  0  0  0  0  0  0  0  0  0  0  0
   58.1997   30.0686   51.9466 H   0  0  0  0  0  0  0  0  0  0  0  0
   56.6940   31.4290   51.4390 N   0  0  0  0  0  0  0  0  0  0  0  0
   56.3590   31.9540   50.5960 H   0  0  0  0  0  0  0  0  0  0  0  0
   57.0530   32.3950   52.4920 C   0  0  0  0  0  0  0  0  0  0  0  0
   56.2711   33.1670   52.5427 H   0  0  0  0  0  0  0  0  0  0  0  0
   57.1381   31.8393   53.4375 H   0  0  0  0  0  0  0  0  0  0  0  0
   58.4100   33.0830   52.2320 C   0  0  0  0  0  0  0  0  0  0  0  0
   58.3192   34.1585   52.4442 H   0  0  0  0  0  0  0  0  0  0  0  0
   59.1720   32.6353   52.8870 H   0  0  0  0  0  0  0  0  0  0  0  0
   59.0750   33.8480   48.0380 C   0  0  0  0  0  0  0  0  0  0  0  0
   58.0480   33.8380   48.4318 H   0  0  0  0  0  0  0  0  0  0  0  0
   57.3060   31.5790   43.2750 C   0  0  0  0  0  0  0  0  0  0  0  0
   56.8396   32.2610   42.5488 H   0  0  0  0  0  0  0  0  0  0  0  0
   57.0580   30.2060   43.1980 C   0  0  0  0  0  0  0  0  0  0  0  0
   56.3962   29.8134   42.4119 H   0  0  0  0  0  0  0  0  0  0  0  0
   57.2320   24.9510   43.8850 C   0  0  0  0  0  0  0  0  0  0  0  0
   56.8739   25.5470   43.0326 H   0  0  0  0  0  0  0  0  0  0  0  0
   57.3670   23.5660   43.7550 C   0  0  0  0  0  0  0  0  0  0  0  0
   57.1213   23.0781   42.8002 H   0  0  0  0  0  0  0  0  0  0  0  0
   57.8130   22.8000   44.8340 C   0  0  0  0  0  0  0  0  0  0  0  0
   57.9410   21.4560   44.7050 F   0  0  0  0  0  0  0  0  0  0  0  0
  1  2  1  0
  2  3  2  0
  3  4  1  0
  3  5  1  0
  5  6  1  0
  6  7  2  0
  6  8  1  0
  8  9  1  0
  8 10  1  0
 10 11  2  0
 11 12  1  0
 11 13  1  0
 13 14  1  0
 13 15  2  0
 15 16  1  0
 16 17  1  0
 16 18  1  0
 16 19  1  0
 19 20  2  0
 20 21  1  0
 21 22  1  0
 22 23  1  0
 23 24  1  0
 23 25  1  0
 23 26  1  0
 22 27  2  0
 27 28  1  0
 27 29  1  0
 29 30  1  0
 30 31  1  0
 30 32  1  0
 30 33  1  0
 33 34  1  0
 34 35  1  0
 34 36  1  0
 34 37  1  0
 37 38  1  0
 37 39  1  0
 37 40  1  0
 40 41  1  0
 40 42  1  0
 42 43  1  0
 42 44  1  0
 42 45  1  0
 45 46  1  0
 45 47  1  0
 29 48  2  0
 48 49  1  0
 15 50  1  0
 50 51  1  0
 50 52  2  0
 52 53  1  0
  5 54  2  0
 54 55  1  0
 54 56  1  0
 56 57  1  0
 56 58  2  0
 58 59  1  0
 58  2  1  0
 52 10  1  0
 48 20  1  0
 45 33  1  0
M  CHG  1  21  -1
M  END
>  <UniqueID>  (39) 
37

>  <SMILES>  (39) 
Cc1cc(CN2CCNCC2)c/c(=N\Cc2ccc(NC(=O)c3ccc(F)cc3)cc2)[n-]1

>  <Energy>  (39) 
77.25815569805278

>  <Genealogy>  (39) 
Cc1cc(CN2CCNCC2)cc(=NCc2ccc(NC(=O)c3ccc(F)cc3)cc2)[n-]1 (protonated)
Cc1cc(CN2CCNCC2)c/c(=N\Cc2ccc(NC(=O)c3ccc(F)cc3)cc2)[n-]1 (cis-trans isomerization)
Cc1cc(CN2CCNCC2)c/c(=N\Cc2ccc(NC(=O)c3ccc(F)cc3)cc2)[n-]1 (3D coordinates assigned)
Cc1cc(CN2CCNCC2)c/c(=N\Cc2ccc(NC(=O)c3ccc(F)cc3)cc2)[n-]1 (nonaromatic ring conformer: 77.25815569805278 kcal/mol)

>  <smiles>  (39) 
Cc1cc(CN2CCNCC2)cc(=NCc2ccc(NC(=O)c3ccc(F)cc3)cc2)[nH]1

>  <score_type>  (39) 
oracle

>  <origin>  (39) 
adg

>  <m_score__min__energy>  (39) 
-10.02

>  <m_primary>  (39) 
energy

$$$$
39:0
     RDKit          3D

 56 59  0  0  0  0  0  0  0  0999 V2000
   59.0390   35.3200   44.9700 O   0  0  0  0  0  0  0  0  0  0  0  0
   59.0940   34.4350   45.8640 C   0  0  0  0  0  0  0  0  0  0  0  0
   59.7340   34.7500   47.1090 N   0  0  0  0  0  0  0  0  0  0  0  0
   60.9130   34.1190   47.6300 C   0  0  0  0  0  0  0  0  0  0  0  0
   61.1930   34.2230   48.9970 C   0  0  0  0  0  0  0  0  0  0  0  0
   62.3300   33.6110   49.5350 C   0  0  0  0  0  0  0  0  0  0  0  0
   63.2060   32.8940   48.7070 C   0  0  0  0  0  0  0  0  0  0  0  0
   64.4400   32.2500   49.2880 C   0  0  0  0  0  0  0  0  0  0  0  0
   65.1460   33.1780   50.1950 N   0  0  0  0  0  0  0  0  0  0  0  0
   64.6560   33.0530   51.5890 C   0  0  0  0  0  0  0  0  0  0  0  0
   65.6200   32.2360   52.4690 C   0  0  0  0  0  0  0  0  0  0  0  0
   66.9270   32.7890   52.5430 O   0  0  0  0  0  0  0  0  0  0  0  0
   67.3120   33.5050   51.3770 C   0  0  0  0  0  0  0  0  0  0  0  0
   66.6170   33.0170   50.0970 C   0  0  0  0  0  0  0  0  0  0  0  0
   62.9480   32.8230   47.3300 C   0  0  0  0  0  0  0  0  0  0  0  0
   61.8130   33.4350   46.7930 C   0  0  0  0  0  0  0  0  0  0  0  0
   58.4680   33.1150   45.6200 C   0  0  0  0  0  0  0  0  0  0  0  0
   57.8230   32.8520   44.4020 C   0  0  0  0  0  0  0  0  0  0  0  0
   57.2810   31.5880   44.1480 C   0  0  0  0  0  0  0  0  0  0  0  0
   57.3670   30.5770   45.1150 C   0  0  0  0  0  0  0  0  0  0  0  0
   56.7560   28.9600   44.7790 S   0  0  0  0  0  0  0  0  0  0  0  0
   55.2560   28.9960   44.8430 O   0  0  0  0  0  0  0  0  0  0  0  0
   57.1780   28.4990   43.4120 O   0  0  0  0  0  0  0  0  0  0  0  0
   57.3480   27.8450   45.9700 N   0  0  0  0  0  0  0  0  0  0  0  0
   57.2090   26.4150   45.9440 C   0  0  0  0  0  0  0  0  0  0  0  0
   58.3810   25.6480   45.8780 C   0  0  0  0  0  0  0  0  0  0  0  0
   58.3170   24.2530   45.8140 C   0  0  0  0  0  0  0  0  0  0  0  0
   57.0810   23.6090   45.8350 C   0  0  0  0  0  0  0  0  0  0  0  0
   55.9060   24.3570   45.9290 C   0  0  0  0  0  0  0  0  0  0  0  0
   55.9570   25.7580   45.9930 C   0  0  0  0  0  0  0  0  0  0  0  0
   54.7710   26.4770   46.1270 O   0  0  0  0  0  0  0  0  0  0  0  0
   57.9630   30.8520   46.3510 C   0  0  0  0  0  0  0  0  0  0  0  0
   58.5110   32.1120   46.6040 C   0  0  0  0  0  0  0  0  0  0  0  0
   60.5150   34.7893   49.6524 H   0  0  0  0  0  0  0  0  0  0  0  0
   62.5379   33.6924   50.6121 H   0  0  0  0  0  0  0  0  0  0  0  0
   64.1457   31.3518   49.8506 H   0  0  0  0  0  0  0  0  0  0  0  0
   65.1173   31.9841   48.4630 H   0  0  0  0  0  0  0  0  0  0  0  0
   64.5492   34.0597   52.0194 H   0  0  0  0  0  0  0  0  0  0  0  0
   63.6906   32.5263   51.5635 H   0  0  0  0  0  0  0  0  0  0  0  0
   65.2050   32.1861   53.4865 H   0  0  0  0  0  0  0  0  0  0  0  0
   65.7151   31.2419   52.0079 H   0  0  0  0  0  0  0  0  0  0  0  0
   67.0647   34.5668   51.5236 H   0  0  0  0  0  0  0  0  0  0  0  0
   68.3911   33.3413   51.2401 H   0  0  0  0  0  0  0  0  0  0  0  0
   66.9865   33.6021   49.2419 H   0  0  0  0  0  0  0  0  0  0  0  0
   66.8438   31.9493   49.9610 H   0  0  0  0  0  0  0  0  0  0  0  0
   63.6427   32.2829   46.6700 H   0  0  0  0  0  0  0  0  0  0  0  0
   61.6222   33.3818   45.7110 H   0  0  0  0  0  0  0  0  0  0  0  0
   57.7432   33.6441   43.6429 H   0  0  0  0  0  0  0  0  0  0  0  0
   56.7858   31.3867   43.1866 H   0  0  0  0  0  0  0  0  0  0  0  0
   59.3603   26.1489   45.8766 H   0  0  0  0  0  0  0  0  0  0  0  0
   59.2429   23.6630   45.7470 H   0  0  0  0  0  0  0  0  0  0  0  0
   57.0314   22.5116   45.7775 H   0  0  0  0  0  0  0  0  0  0  0  0
   54.9330   23.8445   45.9531 H   0  0  0  0  0  0  0  0  0  0  0  0
   54.7700   27.4650   46.3510 H   0  0  0  0  0  0  0  0  0  0  0  0
   58.0002   30.0728   47.1266 H   0  0  0  0  0  0  0  0  0  0  0  0
   58.9783   32.3202   47.5778 H   0  0  0  0  0  0  0  0  0  0  0  0
  1  2  2  0
  2  3  1  0
  3  4  1  0
  4  5  2  0
  5  6  1  0
  6  7  2  0
  7  8  1  0
  8  9  1  0
  9 10  1  0
 10 11  1  0
 11 12  1  0
 12 13  1  0
 13 14  1  0
  7 15  1  0
 15 16  2  0
  2 17  1  0
 17 18  2  0
 18 19  1  0
 19 20  2  0
 20 21  1  0
 21 22  2  0
 21 23  2  0
 21 24  1  0
 24 25  1  0
 25 26  2  0
 26 27  1  0
 27 28  2  0
 28 29  1  0
 29 30  2  0
 30 31  1  0
 20 32  1  0
 32 33  2  0
 16  4  1  0
 33 17  1  0
 14  9  1  0
 30 25  1  0
  5 34  1  0
  6 35  1  0
  8 36  1  0
  8 37  1  0
 10 38  1  0
 10 39  1  0
 11 40  1  0
 11 41  1  0
 13 42  1  0
 13 43  1  0
 14 44  1  0
 14 45  1  0
 15 46  1  0
 16 47  1  0
 18 48  1  0
 19 49  1  0
 26 50  1  0
 27 51  1  0
 28 52  1  0
 29 53  1  0
 31 54  1  0
 32 55  1  0
 33 56  1  0
M  CHG  2   3  -1  24  -1
M  END
>  <UniqueID>  (40) 
38

>  <SMILES>  (40) 
O=C([N-]c1ccc(CN2CCOCC2)cc1)c1ccc(S(=O)(=O)[N-]c2ccccc2O)cc1

>  <Energy>  (40) 
83.77436565625511

>  <Genealogy>  (40) 
O=C([N-]c1ccc(CN2CCOCC2)cc1)c1ccc(S(=O)(=O)[N-]c2ccccc2O)cc1 (protonated)
O=C([N-]c1ccc(CN2CCOCC2)cc1)c1ccc(S(=O)(=O)[N-]c2ccccc2O)cc1 (3D coordinates assigned)
O=C([N-]c1ccc(CN2CCOCC2)cc1)c1ccc(S(=O)(=O)[N-]c2ccccc2O)cc1 (nonaromatic ring conformer: 83.77436565625511 kcal/mol)

>  <smiles>  (40) 
O=C(Nc1ccc(CN2CCOCC2)cc1)c1ccc(S(=O)(=O)Nc2ccccc2O)cc1

>  <score_type>  (40) 
oracle

>  <origin>  (40) 
adg

>  <m_score__min__energy>  (40) 
-13.23

>  <m_primary>  (40) 
energy

$$$$
40:0
     RDKit          3D

 39 40  0  0  0  0  0  0  0  0999 V2000
   58.4190   22.2900   44.2080 C   0  0  0  0  0  0  0  0  0  0  0  0
   56.8080   22.9300   43.7910 S   0  0  0  0  0  0  0  0  0  0  0  0
   56.9880   23.9960   42.7460 O   0  0  0  0  0  0  0  0  0  0  0  0
   55.9570   21.8230   43.2350 O   0  0  0  0  0  0  0  0  0  0  0  0
   56.0380   23.6100   45.1950 N   0  0  0  0  0  0  0  0  0  0  0  0
   56.7700   24.5700   46.0280 C   0  0  0  0  0  0  0  0  0  0  0  0
   56.3030   25.9610   45.7320 C   0  0  0  0  0  0  0  0  0  0  0  0
   55.1500   26.3260   46.0870 O   0  0  0  0  0  0  0  0  0  0  0  0
   57.1920   26.8660   45.0660 N   0  0  0  0  0  0  0  0  0  0  0  0
   58.1460   27.7520   45.6770 C   0  0  0  0  0  0  0  0  0  0  0  0
   59.3410   27.2530   46.2300 C   0  0  0  0  0  0  0  0  0  0  0  0
   60.2860   28.1160   46.7860 C   0  0  0  0  0  0  0  0  0  0  0  0
   60.0640   29.4890   46.7800 C   0  0  0  0  0  0  0  0  0  0  0  0
   58.9000   30.0070   46.2140 C   0  0  0  0  0  0  0  0  0  0  0  0
   57.9290   29.1550   45.6470 C   0  0  0  0  0  0  0  0  0  0  0  0
   56.7130   29.7560   45.0280 C   0  0  0  0  0  0  0  0  0  0  0  0
   55.5280   28.9790   44.8710 N   0  0  0  0  0  0  0  0  0  0  0  0
   56.7040   30.9570   44.6440 O   0  0  0  0  0  0  0  0  0  0  0  0
   54.6540   23.3250   45.4650 C   0  0  0  0  0  0  0  0  0  0  0  0
   54.3040   22.3210   46.3840 C   0  0  0  0  0  0  0  0  0  0  0  0
   52.9600   21.9870   46.5900 C   0  0  0  0  0  0  0  0  0  0  0  0
   51.9590   22.6490   45.8800 C   0  0  0  0  0  0  0  0  0  0  0  0
   50.6260   22.3160   46.0890 O   0  0  0  0  0  0  0  0  0  0  0  0
   52.2960   23.6440   44.9580 C   0  0  0  0  0  0  0  0  0  0  0  0
   53.6400   23.9830   44.7500 C   0  0  0  0  0  0  0  0  0  0  0  0
   58.5249   22.2479   45.3021 H   0  0  0  0  0  0  0  0  0  0  0  0
   58.5314   21.2789   43.7896 H   0  0  0  0  0  0  0  0  0  0  0  0
   59.1946   22.9483   43.7896 H   0  0  0  0  0  0  0  0  0  0  0  0
   56.5907   24.3431   47.0893 H   0  0  0  0  0  0  0  0  0  0  0  0
   57.8452   24.4944   45.8082 H   0  0  0  0  0  0  0  0  0  0  0  0
   59.5318   26.1697   46.2236 H   0  0  0  0  0  0  0  0  0  0  0  0
   61.2072   27.7102   47.2294 H   0  0  0  0  0  0  0  0  0  0  0  0
   60.8082   30.1674   47.2226 H   0  0  0  0  0  0  0  0  0  0  0  0
   58.7365   31.0948   46.2095 H   0  0  0  0  0  0  0  0  0  0  0  0
   55.5300   27.9540   45.0630 H   0  0  0  0  0  0  0  0  0  0  0  0
   55.0905   21.7946   46.9447 H   0  0  0  0  0  0  0  0  0  0  0  0
   52.6935   21.2016   47.3126 H   0  0  0  0  0  0  0  0  0  0  0  0
   51.5054   24.1616   44.3949 H   0  0  0  0  0  0  0  0  0  0  0  0
   53.9015   24.7671   44.0242 H   0  0  0  0  0  0  0  0  0  0  0  0
  1  2  1  0
  2  3  2  0
  2  4  2  0
  2  5  1  0
  5  6  1  0
  6  7  1  0
  7  8  2  0
  7  9  1  0
  9 10  1  0
 10 11  2  0
 11 12  1  0
 12 13  2  0
 13 14  1  0
 14 15  2  0
 15 16  1  0
 16 17  1  0
 16 18  2  0
  5 19  1  0
 19 20  2  0
 20 21  1  0
 21 22  2  0
 22 23  1  0
 22 24  1  0
 24 25  2  0
 15 10  1  0
 25 19  1  0
  1 26  1  0
  1 27  1  0
  1 28  1  0
  6 29  1  0
  6 30  1  0
 11 31  1  0
 12 32  1  0
 13 33  1  0
 14 34  1  0
 17 35  1  0
 20 36  1  0
 21 37  1  0
 24 38  1  0
 25 39  1  0
M  CHG  3   9  -1  17  -1  23  -1
M  END
>  <UniqueID>  (41) 
39

>  <SMILES>  (41) 
CS(=O)(=O)N(CC(=O)[N-]c1ccccc1C([NH-])=O)c1ccc([O-])cc1

>  <Energy>  (41) 
44.26778035973578

>  <Genealogy>  (41) 
CS(=O)(=O)N(CC(=O)[N-]c1ccccc1C([NH-])=O)c1ccc([O-])cc1 (protonated)
CS(=O)(=O)N(CC(=O)[N-]c1ccccc1C([NH-])=O)c1ccc([O-])cc1 (3D coordinates assigned)
CS(=O)(=O)N(CC(=O)[N-]c1ccccc1C([NH-])=O)c1ccc([O-])cc1 (optimized conformer: 44.26778035973578 kcal/mol)

>  <smiles>  (41) 
CS(=O)(=O)N(CC(=O)Nc1ccccc1C(N)=O)c1ccc(O)cc1

>  <score_type>  (41) 
oracle

>  <origin>  (41) 
adg

>  <m_score__min__energy>  (41) 
-13.289999999999999

>  <m_primary>  (41) 
energy

$$$$
41:0
     RDKit          3D

 38 40  0  0  1  0  0  0  0  0999 V2000
   56.7790   33.8510   45.5260 O   0  0  0  0  0  0  0  0  0  0  0  0
   57.5100   33.0130   44.9420 C   0  0  0  0  0  0  0  0  0  0  0  0
   58.9150   33.0590   45.1210 N   0  0  0  0  0  0  0  0  0  0  0  0
   59.4950   33.3730   46.2100 C   0  0  0  0  0  0  0  0  0  0  0  0
   60.7130   32.8840   46.5820 C   0  0  0  0  0  0  0  0  0  0  0  0
   61.2320   33.2540   47.7930 C   0  0  0  0  0  0  0  0  0  0  0  0
   60.5730   34.1160   48.6730 C   0  0  0  0  0  0  0  0  0  0  0  0
   59.3480   34.5800   48.2450 C   0  0  0  0  0  0  0  0  0  0  0  0
   58.8380   34.2140   47.0540 N   0  0  0  0  0  0  0  0  0  0  0  0
   56.9860   31.9930   44.0840 N   0  0  0  0  0  0  0  0  0  0  0  0
   56.7870   30.7800   44.4680 C   0  0  0  0  0  0  0  0  0  0  0  0
   57.7280   29.9360   45.0130 C   0  0  0  0  0  0  0  0  0  0  0  0
   57.1240   28.7060   45.3210 C   0  0  0  0  0  0  0  0  0  0  0  0
   57.8800   27.6250   45.9060 C   0  0  0  0  0  0  0  0  0  0  0  0
   59.1540   27.7350   45.8490 O   0  0  0  0  0  0  0  0  0  0  0  0
   57.3620   26.4740   46.5240 N   0  0  0  0  0  0  0  0  0  0  0  0
   56.9130   25.4650   45.8660 C   0  0  0  0  0  0  0  0  0  0  0  0
   57.7930   24.5030   45.4680 N   0  0  0  0  0  0  0  0  0  0  0  0
   57.3920   23.4120   44.7800 C   0  0  0  0  0  0  0  0  0  0  0  0
   56.0380   23.2910   44.4840 C   0  0  0  0  0  0  0  0  0  0  0  0
   55.1120   24.2360   44.8630 C   0  0  0  0  0  0  0  0  0  0  0  0
   55.5560   25.3510   45.5700 C   0  0  0  0  0  0  0  0  0  0  0  0
   54.6360   26.3000   45.9500 O   0  0  0  0  0  0  0  0  0  0  0  0
   55.8510   28.8440   44.9540 N   0  0  0  0  0  0  0  0  0  0  0  0
   55.6280   30.0620   44.4480 N   0  0  0  0  0  0  0  0  0  0  0  0
   61.2686   32.2038   45.9197 H   0  0  0  0  0  0  0  0  0  0  0  0
   62.2136   32.8541   48.0872 H   0  0  0  0  0  0  0  0  0  0  0  0
   61.0034   34.4052   49.6431 H   0  0  0  0  0  0  0  0  0  0  0  0
   58.7753   35.2632   48.8895 H   0  0  0  0  0  0  0  0  0  0  0  0
   57.8930   34.6070   46.7880 H   0  0  0  0  0  0  0  0  0  0  0  0
   58.7861   30.1855   45.1808 H   0  0  0  0  0  0  0  0  0  0  0  0
   58.8130   24.5690   45.6760 H   0  0  0  0  0  0  0  0  0  0  0  0
   58.1130   22.6437   44.4638 H   0  0  0  0  0  0  0  0  0  0  0  0
   55.6948   22.4072   43.9263 H   0  0  0  0  0  0  0  0  0  0  0  0
   54.0476   24.1138   44.6138 H   0  0  0  0  0  0  0  0  0  0  0  0
   53.7760   25.9500   46.3860 H   0  0  0  0  0  0  0  0  0  0  0  0
   55.1430   28.0680   45.0680 H   0  0  0  0  0  0  0  0  0  0  0  0
   54.7060   30.4400   44.0780 H   0  0  0  0  0  0  0  0  0  0  0  0
  1  2  2  0
  2  3  1  0
  3  4  2  0
  4  5  1  0
  5  6  2  0
  6  7  1  0
  7  8  2  0
  8  9  1  0
  2 10  1  0
 10 11  2  0
 11 12  1  0
 12 13  2  0
 13 14  1  0
 14 15  2  0
 14 16  1  0
 16 17  2  0
 17 18  1  0
 18 19  1  0
 19 20  2  0
 20 21  1  0
 21 22  2  0
 22 23  1  0
 13 24  1  0
 24 25  1  0
  9  4  1  0
 25 11  1  0
 22 17  1  0
  5 26  1  0
  6 27  1  0
  7 28  1  0
  8 29  1  0
  9 30  1  0
 12 31  1  0
 18 32  1  0
 19 33  1  0
 20 34  1  0
 21 35  1  0
 23 36  1  0
 24 37  1  0
 25 38  1  0
M  END
>  <smiles>  (42) 
O=C(N=c1cccc[nH]1)N=c1cc(C(=O)N=c2[nH]cccc2O)[nH][nH]1

>  <score_type>  (42) 
oracle

>  <origin>  (42) 
adg

>  <m_score__min__energy>  (42) 
-8.9100000000000001

>  <m_primary>  (42) 
energy

$$$$
42:0
     RDKit          3D

 49 51  0  0  0  0  0  0  0  0999 V2000
   59.6920   35.5570   45.7990 C   0  0  0  0  0  0  0  0  0  0  0  0
   59.9010   34.3060   46.4440 O   0  0  0  0  0  0  0  0  0  0  0  0
   61.0710   33.9480   47.1330 C   0  0  0  0  0  0  0  0  0  0  0  0
   62.3080   33.8110   46.4690 C   0  0  0  0  0  0  0  0  0  0  0  0
   63.4610   33.4780   47.1810 C   0  0  0  0  0  0  0  0  0  0  0  0
   63.4020   33.2850   48.5610 C   0  0  0  0  0  0  0  0  0  0  0  0
   64.8540   32.8770   49.4540 Cl  0  0  0  0  0  0  0  0  0  0  0  0
   62.1840   33.4170   49.2320 C   0  0  0  0  0  0  0  0  0  0  0  0
   61.0060   33.7260   48.5280 C   0  0  0  0  0  0  0  0  0  0  0  0
   59.7030   33.8740   49.2800 C   0  0  0  0  0  0  0  0  0  0  0  0
   58.9060   32.5920   49.2910 C   0  0  0  0  0  0  0  0  0  0  0  0
   58.2180   32.3280   50.3120 O   0  0  0  0  0  0  0  0  0  0  0  0
   58.8460   31.6820   48.1790 N   0  0  0  0  0  0  0  0  0  0  0  0
   58.3680   31.8910   46.9880 C   0  0  0  0  0  0  0  0  0  0  0  0
   57.4520   32.8360   46.6820 N   0  0  0  0  0  0  0  0  0  0  0  0
   57.1550   32.8370   45.3560 C   0  0  0  0  0  0  0  0  0  0  0  0
   57.8550   31.8980   44.6100 C   0  0  0  0  0  0  0  0  0  0  0  0
   57.7060   31.6320   42.8440 S   0  0  0  0  0  0  0  0  0  0  0  0
   56.4090   30.3540   42.9780 C   0  0  0  0  0  0  0  0  0  0  0  0
   56.9240   29.1440   43.6860 C   0  0  0  0  0  0  0  0  0  0  0  0
   57.7860   28.2620   43.1330 N   0  0  0  0  0  0  0  0  0  0  0  0
   57.9380   27.3320   44.0950 C   0  0  0  0  0  0  0  0  0  0  0  0
   57.1680   27.6830   45.1800 C   0  0  0  0  0  0  0  0  0  0  0  0
   57.0250   26.9120   46.4560 C   0  0  0  0  0  0  0  0  0  0  0  0
   55.8800   25.9520   46.3730 C   0  0  0  0  0  0  0  0  0  0  0  0
   54.7660   26.3440   45.9290 O   0  0  0  0  0  0  0  0  0  0  0  0
   56.0740   24.5820   46.7380 N   0  0  0  0  0  0  0  0  0  0  0  0
   56.9740   24.1590   47.8040 C   0  0  0  0  0  0  0  0  0  0  0  0
   56.5200   22.8540   48.3840 C   0  0  0  0  0  0  0  0  0  0  0  0
   57.1980   21.8510   48.2340 O   0  0  0  0  0  0  0  0  0  0  0  0
   56.5520   28.8040   44.8980 O   0  0  0  0  0  0  0  0  0  0  0  0
   58.8670   31.0270   45.6350 S   0  0  0  0  0  0  0  0  0  0  0  0
   59.5607   36.3430   46.5572 H   0  0  0  0  0  0  0  0  0  0  0  0
   60.5627   35.7955   45.1706 H   0  0  0  0  0  0  0  0  0  0  0  0
   58.7910   35.4995   45.1706 H   0  0  0  0  0  0  0  0  0  0  0  0
   62.3641   33.9679   45.3817 H   0  0  0  0  0  0  0  0  0  0  0  0
   64.4192   33.3674   46.6523 H   0  0  0  0  0  0  0  0  0  0  0  0
   62.1456   33.2778   50.3225 H   0  0  0  0  0  0  0  0  0  0  0  0
   59.9233   34.1638   50.3180 H   0  0  0  0  0  0  0  0  0  0  0  0
   59.1027   34.6422   48.7705 H   0  0  0  0  0  0  0  0  0  0  0  0
   56.4210   33.5246   44.9105 H   0  0  0  0  0  0  0  0  0  0  0  0
   55.5562   30.7638   43.5391 H   0  0  0  0  0  0  0  0  0  0  0  0
   56.0974   30.0620   41.9643 H   0  0  0  0  0  0  0  0  0  0  0  0
   58.5742   26.4374   44.0248 H   0  0  0  0  0  0  0  0  0  0  0  0
   57.9525   26.3513   46.6441 H   0  0  0  0  0  0  0  0  0  0  0  0
   56.8319   27.6201   47.2753 H   0  0  0  0  0  0  0  0  0  0  0  0
   57.9887   24.0409   47.3961 H   0  0  0  0  0  0  0  0  0  0  0  0
   56.9716   24.9218   48.5966 H   0  0  0  0  0  0  0  0  0  0  0  0
   55.5753   22.8005   48.9450 H   0  0  0  0  0  0  0  0  0  0  0  0
  1  2  1  0
  2  3  1  0
  3  4  2  0
  4  5  1  0
  5  6  2  0
  6  7  1  0
  6  8  1  0
  8  9  2  0
  9 10  1  0
 10 11  1  0
 11 12  2  0
 11 13  1  0
 13 14  2  3
 14 15  1  0
 15 16  1  0
 16 17  2  0
 17 18  1  0
 18 19  1  0
 19 20  1  0
 20 21  2  0
 21 22  1  0
 22 23  2  0
 23 24  1  0
 24 25  1  0
 25 26  2  0
 25 27  1  0
 27 28  1  0
 28 29  1  0
 29 30  2  0
 23 31  1  0
 17 32  1  0
  9  3  1  0
 32 14  1  0
 31 20  1  0
  1 33  1  0
  1 34  1  0
  1 35  1  0
  4 36  1  0
  5 37  1  0
  8 38  1  0
 10 39  1  0
 10 40  1  0
 16 41  1  0
 19 42  1  0
 19 43  1  0
 22 44  1  0
 24 45  1  0
 24 46  1  0
 28 47  1  0
 28 48  1  0
 29 49  1  0
M  CHG  2  15  -1  27  -1
M  END
>  <UniqueID>  (43) 
40

>  <SMILES>  (43) 
COc1ccc(Cl)cc1CC(=O)N=c1[n-]cc(SCc2ncc(CC(=O)[N-]CC=O)o2)s1

>  <Energy>  (43) 
99.33718095895823

>  <Genealogy>  (43) 
COc1ccc(Cl)cc1CC(=O)N=c1[n-]cc(SCc2ncc(CC(=O)[N-]CC=O)o2)s1 (protonated)
COc1ccc(Cl)cc1CC(=O)N=c1[n-]cc(SCc2ncc(CC(=O)[N-]CC=O)o2)s1 (3D coordinates assigned)
COc1ccc(Cl)cc1CC(=O)N=c1[n-]cc(SCc2ncc(CC(=O)[N-]CC=O)o2)s1 (optimized conformer: 99.33718095895823 kcal/mol)

>  <smiles>  (43) 
COc1ccc(Cl)cc1CC(=O)N=c1[nH]cc(SCc2ncc(CC(=O)NCC=O)o2)s1

>  <score_type>  (43) 
oracle

>  <origin>  (43) 
adg

>  <m_score__min__energy>  (43) 
-12

>  <m_primary>  (43) 
energy

$$$$
43:0
     RDKit          3D

 55 58  0  0  0  0  0  0  0  0999 V2000
   54.0190   26.3280   46.4240 H   0  0  0  0  0  0  0  0  0  0  0  0
   54.9200   26.3610   45.9620 O   0  0  0  0  0  0  0  0  0  0  0  0
   55.9400   25.4780   46.3040 C   0  0  0  0  0  0  0  0  0  0  0  0
   55.7790   24.4610   47.1660 N   0  0  0  0  0  0  0  0  0  0  0  0
   56.9970   23.8780   47.1720 C   0  0  0  0  0  0  0  0  0  0  0  0
   57.2600   22.8620   47.8660 O   0  0  0  0  0  0  0  0  0  0  0  0
   57.9080   24.4620   46.3650 N   0  0  0  0  0  0  0  0  0  0  0  0
   57.2340   25.5000   45.8340 C   0  0  0  0  0  0  0  0  0  0  0  0
   57.7580   26.3780   44.7760 C   0  0  0  0  0  0  0  0  0  0  0  0
   58.1459   25.8937   43.8677 H   0  0  0  0  0  0  0  0  0  0  0  0
   57.8040   27.7230   44.8230 C   0  0  0  0  0  0  0  0  0  0  0  0
   57.1820   28.5260   43.8800 C   0  0  0  0  0  0  0  0  0  0  0  0
   56.5525   28.1872   43.0440 H   0  0  0  0  0  0  0  0  0  0  0  0
   57.5030   29.8310   44.1900 C   0  0  0  0  0  0  0  0  0  0  0  0
   57.0660   31.0290   43.4030 C   0  0  0  0  0  0  0  0  0  0  0  0
   56.7724   31.8338   44.0930 H   0  0  0  0  0  0  0  0  0  0  0  0
   57.8962   31.3741   42.7692 H   0  0  0  0  0  0  0  0  0  0  0  0
   56.2086   30.7585   42.7692 H   0  0  0  0  0  0  0  0  0  0  0  0
   58.2780   29.8740   45.2950 N   0  0  0  0  0  0  0  0  0  0  0  0
   58.7510   31.0750   45.9300 C   0  0  0  0  0  0  0  0  0  0  0  0
   60.0700   31.1560   46.3970 C   0  0  0  0  0  0  0  0  0  0  0  0
   60.7503   30.3011   46.2688 H   0  0  0  0  0  0  0  0  0  0  0  0
   60.5240   32.3190   47.0250 C   0  0  0  0  0  0  0  0  0  0  0  0
   61.5603   32.3746   47.3898 H   0  0  0  0  0  0  0  0  0  0  0  0
   59.6650   33.4170   47.1930 C   0  0  0  0  0  0  0  0  0  0  0  0
   60.1620   34.6850   47.8570 C   0  0  0  0  0  0  0  0  0  0  0  0
   61.0913   34.9971   47.3581 H   0  0  0  0  0  0  0  0  0  0  0  0
   59.3621   35.4339   47.7600 H   0  0  0  0  0  0  0  0  0  0  0  0
   60.4370   34.5300   49.3030 N   0  0  0  0  0  0  0  0  0  0  0  0
   59.8020   33.3250   49.8670 C   0  0  0  0  0  0  0  0  0  0  0  0
   59.8290   33.3763   50.9655 H   0  0  0  0  0  0  0  0  0  0  0  0
   58.7570   33.2685   49.5282 H   0  0  0  0  0  0  0  0  0  0  0  0
   60.3461   32.4311   49.5282 H   0  0  0  0  0  0  0  0  0  0  0  0
   61.8800   34.5850   49.6140 C   0  0  0  0  0  0  0  0  0  0  0  0
   62.3297   35.4447   49.0957 H   0  0  0  0  0  0  0  0  0  0  0  0
   62.0062   34.6902   50.7017 H   0  0  0  0  0  0  0  0  0  0  0  0
   62.5620   33.3250   49.1650 C   0  0  0  0  0  0  0  0  0  0  0  0
   62.6990   32.1680   49.9020 C   0  0  0  0  0  0  0  0  0  0  0  0
   62.2840   32.0004   50.9068 H   0  0  0  0  0  0  0  0  0  0  0  0
   63.4220   31.2740   49.1970 N   0  0  0  0  0  0  0  0  0  0  0  0
   63.7110   31.9100   48.0400 C   0  0  0  0  0  0  0  0  0  0  0  0
   64.3047   31.4626   47.2292 H   0  0  0  0  0  0  0  0  0  0  0  0
   63.1920   33.1520   47.9890 N   0  0  0  0  0  0  0  0  0  0  0  0
   63.3920   34.1350   46.9290 C   0  0  0  0  0  0  0  0  0  0  0  0
   63.5924   35.1201   47.3755 H   0  0  0  0  0  0  0  0  0  0  0  0
   64.2473   33.8338   46.3063 H   0  0  0  0  0  0  0  0  0  0  0  0
   62.4870   34.1920   46.3063 H   0  0  0  0  0  0  0  0  0  0  0  0
   58.3380   33.3250   46.7380 C   0  0  0  0  0  0  0  0  0  0  0  0
   57.6524   34.1740   46.8763 H   0  0  0  0  0  0  0  0  0  0  0  0
   57.8850   32.1610   46.1110 C   0  0  0  0  0  0  0  0  0  0  0  0
   56.8450   32.0975   45.7585 H   0  0  0  0  0  0  0  0  0  0  0  0
   58.4460   28.5950   45.7190 C   0  0  0  0  0  0  0  0  0  0  0  0
   59.0460   28.2750   46.8770 C   0  0  0  0  0  0  0  0  0  0  0  0
   59.5145   29.0599   47.4889 H   0  0  0  0  0  0  0  0  0  0  0  0
   59.0690   27.2280   47.2136 H   0  0  0  0  0  0  0  0  0  0  0  0
  1  2  1  0
  2  3  1  0
  3  4  1  0
  4  5  1  0
  5  6  2  0
  5  7  1  0
  7  8  1  0
  8  9  1  0
  9 10  1  0
  9 11  2  0
 11 12  1  0
 12 13  1  0
 12 14  2  0
 14 15  1  0
 15 16  1  0
 15 17  1  0
 15 18  1  0
 14 19  1  0
 19 20  1  0
 20 21  2  0
 21 22  1  0
 21 23  1  0
 23 24  1  0
 23 25  2  0
 25 26  1  0
 26 27  1  0
 26 28  1  0
 26 29  1  0
 29 30  1  0
 30 31  1  0
 30 32  1  0
 30 33  1  0
 29 34  1  0
 34 35  1  0
 34 36  1  0
 34 37  1  0
 37 38  2  0
 38 39  1  0
 38 40  1  0
 40 41  2  0
 41 42  1  0
 41 43  1  0
 43 44  1  0
 44 45  1  0
 44 46  1  0
 44 47  1  0
 25 48  1  0
 48 49  1  0
 48 50  2  0
 50 51  1  0
 19 52  1  0
 52 53  2  0
 53 54  1  0
 53 55  1  0
  8  3  2  0
 52 11  1  0
 50 20  1  0
 43 37  1  0
M  CHG  2   4  -1   7  -1
M  END
>  <UniqueID>  (44) 
41

>  <SMILES>  (44) 
C=c1/c(=C\c2[n-]c(=O)[n-]c2O)cc(C)n1-c1ccc(CN(C)Cc2cncn2C)cc1

>  <Energy>  (44) 
163.45707335014748

>  <Genealogy>  (44) 
C=c1c(=Cc2[n-]c(=O)[n-]c2O)cc(C)n1-c1ccc(CN(C)Cc2cncn2C)cc1 (protonated)
C=c1/c(=C\c2[n-]c(=O)[n-]c2O)cc(C)n1-c1ccc(CN(C)Cc2cncn2C)cc1 (cis-trans isomerization)
C=c1/c(=C\c2[n-]c(=O)[n-]c2O)cc(C)n1-c1ccc(CN(C)Cc2cncn2C)cc1 (3D coordinates assigned)
C=c1/c(=C\c2[n-]c(=O)[n-]c2O)cc(C)n1-c1ccc(CN(C)Cc2cncn2C)cc1 (optimized conformer: 163.45707335014748 kcal/mol)

>  <smiles>  (44) 
C=c1c(=Cc2[nH]c(=O)[nH]c2O)cc(C)n1-c1ccc(CN(C)Cc2cncn2C)cc1

>  <score_type>  (44) 
oracle

>  <origin>  (44) 
adg

>  <m_score__min__energy>  (44) 
-13.470000000000001

>  <m_primary>  (44) 
energy

$$$$
44:0
     RDKit          3D

 67 70  0  0  0  0  0  0  0  0999 V2000
   59.8890   28.8830   44.2160 O   0  0  0  0  0  0  0  0  0  0  0  0
   58.9610   28.0970   44.5490 C   0  0  0  0  0  0  0  0  0  0  0  0
   57.8810   27.7850   43.5530 C   0  0  0  0  0  0  0  0  0  0  0  0
   57.0240   28.9380   43.2830 N   0  0  0  0  0  0  0  0  0  0  0  0
   56.5390   29.9270   44.2060 C   0  0  0  0  0  0  0  0  0  0  0  0
   55.4020   29.7540   44.7210 O   0  0  0  0  0  0  0  0  0  0  0  0
   57.3400   31.0930   44.6410 C   0  0  0  0  0  0  0  0  0  0  0  0
   57.6330   32.1540   43.7690 C   0  0  0  0  0  0  0  0  0  0  0  0
   58.4240   33.2230   44.1990 C   0  0  0  0  0  0  0  0  0  0  0  0
   58.8980   33.2650   45.5170 C   0  0  0  0  0  0  0  0  0  0  0  0
   59.8610   34.6230   46.0910 S   0  0  0  0  0  0  0  0  0  0  0  0
   61.3140   34.2580   45.9900 O   0  0  0  0  0  0  0  0  0  0  0  0
   59.6100   35.8420   45.2460 O   0  0  0  0  0  0  0  0  0  0  0  0
   59.4710   34.9540   47.7560 N   0  0  0  0  0  0  0  0  0  0  0  0
   59.6670   33.7740   48.6020 C   0  0  0  0  0  0  0  0  0  0  0  0
   61.1150   33.3600   48.6450 C   0  0  0  0  0  0  0  0  0  0  0  0
   61.5340   32.1700   48.0270 C   0  0  0  0  0  0  0  0  0  0  0  0
   62.8890   31.8200   48.0160 C   0  0  0  0  0  0  0  0  0  0  0  0
   63.8310   32.6530   48.6260 C   0  0  0  0  0  0  0  0  0  0  0  0
   63.4210   33.8300   49.2550 C   0  0  0  0  0  0  0  0  0  0  0  0
   62.0670   34.1830   49.2700 C   0  0  0  0  0  0  0  0  0  0  0  0
   58.5650   32.2350   46.4030 C   0  0  0  0  0  0  0  0  0  0  0  0
   57.7880   31.1590   45.9700 C   0  0  0  0  0  0  0  0  0  0  0  0
   58.9760   27.4690   45.8400 N   0  0  0  0  0  0  0  0  0  0  0  0
   60.0280   27.7520   46.8270 C   0  0  0  0  0  0  0  0  0  0  0  0
   59.7840   26.9520   48.1310 C   0  0  0  0  0  0  0  0  0  0  0  0
   60.4450   27.6530   49.3240 C   0  0  0  0  0  0  0  0  0  0  0  0
   59.8450   28.9870   49.5620 N   0  0  0  0  0  0  0  0  0  0  0  0
   60.6320   29.8360   50.4840 C   0  0  0  0  0  0  0  0  0  0  0  0
   59.8760   31.0420   51.0090 C   0  0  0  0  0  0  0  0  0  0  0  0
   58.4700   31.0850   50.9490 C   0  0  0  0  0  0  0  0  0  0  0  0
   57.7760   32.1990   51.4280 C   0  0  0  0  0  0  0  0  0  0  0  0
   58.4740   33.2730   51.9850 C   0  0  0  0  0  0  0  0  0  0  0  0
   59.8660   33.2290   52.0740 C   0  0  0  0  0  0  0  0  0  0  0  0
   60.5650   32.1160   51.5980 C   0  0  0  0  0  0  0  0  0  0  0  0
   59.3530   29.6830   48.3470 C   0  0  0  0  0  0  0  0  0  0  0  0
   60.1340   29.2750   47.0900 C   0  0  0  0  0  0  0  0  0  0  0  0
   58.3505   27.4651   42.6110 H   0  0  0  0  0  0  0  0  0  0  0  0
   57.2508   26.9902   43.9786 H   0  0  0  0  0  0  0  0  0  0  0  0
   57.2380   32.1437   42.7424 H   0  0  0  0  0  0  0  0  0  0  0  0
   58.6754   34.0344   43.5002 H   0  0  0  0  0  0  0  0  0  0  0  0
   59.3312   34.0066   49.6233 H   0  0  0  0  0  0  0  0  0  0  0  0
   59.0831   32.9440   48.1775 H   0  0  0  0  0  0  0  0  0  0  0  0
   60.7941   31.5106   47.5498 H   0  0  0  0  0  0  0  0  0  0  0  0
   63.2126   30.8892   47.5272 H   0  0  0  0  0  0  0  0  0  0  0  0
   64.8967   32.3809   48.6105 H   0  0  0  0  0  0  0  0  0  0  0  0
   64.1636   34.4810   49.7396 H   0  0  0  0  0  0  0  0  0  0  0  0
   61.7470   35.1076   49.7726 H   0  0  0  0  0  0  0  0  0  0  0  0
   58.9166   32.2730   47.4446 H   0  0  0  0  0  0  0  0  0  0  0  0
   57.5248   30.3569   46.6753 H   0  0  0  0  0  0  0  0  0  0  0  0
   58.2380   26.7600   46.0520 H   0  0  0  0  0  0  0  0  0  0  0  0
   60.9947   27.4226   46.4184 H   0  0  0  0  0  0  0  0  0  0  0  0
   58.7016   26.8749   48.3110 H   0  0  0  0  0  0  0  0  0  0  0  0
   60.2229   25.9494   48.0202 H   0  0  0  0  0  0  0  0  0  0  0  0
   60.3110   27.0338   50.2232 H   0  0  0  0  0  0  0  0  0  0  0  0
   61.5138   27.7868   49.1007 H   0  0  0  0  0  0  0  0  0  0  0  0
   60.9408   29.2209   51.3421 H   0  0  0  0  0  0  0  0  0  0  0  0
   61.4873   30.2217   49.9098 H   0  0  0  0  0  0  0  0  0  0  0  0
   57.9147   30.2366   50.5225 H   0  0  0  0  0  0  0  0  0  0  0  0
   56.6782   32.2303   51.3664 H   0  0  0  0  0  0  0  0  0  0  0  0
   57.9267   34.1532   52.3534 H   0  0  0  0  0  0  0  0  0  0  0  0
   60.4143   34.0720   52.5197 H   0  0  0  0  0  0  0  0  0  0  0  0
   61.6610   32.0806   51.6850 H   0  0  0  0  0  0  0  0  0  0  0  0
   58.2915   29.4339   48.2012 H   0  0  0  0  0  0  0  0  0  0  0  0
   59.4932   30.7638   48.4963 H   0  0  0  0  0  0  0  0  0  0  0  0
   59.7262   29.8168   46.2239 H   0  0  0  0  0  0  0  0  0  0  0  0
   61.1937   29.5263   47.2446 H   0  0  0  0  0  0  0  0  0  0  0  0
  1  2  2  0
  2  3  1  0
  3  4  1  0
  4  5  1  0
  5  6  2  0
  5  7  1  0
  7  8  2  0
  8  9  1  0
  9 10  2  0
 10 11  1  0
 11 12  2  0
 11 13  2  0
 11 14  1  0
 14 15  1  0
 15 16  1  0
 16 17  2  0
 17 18  1  0
 18 19  2  0
 19 20  1  0
 20 21  2  0
 10 22  1  0
 22 23  2  0
  2 24  1  0
 24 25  1  0
 25 26  1  0
 26 27  1  0
 27 28  1  0
 28 29  1  0
 29 30  1  0
 30 31  2  0
 31 32  1  0
 32 33  2  0
 33 34  1  0
 34 35  2  0
 28 36  1  0
 36 37  1  0
 23  7  1  0
 37 25  1  0
 21 16  1  0
 35 30  1  0
  3 38  1  0
  3 39  1  0
  8 40  1  0
  9 41  1  0
 15 42  1  0
 15 43  1  0
 17 44  1  0
 18 45  1  0
 19 46  1  0
 20 47  1  0
 21 48  1  0
 22 49  1  0
 23 50  1  0
 24 51  1  0
 25 52  1  0
 26 53  1  0
 26 54  1  0
 27 55  1  0
 27 56  1  0
 29 57  1  0
 29 58  1  0
 31 59  1  0
 32 60  1  0
 33 61  1  0
 34 62  1  0
 35 63  1  0
 36 64  1  0
 36 65  1  0
 37 66  1  0
 37 67  1  0
M  CHG  2   4  -1  14  -1
M  END
>  <UniqueID>  (45) 
42

>  <SMILES>  (45) 
O=C(C[N-]C(=O)c1ccc(S(=O)(=O)[N-]Cc2ccccc2)cc1)NC1CCN(Cc2ccccc2)CC1

>  <Energy>  (45) 
74.56452318496238

>  <Genealogy>  (45) 
O=C(C[N-]C(=O)c1ccc(S(=O)(=O)[N-]Cc2ccccc2)cc1)NC1CCN(Cc2ccccc2)CC1 (protonated)
O=C(C[N-]C(=O)c1ccc(S(=O)(=O)[N-]Cc2ccccc2)cc1)NC1CCN(Cc2ccccc2)CC1 (3D coordinates assigned)
O=C(C[N-]C(=O)c1ccc(S(=O)(=O)[N-]Cc2ccccc2)cc1)NC1CCN(Cc2ccccc2)CC1 (nonaromatic ring conformer: 74.56452318496238 kcal/mol)

>  <smiles>  (45) 
O=C(CNC(=O)c1ccc(S(=O)(=O)NCc2ccccc2)cc1)NC1CCN(Cc2ccccc2)CC1

>  <score_type>  (45) 
oracle

>  <origin>  (45) 
adg

>  <m_score__min__energy>  (45) 
-12.050000000000001

>  <m_primary>  (45) 
energy

$$$$
45:0
     RDKit          3D

 64 68  0  0  0  0  0  0  0  0999 V2000
   60.8981   26.4333   45.5719 H   0  0  0  0  0  0  0  0  0  0  0  0
   60.4370   27.0090   46.3880 C   0  0  0  0  0  0  0  0  0  0  0  0
   61.0000   27.1120   47.6220 N   0  0  0  0  0  0  0  0  0  0  0  0
   60.2470   27.8580   48.4600 C   0  0  0  0  0  0  0  0  0  0  0  0
   60.6060   28.0800   49.6920 N   0  0  0  0  0  0  0  0  0  0  0  0
   59.9740   28.9470   50.6460 C   0  0  0  0  0  0  0  0  0  0  0  0
   60.1620   28.8030   51.8830 O   0  0  0  0  0  0  0  0  0  0  0  0
   59.1540   30.0160   50.1620 N   0  0  0  0  0  0  0  0  0  0  0  0
   58.8110   31.2190   50.8710 C   0  0  0  0  0  0  0  0  0  0  0  0
   59.6640   32.3390   50.8760 C   0  0  0  0  0  0  0  0  0  0  0  0
   60.6113   32.3076   50.3178 H   0  0  0  0  0  0  0  0  0  0  0  0
   59.3140   33.4900   51.5860 C   0  0  0  0  0  0  0  0  0  0  0  0
   59.9793   34.3659   51.5748 H   0  0  0  0  0  0  0  0  0  0  0  0
   58.1220   33.5300   52.3090 C   0  0  0  0  0  0  0  0  0  0  0  0
   57.8438   34.4408   52.8595 H   0  0  0  0  0  0  0  0  0  0  0  0
   57.2810   32.4150   52.3350 C   0  0  0  0  0  0  0  0  0  0  0  0
   56.3469   32.4478   52.9149 H   0  0  0  0  0  0  0  0  0  0  0  0
   57.6230   31.2480   51.6220 C   0  0  0  0  0  0  0  0  0  0  0  0
   56.8040   30.1070   51.6300 O   0  0  0  0  0  0  0  0  0  0  0  0
   56.2990   29.4840   52.8070 C   0  0  0  0  0  0  0  0  0  0  0  0
   56.7087   29.9894   53.6940 H   0  0  0  0  0  0  0  0  0  0  0  0
   55.2014   29.5563   52.8180 H   0  0  0  0  0  0  0  0  0  0  0  0
   56.5969   28.4252   52.8180 H   0  0  0  0  0  0  0  0  0  0  0  0
   58.8440   28.4200   47.7030 S   0  0  0  0  0  0  0  0  0  0  0  0
   59.2320   27.6890   46.2390 C   0  0  0  0  0  0  0  0  0  0  0  0
   58.3730   27.6950   45.0140 C   0  0  0  0  0  0  0  0  0  0  0  0
   58.9870   27.4392   44.1379 H   0  0  0  0  0  0  0  0  0  0  0  0
   57.5676   26.9557   45.1356 H   0  0  0  0  0  0  0  0  0  0  0  0
   57.7650   29.0570   44.8150 C   0  0  0  0  0  0  0  0  0  0  0  0
   56.4530   29.1790   44.3280 C   0  0  0  0  0  0  0  0  0  0  0  0
   55.8600   28.2769   44.1171 H   0  0  0  0  0  0  0  0  0  0  0  0
   55.9000   30.4420   44.1110 C   0  0  0  0  0  0  0  0  0  0  0  0
   54.8726   30.5320   43.7285 H   0  0  0  0  0  0  0  0  0  0  0  0
   56.6470   31.5930   44.3780 C   0  0  0  0  0  0  0  0  0  0  0  0
   56.2056   32.5850   44.2016 H   0  0  0  0  0  0  0  0  0  0  0  0
   57.9600   31.4890   44.8710 C   0  0  0  0  0  0  0  0  0  0  0  0
   58.7670   32.7020   45.1410 C   0  0  0  0  0  0  0  0  0  0  0  0
   58.8730   33.5760   44.2370 O   0  0  0  0  0  0  0  0  0  0  0  0
   59.4270   32.9100   46.4050 N   0  0  0  0  0  0  0  0  0  0  0  0
   59.9840   31.7850   47.1660 C   0  0  0  0  0  0  0  0  0  0  0  0
   59.3454   31.5857   48.0392 H   0  0  0  0  0  0  0  0  0  0  0  0
   60.0221   30.8974   46.5173 H   0  0  0  0  0  0  0  0  0  0  0  0
   61.4030   32.1170   47.6420 C   0  0  0  0  0  0  0  0  0  0  0  0
   61.7186   31.3597   48.3747 H   0  0  0  0  0  0  0  0  0  0  0  0
   62.0655   32.1193   46.7638 H   0  0  0  0  0  0  0  0  0  0  0  0
   61.4740   33.4470   48.2710 N   0  0  0  0  0  0  0  0  0  0  0  0
   62.6630   33.8500   48.9880 C   0  0  0  0  0  0  0  0  0  0  0  0
   62.6190   34.8610   49.7460 O   0  0  0  0  0  0  0  0  0  0  0  0
   63.9600   33.0780   48.8450 C   0  0  0  0  0  0  0  0  0  0  0  0
   64.0363   33.2145   47.7562 H   0  0  0  0  0  0  0  0  0  0  0  0
   64.1360   31.9070   49.8020 C   0  0  0  0  0  0  0  0  0  0  0  0
   63.3268   31.6382   50.4969 H   0  0  0  0  0  0  0  0  0  0  0  0
   64.3937   30.8434   49.6907 H   0  0  0  0  0  0  0  0  0  0  0  0
   64.9270   33.1890   50.0150 C   0  0  0  0  0  0  0  0  0  0  0  0
   64.6897   33.8469   50.8640 H   0  0  0  0  0  0  0  0  0  0  0  0
   65.9936   33.4360   50.1215 H   0  0  0  0  0  0  0  0  0  0  0  0
   60.2870   34.3170   48.2670 C   0  0  0  0  0  0  0  0  0  0  0  0
   59.5763   33.9650   49.0293 H   0  0  0  0  0  0  0  0  0  0  0  0
   60.5980   35.3483   48.4900 H   0  0  0  0  0  0  0  0  0  0  0  0
   59.6100   34.2860   46.8910 C   0  0  0  0  0  0  0  0  0  0  0  0
   58.6256   34.7709   46.9672 H   0  0  0  0  0  0  0  0  0  0  0  0
   60.2577   34.8178   46.1784 H   0  0  0  0  0  0  0  0  0  0  0  0
   58.5190   30.2140   45.0670 C   0  0  0  0  0  0  0  0  0  0  0  0
   59.5564   30.1222   45.4210 H   0  0  0  0  0  0  0  0  0  0  0  0
  1  2  1  0
  2  3  1  0
  3  4  1  0
  4  5  2  0
  5  6  1  0
  6  7  2  0
  6  8  1  0
  8  9  1  0
  9 10  2  0
 10 11  1  0
 10 12  1  0
 12 13  1  0
 12 14  2  0
 14 15  1  0
 14 16  1  0
 16 17  1  0
 16 18  2  0
 18 19  1  0
 19 20  1  0
 20 21  1  0
 20 22  1  0
 20 23  1  0
  4 24  1  0
 24 25  1  0
 25 26  1  0
 26 27  1  0
 26 28  1  0
 26 29  1  0
 29 30  2  0
 30 31  1  0
 30 32  1  0
 32 33  1  0
 32 34  2  0
 34 35  1  0
 34 36  1  0
 36 37  1  0
 37 38  2  0
 37 39  1  0
 39 40  1  0
 40 41  1  0
 40 42  1  0
 40 43  1  0
 43 44  1  0
 43 45  1  0
 43 46  1  0
 46 47  1  0
 47 48  2  0
 47 49  1  0
 49 50  1  0
 49 51  1  0
 51 52  1  0
 51 53  1  0
 51 54  1  0
 54 55  1  0
 54 56  1  0
 46 57  1  0
 57 58  1  0
 57 59  1  0
 57 60  1  0
 60 61  1  0
 60 62  1  0
 36 63  2  0
 63 64  1  0
 25  2  2  0
 63 29  1  0
 18  9  1  0
 60 39  1  0
 54 49  1  0
M  CHG  2   3  -1   8  -1
M  END
>  <UniqueID>  (46) 
43

>  <SMILES>  (46) 
COc1ccccc1[N-]C(=O)/N=c1/[n-]cc(Cc2cccc(C(=O)N3CCN(C(=O)C4CC4)CC3)c2)s1

>  <Energy>  (46) 
373.163486996676

>  <Genealogy>  (46) 
COc1ccccc1[N-]C(=O)N=c1[n-]cc(Cc2cccc(C(=O)N3CCN(C(=O)C4CC4)CC3)c2)s1 (protonated)
COc1ccccc1[N-]C(=O)/N=c1/[n-]cc(Cc2cccc(C(=O)N3CCN(C(=O)C4CC4)CC3)c2)s1 (cis-trans isomerization)
COc1ccccc1[N-]C(=O)/N=c1/[n-]cc(Cc2cccc(C(=O)N3CCN(C(=O)C4CC4)CC3)c2)s1 (3D coordinates assigned)
COc1ccccc1[N-]C(=O)/N=c1/[n-]cc(Cc2cccc(C(=O)N3CCN(C(=O)C4CC4)CC3)c2)s1 (nonaromatic ring conformer: 373.163486996676 kcal/mol)

>  <smiles>  (46) 
COc1ccccc1NC(=O)N=c1[nH]cc(Cc2cccc(C(=O)N3CCN(C(=O)C4CC4)CC3)c2)s1

>  <score_type>  (46) 
oracle

>  <origin>  (46) 
adg

>  <m_score__min__energy>  (46) 
-12.460000000000001

>  <m_primary>  (46) 
energy

$$$$
46:0
     RDKit          3D

 37 38  0  0  0  0  0  0  0  0999 V2000
   57.3830   30.8862   41.6110 H   0  0  0  0  0  0  0  0  0  0  0  0
   57.0620   30.8380   42.6620 C   0  0  0  0  0  0  0  0  0  0  0  0
   57.3980   31.9630   43.5530 C   0  0  0  0  0  0  0  0  0  0  0  0
   57.9860   32.9630   43.0640 O   0  0  0  0  0  0  0  0  0  0  0  0
   57.0680   31.9470   44.9510 N   0  0  0  0  0  0  0  0  0  0  0  0
   56.1610   31.5220   45.2390 H   0  0  0  0  0  0  0  0  0  0  0  0
   57.8900   32.5510   45.9660 C   0  0  0  0  0  0  0  0  0  0  0  0
   58.1200   33.9390   45.9960 C   0  0  0  0  0  0  0  0  0  0  0  0
   57.6389   34.5900   45.2512 H   0  0  0  0  0  0  0  0  0  0  0  0
   58.9570   34.4940   46.9680 C   0  0  0  0  0  0  0  0  0  0  0  0
   59.1124   35.5825   47.0015 H   0  0  0  0  0  0  0  0  0  0  0  0
   59.5960   33.6710   47.8960 C   0  0  0  0  0  0  0  0  0  0  0  0
   60.2655   34.1091   48.6509 H   0  0  0  0  0  0  0  0  0  0  0  0
   59.3850   32.2890   47.8660 C   0  0  0  0  0  0  0  0  0  0  0  0
   59.8850   31.6407   48.6007 H   0  0  0  0  0  0  0  0  0  0  0  0
   58.5400   31.7310   46.9040 C   0  0  0  0  0  0  0  0  0  0  0  0
   58.3823   30.6426   46.8805 H   0  0  0  0  0  0  0  0  0  0  0  0
   56.3830   29.7590   43.0750 C   0  0  0  0  0  0  0  0  0  0  0  0
   55.7158   29.2485   42.3649 H   0  0  0  0  0  0  0  0  0  0  0  0
   56.4980   29.2320   44.4460 C   0  0  0  0  0  0  0  0  0  0  0  0
   55.5500   29.4430   45.2470 O   0  0  0  0  0  0  0  0  0  0  0  0
   57.6850   28.5530   44.9080 N   0  0  0  0  0  0  0  0  0  0  0  0
   57.5900   27.5780   46.0030 C   0  0  0  0  0  0  0  0  0  0  0  0
   56.5349   27.4460   46.2847 H   0  0  0  0  0  0  0  0  0  0  0  0
   58.0066   26.6155   45.6713 H   0  0  0  0  0  0  0  0  0  0  0  0
   58.3820   28.0840   47.2150 C   0  0  0  0  0  0  0  0  0  0  0  0
   57.8418   28.9338   47.6577 H   0  0  0  0  0  0  0  0  0  0  0  0
   58.4758   27.2464   47.9219 H   0  0  0  0  0  0  0  0  0  0  0  0
   59.8120   28.5450   46.8480 C   0  0  0  0  0  0  0  0  0  0  0  0
   59.9256   29.5972   47.1479 H   0  0  0  0  0  0  0  0  0  0  0  0
   60.5104   27.8804   47.3777 H   0  0  0  0  0  0  0  0  0  0  0  0
   60.1320   28.4300   45.3460 C   0  0  0  0  0  0  0  0  0  0  0  0
   61.0710   28.9637   45.1377 H   0  0  0  0  0  0  0  0  0  0  0  0
   60.2258   27.3640   45.0914 H   0  0  0  0  0  0  0  0  0  0  0  0
   59.0120   29.0360   44.4900 C   0  0  0  0  0  0  0  0  0  0  0  0
   59.0403   30.1311   44.5893 H   0  0  0  0  0  0  0  0  0  0  0  0
   59.1749   28.7305   43.4459 H   0  0  0  0  0  0  0  0  0  0  0  0
  1  2  1  0
  2  3  1  0
  3  4  2  0
  3  5  1  0
  5  6  1  0
  5  7  1  0
  7  8  2  0
  8  9  1  0
  8 10  1  0
 10 11  1  0
 10 12  2  0
 12 13  1  0
 12 14  1  0
 14 15  1  0
 14 16  2  0
 16 17  1  0
  2 18  2  0
 18 19  1  0
 18 20  1  0
 20 21  2  0
 20 22  1  0
 22 23  1  0
 23 24  1  0
 23 25  1  0
 23 26  1  0
 26 27  1  0
 26 28  1  0
 26 29  1  0
 29 30  1  0
 29 31  1  0
 29 32  1  0
 32 33  1  0
 32 34  1  0
 32 35  1  0
 35 36  1  0
 35 37  1  0
 16  7  1  0
 35 22  1  0
M  END
>  <UniqueID>  (47) 
44

>  <SMILES>  (47) 
O=C(/C=C/C(=O)N1CCCCC1)Nc1ccccc1

>  <Energy>  (47) 
45.706706796202475

>  <Genealogy>  (47) 
O=C(/C=C/C(=O)N1CCCCC1)Nc1ccccc1 (cis-trans isomerization)
O=C(/C=C/C(=O)N1CCCCC1)Nc1ccccc1 (3D coordinates assigned)
O=C(/C=C/C(=O)N1CCCCC1)Nc1ccccc1 (nonaromatic ring conformer: 45.706706796202475 kcal/mol)

>  <smiles>  (47) 
O=C(C=CC(=O)N1CCCCC1)Nc1ccccc1

>  <score_type>  (47) 
oracle

>  <origin>  (47) 
adg

>  <m_score__min__energy>  (47) 
-7.6600000000000001

>  <m_primary>  (47) 
energy

$$$$
47:0
     RDKit          3D

 53 55  0  0  0  0  0  0  0  0999 V2000
   58.0247   23.8602   44.6930 H   0  0  0  0  0  0  0  0  0  0  0  0
   57.6360   24.7730   45.1680 C   0  0  0  0  0  0  0  0  0  0  0  0
   56.2570   24.9770   45.2610 C   0  0  0  0  0  0  0  0  0  0  0  0
   55.5617   24.2269   44.8561 H   0  0  0  0  0  0  0  0  0  0  0  0
   55.7600   26.1350   45.8690 C   0  0  0  0  0  0  0  0  0  0  0  0
   54.3890   26.3340   45.9690 O   0  0  0  0  0  0  0  0  0  0  0  0
   56.6460   27.0920   46.3790 C   0  0  0  0  0  0  0  0  0  0  0  0
   56.2542   27.9989   46.8628 H   0  0  0  0  0  0  0  0  0  0  0  0
   58.0330   26.8980   46.2750 C   0  0  0  0  0  0  0  0  0  0  0  0
   58.9880   27.8980   46.8660 C   0  0  0  0  0  0  0  0  0  0  0  0
   59.8427   27.3667   47.3100 H   0  0  0  0  0  0  0  0  0  0  0  0
   58.4667   28.4803   47.6401 H   0  0  0  0  0  0  0  0  0  0  0  0
   59.4730   28.8120   45.8200 N   0  0  0  0  0  0  0  0  0  0  0  0
   58.5210   29.5330   45.0110 C   0  0  0  0  0  0  0  0  0  0  0  0
   58.5470   30.9360   44.9700 C   0  0  0  0  0  0  0  0  0  0  0  0
   59.2703   31.4908   45.5857 H   0  0  0  0  0  0  0  0  0  0  0  0
   57.6530   31.6290   44.1460 C   0  0  0  0  0  0  0  0  0  0  0  0
   57.7620   32.9250   44.0560 N   0  0  0  0  0  0  0  0  0  0  0  0
   57.2040   33.8660   44.9830 C   0  0  0  0  0  0  0  0  0  0  0  0
   56.6790   34.9300   44.5600 O   0  0  0  0  0  0  0  0  0  0  0  0
   57.2450   33.5720   46.4550 C   0  0  0  0  0  0  0  0  0  0  0  0
   56.5469   34.2395   46.9814 H   0  0  0  0  0  0  0  0  0  0  0  0
   56.9536   32.5254   46.6271 H   0  0  0  0  0  0  0  0  0  0  0  0
   58.6400   33.7950   46.9750 C   0  0  0  0  0  0  0  0  0  0  0  0
   59.6660   34.1890   46.1000 C   0  0  0  0  0  0  0  0  0  0  0  0
   59.4239   34.4752   45.0658 H   0  0  0  0  0  0  0  0  0  0  0  0
   60.9940   34.2190   46.5380 C   0  0  0  0  0  0  0  0  0  0  0  0
   61.7920   34.5357   45.8503 H   0  0  0  0  0  0  0  0  0  0  0  0
   61.3090   33.8470   47.8490 C   0  0  0  0  0  0  0  0  0  0  0  0
   63.0190   33.8060   48.3870 S   0  0  0  0  0  0  0  0  0  0  0  0
   63.6360   33.2620   46.7630 C   0  0  0  0  0  0  0  0  0  0  0  0
   64.4542   32.5406   46.9045 H   0  0  0  0  0  0  0  0  0  0  0  0
   62.8193   32.7847   46.2016 H   0  0  0  0  0  0  0  0  0  0  0  0
   64.0073   34.1320   46.2016 H   0  0  0  0  0  0  0  0  0  0  0  0
   60.2890   33.4800   48.7340 C   0  0  0  0  0  0  0  0  0  0  0  0
   60.5329   33.2117   49.7725 H   0  0  0  0  0  0  0  0  0  0  0  0
   58.9610   33.4540   48.3000 C   0  0  0  0  0  0  0  0  0  0  0  0
   58.1625   33.1651   48.9993 H   0  0  0  0  0  0  0  0  0  0  0  0
   56.7100   30.8950   43.3990 C   0  0  0  0  0  0  0  0  0  0  0  0
   55.9860   31.4166   42.7557 H   0  0  0  0  0  0  0  0  0  0  0  0
   56.7010   29.5030   43.4810 C   0  0  0  0  0  0  0  0  0  0  0  0
   55.9634   28.9263   42.9036 H   0  0  0  0  0  0  0  0  0  0  0  0
   57.5980   28.8540   44.2700 N   0  0  0  0  0  0  0  0  0  0  0  0
   57.5840   27.8100   44.2780 H   0  0  0  0  0  0  0  0  0  0  0  0
   60.9170   29.0090   45.6170 C   0  0  0  0  0  0  0  0  0  0  0  0
   61.1040   29.2444   44.5589 H   0  0  0  0  0  0  0  0  0  0  0  0
   61.4431   28.0859   45.9017 H   0  0  0  0  0  0  0  0  0  0  0  0
   61.4330   30.1550   46.4840 C   0  0  0  0  0  0  0  0  0  0  0  0
   61.3151   29.8932   47.5459 H   0  0  0  0  0  0  0  0  0  0  0  0
   62.4968   30.3300   46.2654 H   0  0  0  0  0  0  0  0  0  0  0  0
   60.8588   31.0674   46.2654 H   0  0  0  0  0  0  0  0  0  0  0  0
   58.5230   25.7260   45.6770 C   0  0  0  0  0  0  0  0  0  0  0  0
   59.6078   25.5572   45.6088 H   0  0  0  0  0  0  0  0  0  0  0  0
  1  2  1  0
  2  3  2  0
  3  4  1  0
  3  5  1  0
  5  6  1  0
  5  7  2  0
  7  8  1  0
  7  9  1  0
  9 10  1  0
 10 11  1  0
 10 12  1  0
 10 13  1  0
 13 14  1  0
 14 15  2  0
 15 16  1  0
 15 17  1  0
 17 18  2  0
 18 19  1  0
 19 20  2  0
 19 21  1  0
 21 22  1  0
 21 23  1  0
 21 24  1  0
 24 25  2  0
 25 26  1  0
 25 27  1  0
 27 28  1  0
 27 29  2  0
 29 30  1  0
 30 31  1  0
 31 32  1  0
 31 33  1  0
 31 34  1  0
 29 35  1  0
 35 36  1  0
 35 37  2  0
 37 38  1  0
 17 39  1  0
 39 40  1  0
 39 41  2  0
 41 42  1  0
 41 43  1  0
 43 44  1  0
 13 45  1  0
 45 46  1  0
 45 47  1  0
 45 48  1  0
 48 49  1  0
 48 50  1  0
 48 51  1  0
  9 52  2  0
 52 53  1  0
 52  2  1  0
 43 14  1  0
 37 24  1  0
M  CHG  1   6  -1
M  END
>  <UniqueID>  (48) 
45

>  <SMILES>  (48) 
CCN(Cc1cccc([O-])c1)c1c/c(=N/C(=O)Cc2ccc(SC)cc2)cc[nH]1

>  <Energy>  (48) 
55.26045233720827

>  <Genealogy>  (48) 
CCN(Cc1cccc([O-])c1)c1cc(=NC(=O)Cc2ccc(SC)cc2)cc[nH]1 (protonated)
CCN(Cc1cccc([O-])c1)c1c/c(=N/C(=O)Cc2ccc(SC)cc2)cc[nH]1 (cis-trans isomerization)
CCN(Cc1cccc([O-])c1)c1c/c(=N/C(=O)Cc2ccc(SC)cc2)cc[nH]1 (3D coordinates assigned)
CCN(Cc1cccc([O-])c1)c1c/c(=N/C(=O)Cc2ccc(SC)cc2)cc[nH]1 (optimized conformer: 55.26045233720827 kcal/mol)

>  <smiles>  (48) 
CCN(Cc1cccc(O)c1)c1cc(=NC(=O)Cc2ccc(SC)cc2)cc[nH]1

>  <score_type>  (48) 
oracle

>  <origin>  (48) 
adg

>  <m_score__min__energy>  (48) 
-12.859999999999999

>  <m_primary>  (48) 
energy

$$$$
48:0
     RDKit          3D

 41 43  0  0  0  0  0  0  0  0999 V2000
   58.9980   26.1850   46.0020 C   0  0  0  0  0  0  0  0  0  0  0  0
   58.4290   27.5350   45.6720 C   0  0  0  0  0  0  0  0  0  0  0  0
   59.2580   28.6660   45.6520 C   0  0  0  0  0  0  0  0  0  0  0  0
   58.7230   29.9300   45.3860 C   0  0  0  0  0  0  0  0  0  0  0  0
   57.3440   30.0810   45.1450 C   0  0  0  0  0  0  0  0  0  0  0  0
   56.7570   31.3610   44.8700 N   0  0  0  0  0  0  0  0  0  0  0  0
   57.6250   32.8550   44.7320 S   0  0  0  0  0  0  0  0  0  0  0  0
   56.6400   33.9840   44.5980 O   0  0  0  0  0  0  0  0  0  0  0  0
   58.4880   32.8080   43.5030 O   0  0  0  0  0  0  0  0  0  0  0  0
   58.6540   33.0980   46.1390 C   0  0  0  0  0  0  0  0  0  0  0  0
   60.0470   33.0420   46.0120 C   0  0  0  0  0  0  0  0  0  0  0  0
   60.8670   33.2370   47.1260 C   0  0  0  0  0  0  0  0  0  0  0  0
   60.3030   33.5050   48.3880 C   0  0  0  0  0  0  0  0  0  0  0  0
   61.1680   33.7250   49.5710 C   0  0  0  0  0  0  0  0  0  0  0  0
   62.1470   34.5170   49.4890 O   0  0  0  0  0  0  0  0  0  0  0  0
   60.8810   33.0400   50.8040 N   0  0  0  0  0  0  0  0  0  0  0  0
   59.7370   32.5420   51.1770 C   0  0  0  0  0  0  0  0  0  0  0  0
   58.8750   33.3210   51.9600 C   0  0  0  0  0  0  0  0  0  0  0  0
   57.6410   32.7980   52.3530 C   0  0  0  0  0  0  0  0  0  0  0  0
   57.2800   31.5050   51.9690 C   0  0  0  0  0  0  0  0  0  0  0  0
   55.5940   30.7770   52.4940 Br  0  0  0  0  0  0  0  0  0  0  0  0
   58.1620   30.7530   51.1900 C   0  0  0  0  0  0  0  0  0  0  0  0
   59.3580   31.2830   50.8170 N   0  0  0  0  0  0  0  0  0  0  0  0
   58.9020   33.5650   48.5080 C   0  0  0  0  0  0  0  0  0  0  0  0
   58.0850   33.3640   47.3910 C   0  0  0  0  0  0  0  0  0  0  0  0
   56.5160   28.9490   45.1770 C   0  0  0  0  0  0  0  0  0  0  0  0
   55.1500   29.0760   44.9460 O   0  0  0  0  0  0  0  0  0  0  0  0
   57.0550   27.6850   45.4420 C   0  0  0  0  0  0  0  0  0  0  0  0
   59.0484   26.0654   47.0943 H   0  0  0  0  0  0  0  0  0  0  0  0
   58.3536   25.4015   45.5767 H   0  0  0  0  0  0  0  0  0  0  0  0
   60.0088   26.0992   45.5767 H   0  0  0  0  0  0  0  0  0  0  0  0
   60.3352   28.5580   45.8467 H   0  0  0  0  0  0  0  0  0  0  0  0
   59.3822   30.8103   45.3649 H   0  0  0  0  0  0  0  0  0  0  0  0
   60.4987   32.8432   45.0289 H   0  0  0  0  0  0  0  0  0  0  0  0
   61.9601   33.1808   47.0166 H   0  0  0  0  0  0  0  0  0  0  0  0
   59.1680   34.3371   52.2630 H   0  0  0  0  0  0  0  0  0  0  0  0
   56.9550   33.4034   52.9637 H   0  0  0  0  0  0  0  0  0  0  0  0
   57.8900   29.7337   50.8785 H   0  0  0  0  0  0  0  0  0  0  0  0
   58.4463   33.7715   49.4876 H   0  0  0  0  0  0  0  0  0  0  0  0
   56.9912   33.4150   47.4960 H   0  0  0  0  0  0  0  0  0  0  0  0
   56.3964   26.8044   45.4699 H   0  0  0  0  0  0  0  0  0  0  0  0
  1  2  1  0
  2  3  2  0
  3  4  1  0
  4  5  2  0
  5  6  1  0
  6  7  1  0
  7  8  2  0
  7  9  2  0
  7 10  1  0
 10 11  2  0
 11 12  1  0
 12 13  2  0
 13 14  1  0
 14 15  2  0
 14 16  1  0
 16 17  2  3
 17 18  1  0
 18 19  2  0
 19 20  1  0
 20 21  1  0
 20 22  2  0
 22 23  1  0
 13 24  1  0
 24 25  2  0
  5 26  1  0
 26 27  1  0
 26 28  2  0
 28  2  1  0
 25 10  1  0
 23 17  1  0
  1 29  1  0
  1 30  1  0
  1 31  1  0
  3 32  1  0
  4 33  1  0
 11 34  1  0
 12 35  1  0
 18 36  1  0
 19 37  1  0
 22 38  1  0
 24 39  1  0
 25 40  1  0
 28 41  1  0
M  CHG  3   6  -1  23  -1  27  -1
M  END
>  <UniqueID>  (49) 
46

>  <SMILES>  (49) 
Cc1ccc([N-]S(=O)(=O)c2ccc(C(=O)N=c3ccc(Br)c[n-]3)cc2)c([O-])c1

>  <Energy>  (49) 
50.60331781177851

>  <Genealogy>  (49) 
Cc1ccc([N-]S(=O)(=O)c2ccc(C(=O)N=c3ccc(Br)c[n-]3)cc2)c([O-])c1 (protonated)
Cc1ccc([N-]S(=O)(=O)c2ccc(C(=O)N=c3ccc(Br)c[n-]3)cc2)c([O-])c1 (3D coordinates assigned)
Cc1ccc([N-]S(=O)(=O)c2ccc(C(=O)N=c3ccc(Br)c[n-]3)cc2)c([O-])c1 (optimized conformer: 50.60331781177851 kcal/mol)

>  <smiles>  (49) 
Cc1ccc(NS(=O)(=O)c2ccc(C(=O)N=c3ccc(Br)c[nH]3)cc2)c(O)c1

>  <score_type>  (49) 
oracle

>  <origin>  (49) 
adg

>  <m_score__min__energy>  (49) 
-16.239999999999998

>  <m_primary>  (49) 
energy

$$$$
49:0
     RDKit          3D

 51 54  0  0  0  0  0  0  0  0999 V2000
   56.1790   27.3230   45.5360 O   0  0  0  0  0  0  0  0  0  0  0  0
   56.6910   28.4710   45.6060 C   0  0  0  0  0  0  0  0  0  0  0  0
   56.0510   29.5590   44.9250 N   0  0  0  0  0  0  0  0  0  0  0  0
   56.7210   30.6070   44.2070 C   0  0  0  0  0  0  0  0  0  0  0  0
   56.6630   30.6180   42.8100 C   0  0  0  0  0  0  0  0  0  0  0  0
   57.3150   31.6190   42.0850 C   0  0  0  0  0  0  0  0  0  0  0  0
   58.0140   32.6280   42.7520 C   0  0  0  0  0  0  0  0  0  0  0  0
   58.0420   32.6590   44.1560 C   0  0  0  0  0  0  0  0  0  0  0  0
   58.7940   33.7070   44.8750 C   0  0  0  0  0  0  0  0  0  0  0  0
   59.4140   34.5780   44.2060 O   0  0  0  0  0  0  0  0  0  0  0  0
   58.8430   33.7510   46.3130 N   0  0  0  0  0  0  0  0  0  0  0  0
   59.2460   34.9390   47.0460 C   0  0  0  0  0  0  0  0  0  0  0  0
   59.5460   34.4720   48.4650 C   0  0  0  0  0  0  0  0  0  0  0  0
   58.9420   33.0750   48.5860 C   0  0  0  0  0  0  0  0  0  0  0  0
   58.7600   32.5710   47.1610 C   0  0  0  0  0  0  0  0  0  0  0  0
   57.3900   31.6480   44.8780 C   0  0  0  0  0  0  0  0  0  0  0  0
   57.9520   28.6630   46.3500 C   0  0  0  0  0  0  0  0  0  0  0  0
   58.1760   28.0250   47.5780 C   0  0  0  0  0  0  0  0  0  0  0  0
   59.3140   28.2880   48.2700 N   0  0  0  0  0  0  0  0  0  0  0  0
   60.2570   29.1430   47.7870 C   0  0  0  0  0  0  0  0  0  0  0  0
   61.4130   29.4350   48.5210 O   0  0  0  0  0  0  0  0  0  0  0  0
   61.5340   30.5810   49.3630 C   0  0  0  0  0  0  0  0  0  0  0  0
   62.3370   31.6500   48.6690 C   0  0  0  0  0  0  0  0  0  0  0  0
   61.9530   32.0990   47.3940 C   0  0  0  0  0  0  0  0  0  0  0  0
   62.6690   33.1230   46.7630 C   0  0  0  0  0  0  0  0  0  0  0  0
   63.7700   33.7070   47.4000 C   0  0  0  0  0  0  0  0  0  0  0  0
   64.1560   33.2680   48.6690 C   0  0  0  0  0  0  0  0  0  0  0  0
   63.4430   32.2440   49.3050 C   0  0  0  0  0  0  0  0  0  0  0  0
   60.0560   29.7460   46.5450 C   0  0  0  0  0  0  0  0  0  0  0  0
   58.9070   29.5010   45.8620 N   0  0  0  0  0  0  0  0  0  0  0  0
   56.1015   29.8351   42.2792 H   0  0  0  0  0  0  0  0  0  0  0  0
   57.2777   31.6124   40.9857 H   0  0  0  0  0  0  0  0  0  0  0  0
   58.5442   33.4007   42.1759 H   0  0  0  0  0  0  0  0  0  0  0  0
   60.1439   35.3829   46.5914 H   0  0  0  0  0  0  0  0  0  0  0  0
   58.4602   35.7086   47.0316 H   0  0  0  0  0  0  0  0  0  0  0  0
   60.6324   34.4343   48.6331 H   0  0  0  0  0  0  0  0  0  0  0  0
   59.1234   35.1593   49.2127 H   0  0  0  0  0  0  0  0  0  0  0  0
   59.6211   32.4119   49.1420 H   0  0  0  0  0  0  0  0  0  0  0  0
   57.9868   33.0951   49.1311 H   0  0  0  0  0  0  0  0  0  0  0  0
   59.5550   31.8561   46.9024 H   0  0  0  0  0  0  0  0  0  0  0  0
   57.8013   32.0467   47.0348 H   0  0  0  0  0  0  0  0  0  0  0  0
   57.4017   31.6690   45.9777 H   0  0  0  0  0  0  0  0  0  0  0  0
   57.4354   27.3167   47.9778 H   0  0  0  0  0  0  0  0  0  0  0  0
   60.5315   30.9708   49.5934 H   0  0  0  0  0  0  0  0  0  0  0  0
   62.0459   30.2924   50.2929 H   0  0  0  0  0  0  0  0  0  0  0  0
   61.0872   31.6444   46.8903 H   0  0  0  0  0  0  0  0  0  0  0  0
   62.3656   33.4696   45.7641 H   0  0  0  0  0  0  0  0  0  0  0  0
   64.3312   34.5113   46.9017 H   0  0  0  0  0  0  0  0  0  0  0  0
   65.0212   33.7274   49.1693 H   0  0  0  0  0  0  0  0  0  0  0  0
   63.7485   31.9028   50.3051 H   0  0  0  0  0  0  0  0  0  0  0  0
   60.8210   30.4139   46.1223 H   0  0  0  0  0  0  0  0  0  0  0  0
  1  2  2  0
  2  3  1  0
  3  4  1  0
  4  5  2  0
  5  6  1  0
  6  7  2  0
  7  8  1  0
  8  9  1  0
  9 10  2  0
  9 11  1  0
 11 12  1  0
 12 13  1  0
 13 14  1  0
 14 15  1  0
  8 16  2  0
  2 17  1  0
 17 18  2  0
 18 19  1  0
 19 20  2  0
 20 21  1  0
 21 22  1  0
 22 23  1  0
 23 24  2  0
 24 25  1  0
 25 26  2  0
 26 27  1  0
 27 28  2  0
 20 29  1  0
 29 30  2  0
 16  4  1  0
 30 17  1  0
 15 11  1  0
 28 23  1  0
  5 31  1  0
  6 32  1  0
  7 33  1  0
 12 34  1  0
 12 35  1  0
 13 36  1  0
 13 37  1  0
 14 38  1  0
 14 39  1  0
 15 40  1  0
 15 41  1  0
 16 42  1  0
 18 43  1  0
 22 44  1  0
 22 45  1  0
 24 46  1  0
 25 47  1  0
 26 48  1  0
 27 49  1  0
 28 50  1  0
 29 51  1  0
M  CHG  1   3  -1
M  END
>  <UniqueID>  (50) 
47

>  <SMILES>  (50) 
O=C([N-]c1cccc(C(=O)N2CCCC2)c1)c1cnc(OCc2ccccc2)cn1

>  <Energy>  (50) 
63.82675828880501

>  <Genealogy>  (50) 
O=C([N-]c1cccc(C(=O)N2CCCC2)c1)c1cnc(OCc2ccccc2)cn1 (protonated)
O=C([N-]c1cccc(C(=O)N2CCCC2)c1)c1cnc(OCc2ccccc2)cn1 (3D coordinates assigned)
O=C([N-]c1cccc(C(=O)N2CCCC2)c1)c1cnc(OCc2ccccc2)cn1 (nonaromatic ring conformer: 63.82675828880501 kcal/mol)

>  <smiles>  (50) 
O=C(Nc1cccc(C(=O)N2CCCC2)c1)c1cnc(OCc2ccccc2)cn1

>  <score_type>  (50) 
oracle

>  <origin>  (50) 
adg

>  <m_score__min__energy>  (50) 
-10.539999999999999

>  <m_primary>  (50) 
energy

$$$$
50:0
     RDKit          3D

 50 53  0  0  0  0  0  0  0  0999 V2000
   59.3320   35.2320   46.4280 O   0  0  0  0  0  0  0  0  0  0  0  0
   58.9150   34.0880   46.7470 C   0  0  0  0  0  0  0  0  0  0  0  0
   58.8280   33.7470   48.1360 N   0  0  0  0  0  0  0  0  0  0  0  0
   59.9390   33.8400   49.0780 C   0  0  0  0  0  0  0  0  0  0  0  0
   61.1810   33.3170   48.4300 C   0  0  0  0  0  0  0  0  0  0  0  0
   61.2820   31.9680   48.0610 C   0  0  0  0  0  0  0  0  0  0  0  0
   62.4380   31.5180   47.4210 C   0  0  0  0  0  0  0  0  0  0  0  0
   63.4740   32.4130   47.1470 C   0  0  0  0  0  0  0  0  0  0  0  0
   63.3340   33.7530   47.5140 C   0  0  0  0  0  0  0  0  0  0  0  0
   62.2000   34.1720   48.1360 N   0  0  0  0  0  0  0  0  0  0  0  0
   58.5420   33.1370   45.6840 C   0  0  0  0  0  0  0  0  0  0  0  0
   58.4390   33.5680   44.3540 C   0  0  0  0  0  0  0  0  0  0  0  0
   58.1020   32.6640   43.3430 C   0  0  0  0  0  0  0  0  0  0  0  0
   57.8790   31.3190   43.6500 C   0  0  0  0  0  0  0  0  0  0  0  0
   58.0040   30.8670   44.9740 C   0  0  0  0  0  0  0  0  0  0  0  0
   57.7990   29.4740   45.2940 N   0  0  0  0  0  0  0  0  0  0  0  0
   58.8640   28.6820   45.6390 C   0  0  0  0  0  0  0  0  0  0  0  0
   60.0290   29.1610   45.7090 O   0  0  0  0  0  0  0  0  0  0  0  0
   58.6740   27.3280   45.9230 C   0  0  0  0  0  0  0  0  0  0  0  0
   57.3800   26.7960   45.8580 C   0  0  0  0  0  0  0  0  0  0  0  0
   57.1240   25.3990   46.1150 N   0  0  0  0  0  0  0  0  0  0  0  0
   56.9100   24.4470   45.0130 C   0  0  0  0  0  0  0  0  0  0  0  0
   57.4540   23.0350   45.3420 C   0  0  0  0  0  0  0  0  0  0  0  0
   57.5630   22.7330   46.7810 N   0  0  0  0  0  0  0  0  0  0  0  0
   56.5900   23.4800   47.5830 C   0  0  0  0  0  0  0  0  0  0  0  0
   56.8920   24.9780   47.5040 C   0  0  0  0  0  0  0  0  0  0  0  0
   56.3540   27.6110   45.5030 N   0  0  0  0  0  0  0  0  0  0  0  0
   56.5440   28.9260   45.2230 C   0  0  0  0  0  0  0  0  0  0  0  0
   55.5520   29.6270   44.8800 O   0  0  0  0  0  0  0  0  0  0  0  0
   58.3460   31.7800   45.9850 C   0  0  0  0  0  0  0  0  0  0  0  0
   60.0894   34.8908   49.3663 H   0  0  0  0  0  0  0  0  0  0  0  0
   59.7126   33.2449   49.9750 H   0  0  0  0  0  0  0  0  0  0  0  0
   60.4581   31.2710   48.2739 H   0  0  0  0  0  0  0  0  0  0  0  0
   62.5326   30.4605   47.1332 H   0  0  0  0  0  0  0  0  0  0  0  0
   64.3906   32.0663   46.6474 H   0  0  0  0  0  0  0  0  0  0  0  0
   64.1409   34.4693   47.2999 H   0  0  0  0  0  0  0  0  0  0  0  0
   58.6244   34.6233   44.1049 H   0  0  0  0  0  0  0  0  0  0  0  0
   58.0121   33.0118   42.3033 H   0  0  0  0  0  0  0  0  0  0  0  0
   57.6049   30.6125   42.8527 H   0  0  0  0  0  0  0  0  0  0  0  0
   59.5275   26.6891   46.1936 H   0  0  0  0  0  0  0  0  0  0  0  0
   55.8306   24.3728   44.8143 H   0  0  0  0  0  0  0  0  0  0  0  0
   57.4555   24.8214   44.1342 H   0  0  0  0  0  0  0  0  0  0  0  0
   56.7798   22.2943   44.8872 H   0  0  0  0  0  0  0  0  0  0  0  0
   58.4770   22.9964   44.9397 H   0  0  0  0  0  0  0  0  0  0  0  0
   58.5280   22.9800   47.1080 H   0  0  0  0  0  0  0  0  0  0  0  0
   55.5773   23.2911   47.1972 H   0  0  0  0  0  0  0  0  0  0  0  0
   56.6555   23.1517   48.6308 H   0  0  0  0  0  0  0  0  0  0  0  0
   56.0377   25.5386   47.9113 H   0  0  0  0  0  0  0  0  0  0  0  0
   57.8020   25.1820   48.0873 H   0  0  0  0  0  0  0  0  0  0  0  0
   58.4612   31.4288   47.0211 H   0  0  0  0  0  0  0  0  0  0  0  0
  1  2  2  0
  2  3  1  0
  3  4  1  0
  4  5  1  0
  5  6  2  0
  6  7  1  0
  7  8  2  0
  8  9  1  0
  9 10  2  0
  2 11  1  0
 11 12  2  0
 12 13  1  0
 13 14  2  0
 14 15  1  0
 15 16  1  0
 16 17  1  0
 17 18  2  0
 17 19  1  0
 19 20  2  0
 20 21  1  0
 21 22  1  0
 22 23  1  0
 23 24  1  0
 24 25  1  0
 25 26  1  0
 20 27  1  0
 27 28  1  0
 28 29  2  0
 15 30  2  0
 10  5  1  0
 30 11  1  0
 28 16  1  0
 26 21  1  0
  4 31  1  0
  4 32  1  0
  6 33  1  0
  7 34  1  0
  8 35  1  0
  9 36  1  0
 12 37  1  0
 13 38  1  0
 14 39  1  0
 19 40  1  0
 22 41  1  0
 22 42  1  0
 23 43  1  0
 23 44  1  0
 24 45  1  0
 25 46  1  0
 25 47  1  0
 26 48  1  0
 26 49  1  0
 30 50  1  0
M  CHG  2   3  -1  27  -1
M  END
>  <UniqueID>  (51) 
48

>  <SMILES>  (51) 
O=C([N-]Cc1ccccn1)c1cccc(-n2c(=O)cc(N3CCNCC3)[n-]c2=O)c1

>  <Energy>  (51) 
74.95556717604843

>  <Genealogy>  (51) 
O=C([N-]Cc1ccccn1)c1cccc(-n2c(=O)cc(N3CCNCC3)[n-]c2=O)c1 (protonated)
O=C([N-]Cc1ccccn1)c1cccc(-n2c(=O)cc(N3CCNCC3)[n-]c2=O)c1 (3D coordinates assigned)
O=C([N-]Cc1ccccn1)c1cccc(-n2c(=O)cc(N3CCNCC3)[n-]c2=O)c1 (nonaromatic ring conformer: 74.95556717604843 kcal/mol)

>  <smiles>  (51) 
O=C(NCc1ccccn1)c1cccc(-n2c(=O)cc(N3CCNCC3)[nH]c2=O)c1

>  <score_type>  (51) 
oracle

>  <origin>  (51) 
adg

>  <m_score__min__energy>  (51) 
-11.640000000000001

>  <m_primary>  (51) 
energy

$$$$
51:0
     RDKit          3D

 39 41  0  0  0  0  0  0  0  0999 V2000
   54.4570   29.7270   45.5160 H   0  0  0  0  0  0  0  0  0  0  0  0
   55.1700   29.4040   44.8240 N   0  0  0  0  0  0  0  0  0  0  0  0
   55.9880   30.2310   44.2600 C   0  0  0  0  0  0  0  0  0  0  0  0
   56.6800   31.1200   45.0180 N   0  0  0  0  0  0  0  0  0  0  0  0
   57.5410   32.0090   44.4530 C   0  0  0  0  0  0  0  0  0  0  0  0
   58.2820   32.9500   45.3150 C   0  0  0  0  0  0  0  0  0  0  0  0
   58.5730   34.2270   44.8100 C   0  0  0  0  0  0  0  0  0  0  0  0
   58.2435   34.5014   43.7970 H   0  0  0  0  0  0  0  0  0  0  0  0
   59.2770   35.1510   45.5830 C   0  0  0  0  0  0  0  0  0  0  0  0
   59.4924   36.1520   45.1811 H   0  0  0  0  0  0  0  0  0  0  0  0
   59.7080   34.8080   46.8640 C   0  0  0  0  0  0  0  0  0  0  0  0
   60.2571   35.5411   47.4731 H   0  0  0  0  0  0  0  0  0  0  0  0
   59.4440   33.5360   47.3750 C   0  0  0  0  0  0  0  0  0  0  0  0
   59.7948   33.2699   48.3830 H   0  0  0  0  0  0  0  0  0  0  0  0
   58.7330   32.5910   46.6120 C   0  0  0  0  0  0  0  0  0  0  0  0
   58.5230   31.2050   47.1730 C   0  0  0  0  0  0  0  0  0  0  0  0
   58.6148   31.2358   48.2687 H   0  0  0  0  0  0  0  0  0  0  0  0
   57.5199   30.8475   46.8975 H   0  0  0  0  0  0  0  0  0  0  0  0
   59.5270   30.2990   46.6270 N   0  0  0  0  0  0  0  0  0  0  0  0
   59.2250   29.0640   45.9710 C   0  0  0  0  0  0  0  0  0  0  0  0
   60.1720   28.3980   45.4730 O   0  0  0  0  0  0  0  0  0  0  0  0
   57.8700   28.6020   45.8440 N   0  0  0  0  0  0  0  0  0  0  0  0
   57.0960   29.2960   45.9520 H   0  0  0  0  0  0  0  0  0  0  0  0
   57.5120   27.2670   45.4470 C   0  0  0  0  0  0  0  0  0  0  0  0
   58.0170   26.6920   44.2660 C   0  0  0  0  0  0  0  0  0  0  0  0
   58.6856   27.2748   43.6154 H   0  0  0  0  0  0  0  0  0  0  0  0
   57.6720   25.3820   43.9160 C   0  0  0  0  0  0  0  0  0  0  0  0
   58.0628   24.9409   42.9872 H   0  0  0  0  0  0  0  0  0  0  0  0
   56.8320   24.6330   44.7440 C   0  0  0  0  0  0  0  0  0  0  0  0
   56.5566   23.6056   44.4635 H   0  0  0  0  0  0  0  0  0  0  0  0
   56.3420   25.1890   45.9280 C   0  0  0  0  0  0  0  0  0  0  0  0
   55.5360   24.4580   46.7370 F   0  0  0  0  0  0  0  0  0  0  0  0
   56.6860   26.4980   46.2830 C   0  0  0  0  0  0  0  0  0  0  0  0
   56.3073   26.9273   47.2223 H   0  0  0  0  0  0  0  0  0  0  0  0
   57.7380   31.9910   43.0680 C   0  0  0  0  0  0  0  0  0  0  0  0
   58.4458   32.6855   42.5919 H   0  0  0  0  0  0  0  0  0  0  0  0
   57.0180   31.0740   42.3050 C   0  0  0  0  0  0  0  0  0  0  0  0
   57.1465   31.0462   41.2129 H   0  0  0  0  0  0  0  0  0  0  0  0
   56.1570   30.2140   42.9100 N   0  0  0  0  0  0  0  0  0  0  0  0
  1  2  1  0
  2  3  2  0
  3  4  1  0
  4  5  2  0
  5  6  1  0
  6  7  2  0
  7  8  1  0
  7  9  1  0
  9 10  1  0
  9 11  2  0
 11 12  1  0
 11 13  1  0
 13 14  1  0
 13 15  2  0
 15 16  1  0
 16 17  1  0
 16 18  1  0
 16 19  1  0
 19 20  1  0
 20 21  2  0
 20 22  1  0
 22 23  1  0
 22 24  1  0
 24 25  2  0
 25 26  1  0
 25 27  1  0
 27 28  1  0
 27 29  2  0
 29 30  1  0
 29 31  1  0
 31 32  1  0
 31 33  2  0
 33 34  1  0
  5 35  1  0
 35 36  1  0
 35 37  2  0
 37 38  1  0
 37 39  1  0
 39  3  1  0
 15  6  1  0
 33 24  1  0
M  CHG  2  19  -1  39  -1
M  END
>  <UniqueID>  (52) 
49

>  <SMILES>  (52) 
[H]/N=c1/nc(-c2ccccc2C[N-]C(=O)Nc2cccc(F)c2)cc[n-]1

>  <Energy>  (52) 
51.54312201417566

>  <Genealogy>  (52) 
N=c1nc(-c2ccccc2C[N-]C(=O)Nc2cccc(F)c2)cc[n-]1 (protonated)
[H]/N=c1/nc(-c2ccccc2C[N-]C(=O)Nc2cccc(F)c2)cc[n-]1 (cis-trans isomerization)
[H]/N=c1/nc(-c2ccccc2C[N-]C(=O)Nc2cccc(F)c2)cc[n-]1 (3D coordinates assigned)
[H]/N=c1/nc(-c2ccccc2C[N-]C(=O)Nc2cccc(F)c2)cc[n-]1 (optimized conformer: 51.54312201417566 kcal/mol)

>  <smiles>  (52) 
N=c1nc(-c2ccccc2CNC(=O)Nc2cccc(F)c2)cc[nH]1

>  <score_type>  (52) 
oracle

>  <origin>  (52) 
adg

>  <m_score__min__energy>  (52) 
-11.26

>  <m_primary>  (52) 
energy

$$$$
52:0
     RDKit          3D

 57 60  0  0  1  0  0  0  0  0999 V2000
   57.7610   30.9040   50.4650 O   0  0  0  0  0  0  0  0  0  0  0  0
   59.2590   30.9550   50.3610 S   0  0  0  0  0  0  0  0  0  0  0  0
   59.7160   31.3900   51.7240 O   0  0  0  0  0  0  0  0  0  0  0  0
   59.8340   29.3610   49.9670 C   0  0  0  0  0  0  0  0  0  0  0  0
   59.4230   28.7400   48.7870 C   0  0  0  0  0  0  0  0  0  0  0  0
   59.8720   27.4720   48.4390 C   0  0  0  0  0  0  0  0  0  0  0  0
   59.4440   26.8560   47.2400 O   0  0  0  0  0  0  0  0  0  0  0  0
   58.7620   27.5830   46.2850 C   0  0  0  0  0  0  0  0  0  0  0  0
   59.5960   28.6000   45.7310 C   0  0  0  0  0  0  0  0  0  0  0  0
   59.1290   29.4610   44.7770 C   0  0  0  0  0  0  0  0  0  0  0  0
   57.8290   29.2960   44.3820 C   0  0  0  0  0  0  0  0  0  0  0  0
   57.0340   28.3230   44.9070 C   0  0  0  0  0  0  0  0  0  0  0  0
   57.4770   27.4170   45.8840 C   0  0  0  0  0  0  0  0  0  0  0  0
   56.5240   26.4240   46.2860 C   0  0  0  0  0  0  0  0  0  0  0  0
   55.1380   26.6830   46.0010 O   0  0  0  0  0  0  0  0  0  0  0  0
   56.6700   25.3240   46.8680 N   0  0  0  0  0  0  0  0  0  0  0  0
   55.7430   24.4580   47.2030 O   0  0  0  0  0  0  0  0  0  0  0  0
   60.7540   26.7750   49.2620 C   0  0  0  0  0  0  0  0  0  0  0  0
   61.1610   27.3770   50.4180 C   0  0  0  0  0  0  0  0  0  0  0  0
   60.7050   28.6380   50.7500 C   0  0  0  0  0  0  0  0  0  0  0  0
   61.1650   29.1760   51.9400 O   0  0  0  0  0  0  0  0  0  0  0  0
   59.6420   32.1010   49.1450 N   0  0  0  0  0  0  0  0  0  0  0  0
   58.5800   33.0070   48.6710 C   0  0  0  0  0  0  0  0  0  0  0  0
   58.6160   33.2420   47.2290 C   0  0  0  0  0  0  0  0  0  0  0  0
   59.2400   34.4140   46.7870 C   0  0  0  0  0  0  0  0  0  0  0  0
   59.3310   34.7220   45.4420 C   0  0  0  0  0  0  0  0  0  0  0  0
   58.8090   33.8840   44.4770 C   0  0  0  0  0  0  0  0  0  0  0  0
   58.1920   32.7260   44.9130 C   0  0  0  0  0  0  0  0  0  0  0  0
   58.1050   32.4250   46.2600 C   0  0  0  0  0  0  0  0  0  0  0  0
   60.9040   32.2580   48.5680 C   0  0  0  0  0  0  0  0  0  0  0  0
   61.5270   31.3900   47.7090 C   0  0  0  0  0  0  0  0  0  0  0  0
   62.7780   31.6100   47.1640 C   0  0  0  0  0  0  0  0  0  0  0  0
   63.4660   32.7650   47.4840 C   0  0  0  0  0  0  0  0  0  0  0  0
   62.8530   33.6480   48.3450 C   0  0  0  0  0  0  0  0  0  0  0  0
   61.6130   33.4220   48.8810 C   0  0  0  0  0  0  0  0  0  0  0  0
   58.7275   29.2664   48.1168 H   0  0  0  0  0  0  0  0  0  0  0  0
   60.6355   28.6931   46.0785 H   0  0  0  0  0  0  0  0  0  0  0  0
   59.7669   30.2478   44.3480 H   0  0  0  0  0  0  0  0  0  0  0  0
   57.4140   29.9695   43.6176 H   0  0  0  0  0  0  0  0  0  0  0  0
   55.9969   28.2431   44.5492 H   0  0  0  0  0  0  0  0  0  0  0  0
   54.4460   26.0200   46.3740 H   0  0  0  0  0  0  0  0  0  0  0  0
   54.7400   24.4920   47.1590 H   0  0  0  0  0  0  0  0  0  0  0  0
   61.1113   25.7711   48.9890 H   0  0  0  0  0  0  0  0  0  0  0  0
   61.8573   26.8539   51.0900 H   0  0  0  0  0  0  0  0  0  0  0  0
   60.6980   30.0000   52.2840 H   0  0  0  0  0  0  0  0  0  0  0  0
   57.6056   32.5660   48.9278 H   0  0  0  0  0  0  0  0  0  0  0  0
   58.7401   33.9784   49.1616 H   0  0  0  0  0  0  0  0  0  0  0  0
   59.6681   35.1064   47.5268 H   0  0  0  0  0  0  0  0  0  0  0  0
   59.8293   35.6533   45.1348 H   0  0  0  0  0  0  0  0  0  0  0  0
   58.8809   34.1273   43.4066 H   0  0  0  0  0  0  0  0  0  0  0  0
   57.7628   32.0319   44.1755 H   0  0  0  0  0  0  0  0  0  0  0  0
   57.6057   31.4928   46.5628 H   0  0  0  0  0  0  0  0  0  0  0  0
   61.0000   30.4635   47.4374 H   0  0  0  0  0  0  0  0  0  0  0  0
   63.2226   30.8714   46.4808 H   0  0  0  0  0  0  0  0  0  0  0  0
   64.4632   32.9708   47.0678 H   0  0  0  0  0  0  0  0  0  0  0  0
   63.3819   34.5743   48.6137 H   0  0  0  0  0  0  0  0  0  0  0  0
   61.1709   34.1626   49.5637 H   0  0  0  0  0  0  0  0  0  0  0  0
  1  2  2  0
  2  3  2  0
  2  4  1  0
  4  5  2  0
  5  6  1  0
  6  7  1  0
  7  8  1  0
  8  9  2  0
  9 10  1  0
 10 11  2  0
 11 12  1  0
 12 13  2  0
 13 14  1  0
 14 15  1  0
 14 16  2  0
 16 17  1  0
  6 18  2  0
 18 19  1  0
 19 20  2  0
 20 21  1  0
  2 22  1  0
 22 23  1  0
 23 24  1  0
 24 25  2  0
 25 26  1  0
 26 27  2  0
 27 28  1  0
 28 29  2  0
 22 30  1  0
 30 31  2  0
 31 32  1  0
 32 33  2  0
 33 34  1  0
 34 35  2  0
 20  4  1  0
 29 24  1  0
 35 30  1  0
 13  8  1  0
  5 36  1  0
  9 37  1  0
 10 38  1  0
 11 39  1  0
 12 40  1  0
 15 41  1  0
 17 42  1  0
 18 43  1  0
 19 44  1  0
 21 45  1  0
 23 46  1  0
 23 47  1  0
 25 48  1  0
 26 49  1  0
 27 50  1  0
 28 51  1  0
 29 52  1  0
 31 53  1  0
 32 54  1  0
 33 55  1  0
 34 56  1  0
 35 57  1  0
M  END
>  <smiles>  (53) 
O=S(=O)(c1cc(Oc2ccccc2C(O)=NO)ccc1O)N(Cc1ccccc1)c1ccccc1

>  <score_type>  (53) 
oracle

>  <origin>  (53) 
adg

>  <m_score__min__energy>  (53) 
-11.41

>  <m_primary>  (53) 
energy

$$$$
53:0
     RDKit          3D

 14 14  0  0  0  0  0  0  0  0999 V2000
   59.7660   27.7420   45.7150 C   0  0  0  0  0  0  0  0  0  0  0  0
   58.3200   27.8210   45.5390 N   0  0  0  0  0  0  0  0  0  0  0  0
   57.6220   28.8730   45.0530 C   0  0  0  0  0  0  0  0  0  0  0  0
   56.2760   28.5680   45.1490 C   0  0  0  0  0  0  0  0  0  0  0  0
   55.2130   29.3770   44.7620 O   0  0  0  0  0  0  0  0  0  0  0  0
   56.1420   27.3480   45.6950 N   0  0  0  0  0  0  0  0  0  0  0  0
   54.9690   26.6920   45.9860 O   0  0  0  0  0  0  0  0  0  0  0  0
   57.3940   26.9220   45.9340 C   0  0  0  0  0  0  0  0  0  0  0  0
   57.6670   25.8170   46.4740 O   0  0  0  0  0  0  0  0  0  0  0  0
   60.0045   27.7290   46.7888 H   0  0  0  0  0  0  0  0  0  0  0  0
   60.1429   26.8219   45.2445 H   0  0  0  0  0  0  0  0  0  0  0  0
   60.2409   28.6155   45.2445 H   0  0  0  0  0  0  0  0  0  0  0  0
   58.0485   29.8047   44.6529 H   0  0  0  0  0  0  0  0  0  0  0  0
   54.3220   28.9730   44.5010 H   0  0  0  0  0  0  0  0  0  0  0  0
  1  2  1  0
  2  3  1  0
  3  4  2  0
  4  5  1  0
  4  6  1  0
  6  7  1  0
  6  8  1  0
  8  9  2  0
  8  2  1  0
  1 10  1  0
  1 11  1  0
  1 12  1  0
  3 13  1  0
  5 14  1  0
M  CHG  1   7  -1
M  END
>  <UniqueID>  (54) 
50

>  <SMILES>  (54) 
Cn1cc(O)n([O-])c1=O

>  <Energy>  (54) 
46.38191636823805

>  <Genealogy>  (54) 
Cn1cc(O)n([O-])c1=O (protonated)
Cn1cc(O)n([O-])c1=O (3D coordinates assigned)
Cn1cc(O)n([O-])c1=O (optimized conformer: 46.38191636823805 kcal/mol)

>  <smiles>  (54) 
Cn1cc(O)n(O)c1=O

>  <score_type>  (54) 
oracle

>  <origin>  (54) 
adg

>  <m_score__min__energy>  (54) 
-9.0800000000000001

>  <m_primary>  (54) 
energy

$$$$
54:0
     RDKit          3D

 49 51  0  0  0  0  0  0  0  0999 V2000
   58.0390   30.4070   47.4710 H   0  0  0  0  0  0  0  0  0  0  0  0
   58.2460   31.3540   47.1750 O   0  0  0  0  0  0  0  0  0  0  0  0
   58.1000   31.7700   45.8510 C   0  0  0  0  0  0  0  0  0  0  0  0
   58.6730   32.9800   45.4520 C   0  0  0  0  0  0  0  0  0  0  0  0
   59.2376   33.5850   46.1767 H   0  0  0  0  0  0  0  0  0  0  0  0
   58.5310   33.4230   44.1370 C   0  0  0  0  0  0  0  0  0  0  0  0
   58.9810   34.3751   43.8190 H   0  0  0  0  0  0  0  0  0  0  0  0
   57.8120   32.6450   43.2300 C   0  0  0  0  0  0  0  0  0  0  0  0
   57.6922   32.9830   42.1901 H   0  0  0  0  0  0  0  0  0  0  0  0
   57.2590   31.4690   43.6300 N   0  0  0  0  0  0  0  0  0  0  0  0
   57.3830   31.0080   44.9070 C   0  0  0  0  0  0  0  0  0  0  0  0
   56.8380   29.8820   45.2700 N   0  0  0  0  0  0  0  0  0  0  0  0
   57.5070   28.6400   45.5440 C   0  0  0  0  0  0  0  0  0  0  0  0
   58.1460   28.4620   46.6160 O   0  0  0  0  0  0  0  0  0  0  0  0
   57.4530   27.5470   44.5230 C   0  0  0  0  0  0  0  0  0  0  0  0
   58.3638   27.5771   43.9069 H   0  0  0  0  0  0  0  0  0  0  0  0
   56.5692   27.6895   43.8838 H   0  0  0  0  0  0  0  0  0  0  0  0
   57.3590   26.2100   45.2130 C   0  0  0  0  0  0  0  0  0  0  0  0
   58.4600   25.3410   45.1900 C   0  0  0  0  0  0  0  0  0  0  0  0
   59.3529   25.6091   44.6062 H   0  0  0  0  0  0  0  0  0  0  0  0
   58.4340   24.1300   45.9060 C   0  0  0  0  0  0  0  0  0  0  0  0
   59.5230   23.2430   45.9060 O   0  0  0  0  0  0  0  0  0  0  0  0
   59.7280   22.2150   44.9440 C   0  0  0  0  0  0  0  0  0  0  0  0
   59.9180   21.2624   45.4602 H   0  0  0  0  0  0  0  0  0  0  0  0
   58.8315   22.1183   44.3140 H   0  0  0  0  0  0  0  0  0  0  0  0
   60.5931   22.4696   44.3140 H   0  0  0  0  0  0  0  0  0  0  0  0
   57.3000   23.7910   46.6580 C   0  0  0  0  0  0  0  0  0  0  0  0
   57.3330   22.5990   47.4010 O   0  0  0  0  0  0  0  0  0  0  0  0
   56.2000   21.8900   47.9000 C   0  0  0  0  0  0  0  0  0  0  0  0
   56.5488   21.0992   48.5804 H   0  0  0  0  0  0  0  0  0  0  0  0
   55.5537   22.6114   48.4214 H   0  0  0  0  0  0  0  0  0  0  0  0
   55.3750   21.2460   46.7750 C   0  0  0  0  0  0  0  0  0  0  0  0
   54.7385   20.4629   47.2127 H   0  0  0  0  0  0  0  0  0  0  0  0
   54.7831   22.0454   46.3053 H   0  0  0  0  0  0  0  0  0  0  0  0
   56.2410   20.6130   45.6750 C   0  0  0  0  0  0  0  0  0  0  0  0
   57.2846   20.5742   46.0205 H   0  0  0  0  0  0  0  0  0  0  0  0
   55.8558   19.6027   45.4730 H   0  0  0  0  0  0  0  0  0  0  0  0
   56.1810   21.3820   44.4320 N   0  0  0  0  0  0  0  0  0  0  0  0
   56.6760   21.0250   43.2310 C   0  0  0  0  0  0  0  0  0  0  0  0
   57.1697   20.0619   43.0345 H   0  0  0  0  0  0  0  0  0  0  0  0
   56.4980   21.9820   42.2960 N   0  0  0  0  0  0  0  0  0  0  0  0
   55.8710   22.9790   42.9530 C   0  0  0  0  0  0  0  0  0  0  0  0
   55.5591   23.9347   42.5066 H   0  0  0  0  0  0  0  0  0  0  0  0
   55.6810   22.6180   44.2670 C   0  0  0  0  0  0  0  0  0  0  0  0
   55.2041   23.2326   45.0447 H   0  0  0  0  0  0  0  0  0  0  0  0
   56.1860   24.6510   46.6590 C   0  0  0  0  0  0  0  0  0  0  0  0
   55.2808   24.3702   47.2174 H   0  0  0  0  0  0  0  0  0  0  0  0
   56.2200   25.8580   45.9570 C   0  0  0  0  0  0  0  0  0  0  0  0
   55.1190   26.7070   46.0120 O   0  0  0  0  0  0  0  0  0  0  0  0
  1  2  1  0
  2  3  1  0
  3  4  2  0
  4  5  1  0
  4  6  1  0
  6  7  1  0
  6  8  2  0
  8  9  1  0
  8 10  1  0
 10 11  1  0
 11 12  2  0
 12 13  1  0
 13 14  2  0
 13 15  1  0
 15 16  1  0
 15 17  1  0
 15 18  1  0
 18 19  2  0
 19 20  1  0
 19 21  1  0
 21 22  1  0
 22 23  1  0
 23 24  1  0
 23 25  1  0
 23 26  1  0
 21 27  2  0
 27 28  1  0
 28 29  1  0
 29 30  1  0
 29 31  1  0
 29 32  1  0
 32 33  1  0
 32 34  1  0
 32 35  1  0
 35 36  1  0
 35 37  1  0
 35 38  1  0
 38 39  1  0
 39 40  1  0
 39 41  2  0
 41 42  1  0
 42 43  1  0
 42 44  2  0
 44 45  1  0
 27 46  1  0
 46 47  1  0
 46 48  2  0
 48 49  1  0
 11  3  1  0
 48 18  1  0
 44 38  1  0
M  CHG  2  10  -1  49  -1
M  END
>  <UniqueID>  (55) 
51

>  <SMILES>  (55) 
COc1cc(CC(=O)/N=c2\[n-]cccc2O)c([O-])cc1OCCCn1ccnc1

>  <Energy>  (55) 
74.26188377024593

>  <Genealogy>  (55) 
COc1cc(CC(=O)N=c2[n-]cccc2O)c([O-])cc1OCCCn1ccnc1 (protonated)
COc1cc(CC(=O)/N=c2\[n-]cccc2O)c([O-])cc1OCCCn1ccnc1 (cis-trans isomerization)
COc1cc(CC(=O)/N=c2\[n-]cccc2O)c([O-])cc1OCCCn1ccnc1 (3D coordinates assigned)
COc1cc(CC(=O)/N=c2\[n-]cccc2O)c([O-])cc1OCCCn1ccnc1 (optimized conformer: 74.26188377024593 kcal/mol)

>  <smiles>  (55) 
COc1cc(CC(=O)N=c2[nH]cccc2O)c(O)cc1OCCCn1ccnc1

>  <score_type>  (55) 
oracle

>  <origin>  (55) 
adg

>  <m_score__min__energy>  (55) 
-12.039999999999999

>  <m_primary>  (55) 
energy

$$$$
55:0
     RDKit          3D

 54 57  0  0  0  0  0  0  0  0999 V2000
   57.7800   29.6530   50.6640 O   0  0  0  0  0  0  0  0  0  0  0  0
   58.6230   30.4900   50.2450 C   0  0  0  0  0  0  0  0  0  0  0  0
   58.5850   31.8930   50.7670 C   0  0  0  0  0  0  0  0  0  0  0  0
   59.5300   32.7430   49.9810 C   0  0  0  0  0  0  0  0  0  0  0  0
   59.0730   33.4870   48.9400 N   0  0  0  0  0  0  0  0  0  0  0  0
   59.9240   34.2300   48.1880 C   0  0  0  0  0  0  0  0  0  0  0  0
   59.4750   34.9210   47.2330 O   0  0  0  0  0  0  0  0  0  0  0  0
   61.2900   34.2280   48.4730 C   0  0  0  0  0  0  0  0  0  0  0  0
   61.7600   33.4410   49.5440 C   0  0  0  0  0  0  0  0  0  0  0  0
   63.1630   33.3900   49.9060 N   0  0  0  0  0  0  0  0  0  0  0  0
   64.1430   32.6720   49.0670 C   0  0  0  0  0  0  0  0  0  0  0  0
   65.4300   32.3530   49.8390 C   0  0  0  0  0  0  0  0  0  0  0  0
   65.8910   33.4800   50.5550 O   0  0  0  0  0  0  0  0  0  0  0  0
   64.9440   33.8320   51.5420 C   0  0  0  0  0  0  0  0  0  0  0  0
   63.6750   34.3530   50.8890 C   0  0  0  0  0  0  0  0  0  0  0  0
   60.8580   32.7190   50.2630 N   0  0  0  0  0  0  0  0  0  0  0  0
   59.6290   30.0940   49.2980 N   0  0  0  0  0  0  0  0  0  0  0  0
   59.4790   28.9570   48.4380 C   0  0  0  0  0  0  0  0  0  0  0  0
   60.3400   27.8530   48.5420 C   0  0  0  0  0  0  0  0  0  0  0  0
   60.1710   26.7460   47.7080 C   0  0  0  0  0  0  0  0  0  0  0  0
   59.1500   26.7350   46.7610 C   0  0  0  0  0  0  0  0  0  0  0  0
   58.2780   27.8260   46.6510 C   0  0  0  0  0  0  0  0  0  0  0  0
   57.0230   27.8380   45.4150 S   0  0  0  0  0  0  0  0  0  0  0  0
   55.9370   26.8640   45.7640 O   0  0  0  0  0  0  0  0  0  0  0  0
   57.6250   27.4250   44.1040 O   0  0  0  0  0  0  0  0  0  0  0  0
   56.3170   29.4110   45.2500 N   0  0  0  0  0  0  0  0  0  0  0  0
   56.9770   30.5010   44.6000 C   0  0  0  0  0  0  0  0  0  0  0  0
   57.6890   31.4690   45.3310 C   0  0  0  0  0  0  0  0  0  0  0  0
   58.2850   32.5490   44.6620 C   0  0  0  0  0  0  0  0  0  0  0  0
   58.1520   32.6820   43.2770 C   0  0  0  0  0  0  0  0  0  0  0  0
   57.4520   31.7180   42.5490 C   0  0  0  0  0  0  0  0  0  0  0  0
   57.2980   31.8640   41.2050 F   0  0  0  0  0  0  0  0  0  0  0  0
   56.8840   30.6190   43.2050 C   0  0  0  0  0  0  0  0  0  0  0  0
   58.4350   28.9270   47.5030 C   0  0  0  0  0  0  0  0  0  0  0  0
   57.5648   32.2928   50.6699 H   0  0  0  0  0  0  0  0  0  0  0  0
   58.8817   31.8982   51.8262 H   0  0  0  0  0  0  0  0  0  0  0  0
   61.9879   34.8300   47.8725 H   0  0  0  0  0  0  0  0  0  0  0  0
   63.6927   31.7299   48.7210 H   0  0  0  0  0  0  0  0  0  0  0  0
   64.4058   33.3203   48.2181 H   0  0  0  0  0  0  0  0  0  0  0  0
   65.2298   31.5356   50.5474 H   0  0  0  0  0  0  0  0  0  0  0  0
   66.2053   32.0598   49.1159 H   0  0  0  0  0  0  0  0  0  0  0  0
   64.7036   32.9457   52.1475 H   0  0  0  0  0  0  0  0  0  0  0  0
   65.3681   34.6199   52.1818 H   0  0  0  0  0  0  0  0  0  0  0  0
   62.9119   34.5180   51.6639 H   0  0  0  0  0  0  0  0  0  0  0  0
   63.9053   35.2965   50.3724 H   0  0  0  0  0  0  0  0  0  0  0  0
   60.5160   30.6410   49.2480 H   0  0  0  0  0  0  0  0  0  0  0  0
   61.1518   27.8601   49.2842 H   0  0  0  0  0  0  0  0  0  0  0  0
   60.8451   25.8816   47.7991 H   0  0  0  0  0  0  0  0  0  0  0  0
   59.0278   25.8666   46.0970 H   0  0  0  0  0  0  0  0  0  0  0  0
   57.7784   31.3797   46.4237 H   0  0  0  0  0  0  0  0  0  0  0  0
   58.8599   33.2948   45.2306 H   0  0  0  0  0  0  0  0  0  0  0  0
   58.5983   33.5451   42.7613 H   0  0  0  0  0  0  0  0  0  0  0  0
   56.3623   29.8444   42.6238 H   0  0  0  0  0  0  0  0  0  0  0  0
   57.7349   29.7729   47.4379 H   0  0  0  0  0  0  0  0  0  0  0  0
  1  2  2  0
  2  3  1  0
  3  4  1  0
  4  5  2  0
  5  6  1  0
  6  7  2  0
  6  8  1  0
  8  9  2  0
  9 10  1  0
 10 11  1  0
 11 12  1  0
 12 13  1  0
 13 14  1  0
 14 15  1  0
  9 16  1  0
  2 17  1  0
 17 18  1  0
 18 19  2  0
 19 20  1  0
 20 21  2  0
 21 22  1  0
 22 23  1  0
 23 24  2  0
 23 25  2  0
 23 26  1  0
 26 27  1  0
 27 28  2  0
 28 29  1  0
 29 30  2  0
 30 31  1  0
 31 32  1  0
 31 33  2  0
 22 34  2  0
 16  4  1  0
 34 18  1  0
 15 10  1  0
 33 27  1  0
  3 35  1  0
  3 36  1  0
  8 37  1  0
 11 38  1  0
 11 39  1  0
 12 40  1  0
 12 41  1  0
 14 42  1  0
 14 43  1  0
 15 44  1  0
 15 45  1  0
 17 46  1  0
 19 47  1  0
 20 48  1  0
 21 49  1  0
 28 50  1  0
 29 51  1  0
 30 52  1  0
 33 53  1  0
 34 54  1  0
M  CHG  2  16  -1  26  -1
M  END
>  <UniqueID>  (56) 
52

>  <SMILES>  (56) 
O=C(Cc1nc(=O)cc(N2CCOCC2)[n-]1)Nc1cccc(S(=O)(=O)[N-]c2cccc(F)c2)c1

>  <Energy>  (56) 
70.34796626011776

>  <Genealogy>  (56) 
O=C(Cc1nc(=O)cc(N2CCOCC2)[n-]1)Nc1cccc(S(=O)(=O)[N-]c2cccc(F)c2)c1 (protonated)
O=C(Cc1nc(=O)cc(N2CCOCC2)[n-]1)Nc1cccc(S(=O)(=O)[N-]c2cccc(F)c2)c1 (3D coordinates assigned)
O=C(Cc1nc(=O)cc(N2CCOCC2)[n-]1)Nc1cccc(S(=O)(=O)[N-]c2cccc(F)c2)c1 (nonaromatic ring conformer: 70.34796626011776 kcal/mol)

>  <smiles>  (56) 
O=C(Cc1nc(=O)cc(N2CCOCC2)[nH]1)Nc1cccc(S(=O)(=O)Nc2cccc(F)c2)c1

>  <score_type>  (56) 
oracle

>  <origin>  (56) 
adg

>  <m_score__min__energy>  (56) 
-11.83

>  <m_primary>  (56) 
energy

$$$$
56:0
     RDKit          3D

 69 73  0  0  0  0  0  0  0  0999 V2000
   55.5160   25.3660   47.4580 H   0  0  0  0  0  0  0  0  0  0  0  0
   55.9580   24.4690   47.2870 O   0  0  0  0  0  0  0  0  0  0  0  0
   56.1780   23.9990   45.9910 C   0  0  0  0  0  0  0  0  0  0  0  0
   55.6870   22.7420   45.6060 C   0  0  0  0  0  0  0  0  0  0  0  0
   55.1358   22.1235   46.3296 H   0  0  0  0  0  0  0  0  0  0  0  0
   55.8960   22.2740   44.3070 C   0  0  0  0  0  0  0  0  0  0  0  0
   55.5109   21.2871   44.0108 H   0  0  0  0  0  0  0  0  0  0  0  0
   56.5920   23.0550   43.3840 C   0  0  0  0  0  0  0  0  0  0  0  0
   56.7547   22.6823   42.3619 H   0  0  0  0  0  0  0  0  0  0  0  0
   57.0830   24.3100   43.7550 C   0  0  0  0  0  0  0  0  0  0  0  0
   57.6242   24.9253   43.0212 H   0  0  0  0  0  0  0  0  0  0  0  0
   56.8880   24.7890   45.0620 C   0  0  0  0  0  0  0  0  0  0  0  0
   57.3890   26.1620   45.4410 C   0  0  0  0  0  0  0  0  0  0  0  0
   58.0378   26.5454   44.6397 H   0  0  0  0  0  0  0  0  0  0  0  0
   57.9546   26.0893   46.3817 H   0  0  0  0  0  0  0  0  0  0  0  0
   56.2380   27.1000   45.6360 C   0  0  0  0  0  0  0  0  0  0  0  0
   55.1430   26.6530   46.0850 O   0  0  0  0  0  0  0  0  0  0  0  0
   56.4050   28.4940   45.3250 N   0  0  0  0  0  0  0  0  0  0  0  0
   57.4260   29.2240   45.6620 C   0  0  0  0  0  0  0  0  0  0  0  0
   57.4660   30.5700   45.5560 N   0  0  0  0  0  0  0  0  0  0  0  0
   58.6440   31.0760   46.0090 C   0  0  0  0  0  0  0  0  0  0  0  0
   58.9130   32.5310   46.0390 C   0  0  0  0  0  0  0  0  0  0  0  0
   58.7240   33.2820   44.8640 C   0  0  0  0  0  0  0  0  0  0  0  0
   58.4145   32.7762   43.9375 H   0  0  0  0  0  0  0  0  0  0  0  0
   58.9260   34.6640   44.8640 C   0  0  0  0  0  0  0  0  0  0  0  0
   58.7771   35.2408   43.9393 H   0  0  0  0  0  0  0  0  0  0  0  0
   59.3170   35.3150   46.0370 C   0  0  0  0  0  0  0  0  0  0  0  0
   59.4738   36.4038   46.0342 H   0  0  0  0  0  0  0  0  0  0  0  0
   59.5090   34.5870   47.2120 C   0  0  0  0  0  0  0  0  0  0  0  0
   59.8110   35.1079   48.1326 H   0  0  0  0  0  0  0  0  0  0  0  0
   59.3200   33.1940   47.2300 C   0  0  0  0  0  0  0  0  0  0  0  0
   59.5510   32.4820   48.5090 C   0  0  0  0  0  0  0  0  0  0  0  0
   58.6770   32.5970   49.4110 O   0  0  0  0  0  0  0  0  0  0  0  0
   60.7390   31.6970   48.7620 N   0  0  0  0  0  0  0  0  0  0  0  0
   61.9020   31.7280   47.8610 C   0  0  0  0  0  0  0  0  0  0  0  0
   61.8327   32.6223   47.2242 H   0  0  0  0  0  0  0  0  0  0  0  0
   61.8881   30.8062   47.2609 H   0  0  0  0  0  0  0  0  0  0  0  0
   63.2390   31.7700   48.6330 C   0  0  0  0  0  0  0  0  0  0  0  0
   63.6040   32.8077   48.6280 H   0  0  0  0  0  0  0  0  0  0  0  0
   63.9136   31.0687   48.1201 H   0  0  0  0  0  0  0  0  0  0  0  0
   63.1600   31.3130   50.0520 N   0  0  0  0  0  0  0  0  0  0  0  0
   63.0350   32.4630   51.0060 C   0  0  0  0  0  0  0  0  0  0  0  0
   61.9548   32.6392   51.1162 H   0  0  0  0  0  0  0  0  0  0  0  0
   63.5800   32.1750   52.4310 C   0  0  0  0  0  0  0  0  0  0  0  0
   63.1474   31.2308   52.7936 H   0  0  0  0  0  0  0  0  0  0  0  0
   63.2966   33.0154   53.0818 H   0  0  0  0  0  0  0  0  0  0  0  0
   65.1140   32.0570   52.4430 C   0  0  0  0  0  0  0  0  0  0  0  0
   65.3933   31.1155   51.9475 H   0  0  0  0  0  0  0  0  0  0  0  0
   65.4296   32.0881   53.4963 H   0  0  0  0  0  0  0  0  0  0  0  0
   65.8070   33.1750   51.7500 N   0  0  0  0  0  0  0  0  0  0  0  0
   66.6780   32.6880   50.6680 C   0  0  0  0  0  0  0  0  0  0  0  0
   67.5604   32.1946   51.1016 H   0  0  0  0  0  0  0  0  0  0  0  0
   66.1240   31.9688   50.0469 H   0  0  0  0  0  0  0  0  0  0  0  0
   67.0006   33.5366   50.0469 H   0  0  0  0  0  0  0  0  0  0  0  0
   64.9090   34.2550   51.2910 C   0  0  0  0  0  0  0  0  0  0  0  0
   65.4939   34.9735   50.6980 H   0  0  0  0  0  0  0  0  0  0  0  0
   64.4721   34.7310   52.1813 H   0  0  0  0  0  0  0  0  0  0  0  0
   63.7510   33.7230   50.4240 C   0  0  0  0  0  0  0  0  0  0  0  0
   64.1538   33.4631   49.4339 H   0  0  0  0  0  0  0  0  0  0  0  0
   62.9963   34.5222   50.3838 H   0  0  0  0  0  0  0  0  0  0  0  0
   62.1500   30.2370   50.1820 C   0  0  0  0  0  0  0  0  0  0  0  0
   62.1778   29.8436   51.2089 H   0  0  0  0  0  0  0  0  0  0  0  0
   62.3908   29.4496   49.4526 H   0  0  0  0  0  0  0  0  0  0  0  0
   60.7360   30.7500   49.8840 C   0  0  0  0  0  0  0  0  0  0  0  0
   60.3418   31.2548   50.7783 H   0  0  0  0  0  0  0  0  0  0  0  0
   60.1045   29.8912   49.6126 H   0  0  0  0  0  0  0  0  0  0  0  0
   59.5520   30.1200   46.4700 C   0  0  0  0  0  0  0  0  0  0  0  0
   60.5583   30.3233   46.8651 H   0  0  0  0  0  0  0  0  0  0  0  0
   58.8390   28.6020   46.3160 S   0  0  0  0  0  0  0  0  0  0  0  0
  1  2  1  0
  2  3  1  0
  3  4  2  0
  4  5  1  0
  4  6  1  0
  6  7  1  0
  6  8  2  0
  8  9  1  0
  8 10  1  0
 10 11  1  0
 10 12  2  0
 12 13  1  0
 13 14  1  0
 13 15  1  0
 13 16  1  0
 16 17  2  0
 16 18  1  0
 18 19  2  0
 19 20  1  0
 20 21  1  0
 21 22  1  0
 22 23  2  0
 23 24  1  0
 23 25  1  0
 25 26  1  0
 25 27  2  0
 27 28  1  0
 27 29  1  0
 29 30  1  0
 29 31  2  0
 31 32  1  0
 32 33  2  0
 32 34  1  0
 34 35  1  0
 35 36  1  0
 35 37  1  0
 35 38  1  0
 38 39  1  0
 38 40  1  0
 38 41  1  0
 41 42  1  0
 42 43  1  0
 42 44  1  0
 44 45  1  0
 44 46  1  0
 44 47  1  0
 47 48  1  0
 47 49  1  0
 47 50  1  0
 50 51  1  0
 51 52  1  0
 51 53  1  0
 51 54  1  0
 50 55  1  0
 55 56  1  0
 55 57  1  0
 55 58  1  0
 58 59  1  0
 58 60  1  0
 41 61  1  0
 61 62  1  0
 61 63  1  0
 61 64  1  0
 64 65  1  0
 64 66  1  0
 21 67  2  0
 67 68  1  0
 67 69  1  0
 12  3  1  0
 69 19  1  0
 31 22  1  0
 64 34  1  0
 58 42  1  0
M  CHG  1  20  -1
M  END
>  <UniqueID>  (57) 
53

>  <SMILES>  (57) 
CN1CCC(N2CCN(C(=O)c3ccccc3-c3cs/c(=N/C(=O)Cc4ccccc4O)[n-]3)CC2)CC1

>  <Energy>  (57) 
135.16584357849217

>  <Genealogy>  (57) 
CN1CCC(N2CCN(C(=O)c3ccccc3-c3csc(=NC(=O)Cc4ccccc4O)[n-]3)CC2)CC1 (protonated)
CN1CCC(N2CCN(C(=O)c3ccccc3-c3cs/c(=N/C(=O)Cc4ccccc4O)[n-]3)CC2)CC1 (cis-trans isomerization)
CN1CCC(N2CCN(C(=O)c3ccccc3-c3cs/c(=N/C(=O)Cc4ccccc4O)[n-]3)CC2)CC1 (3D coordinates assigned)
CN1CCC(N2CCN(C(=O)c3ccccc3-c3cs/c(=N/C(=O)Cc4ccccc4O)[n-]3)CC2)CC1 (nonaromatic ring conformer: 135.16584357849217 kcal/mol)

>  <smiles>  (57) 
CN1CCC(N2CCN(C(=O)c3ccccc3-c3csc(=NC(=O)Cc4ccccc4O)[nH]3)CC2)CC1

>  <score_type>  (57) 
oracle

>  <origin>  (57) 
adg

>  <m_score__min__energy>  (57) 
-12.76

>  <m_primary>  (57) 
energy

$$$$
57:0
     RDKit          3D

 54 57  0  0  0  0  0  0  0  0999 V2000
   62.8749   33.2414   52.1786 H   0  0  0  0  0  0  0  0  0  0  0  0
   61.8140   33.4320   51.9590 C   0  0  0  0  0  0  0  0  0  0  0  0
   61.4440   33.8820   50.7300 N   0  0  0  0  0  0  0  0  0  0  0  0
   60.1430   34.1310   50.4120 C   0  0  0  0  0  0  0  0  0  0  0  0
   59.7970   34.5590   49.2280 N   0  0  0  0  0  0  0  0  0  0  0  0
   59.5810   33.8100   47.9740 C   0  0  0  0  0  0  0  0  0  0  0  0
   60.9280   33.1300   47.6430 C   0  0  0  0  0  0  0  0  0  0  0  0
   61.0660   31.7470   47.8930 C   0  0  0  0  0  0  0  0  0  0  0  0
   60.2116   31.1826   48.2947 H   0  0  0  0  0  0  0  0  0  0  0  0
   62.2690   31.0830   47.6390 C   0  0  0  0  0  0  0  0  0  0  0  0
   62.3542   30.0050   47.8404 H   0  0  0  0  0  0  0  0  0  0  0  0
   63.3610   31.7840   47.1310 C   0  0  0  0  0  0  0  0  0  0  0  0
   64.3075   31.2599   46.9323 H   0  0  0  0  0  0  0  0  0  0  0  0
   63.2530   33.1490   46.8750 C   0  0  0  0  0  0  0  0  0  0  0  0
   64.1164   33.7016   46.4761 H   0  0  0  0  0  0  0  0  0  0  0  0
   62.0520   33.8190   47.1230 C   0  0  0  0  0  0  0  0  0  0  0  0
   61.9780   34.8960   46.9117 H   0  0  0  0  0  0  0  0  0  0  0  0
   58.4070   32.7970   48.1640 C   0  0  0  0  0  0  0  0  0  0  0  0
   57.6310   33.2721   48.7822 H   0  0  0  0  0  0  0  0  0  0  0  0
   58.8227   31.8988   48.6441 H   0  0  0  0  0  0  0  0  0  0  0  0
   57.7690   32.3530   46.8290 C   0  0  0  0  0  0  0  0  0  0  0  0
   56.8439   32.9252   46.6657 H   0  0  0  0  0  0  0  0  0  0  0  0
   57.5538   31.2758   46.8872 H   0  0  0  0  0  0  0  0  0  0  0  0
   58.6860   32.5860   45.6950 N   0  0  0  0  0  0  0  0  0  0  0  0
   58.1930   31.9480   44.4580 C   0  0  0  0  0  0  0  0  0  0  0  0
   59.0381   31.7715   43.7763 H   0  0  0  0  0  0  0  0  0  0  0  0
   57.4594   32.6104   43.9753 H   0  0  0  0  0  0  0  0  0  0  0  0
   57.5360   30.6370   44.7880 C   0  0  0  0  0  0  0  0  0  0  0  0
   56.2220   30.3640   44.3940 C   0  0  0  0  0  0  0  0  0  0  0  0
   55.6501   31.1164   43.8311 H   0  0  0  0  0  0  0  0  0  0  0  0
   55.6510   29.1720   44.7050 N   0  0  0  0  0  0  0  0  0  0  0  0
   56.3030   28.1980   45.4000 C   0  0  0  0  0  0  0  0  0  0  0  0
   55.6630   27.0810   45.6200 N   0  0  0  0  0  0  0  0  0  0  0  0
   56.1830   25.7550   45.7890 C   0  0  0  0  0  0  0  0  0  0  0  0
   55.5000   24.8650   46.3630 O   0  0  0  0  0  0  0  0  0  0  0  0
   57.5270   25.4730   45.4060 N   0  0  0  0  0  0  0  0  0  0  0  0
   57.9310   24.5220   45.5620 H   0  0  0  0  0  0  0  0  0  0  0  0
   58.1300   26.2290   45.0150 H   0  0  0  0  0  0  0  0  0  0  0  0
   57.6150   28.4630   45.8680 C   0  0  0  0  0  0  0  0  0  0  0  0
   58.3020   27.5900   46.7010 O   0  0  0  0  0  0  0  0  0  0  0  0
   58.2260   29.6740   45.5330 C   0  0  0  0  0  0  0  0  0  0  0  0
   59.2582   29.8722   45.8576 H   0  0  0  0  0  0  0  0  0  0  0  0
   58.9260   34.0290   45.4890 C   0  0  0  0  0  0  0  0  0  0  0  0
   58.0350   34.4714   45.0195 H   0  0  0  0  0  0  0  0  0  0  0  0
   59.8140   34.1321   44.8480 H   0  0  0  0  0  0  0  0  0  0  0  0
   59.2120   34.7760   46.8120 C   0  0  0  0  0  0  0  0  0  0  0  0
   58.3144   35.3443   47.0973 H   0  0  0  0  0  0  0  0  0  0  0  0
   60.0734   35.4387   46.6421 H   0  0  0  0  0  0  0  0  0  0  0  0
   59.1490   33.9240   51.3760 C   0  0  0  0  0  0  0  0  0  0  0  0
   58.0942   34.1236   51.1361 H   0  0  0  0  0  0  0  0  0  0  0  0
   59.5070   33.4620   52.6450 C   0  0  0  0  0  0  0  0  0  0  0  0
   58.7333   33.2956   53.4090 H   0  0  0  0  0  0  0  0  0  0  0  0
   60.8470   33.2120   52.9420 C   0  0  0  0  0  0  0  0  0  0  0  0
   61.1380   32.8463   53.9378 H   0  0  0  0  0  0  0  0  0  0  0  0
  1  2  1  0
  2  3  1  0
  3  4  1  0
  4  5  2  0
  5  6  1  0
  6  7  1  0
  7  8  2  0
  8  9  1  0
  8 10  1  0
 10 11  1  0
 10 12  2  0
 12 13  1  0
 12 14  1  0
 14 15  1  0
 14 16  2  0
 16 17  1  0
  6 18  1  0
 18 19  1  0
 18 20  1  0
 18 21  1  0
 21 22  1  0
 21 23  1  0
 21 24  1  0
 24 25  1  0
 25 26  1  0
 25 27  1  0
 25 28  1  0
 28 29  2  0
 29 30  1  0
 29 31  1  0
 31 32  1  0
 32 33  2  3
 33 34  1  0
 34 35  2  0
 34 36  1  0
 36 37  1  0
 36 38  1  0
 32 39  1  0
 39 40  1  0
 39 41  2  0
 41 42  1  0
 24 43  1  0
 43 44  1  0
 43 45  1  0
 43 46  1  0
 46 47  1  0
 46 48  1  0
  4 49  1  0
 49 50  1  0
 49 51  2  0
 51 52  1  0
 51 53  1  0
 53 54  1  0
 53  2  2  0
 46  6  1  0
 16  7  1  0
 41 28  1  0
M  CHG  3   3  -1  31  -1  40  -1
M  END
>  <UniqueID>  (58) 
54

>  <SMILES>  (58) 
NC(=O)N=c1[n-]cc(CN2CCC(/N=c3/cccc[n-]3)(c3ccccc3)CC2)cc1[O-]

>  <Energy>  (58) 
85.18174328160015

>  <Genealogy>  (58) 
NC(=O)N=c1[n-]cc(CN2CCC(N=c3cccc[n-]3)(c3ccccc3)CC2)cc1[O-] (protonated)
NC(=O)N=c1[n-]cc(CN2CCC(/N=c3/cccc[n-]3)(c3ccccc3)CC2)cc1[O-] (cis-trans isomerization)
NC(=O)N=c1[n-]cc(CN2CCC(/N=c3/cccc[n-]3)(c3ccccc3)CC2)cc1[O-] (3D coordinates assigned)
NC(=O)N=c1[n-]cc(CN2CCC(/N=c3/cccc[n-]3)(c3ccccc3)CC2)cc1[O-] (nonaromatic ring conformer: 85.18174328160015 kcal/mol)

>  <smiles>  (58) 
NC(=O)N=c1[nH]cc(CN2CCC(N=c3cccc[nH]3)(c3ccccc3)CC2)cc1O

>  <score_type>  (58) 
oracle

>  <origin>  (58) 
adg

>  <m_score__min__energy>  (58) 
-14.710000000000001

>  <m_primary>  (58) 
energy

$$$$
58:0
     RDKit          3D

 53 56  0  0  0  0  0  0  0  0999 V2000
   59.3390   28.2250   44.1520 C   0  0  0  0  0  0  0  0  0  0  0  0
   57.9080   28.0550   44.4070 N   0  0  0  0  0  0  0  0  0  0  0  0
   57.4030   26.7870   44.8690 C   0  0  0  0  0  0  0  0  0  0  0  0
   57.5120   25.6390   44.0640 C   0  0  0  0  0  0  0  0  0  0  0  0
   57.0060   24.4130   44.5080 C   0  0  0  0  0  0  0  0  0  0  0  0
   56.3810   24.3220   45.7540 C   0  0  0  0  0  0  0  0  0  0  0  0
   56.2610   25.4580   46.5580 C   0  0  0  0  0  0  0  0  0  0  0  0
   56.7660   26.6860   46.1190 C   0  0  0  0  0  0  0  0  0  0  0  0
   56.8440   29.4160   44.2010 S   0  0  0  0  0  0  0  0  0  0  0  0
   55.5380   29.1420   44.8930 O   0  0  0  0  0  0  0  0  0  0  0  0
   56.5760   29.6530   42.7390 O   0  0  0  0  0  0  0  0  0  0  0  0
   57.6020   30.8600   44.8660 C   0  0  0  0  0  0  0  0  0  0  0  0
   57.7410   32.0040   44.0690 C   0  0  0  0  0  0  0  0  0  0  0  0
   58.3690   33.1430   44.5770 C   0  0  0  0  0  0  0  0  0  0  0  0
   58.8660   33.1580   45.8910 C   0  0  0  0  0  0  0  0  0  0  0  0
   59.5620   34.3610   46.4080 C   0  0  0  0  0  0  0  0  0  0  0  0
   58.8830   35.2830   46.9360 O   0  0  0  0  0  0  0  0  0  0  0  0
   60.9790   34.5470   46.2780 N   0  0  0  0  0  0  0  0  0  0  0  0
   61.8970   33.8360   46.8620 C   0  0  0  0  0  0  0  0  0  0  0  0
   61.7160   33.1680   48.0260 N   0  0  0  0  0  0  0  0  0  0  0  0
   62.9390   32.6390   48.2190 C   0  0  0  0  0  0  0  0  0  0  0  0
   63.3700   31.6090   49.6210 S   0  0  0  0  0  0  0  0  0  0  0  0
   61.6410   31.2030   50.0490 C   0  0  0  0  0  0  0  0  0  0  0  0
   61.1540   30.0190   49.2610 C   0  0  0  0  0  0  0  0  0  0  0  0
   60.8250   28.8200   49.9160 C   0  0  0  0  0  0  0  0  0  0  0  0
   60.3390   27.7290   49.1890 C   0  0  0  0  0  0  0  0  0  0  0  0
   60.1760   27.8270   47.8030 C   0  0  0  0  0  0  0  0  0  0  0  0
   59.7010   26.7670   47.1000 F   0  0  0  0  0  0  0  0  0  0  0  0
   60.4980   29.0160   47.1440 C   0  0  0  0  0  0  0  0  0  0  0  0
   60.9860   30.1090   47.8670 C   0  0  0  0  0  0  0  0  0  0  0  0
   63.7980   32.9740   47.2420 N   0  0  0  0  0  0  0  0  0  0  0  0
   63.1500   33.7350   46.3800 N   0  0  0  0  0  0  0  0  0  0  0  0
   58.7440   32.0000   46.6790 C   0  0  0  0  0  0  0  0  0  0  0  0
   58.1090   30.8620   46.1720 C   0  0  0  0  0  0  0  0  0  0  0  0
   59.8770   28.2889   45.1093 H   0  0  0  0  0  0  0  0  0  0  0  0
   59.7138   27.3651   43.5775 H   0  0  0  0  0  0  0  0  0  0  0  0
   59.5019   29.1488   43.5775 H   0  0  0  0  0  0  0  0  0  0  0  0
   57.9980   25.7057   43.0795 H   0  0  0  0  0  0  0  0  0  0  0  0
   57.1004   23.5186   43.8747 H   0  0  0  0  0  0  0  0  0  0  0  0
   55.9838   23.3569   46.1016 H   0  0  0  0  0  0  0  0  0  0  0  0
   55.7681   25.3865   47.5388 H   0  0  0  0  0  0  0  0  0  0  0  0
   56.6645   27.5779   46.7548 H   0  0  0  0  0  0  0  0  0  0  0  0
   57.3540   32.0048   43.0393 H   0  0  0  0  0  0  0  0  0  0  0  0
   58.4755   34.0358   43.9432 H   0  0  0  0  0  0  0  0  0  0  0  0
   61.5815   30.9697   51.1223 H   0  0  0  0  0  0  0  0  0  0  0  0
   61.0077   32.0692   49.8069 H   0  0  0  0  0  0  0  0  0  0  0  0
   60.9504   28.7394   51.0059 H   0  0  0  0  0  0  0  0  0  0  0  0
   60.0846   26.7927   49.7073 H   0  0  0  0  0  0  0  0  0  0  0  0
   60.3674   29.0926   46.0545 H   0  0  0  0  0  0  0  0  0  0  0  0
   61.2395   31.0428   47.3438 H   0  0  0  0  0  0  0  0  0  0  0  0
   64.8020   32.6990   47.1620 H   0  0  0  0  0  0  0  0  0  0  0  0
   59.1507   31.9892   47.7010 H   0  0  0  0  0  0  0  0  0  0  0  0
   58.0072   29.9652   46.8008 H   0  0  0  0  0  0  0  0  0  0  0  0
  1  2  1  0
  2  3  1  0
  3  4  2  0
  4  5  1  0
  5  6  2  0
  6  7  1  0
  7  8  2  0
  2  9  1  0
  9 10  2  0
  9 11  2  0
  9 12  1  0
 12 13  2  0
 13 14  1  0
 14 15  2  0
 15 16  1  0
 16 17  2  0
 16 18  1  0
 18 19  2  3
 19 20  1  0
 20 21  2  0
 21 22  1  0
 22 23  1  0
 23 24  1  0
 24 25  2  0
 25 26  1  0
 26 27  2  0
 27 28  1  0
 27 29  1  0
 29 30  2  0
 21 31  1  0
 31 32  1  0
 15 33  1  0
 33 34  2  0
  8  3  1  0
 34 12  1  0
 32 19  1  0
 30 24  1  0
  1 35  1  0
  1 36  1  0
  1 37  1  0
  4 38  1  0
  5 39  1  0
  6 40  1  0
  7 41  1  0
  8 42  1  0
 13 43  1  0
 14 44  1  0
 23 45  1  0
 23 46  1  0
 25 47  1  0
 26 48  1  0
 29 49  1  0
 30 50  1  0
 31 51  1  0
 33 52  1  0
 34 53  1  0
M  CHG  1  32  -1
M  END
>  <UniqueID>  (59) 
55

>  <SMILES>  (59) 
CN(c1ccccc1)S(=O)(=O)c1ccc(C(=O)N=c2nc(SCc3ccc(F)cc3)[nH][n-]2)cc1

>  <Energy>  (59) 
97.78934960932729

>  <Genealogy>  (59) 
CN(c1ccccc1)S(=O)(=O)c1ccc(C(=O)N=c2nc(SCc3ccc(F)cc3)[nH][n-]2)cc1 (protonated)
CN(c1ccccc1)S(=O)(=O)c1ccc(C(=O)N=c2nc(SCc3ccc(F)cc3)[nH][n-]2)cc1 (3D coordinates assigned)
CN(c1ccccc1)S(=O)(=O)c1ccc(C(=O)N=c2nc(SCc3ccc(F)cc3)[nH][n-]2)cc1 (optimized conformer: 97.78934960932729 kcal/mol)

>  <smiles>  (59) 
CN(c1ccccc1)S(=O)(=O)c1ccc(C(=O)N=c2nc(SCc3ccc(F)cc3)[nH][nH]2)cc1

>  <score_type>  (59) 
oracle

>  <origin>  (59) 
adg

>  <m_score__min__energy>  (59) 
-11.08

>  <m_primary>  (59) 
energy

$$$$
59:0
     RDKit          3D

 49 52  0  0  0  0  0  0  0  0999 V2000
   55.5400   30.2160   44.2680 O   0  0  0  0  0  0  0  0  0  0  0  0
   56.6730   30.5070   44.7370 C   0  0  0  0  0  0  0  0  0  0  0  0
   56.9500   31.8760   45.0600 N   0  0  0  0  0  0  0  0  0  0  0  0
   58.1670   32.3790   45.6320 C   0  0  0  0  0  0  0  0  0  0  0  0
   58.8650   33.4530   45.0550 C   0  0  0  0  0  0  0  0  0  0  0  0
   60.0430   33.9220   45.6420 C   0  0  0  0  0  0  0  0  0  0  0  0
   60.5360   33.3390   46.8240 C   0  0  0  0  0  0  0  0  0  0  0  0
   61.8230   33.8270   47.4630 C   0  0  1  0  0  0  0  0  0  0  0  0
   62.2550   32.9640   48.6380 C   0  0  0  0  0  0  0  0  0  0  0  0
   63.7670   32.9500   48.5470 C   0  0  0  0  0  0  0  0  0  0  0  0
   64.1250   33.1060   47.1390 N   0  0  0  0  0  0  0  0  0  0  0  0
   63.0200   33.8280   46.5030 C   0  0  0  0  0  0  0  0  0  0  0  0
   59.8210   32.2790   47.4070 C   0  0  0  0  0  0  0  0  0  0  0  0
   58.6420   31.8110   46.8190 C   0  0  0  0  0  0  0  0  0  0  0  0
   57.6550   29.4260   44.9850 C   0  0  0  0  0  0  0  0  0  0  0  0
   58.9810   29.5460   44.5400 C   0  0  0  0  0  0  0  0  0  0  0  0
   59.8990   28.5220   44.7760 C   0  0  0  0  0  0  0  0  0  0  0  0
   59.5070   27.3740   45.4690 C   0  0  0  0  0  0  0  0  0  0  0  0
   58.1930   27.2390   45.9390 C   0  0  0  0  0  0  0  0  0  0  0  0
   57.8260   26.0470   46.6570 N   0  0  0  0  0  0  0  0  0  0  0  0
   56.3570   25.1630   46.3870 S   0  0  0  0  0  0  0  0  0  0  0  0
   55.2660   26.1190   45.9930 O   0  0  0  0  0  0  0  0  0  0  0  0
   55.9610   24.4620   47.6550 O   0  0  0  0  0  0  0  0  0  0  0  0
   56.5870   24.0040   45.0910 C   0  0  0  0  0  0  0  0  0  0  0  0
   55.8900   23.9740   43.8920 C   0  0  0  0  0  0  0  0  0  0  0  0
   56.2740   22.9120   43.0660 C   0  0  0  0  0  0  0  0  0  0  0  0
   57.2680   22.1090   43.6150 C   0  0  0  0  0  0  0  0  0  0  0  0
   57.6690   22.7200   45.1300 S   0  0  0  0  0  0  0  0  0  0  0  0
   57.2700   28.2730   45.6910 C   0  0  0  0  0  0  0  0  0  0  0  0
   58.4830   33.9261   44.1384 H   0  0  0  0  0  0  0  0  0  0  0  0
   60.5901   34.7547   45.1758 H   0  0  0  0  0  0  0  0  0  0  0  0
   61.5740   34.8509   47.7787 H   0  0  0  0  0  0  0  0  0  0  0  0
   61.9248   33.4058   49.5897 H   0  0  0  0  0  0  0  0  0  0  0  0
   61.8197   31.9544   48.6040 H   0  0  0  0  0  0  0  0  0  0  0  0
   64.1861   33.7798   49.1350 H   0  0  0  0  0  0  0  0  0  0  0  0
   64.1699   32.0076   48.9465 H   0  0  0  0  0  0  0  0  0  0  0  0
   64.1770   32.1470   46.7150 H   0  0  0  0  0  0  0  0  0  0  0  0
   63.3257   34.8633   46.2918 H   0  0  0  0  0  0  0  0  0  0  0  0
   62.7451   33.3395   45.5565 H   0  0  0  0  0  0  0  0  0  0  0  0
   60.1915   31.8142   48.3325 H   0  0  0  0  0  0  0  0  0  0  0  0
   58.0838   30.9902   47.2931 H   0  0  0  0  0  0  0  0  0  0  0  0
   59.2979   30.4519   44.0025 H   0  0  0  0  0  0  0  0  0  0  0  0
   60.9337   28.6189   44.4156 H   0  0  0  0  0  0  0  0  0  0  0  0
   60.2354   26.5693   45.6474 H   0  0  0  0  0  0  0  0  0  0  0  0
   58.4440   25.7100   47.4300 H   0  0  0  0  0  0  0  0  0  0  0  0
   55.1171   24.7077   43.6194 H   0  0  0  0  0  0  0  0  0  0  0  0
   55.8314   22.7294   42.0757 H   0  0  0  0  0  0  0  0  0  0  0  0
   57.7160   21.2242   43.1391 H   0  0  0  0  0  0  0  0  0  0  0  0
   56.2360   28.1775   46.0538 H   0  0  0  0  0  0  0  0  0  0  0  0
  1  2  2  0
  2  3  1  0
  3  4  1  0
  4  5  2  0
  5  6  1  0
  6  7  2  0
  7  8  1  0
  8  9  1  0
  9 10  1  0
 10 11  1  0
 11 12  1  0
  7 13  1  0
 13 14  2  0
  2 15  1  0
 15 16  2  0
 16 17  1  0
 17 18  2  0
 18 19  1  0
 19 20  1  0
 20 21  1  0
 21 22  2  0
 21 23  2  0
 21 24  1  0
 24 25  2  0
 25 26  1  0
 26 27  2  0
 27 28  1  0
 19 29  2  0
 14  4  1  0
 29 15  1  0
 12  8  1  0
 28 24  1  0
  5 30  1  0
  6 31  1  0
  8 32  1  1
  9 33  1  0
  9 34  1  0
 10 35  1  0
 10 36  1  0
 11 37  1  0
 12 38  1  0
 12 39  1  0
 13 40  1  0
 14 41  1  0
 16 42  1  0
 17 43  1  0
 18 44  1  0
 20 45  1  0
 25 46  1  0
 26 47  1  0
 27 48  1  0
 29 49  1  0
M  CHG  1   3  -1
M  END
>  <UniqueID>  (60) 
56

>  <SMILES>  (60) 
O=C([N-]c1ccc([C@H]2CCNC2)cc1)c1cccc(NS(=O)(=O)c2cccs2)c1

>  <Energy>  (60) 
89.52520355666242

>  <Genealogy>  (60) 
O=C([N-]c1ccc(C2CCNC2)cc1)c1cccc(NS(=O)(=O)c2cccs2)c1 (protonated)
O=C([N-]c1ccc([C@H]2CCNC2)cc1)c1cccc(NS(=O)(=O)c2cccs2)c1 (chirality)
O=C([N-]c1ccc([C@H]2CCNC2)cc1)c1cccc(NS(=O)(=O)c2cccs2)c1 (3D coordinates assigned)
O=C([N-]c1ccc([C@H]2CCNC2)cc1)c1cccc(NS(=O)(=O)c2cccs2)c1 (nonaromatic ring conformer: 89.52520355666242 kcal/mol)

>  <smiles>  (60) 
O=C(Nc1ccc(C2CCNC2)cc1)c1cccc(NS(=O)(=O)c2cccs2)c1

>  <score_type>  (60) 
oracle

>  <origin>  (60) 
adg

>  <m_score__min__energy>  (60) 
-11.949999999999999

>  <m_primary>  (60) 
energy

$$$$
60:0
     RDKit          3D

 66 69  0  0  0  0  0  0  0  0999 V2000
   60.3960   34.6650   46.2280 H   0  0  0  0  0  0  0  0  0  0  0  0
   59.9880   34.5540   45.3090 O   0  0  0  0  0  0  0  0  0  0  0  0
   59.0200   33.5860   45.0380 C   0  0  0  0  0  0  0  0  0  0  0  0
   58.5990   33.4020   43.7170 C   0  0  0  0  0  0  0  0  0  0  0  0
   59.0355   34.0142   42.9141 H   0  0  0  0  0  0  0  0  0  0  0  0
   57.6290   32.4470   43.4110 C   0  0  0  0  0  0  0  0  0  0  0  0
   57.3124   32.3042   42.3673 H   0  0  0  0  0  0  0  0  0  0  0  0
   57.0560   31.6690   44.4250 C   0  0  0  0  0  0  0  0  0  0  0  0
   56.1120   30.5920   44.0560 C   0  0  0  0  0  0  0  0  0  0  0  0
   55.2698   30.8667   43.4039 H   0  0  0  0  0  0  0  0  0  0  0  0
   56.1900   29.3090   44.4450 C   0  0  0  0  0  0  0  0  0  0  0  0
   55.6359   28.5687   43.8493 H   0  0  0  0  0  0  0  0  0  0  0  0
   56.9710   28.7960   45.6270 C   0  0  0  0  0  0  0  0  0  0  0  0
   56.2766   28.5535   46.4449 H   0  0  0  0  0  0  0  0  0  0  0  0
   57.6788   29.5711   45.9560 H   0  0  0  0  0  0  0  0  0  0  0  0
   57.7200   27.5870   45.2490 N   0  0  0  0  0  0  0  0  0  0  0  0
   58.7250   27.6500   44.2110 C   0  0  0  0  0  0  0  0  0  0  0  0
   58.4670   27.1850   43.0660 O   0  0  0  0  0  0  0  0  0  0  0  0
   60.0440   28.2790   44.4580 C   0  0  0  0  0  0  0  0  0  0  0  0
   60.9210   27.9095   43.9063 H   0  0  0  0  0  0  0  0  0  0  0  0
   60.2040   29.2840   45.3320 C   0  0  0  0  0  0  0  0  0  0  0  0
   60.3789   30.2949   44.9353 H   0  0  0  0  0  0  0  0  0  0  0  0
   60.1580   29.1070   46.8040 C   0  0  0  0  0  0  0  0  0  0  0  0
   59.8390   30.2150   47.6070 C   0  0  0  0  0  0  0  0  0  0  0  0
   59.6322   31.1875   47.1364 H   0  0  0  0  0  0  0  0  0  0  0  0
   59.7820   30.0930   48.9990 C   0  0  0  0  0  0  0  0  0  0  0  0
   59.5390   30.9694   49.6177 H   0  0  0  0  0  0  0  0  0  0  0  0
   60.0330   28.8610   49.6040 C   0  0  0  0  0  0  0  0  0  0  0  0
   59.9948   28.7681   50.6994 H   0  0  0  0  0  0  0  0  0  0  0  0
   60.3330   27.7450   48.8180 C   0  0  0  0  0  0  0  0  0  0  0  0
   60.5224   26.7723   49.2956 H   0  0  0  0  0  0  0  0  0  0  0  0
   60.3930   27.8620   47.4260 C   0  0  0  0  0  0  0  0  0  0  0  0
   60.6246   26.9790   46.8123 H   0  0  0  0  0  0  0  0  0  0  0  0
   57.4650   26.3620   45.9620 C   0  0  0  0  0  0  0  0  0  0  0  0
   58.5170   25.5190   46.3350 C   0  0  0  0  0  0  0  0  0  0  0  0
   59.5508   25.7769   46.0616 H   0  0  0  0  0  0  0  0  0  0  0  0
   58.2640   24.3830   47.0340 N   0  0  0  0  0  0  0  0  0  0  0  0
   56.9960   24.0410   47.3760 C   0  0  0  0  0  0  0  0  0  0  0  0
   56.7820   22.9870   48.0300 O   0  0  0  0  0  0  0  0  0  0  0  0
   55.9550   24.8340   47.0100 N   0  0  0  0  0  0  0  0  0  0  0  0
   56.1610   25.9810   46.3140 C   0  0  0  0  0  0  0  0  0  0  0  0
   55.1760   26.7000   45.9980 O   0  0  0  0  0  0  0  0  0  0  0  0
   57.4990   31.8330   45.7470 C   0  0  0  0  0  0  0  0  0  0  0  0
   57.0892   31.1917   46.5412 H   0  0  0  0  0  0  0  0  0  0  0  0
   58.4620   32.8090   46.0680 C   0  0  0  0  0  0  0  0  0  0  0  0
   58.8900   33.0200   47.3890 O   0  0  0  0  0  0  0  0  0  0  0  0
   59.1200   34.2990   47.9830 C   0  0  0  0  0  0  0  0  0  0  0  0
   59.1821   35.0614   47.1925 H   0  0  0  0  0  0  0  0  0  0  0  0
   58.2896   34.5339   48.6651 H   0  0  0  0  0  0  0  0  0  0  0  0
   60.4330   34.2830   48.7770 C   0  0  0  0  0  0  0  0  0  0  0  0
   60.9942   35.2036   48.5590 H   0  0  0  0  0  0  0  0  0  0  0  0
   60.1891   34.2186   49.8477 H   0  0  0  0  0  0  0  0  0  0  0  0
   61.2660   33.1160   48.4190 N   0  0  0  0  0  0  0  0  0  0  0  0
   62.2780   32.8740   49.4690 C   0  0  0  0  0  0  0  0  0  0  0  0
   62.7176   33.8349   49.7747 H   0  0  0  0  0  0  0  0  0  0  0  0
   61.7885   32.3876   50.3257 H   0  0  0  0  0  0  0  0  0  0  0  0
   63.3930   31.9520   48.9490 C   0  0  0  0  0  0  0  0  0  0  0  0
   64.1230   31.8060   49.7588 H   0  0  0  0  0  0  0  0  0  0  0  0
   62.9040   31.0180   48.6351 H   0  0  0  0  0  0  0  0  0  0  0  0
   64.0870   32.4460   47.8100 O   0  0  0  0  0  0  0  0  0  0  0  0
   63.3920   33.4730   47.1210 C   0  0  0  0  0  0  0  0  0  0  0  0
   63.5817   34.4284   47.6321 H   0  0  0  0  0  0  0  0  0  0  0  0
   63.7605   33.4814   46.0846 H   0  0  0  0  0  0  0  0  0  0  0  0
   61.8710   33.2390   47.0670 C   0  0  0  0  0  0  0  0  0  0  0  0
   61.4019   34.0868   46.5463 H   0  0  0  0  0  0  0  0  0  0  0  0
   61.6971   32.2918   46.5354 H   0  0  0  0  0  0  0  0  0  0  0  0
  1  2  1  0
  2  3  1  0
  3  4  2  0
  4  5  1  0
  4  6  1  0
  6  7  1  0
  6  8  2  0
  8  9  1  0
  9 10  1  0
  9 11  2  3
 11 12  1  0
 11 13  1  0
 13 14  1  0
 13 15  1  0
 13 16  1  0
 16 17  1  0
 17 18  2  0
 17 19  1  0
 19 20  1  0
 19 21  2  0
 21 22  1  0
 21 23  1  0
 23 24  2  0
 24 25  1  0
 24 26  1  0
 26 27  1  0
 26 28  2  0
 28 29  1  0
 28 30  1  0
 30 31  1  0
 30 32  2  0
 32 33  1  0
 16 34  1  0
 34 35  2  0
 35 36  1  0
 35 37  1  0
 37 38  1  0
 38 39  2  0
 38 40  1  0
 40 41  1  0
 41 42  2  0
  8 43  1  0
 43 44  1  0
 43 45  2  0
 45 46  1  0
 46 47  1  0
 47 48  1  0
 47 49  1  0
 47 50  1  0
 50 51  1  0
 50 52  1  0
 50 53  1  0
 53 54  1  0
 54 55  1  0
 54 56  1  0
 54 57  1  0
 57 58  1  0
 57 59  1  0
 57 60  1  0
 60 61  1  0
 61 62  1  0
 61 63  1  0
 61 64  1  0
 64 65  1  0
 64 66  1  0
 45  3  1  0
 64 53  1  0
 32 23  1  0
 41 34  1  0
M  CHG  2  37  -1  40  -1
M  END
>  <UniqueID>  (61) 
57

>  <SMILES>  (61) 
O=C(/C=C/c1ccccc1)N(CC=Cc1ccc(O)c(OCCN2CCOCC2)c1)c1c[n-]c(=O)[n-]c1=O

>  <Energy>  (61) 
95.70821688715738

>  <Genealogy>  (61) 
O=C(C=Cc1ccccc1)N(CC=Cc1ccc(O)c(OCCN2CCOCC2)c1)c1c[n-]c(=O)[n-]c1=O (protonated)
O=C(/C=C/c1ccccc1)N(CC=Cc1ccc(O)c(OCCN2CCOCC2)c1)c1c[n-]c(=O)[n-]c1=O (cis-trans isomerization)
O=C(/C=C/c1ccccc1)N(CC=Cc1ccc(O)c(OCCN2CCOCC2)c1)c1c[n-]c(=O)[n-]c1=O (3D coordinates assigned)
O=C(/C=C/c1ccccc1)N(CC=Cc1ccc(O)c(OCCN2CCOCC2)c1)c1c[n-]c(=O)[n-]c1=O (nonaromatic ring conformer: 95.70821688715738 kcal/mol)

>  <smiles>  (61) 
O=C(C=Cc1ccccc1)N(CC=Cc1ccc(O)c(OCCN2CCOCC2)c1)c1c[nH]c(=O)[nH]c1=O

>  <score_type>  (61) 
oracle

>  <origin>  (61) 
adg

>  <m_score__min__energy>  (61) 
-12.869999999999999

>  <m_primary>  (61) 
energy

$$$$
61:0
     RDKit          3D

 56 58  0  0  0  0  0  0  0  0999 V2000
   54.0530   25.1970   45.6130 C   0  0  0  0  0  0  0  0  0  0  0  0
   54.9800   26.2590   45.9930 N   0  0  0  0  0  0  0  0  0  0  0  0
   56.5670   25.5930   46.2380 S   0  0  0  0  0  0  0  0  0  0  0  0
   56.8030   24.4660   45.2690 O   0  0  0  0  0  0  0  0  0  0  0  0
   56.6630   25.0450   47.6330 O   0  0  0  0  0  0  0  0  0  0  0  0
   57.7880   26.8510   46.0240 C   0  0  0  0  0  0  0  0  0  0  0  0
   58.3880   27.0610   44.7750 C   0  0  0  0  0  0  0  0  0  0  0  0
   59.3500   28.0620   44.6170 C   0  0  0  0  0  0  0  0  0  0  0  0
   59.7040   28.8730   45.7000 C   0  0  0  0  0  0  0  0  0  0  0  0
   59.1000   28.6900   46.9610 C   0  0  0  0  0  0  0  0  0  0  0  0
   59.4900   29.5570   48.1050 C   0  0  0  0  0  0  0  0  0  0  0  0
   58.5900   30.0560   48.8370 O   0  0  0  0  0  0  0  0  0  0  0  0
   60.8710   29.8270   48.4040 N   0  0  0  0  0  0  0  0  0  0  0  0
   61.2970   31.0050   49.1540 C   0  0  0  0  0  0  0  0  0  0  0  0
   61.8610   32.0770   48.2110 C   0  0  0  0  0  0  0  0  0  0  0  0
   61.3430   33.7330   48.6640 S   0  0  0  0  0  0  0  0  0  0  0  0
   60.6100   33.6470   49.9750 O   0  0  0  0  0  0  0  0  0  0  0  0
   62.5670   34.5860   48.8500 O   0  0  0  0  0  0  0  0  0  0  0  0
   60.3090   34.4580   47.4510 N   0  0  0  0  0  0  0  0  0  0  0  0
   58.8750   34.1980   47.7480 C   0  0  0  0  0  0  0  0  0  0  0  0
   58.2660   33.0330   46.9400 C   0  0  0  0  0  0  0  0  0  0  0  0
   58.5620   33.1560   45.4990 N   0  0  0  0  0  0  0  0  0  0  0  0
   57.9590   32.2470   44.5450 C   0  0  0  0  0  0  0  0  0  0  0  0
   57.3070   31.0730   44.9790 C   0  0  0  0  0  0  0  0  0  0  0  0
   56.7110   30.2060   44.0580 C   0  0  0  0  0  0  0  0  0  0  0  0
   56.7420   30.5000   42.6930 C   0  0  0  0  0  0  0  0  0  0  0  0
   57.4030   31.6460   42.2440 C   0  0  0  0  0  0  0  0  0  0  0  0
   58.0110   32.5120   43.1580 C   0  0  0  0  0  0  0  0  0  0  0  0
   59.5730   34.1440   45.0940 C   0  0  0  0  0  0  0  0  0  0  0  0
   60.7330   34.0720   46.0860 C   0  0  0  0  0  0  0  0  0  0  0  0
   58.1460   27.6590   47.1130 C   0  0  0  0  0  0  0  0  0  0  0  0
   53.6427   24.7269   46.5189 H   0  0  0  0  0  0  0  0  0  0  0  0
   53.2323   25.6226   45.0169 H   0  0  0  0  0  0  0  0  0  0  0  0
   54.5856   24.4413   45.0169 H   0  0  0  0  0  0  0  0  0  0  0  0
   58.1008   26.4360   43.9166 H   0  0  0  0  0  0  0  0  0  0  0  0
   59.8299   28.2125   43.6387 H   0  0  0  0  0  0  0  0  0  0  0  0
   60.4603   29.6606   45.5670 H   0  0  0  0  0  0  0  0  0  0  0  0
   61.6200   29.2890   47.9160 H   0  0  0  0  0  0  0  0  0  0  0  0
   60.4339   31.4192   49.6957 H   0  0  0  0  0  0  0  0  0  0  0  0
   62.0855   30.7069   49.8607 H   0  0  0  0  0  0  0  0  0  0  0  0
   62.9596   32.0305   48.2413 H   0  0  0  0  0  0  0  0  0  0  0  0
   61.4746   31.8707   47.2020 H   0  0  0  0  0  0  0  0  0  0  0  0
   58.7810   33.9624   48.8184 H   0  0  0  0  0  0  0  0  0  0  0  0
   58.3222   35.1052   47.4628 H   0  0  0  0  0  0  0  0  0  0  0  0
   58.6839   32.0853   47.3104 H   0  0  0  0  0  0  0  0  0  0  0  0
   57.1740   33.0591   47.0697 H   0  0  0  0  0  0  0  0  0  0  0  0
   57.2673   30.8376   46.0528 H   0  0  0  0  0  0  0  0  0  0  0  0
   56.2158   29.2889   44.4099 H   0  0  0  0  0  0  0  0  0  0  0  0
   56.2473   29.8311   41.9734 H   0  0  0  0  0  0  0  0  0  0  0  0
   57.4453   31.8678   41.1674 H   0  0  0  0  0  0  0  0  0  0  0  0
   58.5348   33.4081   42.7939 H   0  0  0  0  0  0  0  0  0  0  0  0
   59.9343   33.9136   44.0809 H   0  0  0  0  0  0  0  0  0  0  0  0
   59.1377   35.1542   45.0901 H   0  0  0  0  0  0  0  0  0  0  0  0
   61.1185   33.0420   46.1100 H   0  0  0  0  0  0  0  0  0  0  0  0
   61.5114   34.7758   45.7561 H   0  0  0  0  0  0  0  0  0  0  0  0
   57.6797   27.4885   48.0946 H   0  0  0  0  0  0  0  0  0  0  0  0
  1  2  1  0
  2  3  1  0
  3  4  2  0
  3  5  2  0
  3  6  1  0
  6  7  2  0
  7  8  1  0
  8  9  2  0
  9 10  1  0
 10 11  1  0
 11 12  2  0
 11 13  1  0
 13 14  1  0
 14 15  1  0
 15 16  1  0
 16 17  2  0
 16 18  2  0
 16 19  1  0
 19 20  1  0
 20 21  1  0
 21 22  1  0
 22 23  1  0
 23 24  2  0
 24 25  1  0
 25 26  2  0
 26 27  1  0
 27 28  2  0
 22 29  1  0
 29 30  1  0
 10 31  2  0
 31  6  1  0
 30 19  1  0
 28 23  1  0
  1 32  1  0
  1 33  1  0
  1 34  1  0
  7 35  1  0
  8 36  1  0
  9 37  1  0
 13 38  1  0
 14 39  1  0
 14 40  1  0
 15 41  1  0
 15 42  1  0
 20 43  1  0
 20 44  1  0
 21 45  1  0
 21 46  1  0
 24 47  1  0
 25 48  1  0
 26 49  1  0
 27 50  1  0
 28 51  1  0
 29 52  1  0
 29 53  1  0
 30 54  1  0
 30 55  1  0
 31 56  1  0
M  CHG  1   2  -1
M  END
>  <UniqueID>  (62) 
58

>  <SMILES>  (62) 
C[N-]S(=O)(=O)c1cccc(C(=O)NCCS(=O)(=O)N2CCN(c3ccccc3)CC2)c1

>  <Energy>  (62) 
63.112724415144065

>  <Genealogy>  (62) 
C[N-]S(=O)(=O)c1cccc(C(=O)NCCS(=O)(=O)N2CCN(c3ccccc3)CC2)c1 (protonated)
C[N-]S(=O)(=O)c1cccc(C(=O)NCCS(=O)(=O)N2CCN(c3ccccc3)CC2)c1 (3D coordinates assigned)
C[N-]S(=O)(=O)c1cccc(C(=O)NCCS(=O)(=O)N2CCN(c3ccccc3)CC2)c1 (nonaromatic ring conformer: 63.112724415144065 kcal/mol)

>  <smiles>  (62) 
CNS(=O)(=O)c1cccc(C(=O)NCCS(=O)(=O)N2CCN(c3ccccc3)CC2)c1

>  <score_type>  (62) 
oracle

>  <origin>  (62) 
adg

>  <m_score__min__energy>  (62) 
-11.9

>  <m_primary>  (62) 
energy

$$$$
62:0
     RDKit          3D

 49 51  0  0  0  0  0  0  0  0999 V2000
   57.8660   33.3610   47.4680 C   0  0  0  0  0  0  0  0  0  0  0  0
   58.1800   34.1860   45.9210 S   0  0  0  0  0  0  0  0  0  0  0  0
   59.1240   35.3370   46.1220 O   0  0  0  0  0  0  0  0  0  0  0  0
   56.8780   34.7140   45.3900 O   0  0  0  0  0  0  0  0  0  0  0  0
   58.8440   33.0660   44.7730 N   0  0  0  0  0  0  0  0  0  0  0  0
   58.0850   32.0270   44.1300 C   0  0  0  0  0  0  0  0  0  0  0  0
   57.7330   32.1740   42.7780 C   0  0  0  0  0  0  0  0  0  0  0  0
   57.0010   31.1820   42.1220 C   0  0  0  0  0  0  0  0  0  0  0  0
   56.6140   30.0290   42.8070 C   0  0  0  0  0  0  0  0  0  0  0  0
   56.9450   29.8690   44.1620 C   0  0  0  0  0  0  0  0  0  0  0  0
   56.5800   28.6390   44.8920 C   0  0  0  0  0  0  0  0  0  0  0  0
   57.4480   27.7080   45.3160 C   0  0  0  0  0  0  0  0  0  0  0  0
   57.5110   27.1480   46.6820 C   0  0  0  0  0  0  0  0  0  0  0  0
   56.7160   26.2210   46.9910 O   0  0  0  0  0  0  0  0  0  0  0  0
   58.4640   27.6340   47.6360 N   0  0  0  0  0  0  0  0  0  0  0  0
   59.2170   28.8510   47.5520 C   0  0  0  0  0  0  0  0  0  0  0  0
   59.0780   29.7980   48.5760 C   0  0  0  0  0  0  0  0  0  0  0  0
   59.7810   31.0040   48.5230 C   0  0  0  0  0  0  0  0  0  0  0  0
   60.6150   31.2870   47.4330 C   0  0  0  0  0  0  0  0  0  0  0  0
   61.4820   32.8180   47.3440 S   0  0  0  0  0  0  0  0  0  0  0  0
   61.2070   33.5060   46.0370 O   0  0  0  0  0  0  0  0  0  0  0  0
   61.0160   33.7120   48.4580 O   0  0  0  0  0  0  0  0  0  0  0  0
   63.1870   32.5410   47.5140 N   0  0  0  0  0  0  0  0  0  0  0  0
   63.7790   32.3510   48.6540 C   0  0  0  0  0  0  0  0  0  0  0  0
   64.8960   33.0540   48.9900 N   0  0  0  0  0  0  0  0  0  0  0  0
   65.5180   32.8580   50.1820 C   0  0  0  0  0  0  0  0  0  0  0  0
   65.0100   31.9230   51.0840 C   0  0  0  0  0  0  0  0  0  0  0  0
   63.8670   31.2110   50.7270 C   0  0  0  0  0  0  0  0  0  0  0  0
   63.2740   31.4350   49.5240 N   0  0  0  0  0  0  0  0  0  0  0  0
   60.7300   30.3580   46.3910 C   0  0  0  0  0  0  0  0  0  0  0  0
   60.0330   29.1480   46.4470 C   0  0  0  0  0  0  0  0  0  0  0  0
   57.7030   30.8560   44.8110 C   0  0  0  0  0  0  0  0  0  0  0  0
   58.1218   34.0330   48.3004 H   0  0  0  0  0  0  0  0  0  0  0  0
   56.8018   33.0897   47.5295 H   0  0  0  0  0  0  0  0  0  0  0  0
   58.4806   32.4508   47.5295 H   0  0  0  0  0  0  0  0  0  0  0  0
   59.8220   33.2450   44.4540 H   0  0  0  0  0  0  0  0  0  0  0  0
   58.0367   33.0788   42.2310 H   0  0  0  0  0  0  0  0  0  0  0  0
   56.7290   31.3094   41.0638 H   0  0  0  0  0  0  0  0  0  0  0  0
   56.0483   29.2439   42.2839 H   0  0  0  0  0  0  0  0  0  0  0  0
   55.5137   28.4729   45.1048 H   0  0  0  0  0  0  0  0  0  0  0  0
   58.1757   27.3288   44.5834 H   0  0  0  0  0  0  0  0  0  0  0  0
   58.4116   29.5904   49.4262 H   0  0  0  0  0  0  0  0  0  0  0  0
   59.6796   31.7340   49.3396 H   0  0  0  0  0  0  0  0  0  0  0  0
   66.4197   33.4350   50.4350 H   0  0  0  0  0  0  0  0  0  0  0  0
   65.5001   31.7520   52.0538 H   0  0  0  0  0  0  0  0  0  0  0  0
   63.4441   30.4674   51.4185 H   0  0  0  0  0  0  0  0  0  0  0  0
   61.3712   30.5816   45.5256 H   0  0  0  0  0  0  0  0  0  0  0  0
   60.1234   28.4251   45.6228 H   0  0  0  0  0  0  0  0  0  0  0  0
   58.0009   30.7132   45.8602 H   0  0  0  0  0  0  0  0  0  0  0  0
  1  2  1  0
  2  3  2  0
  2  4  2  0
  2  5  1  0
  5  6  1  0
  6  7  2  0
  7  8  1  0
  8  9  2  0
  9 10  1  0
 10 11  1  0
 11 12  2  3
 12 13  1  0
 13 14  2  0
 13 15  1  0
 15 16  1  0
 16 17  2  0
 17 18  1  0
 18 19  2  0
 19 20  1  0
 20 21  2  0
 20 22  2  0
 20 23  1  0
 23 24  2  3
 24 25  1  0
 25 26  2  0
 26 27  1  0
 27 28  2  0
 28 29  1  0
 19 30  1  0
 30 31  2  0
 10 32  2  0
 32  6  1  0
 31 16  1  0
 29 24  1  0
  1 33  1  0
  1 34  1  0
  1 35  1  0
  5 36  1  0
  7 37  1  0
  8 38  1  0
  9 39  1  0
 11 40  1  0
 12 41  1  0
 17 42  1  0
 18 43  1  0
 26 44  1  0
 27 45  1  0
 28 46  1  0
 30 47  1  0
 31 48  1  0
 32 49  1  0
M  CHG  2  15  -1  29  -1
M  END
>  <UniqueID>  (63) 
59

>  <SMILES>  (63) 
CS(=O)(=O)Nc1cccc(C=CC(=O)[N-]c2ccc(S(=O)(=O)N=c3nccc[n-]3)cc2)c1

>  <Energy>  (63) 
64.49008996638204

>  <Genealogy>  (63) 
CS(=O)(=O)Nc1cccc(C=CC(=O)[N-]c2ccc(S(=O)(=O)N=c3nccc[n-]3)cc2)c1 (protonated)
CS(=O)(=O)Nc1cccc(C=CC(=O)[N-]c2ccc(S(=O)(=O)N=c3nccc[n-]3)cc2)c1 (3D coordinates assigned)
CS(=O)(=O)Nc1cccc(C=CC(=O)[N-]c2ccc(S(=O)(=O)N=c3nccc[n-]3)cc2)c1 (optimized conformer: 64.49008996638204 kcal/mol)

>  <smiles>  (63) 
CS(=O)(=O)Nc1cccc(C=CC(=O)Nc2ccc(S(=O)(=O)N=c3nccc[nH]3)cc2)c1

>  <score_type>  (63) 
oracle

>  <origin>  (63) 
adg

>  <m_score__min__energy>  (63) 
-12.27

>  <m_primary>  (63) 
energy

$$$$
63:0
     RDKit          3D

 58 61  0  0  0  0  0  0  0  0999 V2000
   57.0280   23.6370   47.6710 H   0  0  0  0  0  0  0  0  0  0  0  0
   57.2260   22.6680   47.5920 O   0  0  0  0  0  0  0  0  0  0  0  0
   56.6090   22.2270   46.4110 C   0  0  0  0  0  0  0  0  0  0  0  0
   56.1164   21.2616   46.5993 H   0  0  0  0  0  0  0  0  0  0  0  0
   57.3760   22.1173   45.6302 H   0  0  0  0  0  0  0  0  0  0  0  0
   55.5640   23.2410   45.9370 C   0  0  0  0  0  0  0  0  0  0  0  0
   54.5761   22.7575   45.9220 H   0  0  0  0  0  0  0  0  0  0  0  0
   55.8436   23.5840   44.9299 H   0  0  0  0  0  0  0  0  0  0  0  0
   55.5130   24.4040   46.8250 N   0  0  0  0  0  0  0  0  0  0  0  0
   56.1490   25.5210   46.6250 C   0  0  0  0  0  0  0  0  0  0  0  0
   55.6200   26.4950   45.8370 N   0  0  0  0  0  0  0  0  0  0  0  0
   56.2970   27.6530   45.6220 C   0  0  0  0  0  0  0  0  0  0  0  0
   55.7930   28.6050   44.8920 N   0  0  0  0  0  0  0  0  0  0  0  0
   56.5020   29.7150   44.3150 C   0  0  0  0  0  0  0  0  0  0  0  0
   56.3020   30.0090   42.9590 C   0  0  0  0  0  0  0  0  0  0  0  0
   55.6261   29.3826   42.3583 H   0  0  0  0  0  0  0  0  0  0  0  0
   56.9550   31.0920   42.3650 C   0  0  0  0  0  0  0  0  0  0  0  0
   56.8042   31.3054   41.2965 H   0  0  0  0  0  0  0  0  0  0  0  0
   57.7990   31.9040   43.1260 C   0  0  0  0  0  0  0  0  0  0  0  0
   58.3197   32.7506   42.6546 H   0  0  0  0  0  0  0  0  0  0  0  0
   57.9820   31.6410   44.4860 C   0  0  0  0  0  0  0  0  0  0  0  0
   58.6400   32.2860   45.0869 H   0  0  0  0  0  0  0  0  0  0  0  0
   57.3290   30.5580   45.0840 C   0  0  0  0  0  0  0  0  0  0  0  0
   57.4616   30.3637   46.1586 H   0  0  0  0  0  0  0  0  0  0  0  0
   57.5020   27.8390   46.2140 N   0  0  0  0  0  0  0  0  0  0  0  0
   58.0370   26.8740   47.0130 C   0  0  0  0  0  0  0  0  0  0  0  0
   59.2020   27.0300   47.5670 N   0  0  0  0  0  0  0  0  0  0  0  0
   59.8590   28.2920   47.7870 C   0  0  0  0  0  0  0  0  0  0  0  0
   60.2780   29.0640   46.6860 C   0  0  0  0  0  0  0  0  0  0  0  0
   60.0350   28.6040   45.2680 C   0  0  0  0  0  0  0  0  0  0  0  0
   59.3149   29.2824   44.7871 H   0  0  0  0  0  0  0  0  0  0  0  0
   59.6371   27.5788   45.2931 H   0  0  0  0  0  0  0  0  0  0  0  0
   61.3330   28.6050   44.4690 C   0  0  0  0  0  0  0  0  0  0  0  0
   62.1889   28.6057   45.1600 H   0  0  0  0  0  0  0  0  0  0  0  0
   61.3741   27.7069   43.8352 H   0  0  0  0  0  0  0  0  0  0  0  0
   61.3727   29.5032   43.8352 H   0  0  0  0  0  0  0  0  0  0  0  0
   60.9570   30.2680   46.9110 C   0  0  0  0  0  0  0  0  0  0  0  0
   61.2883   30.8804   46.0594 H   0  0  0  0  0  0  0  0  0  0  0  0
   61.2140   30.6920   48.2210 C   0  0  0  0  0  0  0  0  0  0  0  0
   61.8930   32.0110   48.4670 C   0  0  0  0  0  0  0  0  0  0  0  0
   61.9984   32.1699   49.5503 H   0  0  0  0  0  0  0  0  0  0  0  0
   62.8856   31.9999   47.9930 H   0  0  0  0  0  0  0  0  0  0  0  0
   61.0770   33.1280   47.8770 C   0  0  0  0  0  0  0  0  0  0  0  0
   61.2680   33.5160   46.5400 C   0  0  0  0  0  0  0  0  0  0  0  0
   61.9951   32.9800   45.9122 H   0  0  0  0  0  0  0  0  0  0  0  0
   60.5370   34.5810   46.0050 C   0  0  0  0  0  0  0  0  0  0  0  0
   60.6858   34.8769   44.9561 H   0  0  0  0  0  0  0  0  0  0  0  0
   59.6180   35.2700   46.8000 C   0  0  0  0  0  0  0  0  0  0  0  0
   59.0415   36.1054   46.3760 H   0  0  0  0  0  0  0  0  0  0  0  0
   59.4310   34.8980   48.1340 C   0  0  0  0  0  0  0  0  0  0  0  0
   58.7093   35.4430   48.7601 H   0  0  0  0  0  0  0  0  0  0  0  0
   60.1600   33.8340   48.6740 C   0  0  0  0  0  0  0  0  0  0  0  0
   60.0151   33.5486   49.7264 H   0  0  0  0  0  0  0  0  0  0  0  0
   60.8030   29.9280   49.2720 N   0  0  0  0  0  0  0  0  0  0  0  0
   60.9970   30.2490   50.2470 H   0  0  0  0  0  0  0  0  0  0  0  0
   60.1590   28.7420   49.0880 C   0  0  0  0  0  0  0  0  0  0  0  0
   59.8530   28.0420   50.0920 O   0  0  0  0  0  0  0  0  0  0  0  0
   57.3590   25.7150   47.2070 N   0  0  0  0  0  0  0  0  0  0  0  0
  1  2  1  0
  2  3  1  0
  3  4  1  0
  3  5  1  0
  3  6  1  0
  6  7  1  0
  6  8  1  0
  6  9  1  0
  9 10  2  0
 10 11  1  0
 11 12  1  0
 12 13  2  3
 13 14  1  0
 14 15  2  0
 15 16  1  0
 15 17  1  0
 17 18  1  0
 17 19  2  0
 19 20  1  0
 19 21  1  0
 21 22  1  0
 21 23  2  0
 23 24  1  0
 12 25  1  0
 25 26  1  0
 26 27  2  3
 27 28  1  0
 28 29  2  0
 29 30  1  0
 30 31  1  0
 30 32  1  0
 30 33  1  0
 33 34  1  0
 33 35  1  0
 33 36  1  0
 29 37  1  0
 37 38  1  0
 37 39  2  0
 39 40  1  0
 40 41  1  0
 40 42  1  0
 40 43  1  0
 43 44  2  0
 44 45  1  0
 44 46  1  0
 46 47  1  0
 46 48  2  0
 48 49  1  0
 48 50  1  0
 50 51  1  0
 50 52  2  0
 52 53  1  0
 39 54  1  0
 54 55  1  0
 54 56  1  0
 56 57  2  0
 26 58  1  0
 58 10  1  0
 23 14  1  0
 56 28  1  0
 52 43  1  0
M  CHG  3  11  -1  25  -1  58  -1
M  END
>  <UniqueID>  (64) 
60

>  <SMILES>  (64) 
CCc1cc(Cc2ccccc2)[nH]c(=O)c1N=c1[n-]c(=Nc2ccccc2)[n-]/c(=N\CCO)[n-]1

>  <Energy>  (64) 
70.05516886050557

>  <Genealogy>  (64) 
CCc1cc(Cc2ccccc2)[nH]c(=O)c1N=c1[n-]c(=NCCO)[n-]c(=Nc2ccccc2)[n-]1 (protonated)
CCc1cc(Cc2ccccc2)[nH]c(=O)c1N=c1[n-]c(=Nc2ccccc2)[n-]/c(=N\CCO)[n-]1 (cis-trans isomerization)
CCc1cc(Cc2ccccc2)[nH]c(=O)c1N=c1[n-]c(=Nc2ccccc2)[n-]/c(=N\CCO)[n-]1 (3D coordinates assigned)
CCc1cc(Cc2ccccc2)[nH]c(=O)c1N=c1[n-]c(=Nc2ccccc2)[n-]/c(=N\CCO)[n-]1 (optimized conformer: 70.05516886050557 kcal/mol)

>  <smiles>  (64) 
CCc1cc(Cc2ccccc2)[nH]c(=O)c1N=c1[nH]c(=NCCO)[nH]c(=Nc2ccccc2)[nH]1

>  <score_type>  (64) 
oracle

>  <origin>  (64) 
adg

>  <m_score__min__energy>  (64) 
-13.99

>  <m_primary>  (64) 
energy

$$$$
64:0
     RDKit          3D

 55 58  0  0  0  0  0  0  0  0999 V2000
   59.4457   30.5403   47.8687 H   0  0  0  0  0  0  0  0  0  0  0  0
   59.1880   31.2530   48.6660 C   0  0  0  0  0  0  0  0  0  0  0  0
   59.4860   32.5510   48.5440 C   0  0  0  0  0  0  0  0  0  0  0  0
   60.3520   32.6490   47.4690 N   0  0  0  0  0  0  0  0  0  0  0  0
   61.2610   32.9380   46.8070 C   0  0  0  0  0  0  0  0  0  0  0  0
   61.0629   33.0745   45.7336 H   0  0  0  0  0  0  0  0  0  0  0  0
   62.1729   32.3411   46.6584 H   0  0  0  0  0  0  0  0  0  0  0  0
   61.1580   33.8970   47.4880 C   0  0  0  0  0  0  0  0  0  0  0  0
   61.7971   34.7160   47.1264 H   0  0  0  0  0  0  0  0  0  0  0  0
   61.4691   33.7392   48.5312 H   0  0  0  0  0  0  0  0  0  0  0  0
   58.5550   34.4890   47.2050 N   0  0  0  0  0  0  0  0  0  0  0  0
   57.9490   32.8980   46.3580 C   0  0  0  0  0  0  0  0  0  0  0  0
   56.9540   33.8330   46.2860 O   0  0  0  0  0  0  0  0  0  0  0  0
   58.4410   31.8180   45.5680 C   0  0  0  0  0  0  0  0  0  0  0  0
   58.1813   30.8349   45.9877 H   0  0  0  0  0  0  0  0  0  0  0  0
   59.5328   31.7400   45.4592 H   0  0  0  0  0  0  0  0  0  0  0  0
   57.6890   32.1280   44.3770 C   0  0  0  0  0  0  0  0  0  0  0  0
   57.8970   33.2370   43.8490 O   0  0  0  0  0  0  0  0  0  0  0  0
   56.5430   31.3450   44.1970 N   0  0  0  0  0  0  0  0  0  0  0  0
   56.4660   30.0960   44.4730 C   0  0  0  0  0  0  0  0  0  0  0  0
   55.4570   29.4390   45.0480 N   0  0  0  0  0  0  0  0  0  0  0  0
   55.8650   28.2110   45.2480 O   0  0  0  0  0  0  0  0  0  0  0  0
   57.0970   28.0510   44.8290 C   0  0  0  0  0  0  0  0  0  0  0  0
   57.8880   26.8010   44.9000 C   0  0  0  0  0  0  0  0  0  0  0  0
   58.0573   26.5335   45.9535 H   0  0  0  0  0  0  0  0  0  0  0  0
   57.3382   25.9902   44.3996 H   0  0  0  0  0  0  0  0  0  0  0  0
   58.8561   26.9508   44.3996 H   0  0  0  0  0  0  0  0  0  0  0  0
   57.5440   29.2430   44.3120 C   0  0  0  0  0  0  0  0  0  0  0  0
   58.5276   29.4668   43.8732 H   0  0  0  0  0  0  0  0  0  0  0  0
   59.6300   34.5200   46.8060 C   0  0  0  0  0  0  0  0  0  0  0  0
   60.2170   33.6724   47.1894 H   0  0  0  0  0  0  0  0  0  0  0  0
   60.1769   35.4234   47.1138 H   0  0  0  0  0  0  0  0  0  0  0  0
   59.5380   34.4690   46.0420 C   0  0  0  0  0  0  0  0  0  0  0  0
   60.2200   34.9945   45.3573 H   0  0  0  0  0  0  0  0  0  0  0  0
   58.7229   34.6200   45.3190 H   0  0  0  0  0  0  0  0  0  0  0  0
   59.2990   33.3040   49.6530 N   0  0  0  0  0  0  0  0  0  0  0  0
   58.5910   32.9330   50.7390 N   0  0  0  0  0  0  0  0  0  0  0  0
   58.3260   33.5630   51.5770 H   0  0  0  0  0  0  0  0  0  0  0  0
   58.2120   31.6510   50.8710 C   0  0  0  0  0  0  0  0  0  0  0  0
   57.4960   31.1470   51.9950 N   0  0  0  0  0  0  0  0  0  0  0  0
   56.1270   31.5170   52.3000 C   0  0  0  0  0  0  0  0  0  0  0  0
   56.0900   32.1159   53.2219 H   0  0  0  0  0  0  0  0  0  0  0  0
   55.6870   32.1254   51.4961 H   0  0  0  0  0  0  0  0  0  0  0  0
   55.3620   30.2020   52.4890 C   0  0  0  0  0  0  0  0  0  0  0  0
   54.3631   30.4324   52.8879 H   0  0  0  0  0  0  0  0  0  0  0  0
   55.3100   29.7090   51.5070 H   0  0  0  0  0  0  0  0  0  0  0  0
   55.9910   29.3280   53.3560 O   0  0  0  0  0  0  0  0  0  0  0  0
   57.3030   29.0230   53.0520 C   0  0  0  0  0  0  0  0  0  0  0  0
   57.7127   28.3965   53.8580 H   0  0  0  0  0  0  0  0  0  0  0  0
   57.3027   28.5002   52.0842 H   0  0  0  0  0  0  0  0  0  0  0  0
   58.1820   30.2550   52.9020 C   0  0  0  0  0  0  0  0  0  0  0  0
   58.3224   30.7417   53.8785 H   0  0  0  0  0  0  0  0  0  0  0  0
   59.1766   29.9867   52.5162 H   0  0  0  0  0  0  0  0  0  0  0  0
   58.5450   30.8230   49.8230 C   0  0  0  0  0  0  0  0  0  0  0  0
   58.2873   29.7568   49.9049 H   0  0  0  0  0  0  0  0  0  0  0  0
  1  2  1  0
  2  3  2  0
  3  4  1  0
  4  5  1  0
  5  6  1  0
  5  7  1  0
  5  8  1  0
  8  9  1  0
  8 10  1  0
  8 11  1  0
 11 12  1  0
 12 13  2  0
 12 14  1  0
 14 15  1  0
 14 16  1  0
 14 17  1  0
 17 18  2  0
 17 19  1  0
 19 20  2  0
 20 21  1  0
 21 22  1  0
 22 23  1  0
 23 24  1  0
 24 25  1  0
 24 26  1  0
 24 27  1  0
 23 28  2  0
 28 29  1  0
 11 30  1  0
 30 31  1  0
 30 32  1  0
 30 33  1  0
 33 34  1  0
 33 35  1  0
  3 36  1  0
 36 37  2  0
 37 38  1  0
 37 39  1  0
 39 40  1  0
 40 41  1  0
 41 42  1  0
 41 43  1  0
 41 44  1  0
 44 45  1  0
 44 46  1  0
 44 47  1  0
 47 48  1  0
 48 49  1  0
 48 50  1  0
 48 51  1  0
 51 52  1  0
 51 53  1  0
 39 54  2  0
 54 55  1  0
 54  2  1  0
 33  4  1  0
 51 40  1  0
 28 20  1  0
M  CHG  2  21  -1  37   1
M  END
>  <UniqueID>  (65) 
61

>  <SMILES>  (65) 
Cc1c/c(=N/C(=O)CC(=O)N2CCN(c3ccc(N4CCOCC4)[nH+]n3)CC2)[n-]o1

>  <Energy>  (65) 
3592.8843575831897

>  <Genealogy>  (65) 
Cc1cc(=NC(=O)CC(=O)N2CCN(c3ccc(N4CCOCC4)[nH+]n3)CC2)[n-]o1 (protonated)
Cc1c/c(=N/C(=O)CC(=O)N2CCN(c3ccc(N4CCOCC4)[nH+]n3)CC2)[n-]o1 (cis-trans isomerization)
Cc1c/c(=N/C(=O)CC(=O)N2CCN(c3ccc(N4CCOCC4)[nH+]n3)CC2)[n-]o1 (3D coordinates assigned)
Cc1c/c(=N/C(=O)CC(=O)N2CCN(c3ccc(N4CCOCC4)[nH+]n3)CC2)[n-]o1 (nonaromatic ring conformer: 3592.8843575831897 kcal/mol)

>  <smiles>  (65) 
Cc1cc(=NC(=O)CC(=O)N2CCN(c3ccc(N4CCOCC4)nn3)CC2)[nH]o1

>  <score_type>  (65) 
oracle

>  <origin>  (65) 
adg

>  <m_score__min__energy>  (65) 
-9.4499999999999993

>  <m_primary>  (65) 
energy

$$$$
65:0
     RDKit          3D

 40 42  0  0  0  0  0  0  0  0999 V2000
   57.8400   31.9670   42.3420 C   0  0  0  0  0  0  0  0  0  0  0  0
   56.9650   31.1630   43.3020 C   0  0  0  0  0  0  0  0  0  0  0  0
   57.6870   30.8600   44.5550 N   0  0  0  0  0  0  0  0  0  0  0  0
   57.7580   31.7820   45.5890 C   0  0  0  0  0  0  0  0  0  0  0  0
   57.0530   33.4360   45.4590 S   0  0  0  0  0  0  0  0  0  0  0  0
   58.5480   34.1900   44.7230 C   0  0  0  0  0  0  0  0  0  0  0  0
   59.5920   34.4210   45.7730 C   0  0  0  0  0  0  0  0  0  0  0  0
   59.8400   35.5980   46.1480 O   0  0  0  0  0  0  0  0  0  0  0  0
   60.3400   33.3120   46.2960 N   0  0  0  0  0  0  0  0  0  0  0  0
   61.4550   33.4470   47.1930 C   0  0  0  0  0  0  0  0  0  0  0  0
   62.7700   33.2300   46.7510 C   0  0  0  0  0  0  0  0  0  0  0  0
   63.8440   33.4100   47.6240 C   0  0  0  0  0  0  0  0  0  0  0  0
   63.5980   33.8060   48.9380 C   0  0  0  0  0  0  0  0  0  0  0  0
   62.3230   34.0240   49.3540 N   0  0  0  0  0  0  0  0  0  0  0  0
   61.2560   33.8610   48.5270 C   0  0  0  0  0  0  0  0  0  0  0  0
   59.6460   34.1550   49.1660 Cl  0  0  0  0  0  0  0  0  0  0  0  0
   58.3800   31.4610   46.7610 N   0  0  0  0  0  0  0  0  0  0  0  0
   58.9640   30.2530   46.9160 C   0  0  0  0  0  0  0  0  0  0  0  0
   58.9370   29.3340   45.8960 C   0  0  0  0  0  0  0  0  0  0  0  0
   59.7440   27.9350   46.3750 S   0  0  0  0  0  0  0  0  0  0  0  0
   60.1040   28.5960   47.8920 C   0  0  0  0  0  0  0  0  0  0  0  0
   60.7340   27.9830   48.7930 O   0  0  0  0  0  0  0  0  0  0  0  0
   59.6260   29.8600   48.0360 N   0  0  0  0  0  0  0  0  0  0  0  0
   59.7760   30.6770   49.2420 C   0  0  0  0  0  0  0  0  0  0  0  0
   58.3070   29.6350   44.6960 C   0  0  0  0  0  0  0  0  0  0  0  0
   58.3110   28.7900   43.7600 O   0  0  0  0  0  0  0  0  0  0  0  0
   58.5299   32.6009   42.9183 H   0  0  0  0  0  0  0  0  0  0  0  0
   58.4178   31.2781   41.7082 H   0  0  0  0  0  0  0  0  0  0  0  0
   57.2024   32.6008   41.7082 H   0  0  0  0  0  0  0  0  0  0  0  0
   56.0630   31.7461   43.5394 H   0  0  0  0  0  0  0  0  0  0  0  0
   56.6957   30.2135   42.8163 H   0  0  0  0  0  0  0  0  0  0  0  0
   58.9519   33.5157   43.9535 H   0  0  0  0  0  0  0  0  0  0  0  0
   58.2745   35.1568   44.2752 H   0  0  0  0  0  0  0  0  0  0  0  0
   60.1370   32.3670   45.8990 H   0  0  0  0  0  0  0  0  0  0  0  0
   62.9544   32.9169   45.7127 H   0  0  0  0  0  0  0  0  0  0  0  0
   64.8746   33.2411   47.2787 H   0  0  0  0  0  0  0  0  0  0  0  0
   64.4358   33.9419   49.6377 H   0  0  0  0  0  0  0  0  0  0  0  0
   59.6593   30.0415   50.1322 H   0  0  0  0  0  0  0  0  0  0  0  0
   60.7741   31.1394   49.2498 H   0  0  0  0  0  0  0  0  0  0  0  0
   59.0073   31.4638   49.2498 H   0  0  0  0  0  0  0  0  0  0  0  0
  1  2  1  0
  2  3  1  0
  3  4  1  0
  4  5  1  0
  5  6  1  0
  6  7  1  0
  7  8  2  0
  7  9  1  0
  9 10  1  0
 10 11  2  0
 11 12  1  0
 12 13  2  0
 13 14  1  0
 14 15  2  0
 15 16  1  0
  4 17  2  0
 17 18  1  0
 18 19  2  0
 19 20  1  0
 20 21  1  0
 21 22  2  0
 21 23  1  0
 23 24  1  0
 19 25  1  0
 25 26  2  0
 25  3  1  0
 15 10  1  0
 23 18  1  0
  1 27  1  0
  1 28  1  0
  1 29  1  0
  2 30  1  0
  2 31  1  0
  6 32  1  0
  6 33  1  0
  9 34  1  0
 11 35  1  0
 12 36  1  0
 13 37  1  0
 24 38  1  0
 24 39  1  0
 24 40  1  0
M  END
>  <UniqueID>  (66) 
62

>  <SMILES>  (66) 
CCn1c(SCC(=O)Nc2cccnc2Cl)nc2c(sc(=O)n2C)c1=O

>  <Energy>  (66) 
81.06901881210922

>  <Genealogy>  (66) 
CCn1c(SCC(=O)Nc2cccnc2Cl)nc2c(sc(=O)n2C)c1=O (3D coordinates assigned)
CCn1c(SCC(=O)Nc2cccnc2Cl)nc2c(sc(=O)n2C)c1=O (optimized conformer: 81.06901881210922 kcal/mol)

>  <smiles>  (66) 
CCn1c(SCC(=O)Nc2cccnc2Cl)nc2c(sc(=O)n2C)c1=O

>  <score_type>  (66) 
oracle

>  <origin>  (66) 
adg

>  <m_score__min__energy>  (66) 
-7.2699999999999996

>  <m_primary>  (66) 
energy

$$$$
66:0
     RDKit          2D

 85 89  0  0  1  0  0  0  0  0999 V2000
    3.7500   -1.2990    0.0000 C   0  0  0  0  0  0  0  0  0  0  0  0
    3.0000    0.0000    0.0000 O   0  0  0  0  0  0  0  0  0  0  0  0
    1.5000    0.0000    0.0000 C   0  0  0  0  0  0  0  0  0  0  0  0
    0.7500   -1.2990    0.0000 C   0  0  0  0  0  0  0  0  0  0  0  0
   -0.7500   -1.2990    0.0000 C   0  0  0  0  0  0  0  0  0  0  0  0
   -1.5000    0.0000    0.0000 C   0  0  0  0  0  0  0  0  0  0  0  0
   -3.0000    0.0000    0.0000 C   0  0  0  0  0  0  0  0  0  0  0  0
   -4.5000    0.0000    0.0000 S   0  0  0  0  0  0  0  0  0  0  0  0
   -5.2500   -1.2990    0.0000 C   0  0  0  0  0  0  0  0  0  0  0  0
   -6.7500   -1.2990    0.0000 N   0  0  0  0  0  0  0  0  0  0  0  0
   -7.5000   -2.5981    0.0000 C   0  0  0  0  0  0  0  0  0  0  0  0
   -9.0000   -2.5981    0.0000 N   0  0  0  0  0  0  0  0  0  0  0  0
   -9.7500   -1.2990    0.0000 S   0  0  0  0  0  0  0  0  0  0  0  0
   -8.4510   -0.5490    0.0000 O   0  0  0  0  0  0  0  0  0  0  0  0
  -11.0490   -2.0490    0.0000 O   0  0  0  0  0  0  0  0  0  0  0  0
  -10.5000   -0.0000    0.0000 C   0  0  0  0  0  0  0  0  0  0  0  0
   -9.7500    1.2990    0.0000 C   0  0  0  0  0  0  0  0  0  0  0  0
  -10.5000    2.5981    0.0000 C   0  0  0  0  0  0  0  0  0  0  0  0
  -12.0000    2.5981    0.0000 C   0  0  0  0  0  0  0  0  0  0  0  0
  -12.7500    3.8971    0.0000 C   0  0  0  0  0  0  0  0  0  0  0  0
  -12.7500    1.2990    0.0000 C   0  0  0  0  0  0  0  0  0  0  0  0
  -12.0000    0.0000    0.0000 C   0  0  0  0  0  0  0  0  0  0  0  0
   -6.7500   -3.8971    0.0000 C   0  0  0  0  0  0  0  0  0  0  0  0
   -7.5000   -5.1962    0.0000 O   0  0  0  0  0  0  0  0  0  0  0  0
   -9.0000   -5.1962    0.0000 C   0  0  0  0  0  0  0  0  0  0  0  0
   -9.7500   -3.8971    0.0000 C   0  0  0  0  0  0  0  0  0  0  0  0
  -11.2500   -3.8971    0.0000 C   0  0  0  0  0  0  0  0  0  0  0  0
  -12.0000   -5.1962    0.0000 C   0  0  0  0  0  0  0  0  0  0  0  0
  -11.2500   -6.4952    0.0000 C   0  0  0  0  0  0  0  0  0  0  0  0
   -9.7500   -6.4952    0.0000 C   0  0  0  0  0  0  0  0  0  0  0  0
   -9.0000   -7.7942    0.0000 O   0  0  0  0  0  0  0  0  0  0  0  0
   -9.7500   -9.0933    0.0000 C   0  0  0  0  0  0  0  0  0  0  0  0
   -5.2500   -3.8971    0.0000 C   0  0  0  0  0  0  0  0  0  0  0  0
   -4.5000   -5.1962    0.0000 O   0  0  0  0  0  0  0  0  0  0  0  0
   -3.0000   -5.1962    0.0000 C   0  0  0  0  0  0  0  0  0  0  0  0
   -1.5000   -5.1962    0.0000 C   0  0  0  0  0  0  0  0  0  0  0  0
   -0.7500   -3.8971    0.0000 O   0  0  0  0  0  0  0  0  0  0  0  0
   -0.7500   -6.4952    0.0000 N   0  0  0  0  0  0  0  0  0  0  0  0
   -1.5000   -7.7942    0.0000 C   0  0  0  0  0  0  0  0  0  0  0  0
   -2.2500   -9.0933    0.0000 C   0  0  0  0  0  0  0  0  0  0  0  0
   -3.0000  -10.3923    0.0000 C   0  0  0  0  0  0  0  0  0  0  0  0
   -4.5000  -10.3923    0.0000 C   0  0  0  0  0  0  0  0  0  0  0  0
   -5.2500  -11.6913    0.0000 C   0  0  0  0  0  0  0  0  0  0  0  0
   -4.5000  -12.9904    0.0000 C   0  0  0  0  0  0  0  0  0  0  0  0
   -3.0000  -12.9904    0.0000 C   0  0  0  0  0  0  0  0  0  0  0  0
   -2.2500  -11.6913    0.0000 C   0  0  0  0  0  0  0  0  0  0  0  0
   -4.5000   -2.5981    0.0000 N   0  0  0  0  0  0  0  0  0  0  0  0
   -0.7500    1.2990    0.0000 C   0  0  0  0  0  0  0  0  0  0  0  0
    0.7500    1.2990    0.0000 C   0  0  0  0  0  0  0  0  0  0  0  0
    5.0490   -0.5490    0.0000 H   0  0  0  0  0  0  0  0  0  0  0  0
    2.4510   -2.0490    0.0000 H   0  0  0  0  0  0  0  0  0  0  0  0
    4.5000   -2.5981    0.0000 H   0  0  0  0  0  0  0  0  0  0  0  0
    1.5000   -2.5981    0.0000 H   0  0  0  0  0  0  0  0  0  0  0  0
   -1.5000   -2.5981    0.0000 H   0  0  0  0  0  0  0  0  0  0  0  0
   -3.0000   -1.5000    0.0000 H   0  0  0  0  0  0  0  0  0  0  0  0
   -3.0000    1.5000    0.0000 H   0  0  0  0  0  0  0  0  0  0  0  0
   -8.2500    1.2990    0.0000 H   0  0  0  0  0  0  0  0  0  0  0  0
   -9.7500    3.8971    0.0000 H   0  0  0  0  0  0  0  0  0  0  0  0
  -14.0490    3.1471    0.0000 H   0  0  0  0  0  0  0  0  0  0  0  0
  -11.4510    4.6471    0.0000 H   0  0  0  0  0  0  0  0  0  0  0  0
  -13.5000    5.1962    0.0000 H   0  0  0  0  0  0  0  0  0  0  0  0
  -14.2500    1.2990    0.0000 H   0  0  0  0  0  0  0  0  0  0  0  0
  -12.7500   -1.2990    0.0000 H   0  0  0  0  0  0  0  0  0  0  0  0
   -9.5303   -3.1308    0.0000 H   0  0  0  0  0  0  0  0  0  0  0  0
  -12.0000   -2.5981    0.0000 H   0  0  0  0  0  0  0  0  0  0  0  0
  -13.5000   -5.1962    0.0000 H   0  0  0  0  0  0  0  0  0  0  0  0
  -12.0000   -7.7942    0.0000 H   0  0  0  0  0  0  0  0  0  0  0  0
   -8.4510   -9.8433    0.0000 H   0  0  0  0  0  0  0  0  0  0  0  0
  -11.0490   -8.3433    0.0000 H   0  0  0  0  0  0  0  0  0  0  0  0
  -10.5000  -10.3923    0.0000 H   0  0  0  0  0  0  0  0  0  0  0  0
   -3.0000   -6.6962    0.0000 H   0  0  0  0  0  0  0  0  0  0  0  0
   -3.0000   -3.6962    0.0000 H   0  0  0  0  0  0  0  0  0  0  0  0
    0.7500   -6.4952    0.0000 H   0  0  0  0  0  0  0  0  0  0  0  0
   -0.3021   -8.6970    0.0000 H   0  0  0  0  0  0  0  0  0  0  0  0
   -0.1192   -8.3803    0.0000 H   0  0  0  0  0  0  0  0  0  0  0  0
   -0.9510   -9.8433    0.0000 H   0  0  0  0  0  0  0  0  0  0  0  0
   -3.5490   -8.3433    0.0000 H   0  0  0  0  0  0  0  0  0  0  0  0
   -5.2500   -9.0933    0.0000 H   0  0  0  0  0  0  0  0  0  0  0  0
   -6.7500  -11.6913    0.0000 H   0  0  0  0  0  0  0  0  0  0  0  0
   -5.2500  -14.2894    0.0000 H   0  0  0  0  0  0  0  0  0  0  0  0
   -2.2500  -14.2894    0.0000 H   0  0  0  0  0  0  0  0  0  0  0  0
   -0.7500  -11.6913    0.0000 H   0  0  0  0  0  0  0  0  0  0  0  0
   -3.0000   -2.5981    0.0000 H   0  0  0  0  0  0  0  0  0  0  0  0
   -1.5000    2.5981    0.0000 H   0  0  0  0  0  0  0  0  0  0  0  0
    1.5000    2.5981    0.0000 H   0  0  0  0  0  0  0  0  0  0  0  0
  1  2  1  0
  2  3  1  0
  3  4  2  0
  4  5  1  0
  5  6  2  0
  6  7  1  0
  7  8  1  0
  8  9  1  0
  9 10  2  0
 10 11  1  0
 11 12  2  0
 12 13  1  0
 13 14  2  0
 13 15  2  0
 13 16  1  0
 16 17  2  0
 17 18  1  0
 18 19  2  0
 19 20  1  0
 19 21  1  0
 21 22  2  0
 11 23  1  0
 23 24  1  0
 24 25  1  0
 25 26  2  0
 26 27  1  0
 27 28  2  0
 28 29  1  0
 29 30  2  0
 30 31  1  0
 31 32  1  0
 23 33  2  0
 33 34  1  0
 34 35  1  0
 35 36  1  0
 36 37  2  0
 36 38  1  0
 38 39  1  0
 39 40  1  0
 40 41  1  0
 41 42  2  0
 42 43  1  0
 43 44  2  0
 44 45  1  0
 45 46  2  0
 33 47  1  0
  6 48  1  0
 48 49  2  0
 49  3  1  0
 47  9  1  0
 22 16  1  0
 30 25  1  0
 46 41  1  0
  1 50  1  0
  1 51  1  0
  1 52  1  0
  4 53  1  0
  5 54  1  0
  7 55  1  0
  7 56  1  0
 17 57  1  0
 18 58  1  0
 20 59  1  0
 20 60  1  0
 20 61  1  0
 21 62  1  0
 22 63  1  0
 26 64  1  0
 27 65  1  0
 28 66  1  0
 29 67  1  0
 32 68  1  0
 32 69  1  0
 32 70  1  0
 35 71  1  0
 35 72  1  0
 38 73  1  0
 39 74  1  0
 39 75  1  0
 40 76  1  0
 40 77  1  0
 42 78  1  0
 43 79  1  0
 44 80  1  0
 45 81  1  0
 46 82  1  0
 47 83  1  0
 48 84  1  0
 49 85  1  0
M  END
>  <smiles>  (67) 
COc1ccc(CSc2nc(=NS(=O)(=O)c3ccc(C)cc3)c(Oc3ccccc3OC)c(OCC(=O)NCCc3ccccc3)[nH]2)cc1

>  <m_score__min__energy>  (67) 
nan

>  <m_primary>  (67) 
energy

$$$$
67:0
     RDKit          3D

 58 61  0  0  0  0  0  0  0  0999 V2000
   54.3630   26.7120   46.8340 H   0  0  0  0  0  0  0  0  0  0  0  0
   54.3900   26.2180   45.9520 O   0  0  0  0  0  0  0  0  0  0  0  0
   54.1990   24.8390   45.8480 C   0  0  0  0  0  0  0  0  0  0  0  0
   52.9860   24.3800   45.4410 N   0  0  0  0  0  0  0  0  0  0  0  0
   52.7450   23.0530   45.3000 C   0  0  0  0  0  0  0  0  0  0  0  0
   51.6120   22.6580   44.9230 O   0  0  0  0  0  0  0  0  0  0  0  0
   53.7270   22.1520   45.5610 N   0  0  0  0  0  0  0  0  0  0  0  0
   54.9560   22.5530   45.9730 C   0  0  0  0  0  0  0  0  0  0  0  0
   55.8430   21.6880   46.2050 O   0  0  0  0  0  0  0  0  0  0  0  0
   55.2260   23.9190   46.1480 C   0  0  0  0  0  0  0  0  0  0  0  0
   56.5720   24.3600   46.5600 C   0  0  0  0  0  0  0  0  0  0  0  0
   56.9774   23.9289   47.4872 H   0  0  0  0  0  0  0  0  0  0  0  0
   57.3510   25.2440   45.9030 C   0  0  0  0  0  0  0  0  0  0  0  0
   57.1830   25.5210   44.5590 C   0  0  0  0  0  0  0  0  0  0  0  0
   56.4573   25.0500   43.8797 H   0  0  0  0  0  0  0  0  0  0  0  0
   58.0960   26.4980   44.2320 C   0  0  0  0  0  0  0  0  0  0  0  0
   58.2060   27.1310   42.8770 C   0  0  0  0  0  0  0  0  0  0  0  0
   58.3933   28.2090   42.9900 H   0  0  0  0  0  0  0  0  0  0  0  0
   59.0376   26.6704   42.3235 H   0  0  0  0  0  0  0  0  0  0  0  0
   57.2678   26.9779   42.3235 H   0  0  0  0  0  0  0  0  0  0  0  0
   58.8310   26.8460   45.3130 N   0  0  0  0  0  0  0  0  0  0  0  0
   59.8870   27.8720   45.3180 C   0  0  0  0  0  0  0  0  0  0  0  0
   60.5862   27.6634   46.1411 H   0  0  0  0  0  0  0  0  0  0  0  0
   60.4079   27.8408   44.3497 H   0  0  0  0  0  0  0  0  0  0  0  0
   59.3050   29.2530   45.5040 C   0  0  0  0  0  0  0  0  0  0  0  0
   59.3900   29.8900   46.7520 C   0  0  0  0  0  0  0  0  0  0  0  0
   59.8630   29.3705   47.5984 H   0  0  0  0  0  0  0  0  0  0  0  0
   58.8790   31.1780   46.9280 C   0  0  0  0  0  0  0  0  0  0  0  0
   58.9482   31.6630   47.9129 H   0  0  0  0  0  0  0  0  0  0  0  0
   58.2760   31.8600   45.8540 C   0  0  0  0  0  0  0  0  0  0  0  0
   57.7400   33.2290   46.0410 C   0  0  0  0  0  0  0  0  0  0  0  0
   56.8700   33.4510   46.9280 O   0  0  0  0  0  0  0  0  0  0  0  0
   58.2120   34.3050   45.2220 N   0  0  0  0  0  0  0  0  0  0  0  0
   59.3520   35.1480   45.5700 C   0  0  0  0  0  0  0  0  0  0  0  0
   59.9930   35.2751   44.6852 H   0  0  0  0  0  0  0  0  0  0  0  0
   58.9830   36.1265   45.9112 H   0  0  0  0  0  0  0  0  0  0  0  0
   60.1520   34.5130   46.6760 C   0  0  0  0  0  0  0  0  0  0  0  0
   59.7190   34.6200   48.0060 C   0  0  0  0  0  0  0  0  0  0  0  0
   58.8027   35.1820   48.2396 H   0  0  0  0  0  0  0  0  0  0  0  0
   60.4460   34.0160   49.0360 C   0  0  0  0  0  0  0  0  0  0  0  0
   60.1065   34.1153   50.0776 H   0  0  0  0  0  0  0  0  0  0  0  0
   61.6080   33.2830   48.7460 C   0  0  0  0  0  0  0  0  0  0  0  0
   62.4070   32.6660   49.8550 C   0  0  0  0  0  0  0  0  0  0  0  0
   61.9953   32.9839   50.8243 H   0  0  0  0  0  0  0  0  0  0  0  0
   62.3569   31.5699   49.7771 H   0  0  0  0  0  0  0  0  0  0  0  0
   63.4548   32.9916   49.7771 H   0  0  0  0  0  0  0  0  0  0  0  0
   62.0460   33.1840   47.4170 C   0  0  0  0  0  0  0  0  0  0  0  0
   62.9659   32.6278   47.1838 H   0  0  0  0  0  0  0  0  0  0  0  0
   61.3200   33.7880   46.3890 C   0  0  0  0  0  0  0  0  0  0  0  0
   61.6647   33.6956   45.3485 H   0  0  0  0  0  0  0  0  0  0  0  0
   58.1970   31.2230   44.6050 C   0  0  0  0  0  0  0  0  0  0  0  0
   57.7259   31.7418   43.7571 H   0  0  0  0  0  0  0  0  0  0  0  0
   58.7120   29.9350   44.4300 C   0  0  0  0  0  0  0  0  0  0  0  0
   58.6520   29.4525   43.4433 H   0  0  0  0  0  0  0  0  0  0  0  0
   58.4070   26.0620   46.3450 C   0  0  0  0  0  0  0  0  0  0  0  0
   58.9840   26.0520   47.5590 C   0  0  0  0  0  0  0  0  0  0  0  0
   59.8072   26.7466   47.7824 H   0  0  0  0  0  0  0  0  0  0  0  0
   58.6330   25.3492   48.3290 H   0  0  0  0  0  0  0  0  0  0  0  0
  1  2  1  0
  2  3  1  0
  3  4  1  0
  4  5  1  0
  5  6  2  0
  5  7  1  0
  7  8  1  0
  8  9  2  0
  8 10  1  0
 10 11  1  0
 11 12  1  0
 11 13  2  0
 13 14  1  0
 14 15  1  0
 14 16  2  0
 16 17  1  0
 17 18  1  0
 17 19  1  0
 17 20  1  0
 16 21  1  0
 21 22  1  0
 22 23  1  0
 22 24  1  0
 22 25  1  0
 25 26  2  0
 26 27  1  0
 26 28  1  0
 28 29  1  0
 28 30  2  0
 30 31  1  0
 31 32  2  0
 31 33  1  0
 33 34  1  0
 34 35  1  0
 34 36  1  0
 34 37  1  0
 37 38  2  0
 38 39  1  0
 38 40  1  0
 40 41  1  0
 40 42  2  0
 42 43  1  0
 43 44  1  0
 43 45  1  0
 43 46  1  0
 42 47  1  0
 47 48  1  0
 47 49  2  0
 49 50  1  0
 30 51  1  0
 51 52  1  0
 51 53  2  0
 53 54  1  0
 21 55  1  0
 55 56  2  0
 56 57  1  0
 56 58  1  0
 10  3  2  0
 55 13  1  0
 53 25  1  0
 49 37  1  0
M  CHG  3   4  -1   7  -1  33  -1
M  END
>  <UniqueID>  (68) 
63

>  <SMILES>  (68) 
C=c1/c(=C\c2c(O)[n-]c(=O)[n-]c2=O)cc(C)n1Cc1ccc(C(=O)[N-]Cc2ccc(C)cc2)cc1

>  <Energy>  (68) 
103.38205151426821

>  <Genealogy>  (68) 
C=c1c(=Cc2c(O)[n-]c(=O)[n-]c2=O)cc(C)n1Cc1ccc(C(=O)[N-]Cc2ccc(C)cc2)cc1 (protonated)
C=c1/c(=C\c2c(O)[n-]c(=O)[n-]c2=O)cc(C)n1Cc1ccc(C(=O)[N-]Cc2ccc(C)cc2)cc1 (cis-trans isomerization)
C=c1/c(=C\c2c(O)[n-]c(=O)[n-]c2=O)cc(C)n1Cc1ccc(C(=O)[N-]Cc2ccc(C)cc2)cc1 (3D coordinates assigned)
C=c1/c(=C\c2c(O)[n-]c(=O)[n-]c2=O)cc(C)n1Cc1ccc(C(=O)[N-]Cc2ccc(C)cc2)cc1 (optimized conformer: 103.38205151426821 kcal/mol)

>  <smiles>  (68) 
C=c1c(=Cc2c(O)[nH]c(=O)[nH]c2=O)cc(C)n1Cc1ccc(C(=O)NCc2ccc(C)cc2)cc1

>  <score_type>  (68) 
oracle

>  <origin>  (68) 
adg

>  <m_score__min__energy>  (68) 
-15.34

>  <m_primary>  (68) 
energy

$$$$
68:0
     RDKit          3D

 30 31  0  0  0  0  0  0  0  0999 V2000
   55.1080   29.6440   44.7590 N   0  0  0  0  0  0  0  0  0  0  0  0
   56.2420   30.3740   44.2920 C   0  0  0  0  0  0  0  0  0  0  0  0
   56.3890   31.5800   44.6250 O   0  0  0  0  0  0  0  0  0  0  0  0
   57.2420   29.7290   43.3810 C   0  0  0  0  0  0  0  0  0  0  0  0
   58.7770   29.3340   44.2890 S   0  0  0  0  0  0  0  0  0  0  0  0
   58.0720   27.9500   45.1790 C   0  0  0  0  0  0  0  0  0  0  0  0
   58.8850   27.0620   45.8050 N   0  0  0  0  0  0  0  0  0  0  0  0
   58.3730   26.0060   46.4880 C   0  0  0  0  0  0  0  0  0  0  0  0
   59.1530   25.2030   47.0650 O   0  0  0  0  0  0  0  0  0  0  0  0
   56.9870   25.8100   46.5420 C   0  0  0  0  0  0  0  0  0  0  0  0
   56.4550   24.7010   47.2810 N   0  0  0  0  0  0  0  0  0  0  0  0
   56.8100   23.3260   47.0910 C   0  0  0  0  0  0  0  0  0  0  0  0
   57.1140   22.6070   48.0810 O   0  0  0  0  0  0  0  0  0  0  0  0
   56.7670   22.7470   45.7360 C   0  0  0  0  0  0  0  0  0  0  0  0
   56.5140   23.5470   44.6080 C   0  0  0  0  0  0  0  0  0  0  0  0
   56.4810   22.9560   43.3420 C   0  0  0  0  0  0  0  0  0  0  0  0
   56.6980   21.5850   43.2090 C   0  0  0  0  0  0  0  0  0  0  0  0
   56.9470   20.8190   44.3490 C   0  0  0  0  0  0  0  0  0  0  0  0
   56.9750   21.4100   45.5730 N   0  0  0  0  0  0  0  0  0  0  0  0
   56.1640   26.7620   45.9140 C   0  0  0  0  0  0  0  0  0  0  0  0
   54.7790   26.6830   46.0020 O   0  0  0  0  0  0  0  0  0  0  0  0
   56.7250   27.7990   45.2400 N   0  0  0  0  0  0  0  0  0  0  0  0
   54.4060   30.1020   45.3800 H   0  0  0  0  0  0  0  0  0  0  0  0
   54.9600   28.6490   44.4760 H   0  0  0  0  0  0  0  0  0  0  0  0
   56.8141   28.8013   42.9733 H   0  0  0  0  0  0  0  0  0  0  0  0
   57.4817   30.4276   42.5658 H   0  0  0  0  0  0  0  0  0  0  0  0
   56.3436   24.6279   44.7208 H   0  0  0  0  0  0  0  0  0  0  0  0
   56.2841   23.5714   42.4518 H   0  0  0  0  0  0  0  0  0  0  0  0
   56.6732   21.1121   42.2161 H   0  0  0  0  0  0  0  0  0  0  0  0
   57.1206   19.7367   44.2570 H   0  0  0  0  0  0  0  0  0  0  0  0
  1  2  1  0
  2  3  2  0
  2  4  1  0
  4  5  1  0
  5  6  1  0
  6  7  2  0
  7  8  1  0
  8  9  2  0
  8 10  1  0
 10 11  1  0
 11 12  1  0
 12 13  2  0
 12 14  1  0
 14 15  2  0
 15 16  1  0
 16 17  2  0
 17 18  1  0
 18 19  2  0
 10 20  2  0
 20 21  1  0
 20 22  1  0
 22  6  1  0
 19 14  1  0
  1 23  1  0
  1 24  1  0
  4 25  1  0
  4 26  1  0
 15 27  1  0
 16 28  1  0
 17 29  1  0
 18 30  1  0
M  CHG  3  11  -1  21  -1  22  -1
M  END
>  <UniqueID>  (69) 
64

>  <SMILES>  (69) 
NC(=O)CSc1nc(=O)c([N-]C(=O)c2ccccn2)c([O-])[n-]1

>  <Energy>  (69) 
31.867734979730997

>  <Genealogy>  (69) 
NC(=O)CSc1nc(=O)c([N-]C(=O)c2ccccn2)c([O-])[n-]1 (protonated)
NC(=O)CSc1nc(=O)c([N-]C(=O)c2ccccn2)c([O-])[n-]1 (3D coordinates assigned)
NC(=O)CSc1nc(=O)c([N-]C(=O)c2ccccn2)c([O-])[n-]1 (optimized conformer: 31.867734979730997 kcal/mol)

>  <smiles>  (69) 
NC(=O)CSc1nc(=O)c(NC(=O)c2ccccn2)c(O)[nH]1

>  <score_type>  (69) 
oracle

>  <origin>  (69) 
adg

>  <m_score__min__energy>  (69) 
-14.98

>  <m_primary>  (69) 
energy

$$$$
69:0
     RDKit          3D

 52 54  0  0  0  0  0  0  0  0999 V2000
   57.5180   31.3460   44.8220 C   0  0  0  0  0  0  0  0  0  0  0  0
   58.1410   31.4040   46.1870 C   0  0  0  0  0  0  0  0  0  0  0  0
   58.6020   30.2450   46.7960 C   0  0  0  0  0  0  0  0  0  0  0  0
   59.2140   30.2750   48.0600 C   0  0  0  0  0  0  0  0  0  0  0  0
   59.7710   28.9540   48.5330 C   0  0  0  0  0  0  0  0  0  0  0  0
   59.2770   31.5100   48.8060 C   0  0  0  0  0  0  0  0  0  0  0  0
   59.6620   31.5430   50.3310 C   0  0  2  0  0  0  0  0  0  0  0  0
   61.1870   31.8790   50.4620 C   0  0  0  0  0  0  0  0  0  0  0  0
   62.1560   30.8280   49.8670 C   0  0  0  0  0  0  0  0  0  0  0  0
   63.0880   31.3850   48.8630 N   0  0  0  0  0  0  0  0  0  0  0  0
   62.6400   31.3740   47.4560 C   0  0  0  0  0  0  0  0  0  0  0  0
   62.0820   32.7280   47.0000 C   0  0  0  0  0  0  0  0  0  0  0  0
   63.0720   33.8510   47.3040 C   0  0  0  0  0  0  0  0  0  0  0  0
   63.4020   33.8850   48.7940 C   0  0  0  0  0  0  0  0  0  0  0  0
   63.9290   32.5270   49.2810 C   0  0  0  0  0  0  0  0  0  0  0  0
   59.2980   30.2160   51.0060 C   0  0  0  0  0  0  0  0  0  0  0  0
   60.1770   29.3810   51.3450 O   0  0  0  0  0  0  0  0  0  0  0  0
   57.9220   29.8970   51.2420 N   0  0  0  0  0  0  0  0  0  0  0  0
   56.9590   30.9470   51.2950 C   0  0  0  0  0  0  0  0  0  0  0  0
   55.7350   30.6790   51.4090 O   0  0  0  0  0  0  0  0  0  0  0  0
   57.4070   32.3010   51.2770 N   0  0  0  0  0  0  0  0  0  0  0  0
   58.8000   32.5670   51.0780 C   0  0  0  0  0  0  0  0  0  0  0  0
   59.2840   33.6500   51.5080 O   0  0  0  0  0  0  0  0  0  0  0  0
   58.9900   32.7120   48.0590 C   0  0  0  0  0  0  0  0  0  0  0  0
   59.2970   34.1160   48.5280 C   0  0  0  0  0  0  0  0  0  0  0  0
   58.3820   32.6280   46.7950 C   0  0  0  0  0  0  0  0  0  0  0  0
   56.4272   31.2444   44.9208 H   0  0  0  0  0  0  0  0  0  0  0  0
   57.7520   32.2698   44.2726 H   0  0  0  0  0  0  0  0  0  0  0  0
   57.9185   30.4813   44.2726 H   0  0  0  0  0  0  0  0  0  0  0  0
   58.4855   29.2819   46.2774 H   0  0  0  0  0  0  0  0  0  0  0  0
   59.7800   28.9326   49.6328 H   0  0  0  0  0  0  0  0  0  0  0  0
   59.1418   28.1345   48.1554 H   0  0  0  0  0  0  0  0  0  0  0  0
   60.7970   28.8324   48.1554 H   0  0  0  0  0  0  0  0  0  0  0  0
   61.3683   32.8353   49.9495 H   0  0  0  0  0  0  0  0  0  0  0  0
   61.3979   31.9066   51.5412 H   0  0  0  0  0  0  0  0  0  0  0  0
   62.7467   30.3953   50.6879 H   0  0  0  0  0  0  0  0  0  0  0  0
   61.5402   30.0750   49.3534 H   0  0  0  0  0  0  0  0  0  0  0  0
   63.4961   31.1132   46.8165 H   0  0  0  0  0  0  0  0  0  0  0  0
   61.8287   30.6359   47.3722 H   0  0  0  0  0  0  0  0  0  0  0  0
   61.8952   32.6950   45.9165 H   0  0  0  0  0  0  0  0  0  0  0  0
   61.1461   32.9254   47.5432 H   0  0  0  0  0  0  0  0  0  0  0  0
   63.9966   33.6829   46.7323 H   0  0  0  0  0  0  0  0  0  0  0  0
   62.6185   34.8116   47.0184 H   0  0  0  0  0  0  0  0  0  0  0  0
   64.1695   34.6523   48.9734 H   0  0  0  0  0  0  0  0  0  0  0  0
   62.4808   34.1184   49.3480 H   0  0  0  0  0  0  0  0  0  0  0  0
   64.9413   32.3807   48.8763 H   0  0  0  0  0  0  0  0  0  0  0  0
   63.9195   32.5511   50.3807 H   0  0  0  0  0  0  0  0  0  0  0  0
   56.7500   33.0760   51.5210 H   0  0  0  0  0  0  0  0  0  0  0  0
   59.3027   34.1422   49.6277 H   0  0  0  0  0  0  0  0  0  0  0  0
   60.2832   34.4218   48.1488 H   0  0  0  0  0  0  0  0  0  0  0  0
   58.5284   34.8055   48.1488 H   0  0  0  0  0  0  0  0  0  0  0  0
   58.0906   33.5530   46.2759 H   0  0  0  0  0  0  0  0  0  0  0  0
  1  2  1  0
  2  3  2  0
  3  4  1  0
  4  5  1  0
  4  6  2  0
  6  7  1  0
  7  8  1  6
  8  9  1  0
  9 10  1  0
 10 11  1  0
 11 12  1  0
 12 13  1  0
 13 14  1  0
 14 15  1  0
  7 16  1  0
 16 17  2  0
 16 18  1  0
 18 19  1  0
 19 20  2  0
 19 21  1  0
 21 22  1  0
 22 23  2  0
  6 24  1  0
 24 25  1  0
 24 26  2  0
 26  2  1  0
 22  7  1  0
 15 10  1  0
  1 27  1  0
  1 28  1  0
  1 29  1  0
  3 30  1  0
  5 31  1  0
  5 32  1  0
  5 33  1  0
  8 34  1  0
  8 35  1  0
  9 36  1  0
  9 37  1  0
 11 38  1  0
 11 39  1  0
 12 40  1  0
 12 41  1  0
 13 42  1  0
 13 43  1  0
 14 44  1  0
 14 45  1  0
 15 46  1  0
 15 47  1  0
 21 48  1  0
 25 49  1  0
 25 50  1  0
 25 51  1  0
 26 52  1  0
M  CHG  1  18  -1
M  END
>  <UniqueID>  (70) 
65

>  <SMILES>  (70) 
Cc1cc(C)c([C@]2(CCN3CCCCC3)C(=O)[N-]C(=O)NC2=O)c(C)c1

>  <Energy>  (70) 
84.93861915123385

>  <Genealogy>  (70) 
Cc1cc(C)c(C2(CCN3CCCCC3)C(=O)[N-]C(=O)NC2=O)c(C)c1 (protonated)
Cc1cc(C)c([C@]2(CCN3CCCCC3)C(=O)[N-]C(=O)NC2=O)c(C)c1 (chirality)
Cc1cc(C)c([C@]2(CCN3CCCCC3)C(=O)[N-]C(=O)NC2=O)c(C)c1 (3D coordinates assigned)
Cc1cc(C)c([C@]2(CCN3CCCCC3)C(=O)[N-]C(=O)NC2=O)c(C)c1 (nonaromatic ring conformer: 84.93861915123385 kcal/mol)

>  <smiles>  (70) 
Cc1cc(C)c(C2(CCN3CCCCC3)C(=O)NC(=O)NC2=O)c(C)c1

>  <score_type>  (70) 
oracle

>  <origin>  (70) 
adg

>  <m_score__min__energy>  (70) 
-8.5399999999999991

>  <m_primary>  (70) 
energy

$$$$
70:0
     RDKit          3D

 31 33  0  0  0  0  0  0  0  0999 V2000
   55.1530   29.3460   44.9310 N   0  0  0  0  0  0  0  0  0  0  0  0
   56.5990   29.8580   44.1320 S   0  0  0  0  0  0  0  0  0  0  0  0
   56.2080   30.7050   42.9540 O   0  0  0  0  0  0  0  0  0  0  0  0
   57.3610   28.6600   43.6390 O   0  0  0  0  0  0  0  0  0  0  0  0
   57.6140   30.8000   45.2380 C   0  0  0  0  0  0  0  0  0  0  0  0
   57.6400   32.1970   45.0880 C   0  0  0  0  0  0  0  0  0  0  0  0
   58.3520   32.9980   45.9830 C   0  0  0  0  0  0  0  0  0  0  0  0
   59.0430   32.4150   47.0440 C   0  0  0  0  0  0  0  0  0  0  0  0
   59.0390   31.0280   47.2030 C   0  0  0  0  0  0  0  0  0  0  0  0
   58.3490   30.2060   46.2970 C   0  0  0  0  0  0  0  0  0  0  0  0
   58.4230   28.7450   46.4990 C   0  0  0  0  0  0  0  0  0  0  0  0
   59.5400   28.0200   46.8520 C   0  0  0  0  0  0  0  0  0  0  0  0
   59.1920   26.7320   47.0170 N   0  0  0  0  0  0  0  0  0  0  0  0
   57.8640   26.7240   46.7670 C   0  0  0  0  0  0  0  0  0  0  0  0
   57.1220   25.6570   46.8200 N   0  0  0  0  0  0  0  0  0  0  0  0
   55.8460   25.4760   46.1860 C   0  0  0  0  0  0  0  0  0  0  0  0
   55.0230   26.4270   46.0950 O   0  0  0  0  0  0  0  0  0  0  0  0
   55.4910   24.1630   45.6330 C   0  0  0  0  0  0  0  0  0  0  0  0
   54.3630   23.4300   45.9330 C   0  0  0  0  0  0  0  0  0  0  0  0
   54.3870   22.2820   45.2320 N   0  0  0  0  0  0  0  0  0  0  0  0
   55.5340   22.3660   44.5300 C   0  0  0  0  0  0  0  0  0  0  0  0
   55.9160   21.4620   43.7410 O   0  0  0  0  0  0  0  0  0  0  0  0
   56.2430   23.4940   44.7400 N   0  0  0  0  0  0  0  0  0  0  0  0
   57.3520   27.9330   46.4600 N   0  0  0  0  0  0  0  0  0  0  0  0
   55.4270   28.6030   45.6120 H   0  0  0  0  0  0  0  0  0  0  0  0
   57.0932   32.6648   44.2560 H   0  0  0  0  0  0  0  0  0  0  0  0
   58.3677   34.0899   45.8507 H   0  0  0  0  0  0  0  0  0  0  0  0
   59.5919   33.0483   47.7565 H   0  0  0  0  0  0  0  0  0  0  0  0
   59.5814   30.5747   48.0458 H   0  0  0  0  0  0  0  0  0  0  0  0
   60.5533   28.4291   46.9785 H   0  0  0  0  0  0  0  0  0  0  0  0
   53.5708   23.7346   46.6328 H   0  0  0  0  0  0  0  0  0  0  0  0
  1  2  1  0
  2  3  2  0
  2  4  2  0
  2  5  1  0
  5  6  2  0
  6  7  1  0
  7  8  2  0
  8  9  1  0
  9 10  2  0
 10 11  1  0
 11 12  2  0
 12 13  1  0
 13 14  1  0
 14 15  2  3
 15 16  1  0
 16 17  2  0
 16 18  1  0
 18 19  2  0
 19 20  1  0
 20 21  1  0
 21 22  2  0
 21 23  1  0
 14 24  1  0
 10  5  1  0
 24 11  1  0
 23 18  1  0
  1 25  1  0
  6 26  1  0
  7 27  1  0
  8 28  1  0
  9 29  1  0
 12 30  1  0
 19 31  1  0
M  CHG  5   1  -1  13  -1  20  -1  23  -1  24  -1
M  END
>  <UniqueID>  (71) 
66

>  <SMILES>  (71) 
[NH-]S(=O)(=O)c1ccccc1-c1c[n-]c(=NC(=O)c2c[n-]c(=O)[n-]2)[n-]1

>  <Energy>  (71) 
98.34603507521138

>  <Genealogy>  (71) 
[NH-]S(=O)(=O)c1ccccc1-c1c[n-]c(=NC(=O)c2c[n-]c(=O)[n-]2)[n-]1 (protonated)
[NH-]S(=O)(=O)c1ccccc1-c1c[n-]c(=NC(=O)c2c[n-]c(=O)[n-]2)[n-]1 (3D coordinates assigned)
[NH-]S(=O)(=O)c1ccccc1-c1c[n-]c(=NC(=O)c2c[n-]c(=O)[n-]2)[n-]1 (optimized conformer: 98.34603507521138 kcal/mol)

>  <smiles>  (71) 
NS(=O)(=O)c1ccccc1-c1c[nH]c(=NC(=O)c2c[nH]c(=O)[nH]2)[nH]1

>  <score_type>  (71) 
oracle

>  <origin>  (71) 
adg

>  <m_score__min__energy>  (71) 
-16.5

>  <m_primary>  (71) 
energy

$$$$
71:0
     RDKit          3D

 63 67  0  0  0  0  0  0  0  0999 V2000
   63.2710   31.9970   47.2510 C   0  0  0  0  0  0  0  0  0  0  0  0
   61.8260   32.2190   47.2600 N   0  0  0  0  0  0  0  0  0  0  0  0
   60.8700   31.3900   47.7320 C   0  0  0  0  0  0  0  0  0  0  0  0
   61.1000   30.0260   48.3310 C   0  0  0  0  0  0  0  0  0  0  0  0
   60.3300   28.9860   47.5570 C   0  0  0  0  0  0  0  0  0  0  0  0
   60.7010   28.6710   46.2420 C   0  0  0  0  0  0  0  0  0  0  0  0
   59.9110   27.8140   45.4690 C   0  0  0  0  0  0  0  0  0  0  0  0
   58.7360   27.2570   46.0060 C   0  0  0  0  0  0  0  0  0  0  0  0
   57.8790   26.4350   45.2650 O   0  0  0  0  0  0  0  0  0  0  0  0
   56.9570   25.1490   45.9140 S   0  0  0  0  0  0  0  0  0  0  0  0
   57.5020   24.7480   47.2570 O   0  0  0  0  0  0  0  0  0  0  0  0
   55.5270   25.5920   46.0610 O   0  0  0  0  0  0  0  0  0  0  0  0
   57.0570   23.7760   44.8200 C   0  0  0  0  0  0  0  0  0  0  0  0
   56.1560   23.6440   43.7510 C   0  0  0  0  0  0  0  0  0  0  0  0
   56.2420   22.5430   42.8940 C   0  0  0  0  0  0  0  0  0  0  0  0
   57.2210   21.5660   43.1030 C   0  0  0  0  0  0  0  0  0  0  0  0
   58.1160   21.6900   44.1700 C   0  0  0  0  0  0  0  0  0  0  0  0
   58.0350   22.7930   45.0280 C   0  0  0  0  0  0  0  0  0  0  0  0
   58.3910   27.5420   47.3320 C   0  0  0  0  0  0  0  0  0  0  0  0
   59.1760   28.4030   48.1030 C   0  0  0  0  0  0  0  0  0  0  0  0
   59.6410   31.9530   47.4480 C   0  0  0  0  0  0  0  0  0  0  0  0
   58.4170   31.3930   47.7960 O   0  0  0  0  0  0  0  0  0  0  0  0
   59.8100   33.1150   46.7710 N   0  0  0  0  0  0  0  0  0  0  0  0
   58.8280   33.9560   46.0510 C   0  0  0  0  0  0  0  0  0  0  0  0
   57.3520   33.6630   46.4260 C   0  0  0  0  0  0  0  0  0  0  0  0
   56.6550   32.7260   45.4160 C   0  0  0  0  0  0  0  0  0  0  0  0
   57.6360   31.7700   44.8520 N   0  0  0  0  0  0  0  0  0  0  0  0
   57.1060   30.5540   44.1780 C   0  0  0  0  0  0  0  0  0  0  0  0
   55.6020   30.4560   44.0040 C   0  0  0  0  0  0  0  0  0  0  0  0
   55.5060   29.3780   44.9060 O   0  0  0  0  0  0  0  0  0  0  0  0
   56.9020   29.3760   45.1020 C   0  0  0  0  0  0  0  0  0  0  0  0
   58.6260   32.4480   43.9900 C   0  0  0  0  0  0  0  0  0  0  0  0
   59.0350   33.8360   44.5290 C   0  0  0  0  0  0  0  0  0  0  0  0
   61.1560   33.2360   46.6760 C   0  0  0  0  0  0  0  0  0  0  0  0
   61.7270   34.1870   46.0730 O   0  0  0  0  0  0  0  0  0  0  0  0
   63.6397   31.9404   48.2858 H   0  0  0  0  0  0  0  0  0  0  0  0
   63.4939   31.0541   46.7302 H   0  0  0  0  0  0  0  0  0  0  0  0
   63.7666   32.8295   46.7302 H   0  0  0  0  0  0  0  0  0  0  0  0
   62.1732   29.7878   48.2930 H   0  0  0  0  0  0  0  0  0  0  0  0
   60.7548   30.0276   49.3754 H   0  0  0  0  0  0  0  0  0  0  0  0
   61.6194   29.1007   45.8156 H   0  0  0  0  0  0  0  0  0  0  0  0
   60.2094   27.5747   44.4377 H   0  0  0  0  0  0  0  0  0  0  0  0
   55.3816   24.4080   43.5878 H   0  0  0  0  0  0  0  0  0  0  0  0
   55.5387   22.4448   42.0539 H   0  0  0  0  0  0  0  0  0  0  0  0
   57.2867   20.7001   42.4278 H   0  0  0  0  0  0  0  0  0  0  0  0
   58.8843   20.9203   44.3353 H   0  0  0  0  0  0  0  0  0  0  0  0
   58.7399   22.8888   45.8670 H   0  0  0  0  0  0  0  0  0  0  0  0
   57.4929   27.0836   47.7716 H   0  0  0  0  0  0  0  0  0  0  0  0
   58.8886   28.6247   49.1414 H   0  0  0  0  0  0  0  0  0  0  0  0
   59.0186   34.9906   46.3725 H   0  0  0  0  0  0  0  0  0  0  0  0
   57.3285   33.1901   47.4189 H   0  0  0  0  0  0  0  0  0  0  0  0
   56.8110   34.6208   46.4185 H   0  0  0  0  0  0  0  0  0  0  0  0
   55.8559   32.1690   45.9272 H   0  0  0  0  0  0  0  0  0  0  0  0
   56.2272   33.3278   44.6006 H   0  0  0  0  0  0  0  0  0  0  0  0
   57.7986   30.5782   43.3238 H   0  0  0  0  0  0  0  0  0  0  0  0
   55.0620   31.3553   44.3353 H   0  0  0  0  0  0  0  0  0  0  0  0
   55.1875   30.3438   42.9913 H   0  0  0  0  0  0  0  0  0  0  0  0
   57.1989   29.5780   46.1417 H   0  0  0  0  0  0  0  0  0  0  0  0
   57.4644   28.4493   44.9150 H   0  0  0  0  0  0  0  0  0  0  0  0
   59.5249   31.8175   43.9236 H   0  0  0  0  0  0  0  0  0  0  0  0
   58.1605   32.5984   43.0048 H   0  0  0  0  0  0  0  0  0  0  0  0
   60.0981   34.0044   44.3021 H   0  0  0  0  0  0  0  0  0  0  0  0
   58.3965   34.5878   44.0421 H   0  0  0  0  0  0  0  0  0  0  0  0
  1  2  1  0
  2  3  1  0
  3  4  1  0
  4  5  1  0
  5  6  2  0
  6  7  1  0
  7  8  2  0
  8  9  1  0
  9 10  1  0
 10 11  2  0
 10 12  2  0
 10 13  1  0
 13 14  2  0
 14 15  1  0
 15 16  2  0
 16 17  1  0
 17 18  2  0
  8 19  1  0
 19 20  2  0
  3 21  2  0
 21 22  1  0
 21 23  1  0
 23 24  1  0
 24 25  1  0
 25 26  1  0
 26 27  1  0
 27 28  1  0
 28 29  1  0
 29 30  1  0
 30 31  1  0
 27 32  1  0
 32 33  1  0
 23 34  1  0
 34 35  2  0
 34  2  1  0
 20  5  1  0
 33 24  1  0
 18 13  1  0
 31 28  1  0
  1 36  1  0
  1 37  1  0
  1 38  1  0
  4 39  1  0
  4 40  1  0
  6 41  1  0
  7 42  1  0
 14 43  1  0
 15 44  1  0
 16 45  1  0
 17 46  1  0
 18 47  1  0
 19 48  1  0
 20 49  1  0
 24 50  1  0
 25 51  1  0
 25 52  1  0
 26 53  1  0
 26 54  1  0
 28 55  1  0
 29 56  1  0
 29 57  1  0
 31 58  1  0
 31 59  1  0
 32 60  1  0
 32 61  1  0
 33 62  1  0
 33 63  1  0
M  CHG  1  22  -1
M  END
>  <UniqueID>  (72) 
67

>  <SMILES>  (72) 
Cn1c(Cc2ccc(OS(=O)(=O)c3ccccc3)cc2)c([O-])n(C2CCN(C3COC3)CC2)c1=O

>  <Energy>  (72) 
178.72333554723735

>  <Genealogy>  (72) 
Cn1c(Cc2ccc(OS(=O)(=O)c3ccccc3)cc2)c([O-])n(C2CCN(C3COC3)CC2)c1=O (protonated)
Cn1c(Cc2ccc(OS(=O)(=O)c3ccccc3)cc2)c([O-])n(C2CCN(C3COC3)CC2)c1=O (3D coordinates assigned)
Cn1c(Cc2ccc(OS(=O)(=O)c3ccccc3)cc2)c([O-])n(C2CCN(C3COC3)CC2)c1=O (nonaromatic ring conformer: 178.72333554723735 kcal/mol)

>  <smiles>  (72) 
Cn1c(Cc2ccc(OS(=O)(=O)c3ccccc3)cc2)c(O)n(C2CCN(C3COC3)CC2)c1=O

>  <score_type>  (72) 
oracle

>  <origin>  (72) 
adg

>  <m_score__min__energy>  (72) 
-13.140000000000001

>  <m_primary>  (72) 
energy

$$$$
72:0
     RDKit          3D

 41 43  0  0  0  0  0  0  0  0999 V2000
   58.2474   25.8203   45.4475 H   0  0  0  0  0  0  0  0  0  0  0  0
   57.8960   26.8440   45.2510 C   0  0  0  0  0  0  0  0  0  0  0  0
   56.5960   27.2290   45.6170 C   0  0  0  0  0  0  0  0  0  0  0  0
   55.7000   26.3350   46.2210 O   0  0  0  0  0  0  0  0  0  0  0  0
   55.1380   25.2080   45.6060 C   0  0  0  0  0  0  0  0  0  0  0  0
   53.8520   24.8770   45.8980 N   0  0  0  0  0  0  0  0  0  0  0  0
   53.2600   23.7850   45.3460 C   0  0  0  0  0  0  0  0  0  0  0  0
   52.0660   23.5070   45.6270 O   0  0  0  0  0  0  0  0  0  0  0  0
   53.9580   22.9920   44.4920 N   0  0  0  0  0  0  0  0  0  0  0  0
   55.2500   23.2710   44.1820 C   0  0  0  0  0  0  0  0  0  0  0  0
   55.8830   22.5180   43.3950 O   0  0  0  0  0  0  0  0  0  0  0  0
   55.8760   24.3880   44.7380 C   0  0  0  0  0  0  0  0  0  0  0  0
   56.9247   24.6205   44.5011 H   0  0  0  0  0  0  0  0  0  0  0  0
   56.1720   28.4910   45.3380 N   0  0  0  0  0  0  0  0  0  0  0  0
   56.9740   29.4150   44.7360 C   0  0  0  0  0  0  0  0  0  0  0  0
   56.5510   30.6210   44.4860 N   0  0  0  0  0  0  0  0  0  0  0  0
   57.3450   31.8170   44.3790 C   0  0  0  0  0  0  0  0  0  0  0  0
   57.4220   32.4410   43.2840 O   0  0  0  0  0  0  0  0  0  0  0  0
   58.0820   32.3180   45.5630 C   0  0  0  0  0  0  0  0  0  0  0  0
   58.6180   31.4260   46.5060 C   0  0  0  0  0  0  0  0  0  0  0  0
   58.4912   30.3426   46.3641 H   0  0  0  0  0  0  0  0  0  0  0  0
   59.3110   31.9010   47.6230 C   0  0  0  0  0  0  0  0  0  0  0  0
   59.7217   31.1857   48.3508 H   0  0  0  0  0  0  0  0  0  0  0  0
   59.4910   33.2830   47.8300 C   0  0  0  0  0  0  0  0  0  0  0  0
   60.2120   33.7760   48.9900 N   0  0  0  0  0  0  0  0  0  0  0  0
   59.5740   33.8020   50.3120 C   0  0  0  0  0  0  0  0  0  0  0  0
   60.3478   33.7705   51.0932 H   0  0  0  0  0  0  0  0  0  0  0  0
   58.9847   34.7249   50.4166 H   0  0  0  0  0  0  0  0  0  0  0  0
   58.9115   32.9301   50.4166 H   0  0  0  0  0  0  0  0  0  0  0  0
   61.5950   34.2580   48.8610 C   0  0  0  0  0  0  0  0  0  0  0  0
   62.0258   34.4082   49.8619 H   0  0  0  0  0  0  0  0  0  0  0  0
   62.1925   33.5151   48.3123 H   0  0  0  0  0  0  0  0  0  0  0  0
   61.6014   35.2113   48.3123 H   0  0  0  0  0  0  0  0  0  0  0  0
   58.9510   34.1740   46.8800 C   0  0  0  0  0  0  0  0  0  0  0  0
   59.0778   35.2578   47.0186 H   0  0  0  0  0  0  0  0  0  0  0  0
   58.2570   33.6980   45.7650 C   0  0  0  0  0  0  0  0  0  0  0  0
   57.8429   34.4111   45.0370 H   0  0  0  0  0  0  0  0  0  0  0  0
   58.2800   29.0640   44.3800 C   0  0  0  0  0  0  0  0  0  0  0  0
   58.9413   29.8016   43.9018 H   0  0  0  0  0  0  0  0  0  0  0  0
   58.7380   27.7710   44.6360 C   0  0  0  0  0  0  0  0  0  0  0  0
   59.7613   27.4830   44.3534 H   0  0  0  0  0  0  0  0  0  0  0  0
  1  2  1  0
  2  3  2  0
  3  4  1  0
  4  5  1  0
  5  6  1  0
  6  7  1  0
  7  8  2  0
  7  9  1  0
  9 10  1  0
 10 11  2  0
 10 12  1  0
 12 13  1  0
  3 14  1  0
 14 15  1  0
 15 16  2  0
 16 17  1  0
 17 18  2  0
 17 19  1  0
 19 20  2  0
 20 21  1  0
 20 22  1  0
 22 23  1  0
 22 24  2  0
 24 25  1  0
 25 26  1  0
 26 27  1  0
 26 28  1  0
 26 29  1  0
 25 30  1  0
 30 31  1  0
 30 32  1  0
 30 33  1  0
 24 34  1  0
 34 35  1  0
 34 36  2  0
 36 37  1  0
 15 38  1  0
 38 39  1  0
 38 40  2  0
 40 41  1  0
 40  2  1  0
 12  5  2  0
 36 19  1  0
M  CHG  3   6  -1   9  -1  14  -1
M  END
>  <UniqueID>  (73) 
68

>  <SMILES>  (73) 
CN(C)c1ccc(C(=O)/N=c2/cccc(Oc3cc(=O)[n-]c(=O)[n-]3)[n-]2)cc1

>  <Energy>  (73) 
57.30884075078281

>  <Genealogy>  (73) 
CN(C)c1ccc(C(=O)N=c2cccc(Oc3cc(=O)[n-]c(=O)[n-]3)[n-]2)cc1 (protonated)
CN(C)c1ccc(C(=O)/N=c2/cccc(Oc3cc(=O)[n-]c(=O)[n-]3)[n-]2)cc1 (cis-trans isomerization)
CN(C)c1ccc(C(=O)/N=c2/cccc(Oc3cc(=O)[n-]c(=O)[n-]3)[n-]2)cc1 (3D coordinates assigned)
CN(C)c1ccc(C(=O)/N=c2/cccc(Oc3cc(=O)[n-]c(=O)[n-]3)[n-]2)cc1 (optimized conformer: 57.30884075078281 kcal/mol)

>  <smiles>  (73) 
CN(C)c1ccc(C(=O)N=c2cccc(Oc3cc(=O)[nH]c(=O)[nH]3)[nH]2)cc1

>  <score_type>  (73) 
oracle

>  <origin>  (73) 
adg

>  <m_score__min__energy>  (73) 
-14.58

>  <m_primary>  (73) 
energy

$$$$
73:0
     RDKit          3D

 33 35  0  0  1  0  0  0  0  0999 V2000
   57.2120   20.7500   43.4870 N   0  0  0  0  0  0  0  0  0  0  0  0
   56.6850   22.0600   43.4130 C   0  0  0  0  0  0  0  0  0  0  0  0
   55.7270   22.3700   42.6360 O   0  0  0  0  0  0  0  0  0  0  0  0
   57.2820   23.0950   44.2750 C   0  0  0  0  0  0  0  0  0  0  0  0
   58.5440   22.9460   44.8130 C   0  0  0  0  0  0  0  0  0  0  0  0
   59.1290   23.8940   45.6230 C   0  0  0  0  0  0  0  0  0  0  0  0
   58.4340   25.0490   45.9200 C   0  0  0  0  0  0  0  0  0  0  0  0
   57.1630   25.2010   45.3820 C   0  0  0  0  0  0  0  0  0  0  0  0
   56.4630   26.4190   45.7110 N   0  0  0  0  0  0  0  0  0  0  0  0
   56.9280   27.5530   45.2950 C   0  0  0  0  0  0  0  0  0  0  0  0
   57.0560   28.7200   45.9500 N   0  0  0  0  0  0  0  0  0  0  0  0
   57.5950   29.6430   45.1150 C   0  0  0  0  0  0  0  0  0  0  0  0
   57.9200   31.0260   45.3570 C   0  0  0  0  0  0  0  0  0  0  0  0
   59.1150   31.4200   45.9210 C   0  0  0  0  0  0  0  0  0  0  0  0
   59.3270   32.7790   46.1120 C   0  0  0  0  0  0  0  0  0  0  0  0
   58.3880   33.7270   45.7560 C   0  0  0  0  0  0  0  0  0  0  0  0
   57.2100   33.2810   45.1970 C   0  0  0  0  0  0  0  0  0  0  0  0
   57.0210   31.9600   45.0190 N   0  0  0  0  0  0  0  0  0  0  0  0
   57.7880   29.0050   43.9460 N   0  0  0  0  0  0  0  0  0  0  0  0
   57.3880   27.7380   44.0380 N   0  0  0  0  0  0  0  0  0  0  0  0
   56.5810   24.2480   44.5700 C   0  0  0  0  0  0  0  0  0  0  0  0
   58.2210   20.5160   43.3480 H   0  0  0  0  0  0  0  0  0  0  0  0
   56.5850   19.9420   43.6920 H   0  0  0  0  0  0  0  0  0  0  0  0
   59.1078   22.0294   44.5848 H   0  0  0  0  0  0  0  0  0  0  0  0
   60.1386   23.7325   46.0286 H   0  0  0  0  0  0  0  0  0  0  0  0
   58.8737   25.8254   46.5633 H   0  0  0  0  0  0  0  0  0  0  0  0
   59.8765   30.6809   46.2106 H   0  0  0  0  0  0  0  0  0  0  0  0
   60.2742   33.1114   46.5617 H   0  0  0  0  0  0  0  0  0  0  0  0
   58.5737   34.7998   45.9130 H   0  0  0  0  0  0  0  0  0  0  0  0
   56.4309   33.9981   44.8988 H   0  0  0  0  0  0  0  0  0  0  0  0
   58.1920   29.3990   43.0480 H   0  0  0  0  0  0  0  0  0  0  0  0
   57.4350   27.0360   43.2610 H   0  0  0  0  0  0  0  0  0  0  0  0
   55.5712   24.4051   44.1629 H   0  0  0  0  0  0  0  0  0  0  0  0
  1  2  1  0
  2  3  2  0
  2  4  1  0
  4  5  2  0
  5  6  1  0
  6  7  2  0
  7  8  1  0
  8  9  1  0
  9 10  2  0
 10 11  1  0
 11 12  2  0
 12 13  1  0
 13 14  2  0
 14 15  1  0
 15 16  2  0
 16 17  1  0
 17 18  2  0
 12 19  1  0
 19 20  1  0
  8 21  2  0
 21  4  1  0
 20 10  1  0
 18 13  1  0
  1 22  1  0
  1 23  1  0
  5 24  1  0
  6 25  1  0
  7 26  1  0
 14 27  1  0
 15 28  1  0
 16 29  1  0
 17 30  1  0
 19 31  1  0
 20 32  1  0
 21 33  1  0
M  END
>  <smiles>  (74) 
NC(=O)c1cccc(N=c2nc(-c3ccccn3)[nH][nH]2)c1

>  <score_type>  (74) 
oracle

>  <origin>  (74) 
adg

>  <m_score__min__energy>  (74) 
-7.7699999999999996

>  <m_primary>  (74) 
energy

$$$$
74:0
     RDKit          3D

 38 39  0  0  0  0  0  0  0  0999 V2000
   54.0350   23.6420   45.3710 C   0  0  0  0  0  0  0  0  0  0  0  0
   55.0080   23.8840   44.2210 C   0  0  0  0  0  0  0  0  0  0  0  0
   56.3300   23.3070   44.5330 N   0  0  0  0  0  0  0  0  0  0  0  0
   56.7340   22.1640   43.8890 C   0  0  0  0  0  0  0  0  0  0  0  0
   55.8970   21.5220   42.9780 O   0  0  0  0  0  0  0  0  0  0  0  0
   57.9960   21.6230   44.1300 C   0  0  0  0  0  0  0  0  0  0  0  0
   58.8430   22.2760   45.0150 C   0  0  0  0  0  0  0  0  0  0  0  0
   59.9950   21.8210   45.2460 O   0  0  0  0  0  0  0  0  0  0  0  0
   58.4300   23.4080   45.6300 N   0  0  0  0  0  0  0  0  0  0  0  0
   57.1940   23.9290   45.4060 C   0  0  0  0  0  0  0  0  0  0  0  0
   56.7690   25.4580   46.2630 S   0  0  0  0  0  0  0  0  0  0  0  0
   58.4800   25.8340   46.7790 C   0  0  0  0  0  0  0  0  0  0  0  0
   58.8080   27.2740   46.5350 C   0  0  0  0  0  0  0  0  0  0  0  0
   60.0170   27.6260   46.4450 O   0  0  0  0  0  0  0  0  0  0  0  0
   57.7580   28.2480   46.4330 N   0  0  0  0  0  0  0  0  0  0  0  0
   58.0180   29.6440   46.2200 C   0  0  0  0  0  0  0  0  0  0  0  0
   58.8990   30.2960   47.0950 C   0  0  0  0  0  0  0  0  0  0  0  0
   59.2460   31.6320   46.8890 C   0  0  0  0  0  0  0  0  0  0  0  0
   58.7060   32.3340   45.8130 C   0  0  0  0  0  0  0  0  0  0  0  0
   57.8000   31.7110   44.9520 C   0  0  0  0  0  0  0  0  0  0  0  0
   57.4240   30.3690   45.1520 C   0  0  0  0  0  0  0  0  0  0  0  0
   56.3750   29.7810   44.2830 C   0  0  0  0  0  0  0  0  0  0  0  0
   55.1480   29.3240   44.8470 N   0  0  0  0  0  0  0  0  0  0  0  0
   56.5670   29.6510   43.0440 O   0  0  0  0  0  0  0  0  0  0  0  0
   54.5598   23.7725   46.3289 H   0  0  0  0  0  0  0  0  0  0  0  0
   53.2051   24.3611   45.3066 H   0  0  0  0  0  0  0  0  0  0  0  0
   53.6386   22.6179   45.3066 H   0  0  0  0  0  0  0  0  0  0  0  0
   54.6139   23.4135   43.3082 H   0  0  0  0  0  0  0  0  0  0  0  0
   55.1192   24.9680   44.0709 H   0  0  0  0  0  0  0  0  0  0  0  0
   58.3143   20.6970   43.6288 H   0  0  0  0  0  0  0  0  0  0  0  0
   58.5884   25.6169   47.8519 H   0  0  0  0  0  0  0  0  0  0  0  0
   59.1694   25.2120   46.1892 H   0  0  0  0  0  0  0  0  0  0  0  0
   56.7970   27.9710   46.7390 H   0  0  0  0  0  0  0  0  0  0  0  0
   59.3204   29.7494   47.9515 H   0  0  0  0  0  0  0  0  0  0  0  0
   59.9456   32.1308   47.5758 H   0  0  0  0  0  0  0  0  0  0  0  0
   58.9942   33.3816   45.6414 H   0  0  0  0  0  0  0  0  0  0  0  0
   57.3755   32.2749   44.1083 H   0  0  0  0  0  0  0  0  0  0  0  0
   55.1410   28.6340   45.6300 H   0  0  0  0  0  0  0  0  0  0  0  0
  1  2  1  0
  2  3  1  0
  3  4  1  0
  4  5  1  0
  4  6  2  0
  6  7  1  0
  7  8  2  0
  7  9  1  0
  9 10  2  0
 10 11  1  0
 11 12  1  0
 12 13  1  0
 13 14  2  0
 13 15  1  0
 15 16  1  0
 16 17  2  0
 17 18  1  0
 18 19  2  0
 19 20  1  0
 20 21  2  0
 21 22  1  0
 22 23  1  0
 22 24  2  0
 10  3  1  0
 21 16  1  0
  1 25  1  0
  1 26  1  0
  1 27  1  0
  2 28  1  0
  2 29  1  0
  6 30  1  0
 12 31  1  0
 12 32  1  0
 15 33  1  0
 17 34  1  0
 18 35  1  0
 19 36  1  0
 20 37  1  0
 23 38  1  0
M  CHG  2   5  -1  23  -1
M  END
>  <UniqueID>  (75) 
69

>  <SMILES>  (75) 
CCn1c([O-])cc(=O)nc1SCC(=O)Nc1ccccc1C([NH-])=O

>  <Energy>  (75) 
42.131053313953146

>  <Genealogy>  (75) 
CCn1c([O-])cc(=O)nc1SCC(=O)Nc1ccccc1C([NH-])=O (protonated)
CCn1c([O-])cc(=O)nc1SCC(=O)Nc1ccccc1C([NH-])=O (3D coordinates assigned)
CCn1c([O-])cc(=O)nc1SCC(=O)Nc1ccccc1C([NH-])=O (optimized conformer: 42.131053313953146 kcal/mol)

>  <smiles>  (75) 
CCn1c(O)cc(=O)nc1SCC(=O)Nc1ccccc1C(N)=O

>  <score_type>  (75) 
oracle

>  <origin>  (75) 
adg

>  <m_score__min__energy>  (75) 
-13.07

>  <m_primary>  (75) 
energy

$$$$
75:0
     RDKit          3D

 50 53  0  0  1  0  0  0  0  0999 V2000
   64.0920   29.8460   52.8090 N   0  0  0  0  0  0  0  0  0  0  0  0
   63.2820   29.8310   51.9830 C   0  0  0  0  0  0  0  0  0  0  0  0
   62.2680   29.8080   50.9630 C   0  0  0  0  0  0  0  0  0  0  0  0
   61.7370   30.9840   50.4590 C   0  0  0  0  0  0  0  0  0  0  0  0
   60.7660   31.0180   49.4860 C   0  0  0  0  0  0  0  0  0  0  0  0
   60.2130   32.2160   48.9580 N   0  0  0  0  0  0  0  0  0  0  0  0
   58.9500   32.6950   49.5160 C   0  0  0  0  0  0  0  0  0  0  0  0
   57.8560   32.6890   48.4780 C   0  0  0  0  0  0  0  0  0  0  0  0
   58.3900   33.2120   47.1940 C   0  0  0  0  0  0  0  0  0  0  0  0
   57.5110   33.5870   46.1770 C   0  0  0  0  0  0  0  0  0  0  0  0
   57.9620   34.0780   44.9680 C   0  0  0  0  0  0  0  0  0  0  0  0
   59.3060   34.2220   44.7070 C   0  0  0  0  0  0  0  0  0  0  0  0
   60.1830   33.8510   45.7120 C   0  0  0  0  0  0  0  0  0  0  0  0
   59.7330   33.3540   46.9350 C   0  0  0  0  0  0  0  0  0  0  0  0
   60.8020   32.9990   47.9140 C   0  0  0  0  0  0  0  0  0  0  0  0
   60.3380   29.8130   49.0300 N   0  0  0  0  0  0  0  0  0  0  0  0
   60.8550   28.6740   49.5220 C   0  0  0  0  0  0  0  0  0  0  0  0
   60.4180   27.5710   49.0610 N   0  0  0  0  0  0  0  0  0  0  0  0
   60.5750   27.0720   47.7730 C   0  0  0  0  0  0  0  0  0  0  0  0
   59.6080   27.8240   46.8820 C   0  0  0  0  0  0  0  0  0  0  0  0
   58.3320   27.2990   46.8250 C   0  0  0  0  0  0  0  0  0  0  0  0
   57.3870   27.9240   46.0390 C   0  0  0  0  0  0  0  0  0  0  0  0
   57.7330   29.0710   45.3160 C   0  0  0  0  0  0  0  0  0  0  0  0
   56.5120   29.8230   44.3400 S   0  0  0  0  0  0  0  0  0  0  0  0
   56.6110   29.4210   42.6790 N   0  0  0  0  0  0  0  0  0  0  0  0
   56.6090   31.3130   44.4990 O   0  0  0  0  0  0  0  0  0  0  0  0
   55.1620   29.3830   44.8860 O   0  0  0  0  0  0  0  0  0  0  0  0
   59.0380   29.5680   45.4050 C   0  0  0  0  0  0  0  0  0  0  0  0
   59.9970   28.9500   46.1900 C   0  0  0  0  0  0  0  0  0  0  0  0
   61.8030   28.6500   50.4700 N   0  0  0  0  0  0  0  0  0  0  0  0
   62.1110   31.9388   50.8572 H   0  0  0  0  0  0  0  0  0  0  0  0
   58.6560   32.0414   50.3505 H   0  0  0  0  0  0  0  0  0  0  0  0
   59.0935   33.7287   49.8637 H   0  0  0  0  0  0  0  0  0  0  0  0
   57.4936   31.6606   48.3329 H   0  0  0  0  0  0  0  0  0  0  0  0
   57.0253   33.3256   48.8166 H   0  0  0  0  0  0  0  0  0  0  0  0
   56.4281   33.4886   46.3433 H   0  0  0  0  0  0  0  0  0  0  0  0
   57.2311   34.3605   44.1960 H   0  0  0  0  0  0  0  0  0  0  0  0
   59.6665   34.6137   43.7444 H   0  0  0  0  0  0  0  0  0  0  0  0
   61.2650   33.9510   45.5411 H   0  0  0  0  0  0  0  0  0  0  0  0
   61.5886   32.4172   47.4112 H   0  0  0  0  0  0  0  0  0  0  0  0
   61.2514   33.9118   48.3322 H   0  0  0  0  0  0  0  0  0  0  0  0
   61.6075   27.2329   47.4294 H   0  0  0  0  0  0  0  0  0  0  0  0
   60.3729   25.9911   47.7450 H   0  0  0  0  0  0  0  0  0  0  0  0
   58.0734   26.3962   47.3978 H   0  0  0  0  0  0  0  0  0  0  0  0
   56.3646   27.5223   45.9805 H   0  0  0  0  0  0  0  0  0  0  0  0
   57.4510   29.7650   42.2060 H   0  0  0  0  0  0  0  0  0  0  0  0
   55.7230   29.5010   42.1730 H   0  0  0  0  0  0  0  0  0  0  0  0
   59.3086   30.4710   44.8380 H   0  0  0  0  0  0  0  0  0  0  0  0
   61.0231   29.3406   46.2580 H   0  0  0  0  0  0  0  0  0  0  0  0
   62.1670   27.7500   50.8120 H   0  0  0  0  0  0  0  0  0  0  0  0
  1  2  3  0
  2  3  1  0
  3  4  2  0
  4  5  1  0
  5  6  1  0
  6  7  1  0
  7  8  1  0
  8  9  1  0
  9 10  2  0
 10 11  1  0
 11 12  2  0
 12 13  1  0
 13 14  2  0
 14 15  1  0
  5 16  2  0
 16 17  1  0
 17 18  2  0
 18 19  1  0
 19 20  1  0
 20 21  2  0
 21 22  1  0
 22 23  2  0
 23 24  1  0
 24 25  1  0
 24 26  2  0
 24 27  2  0
 23 28  1  0
 28 29  2  0
 17 30  1  0
 30  3  1  0
 15  6  1  0
 29 20  1  0
 14  9  1  0
  4 31  1  0
  7 32  1  0
  7 33  1  0
  8 34  1  0
  8 35  1  0
 10 36  1  0
 11 37  1  0
 12 38  1  0
 13 39  1  0
 15 40  1  0
 15 41  1  0
 19 42  1  0
 19 43  1  0
 21 44  1  0
 22 45  1  0
 25 46  1  0
 25 47  1  0
 28 48  1  0
 29 49  1  0
 30 50  1  0
M  END
>  <smiles>  (76) 
N#Cc1cc(N2CCc3ccccc3C2)nc(=NCc2ccc(S(N)(=O)=O)cc2)[nH]1

>  <score_type>  (76) 
oracle

>  <origin>  (76) 
adg

>  <m_score__min__energy>  (76) 
-10.24

>  <m_primary>  (76) 
energy

$$$$
76:0
     RDKit          3D

 31 32  0  0  0  0  0  0  0  0999 V2000
   57.5600   33.4420   45.7630 C   0  0  0  0  0  0  0  0  0  0  0  0
   58.8120   32.8620   46.3540 C   0  0  0  0  0  0  0  0  0  0  0  0
   59.5630   33.6030   47.2780 C   0  0  0  0  0  0  0  0  0  0  0  0
   60.7170   33.0540   47.8550 C   0  0  0  0  0  0  0  0  0  0  0  0
   61.5010   33.8400   48.8650 C   0  0  0  0  0  0  0  0  0  0  0  0
   61.0940   31.7410   47.5370 C   0  0  0  0  0  0  0  0  0  0  0  0
   60.3380   30.9840   46.6220 C   0  0  0  0  0  0  0  0  0  0  0  0
   60.6790   29.6690   46.2630 O   0  0  0  0  0  0  0  0  0  0  0  0
   60.2220   28.9900   45.0930 C   0  0  0  0  0  0  0  0  0  0  0  0
   58.8500   28.4240   45.3140 C   0  0  0  0  0  0  0  0  0  0  0  0
   57.7080   29.1550   44.9540 C   0  0  0  0  0  0  0  0  0  0  0  0
   56.4500   28.5900   45.1740 C   0  0  0  0  0  0  0  0  0  0  0  0
   55.4080   29.2270   44.8660 O   0  0  0  0  0  0  0  0  0  0  0  0
   56.3610   27.3150   45.7360 C   0  0  0  0  0  0  0  0  0  0  0  0
   55.1250   26.7220   45.9690 O   0  0  0  0  0  0  0  0  0  0  0  0
   57.5400   26.6390   46.0610 C   0  0  0  0  0  0  0  0  0  0  0  0
   58.7230   27.2060   45.8400 O   0  0  0  0  0  0  0  0  0  0  0  0
   59.1980   31.5520   46.0420 C   0  0  0  0  0  0  0  0  0  0  0  0
   56.8837   33.7553   46.5720 H   0  0  0  0  0  0  0  0  0  0  0  0
   57.8170   34.3128   45.1420 H   0  0  0  0  0  0  0  0  0  0  0  0
   57.0619   32.6829   45.1420 H   0  0  0  0  0  0  0  0  0  0  0  0
   59.2451   34.6200   47.5514 H   0  0  0  0  0  0  0  0  0  0  0  0
   61.1997   33.5379   49.8789 H   0  0  0  0  0  0  0  0  0  0  0  0
   62.5749   33.6448   48.7282 H   0  0  0  0  0  0  0  0  0  0  0  0
   61.3031   34.9134   48.7282 H   0  0  0  0  0  0  0  0  0  0  0  0
   61.9861   31.2999   48.0056 H   0  0  0  0  0  0  0  0  0  0  0  0
   60.1897   29.6991   44.2527 H   0  0  0  0  0  0  0  0  0  0  0  0
   60.9143   28.1653   44.8679 H   0  0  0  0  0  0  0  0  0  0  0  0
   57.8018   30.1554   44.5064 H   0  0  0  0  0  0  0  0  0  0  0  0
   57.4897   25.6325   46.5020 H   0  0  0  0  0  0  0  0  0  0  0  0
   58.5980   30.9629   45.3328 H   0  0  0  0  0  0  0  0  0  0  0  0
  1  2  1  0
  2  3  2  0
  3  4  1  0
  4  5  1  0
  4  6  2  0
  6  7  1  0
  7  8  1  0
  8  9  1  0
  9 10  1  0
 10 11  2  0
 11 12  1  0
 12 13  2  0
 12 14  1  0
 14 15  1  0
 14 16  2  0
 16 17  1  0
  7 18  2  0
 18  2  1  0
 17 10  1  0
  1 19  1  0
  1 20  1  0
  1 21  1  0
  3 22  1  0
  5 23  1  0
  5 24  1  0
  5 25  1  0
  6 26  1  0
  9 27  1  0
  9 28  1  0
 11 29  1  0
 16 30  1  0
 18 31  1  0
M  CHG  1  15  -1
M  END
>  <UniqueID>  (77) 
70

>  <SMILES>  (77) 
Cc1cc(C)cc(OCc2cc(=O)c([O-])co2)c1

>  <Energy>  (77) 
31.149632458674

>  <Genealogy>  (77) 
Cc1cc(C)cc(OCc2cc(=O)c([O-])co2)c1 (protonated)
Cc1cc(C)cc(OCc2cc(=O)c([O-])co2)c1 (3D coordinates assigned)
Cc1cc(C)cc(OCc2cc(=O)c([O-])co2)c1 (optimized conformer: 31.149632458674 kcal/mol)

>  <smiles>  (77) 
Cc1cc(C)cc(OCc2cc(=O)c(O)co2)c1

>  <score_type>  (77) 
oracle

>  <origin>  (77) 
adg

>  <m_score__min__energy>  (77) 
-10.1

>  <m_primary>  (77) 
energy

$$$$
77:0
     RDKit          3D

 32 34  0  0  0  0  0  0  0  0999 V2000
   57.0630   20.3420   43.4380 H   0  0  0  0  0  0  0  0  0  0  0  0
   56.3120   20.9430   43.1230 O   0  0  0  0  0  0  0  0  0  0  0  0
   56.1650   22.2240   43.6430 C   0  0  0  0  0  0  0  0  0  0  0  0
   55.1730   22.5770   44.4830 N   0  0  0  0  0  0  0  0  0  0  0  0
   55.3910   23.8820   44.7420 C   0  0  0  0  0  0  0  0  0  0  0  0
   54.5340   24.6820   45.6280 C   0  0  0  0  0  0  0  0  0  0  0  0
   53.4340   24.2100   46.0190 O   0  0  0  0  0  0  0  0  0  0  0  0
   54.9330   26.0090   45.9950 N   0  0  0  0  0  0  0  0  0  0  0  0
   56.2770   26.4770   46.1870 C   0  0  0  0  0  0  0  0  0  0  0  0
   57.2440   25.7100   46.8570 C   0  0  0  0  0  0  0  0  0  0  0  0
   56.9751   24.7260   47.2685 H   0  0  0  0  0  0  0  0  0  0  0  0
   58.5450   26.1930   47.0020 C   0  0  0  0  0  0  0  0  0  0  0  0
   59.2950   25.5927   47.5380 H   0  0  0  0  0  0  0  0  0  0  0  0
   58.9000   27.4350   46.4700 C   0  0  0  0  0  0  0  0  0  0  0  0
   59.9260   27.8111   46.5963 H   0  0  0  0  0  0  0  0  0  0  0  0
   57.9530   28.2070   45.7740 C   0  0  0  0  0  0  0  0  0  0  0  0
   58.3260   29.5210   45.1970 C   0  0  0  0  0  0  0  0  0  0  0  0
   59.4710   29.6770   44.6920 O   0  0  0  0  0  0  0  0  0  0  0  0
   57.3800   30.6050   45.2180 N   0  0  0  0  0  0  0  0  0  0  0  0
   57.6300   31.8820   45.2430 C   0  0  0  0  0  0  0  0  0  0  0  0
   57.5180   32.6080   46.3750 N   0  0  0  0  0  0  0  0  0  0  0  0
   57.8280   33.9170   46.1710 C   0  0  0  0  0  0  0  0  0  0  0  0
   57.7941   34.6637   46.9780 H   0  0  0  0  0  0  0  0  0  0  0  0
   58.1910   34.2430   44.8680 C   0  0  0  0  0  0  0  0  0  0  0  0
   58.4746   35.2425   44.5067 H   0  0  0  0  0  0  0  0  0  0  0  0
   58.1200   32.8400   43.9420 S   0  0  0  0  0  0  0  0  0  0  0  0
   56.6430   27.7110   45.6330 C   0  0  0  0  0  0  0  0  0  0  0  0
   55.8965   28.3003   45.0803 H   0  0  0  0  0  0  0  0  0  0  0  0
   56.5100   24.3480   44.0740 C   0  0  0  0  0  0  0  0  0  0  0  0
   56.9198   25.3684   44.1037 H   0  0  0  0  0  0  0  0  0  0  0  0
   57.0070   23.2780   43.3650 C   0  0  0  0  0  0  0  0  0  0  0  0
   57.8923   23.2669   42.7123 H   0  0  0  0  0  0  0  0  0  0  0  0
  1  2  1  0
  2  3  1  0
  3  4  1  0
  4  5  1  0
  5  6  1  0
  6  7  2  0
  6  8  1  0
  8  9  1  0
  9 10  2  0
 10 11  1  0
 10 12  1  0
 12 13  1  0
 12 14  2  0
 14 15  1  0
 14 16  1  0
 16 17  1  0
 17 18  2  0
 17 19  1  0
 19 20  2  0
 20 21  1  0
 21 22  1  0
 22 23  1  0
 22 24  2  0
 24 25  1  0
 24 26  1  0
 16 27  2  0
 27 28  1  0
  5 29  2  0
 29 30  1  0
 29 31  1  0
 31 32  1  0
 31  3  2  0
 27  9  1  0
 26 20  1  0
M  CHG  3   4  -1   8  -1  21  -1
M  END
>  <UniqueID>  (78) 
71

>  <SMILES>  (78) 
O=C(/N=c1/[n-]ccs1)c1cccc([N-]C(=O)c2ccc(O)[n-]2)c1

>  <Energy>  (78) 
95.94885308677742

>  <Genealogy>  (78) 
O=C(N=c1[n-]ccs1)c1cccc([N-]C(=O)c2ccc(O)[n-]2)c1 (protonated)
O=C(/N=c1/[n-]ccs1)c1cccc([N-]C(=O)c2ccc(O)[n-]2)c1 (cis-trans isomerization)
O=C(/N=c1/[n-]ccs1)c1cccc([N-]C(=O)c2ccc(O)[n-]2)c1 (3D coordinates assigned)
O=C(/N=c1/[n-]ccs1)c1cccc([N-]C(=O)c2ccc(O)[n-]2)c1 (optimized conformer: 95.94885308677742 kcal/mol)

>  <smiles>  (78) 
O=C(N=c1[nH]ccs1)c1cccc(NC(=O)c2ccc(O)[nH]2)c1

>  <score_type>  (78) 
oracle

>  <origin>  (78) 
adg

>  <m_score__min__energy>  (78) 
-12.93

>  <m_primary>  (78) 
energy

$$$$
78:0
     RDKit          3D

 42 43  0  0  0  0  0  0  0  0999 V2000
   55.6300   26.8350   45.9800 O   0  0  0  0  0  0  0  0  0  0  0  0
   56.2670   27.8180   45.5130 C   0  0  0  0  0  0  0  0  0  0  0  0
   57.7690   27.8270   45.5010 C   0  0  0  0  0  0  0  0  0  0  0  0
   58.3830   28.1310   46.8720 C   0  0  0  0  0  0  0  0  0  0  0  0
   58.6440   29.5600   47.0000 N   0  0  0  0  0  0  0  0  0  0  0  0
   59.9220   30.1460   46.7420 C   0  0  0  0  0  0  0  0  0  0  0  0
   60.5940   29.7710   45.7430 O   0  0  0  0  0  0  0  0  0  0  0  0
   60.4300   31.2370   47.6000 C   0  0  0  0  0  0  0  0  0  0  0  0
   61.4990   32.0220   47.1290 C   0  0  0  0  0  0  0  0  0  0  0  0
   61.9600   33.1160   47.8660 C   0  0  0  0  0  0  0  0  0  0  0  0
   61.3660   33.4360   49.0860 C   0  0  0  0  0  0  0  0  0  0  0  0
   60.3220   32.6520   49.5800 C   0  0  0  0  0  0  0  0  0  0  0  0
   59.8590   31.5420   48.8620 C   0  0  0  0  0  0  0  0  0  0  0  0
   58.8650   30.7560   49.4480 O   0  0  0  0  0  0  0  0  0  0  0  0
   55.5660   28.9100   44.9080 N   0  0  0  0  0  0  0  0  0  0  0  0
   56.1320   29.7910   43.8910 C   0  0  0  0  0  0  0  0  0  0  0  0
   56.5260   31.1410   44.4960 C   0  0  0  0  0  0  0  0  0  0  0  0
   57.8750   31.9540   43.5650 S   0  0  0  0  0  0  0  0  0  0  0  0
   58.3110   33.1070   44.8710 C   0  0  0  0  0  0  0  0  0  0  0  0
   57.7850   32.9430   46.1590 C   0  0  0  0  0  0  0  0  0  0  0  0
   58.1160   33.8490   47.1720 C   0  0  0  0  0  0  0  0  0  0  0  0
   58.9800   34.9160   46.9020 C   0  0  0  0  0  0  0  0  0  0  0  0
   59.5170   35.0720   45.6210 C   0  0  0  0  0  0  0  0  0  0  0  0
   59.1870   34.1670   44.6070 C   0  0  0  0  0  0  0  0  0  0  0  0
   58.1217   26.8385   45.1716 H   0  0  0  0  0  0  0  0  0  0  0  0
   58.0852   28.6282   44.8168 H   0  0  0  0  0  0  0  0  0  0  0  0
   57.6839   27.8170   47.6611 H   0  0  0  0  0  0  0  0  0  0  0  0
   59.3312   27.5822   46.9709 H   0  0  0  0  0  0  0  0  0  0  0  0
   61.9768   31.7716   46.1703 H   0  0  0  0  0  0  0  0  0  0  0  0
   62.7922   33.7252   47.4833 H   0  0  0  0  0  0  0  0  0  0  0  0
   61.7198   34.3058   49.6590 H   0  0  0  0  0  0  0  0  0  0  0  0
   59.8578   32.9087   50.5437 H   0  0  0  0  0  0  0  0  0  0  0  0
   58.4010   29.9990   48.9680 H   0  0  0  0  0  0  0  0  0  0  0  0
   57.0249   29.3155   43.4590 H   0  0  0  0  0  0  0  0  0  0  0  0
   55.3737   29.9624   43.1128 H   0  0  0  0  0  0  0  0  0  0  0  0
   55.6458   31.8008   44.4914 H   0  0  0  0  0  0  0  0  0  0  0  0
   56.8867   30.9582   45.5190 H   0  0  0  0  0  0  0  0  0  0  0  0
   57.1109   32.1008   46.3740 H   0  0  0  0  0  0  0  0  0  0  0  0
   57.6970   33.7226   48.1812 H   0  0  0  0  0  0  0  0  0  0  0  0
   59.2364   35.6315   47.6972 H   0  0  0  0  0  0  0  0  0  0  0  0
   60.2002   35.9079   45.4100 H   0  0  0  0  0  0  0  0  0  0  0  0
   59.6160   34.2880   43.6013 H   0  0  0  0  0  0  0  0  0  0  0  0
  1  2  2  0
  2  3  1  0
  3  4  1  0
  4  5  1  0
  5  6  1  0
  6  7  2  0
  6  8  1  0
  8  9  2  0
  9 10  1  0
 10 11  2  0
 11 12  1  0
 12 13  2  0
 13 14  1  0
  2 15  1  0
 15 16  1  0
 16 17  1  0
 17 18  1  0
 18 19  1  0
 19 20  2  0
 20 21  1  0
 21 22  2  0
 22 23  1  0
 23 24  2  0
 13  8  1  0
 24 19  1  0
  3 25  1  0
  3 26  1  0
  4 27  1  0
  4 28  1  0
  9 29  1  0
 10 30  1  0
 11 31  1  0
 12 32  1  0
 14 33  1  0
 16 34  1  0
 16 35  1  0
 17 36  1  0
 17 37  1  0
 20 38  1  0
 21 39  1  0
 22 40  1  0
 23 41  1  0
 24 42  1  0
M  CHG  2   5  -1  15  -1
M  END
>  <UniqueID>  (79) 
72

>  <SMILES>  (79) 
O=C(CC[N-]C(=O)c1ccccc1O)[N-]CCSc1ccccc1

>  <Energy>  (79) 
37.87717737132192

>  <Genealogy>  (79) 
O=C(CC[N-]C(=O)c1ccccc1O)[N-]CCSc1ccccc1 (protonated)
O=C(CC[N-]C(=O)c1ccccc1O)[N-]CCSc1ccccc1 (3D coordinates assigned)
O=C(CC[N-]C(=O)c1ccccc1O)[N-]CCSc1ccccc1 (optimized conformer: 37.87717737132192 kcal/mol)

>  <smiles>  (79) 
O=C(CCNC(=O)c1ccccc1O)NCCSc1ccccc1

>  <score_type>  (79) 
oracle

>  <origin>  (79) 
adg

>  <m_score__min__energy>  (79) 
-11.710000000000001

>  <m_primary>  (79) 
energy

$$$$
79:0
     RDKit          3D

 75 78  0  0  0  0  0  0  0  0999 V2000
   57.4097   21.2193   42.1139 H   0  0  0  0  0  0  0  0  0  0  0  0
   57.0450   21.7880   42.9820 C   0  0  0  0  0  0  0  0  0  0  0  0
   56.1110   22.8120   42.8030 C   0  0  0  0  0  0  0  0  0  0  0  0
   55.7415   23.0501   41.7946 H   0  0  0  0  0  0  0  0  0  0  0  0
   55.6470   23.5330   43.9060 C   0  0  0  0  0  0  0  0  0  0  0  0
   54.9131   24.3398   43.7628 H   0  0  0  0  0  0  0  0  0  0  0  0
   56.1130   23.2330   45.1980 C   0  0  0  0  0  0  0  0  0  0  0  0
   55.6250   24.0220   46.3810 C   0  0  0  0  0  0  0  0  0  0  0  0
   56.1410   23.6632   47.2838 H   0  0  0  0  0  0  0  0  0  0  0  0
   54.5373   23.8777   46.4587 H   0  0  0  0  0  0  0  0  0  0  0  0
   55.8870   25.4970   46.2260 C   0  0  0  0  0  0  0  0  0  0  0  0
   54.9370   26.2840   45.9790 O   0  0  0  0  0  0  0  0  0  0  0  0
   57.1840   26.0210   46.5230 N   0  0  0  0  0  0  0  0  0  0  0  0
   57.6570   27.1960   46.2090 C   0  0  0  0  0  0  0  0  0  0  0  0
   56.9540   27.9200   45.3020 N   0  0  0  0  0  0  0  0  0  0  0  0
   57.2160   29.2270   45.0760 C   0  0  0  0  0  0  0  0  0  0  0  0
   56.4570   29.9400   44.1420 C   0  0  0  0  0  0  0  0  0  0  0  0
   55.6853   29.4242   43.5516 H   0  0  0  0  0  0  0  0  0  0  0  0
   56.6790   31.3070   43.9590 C   0  0  0  0  0  0  0  0  0  0  0  0
   56.0893   31.8633   43.2155 H   0  0  0  0  0  0  0  0  0  0  0  0
   57.6500   31.9720   44.7190 C   0  0  0  0  0  0  0  0  0  0  0  0
   57.8910   33.7360   44.4920 S   0  0  0  0  0  0  0  0  0  0  0  0
   58.3230   34.1350   46.2240 C   0  0  0  0  0  0  0  0  0  0  0  0
   57.6492   34.9289   46.5785 H   0  0  0  0  0  0  0  0  0  0  0  0
   58.2151   33.2101   46.8096 H   0  0  0  0  0  0  0  0  0  0  0  0
   59.7470   34.6060   46.3870 C   0  0  0  0  0  0  0  0  0  0  0  0
   60.0370   35.7690   45.9880 O   0  0  0  0  0  0  0  0  0  0  0  0
   60.7820   33.7570   46.9350 N   0  0  0  0  0  0  0  0  0  0  0  0
   62.1490   33.8740   46.4070 C   0  0  0  0  0  0  0  0  0  0  0  0
   62.2331   33.2774   45.4867 H   0  0  0  0  0  0  0  0  0  0  0  0
   62.3573   34.9331   46.1950 H   0  0  0  0  0  0  0  0  0  0  0  0
   63.1690   33.3660   47.4310 C   0  0  0  0  0  0  0  0  0  0  0  0
   64.1595   33.3107   46.9557 H   0  0  0  0  0  0  0  0  0  0  0  0
   63.1896   34.0627   48.2820 H   0  0  0  0  0  0  0  0  0  0  0  0
   62.8110   32.0830   47.9060 O   0  0  0  0  0  0  0  0  0  0  0  0
   61.6050   32.1680   48.6360 C   0  0  0  0  0  0  0  0  0  0  0  0
   61.3901   31.1903   49.0920 H   0  0  0  0  0  0  0  0  0  0  0  0
   61.7179   32.9376   49.4138 H   0  0  0  0  0  0  0  0  0  0  0  0
   60.4410   32.5620   47.7220 C   0  0  0  0  0  0  0  0  0  0  0  0
   60.2208   31.7293   47.0378 H   0  0  0  0  0  0  0  0  0  0  0  0
   59.5619   32.7861   48.3441 H   0  0  0  0  0  0  0  0  0  0  0  0
   58.4050   31.2630   45.6660 C   0  0  0  0  0  0  0  0  0  0  0  0
   59.1535   31.7880   46.2776 H   0  0  0  0  0  0  0  0  0  0  0  0
   58.2040   29.8790   45.8330 C   0  0  0  0  0  0  0  0  0  0  0  0
   58.9960   29.1010   46.6940 C   0  0  0  0  0  0  0  0  0  0  0  0
   59.9270   29.6530   47.3440 O   0  0  0  0  0  0  0  0  0  0  0  0
   58.7910   27.7400   46.7870 N   0  0  0  0  0  0  0  0  0  0  0  0
   59.9550   26.8840   47.1490 C   0  0  0  0  0  0  0  0  0  0  0  0
   60.8713   27.3361   46.7417 H   0  0  0  0  0  0  0  0  0  0  0  0
   59.7908   25.8819   46.7260 H   0  0  0  0  0  0  0  0  0  0  0  0
   60.1020   26.7450   48.6800 C   0  0  0  0  0  0  0  0  0  0  0  0
   60.6569   25.8201   48.8962 H   0  0  0  0  0  0  0  0  0  0  0  0
   59.0885   26.7257   49.1070 H   0  0  0  0  0  0  0  0  0  0  0  0
   60.8540   27.9340   49.3270 C   0  0  0  0  0  0  0  0  0  0  0  0
   60.7164   28.8183   48.6875 H   0  0  0  0  0  0  0  0  0  0  0  0
   61.9079   27.6314   49.4147 H   0  0  0  0  0  0  0  0  0  0  0  0
   60.3940   28.2720   50.6910 N   0  0  0  0  0  0  0  0  0  0  0  0
   59.9270   29.6630   50.8590 C   0  0  0  0  0  0  0  0  0  0  0  0
   60.6988   30.3499   50.4816 H   0  0  0  0  0  0  0  0  0  0  0  0
   59.7403   29.8440   51.9278 H   0  0  0  0  0  0  0  0  0  0  0  0
   58.6310   29.8990   50.0920 C   0  0  0  0  0  0  0  0  0  0  0  0
   57.8059   30.0493   50.8037 H   0  0  0  0  0  0  0  0  0  0  0  0
   58.7369   30.7926   49.4594 H   0  0  0  0  0  0  0  0  0  0  0  0
   58.4150   29.0254   49.4594 H   0  0  0  0  0  0  0  0  0  0  0  0
   61.1810   27.6730   51.7970 C   0  0  0  0  0  0  0  0  0  0  0  0
   62.1066   28.2562   51.9121 H   0  0  0  0  0  0  0  0  0  0  0  0
   60.5336   27.7016   52.6858 H   0  0  0  0  0  0  0  0  0  0  0  0
   61.5670   26.2030   51.5950 C   0  0  0  0  0  0  0  0  0  0  0  0
   61.6940   25.7193   52.5747 H   0  0  0  0  0  0  0  0  0  0  0  0
   60.7733   25.6894   51.0327 H   0  0  0  0  0  0  0  0  0  0  0  0
   62.5107   26.1456   51.0327 H   0  0  0  0  0  0  0  0  0  0  0  0
   57.0560   22.2040   45.3690 C   0  0  0  0  0  0  0  0  0  0  0  0
   57.4313   21.9649   46.3750 H   0  0  0  0  0  0  0  0  0  0  0  0
   57.5170   21.4850   44.2640 C   0  0  0  0  0  0  0  0  0  0  0  0
   58.2526   20.6789   44.4017 H   0  0  0  0  0  0  0  0  0  0  0  0
  1  2  1  0
  2  3  2  0
  3  4  1  0
  3  5  1  0
  5  6  1  0
  5  7  2  0
  7  8  1  0
  8  9  1  0
  8 10  1  0
  8 11  1  0
 11 12  2  0
 11 13  1  0
 13 14  2  0
 14 15  1  0
 15 16  1  0
 16 17  2  0
 17 18  1  0
 17 19  1  0
 19 20  1  0
 19 21  2  0
 21 22  1  0
 22 23  1  0
 23 24  1  0
 23 25  1  0
 23 26  1  0
 26 27  2  0
 26 28  1  0
 28 29  1  0
 29 30  1  0
 29 31  1  0
 29 32  1  0
 32 33  1  0
 32 34  1  0
 32 35  1  0
 35 36  1  0
 36 37  1  0
 36 38  1  0
 36 39  1  0
 39 40  1  0
 39 41  1  0
 21 42  1  0
 42 43  1  0
 42 44  2  0
 44 45  1  0
 45 46  2  0
 45 47  1  0
 47 48  1  0
 48 49  1  0
 48 50  1  0
 48 51  1  0
 51 52  1  0
 51 53  1  0
 51 54  1  0
 54 55  1  0
 54 56  1  0
 54 57  1  0
 57 58  1  0
 58 59  1  0
 58 60  1  0
 58 61  1  0
 61 62  1  0
 61 63  1  0
 61 64  1  0
 57 65  1  0
 65 66  1  0
 65 67  1  0
 65 68  1  0
 68 69  1  0
 68 70  1  0
 68 71  1  0
  7 72  1  0
 72 73  1  0
 72 74  2  0
 74 75  1  0
 74  2  1  0
 47 14  1  0
 44 16  1  0
 39 28  1  0
M  CHG  1  15  -1
M  END
>  <UniqueID>  (80) 
73

>  <SMILES>  (80) 
CCN(CC)CCCn1c(=O)c2cc(SCC(=O)N3CCOCC3)ccc2[n-]/c1=N/C(=O)Cc1ccccc1

>  <Energy>  (80) 
110.26753686325537

>  <Genealogy>  (80) 
CCN(CC)CCCn1c(=NC(=O)Cc2ccccc2)[n-]c2ccc(SCC(=O)N3CCOCC3)cc2c1=O (protonated)
CCN(CC)CCCn1c(=O)c2cc(SCC(=O)N3CCOCC3)ccc2[n-]/c1=N/C(=O)Cc1ccccc1 (cis-trans isomerization)
CCN(CC)CCCn1c(=O)c2cc(SCC(=O)N3CCOCC3)ccc2[n-]/c1=N/C(=O)Cc1ccccc1 (3D coordinates assigned)
CCN(CC)CCCn1c(=O)c2cc(SCC(=O)N3CCOCC3)ccc2[n-]/c1=N/C(=O)Cc1ccccc1 (nonaromatic ring conformer: 110.26753686325537 kcal/mol)

>  <smiles>  (80) 
CCN(CC)CCCn1c(=NC(=O)Cc2ccccc2)[nH]c2ccc(SCC(=O)N3CCOCC3)cc2c1=O

>  <score_type>  (80) 
oracle

>  <origin>  (80) 
adg

>  <m_score__min__energy>  (80) 
-11.02

>  <m_primary>  (80) 
energy

$$$$
80:0
     RDKit          3D

 48 50  0  0  0  0  0  0  0  0999 V2000
   60.7910   26.5970   46.4170 C   0  0  0  0  0  0  0  0  0  0  0  0
   59.6040   25.7280   46.0080 C   0  0  0  0  0  0  0  0  0  0  0  0
   58.4000   26.0960   46.7680 N   0  0  0  0  0  0  0  0  0  0  0  0
   57.3630   25.0850   47.0400 C   0  0  0  0  0  0  0  0  0  0  0  0
   57.0830   24.2490   45.8210 C   0  0  0  0  0  0  0  0  0  0  0  0
   56.9580   24.8490   44.5560 C   0  0  0  0  0  0  0  0  0  0  0  0
   56.6740   24.0710   43.4310 C   0  0  0  0  0  0  0  0  0  0  0  0
   56.5240   22.6860   43.5520 C   0  0  0  0  0  0  0  0  0  0  0  0
   56.2370   21.9230   42.4230 O   0  0  0  0  0  0  0  0  0  0  0  0
   56.6660   22.0800   44.8080 C   0  0  0  0  0  0  0  0  0  0  0  0
   56.9480   22.8570   45.9360 C   0  0  0  0  0  0  0  0  0  0  0  0
   58.1330   27.4860   47.0430 C   0  0  0  0  0  0  0  0  0  0  0  0
   58.3820   27.9620   48.1830 O   0  0  0  0  0  0  0  0  0  0  0  0
   57.5650   28.3730   46.0090 C   0  0  0  0  0  0  0  0  0  0  0  0
   56.2770   28.1510   45.5160 C   0  0  0  0  0  0  0  0  0  0  0  0
   55.5010   27.1020   45.9960 O   0  0  0  0  0  0  0  0  0  0  0  0
   55.7750   28.9660   44.5600 N   0  0  0  0  0  0  0  0  0  0  0  0
   56.4880   30.0080   44.0650 C   0  0  0  0  0  0  0  0  0  0  0  0
   55.9680   30.7290   43.1730 O   0  0  0  0  0  0  0  0  0  0  0  0
   57.7550   30.2660   44.5310 N   0  0  0  0  0  0  0  0  0  0  0  0
   58.5200   31.4210   44.0180 C   0  0  0  0  0  0  0  0  0  0  0  0
   58.5410   32.5330   45.0360 C   0  0  0  0  0  0  0  0  0  0  0  0
   59.2210   33.7330   44.7660 C   0  0  0  0  0  0  0  0  0  0  0  0
   59.2650   34.7490   45.7260 C   0  0  0  0  0  0  0  0  0  0  0  0
   58.6350   34.5750   46.9600 C   0  0  0  0  0  0  0  0  0  0  0  0
   57.9600   33.3840   47.2390 C   0  0  0  0  0  0  0  0  0  0  0  0
   57.9130   32.3650   46.2820 C   0  0  0  0  0  0  0  0  0  0  0  0
   58.2940   29.4610   45.5060 C   0  0  0  0  0  0  0  0  0  0  0  0
   59.4560   29.6830   45.9470 O   0  0  0  0  0  0  0  0  0  0  0  0
   60.8519   26.6416   47.5144 H   0  0  0  0  0  0  0  0  0  0  0  0
   61.7187   26.1630   46.0156 H   0  0  0  0  0  0  0  0  0  0  0  0
   60.6576   27.6124   46.0156 H   0  0  0  0  0  0  0  0  0  0  0  0
   59.4089   25.8664   44.9343 H   0  0  0  0  0  0  0  0  0  0  0  0
   59.8473   24.6766   46.2209 H   0  0  0  0  0  0  0  0  0  0  0  0
   57.7065   24.4290   47.8534 H   0  0  0  0  0  0  0  0  0  0  0  0
   56.4366   25.6052   47.3251 H   0  0  0  0  0  0  0  0  0  0  0  0
   57.0845   25.9367   44.4514 H   0  0  0  0  0  0  0  0  0  0  0  0
   56.5680   24.5497   42.4463 H   0  0  0  0  0  0  0  0  0  0  0  0
   56.4730   22.2460   41.4920 H   0  0  0  0  0  0  0  0  0  0  0  0
   56.5553   20.9900   44.9066 H   0  0  0  0  0  0  0  0  0  0  0  0
   57.0645   22.3748   46.9178 H   0  0  0  0  0  0  0  0  0  0  0  0
   59.5520   31.1059   43.8044 H   0  0  0  0  0  0  0  0  0  0  0  0
   58.0384   31.7878   43.0996 H   0  0  0  0  0  0  0  0  0  0  0  0
   59.7204   33.8736   43.7960 H   0  0  0  0  0  0  0  0  0  0  0  0
   59.7969   35.6870   45.5086 H   0  0  0  0  0  0  0  0  0  0  0  0
   58.6702   35.3762   47.7129 H   0  0  0  0  0  0  0  0  0  0  0  0
   57.4652   33.2476   48.2119 H   0  0  0  0  0  0  0  0  0  0  0  0
   57.3821   31.4279   46.5056 H   0  0  0  0  0  0  0  0  0  0  0  0
  1  2  1  0
  2  3  1  0
  3  4  1  0
  4  5  1  0
  5  6  2  0
  6  7  1  0
  7  8  2  0
  8  9  1  0
  8 10  1  0
 10 11  2  0
  3 12  1  0
 12 13  2  0
 12 14  1  0
 14 15  2  0
 15 16  1  0
 15 17  1  0
 17 18  1  0
 18 19  2  0
 18 20  1  0
 20 21  1  0
 21 22  1  0
 22 23  2  0
 23 24  1  0
 24 25  2  0
 25 26  1  0
 26 27  2  0
 20 28  1  0
 28 29  2  0
 11  5  1  0
 28 14  1  0
 27 22  1  0
  1 30  1  0
  1 31  1  0
  1 32  1  0
  2 33  1  0
  2 34  1  0
  4 35  1  0
  4 36  1  0
  6 37  1  0
  7 38  1  0
  9 39  1  0
 10 40  1  0
 11 41  1  0
 21 42  1  0
 21 43  1  0
 23 44  1  0
 24 45  1  0
 25 46  1  0
 26 47  1  0
 27 48  1  0
M  CHG  2  16  -1  17  -1
M  END
>  <UniqueID>  (81) 
74

>  <SMILES>  (81) 
CCN(Cc1ccc(O)cc1)C(=O)c1c([O-])[n-]c(=O)n(Cc2ccccc2)c1=O

>  <Energy>  (81) 
56.263017955709635

>  <Genealogy>  (81) 
CCN(Cc1ccc(O)cc1)C(=O)c1c([O-])[n-]c(=O)n(Cc2ccccc2)c1=O (protonated)
CCN(Cc1ccc(O)cc1)C(=O)c1c([O-])[n-]c(=O)n(Cc2ccccc2)c1=O (3D coordinates assigned)
CCN(Cc1ccc(O)cc1)C(=O)c1c([O-])[n-]c(=O)n(Cc2ccccc2)c1=O (optimized conformer: 56.263017955709635 kcal/mol)

>  <smiles>  (81) 
CCN(Cc1ccc(O)cc1)C(=O)c1c(O)[nH]c(=O)n(Cc2ccccc2)c1=O

>  <score_type>  (81) 
oracle

>  <origin>  (81) 
adg

>  <m_score__min__energy>  (81) 
-13.16

>  <m_primary>  (81) 
energy

$$$$
81:0
     RDKit          3D

 54 57  0  0  0  0  0  0  0  0999 V2000
   50.3220   25.0560   43.7380 C   0  0  0  0  0  0  0  0  0  0  0  0
   51.2020   24.0780   44.5130 C   0  0  0  0  0  0  0  0  0  0  0  0
   50.4610   23.4250   45.6880 C   0  0  0  0  0  0  0  0  0  0  0  0
   51.4490   22.2210   46.5760 S   0  0  0  0  0  0  0  0  0  0  0  0
   51.8710   22.7670   47.9110 O   0  0  0  0  0  0  0  0  0  0  0  0
   50.5900   21.0130   46.8240 O   0  0  0  0  0  0  0  0  0  0  0  0
   52.8300   21.7110   45.6520 N   0  0  0  0  0  0  0  0  0  0  0  0
   54.1540   22.2670   45.6760 C   0  0  0  0  0  0  0  0  0  0  0  0
   55.2330   21.3920   45.6180 C   0  0  0  0  0  0  0  0  0  0  0  0
   56.5390   21.8730   45.6070 C   0  0  0  0  0  0  0  0  0  0  0  0
   56.8130   23.2620   45.6430 C   0  0  0  0  0  0  0  0  0  0  0  0
   55.7100   24.1620   45.7360 C   0  0  0  0  0  0  0  0  0  0  0  0
   54.3940   23.6460   45.7240 C   0  0  0  0  0  0  0  0  0  0  0  0
   55.9620   25.5490   45.8360 C   0  0  0  0  0  0  0  0  0  0  0  0
   54.9400   26.4970   45.9890 O   0  0  0  0  0  0  0  0  0  0  0  0
   57.2820   26.0150   45.8200 C   0  0  0  0  0  0  0  0  0  0  0  0
   57.5580   27.4690   45.9310 C   0  0  0  0  0  0  0  0  0  0  0  0
   57.2450   28.2390   44.9330 N   0  0  0  0  0  0  0  0  0  0  0  0
   57.5080   29.9420   44.9250 S   0  0  0  0  0  0  0  0  0  0  0  0
   58.3800   30.3100   43.7600 O   0  0  0  0  0  0  0  0  0  0  0  0
   56.1890   30.6550   44.8380 O   0  0  0  0  0  0  0  0  0  0  0  0
   58.3080   30.3550   46.4150 C   0  0  0  0  0  0  0  0  0  0  0  0
   58.6980   31.6780   46.6620 C   0  0  0  0  0  0  0  0  0  0  0  0
   59.3320   32.0070   47.8630 C   0  0  0  0  0  0  0  0  0  0  0  0
   59.7210   33.3190   48.1070 O   0  0  0  0  0  0  0  0  0  0  0  0
   59.5750   31.0170   48.8180 C   0  0  0  0  0  0  0  0  0  0  0  0
   59.1840   29.6970   48.5720 C   0  0  0  0  0  0  0  0  0  0  0  0
   58.5490   29.3530   47.3670 C   0  0  0  0  0  0  0  0  0  0  0  0
   58.1540   27.9850   47.1410 N   0  0  0  0  0  0  0  0  0  0  0  0
   58.3420   25.1030   45.6990 C   0  0  0  0  0  0  0  0  0  0  0  0
   59.5250   25.5460   45.6780 O   0  0  0  0  0  0  0  0  0  0  0  0
   58.1070   23.7520   45.5900 N   0  0  0  0  0  0  0  0  0  0  0  0
   59.2750   22.8510   45.4360 C   0  0  0  0  0  0  0  0  0  0  0  0
   59.1850   22.0660   44.1300 C   0  0  0  0  0  0  0  0  0  0  0  0
   49.7586   25.6821   44.4455 H   0  0  0  0  0  0  0  0  0  0  0  0
   50.9544   25.6960   43.1051 H   0  0  0  0  0  0  0  0  0  0  0  0
   49.6191   24.4945   43.1051 H   0  0  0  0  0  0  0  0  0  0  0  0
   51.5406   23.2879   43.8266 H   0  0  0  0  0  0  0  0  0  0  0  0
   52.0491   24.6454   44.9258 H   0  0  0  0  0  0  0  0  0  0  0  0
   50.1593   24.2149   46.3916 H   0  0  0  0  0  0  0  0  0  0  0  0
   49.5975   22.8885   45.2680 H   0  0  0  0  0  0  0  0  0  0  0  0
   55.0524   20.3076   45.5804 H   0  0  0  0  0  0  0  0  0  0  0  0
   57.3755   21.1597   45.5696 H   0  0  0  0  0  0  0  0  0  0  0  0
   53.5419   24.3410   45.7529 H   0  0  0  0  0  0  0  0  0  0  0  0
   54.0370   26.3260   46.4060 H   0  0  0  0  0  0  0  0  0  0  0  0
   58.5051   32.4577   45.9104 H   0  0  0  0  0  0  0  0  0  0  0  0
   60.0739   31.2757   49.7636 H   0  0  0  0  0  0  0  0  0  0  0  0
   59.3753   28.9216   49.3284 H   0  0  0  0  0  0  0  0  0  0  0  0
   58.3050   27.3080   47.9220 H   0  0  0  0  0  0  0  0  0  0  0  0
   60.1963   23.4520   45.4328 H   0  0  0  0  0  0  0  0  0  0  0  0
   59.2850   22.1398   46.2751 H   0  0  0  0  0  0  0  0  0  0  0  0
   59.0623   20.9959   44.3531 H   0  0  0  0  0  0  0  0  0  0  0  0
   58.3216   22.4205   43.5479 H   0  0  0  0  0  0  0  0  0  0  0  0
   60.1062   22.2159   43.5479 H   0  0  0  0  0  0  0  0  0  0  0  0
  1  2  1  0
  2  3  1  0
  3  4  1  0
  4  5  2  0
  4  6  2  0
  4  7  1  0
  7  8  1  0
  8  9  2  0
  9 10  1  0
 10 11  2  0
 11 12  1  0
 12 13  2  0
 12 14  1  0
 14 15  1  0
 14 16  2  0
 16 17  1  0
 17 18  2  0
 18 19  1  0
 19 20  2  0
 19 21  2  0
 19 22  1  0
 22 23  2  0
 23 24  1  0
 24 25  1  0
 24 26  2  0
 26 27  1  0
 27 28  2  0
 28 29  1  0
 16 30  1  0
 30 31  2  0
 30 32  1  0
 32 33  1  0
 33 34  1  0
 13  8  1  0
 29 17  1  0
 32 11  1  0
 28 22  1  0
  1 35  1  0
  1 36  1  0
  1 37  1  0
  2 38  1  0
  2 39  1  0
  3 40  1  0
  3 41  1  0
  9 42  1  0
 10 43  1  0
 13 44  1  0
 15 45  1  0
 23 46  1  0
 26 47  1  0
 27 48  1  0
 29 49  1  0
 33 50  1  0
 33 51  1  0
 34 52  1  0
 34 53  1  0
 34 54  1  0
M  CHG  2   7  -1  25  -1
M  END
>  <UniqueID>  (82) 
75

>  <SMILES>  (82) 
CCCS(=O)(=O)[N-]c1ccc2c(c1)c(O)c(C1=NS(=O)(=O)c3cc([O-])ccc3N1)c(=O)n2CC

>  <Energy>  (82) 
80.34199221091406

>  <Genealogy>  (82) 
CCCS(=O)(=O)[N-]c1ccc2c(c1)c(O)c(C1=NS(=O)(=O)c3cc([O-])ccc3N1)c(=O)n2CC (protonated)
CCCS(=O)(=O)[N-]c1ccc2c(c1)c(O)c(C1=NS(=O)(=O)c3cc([O-])ccc3N1)c(=O)n2CC (3D coordinates assigned)
CCCS(=O)(=O)[N-]c1ccc2c(c1)c(O)c(C1=NS(=O)(=O)c3cc([O-])ccc3N1)c(=O)n2CC (nonaromatic ring conformer: 80.34199221091406 kcal/mol)

>  <smiles>  (82) 
CCCS(=O)(=O)Nc1ccc2c(c1)c(O)c(C1=NS(=O)(=O)c3cc(O)ccc3N1)c(=O)n2CC

>  <score_type>  (82) 
oracle

>  <origin>  (82) 
adg

>  <m_score__min__energy>  (82) 
-11.279999999999999

>  <m_primary>  (82) 
energy

$$$$
82:0
     RDKit          3D

 41 43  0  0  0  0  0  0  0  0999 V2000
   59.0410   29.7790   48.2220 O   0  0  0  0  0  0  0  0  0  0  0  0
   58.8390   30.6020   47.2920 C   0  0  0  0  0  0  0  0  0  0  0  0
   58.8400   30.1140   45.8680 C   0  0  0  0  0  0  0  0  0  0  0  0
   57.4440   29.9020   45.3660 C   0  0  0  0  0  0  0  0  0  0  0  0
   56.7130   28.7420   45.4680 C   0  0  0  0  0  0  0  0  0  0  0  0
   55.5280   28.9190   44.8610 N   0  0  0  0  0  0  0  0  0  0  0  0
   55.5800   30.1860   44.3990 C   0  0  0  0  0  0  0  0  0  0  0  0
   56.7380   30.8190   44.6790 N   0  0  0  0  0  0  0  0  0  0  0  0
   58.5250   31.9610   47.6270 N   0  0  0  0  0  0  0  0  0  0  0  0
   58.7770   33.1090   46.8050 C   0  0  0  0  0  0  0  0  0  0  0  0
   58.1430   33.2410   45.5590 C   0  0  0  0  0  0  0  0  0  0  0  0
   58.3810   34.3600   44.7580 C   0  0  0  0  0  0  0  0  0  0  0  0
   59.2710   35.3470   45.1840 C   0  0  0  0  0  0  0  0  0  0  0  0
   59.9310   35.2130   46.4070 C   0  0  0  0  0  0  0  0  0  0  0  0
   59.6960   34.0950   47.2260 C   0  0  0  0  0  0  0  0  0  0  0  0
   60.4180   33.9700   48.5140 C   0  0  0  0  0  0  0  0  0  0  0  0
   59.9150   34.4810   49.5520 O   0  0  0  0  0  0  0  0  0  0  0  0
   61.6710   33.2610   48.6100 N   0  0  0  0  0  0  0  0  0  0  0  0
   62.5970   33.2040   47.4680 C   0  0  0  0  0  0  0  0  0  0  0  0
   64.0370   33.3890   47.9530 C   0  0  0  0  0  0  0  0  0  0  0  0
   64.4330   32.3750   49.0470 C   0  0  0  0  0  0  0  0  0  0  0  0
   63.2330   31.6920   49.7250 C   0  0  0  0  0  0  0  0  0  0  0  0
   62.0480   32.6490   49.8930 C   0  0  0  0  0  0  0  0  0  0  0  0
   59.3399   30.8606   45.2334 H   0  0  0  0  0  0  0  0  0  0  0  0
   59.3732   29.1526   45.8300 H   0  0  0  0  0  0  0  0  0  0  0  0
   57.0448   27.8189   45.9659 H   0  0  0  0  0  0  0  0  0  0  0  0
   54.7550   30.6585   43.8457 H   0  0  0  0  0  0  0  0  0  0  0  0
   57.4539   32.4573   45.2113 H   0  0  0  0  0  0  0  0  0  0  0  0
   57.8668   34.4635   43.7911 H   0  0  0  0  0  0  0  0  0  0  0  0
   59.4527   36.2314   44.5556 H   0  0  0  0  0  0  0  0  0  0  0  0
   60.6404   35.9883   46.7322 H   0  0  0  0  0  0  0  0  0  0  0  0
   62.5026   32.2274   46.9707 H   0  0  0  0  0  0  0  0  0  0  0  0
   62.3479   34.0083   46.7602 H   0  0  0  0  0  0  0  0  0  0  0  0
   64.7154   33.2648   47.0961 H   0  0  0  0  0  0  0  0  0  0  0  0
   64.1131   34.3955   48.3902 H   0  0  0  0  0  0  0  0  0  0  0  0
   65.0607   31.5971   48.5878 H   0  0  0  0  0  0  0  0  0  0  0  0
   64.9642   32.9383   49.8284 H   0  0  0  0  0  0  0  0  0  0  0  0
   62.9154   30.8381   49.1086 H   0  0  0  0  0  0  0  0  0  0  0  0
   63.5496   31.3638   50.7260 H   0  0  0  0  0  0  0  0  0  0  0  0
   61.1883   32.0890   50.2895 H   0  0  0  0  0  0  0  0  0  0  0  0
   62.3434   33.4498   50.5868 H   0  0  0  0  0  0  0  0  0  0  0  0
  1  2  2  0
  2  3  1  0
  3  4  1  0
  4  5  2  0
  5  6  1  0
  6  7  1  0
  7  8  2  0
  2  9  1  0
  9 10  1  0
 10 11  2  0
 11 12  1  0
 12 13  2  0
 13 14  1  0
 14 15  2  0
 15 16  1  0
 16 17  2  0
 16 18  1  0
 18 19  1  0
 19 20  1  0
 20 21  1  0
 21 22  1  0
 22 23  1  0
  8  4  1  0
 15 10  1  0
 23 18  1  0
  3 24  1  0
  3 25  1  0
  5 26  1  0
  7 27  1  0
 11 28  1  0
 12 29  1  0
 13 30  1  0
 14 31  1  0
 19 32  1  0
 19 33  1  0
 20 34  1  0
 20 35  1  0
 21 36  1  0
 21 37  1  0
 22 38  1  0
 22 39  1  0
 23 40  1  0
 23 41  1  0
M  CHG  2   6  -1   9  -1
M  END
>  <UniqueID>  (83) 
76

>  <SMILES>  (83) 
O=C(Cc1c[n-]cn1)[N-]c1ccccc1C(=O)N1CCCCC1

>  <Energy>  (83) 
79.3569290349542

>  <Genealogy>  (83) 
O=C(Cc1c[n-]cn1)[N-]c1ccccc1C(=O)N1CCCCC1 (protonated)
O=C(Cc1c[n-]cn1)[N-]c1ccccc1C(=O)N1CCCCC1 (3D coordinates assigned)
O=C(Cc1c[n-]cn1)[N-]c1ccccc1C(=O)N1CCCCC1 (nonaromatic ring conformer: 79.3569290349542 kcal/mol)

>  <smiles>  (83) 
O=C(Cc1c[nH]cn1)Nc1ccccc1C(=O)N1CCCCC1

>  <score_type>  (83) 
oracle

>  <origin>  (83) 
adg

>  <m_score__min__energy>  (83) 
-11.369999999999999

>  <m_primary>  (83) 
energy

$$$$
83:0
     RDKit          3D

 43 46  0  0  1  0  0  0  0  0999 V2000
   55.0540   25.7880   45.9920 O   0  0  0  0  0  0  0  0  0  0  0  0
   56.3230   25.4150   46.0240 C   0  0  0  0  0  0  0  0  0  0  0  0
   57.0900   26.1920   46.8830 N   0  0  0  0  0  0  0  0  0  0  0  0
   57.7430   27.2680   46.6550 C   0  0  0  0  0  0  0  0  0  0  0  0
   57.3640   28.0370   45.5870 C   0  0  0  0  0  0  0  0  0  0  0  0
   58.0490   29.2250   45.3340 C   0  0  0  0  0  0  0  0  0  0  0  0
   57.5860   30.0050   44.2070 C   0  0  0  0  0  0  0  0  0  0  0  0
   57.0130   29.4760   43.0660 C   0  0  0  0  0  0  0  0  0  0  0  0
   56.6800   30.5030   42.2590 N   0  0  0  0  0  0  0  0  0  0  0  0
   57.0150   31.6230   42.8360 N   0  0  0  0  0  0  0  0  0  0  0  0
   57.5830   31.3670   44.0540 C   0  0  0  0  0  0  0  0  0  0  0  0
   58.0750   32.4140   44.9210 C   0  0  0  0  0  0  0  0  0  0  0  0
   57.9170   32.4610   46.2750 C   0  0  0  0  0  0  0  0  0  0  0  0
   58.4280   33.5510   46.9910 C   0  0  0  0  0  0  0  0  0  0  0  0
   59.0910   34.5880   46.3780 C   0  0  0  0  0  0  0  0  0  0  0  0
   59.6050   35.6820   47.1040 O   0  0  0  0  0  0  0  0  0  0  0  0
   59.2510   34.5380   44.9930 C   0  0  0  0  0  0  0  0  0  0  0  0
   58.7510   33.4680   44.2810 C   0  0  0  0  0  0  0  0  0  0  0  0
   59.0780   29.5620   46.1800 C   0  0  0  0  0  0  0  0  0  0  0  0
   59.4080   28.7220   47.2530 C   0  0  0  0  0  0  0  0  0  0  0  0
   58.7480   27.5790   47.4940 N   0  0  0  0  0  0  0  0  0  0  0  0
   56.6140   24.3130   45.1830 C   0  0  0  0  0  0  0  0  0  0  0  0
   55.8220   24.0800   44.0790 C   0  0  0  0  0  0  0  0  0  0  0  0
   56.0340   23.0410   43.2130 C   0  0  0  0  0  0  0  0  0  0  0  0
   57.0710   22.1450   43.3950 C   0  0  0  0  0  0  0  0  0  0  0  0
   57.8850   22.3530   44.4980 C   0  0  0  0  0  0  0  0  0  0  0  0
   57.6690   23.4070   45.3710 C   0  0  0  0  0  0  0  0  0  0  0  0
   56.5325   27.7226   44.9391 H   0  0  0  0  0  0  0  0  0  0  0  0
   56.8567   28.4079   42.8543 H   0  0  0  0  0  0  0  0  0  0  0  0
   56.8570   32.5810   42.4210 H   0  0  0  0  0  0  0  0  0  0  0  0
   57.3925   31.6494   46.8004 H   0  0  0  0  0  0  0  0  0  0  0  0
   58.2942   33.5784   48.0825 H   0  0  0  0  0  0  0  0  0  0  0  0
   58.9270   36.4230   47.2880 H   0  0  0  0  0  0  0  0  0  0  0  0
   59.7753   35.3510   44.4695 H   0  0  0  0  0  0  0  0  0  0  0  0
   58.8838   33.4384   43.1894 H   0  0  0  0  0  0  0  0  0  0  0  0
   59.6431   30.4913   46.0153 H   0  0  0  0  0  0  0  0  0  0  0  0
   60.2350   29.0095   47.9189 H   0  0  0  0  0  0  0  0  0  0  0  0
   58.9500   26.9280   48.2640 H   0  0  0  0  0  0  0  0  0  0  0  0
   54.9801   24.7608   43.8847 H   0  0  0  0  0  0  0  0  0  0  0  0
   55.3624   22.9160   42.3508 H   0  0  0  0  0  0  0  0  0  0  0  0
   57.2416   21.3096   42.7001 H   0  0  0  0  0  0  0  0  0  0  0  0
   58.7225   21.6646   44.6845 H   0  0  0  0  0  0  0  0  0  0  0  0
   58.3408   23.5367   46.2323 H   0  0  0  0  0  0  0  0  0  0  0  0
  1  2  2  0
  2  3  1  0
  3  4  2  0
  4  5  1  0
  5  6  2  0
  6  7  1  0
  7  8  1  0
  8  9  2  0
  9 10  1  0
 10 11  1  0
 11 12  1  0
 12 13  2  0
 13 14  1  0
 14 15  2  0
 15 16  1  0
 15 17  1  0
 17 18  2  0
  6 19  1  0
 19 20  2  0
 20 21  1  0
  2 22  1  0
 22 23  2  0
 23 24  1  0
 24 25  2  0
 25 26  1  0
 26 27  2  0
 21  4  1  0
 27 22  1  0
 11  7  2  0
 18 12  1  0
  5 28  1  0
  8 29  1  0
 10 30  1  0
 13 31  1  0
 14 32  1  0
 16 33  1  0
 17 34  1  0
 18 35  1  0
 19 36  1  0
 20 37  1  0
 21 38  1  0
 23 39  1  0
 24 40  1  0
 25 41  1  0
 26 42  1  0
 27 43  1  0
M  END
>  <smiles>  (84) 
O=C(N=c1cc(-c2cn[nH]c2-c2ccc(O)cc2)cc[nH]1)c1ccccc1

>  <score_type>  (84) 
oracle

>  <origin>  (84) 
adg

>  <m_score__min__energy>  (84) 
-8.7200000000000006

>  <m_primary>  (84) 
energy

$$$$
84:0
     RDKit          3D

 37 39  0  0  0  0  0  0  0  0999 V2000
   57.7710   28.1840   43.5710 N   0  0  0  0  0  0  0  0  0  0  0  0
   57.1160   28.7070   45.0830 S   0  0  0  0  0  0  0  0  0  0  0  0
   55.9360   29.6040   44.8350 O   0  0  0  0  0  0  0  0  0  0  0  0
   56.6580   27.5130   45.8720 O   0  0  0  0  0  0  0  0  0  0  0  0
   58.3520   29.5770   45.9860 C   0  0  0  0  0  0  0  0  0  0  0  0
   58.4760   29.3970   47.3690 C   0  0  0  0  0  0  0  0  0  0  0  0
   59.4200   30.1310   48.0930 C   0  0  0  0  0  0  0  0  0  0  0  0
   60.2300   31.0740   47.4420 C   0  0  0  0  0  0  0  0  0  0  0  0
   61.1970   31.8870   48.2130 C   0  0  0  0  0  0  0  0  0  0  0  0
   62.4180   31.2800   48.5480 C   0  0  0  0  0  0  0  0  0  0  0  0
   63.4540   32.0290   49.0980 C   0  0  0  0  0  0  0  0  0  0  0  0
   63.2740   33.3920   49.3030 C   0  0  0  0  0  0  0  0  0  0  0  0
   62.0820   33.9700   49.0090 N   0  0  0  0  0  0  0  0  0  0  0  0
   61.0250   33.2760   48.5050 C   0  0  0  0  0  0  0  0  0  0  0  0
   59.9100   33.9370   48.3320 N   0  0  0  0  0  0  0  0  0  0  0  0
   59.0970   34.0570   47.1560 C   0  0  0  0  0  0  0  0  0  0  0  0
   59.5800   34.7160   46.0150 C   0  0  0  0  0  0  0  0  0  0  0  0
   58.7810   34.8150   44.8710 C   0  0  0  0  0  0  0  0  0  0  0  0
   57.5110   34.2310   44.8510 C   0  0  0  0  0  0  0  0  0  0  0  0
   57.0460   33.5330   45.9710 C   0  0  0  0  0  0  0  0  0  0  0  0
   57.8430   33.4320   47.1150 C   0  0  0  0  0  0  0  0  0  0  0  0
   60.1340   31.2220   46.0490 C   0  0  0  0  0  0  0  0  0  0  0  0
   59.1900   30.4870   45.3280 C   0  0  0  0  0  0  0  0  0  0  0  0
   58.0700   29.0420   43.0550 H   0  0  0  0  0  0  0  0  0  0  0  0
   56.9840   27.7660   43.0270 H   0  0  0  0  0  0  0  0  0  0  0  0
   57.8281   28.6752   47.8878 H   0  0  0  0  0  0  0  0  0  0  0  0
   59.5281   29.9690   49.1756 H   0  0  0  0  0  0  0  0  0  0  0  0
   62.5569   30.2027   48.3742 H   0  0  0  0  0  0  0  0  0  0  0  0
   64.4055   31.5474   49.3677 H   0  0  0  0  0  0  0  0  0  0  0  0
   64.0974   34.0017   49.7033 H   0  0  0  0  0  0  0  0  0  0  0  0
   60.5884   35.1554   46.0202 H   0  0  0  0  0  0  0  0  0  0  0  0
   59.1524   35.3529   43.9863 H   0  0  0  0  0  0  0  0  0  0  0  0
   56.8780   34.3201   43.9558 H   0  0  0  0  0  0  0  0  0  0  0  0
   56.0517   33.0630   45.9513 H   0  0  0  0  0  0  0  0  0  0  0  0
   57.4854   32.8610   47.9846 H   0  0  0  0  0  0  0  0  0  0  0  0
   60.8041   31.9187   45.5240 H   0  0  0  0  0  0  0  0  0  0  0  0
   59.1042   30.6231   44.2398 H   0  0  0  0  0  0  0  0  0  0  0  0
  1  2  1  0
  2  3  2  0
  2  4  2  0
  2  5  1  0
  5  6  2  0
  6  7  1  0
  7  8  2  0
  8  9  1  0
  9 10  2  0
 10 11  1  0
 11 12  2  0
 12 13  1  0
 13 14  1  0
 14 15  2  3
 15 16  1  0
 16 17  2  0
 17 18  1  0
 18 19  2  0
 19 20  1  0
 20 21  2  0
  8 22  1  0
 22 23  2  0
 23  5  1  0
 14  9  1  0
 21 16  1  0
  1 24  1  0
  1 25  1  0
  6 26  1  0
  7 27  1  0
 10 28  1  0
 11 29  1  0
 12 30  1  0
 17 31  1  0
 18 32  1  0
 19 33  1  0
 20 34  1  0
 21 35  1  0
 22 36  1  0
 23 37  1  0
M  CHG  1  13  -1
M  END
>  <UniqueID>  (85) 
77

>  <SMILES>  (85) 
NS(=O)(=O)c1ccc(-c2ccc[n-]c2=Nc2ccccc2)cc1

>  <Energy>  (85) 
58.32413988847728

>  <Genealogy>  (85) 
NS(=O)(=O)c1ccc(-c2ccc[n-]c2=Nc2ccccc2)cc1 (protonated)
NS(=O)(=O)c1ccc(-c2ccc[n-]c2=Nc2ccccc2)cc1 (3D coordinates assigned)
NS(=O)(=O)c1ccc(-c2ccc[n-]c2=Nc2ccccc2)cc1 (optimized conformer: 58.32413988847728 kcal/mol)

>  <smiles>  (85) 
NS(=O)(=O)c1ccc(-c2ccc[nH]c2=Nc2ccccc2)cc1

>  <score_type>  (85) 
oracle

>  <origin>  (85) 
adg

>  <m_score__min__energy>  (85) 
-9.3399999999999999

>  <m_primary>  (85) 
energy

$$$$
85:0
     RDKit          3D

 46 48  0  0  0  0  0  0  0  0999 V2000
   57.0420   31.5800   43.0550 O   0  0  0  0  0  0  0  0  0  0  0  0
   56.6840   31.2830   44.2230 C   0  0  0  0  0  0  0  0  0  0  0  0
   56.6720   32.3060   45.2310 N   0  0  0  0  0  0  0  0  0  0  0  0
   57.8070   32.7060   46.0120 C   0  0  0  0  0  0  0  0  0  0  0  0
   58.2340   34.0380   45.9630 C   0  0  0  0  0  0  0  0  0  0  0  0
   59.4020   34.4280   46.6290 C   0  0  0  0  0  0  0  0  0  0  0  0
   60.1350   33.4920   47.3670 C   0  0  0  0  0  0  0  0  0  0  0  0
   61.6610   33.9790   48.1770 S   0  0  0  0  0  0  0  0  0  0  0  0
   62.7310   33.2550   46.8900 C   0  0  0  0  0  0  0  0  0  0  0  0
   63.6790   32.4520   47.4950 F   0  0  0  0  0  0  0  0  0  0  0  0
   63.3690   34.2590   46.1870 F   0  0  0  0  0  0  0  0  0  0  0  0
   59.6770   32.1730   47.4720 C   0  0  0  0  0  0  0  0  0  0  0  0
   58.5140   31.7810   46.8020 C   0  0  0  0  0  0  0  0  0  0  0  0
   56.2820   29.9340   44.5070 N   0  0  0  0  0  0  0  0  0  0  0  0
   57.1620   28.8670   44.8870 C   0  0  0  0  0  0  0  0  0  0  0  0
   58.5280   28.8900   44.5550 C   0  0  0  0  0  0  0  0  0  0  0  0
   59.3780   27.8770   45.0060 C   0  0  0  0  0  0  0  0  0  0  0  0
   58.8690   26.8240   45.7690 C   0  0  0  0  0  0  0  0  0  0  0  0
   57.4980   26.7610   46.0630 C   0  0  0  0  0  0  0  0  0  0  0  0
   56.9600   25.6660   46.8950 C   0  0  0  0  0  0  0  0  0  0  0  0
   57.6950   25.1500   47.7770 O   0  0  0  0  0  0  0  0  0  0  0  0
   55.6210   25.1820   46.7420 N   0  0  0  0  0  0  0  0  0  0  0  0
   55.2570   23.7720   46.6540 C   0  0  0  0  0  0  0  0  0  0  0  0
   56.2140   23.0670   45.7290 C   0  0  0  0  0  0  0  0  0  0  0  0
   56.1160   23.2630   44.3380 C   0  0  0  0  0  0  0  0  0  0  0  0
   57.0130   22.6310   43.4700 C   0  0  0  0  0  0  0  0  0  0  0  0
   58.0180   21.8070   43.9810 C   0  0  0  0  0  0  0  0  0  0  0  0
   58.1360   21.6170   45.3630 C   0  0  0  0  0  0  0  0  0  0  0  0
   57.2430   22.2510   46.2390 C   0  0  0  0  0  0  0  0  0  0  0  0
   57.3900   22.0690   47.6100 O   0  0  0  0  0  0  0  0  0  0  0  0
   56.6500   27.7890   45.6210 C   0  0  0  0  0  0  0  0  0  0  0  0
   57.6501   34.7806   45.3995 H   0  0  0  0  0  0  0  0  0  0  0  0
   59.7441   35.4719   46.5721 H   0  0  0  0  0  0  0  0  0  0  0  0
   62.1176   32.6618   46.1959 H   0  0  0  0  0  0  0  0  0  0  0  0
   60.2322   31.4450   48.0817 H   0  0  0  0  0  0  0  0  0  0  0  0
   58.1508   30.7467   46.8928 H   0  0  0  0  0  0  0  0  0  0  0  0
   58.9287   29.7080   43.9383 H   0  0  0  0  0  0  0  0  0  0  0  0
   60.4496   27.9090   44.7597 H   0  0  0  0  0  0  0  0  0  0  0  0
   59.5455   26.0405   46.1412 H   0  0  0  0  0  0  0  0  0  0  0  0
   55.3093   23.3160   47.6537 H   0  0  0  0  0  0  0  0  0  0  0  0
   54.2326   23.6798   46.2640 H   0  0  0  0  0  0  0  0  0  0  0  0
   55.3300   23.9165   43.9317 H   0  0  0  0  0  0  0  0  0  0  0  0
   56.9265   22.7833   42.3840 H   0  0  0  0  0  0  0  0  0  0  0  0
   58.7183   21.3062   43.2963 H   0  0  0  0  0  0  0  0  0  0  0  0
   58.9304   20.9694   45.7624 H   0  0  0  0  0  0  0  0  0  0  0  0
   55.5755   27.7477   45.8527 H   0  0  0  0  0  0  0  0  0  0  0  0
  1  2  2  0
  2  3  1  0
  3  4  1  0
  4  5  2  0
  5  6  1  0
  6  7  2  0
  7  8  1  0
  8  9  1  0
  9 10  1  0
  9 11  1  0
  7 12  1  0
 12 13  2  0
  2 14  1  0
 14 15  1  0
 15 16  2  0
 16 17  1  0
 17 18  2  0
 18 19  1  0
 19 20  1  0
 20 21  2  0
 20 22  1  0
 22 23  1  0
 23 24  1  0
 24 25  2  0
 25 26  1  0
 26 27  2  0
 27 28  1  0
 28 29  2  0
 29 30  1  0
 19 31  2  0
 13  4  1  0
 31 15  1  0
 29 24  1  0
  5 32  1  0
  6 33  1  0
  9 34  1  0
 12 35  1  0
 13 36  1  0
 16 37  1  0
 17 38  1  0
 18 39  1  0
 23 40  1  0
 23 41  1  0
 25 42  1  0
 26 43  1  0
 27 44  1  0
 28 45  1  0
 31 46  1  0
M  CHG  4   3  -1  14  -1  22  -1  30  -1
M  END
>  <UniqueID>  (86) 
78

>  <SMILES>  (86) 
O=C([N-]c1ccc(SC(F)F)cc1)[N-]c1cccc(C(=O)[N-]Cc2ccccc2[O-])c1

>  <Energy>  (86) 
54.88414480054664

>  <Genealogy>  (86) 
O=C([N-]c1ccc(SC(F)F)cc1)[N-]c1cccc(C(=O)[N-]Cc2ccccc2[O-])c1 (protonated)
O=C([N-]c1ccc(SC(F)F)cc1)[N-]c1cccc(C(=O)[N-]Cc2ccccc2[O-])c1 (3D coordinates assigned)
O=C([N-]c1ccc(SC(F)F)cc1)[N-]c1cccc(C(=O)[N-]Cc2ccccc2[O-])c1 (optimized conformer: 54.88414480054664 kcal/mol)

>  <smiles>  (86) 
O=C(Nc1ccc(SC(F)F)cc1)Nc1cccc(C(=O)NCc2ccccc2O)c1

>  <score_type>  (86) 
oracle

>  <origin>  (86) 
adg

>  <m_score__min__energy>  (86) 
-15.15

>  <m_primary>  (86) 
energy

$$$$
86:0
     RDKit          3D

 35 37  0  0  0  0  0  0  0  0999 V2000
   57.2610   30.9360   42.8180 O   0  0  0  0  0  0  0  0  0  0  0  0
   56.9880   31.1110   44.0350 C   0  0  0  0  0  0  0  0  0  0  0  0
   57.0200   32.5100   44.5990 C   0  0  0  0  0  0  0  0  0  0  0  0
   58.2230   32.7350   45.4190 N   0  0  0  0  0  0  0  0  0  0  0  0
   58.8170   31.6780   46.0470 C   0  0  0  0  0  0  0  0  0  0  0  0
   59.9770   31.8650   46.7970 C   0  0  0  0  0  0  0  0  0  0  0  0
   60.5220   33.1100   46.9180 N   0  0  0  0  0  0  0  0  0  0  0  0
   61.7330   33.2730   47.6790 C   0  0  0  0  0  0  0  0  0  0  0  0
   62.9700   32.8930   47.1290 C   0  0  0  0  0  0  0  0  0  0  0  0
   64.1460   33.0390   47.8690 C   0  0  0  0  0  0  0  0  0  0  0  0
   64.0990   33.5630   49.1630 C   0  0  0  0  0  0  0  0  0  0  0  0
   62.8750   33.9410   49.7200 C   0  0  0  0  0  0  0  0  0  0  0  0
   61.6930   33.7980   48.9850 C   0  0  0  0  0  0  0  0  0  0  0  0
   60.5150   34.1840   49.5340 F   0  0  0  0  0  0  0  0  0  0  0  0
   59.9210   34.1810   46.3110 C   0  0  0  0  0  0  0  0  0  0  0  0
   60.4030   35.3410   46.4360 O   0  0  0  0  0  0  0  0  0  0  0  0
   58.7560   33.9920   45.5530 C   0  0  0  0  0  0  0  0  0  0  0  0
   58.2060   34.9820   44.9960 O   0  0  0  0  0  0  0  0  0  0  0  0
   56.7390   29.9670   44.8620 N   0  0  0  0  0  0  0  0  0  0  0  0
   57.1990   28.7680   44.6640 C   0  0  0  0  0  0  0  0  0  0  0  0
   57.8940   28.3720   43.5720 N   0  0  0  0  0  0  0  0  0  0  0  0
   58.2640   27.0670   43.6490 C   0  0  0  0  0  0  0  0  0  0  0  0
   57.8720   26.4160   44.8150 C   0  0  0  0  0  0  0  0  0  0  0  0
   57.0410   27.5220   45.7770 S   0  0  0  0  0  0  0  0  0  0  0  0
   57.0143   33.2305   43.7678 H   0  0  0  0  0  0  0  0  0  0  0  0
   56.1360   32.6437   45.2398 H   0  0  0  0  0  0  0  0  0  0  0  0
   58.3777   30.6733   45.9606 H   0  0  0  0  0  0  0  0  0  0  0  0
   60.4542   31.0067   47.2925 H   0  0  0  0  0  0  0  0  0  0  0  0
   63.0120   32.4787   46.1109 H   0  0  0  0  0  0  0  0  0  0  0  0
   65.1104   32.7409   47.4320 H   0  0  0  0  0  0  0  0  0  0  0  0
   65.0262   33.6780   49.7436 H   0  0  0  0  0  0  0  0  0  0  0  0
   62.8403   34.3524   50.7396 H   0  0  0  0  0  0  0  0  0  0  0  0
   58.1610   28.9870   42.7730 H   0  0  0  0  0  0  0  0  0  0  0  0
   58.8298   26.5637   42.8512 H   0  0  0  0  0  0  0  0  0  0  0  0
   58.0701   25.3632   45.0649 H   0  0  0  0  0  0  0  0  0  0  0  0
  1  2  2  0
  2  3  1  0
  3  4  1  0
  4  5  1  0
  5  6  2  0
  6  7  1  0
  7  8  1  0
  8  9  2  0
  9 10  1  0
 10 11  2  0
 11 12  1  0
 12 13  2  0
 13 14  1  0
  7 15  1  0
 15 16  2  0
 15 17  1  0
 17 18  2  0
  2 19  1  0
 19 20  2  3
 20 21  1  0
 21 22  1  0
 22 23  2  0
 23 24  1  0
 17  4  1  0
 24 20  1  0
 13  8  1  0
  3 25  1  0
  3 26  1  0
  5 27  1  0
  6 28  1  0
  9 29  1  0
 10 30  1  0
 11 31  1  0
 12 32  1  0
 21 33  1  0
 22 34  1  0
 23 35  1  0
M  END
>  <UniqueID>  (87) 
79

>  <SMILES>  (87) 
O=C(Cn1ccn(-c2ccccc2F)c(=O)c1=O)N=c1[nH]ccs1

>  <Energy>  (87) 
86.17456887391103

>  <Genealogy>  (87) 
O=C(Cn1ccn(-c2ccccc2F)c(=O)c1=O)N=c1[nH]ccs1 (3D coordinates assigned)
O=C(Cn1ccn(-c2ccccc2F)c(=O)c1=O)N=c1[nH]ccs1 (optimized conformer: 86.17456887391103 kcal/mol)

>  <smiles>  (87) 
O=C(Cn1ccn(-c2ccccc2F)c(=O)c1=O)N=c1[nH]ccs1

>  <score_type>  (87) 
oracle

>  <origin>  (87) 
adg

>  <m_score__min__energy>  (87) 
-7.7400000000000002

>  <m_primary>  (87) 
energy

$$$$
87:0
     RDKit          3D

 68 72  0  0  0  0  0  0  0  0999 V2000
   57.1000   29.6660   45.9620 O   0  0  0  0  0  0  0  0  0  0  0  0
   58.3210   29.9840   45.9630 C   0  0  0  0  0  0  0  0  0  0  0  0
   59.3200   28.9820   45.7060 N   0  0  0  0  0  0  0  0  0  0  0  0
   59.0770   27.5700   45.8290 C   0  0  0  0  0  0  0  0  0  0  0  0
   60.1360   26.6570   45.9700 C   0  0  0  0  0  0  0  0  0  0  0  0
   59.8760   25.2880   46.0710 C   0  0  0  0  0  0  0  0  0  0  0  0
   58.5630   24.8170   46.0220 C   0  0  0  0  0  0  0  0  0  0  0  0
   57.4980   25.7130   45.8610 C   0  0  0  0  0  0  0  0  0  0  0  0
   55.8380   25.1170   45.7980 S   0  0  0  0  0  0  0  0  0  0  0  0
   55.5800   24.2540   47.0010 O   0  0  0  0  0  0  0  0  0  0  0  0
   54.8900   26.2840   45.8560 O   0  0  0  0  0  0  0  0  0  0  0  0
   55.5270   24.1860   44.3470 N   0  0  0  0  0  0  0  0  0  0  0  0
   55.1610   22.8060   44.6740 C   0  0  0  0  0  0  0  0  0  0  0  0
   56.3890   21.9370   44.4860 C   0  0  0  0  0  0  0  0  0  0  0  0
   57.2500   22.6880   43.4950 C   0  0  0  0  0  0  0  0  0  0  0  0
   56.7170   24.1180   43.4870 C   0  0  0  0  0  0  0  0  0  0  0  0
   57.7610   27.0880   45.7570 C   0  0  0  0  0  0  0  0  0  0  0  0
   58.7050   31.4010   46.1690 C   0  0  0  0  0  0  0  0  0  0  0  0
   58.7990   32.2860   45.0800 C   0  0  0  0  0  0  0  0  0  0  0  0
   59.1490   33.6220   45.2840 C   0  0  0  0  0  0  0  0  0  0  0  0
   59.4030   34.0930   46.5740 C   0  0  0  0  0  0  0  0  0  0  0  0
   59.3200   33.2250   47.6690 C   0  0  0  0  0  0  0  0  0  0  0  0
   59.6170   33.8340   49.3000 S   0  0  0  0  0  0  0  0  0  0  0  0
   58.7150   33.1150   50.2620 O   0  0  0  0  0  0  0  0  0  0  0  0
   59.2860   35.2990   49.3560 O   0  0  0  0  0  0  0  0  0  0  0  0
   61.2810   33.5930   49.7760 N   0  0  0  0  0  0  0  0  0  0  0  0
   62.1840   33.7710   48.6180 C   0  0  0  0  0  0  0  0  0  0  0  0
   63.5230   33.0120   48.7530 C   0  0  0  0  0  0  0  0  0  0  0  0
   63.8530   32.7400   50.1570 N   0  0  0  0  0  0  0  0  0  0  0  0
   65.2240   32.7720   50.5970 C   0  0  0  0  0  0  0  0  0  0  0  0
   66.0680   31.6770   50.3420 C   0  0  0  0  0  0  0  0  0  0  0  0
   67.3990   31.6960   50.7700 C   0  0  0  0  0  0  0  0  0  0  0  0
   67.8990   32.8070   51.4550 C   0  0  0  0  0  0  0  0  0  0  0  0
   67.0700   33.9030   51.7090 C   0  0  0  0  0  0  0  0  0  0  0  0
   65.7370   33.8910   51.2830 C   0  0  0  0  0  0  0  0  0  0  0  0
   64.9600   34.9790   51.5120 F   0  0  0  0  0  0  0  0  0  0  0  0
   62.8230   32.2240   51.0680 C   0  0  0  0  0  0  0  0  0  0  0  0
   61.4430   32.2790   50.4140 C   0  0  0  0  0  0  0  0  0  0  0  0
   58.9840   31.8790   47.4620 C   0  0  0  0  0  0  0  0  0  0  0  0
   60.2170   29.2870   45.2650 H   0  0  0  0  0  0  0  0  0  0  0  0
   61.1734   27.0215   46.0010 H   0  0  0  0  0  0  0  0  0  0  0  0
   60.7087   24.5791   46.1895 H   0  0  0  0  0  0  0  0  0  0  0  0
   58.3637   23.7388   46.1101 H   0  0  0  0  0  0  0  0  0  0  0  0
   54.8193   22.7481   45.7180 H   0  0  0  0  0  0  0  0  0  0  0  0
   54.3464   22.4621   44.0197 H   0  0  0  0  0  0  0  0  0  0  0  0
   56.9208   21.8071   45.4401 H   0  0  0  0  0  0  0  0  0  0  0  0
   56.1317   20.9286   44.1298 H   0  0  0  0  0  0  0  0  0  0  0  0
   58.3030   22.6728   43.8127 H   0  0  0  0  0  0  0  0  0  0  0  0
   57.2087   22.2333   42.4942 H   0  0  0  0  0  0  0  0  0  0  0  0
   57.4888   24.8021   43.8694 H   0  0  0  0  0  0  0  0  0  0  0  0
   56.4530   24.4122   42.4605 H   0  0  0  0  0  0  0  0  0  0  0  0
   56.9286   27.7935   45.6179 H   0  0  0  0  0  0  0  0  0  0  0  0
   58.5956   31.9234   44.0616 H   0  0  0  0  0  0  0  0  0  0  0  0
   59.2250   34.3060   44.4258 H   0  0  0  0  0  0  0  0  0  0  0  0
   59.6690   35.1489   46.7300 H   0  0  0  0  0  0  0  0  0  0  0  0
   61.6685   33.4084   47.7165 H   0  0  0  0  0  0  0  0  0  0  0  0
   62.4259   34.8425   48.5603 H   0  0  0  0  0  0  0  0  0  0  0  0
   63.4474   32.0567   48.2129 H   0  0  0  0  0  0  0  0  0  0  0  0
   64.3189   33.6421   48.3293 H   0  0  0  0  0  0  0  0  0  0  0  0
   65.6792   30.8005   49.8029 H   0  0  0  0  0  0  0  0  0  0  0  0
   68.0535   30.8354   50.5673 H   0  0  0  0  0  0  0  0  0  0  0  0
   68.9453   32.8187   51.7943 H   0  0  0  0  0  0  0  0  0  0  0  0
   67.4664   34.7777   52.2454 H   0  0  0  0  0  0  0  0  0  0  0  0
   63.0589   31.1808   51.3251 H   0  0  0  0  0  0  0  0  0  0  0  0
   62.8089   32.8479   51.9738 H   0  0  0  0  0  0  0  0  0  0  0  0
   61.3596   31.4859   49.6563 H   0  0  0  0  0  0  0  0  0  0  0  0
   60.6604   32.1294   51.1724 H   0  0  0  0  0  0  0  0  0  0  0  0
   58.9383   31.1908   48.3189 H   0  0  0  0  0  0  0  0  0  0  0  0
  1  2  2  0
  2  3  1  0
  3  4  1  0
  4  5  2  0
  5  6  1  0
  6  7  2  0
  7  8  1  0
  8  9  1  0
  9 10  2  0
  9 11  2  0
  9 12  1  0
 12 13  1  0
 13 14  1  0
 14 15  1  0
 15 16  1  0
  8 17  2  0
  2 18  1  0
 18 19  2  0
 19 20  1  0
 20 21  2  0
 21 22  1  0
 22 23  1  0
 23 24  2  0
 23 25  2  0
 23 26  1  0
 26 27  1  0
 27 28  1  0
 28 29  1  0
 29 30  1  0
 30 31  2  0
 31 32  1  0
 32 33  2  0
 33 34  1  0
 34 35  2  0
 35 36  1  0
 29 37  1  0
 37 38  1  0
 22 39  2  0
 17  4  1  0
 39 18  1  0
 16 12  1  0
 38 26  1  0
 35 30  1  0
  3 40  1  0
  5 41  1  0
  6 42  1  0
  7 43  1  0
 13 44  1  0
 13 45  1  0
 14 46  1  0
 14 47  1  0
 15 48  1  0
 15 49  1  0
 16 50  1  0
 16 51  1  0
 17 52  1  0
 19 53  1  0
 20 54  1  0
 21 55  1  0
 27 56  1  0
 27 57  1  0
 28 58  1  0
 28 59  1  0
 31 60  1  0
 32 61  1  0
 33 62  1  0
 34 63  1  0
 37 64  1  0
 37 65  1  0
 38 66  1  0
 38 67  1  0
 39 68  1  0
M  END
>  <UniqueID>  (88) 
80

>  <SMILES>  (88) 
O=C(Nc1cccc(S(=O)(=O)N2CCCC2)c1)c1cccc(S(=O)(=O)N2CCN(c3ccccc3F)CC2)c1

>  <Energy>  (88) 
86.527436597541

>  <Genealogy>  (88) 
O=C(Nc1cccc(S(=O)(=O)N2CCCC2)c1)c1cccc(S(=O)(=O)N2CCN(c3ccccc3F)CC2)c1 (3D coordinates assigned)
O=C(Nc1cccc(S(=O)(=O)N2CCCC2)c1)c1cccc(S(=O)(=O)N2CCN(c3ccccc3F)CC2)c1 (nonaromatic ring conformer: 86.527436597541 kcal/mol)

>  <smiles>  (88) 
O=C(Nc1cccc(S(=O)(=O)N2CCCC2)c1)c1cccc(S(=O)(=O)N2CCN(c3ccccc3F)CC2)c1

>  <score_type>  (88) 
oracle

>  <origin>  (88) 
adg

>  <m_score__min__energy>  (88) 
-11.91

>  <m_primary>  (88) 
energy

$$$$
88:0
     RDKit          3D

 30 31  0  0  0  0  0  0  0  0999 V2000
   59.2620   30.8150   45.0390 O   0  0  0  0  0  0  0  0  0  0  0  0
   60.0370   29.9980   45.6070 C   0  0  0  0  0  0  0  0  0  0  0  0
   60.0420   28.5620   45.1900 C   0  0  0  0  0  0  0  0  0  0  0  0
   58.6720   27.9610   45.3870 C   0  0  0  0  0  0  0  0  0  0  0  0
   57.5380   28.7200   45.0450 C   0  0  0  0  0  0  0  0  0  0  0  0
   56.2530   28.2060   45.2430 C   0  0  0  0  0  0  0  0  0  0  0  0
   55.1440   28.9670   44.8930 O   0  0  0  0  0  0  0  0  0  0  0  0
   56.0870   26.9320   45.7960 C   0  0  0  0  0  0  0  0  0  0  0  0
   54.8110   26.4170   45.9930 O   0  0  0  0  0  0  0  0  0  0  0  0
   57.2050   26.1740   46.1520 C   0  0  0  0  0  0  0  0  0  0  0  0
   58.4970   26.6800   45.9570 C   0  0  0  0  0  0  0  0  0  0  0  0
   59.8620   25.6790   46.4440 Cl  0  0  0  0  0  0  0  0  0  0  0  0
   60.8760   30.4250   46.6830 N   0  0  0  0  0  0  0  0  0  0  0  0
   60.3860   31.2130   47.8060 C   0  0  0  0  0  0  0  0  0  0  0  0
   59.7730   32.4810   47.2880 C   0  0  0  0  0  0  0  0  0  0  0  0
   60.5880   33.5040   46.7820 C   0  0  0  0  0  0  0  0  0  0  0  0
   59.9990   34.6610   46.2680 C   0  0  0  0  0  0  0  0  0  0  0  0
   58.6450   34.7880   46.2500 N   0  0  0  0  0  0  0  0  0  0  0  0
   57.8320   33.8050   46.7210 C   0  0  0  0  0  0  0  0  0  0  0  0
   58.3800   32.6320   47.2430 C   0  0  0  0  0  0  0  0  0  0  0  0
   60.3208   28.4923   44.1282 H   0  0  0  0  0  0  0  0  0  0  0  0
   60.7691   28.0108   45.8044 H   0  0  0  0  0  0  0  0  0  0  0  0
   57.6633   29.7261   44.6183 H   0  0  0  0  0  0  0  0  0  0  0  0
   57.0702   25.1733   46.5883 H   0  0  0  0  0  0  0  0  0  0  0  0
   59.6286   30.6366   48.3574 H   0  0  0  0  0  0  0  0  0  0  0  0
   61.2207   31.4544   48.4806 H   0  0  0  0  0  0  0  0  0  0  0  0
   61.6826   33.3958   46.7900 H   0  0  0  0  0  0  0  0  0  0  0  0
   60.6315   35.4715   45.8768 H   0  0  0  0  0  0  0  0  0  0  0  0
   56.7401   33.9344   46.6906 H   0  0  0  0  0  0  0  0  0  0  0  0
   57.7236   31.8321   47.6163 H   0  0  0  0  0  0  0  0  0  0  0  0
  1  2  2  0
  2  3  1  0
  3  4  1  0
  4  5  2  0
  5  6  1  0
  6  7  1  0
  6  8  2  0
  8  9  1  0
  8 10  1  0
 10 11  2  0
 11 12  1  0
  2 13  1  0
 13 14  1  0
 14 15  1  0
 15 16  2  0
 16 17  1  0
 17 18  2  0
 18 19  1  0
 19 20  2  0
 11  4  1  0
 20 15  1  0
  3 21  1  0
  3 22  1  0
  5 23  1  0
 10 24  1  0
 14 25  1  0
 14 26  1  0
 16 27  1  0
 17 28  1  0
 19 29  1  0
 20 30  1  0
M  CHG  3   7  -1   9  -1  13  -1
M  END
>  <UniqueID>  (89) 
81

>  <SMILES>  (89) 
O=C(Cc1cc([O-])c([O-])cc1Cl)[N-]Cc1ccncc1

>  <Energy>  (89) 
28.059415656950506

>  <Genealogy>  (89) 
O=C(Cc1cc([O-])c([O-])cc1Cl)[N-]Cc1ccncc1 (protonated)
O=C(Cc1cc([O-])c([O-])cc1Cl)[N-]Cc1ccncc1 (3D coordinates assigned)
O=C(Cc1cc([O-])c([O-])cc1Cl)[N-]Cc1ccncc1 (optimized conformer: 28.059415656950506 kcal/mol)

>  <smiles>  (89) 
O=C(Cc1cc(O)c(O)cc1Cl)NCc1ccncc1

>  <score_type>  (89) 
oracle

>  <origin>  (89) 
adg

>  <m_score__min__energy>  (89) 
-15.720000000000001

>  <m_primary>  (89) 
energy

$$$$
89:0
     RDKit          3D

 60 64  0  0  0  0  0  0  0  0999 V2000
   61.0760   30.6610   49.0010 N   0  0  0  0  0  0  0  0  0  0  0  0
   60.3480   30.4710   47.7490 C   0  0  0  0  0  0  0  0  0  0  0  0
   60.1040   29.0070   47.5080 C   0  0  0  0  0  0  0  0  0  0  0  0
   59.3340   28.2580   48.4150 C   0  0  0  0  0  0  0  0  0  0  0  0
   59.0860   26.9030   48.1790 C   0  0  0  0  0  0  0  0  0  0  0  0
   59.6130   26.2750   47.0380 C   0  0  0  0  0  0  0  0  0  0  0  0
   59.3180   24.9060   46.7290 N   0  0  0  0  0  0  0  0  0  0  0  0
   58.0090   24.3200   46.7860 C   0  0  0  0  0  0  0  0  0  0  0  0
   57.7560   23.3830   47.5960 O   0  0  0  0  0  0  0  0  0  0  0  0
   56.9680   24.8450   45.9570 N   0  0  0  0  0  0  0  0  0  0  0  0
   57.1940   25.8430   44.9500 C   0  0  0  0  0  0  0  0  0  0  0  0
   57.6440   25.4600   43.6830 C   0  0  0  0  0  0  0  0  0  0  0  0
   57.9300   26.4290   42.7150 C   0  0  0  0  0  0  0  0  0  0  0  0
   57.8020   27.7900   43.0170 C   0  0  0  0  0  0  0  0  0  0  0  0
   57.3820   28.1930   44.2960 C   0  0  0  0  0  0  0  0  0  0  0  0
   57.2910   29.6300   44.6540 C   0  0  0  0  0  0  0  0  0  0  0  0
   56.2230   30.3380   44.4770 N   0  0  0  0  0  0  0  0  0  0  0  0
   56.4440   31.6340   44.8750 O   0  0  0  0  0  0  0  0  0  0  0  0
   57.7740   31.8090   45.3210 C   0  0  0  0  0  0  0  0  0  0  0  0
   58.4220   30.4250   45.2360 C   0  0  0  0  0  0  0  0  0  0  0  0
   57.9450   32.5810   46.5870 C   0  0  0  0  0  0  0  0  0  0  0  0
   58.7280   33.6780   45.9810 N   0  0  0  0  0  0  0  0  0  0  0  0
   59.5480   34.7600   46.4200 C   0  0  0  0  0  0  0  0  0  0  0  0
   59.9810   35.5940   45.5800 O   0  0  0  0  0  0  0  0  0  0  0  0
   59.9870   34.8430   47.8510 C   0  0  0  0  0  0  0  0  0  0  0  0
   61.3050   34.1270   48.0280 C   0  0  0  0  0  0  0  0  0  0  0  0
   61.8170   33.3250   46.9940 C   0  0  0  0  0  0  0  0  0  0  0  0
   63.0190   32.6320   47.1670 C   0  0  0  0  0  0  0  0  0  0  0  0
   63.7180   32.7310   48.3750 C   0  0  0  0  0  0  0  0  0  0  0  0
   63.2120   33.5210   49.4120 C   0  0  0  0  0  0  0  0  0  0  0  0
   62.0130   34.2210   49.2400 C   0  0  0  0  0  0  0  0  0  0  0  0
   58.5000   32.9630   44.7080 C   0  0  0  0  0  0  0  0  0  0  0  0
   57.0830   27.2100   45.2570 C   0  0  0  0  0  0  0  0  0  0  0  0
   60.4400   27.0060   46.1710 C   0  0  0  0  0  0  0  0  0  0  0  0
   60.6800   28.3660   46.3990 C   0  0  0  0  0  0  0  0  0  0  0  0
   60.5050   30.2550   49.7790 H   0  0  0  0  0  0  0  0  0  0  0  0
   61.9520   30.0950   48.9470 H   0  0  0  0  0  0  0  0  0  0  0  0
   59.3829   30.9957   47.8065 H   0  0  0  0  0  0  0  0  0  0  0  0
   60.9468   30.8766   46.9202 H   0  0  0  0  0  0  0  0  0  0  0  0
   58.9248   28.7408   49.3147 H   0  0  0  0  0  0  0  0  0  0  0  0
   58.4758   26.3259   48.8894 H   0  0  0  0  0  0  0  0  0  0  0  0
   57.7736   24.3936   43.4464 H   0  0  0  0  0  0  0  0  0  0  0  0
   58.2572   26.1198   41.7113 H   0  0  0  0  0  0  0  0  0  0  0  0
   58.0308   28.5458   42.2512 H   0  0  0  0  0  0  0  0  0  0  0  0
   59.3000   30.4275   44.5734 H   0  0  0  0  0  0  0  0  0  0  0  0
   58.8094   30.0404   46.1910 H   0  0  0  0  0  0  0  0  0  0  0  0
   56.9892   32.9225   47.0110 H   0  0  0  0  0  0  0  0  0  0  0  0
   58.3905   32.0549   47.4442 H   0  0  0  0  0  0  0  0  0  0  0  0
   60.1048   35.8990   48.1355 H   0  0  0  0  0  0  0  0  0  0  0  0
   59.2284   34.3675   48.4901 H   0  0  0  0  0  0  0  0  0  0  0  0
   61.2694   33.2420   46.0436 H   0  0  0  0  0  0  0  0  0  0  0  0
   63.4156   32.0082   46.3524 H   0  0  0  0  0  0  0  0  0  0  0  0
   64.6650   32.1877   48.5089 H   0  0  0  0  0  0  0  0  0  0  0  0
   63.7576   33.5921   50.3645 H   0  0  0  0  0  0  0  0  0  0  0  0
   61.6224   34.8473   50.0556 H   0  0  0  0  0  0  0  0  0  0  0  0
   57.8774   33.5336   44.0032 H   0  0  0  0  0  0  0  0  0  0  0  0
   59.3807   32.7367   44.0890 H   0  0  0  0  0  0  0  0  0  0  0  0
   56.7579   27.5155   46.2625 H   0  0  0  0  0  0  0  0  0  0  0  0
   60.9025   26.5069   45.3067 H   0  0  0  0  0  0  0  0  0  0  0  0
   61.3209   28.9337   45.7084 H   0  0  0  0  0  0  0  0  0  0  0  0
  1  2  1  0
  2  3  1  0
  3  4  2  0
  4  5  1  0
  5  6  2  0
  6  7  1  0
  7  8  1  0
  8  9  2  0
  8 10  1  0
 10 11  1  0
 11 12  2  0
 12 13  1  0
 13 14  2  0
 14 15  1  0
 15 16  1  0
 16 17  2  0
 17 18  1  0
 18 19  1  0
 19 20  1  0
 19 21  1  0
 21 22  1  0
 22 23  1  0
 23 24  2  0
 23 25  1  0
 25 26  1  0
 26 27  2  0
 27 28  1  0
 28 29  2  0
 29 30  1  0
 30 31  2  0
 22 32  1  0
 15 33  2  0
  6 34  1  0
 34 35  2  0
 35  3  1  0
 33 11  1  0
 20 16  1  0
 31 26  1  0
 32 19  1  0
  1 36  1  0
  1 37  1  0
  2 38  1  0
  2 39  1  0
  4 40  1  0
  5 41  1  0
 12 42  1  0
 13 43  1  0
 14 44  1  0
 20 45  1  0
 20 46  1  0
 21 47  1  0
 21 48  1  0
 25 49  1  0
 25 50  1  0
 27 51  1  0
 28 52  1  0
 29 53  1  0
 30 54  1  0
 31 55  1  0
 32 56  1  0
 32 57  1  0
 33 58  1  0
 34 59  1  0
 35 60  1  0
M  CHG  2   7  -1  10  -1
M  END
>  <UniqueID>  (90) 
82

>  <SMILES>  (90) 
NCc1ccc([N-]C(=O)[N-]c2cccc(C3=NOC4(C3)CN(C(=O)Cc3ccccc3)C4)c2)cc1

>  <Energy>  (90) 
135.3249719120602

>  <Genealogy>  (90) 
NCc1ccc([N-]C(=O)[N-]c2cccc(C3=NOC4(C3)CN(C(=O)Cc3ccccc3)C4)c2)cc1 (protonated)
NCc1ccc([N-]C(=O)[N-]c2cccc(C3=NOC4(C3)CN(C(=O)Cc3ccccc3)C4)c2)cc1 (3D coordinates assigned)
NCc1ccc([N-]C(=O)[N-]c2cccc(C3=NOC4(C3)CN(C(=O)Cc3ccccc3)C4)c2)cc1 (nonaromatic ring conformer: 135.3249719120602 kcal/mol)

>  <smiles>  (90) 
NCc1ccc(NC(=O)Nc2cccc(C3=NOC4(C3)CN(C(=O)Cc3ccccc3)C4)c2)cc1

>  <score_type>  (90) 
oracle

>  <origin>  (90) 
adg

>  <m_score__min__energy>  (90) 
-13.460000000000001

>  <m_primary>  (90) 
energy

$$$$
90:0
     RDKit          3D

 57 59  0  0  0  0  0  0  0  0999 V2000
   58.0260   24.8320   46.0090 C   0  0  0  0  0  0  0  0  0  0  0  0
   59.1010   25.7650   45.9690 O   0  0  0  0  0  0  0  0  0  0  0  0
   59.2580   26.8410   46.8570 C   0  0  0  0  0  0  0  0  0  0  0  0
   60.2240   26.8200   47.8820 C   0  0  0  0  0  0  0  0  0  0  0  0
   60.3480   27.8960   48.7620 C   0  0  0  0  0  0  0  0  0  0  0  0
   59.5190   29.0160   48.6330 C   0  0  0  0  0  0  0  0  0  0  0  0
   59.6240   30.1510   49.6130 C   0  0  0  0  0  0  0  0  0  0  0  0
   59.2060   31.3960   48.9670 N   0  0  0  0  0  0  0  0  0  0  0  0
   60.1410   32.7230   49.5840 S   0  0  0  0  0  0  0  0  0  0  0  0
   59.3380   33.9920   49.4980 O   0  0  0  0  0  0  0  0  0  0  0  0
   60.4950   32.4610   51.0190 O   0  0  0  0  0  0  0  0  0  0  0  0
   61.6180   32.8950   48.6540 C   0  0  0  0  0  0  0  0  0  0  0  0
   62.5060   33.9550   48.7400 C   0  0  0  0  0  0  0  0  0  0  0  0
   63.6060   33.8150   47.8870 C   0  0  0  0  0  0  0  0  0  0  0  0
   63.5830   32.6460   47.1340 C   0  0  0  0  0  0  0  0  0  0  0  0
   62.1910   31.7860   47.5290 S   0  0  0  0  0  0  0  0  0  0  0  0
   58.5440   29.0380   47.6250 C   0  0  0  0  0  0  0  0  0  0  0  0
   58.4180   27.9670   46.7280 C   0  0  0  0  0  0  0  0  0  0  0  0
   57.1660   28.0400   45.4800 S   0  0  0  0  0  0  0  0  0  0  0  0
   57.7310   27.5210   44.1880 O   0  0  0  0  0  0  0  0  0  0  0  0
   55.9950   27.1760   45.8580 O   0  0  0  0  0  0  0  0  0  0  0  0
   56.6410   29.6790   45.2400 N   0  0  0  0  0  0  0  0  0  0  0  0
   57.7340   30.4820   44.6990 C   0  0  0  0  0  0  0  0  0  0  0  0
   57.1780   31.4830   43.6880 C   0  0  0  0  0  0  0  0  0  0  0  0
   58.1120   32.6980   43.5460 C   0  0  0  0  0  0  0  0  0  0  0  0
   57.8350   33.7800   44.5160 N   0  0  0  0  0  0  0  0  0  0  0  0
   56.9790   33.3880   45.6590 C   0  0  0  0  0  0  0  0  0  0  0  0
   57.7250   33.4450   46.9980 C   0  0  0  0  0  0  0  0  0  0  0  0
   59.0750   33.0890   46.8140 O   0  0  0  0  0  0  0  0  0  0  0  0
   59.7490   34.1270   46.1290 C   0  0  0  0  0  0  0  0  0  0  0  0
   59.0020   34.6180   44.8650 C   0  0  0  0  0  0  0  0  0  0  0  0
   57.7712   24.6109   47.0560 H   0  0  0  0  0  0  0  0  0  0  0  0
   57.1495   25.2605   45.5010 H   0  0  0  0  0  0  0  0  0  0  0  0
   58.3269   23.9039   45.5010 H   0  0  0  0  0  0  0  0  0  0  0  0
   60.8861   25.9482   47.9897 H   0  0  0  0  0  0  0  0  0  0  0  0
   61.1022   27.8635   49.5621 H   0  0  0  0  0  0  0  0  0  0  0  0
   58.9735   29.9503   50.4770 H   0  0  0  0  0  0  0  0  0  0  0  0
   60.6661   30.2466   49.9518 H   0  0  0  0  0  0  0  0  0  0  0  0
   59.4220   31.3210   47.9440 H   0  0  0  0  0  0  0  0  0  0  0  0
   62.3613   34.8163   49.4088 H   0  0  0  0  0  0  0  0  0  0  0  0
   64.4130   34.5594   47.8184 H   0  0  0  0  0  0  0  0  0  0  0  0
   64.3452   32.3360   46.4040 H   0  0  0  0  0  0  0  0  0  0  0  0
   57.8713   29.9039   47.5370 H   0  0  0  0  0  0  0  0  0  0  0  0
   58.2304   31.0244   45.5172 H   0  0  0  0  0  0  0  0  0  0  0  0
   58.4613   29.8237   44.2014 H   0  0  0  0  0  0  0  0  0  0  0  0
   57.0784   30.9893   42.7101 H   0  0  0  0  0  0  0  0  0  0  0  0
   56.1978   31.8334   44.0436 H   0  0  0  0  0  0  0  0  0  0  0  0
   59.1479   32.3581   43.6919 H   0  0  0  0  0  0  0  0  0  0  0  0
   57.9437   33.1162   42.5426 H   0  0  0  0  0  0  0  0  0  0  0  0
   56.1180   34.0710   45.7055 H   0  0  0  0  0  0  0  0  0  0  0  0
   56.6613   32.3473   45.4973 H   0  0  0  0  0  0  0  0  0  0  0  0
   57.6697   34.4665   47.4023 H   0  0  0  0  0  0  0  0  0  0  0  0
   57.2585   32.7391   47.7010 H   0  0  0  0  0  0  0  0  0  0  0  0
   59.8679   34.9779   46.8159 H   0  0  0  0  0  0  0  0  0  0  0  0
   60.7160   33.7214   45.7968 H   0  0  0  0  0  0  0  0  0  0  0  0
   58.6536   35.6463   45.0421 H   0  0  0  0  0  0  0  0  0  0  0  0
   59.7090   34.5604   44.0243 H   0  0  0  0  0  0  0  0  0  0  0  0
  1  2  1  0
  2  3  1  0
  3  4  2  0
  4  5  1  0
  5  6  2  0
  6  7  1  0
  7  8  1  0
  8  9  1  0
  9 10  2  0
  9 11  2  0
  9 12  1  0
 12 13  2  0
 13 14  1  0
 14 15  2  0
 15 16  1  0
  6 17  1  0
 17 18  2  0
 18 19  1  0
 19 20  2  0
 19 21  2  0
 19 22  1  0
 22 23  1  0
 23 24  1  0
 24 25  1  0
 25 26  1  0
 26 27  1  0
 27 28  1  0
 28 29  1  0
 29 30  1  0
 30 31  1  0
 18  3  1  0
 31 26  1  0
 16 12  1  0
  1 32  1  0
  1 33  1  0
  1 34  1  0
  4 35  1  0
  5 36  1  0
  7 37  1  0
  7 38  1  0
  8 39  1  0
 13 40  1  0
 14 41  1  0
 15 42  1  0
 17 43  1  0
 23 44  1  0
 23 45  1  0
 24 46  1  0
 24 47  1  0
 25 48  1  0
 25 49  1  0
 27 50  1  0
 27 51  1  0
 28 52  1  0
 28 53  1  0
 30 54  1  0
 30 55  1  0
 31 56  1  0
 31 57  1  0
M  CHG  1  22  -1
M  END
>  <UniqueID>  (91) 
83

>  <SMILES>  (91) 
COc1ccc(CNS(=O)(=O)c2cccs2)cc1S(=O)(=O)[N-]CCCN1CCOCC1

>  <Energy>  (91) 
90.40879444606233

>  <Genealogy>  (91) 
COc1ccc(CNS(=O)(=O)c2cccs2)cc1S(=O)(=O)[N-]CCCN1CCOCC1 (protonated)
COc1ccc(CNS(=O)(=O)c2cccs2)cc1S(=O)(=O)[N-]CCCN1CCOCC1 (3D coordinates assigned)
COc1ccc(CNS(=O)(=O)c2cccs2)cc1S(=O)(=O)[N-]CCCN1CCOCC1 (nonaromatic ring conformer: 90.40879444606233 kcal/mol)

>  <smiles>  (91) 
COc1ccc(CNS(=O)(=O)c2cccs2)cc1S(=O)(=O)NCCCN1CCOCC1

>  <score_type>  (91) 
oracle

>  <origin>  (91) 
adg

>  <m_score__min__energy>  (91) 
-10.199999999999999

>  <m_primary>  (91) 
energy

$$$$
91:0
     RDKit          3D

 35 37  0  0  0  0  0  0  0  0999 V2000
   57.1171   34.5078   45.8987 H   0  0  0  0  0  0  0  0  0  0  0  0
   57.3980   33.4450   45.9370 C   0  0  0  0  0  0  0  0  0  0  0  0
   57.0390   32.2890   44.7760 S   0  0  0  0  0  0  0  0  0  0  0  0
   57.7910   30.9890   45.5380 C   0  0  0  0  0  0  0  0  0  0  0  0
   57.8090   29.6240   44.9820 C   0  0  0  0  0  0  0  0  0  0  0  0
   58.7190   29.2990   44.1720 O   0  0  0  0  0  0  0  0  0  0  0  0
   56.8520   28.6480   45.4030 N   0  0  0  0  0  0  0  0  0  0  0  0
   57.1390   27.2820   45.7330 C   0  0  0  0  0  0  0  0  0  0  0  0
   58.4800   26.8950   45.8600 C   0  0  0  0  0  0  0  0  0  0  0  0
   59.2796   27.6307   45.6887 H   0  0  0  0  0  0  0  0  0  0  0  0
   58.8080   25.5800   46.2030 C   0  0  0  0  0  0  0  0  0  0  0  0
   60.1080   25.2100   46.3080 F   0  0  0  0  0  0  0  0  0  0  0  0
   57.7960   24.6460   46.4410 C   0  0  0  0  0  0  0  0  0  0  0  0
   58.0545   23.6088   46.7007 H   0  0  0  0  0  0  0  0  0  0  0  0
   56.4560   25.0300   46.3490 C   0  0  0  0  0  0  0  0  0  0  0  0
   55.6611   24.2947   46.5425 H   0  0  0  0  0  0  0  0  0  0  0  0
   56.1210   26.3450   46.0120 C   0  0  0  0  0  0  0  0  0  0  0  0
   54.7800   26.7150   45.9910 O   0  0  0  0  0  0  0  0  0  0  0  0
   58.3330   31.4560   46.7440 C   0  0  0  0  0  0  0  0  0  0  0  0
   59.1560   30.4630   47.9510 S   0  0  0  0  0  0  0  0  0  0  0  0
   60.6100   30.3200   47.5960 O   0  0  0  0  0  0  0  0  0  0  0  0
   58.5260   29.1000   47.9720 O   0  0  0  0  0  0  0  0  0  0  0  0
   59.0350   31.1790   49.5250 N   0  0  0  0  0  0  0  0  0  0  0  0
   58.2440   30.7390   50.4530 C   0  0  0  0  0  0  0  0  0  0  0  0
   58.1650   29.4520   50.8440 N   0  0  0  0  0  0  0  0  0  0  0  0
   57.2830   29.4180   51.8010 O   0  0  0  0  0  0  0  0  0  0  0  0
   56.7950   30.6160   52.0370 C   0  0  0  0  0  0  0  0  0  0  0  0
   55.7860   30.9260   53.0900 C   0  0  0  0  0  0  0  0  0  0  0  0
   56.2380   30.7871   54.0832 H   0  0  0  0  0  0  0  0  0  0  0  0
   55.4516   31.9683   52.9819 H   0  0  0  0  0  0  0  0  0  0  0  0
   54.9240   30.2513   52.9819 H   0  0  0  0  0  0  0  0  0  0  0  0
   57.3860   31.5250   51.1860 C   0  0  0  0  0  0  0  0  0  0  0  0
   57.2142   32.6090   51.1117 H   0  0  0  0  0  0  0  0  0  0  0  0
   58.1110   32.8270   46.9540 C   0  0  0  0  0  0  0  0  0  0  0  0
   58.4703   33.3627   47.8450 H   0  0  0  0  0  0  0  0  0  0  0  0
  1  2  1  0
  2  3  1  0
  3  4  1  0
  4  5  1  0
  5  6  2  0
  5  7  1  0
  7  8  1  0
  8  9  2  0
  9 10  1  0
  9 11  1  0
 11 12  1  0
 11 13  2  0
 13 14  1  0
 13 15  1  0
 15 16  1  0
 15 17  2  0
 17 18  1  0
  4 19  2  0
 19 20  1  0
 20 21  2  0
 20 22  2  0
 20 23  1  0
 23 24  2  0
 24 25  1  0
 25 26  1  0
 26 27  1  0
 27 28  1  0
 28 29  1  0
 28 30  1  0
 28 31  1  0
 27 32  2  0
 32 33  1  0
 19 34  1  0
 34 35  1  0
 34  2  2  0
 17  8  1  0
 32 24  1  0
M  CHG  3   7  -1  18  -1  25  -1
M  END
>  <UniqueID>  (92) 
84

>  <SMILES>  (92) 
Cc1c/c(=N/S(=O)(=O)c2ccsc2C(=O)[N-]c2cc(F)ccc2[O-])[n-]o1

>  <Energy>  (92) 
101.35198269000495

>  <Genealogy>  (92) 
Cc1cc(=NS(=O)(=O)c2ccsc2C(=O)[N-]c2cc(F)ccc2[O-])[n-]o1 (protonated)
Cc1c/c(=N/S(=O)(=O)c2ccsc2C(=O)[N-]c2cc(F)ccc2[O-])[n-]o1 (cis-trans isomerization)
Cc1c/c(=N/S(=O)(=O)c2ccsc2C(=O)[N-]c2cc(F)ccc2[O-])[n-]o1 (3D coordinates assigned)
Cc1c/c(=N/S(=O)(=O)c2ccsc2C(=O)[N-]c2cc(F)ccc2[O-])[n-]o1 (optimized conformer: 101.35198269000495 kcal/mol)

>  <smiles>  (92) 
Cc1cc(=NS(=O)(=O)c2ccsc2C(=O)Nc2cc(F)ccc2O)[nH]o1

>  <score_type>  (92) 
oracle

>  <origin>  (92) 
adg

>  <m_score__min__energy>  (92) 
-14.43

>  <m_primary>  (92) 
energy

$$$$
92:0
     RDKit          3D

 54 57  0  0  0  0  0  0  0  0999 V2000
   63.7780   32.6400   47.7710 C   0  0  0  0  0  0  0  0  0  0  0  0
   63.1130   33.8290   47.0860 C   0  0  0  0  0  0  0  0  0  0  0  0
   61.6290   33.8540   47.3720 C   0  0  0  0  0  0  0  0  0  0  0  0
   60.7410   33.5460   46.3270 C   0  0  0  0  0  0  0  0  0  0  0  0
   59.3530   33.5470   46.5320 C   0  0  0  0  0  0  0  0  0  0  0  0
   58.4410   33.1710   45.4270 C   0  0  0  0  0  0  0  0  0  0  0  0
   58.5120   33.7880   44.3310 O   0  0  0  0  0  0  0  0  0  0  0  0
   57.4500   32.1440   45.5740 N   0  0  0  0  0  0  0  0  0  0  0  0
   57.6850   30.7320   45.5130 C   0  0  0  0  0  0  0  0  0  0  0  0
   58.1390   29.8210   46.8510 S   0  0  0  0  0  0  0  0  0  0  0  0
   58.2000   28.3600   46.0260 C   0  0  0  0  0  0  0  0  0  0  0  0
   57.8810   28.5570   44.6910 C   0  0  0  0  0  0  0  0  0  0  0  0
   57.5590   29.8980   44.3940 C   0  0  0  0  0  0  0  0  0  0  0  0
   57.0080   30.3370   43.0990 C   0  0  0  0  0  0  0  0  0  0  0  0
   57.0980   31.7010   42.6910 N   0  0  0  0  0  0  0  0  0  0  0  0
   56.4230   29.5030   42.3570 O   0  0  0  0  0  0  0  0  0  0  0  0
   57.7090   27.3900   43.7580 C   0  0  0  0  0  0  0  0  0  0  0  0
   58.3080   26.1000   44.3500 C   0  0  0  0  0  0  0  0  0  0  0  0
   58.0010   25.9180   45.7860 N   0  0  0  0  0  0  0  0  0  0  0  0
   56.3090   25.5680   46.0940 S   0  0  0  0  0  0  0  0  0  0  0  0
   56.1430   25.0400   47.4930 O   0  0  0  0  0  0  0  0  0  0  0  0
   55.5430   26.8560   45.9860 O   0  0  0  0  0  0  0  0  0  0  0  0
   55.6090   24.4190   44.9010 C   0  0  0  0  0  0  0  0  0  0  0  0
   54.1640   24.0470   45.1960 C   0  0  0  0  0  0  0  0  0  0  0  0
   55.2690   23.0280   45.4130 C   0  0  0  0  0  0  0  0  0  0  0  0
   58.5130   27.0220   46.6230 C   0  0  0  0  0  0  0  0  0  0  0  0
   58.8490   33.9070   47.7890 C   0  0  0  0  0  0  0  0  0  0  0  0
   59.7170   34.2320   48.8320 C   0  0  0  0  0  0  0  0  0  0  0  0
   61.1070   34.2180   48.6400 C   0  0  0  0  0  0  0  0  0  0  0  0
   62.0070   34.5550   49.8010 C   0  0  0  0  0  0  0  0  0  0  0  0
   63.7105   32.7607   48.8623 H   0  0  0  0  0  0  0  0  0  0  0  0
   63.2677   31.7124   47.4724 H   0  0  0  0  0  0  0  0  0  0  0  0
   64.8355   32.5892   47.4724 H   0  0  0  0  0  0  0  0  0  0  0  0
   63.5673   34.7593   47.4576 H   0  0  0  0  0  0  0  0  0  0  0  0
   63.2606   33.7372   45.9998 H   0  0  0  0  0  0  0  0  0  0  0  0
   61.1408   33.3001   45.3321 H   0  0  0  0  0  0  0  0  0  0  0  0
   56.7290   31.9960   41.7600 H   0  0  0  0  0  0  0  0  0  0  0  0
   57.4320   32.4350   43.3540 H   0  0  0  0  0  0  0  0  0  0  0  0
   56.6356   27.2342   43.5747 H   0  0  0  0  0  0  0  0  0  0  0  0
   58.2377   27.6171   42.8205 H   0  0  0  0  0  0  0  0  0  0  0  0
   57.9040   25.2406   43.7949 H   0  0  0  0  0  0  0  0  0  0  0  0
   59.4015   26.1760   44.2575 H   0  0  0  0  0  0  0  0  0  0  0  0
   56.1764   24.7954   44.0371 H   0  0  0  0  0  0  0  0  0  0  0  0
   53.6474   24.4904   46.0600 H   0  0  0  0  0  0  0  0  0  0  0  0
   53.2242   24.0651   44.6246 H   0  0  0  0  0  0  0  0  0  0  0  0
   55.5525   22.7334   46.4342 H   0  0  0  0  0  0  0  0  0  0  0  0
   55.4606   22.0026   45.0638 H   0  0  0  0  0  0  0  0  0  0  0  0
   58.0502   26.9587   47.6189 H   0  0  0  0  0  0  0  0  0  0  0  0
   59.6065   26.9233   46.6900 H   0  0  0  0  0  0  0  0  0  0  0  0
   57.7619   33.9336   47.9546 H   0  0  0  0  0  0  0  0  0  0  0  0
   59.3069   34.5023   49.8162 H   0  0  0  0  0  0  0  0  0  0  0  0
   61.4778   34.3568   50.7447 H   0  0  0  0  0  0  0  0  0  0  0  0
   62.9150   33.9360   49.7528 H   0  0  0  0  0  0  0  0  0  0  0  0
   62.2851   35.6182   49.7528 H   0  0  0  0  0  0  0  0  0  0  0  0
  1  2  1  0
  2  3  1  0
  3  4  2  0
  4  5  1  0
  5  6  1  0
  6  7  2  0
  6  8  1  0
  8  9  1  0
  9 10  1  0
 10 11  1  0
 11 12  2  0
 12 13  1  0
 13 14  1  0
 14 15  1  0
 14 16  2  0
 12 17  1  0
 17 18  1  0
 18 19  1  0
 19 20  1  0
 20 21  2  0
 20 22  2  0
 20 23  1  0
 23 24  1  0
 24 25  1  0
 19 26  1  0
  5 27  2  0
 27 28  1  0
 28 29  2  0
 29 30  1  0
 29  3  1  0
 13  9  2  0
 25 23  1  0
 26 11  1  0
  1 31  1  0
  1 32  1  0
  1 33  1  0
  2 34  1  0
  2 35  1  0
  4 36  1  0
 15 37  1  0
 15 38  1  0
 17 39  1  0
 17 40  1  0
 18 41  1  0
 18 42  1  0
 23 43  1  0
 24 44  1  0
 24 45  1  0
 25 46  1  0
 25 47  1  0
 26 48  1  0
 26 49  1  0
 27 50  1  0
 28 51  1  0
 30 52  1  0
 30 53  1  0
 30 54  1  0
M  CHG  1   8  -1
M  END
>  <UniqueID>  (93) 
85

>  <SMILES>  (93) 
CCc1cc(C(=O)[N-]c2sc3c(c2C(N)=O)CCN(S(=O)(=O)C2CC2)C3)ccc1C

>  <Energy>  (93) 
355.9664672180025

>  <Genealogy>  (93) 
CCc1cc(C(=O)[N-]c2sc3c(c2C(N)=O)CCN(S(=O)(=O)C2CC2)C3)ccc1C (protonated)
CCc1cc(C(=O)[N-]c2sc3c(c2C(N)=O)CCN(S(=O)(=O)C2CC2)C3)ccc1C (3D coordinates assigned)
CCc1cc(C(=O)[N-]c2sc3c(c2C(N)=O)CCN(S(=O)(=O)C2CC2)C3)ccc1C (nonaromatic ring conformer: 355.9664672180025 kcal/mol)

>  <smiles>  (93) 
CCc1cc(C(=O)Nc2sc3c(c2C(N)=O)CCN(S(=O)(=O)C2CC2)C3)ccc1C

>  <score_type>  (93) 
oracle

>  <origin>  (93) 
adg

>  <m_score__min__energy>  (93) 
-10.57

>  <m_primary>  (93) 
energy

$$$$
93:0
     RDKit          3D

 41 43  0  0  0  0  0  0  0  0999 V2000
   55.1770   27.0780   45.2190 H   0  0  0  0  0  0  0  0  0  0  0  0
   55.1560   26.4170   46.0270 N   0  0  0  0  0  0  0  0  0  0  0  0
   55.0980   25.0070   45.8200 C   0  0  0  0  0  0  0  0  0  0  0  0
   53.9970   24.4170   45.9860 O   0  0  0  0  0  0  0  0  0  0  0  0
   56.3180   24.2530   45.4120 C   0  0  0  0  0  0  0  0  0  0  0  0
   56.2360   23.3500   44.3320 C   0  0  0  0  0  0  0  0  0  0  0  0
   55.2763   23.2119   43.8124 H   0  0  0  0  0  0  0  0  0  0  0  0
   57.3550   22.6290   43.9130 C   0  0  0  0  0  0  0  0  0  0  0  0
   57.2752   21.9359   43.0626 H   0  0  0  0  0  0  0  0  0  0  0  0
   58.5720   22.7860   44.5700 C   0  0  0  0  0  0  0  0  0  0  0  0
   59.4504   22.2094   44.2445 H   0  0  0  0  0  0  0  0  0  0  0  0
   58.6790   23.6730   45.6400 C   0  0  0  0  0  0  0  0  0  0  0  0
   59.6412   23.7826   46.1618 H   0  0  0  0  0  0  0  0  0  0  0  0
   57.5690   24.4300   46.0600 C   0  0  0  0  0  0  0  0  0  0  0  0
   57.6970   25.3440   47.1620 N   0  0  0  0  0  0  0  0  0  0  0  0
   58.7610   26.2840   47.3570 C   0  0  0  0  0  0  0  0  0  0  0  0
   59.7090   25.9810   48.1280 O   0  0  0  0  0  0  0  0  0  0  0  0
   58.7740   27.5990   46.6910 C   0  0  0  0  0  0  0  0  0  0  0  0
   58.6820   27.8060   45.0210 S   0  0  0  0  0  0  0  0  0  0  0  0
   58.6740   29.4790   45.1360 C   0  0  0  0  0  0  0  0  0  0  0  0
   58.5580   30.2710   44.1170 N   0  0  0  0  0  0  0  0  0  0  0  0
   57.5570   31.6880   44.1310 S   0  0  0  0  0  0  0  0  0  0  0  0
   56.2090   31.3380   44.6950 O   0  0  0  0  0  0  0  0  0  0  0  0
   57.3910   32.1800   42.7210 O   0  0  0  0  0  0  0  0  0  0  0  0
   58.2900   32.9350   45.1380 C   0  0  0  0  0  0  0  0  0  0  0  0
   58.7200   34.1450   44.5720 C   0  0  0  0  0  0  0  0  0  0  0  0
   58.5698   34.3330   43.4986 H   0  0  0  0  0  0  0  0  0  0  0  0
   59.3390   35.1120   45.3700 C   0  0  0  0  0  0  0  0  0  0  0  0
   59.6723   36.0607   44.9240 H   0  0  0  0  0  0  0  0  0  0  0  0
   59.5350   34.8750   46.7340 C   0  0  0  0  0  0  0  0  0  0  0  0
   60.0276   35.6347   47.3586 H   0  0  0  0  0  0  0  0  0  0  0  0
   59.1050   33.6720   47.3050 C   0  0  0  0  0  0  0  0  0  0  0  0
   59.3580   33.3730   49.0140 Cl  0  0  0  0  0  0  0  0  0  0  0  0
   58.4790   32.7060   46.5090 C   0  0  0  0  0  0  0  0  0  0  0  0
   58.1340   31.7639   46.9600 H   0  0  0  0  0  0  0  0  0  0  0  0
   58.7620   29.9050   46.4150 N   0  0  0  0  0  0  0  0  0  0  0  0
   58.8310   28.8670   47.2890 C   0  0  0  0  0  0  0  0  0  0  0  0
   58.9570   29.1170   48.7590 C   0  0  0  0  0  0  0  0  0  0  0  0
   58.5294   28.2685   49.3132 H   0  0  0  0  0  0  0  0  0  0  0  0
   60.0192   29.2289   49.0222 H   0  0  0  0  0  0  0  0  0  0  0  0
   58.4151   30.0374   49.0222 H   0  0  0  0  0  0  0  0  0  0  0  0
  1  2  1  0
  2  3  1  0
  3  4  2  0
  3  5  1  0
  5  6  2  0
  6  7  1  0
  6  8  1  0
  8  9  1  0
  8 10  2  0
 10 11  1  0
 10 12  1  0
 12 13  1  0
 12 14  2  0
 14 15  1  0
 15 16  1  0
 16 17  2  0
 16 18  1  0
 18 19  1  0
 19 20  1  0
 20 21  2  0
 21 22  1  0
 22 23  2  0
 22 24  2  0
 22 25  1  0
 25 26  2  0
 26 27  1  0
 26 28  1  0
 28 29  1  0
 28 30  2  0
 30 31  1  0
 30 32  1  0
 32 33  1  0
 32 34  2  0
 34 35  1  0
 20 36  1  0
 36 37  1  0
 37 38  1  0
 38 39  1  0
 38 40  1  0
 38 41  1  0
 14  5  1  0
 37 18  2  0
 34 25  1  0
M  CHG  3   2  -1  15  -1  36  -1
M  END
>  <UniqueID>  (94) 
86

>  <SMILES>  (94) 
Cc1[n-]/c(=N\S(=O)(=O)c2cccc(Cl)c2)sc1C(=O)[N-]c1ccccc1C([NH-])=O

>  <Energy>  (94) 
83.3508696068484

>  <Genealogy>  (94) 
Cc1[n-]c(=NS(=O)(=O)c2cccc(Cl)c2)sc1C(=O)[N-]c1ccccc1C([NH-])=O (protonated)
Cc1[n-]/c(=N\S(=O)(=O)c2cccc(Cl)c2)sc1C(=O)[N-]c1ccccc1C([NH-])=O (cis-trans isomerization)
Cc1[n-]/c(=N\S(=O)(=O)c2cccc(Cl)c2)sc1C(=O)[N-]c1ccccc1C([NH-])=O (3D coordinates assigned)
Cc1[n-]/c(=N\S(=O)(=O)c2cccc(Cl)c2)sc1C(=O)[N-]c1ccccc1C([NH-])=O (optimized conformer: 83.3508696068484 kcal/mol)

>  <smiles>  (94) 
Cc1[nH]c(=NS(=O)(=O)c2cccc(Cl)c2)sc1C(=O)Nc1ccccc1C(N)=O

>  <score_type>  (94) 
oracle

>  <origin>  (94) 
adg

>  <m_score__min__energy>  (94) 
-15.67

>  <m_primary>  (94) 
energy

$$$$
94:0
     RDKit          3D

 51 54  0  0  0  0  0  0  0  0999 V2000
   56.3630   29.5390   45.5740 O   0  0  0  0  0  0  0  0  0  0  0  0
   57.3400   29.1800   44.8630 C   0  0  0  0  0  0  0  0  0  0  0  0
   58.3780   30.1240   44.5370 N   0  0  0  0  0  0  0  0  0  0  0  0
   58.4540   31.4500   45.0890 C   0  0  0  0  0  0  0  0  0  0  0  0
   57.8490   32.5140   44.4050 C   0  0  0  0  0  0  0  0  0  0  0  0
   57.9330   33.8150   44.9060 C   0  0  0  0  0  0  0  0  0  0  0  0
   58.6400   34.0700   46.0820 C   0  0  0  0  0  0  0  0  0  0  0  0
   59.2790   33.0230   46.7600 C   0  0  0  0  0  0  0  0  0  0  0  0
   60.2120   33.3500   48.2210 S   0  0  0  0  0  0  0  0  0  0  0  0
   60.6750   34.7810   48.1860 O   0  0  0  0  0  0  0  0  0  0  0  0
   59.3210   33.1880   49.4210 O   0  0  0  0  0  0  0  0  0  0  0  0
   61.6040   32.3000   48.3820 N   0  0  0  0  0  0  0  0  0  0  0  0
   62.4360   32.6260   49.5590 C   0  0  0  0  0  0  0  0  0  0  0  0
   63.7060   33.4120   49.1950 C   0  0  0  0  0  0  0  0  0  0  0  0
   63.4890   34.1940   48.0430 O   0  0  0  0  0  0  0  0  0  0  0  0
   63.3640   33.3530   46.9140 C   0  0  0  0  0  0  0  0  0  0  0  0
   62.3740   32.1830   47.1290 C   0  0  0  0  0  0  0  0  0  0  0  0
   59.1840   31.7150   46.2610 C   0  0  0  0  0  0  0  0  0  0  0  0
   57.3900   27.7820   44.3700 C   0  0  0  0  0  0  0  0  0  0  0  0
   57.7670   27.4830   43.0480 C   0  0  0  0  0  0  0  0  0  0  0  0
   57.7930   26.1590   42.6020 C   0  0  0  0  0  0  0  0  0  0  0  0
   57.4430   25.1190   43.4650 C   0  0  0  0  0  0  0  0  0  0  0  0
   57.0660   25.3960   44.7870 C   0  0  0  0  0  0  0  0  0  0  0  0
   56.6470   24.2810   45.7060 C   0  0  0  0  0  0  0  0  0  0  0  0
   55.1740   24.0410   45.5850 C   0  0  0  0  0  0  0  0  0  0  0  0
   54.6180   22.8270   45.4260 N   0  0  0  0  0  0  0  0  0  0  0  0
   53.2920   23.0890   45.4380 C   0  0  0  0  0  0  0  0  0  0  0  0
   52.4230   22.1890   45.3070 O   0  0  0  0  0  0  0  0  0  0  0  0
   52.9730   24.3900   45.6060 N   0  0  0  0  0  0  0  0  0  0  0  0
   54.1760   24.9780   45.7040 C   0  0  0  0  0  0  0  0  0  0  0  0
   54.3570   26.3400   45.9030 O   0  0  0  0  0  0  0  0  0  0  0  0
   57.0260   26.7280   45.2290 C   0  0  0  0  0  0  0  0  0  0  0  0
   59.1000   29.8650   43.8310 H   0  0  0  0  0  0  0  0  0  0  0  0
   57.3050   32.3229   43.4682 H   0  0  0  0  0  0  0  0  0  0  0  0
   57.4405   34.6411   44.3721 H   0  0  0  0  0  0  0  0  0  0  0  0
   58.6958   35.0949   46.4776 H   0  0  0  0  0  0  0  0  0  0  0  0
   61.8368   33.2305   50.2558 H   0  0  0  0  0  0  0  0  0  0  0  0
   62.7546   31.6753   50.0114 H   0  0  0  0  0  0  0  0  0  0  0  0
   63.9772   34.0702   50.0336 H   0  0  0  0  0  0  0  0  0  0  0  0
   64.5198   32.6998   48.9935 H   0  0  0  0  0  0  0  0  0  0  0  0
   63.0110   33.9576   46.0656 H   0  0  0  0  0  0  0  0  0  0  0  0
   64.3538   32.9118   46.7251 H   0  0  0  0  0  0  0  0  0  0  0  0
   61.6686   32.1616   46.2852 H   0  0  0  0  0  0  0  0  0  0  0  0
   62.9670   31.2588   47.1932 H   0  0  0  0  0  0  0  0  0  0  0  0
   59.6843   30.8909   46.7907 H   0  0  0  0  0  0  0  0  0  0  0  0
   58.0430   28.2966   42.3611 H   0  0  0  0  0  0  0  0  0  0  0  0
   58.0904   25.9353   41.5669 H   0  0  0  0  0  0  0  0  0  0  0  0
   57.4630   24.0791   43.1069 H   0  0  0  0  0  0  0  0  0  0  0  0
   57.1888   23.3629   45.4348 H   0  0  0  0  0  0  0  0  0  0  0  0
   56.8822   24.5616   46.7433 H   0  0  0  0  0  0  0  0  0  0  0  0
   56.7067   26.9504   46.2579 H   0  0  0  0  0  0  0  0  0  0  0  0
  1  2  2  0
  2  3  1  0
  3  4  1  0
  4  5  2  0
  5  6  1  0
  6  7  2  0
  7  8  1  0
  8  9  1  0
  9 10  2  0
  9 11  2  0
  9 12  1  0
 12 13  1  0
 13 14  1  0
 14 15  1  0
 15 16  1  0
 16 17  1  0
  8 18  2  0
  2 19  1  0
 19 20  2  0
 20 21  1  0
 21 22  2  0
 22 23  1  0
 23 24  1  0
 24 25  1  0
 25 26  1  0
 26 27  1  0
 27 28  2  0
 27 29  1  0
 29 30  1  0
 30 31  1  0
 23 32  2  0
 18  4  1  0
 32 19  1  0
 17 12  1  0
 30 25  2  0
  3 33  1  0
  5 34  1  0
  6 35  1  0
  7 36  1  0
 13 37  1  0
 13 38  1  0
 14 39  1  0
 14 40  1  0
 16 41  1  0
 16 42  1  0
 17 43  1  0
 17 44  1  0
 18 45  1  0
 20 46  1  0
 21 47  1  0
 22 48  1  0
 24 49  1  0
 24 50  1  0
 32 51  1  0
M  CHG  3  26  -1  29  -1  31  -1
M  END
>  <UniqueID>  (95) 
87

>  <SMILES>  (95) 
O=C(Nc1cccc(S(=O)(=O)N2CCOCC2)c1)c1cccc(Cc2[n-]c(=O)[n-]c2[O-])c1

>  <Energy>  (95) 
99.36199988402137

>  <Genealogy>  (95) 
O=C(Nc1cccc(S(=O)(=O)N2CCOCC2)c1)c1cccc(Cc2[n-]c(=O)[n-]c2[O-])c1 (protonated)
O=C(Nc1cccc(S(=O)(=O)N2CCOCC2)c1)c1cccc(Cc2[n-]c(=O)[n-]c2[O-])c1 (3D coordinates assigned)
O=C(Nc1cccc(S(=O)(=O)N2CCOCC2)c1)c1cccc(Cc2[n-]c(=O)[n-]c2[O-])c1 (nonaromatic ring conformer: 99.36199988402137 kcal/mol)

>  <smiles>  (95) 
O=C(Nc1cccc(S(=O)(=O)N2CCOCC2)c1)c1cccc(Cc2[nH]c(=O)[nH]c2O)c1

>  <score_type>  (95) 
oracle

>  <origin>  (95) 
adg

>  <m_score__min__energy>  (95) 
-19.77

>  <m_primary>  (95) 
energy

$$$$
